 xtb: 6.7.1 (edcfbbe)
          07082621303D

 21 20  0     0  0            999 V2000
   -4.0289   -0.1986   -0.7130 C   0  0  0  0  0  0  0  0  0  0  0  0
   -2.8595   -0.7216    0.0988 C   0  0  0  0  0  0  0  0  0  0  0  0
   -1.6817   -0.0092   -0.2935 O   0  0  0  0  0  0  0  0  0  0  0  0
   -0.5492   -0.3452    0.3262 C   0  0  0  0  0  0  0  0  0  0  0  0
   -0.4794   -1.1955    1.1745 O   0  0  0  0  0  0  0  0  0  0  0  0
    0.6089    0.4805   -0.1818 C   0  0  0  0  0  0  0  0  0  0  0  0
    1.9096    0.1070    0.5178 C   0  0  0  0  0  0  0  0  0  0  0  0
    2.9434    0.9114   -0.0015 O   0  0  0  0  0  0  0  0  0  0  0  0
    4.1900    0.6408    0.5838 C   0  0  0  0  0  0  0  0  0  0  0  0
   -4.1651    0.8639   -0.5315 H   0  0  0  0  0  0  0  0  0  0  0  0
   -3.8454   -0.3487   -1.7733 H   0  0  0  0  0  0  0  0  0  0  0  0
   -4.9344   -0.7273   -0.4299 H   0  0  0  0  0  0  0  0  0  0  0  0
   -2.6977   -1.7913   -0.0747 H   0  0  0  0  0  0  0  0  0  0  0  0
   -3.0189   -0.5732    1.1726 H   0  0  0  0  0  0  0  0  0  0  0  0
    0.3894    1.5373   -0.0218 H   0  0  0  0  0  0  0  0  0  0  0  0
    0.7078    0.3301   -1.2580 H   0  0  0  0  0  0  0  0  0  0  0  0
    1.8094    0.2620    1.6026 H   0  0  0  0  0  0  0  0  0  0  0  0
    2.1312   -0.9582    0.3530 H   0  0  0  0  0  0  0  0  0  0  0  0
    4.9069    1.3109    0.1140 H   0  0  0  0  0  0  0  0  0  0  0  0
    4.1704    0.8245    1.6653 H   0  0  0  0  0  0  0  0  0  0  0  0
    4.4932   -0.3995    0.4118 H   0  0  0  0  0  0  0  0  0  0  0  0
  1  2  1  0  0  0  0
  2  3  1  0  0  0  0
  3  4  1  0  0  0  0
  4  5  2  0  0  0  0
  4  6  1  0  0  0  0
  6  7  1  0  0  0  0
  7  8  1  0  0  0  0
  8  9  1  0  0  0  0
  1 10  1  0  0  0  0
  1 11  1  0  0  0  0
  1 12  1  0  0  0  0
  2 13  1  0  0  0  0
  2 14  1  0  0  0  0
  6 15  1  0  0  0  0
  6 16  1  0  0  0  0
  7 17  1  0  0  0  0
  7 18  1  0  0  0  0
  9 19  1  0  0  0  0
  9 20  1  0  0  0  0
  9 21  1  0  0  0  0
M  END
