 xtb: 6.7.1 (edcfbbe)
          07072621073D

 32 31  0     0  0            999 V2000
    3.4671    0.7634    1.1618 C   0  0  0  0  0  0  0  0  0  0  0  0
    2.3425   -0.0442    0.5159 C   0  0  0  0  0  0  0  0  0  0  0  0
    2.7579   -0.4737   -0.8936 C   0  0  0  0  0  0  0  0  0  0  0  0
    3.7892   -1.5598   -0.9156 C   0  0  0  0  0  0  0  0  0  0  0  0
    4.1818   -2.1887    0.0262 O   0  0  0  0  0  0  0  0  0  0  0  0
    1.0452    0.7709    0.4906 C   0  0  0  0  0  0  0  0  0  0  0  0
   -0.1948   -0.0633    0.1764 C   0  0  0  0  0  0  0  0  0  0  0  0
   -1.4623    0.7858    0.2471 C   0  0  0  0  0  0  0  0  0  0  0  0
   -2.7180    0.0668   -0.2715 C   0  0  0  0  0  0  0  0  0  0  0  0
   -3.0109   -1.2127    0.5214 C   0  0  0  0  0  0  0  0  0  0  0  0
   -3.9212    1.0149   -0.1733 C   0  0  0  0  0  0  0  0  0  0  0  0
   -2.4641   -0.2500   -1.6333 O   0  0  0  0  0  0  0  0  0  0  0  0
    3.6471    1.6812    0.6043 H   0  0  0  0  0  0  0  0  0  0  0  0
    3.2076    1.0289    2.1838 H   0  0  0  0  0  0  0  0  0  0  0  0
    4.3853    0.1825    1.1839 H   0  0  0  0  0  0  0  0  0  0  0  0
    2.1826   -0.9490    1.1114 H   0  0  0  0  0  0  0  0  0  0  0  0
    1.8976   -0.8602   -1.4480 H   0  0  0  0  0  0  0  0  0  0  0  0
    3.1402    0.3787   -1.4614 H   0  0  0  0  0  0  0  0  0  0  0  0
    4.1765   -1.7675   -1.9357 H   0  0  0  0  0  0  0  0  0  0  0  0
    0.9093    1.2341    1.4708 H   0  0  0  0  0  0  0  0  0  0  0  0
    1.1403    1.5762   -0.2418 H   0  0  0  0  0  0  0  0  0  0  0  0
   -0.2572   -0.8858    0.8907 H   0  0  0  0  0  0  0  0  0  0  0  0
   -0.1305   -0.4854   -0.8267 H   0  0  0  0  0  0  0  0  0  0  0  0
   -1.3188    1.6746   -0.3704 H   0  0  0  0  0  0  0  0  0  0  0  0
   -1.6386    1.1097    1.2740 H   0  0  0  0  0  0  0  0  0  0  0  0
   -2.2391   -1.9549    0.3366 H   0  0  0  0  0  0  0  0  0  0  0  0
   -3.0490   -0.9986    1.5857 H   0  0  0  0  0  0  0  0  0  0  0  0
   -3.9691   -1.6329    0.2186 H   0  0  0  0  0  0  0  0  0  0  0  0
   -4.0998    1.2951    0.8609 H   0  0  0  0  0  0  0  0  0  0  0  0
   -4.8183    0.5340   -0.5612 H   0  0  0  0  0  0  0  0  0  0  0  0
   -3.7344    1.9149   -0.7543 H   0  0  0  0  0  0  0  0  0  0  0  0
   -3.2438   -0.6853   -1.9943 H   0  0  0  0  0  0  0  0  0  0  0  0
  1  2  1  0  0  0  0
  2  3  1  0  0  0  0
  3  4  1  0  0  0  0
  4  5  2  0  0  0  0
  2  6  1  0  0  0  0
  6  7  1  0  0  0  0
  7  8  1  0  0  0  0
  8  9  1  0  0  0  0
  9 10  1  0  0  0  0
  9 11  1  0  0  0  0
  9 12  1  0  0  0  0
  1 13  1  0  0  0  0
  1 14  1  0  0  0  0
  1 15  1  0  0  0  0
  2 16  1  0  0  0  0
  3 17  1  0  0  0  0
  3 18  1  0  0  0  0
  4 19  1  0  0  0  0
  6 20  1  0  0  0  0
  6 21  1  0  0  0  0
  7 22  1  0  0  0  0
  7 23  1  0  0  0  0
  8 24  1  0  0  0  0
  8 25  1  0  0  0  0
 10 26  1  0  0  0  0
 10 27  1  0  0  0  0
 10 28  1  0  0  0  0
 11 29  1  0  0  0  0
 11 30  1  0  0  0  0
 11 31  1  0  0  0  0
 12 32  1  0  0  0  0
M  END
