 xtb: 6.7.1 (edcfbbe)
          07072616023D

 22 22  0     0  0            999 V2000
    0.6856   -3.0690   -0.2013 C   0  0  0  0  0  0  0  0  0  0  0  0
   -0.2878   -2.4094    0.5802 O   0  0  0  0  0  0  0  0  0  0  0  0
   -0.4579   -1.0683    0.5407 C   0  0  0  0  0  0  0  0  0  0  0  0
   -1.4953   -0.6101    1.3572 C   0  0  0  0  0  0  0  0  0  0  0  0
   -1.8164    0.7245    1.4487 C   0  0  0  0  0  0  0  0  0  0  0  0
   -1.0908    1.6542    0.7091 C   0  0  0  0  0  0  0  0  0  0  0  0
   -1.3915    3.0807    0.7728 C   0  0  0  0  0  0  0  0  0  0  0  0
   -0.8075    3.9490    0.1696 O   0  0  0  0  0  0  0  0  0  0  0  0
   -0.0503    1.2098   -0.1106 C   0  0  0  0  0  0  0  0  0  0  0  0
    0.2831   -0.1282   -0.2120 C   0  0  0  0  0  0  0  0  0  0  0  0
    1.3005   -0.5868   -1.0071 O   0  0  0  0  0  0  0  0  0  0  0  0
    2.0361    0.3472   -1.7612 C   0  0  0  0  0  0  0  0  0  0  0  0
    0.5193   -2.9113   -1.2683 H   0  0  0  0  0  0  0  0  0  0  0  0
    1.6964   -2.7500    0.0585 H   0  0  0  0  0  0  0  0  0  0  0  0
    0.5648   -4.1263    0.0339 H   0  0  0  0  0  0  0  0  0  0  0  0
   -2.0389   -1.3543    1.9173 H   0  0  0  0  0  0  0  0  0  0  0  0
   -2.6236    1.0486    2.0874 H   0  0  0  0  0  0  0  0  0  0  0  0
   -2.2353    3.3280    1.4473 H   0  0  0  0  0  0  0  0  0  0  0  0
    0.4863    1.9632   -0.6645 H   0  0  0  0  0  0  0  0  0  0  0  0
    2.7727   -0.2409   -2.3065 H   0  0  0  0  0  0  0  0  0  0  0  0
    1.3998    0.8817   -2.4726 H   0  0  0  0  0  0  0  0  0  0  0  0
    2.5507    1.0677   -1.1186 H   0  0  0  0  0  0  0  0  0  0  0  0
  1  2  1  0  0  0  0
  2  3  1  0  0  0  0
  3  4  4  0  0  0  0
  4  5  4  0  0  0  0
  5  6  4  0  0  0  0
  6  7  1  0  0  0  0
  7  8  2  0  0  0  0
  6  9  4  0  0  0  0
  3 10  4  0  0  0  0
  9 10  4  0  0  0  0
 10 11  1  0  0  0  0
 11 12  1  0  0  0  0
  1 13  1  0  0  0  0
  1 14  1  0  0  0  0
  1 15  1  0  0  0  0
  4 16  1  0  0  0  0
  5 17  1  0  0  0  0
  7 18  1  0  0  0  0
  9 19  1  0  0  0  0
 12 20  1  0  0  0  0
 12 21  1  0  0  0  0
 12 22  1  0  0  0  0
M  END
