 xtb: 6.7.1 (edcfbbe)
          07072603013D

 38 38  0     0  0            999 V2000
    6.5829   -1.9014    0.3498 C   0  0  0  0  0  0  0  0  0  0  0  0
    5.4314   -1.0966   -0.2403 C   0  0  0  0  0  0  0  0  0  0  0  0
    4.1179   -1.3896    0.4790 C   0  0  0  0  0  0  0  0  0  0  0  0
    2.9591   -0.5849   -0.0962 C   0  0  0  0  0  0  0  0  0  0  0  0
    1.7910   -0.8975    0.6341 O   0  0  0  0  0  0  0  0  0  0  0  0
    0.6600   -0.1882    0.2016 C   0  0  0  0  0  0  0  0  0  0  0  0
   -0.4877   -0.5278    1.1524 C   0  0  0  0  0  0  0  0  0  0  0  0
   -1.7338   -0.0299    0.6766 O   0  0  0  0  0  0  0  0  0  0  0  0
   -1.9591    1.2713    0.8203 C   0  0  0  0  0  0  0  0  0  0  0  0
   -1.1903    2.0518    1.3293 O   0  0  0  0  0  0  0  0  0  0  0  0
   -3.3024    1.7153    0.2594 C   0  0  0  0  0  0  0  0  0  0  0  0
   -3.4433    3.0909    0.5036 O   0  0  0  0  0  0  0  0  0  0  0  0
   -3.3580    1.4086   -1.2602 C   0  0  0  0  0  0  0  0  0  0  0  0
   -4.2349    0.1690   -1.3853 C   0  0  0  0  0  0  0  0  0  0  0  0
   -5.2854    0.3852   -0.3011 C   0  0  0  0  0  0  0  0  0  0  0  0
   -4.4700    0.9059    0.8815 C   0  0  0  0  0  0  0  0  0  0  0  0
    6.7155   -1.6605    1.4019 H   0  0  0  0  0  0  0  0  0  0  0  0
    6.3852   -2.9674    0.2656 H   0  0  0  0  0  0  0  0  0  0  0  0
    7.5105   -1.6812   -0.1729 H   0  0  0  0  0  0  0  0  0  0  0  0
    5.6559   -0.0305   -0.1632 H   0  0  0  0  0  0  0  0  0  0  0  0
    5.3253   -1.3365   -1.3007 H   0  0  0  0  0  0  0  0  0  0  0  0
    4.2109   -1.1490    1.5389 H   0  0  0  0  0  0  0  0  0  0  0  0
    3.8766   -2.4506    0.3998 H   0  0  0  0  0  0  0  0  0  0  0  0
    3.1689    0.4938   -0.0228 H   0  0  0  0  0  0  0  0  0  0  0  0
    2.8135   -0.8281   -1.1609 H   0  0  0  0  0  0  0  0  0  0  0  0
    0.8499    0.8955    0.2167 H   0  0  0  0  0  0  0  0  0  0  0  0
    0.3868   -0.4784   -0.8268 H   0  0  0  0  0  0  0  0  0  0  0  0
   -0.6025   -1.6104    1.2180 H   0  0  0  0  0  0  0  0  0  0  0  0
   -0.2738   -0.1137    2.1419 H   0  0  0  0  0  0  0  0  0  0  0  0
   -2.6315    3.3958    0.9405 H   0  0  0  0  0  0  0  0  0  0  0  0
   -2.3658    1.2758   -1.6900 H   0  0  0  0  0  0  0  0  0  0  0  0
   -3.8330    2.2663   -1.7375 H   0  0  0  0  0  0  0  0  0  0  0  0
   -4.6664    0.0690   -2.3800 H   0  0  0  0  0  0  0  0  0  0  0  0
   -3.6493   -0.7238   -1.1625 H   0  0  0  0  0  0  0  0  0  0  0  0
   -5.8317   -0.5234   -0.0542 H   0  0  0  0  0  0  0  0  0  0  0  0
   -5.9971    1.1450   -0.6250 H   0  0  0  0  0  0  0  0  0  0  0  0
   -4.0774    0.0739    1.4654 H   0  0  0  0  0  0  0  0  0  0  0  0
   -5.0477    1.5564    1.5354 H   0  0  0  0  0  0  0  0  0  0  0  0
  1  2  1  0  0  0  0
  2  3  1  0  0  0  0
  3  4  1  0  0  0  0
  4  5  1  0  0  0  0
  5  6  1  0  0  0  0
  6  7  1  0  0  0  0
  7  8  1  0  0  0  0
  8  9  1  0  0  0  0
  9 10  2  0  0  0  0
  9 11  1  0  0  0  0
 11 12  1  0  0  0  0
 11 13  1  0  0  0  0
 13 14  1  0  0  0  0
 14 15  1  0  0  0  0
 11 16  1  0  0  0  0
 15 16  1  0  0  0  0
  1 17  1  0  0  0  0
  1 18  1  0  0  0  0
  1 19  1  0  0  0  0
  2 20  1  0  0  0  0
  2 21  1  0  0  0  0
  3 22  1  0  0  0  0
  3 23  1  0  0  0  0
  4 24  1  0  0  0  0
  4 25  1  0  0  0  0
  6 26  1  0  0  0  0
  6 27  1  0  0  0  0
  7 28  1  0  0  0  0
  7 29  1  0  0  0  0
 12 30  1  0  0  0  0
 13 31  1  0  0  0  0
 13 32  1  0  0  0  0
 14 33  1  0  0  0  0
 14 34  1  0  0  0  0
 15 35  1  0  0  0  0
 15 36  1  0  0  0  0
 16 37  1  0  0  0  0
 16 38  1  0  0  0  0
M  END
