 xtb: 6.7.1 (edcfbbe)
          07092610543D

 21 21  0     0  0            999 V2000
    3.4731    0.1637    0.3016 C   0  0  0  0  0  0  0  0  0  0  0  0
    2.1684   -0.5272   -0.0020 C   0  0  0  0  0  0  0  0  0  0  0  0
    2.0609   -1.6109   -0.5058 O   0  0  0  0  0  0  0  0  0  0  0  0
    1.1411    0.2523    0.3710 O   0  0  0  0  0  0  0  0  0  0  0  0
   -0.1752   -0.1907    0.2437 C   0  0  0  0  0  0  0  0  0  0  0  0
   -0.5666   -1.4465    0.6766 C   0  0  0  0  0  0  0  0  0  0  0  0
   -1.8950   -1.8209    0.5692 C   0  0  0  0  0  0  0  0  0  0  0  0
   -2.8212   -0.9411    0.0399 C   0  0  0  0  0  0  0  0  0  0  0  0
   -2.4204    0.3153   -0.3819 C   0  0  0  0  0  0  0  0  0  0  0  0
   -1.0954    0.7133   -0.2909 C   0  0  0  0  0  0  0  0  0  0  0  0
   -0.6403    2.0640   -0.7487 C   0  0  0  0  0  0  0  0  0  0  0  0
    3.7148    0.0046    1.3510 H   0  0  0  0  0  0  0  0  0  0  0  0
    4.2617   -0.2626   -0.3108 H   0  0  0  0  0  0  0  0  0  0  0  0
    3.3835    1.2317    0.1269 H   0  0  0  0  0  0  0  0  0  0  0  0
    0.1636   -2.1254    1.0876 H   0  0  0  0  0  0  0  0  0  0  0  0
   -2.2009   -2.8008    0.9022 H   0  0  0  0  0  0  0  0  0  0  0  0
   -3.8577   -1.2312   -0.0450 H   0  0  0  0  0  0  0  0  0  0  0  0
   -3.1465    1.0009   -0.7940 H   0  0  0  0  0  0  0  0  0  0  0  0
   -1.4796    2.6521   -1.1095 H   0  0  0  0  0  0  0  0  0  0  0  0
    0.0900    1.9633   -1.5512 H   0  0  0  0  0  0  0  0  0  0  0  0
   -0.1582    2.5961    0.0701 H   0  0  0  0  0  0  0  0  0  0  0  0
  1  2  1  0  0  0  0
  2  3  2  0  0  0  0
  2  4  1  0  0  0  0
  4  5  1  0  0  0  0
  5  6  4  0  0  0  0
  6  7  4  0  0  0  0
  7  8  4  0  0  0  0
  8  9  4  0  0  0  0
  5 10  4  0  0  0  0
  9 10  4  0  0  0  0
 10 11  1  0  0  0  0
  1 12  1  0  0  0  0
  1 13  1  0  0  0  0
  1 14  1  0  0  0  0
  6 15  1  0  0  0  0
  7 16  1  0  0  0  0
  8 17  1  0  0  0  0
  9 18  1  0  0  0  0
 11 19  1  0  0  0  0
 11 20  1  0  0  0  0
 11 21  1  0  0  0  0
M  END
