 xtb: 6.7.1 (edcfbbe)
          07082616433D

 46 48  0     0  0            999 V2000
   -2.3722    0.0939    0.4318 C   0  0  0  0  0  0  0  0  0  0  0  0
   -2.0402   -0.1371    1.8867 C   0  0  0  0  0  0  0  0  0  0  0  0
   -3.1118    0.3874    2.8159 C   0  0  0  0  0  0  0  0  0  0  0  0
   -0.5911   -0.0594    2.2915 C   0  0  0  0  0  0  0  0  0  0  0  0
   -0.1497    0.5448    3.5494 C   0  0  0  0  0  0  0  0  0  0  0  0
    1.0032    1.1873    3.7097 C   0  0  0  0  0  0  0  0  0  0  0  0
    1.4687    1.8824    5.2173 Cl  0  0  0  0  0  0  0  0  0  0  0  0
    2.1650    1.4049    2.4587 Cl  0  0  0  0  0  0  0  0  0  0  0  0
   -1.3194   -1.3995    2.3142 C   0  0  0  0  0  0  0  0  0  0  0  0
   -0.9089   -2.4898    1.3951 C   0  0  0  0  0  0  0  0  0  0  0  0
   -1.1422   -3.6551    1.5974 O   0  0  0  0  0  0  0  0  0  0  0  0
   -0.2254   -2.0451    0.3346 O   0  0  0  0  0  0  0  0  0  0  0  0
    0.2763   -3.0180   -0.5835 C   0  0  0  0  0  0  0  0  0  0  0  0
    1.3067   -2.3475   -1.4488 C   0  0  0  0  0  0  0  0  0  0  0  0
    2.5066   -2.9670   -1.7666 C   0  0  0  0  0  0  0  0  0  0  0  0
    3.4335   -2.3067   -2.5569 C   0  0  0  0  0  0  0  0  0  0  0  0
    3.1950   -1.0203   -3.0015 C   0  0  0  0  0  0  0  0  0  0  0  0
    2.0005   -0.3883   -2.6685 C   0  0  0  0  0  0  0  0  0  0  0  0
    1.7857    0.8702   -3.1562 O   0  0  0  0  0  0  0  0  0  0  0  0
    0.9629    1.7304   -2.4681 C   0  0  0  0  0  0  0  0  0  0  0  0
    0.1654    2.5900   -3.2152 C   0  0  0  0  0  0  0  0  0  0  0  0
   -0.6449    3.5084   -2.5738 C   0  0  0  0  0  0  0  0  0  0  0  0
   -0.6698    3.5739   -1.1908 C   0  0  0  0  0  0  0  0  0  0  0  0
    0.1371    2.7282   -0.4483 C   0  0  0  0  0  0  0  0  0  0  0  0
    0.9573    1.8116   -1.0792 C   0  0  0  0  0  0  0  0  0  0  0  0
    1.0498   -1.0694   -1.9194 C   0  0  0  0  0  0  0  0  0  0  0  0
   -2.4976    1.1595    0.2466 H   0  0  0  0  0  0  0  0  0  0  0  0
   -3.2998   -0.4131    0.1705 H   0  0  0  0  0  0  0  0  0  0  0  0
   -1.5819   -0.2729   -0.2135 H   0  0  0  0  0  0  0  0  0  0  0  0
   -3.1485    1.4743    2.7658 H   0  0  0  0  0  0  0  0  0  0  0  0
   -4.0825   -0.0008    2.5131 H   0  0  0  0  0  0  0  0  0  0  0  0
   -2.9387    0.0940    3.8468 H   0  0  0  0  0  0  0  0  0  0  0  0
    0.1114    0.0529    1.4763 H   0  0  0  0  0  0  0  0  0  0  0  0
   -0.7978    0.4587    4.4077 H   0  0  0  0  0  0  0  0  0  0  0  0
   -1.6028   -1.7966    3.2816 H   0  0  0  0  0  0  0  0  0  0  0  0
   -0.5593   -3.3985   -1.1864 H   0  0  0  0  0  0  0  0  0  0  0  0
    0.7003   -3.8585   -0.0245 H   0  0  0  0  0  0  0  0  0  0  0  0
    2.7135   -3.9614   -1.4016 H   0  0  0  0  0  0  0  0  0  0  0  0
    4.3619   -2.7940   -2.8136 H   0  0  0  0  0  0  0  0  0  0  0  0
    3.9182   -0.4909   -3.6013 H   0  0  0  0  0  0  0  0  0  0  0  0
    0.1949    2.5255   -4.2917 H   0  0  0  0  0  0  0  0  0  0  0  0
   -1.2640    4.1722   -3.1588 H   0  0  0  0  0  0  0  0  0  0  0  0
   -1.3092    4.2875   -0.6933 H   0  0  0  0  0  0  0  0  0  0  0  0
    0.1363    2.7827    0.6302 H   0  0  0  0  0  0  0  0  0  0  0  0
    1.6006    1.1645   -0.5009 H   0  0  0  0  0  0  0  0  0  0  0  0
    0.1069   -0.5952   -1.6936 H   0  0  0  0  0  0  0  0  0  0  0  0
  1  2  1  0  0  0  0
  2  3  1  0  0  0  0
  2  4  1  0  0  0  0
  4  5  1  0  0  0  0
  5  6  2  0  0  0  0
  6  7  1  0  0  0  0
  6  8  1  0  0  0  0
  2  9  1  0  0  0  0
  4  9  1  0  0  0  0
  9 10  1  0  0  0  0
 10 11  2  0  0  0  0
 10 12  1  0  0  0  0
 12 13  1  0  0  0  0
 13 14  1  0  0  0  0
 14 15  4  0  0  0  0
 15 16  4  0  0  0  0
 16 17  4  0  0  0  0
 17 18  4  0  0  0  0
 18 19  1  0  0  0  0
 19 20  1  0  0  0  0
 20 21  4  0  0  0  0
 21 22  4  0  0  0  0
 22 23  4  0  0  0  0
 23 24  4  0  0  0  0
 20 25  4  0  0  0  0
 24 25  4  0  0  0  0
 14 26  4  0  0  0  0
 18 26  4  0  0  0  0
  1 27  1  0  0  0  0
  1 28  1  0  0  0  0
  1 29  1  0  0  0  0
  3 30  1  0  0  0  0
  3 31  1  0  0  0  0
  3 32  1  0  0  0  0
  4 33  1  0  0  0  0
  5 34  1  0  0  0  0
  9 35  1  0  0  0  0
 13 36  1  0  0  0  0
 13 37  1  0  0  0  0
 15 38  1  0  0  0  0
 16 39  1  0  0  0  0
 17 40  1  0  0  0  0
 21 41  1  0  0  0  0
 22 42  1  0  0  0  0
 23 43  1  0  0  0  0
 24 44  1  0  0  0  0
 25 45  1  0  0  0  0
 26 46  1  0  0  0  0
M  END
