 xtb: 6.7.1 (edcfbbe)
          07082605183D

 29 30  0     0  0            999 V2000
   -0.5681   -0.9123   -2.3782 O   0  0  0  0  0  0  0  0  0  0  0  0
   -0.3471   -0.7221   -1.1960 C   0  0  0  0  0  0  0  0  0  0  0  0
   -1.4028   -0.9655   -0.1573 C   0  0  0  0  0  0  0  0  0  0  0  0
   -2.2282    0.0741    0.2539 C   0  0  0  0  0  0  0  0  0  0  0  0
   -3.2471   -0.1651    1.1591 C   0  0  0  0  0  0  0  0  0  0  0  0
   -3.4500   -1.4422    1.6547 C   0  0  0  0  0  0  0  0  0  0  0  0
   -2.6361   -2.4825    1.2387 C   0  0  0  0  0  0  0  0  0  0  0  0
   -1.6170   -2.2477    0.3323 C   0  0  0  0  0  0  0  0  0  0  0  0
    0.8510   -0.3003   -0.7349 N   0  0  0  0  0  0  0  0  0  0  0  0
    1.1569    0.0061    0.6411 C   0  0  0  0  0  0  0  0  0  0  0  0
    1.4200    1.5055    0.8003 C   0  0  0  0  0  0  0  0  0  0  0  0
    2.5404    1.9385   -0.1426 C   0  0  0  0  0  0  0  0  0  0  0  0
    2.1879    1.5561   -1.5784 C   0  0  0  0  0  0  0  0  0  0  0  0
    1.9017    0.0576   -1.6641 C   0  0  0  0  0  0  0  0  0  0  0  0
   -2.0736    1.0679   -0.1414 H   0  0  0  0  0  0  0  0  0  0  0  0
   -3.8855    0.6464    1.4763 H   0  0  0  0  0  0  0  0  0  0  0  0
   -4.2461   -1.6276    2.3606 H   0  0  0  0  0  0  0  0  0  0  0  0
   -2.7974   -3.4807    1.6186 H   0  0  0  0  0  0  0  0  0  0  0  0
   -0.9843   -3.0573   -0.0012 H   0  0  0  0  0  0  0  0  0  0  0  0
    0.3323   -0.3117    1.2807 H   0  0  0  0  0  0  0  0  0  0  0  0
    2.0566   -0.5529    0.9291 H   0  0  0  0  0  0  0  0  0  0  0  0
    1.6863    1.7207    1.8360 H   0  0  0  0  0  0  0  0  0  0  0  0
    0.5071    2.0547    0.5615 H   0  0  0  0  0  0  0  0  0  0  0  0
    3.4699    1.4425    0.1477 H   0  0  0  0  0  0  0  0  0  0  0  0
    2.6976    3.0160   -0.0679 H   0  0  0  0  0  0  0  0  0  0  0  0
    3.0060    1.8106   -2.2532 H   0  0  0  0  0  0  0  0  0  0  0  0
    1.2998    2.1055   -1.8969 H   0  0  0  0  0  0  0  0  0  0  0  0
    2.8049   -0.5118   -1.4149 H   0  0  0  0  0  0  0  0  0  0  0  0
    1.5650   -0.2223   -2.6637 H   0  0  0  0  0  0  0  0  0  0  0  0
  1  2  2  0  0  0  0
  2  3  1  0  0  0  0
  3  4  4  0  0  0  0
  4  5  4  0  0  0  0
  5  6  4  0  0  0  0
  6  7  4  0  0  0  0
  3  8  4  0  0  0  0
  7  8  4  0  0  0  0
  2  9  4  0  0  0  0
  9 10  1  0  0  0  0
 10 11  1  0  0  0  0
 11 12  1  0  0  0  0
 12 13  1  0  0  0  0
  9 14  1  0  0  0  0
 13 14  1  0  0  0  0
  4 15  1  0  0  0  0
  5 16  1  0  0  0  0
  6 17  1  0  0  0  0
  7 18  1  0  0  0  0
  8 19  1  0  0  0  0
 10 20  1  0  0  0  0
 10 21  1  0  0  0  0
 11 22  1  0  0  0  0
 11 23  1  0  0  0  0
 12 24  1  0  0  0  0
 12 25  1  0  0  0  0
 13 26  1  0  0  0  0
 13 27  1  0  0  0  0
 14 28  1  0  0  0  0
 14 29  1  0  0  0  0
M  END
