 xtb: 6.7.1 (edcfbbe)
          07092609263D

 30 29  0     0  0            999 V2000
   -0.4157    3.5400    0.3336 C   0  0  0  0  0  0  0  0  0  0  0  0
   -0.2867    2.1848   -0.3491 C   0  0  0  0  0  0  0  0  0  0  0  0
   -0.0566    1.0662    0.6755 C   0  0  0  0  0  0  0  0  0  0  0  0
    0.0659   -0.2344    0.0579 N   0  0  0  0  0  0  0  0  0  0  0  0
    1.3960   -0.6274   -0.3743 C   0  0  0  0  0  0  0  0  0  0  0  0
    2.1765   -1.3246    0.7421 C   0  0  0  0  0  0  0  0  0  0  0  0
    3.5739   -1.7136    0.2796 C   0  0  0  0  0  0  0  0  0  0  0  0
   -0.9573   -1.0977   -0.1706 C   0  0  0  0  0  0  0  0  0  0  0  0
   -0.7717   -2.1660   -0.7212 O   0  0  0  0  0  0  0  0  0  0  0  0
   -2.3369   -0.6675    0.3097 C   0  0  0  0  0  0  0  0  0  0  0  0
   -3.3961   -1.6749   -0.1198 C   0  0  0  0  0  0  0  0  0  0  0  0
   -1.2543    3.5410    1.0265 H   0  0  0  0  0  0  0  0  0  0  0  0
    0.4884    3.7751    0.8909 H   0  0  0  0  0  0  0  0  0  0  0  0
   -0.5782    4.3231   -0.4024 H   0  0  0  0  0  0  0  0  0  0  0  0
   -1.1910    1.9720   -0.9219 H   0  0  0  0  0  0  0  0  0  0  0  0
    0.5479    2.2055   -1.0523 H   0  0  0  0  0  0  0  0  0  0  0  0
    0.8690    1.2687    1.2225 H   0  0  0  0  0  0  0  0  0  0  0  0
   -0.8714    1.0621    1.4017 H   0  0  0  0  0  0  0  0  0  0  0  0
    1.9340    0.2604   -0.7162 H   0  0  0  0  0  0  0  0  0  0  0  0
    1.2782   -1.3170   -1.2133 H   0  0  0  0  0  0  0  0  0  0  0  0
    2.2468   -0.6636    1.6098 H   0  0  0  0  0  0  0  0  0  0  0  0
    1.6242   -2.2164    1.0420 H   0  0  0  0  0  0  0  0  0  0  0  0
    3.5159   -2.3884   -0.5709 H   0  0  0  0  0  0  0  0  0  0  0  0
    4.1389   -0.8325   -0.0186 H   0  0  0  0  0  0  0  0  0  0  0  0
    4.1144   -2.2137    1.0794 H   0  0  0  0  0  0  0  0  0  0  0  0
   -2.5770    0.3182   -0.0915 H   0  0  0  0  0  0  0  0  0  0  0  0
   -2.3177   -0.5984    1.4008 H   0  0  0  0  0  0  0  0  0  0  0  0
   -3.4359   -1.7381   -1.2039 H   0  0  0  0  0  0  0  0  0  0  0  0
   -4.3741   -1.3816    0.2547 H   0  0  0  0  0  0  0  0  0  0  0  0
   -3.1494   -2.6615    0.2627 H   0  0  0  0  0  0  0  0  0  0  0  0
  1  2  1  0  0  0  0
  2  3  1  0  0  0  0
  3  4  1  0  0  0  0
  4  5  1  0  0  0  0
  5  6  1  0  0  0  0
  6  7  1  0  0  0  0
  4  8  4  0  0  0  0
  8  9  2  0  0  0  0
  8 10  1  0  0  0  0
 10 11  1  0  0  0  0
  1 12  1  0  0  0  0
  1 13  1  0  0  0  0
  1 14  1  0  0  0  0
  2 15  1  0  0  0  0
  2 16  1  0  0  0  0
  3 17  1  0  0  0  0
  3 18  1  0  0  0  0
  5 19  1  0  0  0  0
  5 20  1  0  0  0  0
  6 21  1  0  0  0  0
  6 22  1  0  0  0  0
  7 23  1  0  0  0  0
  7 24  1  0  0  0  0
  7 25  1  0  0  0  0
 10 26  1  0  0  0  0
 10 27  1  0  0  0  0
 11 28  1  0  0  0  0
 11 29  1  0  0  0  0
 11 30  1  0  0  0  0
M  END
