 xtb: 6.7.1 (edcfbbe)
          07062619243D

 76 76  0     0  0            999 V2000
    1.6699   -2.7786   -0.9288 C   0  0  0  0  0  0  0  0  0  0  0  0
    1.3599   -1.6679   -1.5855 C   0  0  0  0  0  0  0  0  0  0  0  0
   -0.0579   -1.1861   -1.7483 C   0  0  0  0  0  0  0  0  0  0  0  0
   -0.5342   -0.3993   -0.5179 C   0  0  0  0  0  0  0  0  0  0  0  0
    0.2319    0.9197   -0.3494 C   0  0  0  0  0  0  0  0  0  0  0  0
   -0.5041    1.9191   -1.2424 C   0  0  0  0  0  0  0  0  0  0  0  0
   -1.9092    1.4111   -1.2879 C   0  0  0  0  0  0  0  0  0  0  0  0
   -2.8299    2.1122   -1.7912 N   0  0  0  0  0  0  0  0  0  0  0  0
   -4.1021    1.4783   -1.8264 O   0  0  0  0  0  0  0  0  0  0  0  0
   -5.1593    2.3006   -1.8668 C   0  0  0  0  0  0  0  0  0  0  0  0
   -5.1245    3.4953   -1.7942 O   0  0  0  0  0  0  0  0  0  0  0  0
   -6.4188    1.4600   -1.9833 C   0  0  0  0  0  0  0  0  0  0  0  0
   -7.5840    2.1106   -1.2406 C   0  0  0  0  0  0  0  0  0  0  0  0
   -7.3346    2.1944    0.2563 C   0  0  0  0  0  0  0  0  0  0  0  0
   -7.1493    0.5711    0.9717 Cl  0  0  0  0  0  0  0  0  0  0  0  0
   -1.9991    0.0377   -0.6801 C   0  0  0  0  0  0  0  0  0  0  0  0
   -2.7631    0.0989    0.6539 C   0  0  0  0  0  0  0  0  0  0  0  0
   -3.1712   -1.2839    1.1546 C   0  0  0  0  0  0  0  0  0  0  0  0
   -3.9649   -1.1964    2.4556 C   0  0  0  0  0  0  0  0  0  0  0  0
   -4.3971   -2.5713    2.9585 C   0  0  0  0  0  0  0  0  0  0  0  0
   -5.2168   -2.4699    4.2386 C   0  0  0  0  0  0  0  0  0  0  0  0
    2.2355   -0.8083   -2.1814 O   0  0  0  0  0  0  0  0  0  0  0  0
    3.6106   -1.1272   -2.1515 C   0  0  0  0  0  0  0  0  0  0  0  0
    4.2146   -1.0220   -0.7818 C   0  0  0  0  0  0  0  0  0  0  0  0
    5.3821   -1.5431   -0.4240 C   0  0  0  0  0  0  0  0  0  0  0  0
    6.2368   -2.3239   -1.3804 C   0  0  0  0  0  0  0  0  0  0  0  0
    5.9384   -1.3247    0.9530 C   0  0  0  0  0  0  0  0  0  0  0  0
    7.0636   -0.2715    0.9293 C   0  0  0  0  0  0  0  0  0  0  0  0
    6.5665    1.0327    0.3811 C   0  0  0  0  0  0  0  0  0  0  0  0
    5.9063    1.9723    1.0469 C   0  0  0  0  0  0  0  0  0  0  0  0
    5.5622    1.9005    2.5049 C   0  0  0  0  0  0  0  0  0  0  0  0
    5.4241    3.2196    0.3659 C   0  0  0  0  0  0  0  0  0  0  0  0
    2.6774   -3.1151   -0.7707 H   0  0  0  0  0  0  0  0  0  0  0  0
    0.8897   -3.3872   -0.5110 H   0  0  0  0  0  0  0  0  0  0  0  0
   -0.7120   -2.0472   -1.8927 H   0  0  0  0  0  0  0  0  0  0  0  0
   -0.1114   -0.5515   -2.6334 H   0  0  0  0  0  0  0  0  0  0  0  0
   -0.4065   -1.0363    0.3603 H   0  0  0  0  0  0  0  0  0  0  0  0
    1.2775    0.8191   -0.6307 H   0  0  0  0  0  0  0  0  0  0  0  0
    0.1852    1.2440    0.6915 H   0  0  0  0  0  0  0  0  0  0  0  0
   -0.0954    1.9148   -2.2546 H   0  0  0  0  0  0  0  0  0  0  0  0
   -0.4619    2.9447   -0.8794 H   0  0  0  0  0  0  0  0  0  0  0  0
   -6.6578    1.3763   -3.0455 H   0  0  0  0  0  0  0  0  0  0  0  0
   -6.2158    0.4606   -1.5976 H   0  0  0  0  0  0  0  0  0  0  0  0
   -8.4984    1.5469   -1.4325 H   0  0  0  0  0  0  0  0  0  0  0  0
   -7.7142    3.1304   -1.6087 H   0  0  0  0  0  0  0  0  0  0  0  0
   -6.4169    2.7414    0.4701 H   0  0  0  0  0  0  0  0  0  0  0  0
   -8.1725    2.6652    0.7701 H   0  0  0  0  0  0  0  0  0  0  0  0
   -2.5521   -0.6254   -1.3530 H   0  0  0  0  0  0  0  0  0  0  0  0
   -3.6668    0.6968    0.5205 H   0  0  0  0  0  0  0  0  0  0  0  0
   -2.1442    0.5972    1.4030 H   0  0  0  0  0  0  0  0  0  0  0  0
   -2.2843   -1.9018    1.3121 H   0  0  0  0  0  0  0  0  0  0  0  0
   -3.7851   -1.7733    0.3947 H   0  0  0  0  0  0  0  0  0  0  0  0
   -3.3569   -0.7068    3.2203 H   0  0  0  0  0  0  0  0  0  0  0  0
   -4.8528   -0.5820    2.2931 H   0  0  0  0  0  0  0  0  0  0  0  0
   -4.9928   -3.0641    2.1868 H   0  0  0  0  0  0  0  0  0  0  0  0
   -3.5126   -3.1873    3.1388 H   0  0  0  0  0  0  0  0  0  0  0  0
   -5.5179   -3.4571    4.5816 H   0  0  0  0  0  0  0  0  0  0  0  0
   -6.1123   -1.8768    4.0673 H   0  0  0  0  0  0  0  0  0  0  0  0
   -4.6369   -1.9942    5.0268 H   0  0  0  0  0  0  0  0  0  0  0  0
    4.0746   -0.3938   -2.8226 H   0  0  0  0  0  0  0  0  0  0  0  0
    3.7716   -2.1274   -2.5782 H   0  0  0  0  0  0  0  0  0  0  0  0
    3.6318   -0.4513   -0.0730 H   0  0  0  0  0  0  0  0  0  0  0  0
    5.6758   -3.1531   -1.8112 H   0  0  0  0  0  0  0  0  0  0  0  0
    7.1125   -2.7270   -0.8790 H   0  0  0  0  0  0  0  0  0  0  0  0
    6.5682   -1.6918   -2.2037 H   0  0  0  0  0  0  0  0  0  0  0  0
    6.3374   -2.2636    1.3456 H   0  0  0  0  0  0  0  0  0  0  0  0
    5.1475   -0.9792    1.6196 H   0  0  0  0  0  0  0  0  0  0  0  0
    7.4478   -0.1478    1.9438 H   0  0  0  0  0  0  0  0  0  0  0  0
    7.8816   -0.6345    0.3049 H   0  0  0  0  0  0  0  0  0  0  0  0
    6.7402    1.1785   -0.6769 H   0  0  0  0  0  0  0  0  0  0  0  0
    4.4938    1.7176    2.6242 H   0  0  0  0  0  0  0  0  0  0  0  0
    6.1017    1.1089    3.0153 H   0  0  0  0  0  0  0  0  0  0  0  0
    5.7894    2.8486    2.9906 H   0  0  0  0  0  0  0  0  0  0  0  0
    5.6474    3.2006   -0.6974 H   0  0  0  0  0  0  0  0  0  0  0  0
    4.3473    3.3259    0.4946 H   0  0  0  0  0  0  0  0  0  0  0  0
    5.8970    4.0980    0.8053 H   0  0  0  0  0  0  0  0  0  0  0  0
  1  2  2  0  0  0  0
  2  3  1  0  0  0  0
  3  4  1  0  0  0  0
  4  5  1  0  0  0  0
  5  6  1  0  0  0  0
  6  7  1  0  0  0  0
  7  8  2  0  0  0  0
  8  9  1  0  0  0  0
  9 10  1  0  0  0  0
 10 11  2  0  0  0  0
 10 12  1  0  0  0  0
 12 13  1  0  0  0  0
 13 14  1  0  0  0  0
 14 15  1  0  0  0  0
  4 16  1  0  0  0  0
  7 16  1  0  0  0  0
 16 17  1  0  0  0  0
 17 18  1  0  0  0  0
 18 19  1  0  0  0  0
 19 20  1  0  0  0  0
 20 21  1  0  0  0  0
  2 22  1  0  0  0  0
 22 23  1  0  0  0  0
 23 24  1  0  0  0  0
 24 25  2  0  0  0  0
 25 26  1  0  0  0  0
 25 27  1  0  0  0  0
 27 28  1  0  0  0  0
 28 29  1  0  0  0  0
 29 30  2  0  0  0  0
 30 31  1  0  0  0  0
 30 32  1  0  0  0  0
  1 33  1  0  0  0  0
  1 34  1  0  0  0  0
  3 35  1  0  0  0  0
  3 36  1  0  0  0  0
  4 37  1  0  0  0  0
  5 38  1  0  0  0  0
  5 39  1  0  0  0  0
  6 40  1  0  0  0  0
  6 41  1  0  0  0  0
 12 42  1  0  0  0  0
 12 43  1  0  0  0  0
 13 44  1  0  0  0  0
 13 45  1  0  0  0  0
 14 46  1  0  0  0  0
 14 47  1  0  0  0  0
 16 48  1  0  0  0  0
 17 49  1  0  0  0  0
 17 50  1  0  0  0  0
 18 51  1  0  0  0  0
 18 52  1  0  0  0  0
 19 53  1  0  0  0  0
 19 54  1  0  0  0  0
 20 55  1  0  0  0  0
 20 56  1  0  0  0  0
 21 57  1  0  0  0  0
 21 58  1  0  0  0  0
 21 59  1  0  0  0  0
 23 60  1  0  0  0  0
 23 61  1  0  0  0  0
 24 62  1  0  0  0  0
 26 63  1  0  0  0  0
 26 64  1  0  0  0  0
 26 65  1  0  0  0  0
 27 66  1  0  0  0  0
 27 67  1  0  0  0  0
 28 68  1  0  0  0  0
 28 69  1  0  0  0  0
 29 70  1  0  0  0  0
 31 71  1  0  0  0  0
 31 72  1  0  0  0  0
 31 73  1  0  0  0  0
 32 74  1  0  0  0  0
 32 75  1  0  0  0  0
 32 76  1  0  0  0  0
M  END
