 xtb: 6.7.1 (edcfbbe)
          07072604073D

 57 58  0     0  0            999 V2000
   -2.4594    3.1127   -3.3736 C   0  0  0  0  0  0  0  0  0  0  0  0
   -1.7542    3.7198   -2.1681 C   0  0  0  0  0  0  0  0  0  0  0  0
   -2.4718    3.3761   -0.8572 C   0  0  0  0  0  0  0  0  0  0  0  0
   -2.4478    1.9115   -0.5890 C   0  0  0  0  0  0  0  0  0  0  0  0
   -1.3473    1.1117   -0.2512 C   0  0  0  0  0  0  0  0  0  0  0  0
   -1.8542   -0.1744   -0.1366 C   0  0  0  0  0  0  0  0  0  0  0  0
   -1.1018   -1.4180    0.0425 C   0  0  0  0  0  0  0  0  0  0  0  0
   -1.4896   -2.5319   -0.2232 O   0  0  0  0  0  0  0  0  0  0  0  0
    0.1226   -1.1498    0.5090 O   0  0  0  0  0  0  0  0  0  0  0  0
    1.0053   -2.2628    0.6669 C   0  0  0  0  0  0  0  0  0  0  0  0
    2.2395   -1.7623    1.3417 C   0  0  0  0  0  0  0  0  0  0  0  0
    3.4846   -2.1444    1.0836 C   0  0  0  0  0  0  0  0  0  0  0  0
    3.8271   -3.1879    0.0601 C   0  0  0  0  0  0  0  0  0  0  0  0
    4.6373   -1.4944    1.7945 C   0  0  0  0  0  0  0  0  0  0  0  0
    5.2711   -0.4070    0.9024 C   0  0  0  0  0  0  0  0  0  0  0  0
    4.2435    0.5946    0.4654 C   0  0  0  0  0  0  0  0  0  0  0  0
    3.7697    1.6074    1.1806 C   0  0  0  0  0  0  0  0  0  0  0  0
    4.2229    1.9535    2.5677 C   0  0  0  0  0  0  0  0  0  0  0  0
    2.6913    2.5033    0.6454 C   0  0  0  0  0  0  0  0  0  0  0  0
   -3.1888   -0.0837   -0.4023 N   0  0  0  0  0  0  0  0  0  0  0  0
   -4.1733   -1.0849   -0.3679 C   0  0  0  0  0  0  0  0  0  0  0  0
   -5.1703   -1.0669   -1.3360 C   0  0  0  0  0  0  0  0  0  0  0  0
   -6.1638   -2.0273   -1.3138 C   0  0  0  0  0  0  0  0  0  0  0  0
   -6.1662   -3.0026   -0.3304 C   0  0  0  0  0  0  0  0  0  0  0  0
   -5.1824   -3.0042    0.6444 C   0  0  0  0  0  0  0  0  0  0  0  0
   -4.1892   -2.0424    0.6378 C   0  0  0  0  0  0  0  0  0  0  0  0
   -3.5396    1.1666   -0.6751 N   0  0  0  0  0  0  0  0  0  0  0  0
   -3.4807    3.4806   -3.4404 H   0  0  0  0  0  0  0  0  0  0  0  0
   -2.4940    2.0292   -3.2883 H   0  0  0  0  0  0  0  0  0  0  0  0
   -1.9375    3.3704   -4.2925 H   0  0  0  0  0  0  0  0  0  0  0  0
   -1.7177    4.8061   -2.2755 H   0  0  0  0  0  0  0  0  0  0  0  0
   -0.7264    3.3530   -2.1222 H   0  0  0  0  0  0  0  0  0  0  0  0
   -1.9830    3.8998   -0.0318 H   0  0  0  0  0  0  0  0  0  0  0  0
   -3.5119    3.6994   -0.9113 H   0  0  0  0  0  0  0  0  0  0  0  0
   -0.3276    1.4079   -0.1186 H   0  0  0  0  0  0  0  0  0  0  0  0
    0.4980   -3.0312    1.2680 H   0  0  0  0  0  0  0  0  0  0  0  0
    1.2123   -2.6962   -0.3174 H   0  0  0  0  0  0  0  0  0  0  0  0
    2.0488   -1.0023    2.0852 H   0  0  0  0  0  0  0  0  0  0  0  0
    3.3915   -2.9431   -0.9076 H   0  0  0  0  0  0  0  0  0  0  0  0
    4.9038   -3.2728   -0.0592 H   0  0  0  0  0  0  0  0  0  0  0  0
    3.4380   -4.1598    0.3613 H   0  0  0  0  0  0  0  0  0  0  0  0
    5.3952   -2.2394    2.0465 H   0  0  0  0  0  0  0  0  0  0  0  0
    4.2875   -1.0298    2.7165 H   0  0  0  0  0  0  0  0  0  0  0  0
    5.7100   -0.8770    0.0208 H   0  0  0  0  0  0  0  0  0  0  0  0
    6.0769    0.0756    1.4595 H   0  0  0  0  0  0  0  0  0  0  0  0
    3.8281    0.4223   -0.5185 H   0  0  0  0  0  0  0  0  0  0  0  0
    5.1563    1.4631    2.8267 H   0  0  0  0  0  0  0  0  0  0  0  0
    3.4656    1.6514    3.2921 H   0  0  0  0  0  0  0  0  0  0  0  0
    4.3556    3.0306    2.6615 H   0  0  0  0  0  0  0  0  0  0  0  0
    2.3662    2.1802   -0.3402 H   0  0  0  0  0  0  0  0  0  0  0  0
    1.8337    2.4969    1.3183 H   0  0  0  0  0  0  0  0  0  0  0  0
    3.0480    3.5310    0.5752 H   0  0  0  0  0  0  0  0  0  0  0  0
   -5.1521   -0.2963   -2.0907 H   0  0  0  0  0  0  0  0  0  0  0  0
   -6.9354   -2.0172   -2.0691 H   0  0  0  0  0  0  0  0  0  0  0  0
   -6.9383   -3.7572   -0.3189 H   0  0  0  0  0  0  0  0  0  0  0  0
   -5.1915   -3.7545    1.4206 H   0  0  0  0  0  0  0  0  0  0  0  0
   -3.4348   -2.0328    1.4083 H   0  0  0  0  0  0  0  0  0  0  0  0
  1  2  1  0  0  0  0
  2  3  1  0  0  0  0
  3  4  1  0  0  0  0
  4  5  4  0  0  0  0
  5  6  4  0  0  0  0
  6  7  1  0  0  0  0
  7  8  2  0  0  0  0
  7  9  1  0  0  0  0
  9 10  1  0  0  0  0
 10 11  1  0  0  0  0
 11 12  2  0  0  0  0
 12 13  1  0  0  0  0
 12 14  1  0  0  0  0
 14 15  1  0  0  0  0
 15 16  1  0  0  0  0
 16 17  2  0  0  0  0
 17 18  1  0  0  0  0
 17 19  1  0  0  0  0
  6 20  4  0  0  0  0
 20 21  1  0  0  0  0
 21 22  4  0  0  0  0
 22 23  4  0  0  0  0
 23 24  4  0  0  0  0
 24 25  4  0  0  0  0
 21 26  4  0  0  0  0
 25 26  4  0  0  0  0
  4 27  4  0  0  0  0
 20 27  4  0  0  0  0
  1 28  1  0  0  0  0
  1 29  1  0  0  0  0
  1 30  1  0  0  0  0
  2 31  1  0  0  0  0
  2 32  1  0  0  0  0
  3 33  1  0  0  0  0
  3 34  1  0  0  0  0
  5 35  1  0  0  0  0
 10 36  1  0  0  0  0
 10 37  1  0  0  0  0
 11 38  1  0  0  0  0
 13 39  1  0  0  0  0
 13 40  1  0  0  0  0
 13 41  1  0  0  0  0
 14 42  1  0  0  0  0
 14 43  1  0  0  0  0
 15 44  1  0  0  0  0
 15 45  1  0  0  0  0
 16 46  1  0  0  0  0
 18 47  1  0  0  0  0
 18 48  1  0  0  0  0
 18 49  1  0  0  0  0
 19 50  1  0  0  0  0
 19 51  1  0  0  0  0
 19 52  1  0  0  0  0
 22 53  1  0  0  0  0
 23 54  1  0  0  0  0
 24 55  1  0  0  0  0
 25 56  1  0  0  0  0
 26 57  1  0  0  0  0
M  END
