 xtb: 6.7.1 (edcfbbe)
          07082613593D

 23 24  0     0  0            999 V2000
   -1.5482    2.0659    0.0065 O   0  0  0  0  0  0  0  0  0  0  0  0
   -1.1344    0.9525   -0.7691 C   0  0  0  0  0  0  0  0  0  0  0  0
   -2.1109   -0.2210   -0.6361 C   0  0  0  0  0  0  0  0  0  0  0  0
   -1.8634   -0.9853    0.6590 C   0  0  0  0  0  0  0  0  0  0  0  0
   -0.4785   -1.6197    0.6126 C   0  0  0  0  0  0  0  0  0  0  0  0
    0.5868   -0.6178    0.2617 C   0  0  0  0  0  0  0  0  0  0  0  0
    1.9111   -0.8833    0.5943 C   0  0  0  0  0  0  0  0  0  0  0  0
    2.9207    0.0043    0.2769 C   0  0  0  0  0  0  0  0  0  0  0  0
    2.6163    1.1834   -0.3835 C   0  0  0  0  0  0  0  0  0  0  0  0
    1.3056    1.4549   -0.7229 C   0  0  0  0  0  0  0  0  0  0  0  0
    0.2850    0.5623   -0.4129 C   0  0  0  0  0  0  0  0  0  0  0  0
   -1.4969    1.8214    0.9374 H   0  0  0  0  0  0  0  0  0  0  0  0
   -1.1577    1.3285   -1.7991 H   0  0  0  0  0  0  0  0  0  0  0  0
   -1.9780   -0.8936   -1.4855 H   0  0  0  0  0  0  0  0  0  0  0  0
   -3.1287    0.1724   -0.6658 H   0  0  0  0  0  0  0  0  0  0  0  0
   -1.9310   -0.3062    1.5135 H   0  0  0  0  0  0  0  0  0  0  0  0
   -2.6236   -1.7575    0.7914 H   0  0  0  0  0  0  0  0  0  0  0  0
   -0.4728   -2.4105   -0.1453 H   0  0  0  0  0  0  0  0  0  0  0  0
   -0.2402   -2.0877    1.5707 H   0  0  0  0  0  0  0  0  0  0  0  0
    2.1462   -1.8019    1.1139 H   0  0  0  0  0  0  0  0  0  0  0  0
    3.9421   -0.2204    0.5467 H   0  0  0  0  0  0  0  0  0  0  0  0
    3.3977    1.8858   -0.6324 H   0  0  0  0  0  0  0  0  0  0  0  0
    1.0530    2.3736   -1.2320 H   0  0  0  0  0  0  0  0  0  0  0  0
  1  2  1  0  0  0  0
  2  3  1  0  0  0  0
  3  4  1  0  0  0  0
  4  5  1  0  0  0  0
  5  6  1  0  0  0  0
  6  7  4  0  0  0  0
  7  8  4  0  0  0  0
  8  9  4  0  0  0  0
  9 10  4  0  0  0  0
  2 11  1  0  0  0  0
  6 11  4  0  0  0  0
 10 11  4  0  0  0  0
  1 12  1  0  0  0  0
  2 13  1  0  0  0  0
  3 14  1  0  0  0  0
  3 15  1  0  0  0  0
  4 16  1  0  0  0  0
  4 17  1  0  0  0  0
  5 18  1  0  0  0  0
  5 19  1  0  0  0  0
  7 20  1  0  0  0  0
  8 21  1  0  0  0  0
  9 22  1  0  0  0  0
 10 23  1  0  0  0  0
M  END
