 xtb: 6.7.1 (edcfbbe)
          07092606533D

 29 28  0     0  0            999 V2000
   -4.4708    0.4086    1.5035 C   0  0  0  0  0  0  0  0  0  0  0  0
   -3.4053   -0.4831    0.8782 C   0  0  0  0  0  0  0  0  0  0  0  0
   -2.2016    0.3224    0.3946 C   0  0  0  0  0  0  0  0  0  0  0  0
   -1.1357   -0.5640   -0.2447 C   0  0  0  0  0  0  0  0  0  0  0  0
    0.0658    0.2431   -0.7304 C   0  0  0  0  0  0  0  0  0  0  0  0
    1.1144   -0.6449   -1.3960 C   0  0  0  0  0  0  0  0  0  0  0  0
    2.3122    0.1631   -1.9093 C   0  0  0  0  0  0  0  0  0  0  0  0
    3.0652    0.7964   -0.7640 C   0  0  0  0  0  0  0  0  0  0  0  0
    3.0974    1.9711   -0.5098 O   0  0  0  0  0  0  0  0  0  0  0  0
    3.7091   -0.1310   -0.0417 O   0  0  0  0  0  0  0  0  0  0  0  0
    4.4379    0.3427    1.0810 C   0  0  0  0  0  0  0  0  0  0  0  0
   -4.0641    0.9484    2.3560 H   0  0  0  0  0  0  0  0  0  0  0  0
   -5.3162   -0.1847    1.8442 H   0  0  0  0  0  0  0  0  0  0  0  0
   -4.8315    1.1363    0.7797 H   0  0  0  0  0  0  0  0  0  0  0  0
   -3.8370   -1.0269    0.0346 H   0  0  0  0  0  0  0  0  0  0  0  0
   -3.0737   -1.2217    1.6118 H   0  0  0  0  0  0  0  0  0  0  0  0
   -2.5353    1.0661   -0.3328 H   0  0  0  0  0  0  0  0  0  0  0  0
   -1.7650    0.8608    1.2389 H   0  0  0  0  0  0  0  0  0  0  0  0
   -1.5738   -1.1014   -1.0895 H   0  0  0  0  0  0  0  0  0  0  0  0
   -0.8019   -1.3092    0.4815 H   0  0  0  0  0  0  0  0  0  0  0  0
    0.5154    0.7700    0.1139 H   0  0  0  0  0  0  0  0  0  0  0  0
   -0.2709    0.9987   -1.4437 H   0  0  0  0  0  0  0  0  0  0  0  0
    0.6601   -1.1704   -2.2388 H   0  0  0  0  0  0  0  0  0  0  0  0
    1.4695   -1.3938   -0.6853 H   0  0  0  0  0  0  0  0  0  0  0  0
    1.9749    0.9556   -2.5777 H   0  0  0  0  0  0  0  0  0  0  0  0
    2.9947   -0.4996   -2.4431 H   0  0  0  0  0  0  0  0  0  0  0  0
    3.7623    0.7994    1.8073 H   0  0  0  0  0  0  0  0  0  0  0  0
    5.1719    1.0885    0.7692 H   0  0  0  0  0  0  0  0  0  0  0  0
    4.9320   -0.5241    1.5123 H   0  0  0  0  0  0  0  0  0  0  0  0
  1  2  1  0  0  0  0
  2  3  1  0  0  0  0
  3  4  1  0  0  0  0
  4  5  1  0  0  0  0
  5  6  1  0  0  0  0
  6  7  1  0  0  0  0
  7  8  1  0  0  0  0
  8  9  2  0  0  0  0
  8 10  1  0  0  0  0
 10 11  1  0  0  0  0
  1 12  1  0  0  0  0
  1 13  1  0  0  0  0
  1 14  1  0  0  0  0
  2 15  1  0  0  0  0
  2 16  1  0  0  0  0
  3 17  1  0  0  0  0
  3 18  1  0  0  0  0
  4 19  1  0  0  0  0
  4 20  1  0  0  0  0
  5 21  1  0  0  0  0
  5 22  1  0  0  0  0
  6 23  1  0  0  0  0
  6 24  1  0  0  0  0
  7 25  1  0  0  0  0
  7 26  1  0  0  0  0
 11 27  1  0  0  0  0
 11 28  1  0  0  0  0
 11 29  1  0  0  0  0
M  END
