 xtb: 6.7.1 (edcfbbe)
          07072619583D

 28 28  0     0  0            999 V2000
   -4.1709    1.1603   -0.3771 C   0  0  0  0  0  0  0  0  0  0  0  0
   -3.5943   -0.1059    0.2484 C   0  0  0  0  0  0  0  0  0  0  0  0
   -4.3436   -1.3565   -0.1889 C   0  0  0  0  0  0  0  0  0  0  0  0
   -2.2278   -0.2635   -0.1593 O   0  0  0  0  0  0  0  0  0  0  0  0
   -1.2870    0.3376    0.5821 C   0  0  0  0  0  0  0  0  0  0  0  0
   -1.5204    0.9925    1.5714 O   0  0  0  0  0  0  0  0  0  0  0  0
    0.0510    0.0804    0.0303 C   0  0  0  0  0  0  0  0  0  0  0  0
    1.1411    0.5582    0.6426 C   0  0  0  0  0  0  0  0  0  0  0  0
    2.5223    0.3929    0.2353 C   0  0  0  0  0  0  0  0  0  0  0  0
    3.5352    0.8393    1.0890 C   0  0  0  0  0  0  0  0  0  0  0  0
    4.8656    0.6971    0.7464 C   0  0  0  0  0  0  0  0  0  0  0  0
    5.2128    0.1126   -0.4608 C   0  0  0  0  0  0  0  0  0  0  0  0
    4.2197   -0.3287   -1.3215 C   0  0  0  0  0  0  0  0  0  0  0  0
    2.8889   -0.1927   -0.9794 C   0  0  0  0  0  0  0  0  0  0  0  0
   -3.6079    2.0283   -0.0423 H   0  0  0  0  0  0  0  0  0  0  0  0
   -4.1143    1.0991   -1.4617 H   0  0  0  0  0  0  0  0  0  0  0  0
   -5.2089    1.2797   -0.0800 H   0  0  0  0  0  0  0  0  0  0  0  0
   -3.6087   -0.0103    1.3423 H   0  0  0  0  0  0  0  0  0  0  0  0
   -4.3048   -1.4517   -1.2710 H   0  0  0  0  0  0  0  0  0  0  0  0
   -5.3810   -1.2931    0.1265 H   0  0  0  0  0  0  0  0  0  0  0  0
   -3.8923   -2.2404    0.2543 H   0  0  0  0  0  0  0  0  0  0  0  0
    0.0758   -0.5103   -0.8713 H   0  0  0  0  0  0  0  0  0  0  0  0
    0.9804    1.1248    1.5529 H   0  0  0  0  0  0  0  0  0  0  0  0
    3.2671    1.2961    2.0309 H   0  0  0  0  0  0  0  0  0  0  0  0
    5.6355    1.0442    1.4198 H   0  0  0  0  0  0  0  0  0  0  0  0
    6.2524    0.0031   -0.7317 H   0  0  0  0  0  0  0  0  0  0  0  0
    4.4877   -0.7807   -2.2654 H   0  0  0  0  0  0  0  0  0  0  0  0
    2.1264   -0.5348   -1.6617 H   0  0  0  0  0  0  0  0  0  0  0  0
  1  2  1  0  0  0  0
  2  3  1  0  0  0  0
  2  4  1  0  0  0  0
  4  5  1  0  0  0  0
  5  6  2  0  0  0  0
  5  7  1  0  0  0  0
  7  8  2  0  0  0  0
  8  9  1  0  0  0  0
  9 10  4  0  0  0  0
 10 11  4  0  0  0  0
 11 12  4  0  0  0  0
 12 13  4  0  0  0  0
  9 14  4  0  0  0  0
 13 14  4  0  0  0  0
  1 15  1  0  0  0  0
  1 16  1  0  0  0  0
  1 17  1  0  0  0  0
  2 18  1  0  0  0  0
  3 19  1  0  0  0  0
  3 20  1  0  0  0  0
  3 21  1  0  0  0  0
  7 22  1  0  0  0  0
  8 23  1  0  0  0  0
 10 24  1  0  0  0  0
 11 25  1  0  0  0  0
 12 26  1  0  0  0  0
 13 27  1  0  0  0  0
 14 28  1  0  0  0  0
M  END
