 xtb: 6.7.1 (edcfbbe)
          07092607333D

 33 32  0     0  0            999 V2000
   -5.6880    0.2190    0.8587 C   0  0  0  0  0  0  0  0  0  0  0  0
   -4.5365   -0.0802   -0.0933 C   0  0  0  0  0  0  0  0  0  0  0  0
   -3.1810    0.0364    0.5996 C   0  0  0  0  0  0  0  0  0  0  0  0
   -2.0202   -0.2366   -0.3536 C   0  0  0  0  0  0  0  0  0  0  0  0
   -0.6670   -0.1392    0.3467 C   0  0  0  0  0  0  0  0  0  0  0  0
    0.4959   -0.3848   -0.6117 C   0  0  0  0  0  0  0  0  0  0  0  0
    1.8476   -0.3147    0.0951 C   0  0  0  0  0  0  0  0  0  0  0  0
    3.0051   -0.5403   -0.8753 C   0  0  0  0  0  0  0  0  0  0  0  0
    4.3729   -0.5732   -0.1928 C   0  0  0  0  0  0  0  0  0  0  0  0
    4.8455    0.8043    0.2637 C   0  0  0  0  0  0  0  0  0  0  0  0
    5.0471    1.6155   -0.8751 O   0  0  0  0  0  0  0  0  0  0  0  0
   -5.6782   -0.4727    1.6984 H   0  0  0  0  0  0  0  0  0  0  0  0
   -6.6434    0.1248    0.3476 H   0  0  0  0  0  0  0  0  0  0  0  0
   -5.6062    1.2310    1.2495 H   0  0  0  0  0  0  0  0  0  0  0  0
   -4.5718    0.6152   -0.9351 H   0  0  0  0  0  0  0  0  0  0  0  0
   -4.6501   -1.0899   -0.4946 H   0  0  0  0  0  0  0  0  0  0  0  0
   -3.1399   -0.6717    1.4309 H   0  0  0  0  0  0  0  0  0  0  0  0
   -3.0758    1.0407    1.0172 H   0  0  0  0  0  0  0  0  0  0  0  0
   -2.1327   -1.2349   -0.7834 H   0  0  0  0  0  0  0  0  0  0  0  0
   -2.0530    0.4812   -1.1768 H   0  0  0  0  0  0  0  0  0  0  0  0
   -0.5633    0.8527    0.7935 H   0  0  0  0  0  0  0  0  0  0  0  0
   -0.6276   -0.8709    1.1574 H   0  0  0  0  0  0  0  0  0  0  0  0
    0.4686    0.3594   -1.4110 H   0  0  0  0  0  0  0  0  0  0  0  0
    0.3808   -1.3682   -1.0738 H   0  0  0  0  0  0  0  0  0  0  0  0
    1.9462    0.6621    0.5720 H   0  0  0  0  0  0  0  0  0  0  0  0
    1.8822   -1.0729    0.8819 H   0  0  0  0  0  0  0  0  0  0  0  0
    3.0144    0.2486   -1.6284 H   0  0  0  0  0  0  0  0  0  0  0  0
    2.8501   -1.4918   -1.3890 H   0  0  0  0  0  0  0  0  0  0  0  0
    4.3448   -1.2382    0.6726 H   0  0  0  0  0  0  0  0  0  0  0  0
    5.1115   -0.9563   -0.8988 H   0  0  0  0  0  0  0  0  0  0  0  0
    5.7865    0.6967    0.8242 H   0  0  0  0  0  0  0  0  0  0  0  0
    4.1023    1.2595    0.9325 H   0  0  0  0  0  0  0  0  0  0  0  0
    5.3333    2.4895   -0.5930 H   0  0  0  0  0  0  0  0  0  0  0  0
  1  2  1  0  0  0  0
  2  3  1  0  0  0  0
  3  4  1  0  0  0  0
  4  5  1  0  0  0  0
  5  6  1  0  0  0  0
  6  7  1  0  0  0  0
  7  8  1  0  0  0  0
  8  9  1  0  0  0  0
  9 10  1  0  0  0  0
 10 11  1  0  0  0  0
  1 12  1  0  0  0  0
  1 13  1  0  0  0  0
  1 14  1  0  0  0  0
  2 15  1  0  0  0  0
  2 16  1  0  0  0  0
  3 17  1  0  0  0  0
  3 18  1  0  0  0  0
  4 19  1  0  0  0  0
  4 20  1  0  0  0  0
  5 21  1  0  0  0  0
  5 22  1  0  0  0  0
  6 23  1  0  0  0  0
  6 24  1  0  0  0  0
  7 25  1  0  0  0  0
  7 26  1  0  0  0  0
  8 27  1  0  0  0  0
  8 28  1  0  0  0  0
  9 29  1  0  0  0  0
  9 30  1  0  0  0  0
 10 31  1  0  0  0  0
 10 32  1  0  0  0  0
 11 33  1  0  0  0  0
M  END
