 xtb: 6.7.1 (edcfbbe)
          07082618503D

 12 12  0     0  0            999 V2000
    3.1684   -0.2804    0.0645 Br  0  0  0  0  0  0  0  0  0  0  0  0
    1.2765   -0.1419    0.0250 C   0  0  0  0  0  0  0  0  0  0  0  0
    0.5095   -1.2952   -0.0324 C   0  0  0  0  0  0  0  0  0  0  0  0
   -0.8706   -1.2054   -0.0616 C   0  0  0  0  0  0  0  0  0  0  0  0
   -1.4874    0.0349   -0.0336 C   0  0  0  0  0  0  0  0  0  0  0  0
   -0.7254    1.1880    0.0237 C   0  0  0  0  0  0  0  0  0  0  0  0
    0.6578    1.1022    0.0531 C   0  0  0  0  0  0  0  0  0  0  0  0
    1.6900    2.6922    0.1316 Br  0  0  0  0  0  0  0  0  0  0  0  0
    1.0009   -2.2555   -0.0537 H   0  0  0  0  0  0  0  0  0  0  0  0
   -1.4616   -2.1068   -0.1062 H   0  0  0  0  0  0  0  0  0  0  0  0
   -2.5634    0.1087   -0.0562 H   0  0  0  0  0  0  0  0  0  0  0  0
   -1.1947    2.1593    0.0459 H   0  0  0  0  0  0  0  0  0  0  0  0
  1  2  1  0  0  0  0
  2  3  4  0  0  0  0
  3  4  4  0  0  0  0
  4  5  4  0  0  0  0
  5  6  4  0  0  0  0
  2  7  4  0  0  0  0
  6  7  4  0  0  0  0
  7  8  1  0  0  0  0
  3  9  1  0  0  0  0
  4 10  1  0  0  0  0
  5 11  1  0  0  0  0
  6 12  1  0  0  0  0
M  END
