 xtb: 6.7.1 (edcfbbe)
          07082607283D

 27 26  0     0  0            999 V2000
    2.5487    1.3790   -0.2040 C   0  0  0  0  0  0  0  0  0  0  0  0
    2.5823    0.1344    0.6316 C   0  0  0  0  0  0  0  0  0  0  0  0
    3.9601   -0.4280    0.8245 C   0  0  0  0  0  0  0  0  0  0  0  0
    1.5186   -0.4531    1.1674 C   0  0  0  0  0  0  0  0  0  0  0  0
    0.0897   -0.0217    1.0435 C   0  0  0  0  0  0  0  0  0  0  0  0
   -0.5895   -0.7364   -0.1452 C   0  0  0  0  0  0  0  0  0  0  0  0
   -2.0195   -0.3129   -0.2570 C   0  0  0  0  0  0  0  0  0  0  0  0
   -2.2597    1.0478   -0.8365 C   0  0  0  0  0  0  0  0  0  0  0  0
   -3.0013   -1.1097    0.1956 C   0  0  0  0  0  0  0  0  0  0  0  0
   -4.4169   -0.7942    0.1903 C   0  0  0  0  0  0  0  0  0  0  0  0
   -5.2814   -1.5178    0.6275 O   0  0  0  0  0  0  0  0  0  0  0  0
    3.2595    2.1076    0.1837 H   0  0  0  0  0  0  0  0  0  0  0  0
    1.5649    1.8356   -0.2304 H   0  0  0  0  0  0  0  0  0  0  0  0
    2.8451    1.1433   -1.2262 H   0  0  0  0  0  0  0  0  0  0  0  0
    4.4181   -0.6426   -0.1407 H   0  0  0  0  0  0  0  0  0  0  0  0
    3.9359   -1.3431    1.4099 H   0  0  0  0  0  0  0  0  0  0  0  0
    4.5943    0.2956    1.3362 H   0  0  0  0  0  0  0  0  0  0  0  0
    1.6641   -1.3654    1.7313 H   0  0  0  0  0  0  0  0  0  0  0  0
   -0.4489   -0.2828    1.9566 H   0  0  0  0  0  0  0  0  0  0  0  0
    0.0143    1.0574    0.9079 H   0  0  0  0  0  0  0  0  0  0  0  0
   -0.5196   -1.8139    0.0084 H   0  0  0  0  0  0  0  0  0  0  0  0
   -0.0480   -0.4817   -1.0587 H   0  0  0  0  0  0  0  0  0  0  0  0
   -1.3341    1.4737   -1.2149 H   0  0  0  0  0  0  0  0  0  0  0  0
   -2.9739    0.9992   -1.6559 H   0  0  0  0  0  0  0  0  0  0  0  0
   -2.6652    1.7208   -0.0822 H   0  0  0  0  0  0  0  0  0  0  0  0
   -2.7564   -2.0786    0.6107 H   0  0  0  0  0  0  0  0  0  0  0  0
   -4.6813    0.1875   -0.2480 H   0  0  0  0  0  0  0  0  0  0  0  0
  1  2  1  0  0  0  0
  2  3  1  0  0  0  0
  2  4  2  0  0  0  0
  4  5  1  0  0  0  0
  5  6  1  0  0  0  0
  6  7  1  0  0  0  0
  7  8  1  0  0  0  0
  7  9  2  0  0  0  0
  9 10  1  0  0  0  0
 10 11  2  0  0  0  0
  1 12  1  0  0  0  0
  1 13  1  0  0  0  0
  1 14  1  0  0  0  0
  3 15  1  0  0  0  0
  3 16  1  0  0  0  0
  3 17  1  0  0  0  0
  4 18  1  0  0  0  0
  5 19  1  0  0  0  0
  5 20  1  0  0  0  0
  6 21  1  0  0  0  0
  6 22  1  0  0  0  0
  8 23  1  0  0  0  0
  8 24  1  0  0  0  0
  8 25  1  0  0  0  0
  9 26  1  0  0  0  0
 10 27  1  0  0  0  0
M  END
