 xtb: 6.7.1 (edcfbbe)
          07082617433D

 12 11  0     0  0            999 V2000
   -1.8845   -0.4381    0.0744 C   0  0  0  0  0  0  0  0  0  0  0  0
   -1.3828    0.3891    1.0927 O   0  0  0  0  0  0  0  0  0  0  0  0
   -0.1216    1.4234    0.7701 S   0  0  0  0  0  0  0  0  0  0  0  0
   -0.0207    1.4972   -0.6657 O   0  0  0  0  0  0  0  0  0  0  0  0
    1.1888    0.5368    1.2813 O   0  0  0  0  0  0  0  0  0  0  0  0
    1.9236   -0.2204    0.3541 C   0  0  0  0  0  0  0  0  0  0  0  0
   -2.9737   -0.3971    0.0978 H   0  0  0  0  0  0  0  0  0  0  0  0
   -1.5528   -1.4679    0.2303 H   0  0  0  0  0  0  0  0  0  0  0  0
   -1.5272   -0.0833   -0.8979 H   0  0  0  0  0  0  0  0  0  0  0  0
    2.9864   -0.0506    0.5300 H   0  0  0  0  0  0  0  0  0  0  0  0
    1.6970   -1.2832    0.4747 H   0  0  0  0  0  0  0  0  0  0  0  0
    1.6676    0.0941   -0.6631 H   0  0  0  0  0  0  0  0  0  0  0  0
  1  2  1  0  0  0  0
  2  3  1  0  0  0  0
  3  4  2  0  0  0  0
  3  5  1  0  0  0  0
  5  6  1  0  0  0  0
  1  7  1  0  0  0  0
  1  8  1  0  0  0  0
  1  9  1  0  0  0  0
  6 10  1  0  0  0  0
  6 11  1  0  0  0  0
  6 12  1  0  0  0  0
M  END
