 xtb: 6.7.1 (edcfbbe)
          07082622133D

 23 23  0     0  0            999 V2000
    2.4739   -0.7861    0.3540 C   0  0  0  0  0  0  0  0  0  0  0  0
    1.2654   -0.0228   -0.2128 C   0  0  0  0  0  0  0  0  0  0  0  0
    1.4319    1.4807    0.0096 C   0  0  0  0  0  0  0  0  0  0  0  0
    1.1718   -0.2556   -1.6028 O   0  0  0  0  0  0  0  0  0  0  0  0
    0.0078   -0.5311    0.4976 C   0  0  0  0  0  0  0  0  0  0  0  0
   -0.7135   -1.5502   -0.1509 O   0  0  0  0  0  0  0  0  0  0  0  0
   -1.3787   -0.3213    0.0515 C   0  0  0  0  0  0  0  0  0  0  0  0
   -2.4755   -0.3454    1.0971 C   0  0  0  0  0  0  0  0  0  0  0  0
   -1.7258    0.4973   -1.1713 C   0  0  0  0  0  0  0  0  0  0  0  0
    2.3132   -1.8583    0.2605 H   0  0  0  0  0  0  0  0  0  0  0  0
    2.6274   -0.5416    1.4014 H   0  0  0  0  0  0  0  0  0  0  0  0
    3.3638   -0.5162   -0.2086 H   0  0  0  0  0  0  0  0  0  0  0  0
    0.6027    2.0203   -0.4376 H   0  0  0  0  0  0  0  0  0  0  0  0
    2.3537    1.8129   -0.4590 H   0  0  0  0  0  0  0  0  0  0  0  0
    1.4691    1.6993    1.0730 H   0  0  0  0  0  0  0  0  0  0  0  0
    0.7671   -1.1283   -1.7153 H   0  0  0  0  0  0  0  0  0  0  0  0
    0.1600   -0.7002    1.5630 H   0  0  0  0  0  0  0  0  0  0  0  0
   -3.4104   -0.6721    0.6465 H   0  0  0  0  0  0  0  0  0  0  0  0
   -2.6149    0.6512    1.5104 H   0  0  0  0  0  0  0  0  0  0  0  0
   -2.2215   -1.0322    1.9007 H   0  0  0  0  0  0  0  0  0  0  0  0
   -1.9958    1.5054   -0.8642 H   0  0  0  0  0  0  0  0  0  0  0  0
   -0.8926    0.5453   -1.8657 H   0  0  0  0  0  0  0  0  0  0  0  0
   -2.5791    0.0491   -1.6773 H   0  0  0  0  0  0  0  0  0  0  0  0
  1  2  1  0  0  0  0
  2  3  1  0  0  0  0
  2  4  1  0  0  0  0
  2  5  1  0  0  0  0
  5  6  1  0  0  0  0
  5  7  1  0  0  0  0
  6  7  1  0  0  0  0
  7  8  1  0  0  0  0
  7  9  1  0  0  0  0
  1 10  1  0  0  0  0
  1 11  1  0  0  0  0
  1 12  1  0  0  0  0
  3 13  1  0  0  0  0
  3 14  1  0  0  0  0
  3 15  1  0  0  0  0
  4 16  1  0  0  0  0
  5 17  1  0  0  0  0
  8 18  1  0  0  0  0
  8 19  1  0  0  0  0
  8 20  1  0  0  0  0
  9 21  1  0  0  0  0
  9 22  1  0  0  0  0
  9 23  1  0  0  0  0
M  END
