 xtb: 6.7.1 (edcfbbe)
          07072617293D

 38 39  0     0  0            999 V2000
    0.5216   -0.7063    1.0110 O   0  0  0  0  0  0  0  0  0  0  0  0
    0.6428   -0.3358   -0.1272 C   0  0  0  0  0  0  0  0  0  0  0  0
   -0.3648    0.1446   -0.8627 O   0  0  0  0  0  0  0  0  0  0  0  0
   -1.6690    0.1810   -0.2625 C   0  0  0  0  0  0  0  0  0  0  0  0
   -2.4554    1.3077   -0.9221 C   0  0  0  0  0  0  0  0  0  0  0  0
   -3.8669    1.3650   -0.3452 C   0  0  0  0  0  0  0  0  0  0  0  0
   -4.5794    0.0294   -0.5375 C   0  0  0  0  0  0  0  0  0  0  0  0
   -3.7850   -1.0969    0.1172 C   0  0  0  0  0  0  0  0  0  0  0  0
   -2.3726   -1.1605   -0.4553 C   0  0  0  0  0  0  0  0  0  0  0  0
    1.9515   -0.2759   -0.9188 C   0  0  0  0  0  0  0  0  0  0  0  0
    1.6967   -0.4355   -2.3015 O   0  0  0  0  0  0  0  0  0  0  0  0
    2.9209   -1.3958   -0.5228 C   0  0  0  0  0  0  0  0  0  0  0  0
    3.5036   -1.2243    0.8757 C   0  0  0  0  0  0  0  0  0  0  0  0
    4.1580    0.1438    1.0297 C   0  0  0  0  0  0  0  0  0  0  0  0
    3.1312    1.2378    0.7588 C   0  0  0  0  0  0  0  0  0  0  0  0
    2.5864    1.1086   -0.6585 C   0  0  0  0  0  0  0  0  0  0  0  0
   -1.5415    0.3761    0.8102 H   0  0  0  0  0  0  0  0  0  0  0  0
   -2.4991    1.1206   -1.9970 H   0  0  0  0  0  0  0  0  0  0  0  0
   -1.9393    2.2567   -0.7643 H   0  0  0  0  0  0  0  0  0  0  0  0
   -4.4284    2.1631   -0.8340 H   0  0  0  0  0  0  0  0  0  0  0  0
   -3.8124    1.5966    0.7207 H   0  0  0  0  0  0  0  0  0  0  0  0
   -5.5798    0.0781   -0.1040 H   0  0  0  0  0  0  0  0  0  0  0  0
   -4.6860   -0.1743   -1.6052 H   0  0  0  0  0  0  0  0  0  0  0  0
   -4.2868   -2.0522   -0.0446 H   0  0  0  0  0  0  0  0  0  0  0  0
   -3.7295   -0.9248    1.1942 H   0  0  0  0  0  0  0  0  0  0  0  0
   -2.4100   -1.3868   -1.5235 H   0  0  0  0  0  0  0  0  0  0  0  0
   -1.7955   -1.9432    0.0403 H   0  0  0  0  0  0  0  0  0  0  0  0
    0.9376    0.1112   -2.5372 H   0  0  0  0  0  0  0  0  0  0  0  0
    3.7190   -1.3886   -1.2680 H   0  0  0  0  0  0  0  0  0  0  0  0
    2.3994   -2.3509   -0.6014 H   0  0  0  0  0  0  0  0  0  0  0  0
    2.7069   -1.3275    1.6119 H   0  0  0  0  0  0  0  0  0  0  0  0
    4.2363   -2.0140    1.0525 H   0  0  0  0  0  0  0  0  0  0  0  0
    4.9871    0.2387    0.3242 H   0  0  0  0  0  0  0  0  0  0  0  0
    4.5588    0.2519    2.0390 H   0  0  0  0  0  0  0  0  0  0  0  0
    3.5848    2.2237    0.8820 H   0  0  0  0  0  0  0  0  0  0  0  0
    2.3145    1.1481    1.4776 H   0  0  0  0  0  0  0  0  0  0  0  0
    1.8447    1.8870   -0.8596 H   0  0  0  0  0  0  0  0  0  0  0  0
    3.3996    1.2236   -1.3791 H   0  0  0  0  0  0  0  0  0  0  0  0
  1  2  2  0  0  0  0
  2  3  1  0  0  0  0
  3  4  1  0  0  0  0
  4  5  1  0  0  0  0
  5  6  1  0  0  0  0
  6  7  1  0  0  0  0
  7  8  1  0  0  0  0
  4  9  1  0  0  0  0
  8  9  1  0  0  0  0
  2 10  1  0  0  0  0
 10 11  1  0  0  0  0
 10 12  1  0  0  0  0
 12 13  1  0  0  0  0
 13 14  1  0  0  0  0
 14 15  1  0  0  0  0
 10 16  1  0  0  0  0
 15 16  1  0  0  0  0
  4 17  1  0  0  0  0
  5 18  1  0  0  0  0
  5 19  1  0  0  0  0
  6 20  1  0  0  0  0
  6 21  1  0  0  0  0
  7 22  1  0  0  0  0
  7 23  1  0  0  0  0
  8 24  1  0  0  0  0
  8 25  1  0  0  0  0
  9 26  1  0  0  0  0
  9 27  1  0  0  0  0
 11 28  1  0  0  0  0
 12 29  1  0  0  0  0
 12 30  1  0  0  0  0
 13 31  1  0  0  0  0
 13 32  1  0  0  0  0
 14 33  1  0  0  0  0
 14 34  1  0  0  0  0
 15 35  1  0  0  0  0
 15 36  1  0  0  0  0
 16 37  1  0  0  0  0
 16 38  1  0  0  0  0
M  END
