 xtb: 6.7.1 (edcfbbe)
          07082617283D

 18 18  0     0  0            999 V2000
    0.8192   -1.1092   -0.5017 C   0  0  0  0  0  0  0  0  0  0  0  0
   -0.5026   -1.3613    0.2176 C   0  0  0  0  0  0  0  0  0  0  0  0
   -1.4553   -0.1876    0.0098 C   0  0  0  0  0  0  0  0  0  0  0  0
   -0.8192    1.1092    0.5017 C   0  0  0  0  0  0  0  0  0  0  0  0
    0.5026    1.3613   -0.2176 C   0  0  0  0  0  0  0  0  0  0  0  0
    1.4553    0.1876   -0.0098 C   0  0  0  0  0  0  0  0  0  0  0  0
    1.5007   -1.9459   -0.3328 H   0  0  0  0  0  0  0  0  0  0  0  0
    0.6376   -1.0375   -1.5769 H   0  0  0  0  0  0  0  0  0  0  0  0
   -0.9590   -2.2817   -0.1533 H   0  0  0  0  0  0  0  0  0  0  0  0
   -0.3139   -1.4886    1.2864 H   0  0  0  0  0  0  0  0  0  0  0  0
   -1.6881   -0.0951   -1.0539 H   0  0  0  0  0  0  0  0  0  0  0  0
   -2.3915   -0.3688    0.5425 H   0  0  0  0  0  0  0  0  0  0  0  0
   -0.6376    1.0375    1.5769 H   0  0  0  0  0  0  0  0  0  0  0  0
   -1.5007    1.9459    0.3328 H   0  0  0  0  0  0  0  0  0  0  0  0
    0.3139    1.4886   -1.2864 H   0  0  0  0  0  0  0  0  0  0  0  0
    0.9590    2.2817    0.1533 H   0  0  0  0  0  0  0  0  0  0  0  0
    1.6881    0.0951    1.0539 H   0  0  0  0  0  0  0  0  0  0  0  0
    2.3915    0.3688   -0.5425 H   0  0  0  0  0  0  0  0  0  0  0  0
  1  2  1  0  0  0  0
  2  3  1  0  0  0  0
  3  4  1  0  0  0  0
  4  5  1  0  0  0  0
  1  6  1  0  0  0  0
  5  6  1  0  0  0  0
  1  7  1  0  0  0  0
  1  8  1  0  0  0  0
  2  9  1  0  0  0  0
  2 10  1  0  0  0  0
  3 11  1  0  0  0  0
  3 12  1  0  0  0  0
  4 13  1  0  0  0  0
  4 14  1  0  0  0  0
  5 15  1  0  0  0  0
  5 16  1  0  0  0  0
  6 17  1  0  0  0  0
  6 18  1  0  0  0  0
M  END
