 xtb: 6.7.1 (edcfbbe)
          07082617263D

 16 16  0     0  0            999 V2000
    0.8043    1.1792    0.5749 C   0  0  0  0  0  0  0  0  0  0  0  0
    1.5234    0.1520    0.1552 C   0  0  0  0  0  0  0  0  0  0  0  0
    0.9272   -1.0899   -0.4336 C   0  0  0  0  0  0  0  0  0  0  0  0
   -0.5666   -1.1841   -0.1342 C   0  0  0  0  0  0  0  0  0  0  0  0
   -1.2376    0.1523   -0.4316 C   0  0  0  0  0  0  0  0  0  0  0  0
   -0.6915    1.2246    0.5074 C   0  0  0  0  0  0  0  0  0  0  0  0
    1.2862    2.0470    1.0049 H   0  0  0  0  0  0  0  0  0  0  0  0
    2.6032    0.1772    0.2149 H   0  0  0  0  0  0  0  0  0  0  0  0
    1.0893   -1.0801   -1.5171 H   0  0  0  0  0  0  0  0  0  0  0  0
    1.4478   -1.9673   -0.0408 H   0  0  0  0  0  0  0  0  0  0  0  0
   -0.7103   -1.4300    0.9202 H   0  0  0  0  0  0  0  0  0  0  0  0
   -1.0183   -1.9793   -0.7308 H   0  0  0  0  0  0  0  0  0  0  0  0
   -2.3203    0.0701   -0.3163 H   0  0  0  0  0  0  0  0  0  0  0  0
   -1.0288    0.4354   -1.4656 H   0  0  0  0  0  0  0  0  0  0  0  0
   -1.0951    1.0767    1.5153 H   0  0  0  0  0  0  0  0  0  0  0  0
   -1.0129    2.2160    0.1773 H   0  0  0  0  0  0  0  0  0  0  0  0
  1  2  2  0  0  0  0
  2  3  1  0  0  0  0
  3  4  1  0  0  0  0
  4  5  1  0  0  0  0
  1  6  1  0  0  0  0
  5  6  1  0  0  0  0
  1  7  1  0  0  0  0
  2  8  1  0  0  0  0
  3  9  1  0  0  0  0
  3 10  1  0  0  0  0
  4 11  1  0  0  0  0
  4 12  1  0  0  0  0
  5 13  1  0  0  0  0
  5 14  1  0  0  0  0
  6 15  1  0  0  0  0
  6 16  1  0  0  0  0
M  END
