 xtb: 6.7.1 (edcfbbe)
          07072623093D

 37 36  0     0  0            999 V2000
    4.4439    0.9343    0.4921 C   0  0  0  0  0  0  0  0  0  0  0  0
    2.9796    0.8648    0.9059 C   0  0  0  0  0  0  0  0  0  0  0  0
    2.1428    0.0813   -0.1054 C   0  0  0  0  0  0  0  0  0  0  0  0
    0.6936   -0.0687    0.3721 C   0  0  0  0  0  0  0  0  0  0  0  0
    0.6558   -0.8055    1.5841 O   0  0  0  0  0  0  0  0  0  0  0  0
   -0.2694   -0.6660   -0.6901 C   0  0  0  0  0  0  0  0  0  0  0  0
   -0.2644    0.1883   -1.9634 C   0  0  0  0  0  0  0  0  0  0  0  0
    0.1663   -2.0839   -1.0957 C   0  0  0  0  0  0  0  0  0  0  0  0
   -1.7107   -0.7927   -0.0914 C   0  0  0  0  0  0  0  0  0  0  0  0
   -1.7620   -1.8792    0.8088 O   0  0  0  0  0  0  0  0  0  0  0  0
   -2.3174    0.4415    0.6199 C   0  0  0  0  0  0  0  0  0  0  0  0
   -2.3755    1.7223   -0.2077 C   0  0  0  0  0  0  0  0  0  0  0  0
   -3.7412    0.0778    1.0529 C   0  0  0  0  0  0  0  0  0  0  0  0
    4.5443    1.4202   -0.4764 H   0  0  0  0  0  0  0  0  0  0  0  0
    4.8709   -0.0640    0.4190 H   0  0  0  0  0  0  0  0  0  0  0  0
    5.0195    1.4998    1.2209 H   0  0  0  0  0  0  0  0  0  0  0  0
    2.5781    1.8767    0.9955 H   0  0  0  0  0  0  0  0  0  0  0  0
    2.8966    0.3904    1.8858 H   0  0  0  0  0  0  0  0  0  0  0  0
    2.5870   -0.9085   -0.2402 H   0  0  0  0  0  0  0  0  0  0  0  0
    2.1637    0.5968   -1.0645 H   0  0  0  0  0  0  0  0  0  0  0  0
    0.3249    0.9248    0.6475 H   0  0  0  0  0  0  0  0  0  0  0  0
    1.1373   -1.6290    1.4381 H   0  0  0  0  0  0  0  0  0  0  0  0
   -0.2037    1.2492   -1.7467 H   0  0  0  0  0  0  0  0  0  0  0  0
    0.5850   -0.0762   -2.5892 H   0  0  0  0  0  0  0  0  0  0  0  0
   -1.1675    0.0056   -2.5402 H   0  0  0  0  0  0  0  0  0  0  0  0
    0.1416   -2.7688   -0.2521 H   0  0  0  0  0  0  0  0  0  0  0  0
    1.1653   -2.0762   -1.5243 H   0  0  0  0  0  0  0  0  0  0  0  0
   -0.5225   -2.4671   -1.8448 H   0  0  0  0  0  0  0  0  0  0  0  0
   -2.3800   -1.0790   -0.9126 H   0  0  0  0  0  0  0  0  0  0  0  0
   -1.1650   -1.6496    1.5379 H   0  0  0  0  0  0  0  0  0  0  0  0
   -1.7273    0.6255    1.5248 H   0  0  0  0  0  0  0  0  0  0  0  0
   -3.0196    2.4419    0.2945 H   0  0  0  0  0  0  0  0  0  0  0  0
   -1.3986    2.1821   -0.3218 H   0  0  0  0  0  0  0  0  0  0  0  0
   -2.7910    1.5267   -1.1929 H   0  0  0  0  0  0  0  0  0  0  0  0
   -3.7493   -0.8757    1.5736 H   0  0  0  0  0  0  0  0  0  0  0  0
   -4.1431    0.8418    1.7143 H   0  0  0  0  0  0  0  0  0  0  0  0
   -4.3880   -0.0019    0.1814 H   0  0  0  0  0  0  0  0  0  0  0  0
  1  2  1  0  0  0  0
  2  3  1  0  0  0  0
  3  4  1  0  0  0  0
  4  5  1  0  0  0  0
  4  6  1  0  0  0  0
  6  7  1  0  0  0  0
  6  8  1  0  0  0  0
  6  9  1  0  0  0  0
  9 10  1  0  0  0  0
  9 11  1  0  0  0  0
 11 12  1  0  0  0  0
 11 13  1  0  0  0  0
  1 14  1  0  0  0  0
  1 15  1  0  0  0  0
  1 16  1  0  0  0  0
  2 17  1  0  0  0  0
  2 18  1  0  0  0  0
  3 19  1  0  0  0  0
  3 20  1  0  0  0  0
  4 21  1  0  0  0  0
  5 22  1  0  0  0  0
  7 23  1  0  0  0  0
  7 24  1  0  0  0  0
  7 25  1  0  0  0  0
  8 26  1  0  0  0  0
  8 27  1  0  0  0  0
  8 28  1  0  0  0  0
  9 29  1  0  0  0  0
 10 30  1  0  0  0  0
 11 31  1  0  0  0  0
 12 32  1  0  0  0  0
 12 33  1  0  0  0  0
 12 34  1  0  0  0  0
 13 35  1  0  0  0  0
 13 36  1  0  0  0  0
 13 37  1  0  0  0  0
M  END
