 xtb: 6.7.1 (edcfbbe)
          07072609403D

 23 23  0     0  0            999 V2000
   -2.6105   -1.8983    0.6510 C   0  0  0  0  0  0  0  0  0  0  0  0
   -1.5289   -1.0989    0.1983 O   0  0  0  0  0  0  0  0  0  0  0  0
   -1.3888    0.1019    0.7753 C   0  0  0  0  0  0  0  0  0  0  0  0
   -2.1207    0.5105    1.6428 O   0  0  0  0  0  0  0  0  0  0  0  0
   -0.2487    0.8664    0.2125 C   0  0  0  0  0  0  0  0  0  0  0  0
   -0.1525    2.2179    0.5364 C   0  0  0  0  0  0  0  0  0  0  0  0
    0.8601    2.9949    0.0090 C   0  0  0  0  0  0  0  0  0  0  0  0
    1.7807    2.4271   -0.8577 C   0  0  0  0  0  0  0  0  0  0  0  0
    1.6949    1.0840   -1.1823 C   0  0  0  0  0  0  0  0  0  0  0  0
    0.6904    0.2882   -0.6457 C   0  0  0  0  0  0  0  0  0  0  0  0
    0.6817   -1.1710   -0.9924 C   0  0  0  0  0  0  0  0  0  0  0  0
    1.2816   -2.0414    0.0863 C   0  0  0  0  0  0  0  0  0  0  0  0
    0.3357   -1.5865   -2.0666 O   0  0  0  0  0  0  0  0  0  0  0  0
   -2.6507   -2.7557   -0.0153 H   0  0  0  0  0  0  0  0  0  0  0  0
   -3.5427   -1.3321    0.6095 H   0  0  0  0  0  0  0  0  0  0  0  0
   -2.4395   -2.2188    1.6811 H   0  0  0  0  0  0  0  0  0  0  0  0
   -0.8918    2.6353    1.2032 H   0  0  0  0  0  0  0  0  0  0  0  0
    0.9290    4.0411    0.2651 H   0  0  0  0  0  0  0  0  0  0  0  0
    2.5684    3.0308   -1.2832 H   0  0  0  0  0  0  0  0  0  0  0  0
    2.4116    0.6412   -1.8583 H   0  0  0  0  0  0  0  0  0  0  0  0
    1.0749   -3.0882   -0.1182 H   0  0  0  0  0  0  0  0  0  0  0  0
    2.3602   -1.8849    0.0822 H   0  0  0  0  0  0  0  0  0  0  0  0
    0.9055   -1.7635    1.0666 H   0  0  0  0  0  0  0  0  0  0  0  0
  1  2  1  0  0  0  0
  2  3  1  0  0  0  0
  3  4  2  0  0  0  0
  3  5  1  0  0  0  0
  5  6  4  0  0  0  0
  6  7  4  0  0  0  0
  7  8  4  0  0  0  0
  8  9  4  0  0  0  0
  5 10  4  0  0  0  0
  9 10  4  0  0  0  0
 10 11  1  0  0  0  0
 11 12  1  0  0  0  0
 11 13  2  0  0  0  0
  1 14  1  0  0  0  0
  1 15  1  0  0  0  0
  1 16  1  0  0  0  0
  6 17  1  0  0  0  0
  7 18  1  0  0  0  0
  8 19  1  0  0  0  0
  9 20  1  0  0  0  0
 12 21  1  0  0  0  0
 12 22  1  0  0  0  0
 12 23  1  0  0  0  0
M  END
