 xtb: 6.7.1 (edcfbbe)
          07082606263D

 19 19  0     0  0            999 V2000
   -1.9288   -1.4786    1.3288 O   0  0  0  0  0  0  0  0  0  0  0  0
   -2.3154   -0.5642    0.3352 C   0  0  0  0  0  0  0  0  0  0  0  0
   -1.3686   -0.5701   -0.8799 C   0  0  0  0  0  0  0  0  0  0  0  0
   -0.0147   -0.0576   -0.4930 C   0  0  0  0  0  0  0  0  0  0  0  0
    0.9804   -0.9449   -0.0921 C   0  0  0  0  0  0  0  0  0  0  0  0
    2.2241   -0.5005    0.3198 C   0  0  0  0  0  0  0  0  0  0  0  0
    2.5019    0.8554    0.3396 C   0  0  0  0  0  0  0  0  0  0  0  0
    1.5311    1.7604   -0.0505 C   0  0  0  0  0  0  0  0  0  0  0  0
    0.2900    1.3000   -0.4555 C   0  0  0  0  0  0  0  0  0  0  0  0
   -1.0134    2.6023   -0.9733 Br  0  0  0  0  0  0  0  0  0  0  0  0
   -1.0436   -1.2489    1.6362 H   0  0  0  0  0  0  0  0  0  0  0  0
   -2.3816    0.4526    0.7476 H   0  0  0  0  0  0  0  0  0  0  0  0
   -3.3138   -0.8756    0.0217 H   0  0  0  0  0  0  0  0  0  0  0  0
   -1.8082    0.0485   -1.6630 H   0  0  0  0  0  0  0  0  0  0  0  0
   -1.2852   -1.5942   -1.2471 H   0  0  0  0  0  0  0  0  0  0  0  0
    0.7677   -2.0042   -0.1125 H   0  0  0  0  0  0  0  0  0  0  0  0
    2.9756   -1.2134    0.6233 H   0  0  0  0  0  0  0  0  0  0  0  0
    3.4697    1.2126    0.6557 H   0  0  0  0  0  0  0  0  0  0  0  0
    1.7330    2.8205   -0.0408 H   0  0  0  0  0  0  0  0  0  0  0  0
  1  2  1  0  0  0  0
  2  3  1  0  0  0  0
  3  4  1  0  0  0  0
  4  5  4  0  0  0  0
  5  6  4  0  0  0  0
  6  7  4  0  0  0  0
  7  8  4  0  0  0  0
  4  9  4  0  0  0  0
  8  9  4  0  0  0  0
  9 10  1  0  0  0  0
  1 11  1  0  0  0  0
  2 12  1  0  0  0  0
  2 13  1  0  0  0  0
  3 14  1  0  0  0  0
  3 15  1  0  0  0  0
  5 16  1  0  0  0  0
  6 17  1  0  0  0  0
  7 18  1  0  0  0  0
  8 19  1  0  0  0  0
M  END
