 xtb: 6.7.1 (edcfbbe)
          07082621273D

 19 18  0     0  0            999 V2000
    2.9085   -1.1583    0.6151 C   0  0  0  0  0  0  0  0  0  0  0  0
    2.1540   -0.4888   -0.5237 C   0  0  0  0  0  0  0  0  0  0  0  0
    1.1791    0.4339   -0.0279 O   0  0  0  0  0  0  0  0  0  0  0  0
   -0.0184   -0.0459    0.2817 C   0  0  0  0  0  0  0  0  0  0  0  0
   -0.3488   -1.1987    0.1755 O   0  0  0  0  0  0  0  0  0  0  0  0
   -0.9382    1.0657    0.7535 C   0  0  0  0  0  0  0  0  0  0  0  0
   -1.9777    1.2944   -0.3426 C   0  0  0  0  0  0  0  0  0  0  0  0
   -3.0601    0.2588   -0.3711 C   0  0  0  0  0  0  0  0  0  0  0  0
   -1.8928    2.2141   -1.1109 O   0  0  0  0  0  0  0  0  0  0  0  0
    3.6815   -1.8039    0.2085 H   0  0  0  0  0  0  0  0  0  0  0  0
    3.3705   -0.4084    1.2526 H   0  0  0  0  0  0  0  0  0  0  0  0
    2.2266   -1.7593    1.2119 H   0  0  0  0  0  0  0  0  0  0  0  0
    1.6489   -1.2397   -1.1397 H   0  0  0  0  0  0  0  0  0  0  0  0
    2.8233    0.1127   -1.1416 H   0  0  0  0  0  0  0  0  0  0  0  0
   -0.3547    1.9712    0.9106 H   0  0  0  0  0  0  0  0  0  0  0  0
   -1.4323    0.7438    1.6690 H   0  0  0  0  0  0  0  0  0  0  0  0
   -3.7033    0.3841    0.4981 H   0  0  0  0  0  0  0  0  0  0  0  0
   -3.6566    0.3553   -1.2741 H   0  0  0  0  0  0  0  0  0  0  0  0
   -2.6095   -0.7309   -0.3152 H   0  0  0  0  0  0  0  0  0  0  0  0
  1  2  1  0  0  0  0
  2  3  1  0  0  0  0
  3  4  1  0  0  0  0
  4  5  2  0  0  0  0
  4  6  1  0  0  0  0
  6  7  1  0  0  0  0
  7  8  1  0  0  0  0
  7  9  2  0  0  0  0
  1 10  1  0  0  0  0
  1 11  1  0  0  0  0
  1 12  1  0  0  0  0
  2 13  1  0  0  0  0
  2 14  1  0  0  0  0
  6 15  1  0  0  0  0
  6 16  1  0  0  0  0
  8 17  1  0  0  0  0
  8 18  1  0  0  0  0
  8 19  1  0  0  0  0
M  END
