 xtb: 6.7.1 (edcfbbe)
          07082610463D

 25 24  0     0  0            999 V2000
   -4.3333   -0.5815    0.4057 C   0  0  0  0  0  0  0  0  0  0  0  0
   -2.9799   -0.0959    0.9104 C   0  0  0  0  0  0  0  0  0  0  0  0
   -1.8474   -0.4803   -0.0387 C   0  0  0  0  0  0  0  0  0  0  0  0
   -0.4922    0.0056    0.4661 C   0  0  0  0  0  0  0  0  0  0  0  0
    0.6420   -0.3771   -0.4804 C   0  0  0  0  0  0  0  0  0  0  0  0
    1.9937    0.1015    0.0125 C   0  0  0  0  0  0  0  0  0  0  0  0
    2.1373    0.7137    1.0386 O   0  0  0  0  0  0  0  0  0  0  0  0
    3.1511   -0.2586   -0.9007 C   0  0  0  0  0  0  0  0  0  0  0  0
    4.4858    0.2421   -0.3650 C   0  0  0  0  0  0  0  0  0  0  0  0
   -5.1239   -0.2971    1.0960 H   0  0  0  0  0  0  0  0  0  0  0  0
   -4.3378   -1.6650    0.3066 H   0  0  0  0  0  0  0  0  0  0  0  0
   -4.5558   -0.1488   -0.5675 H   0  0  0  0  0  0  0  0  0  0  0  0
   -2.7843   -0.5248    1.8956 H   0  0  0  0  0  0  0  0  0  0  0  0
   -3.0021    0.9903    1.0221 H   0  0  0  0  0  0  0  0  0  0  0  0
   -1.8257   -1.5674   -0.1504 H   0  0  0  0  0  0  0  0  0  0  0  0
   -2.0437   -0.0511   -1.0247 H   0  0  0  0  0  0  0  0  0  0  0  0
   -0.2906   -0.4200    1.4508 H   0  0  0  0  0  0  0  0  0  0  0  0
   -0.5078    1.0911    0.5797 H   0  0  0  0  0  0  0  0  0  0  0  0
    0.6844   -1.4627   -0.6000 H   0  0  0  0  0  0  0  0  0  0  0  0
    0.4671    0.0491   -1.4717 H   0  0  0  0  0  0  0  0  0  0  0  0
    3.1700   -1.3451   -1.0152 H   0  0  0  0  0  0  0  0  0  0  0  0
    2.9526    0.1673   -1.8872 H   0  0  0  0  0  0  0  0  0  0  0  0
    4.4641    1.3235   -0.2578 H   0  0  0  0  0  0  0  0  0  0  0  0
    4.6815   -0.1881    0.6137 H   0  0  0  0  0  0  0  0  0  0  0  0
    5.2948   -0.0298   -1.0383 H   0  0  0  0  0  0  0  0  0  0  0  0
  1  2  1  0  0  0  0
  2  3  1  0  0  0  0
  3  4  1  0  0  0  0
  4  5  1  0  0  0  0
  5  6  1  0  0  0  0
  6  7  2  0  0  0  0
  6  8  1  0  0  0  0
  8  9  1  0  0  0  0
  1 10  1  0  0  0  0
  1 11  1  0  0  0  0
  1 12  1  0  0  0  0
  2 13  1  0  0  0  0
  2 14  1  0  0  0  0
  3 15  1  0  0  0  0
  3 16  1  0  0  0  0
  4 17  1  0  0  0  0
  4 18  1  0  0  0  0
  5 19  1  0  0  0  0
  5 20  1  0  0  0  0
  8 21  1  0  0  0  0
  8 22  1  0  0  0  0
  9 23  1  0  0  0  0
  9 24  1  0  0  0  0
  9 25  1  0  0  0  0
M  END
