 xtb: 6.7.1 (edcfbbe)
          07092622193D

 32 31  0     0  0            999 V2000
   -2.9635    2.4888    0.2857 C   0  0  0  0  0  0  0  0  0  0  0  0
   -2.9817    0.9738    0.1230 C   0  0  0  0  0  0  0  0  0  0  0  0
   -1.6210    0.4375   -0.3134 C   0  0  0  0  0  0  0  0  0  0  0  0
   -1.6263   -1.0819   -0.4681 C   0  0  0  0  0  0  0  0  0  0  0  0
   -0.2731   -1.6187   -0.9311 C   0  0  0  0  0  0  0  0  0  0  0  0
   -0.2956   -3.1257   -1.1642 C   0  0  0  0  0  0  0  0  0  0  0  0
    0.6896   -1.3147    0.0912 O   0  0  0  0  0  0  0  0  0  0  0  0
    1.9066   -0.9245   -0.2866 C   0  0  0  0  0  0  0  0  0  0  0  0
    2.2626   -0.8169   -1.4313 O   0  0  0  0  0  0  0  0  0  0  0  0
    2.7748   -0.6265    0.9170 C   0  0  0  0  0  0  0  0  0  0  0  0
    3.3543    0.7873    0.8222 C   0  0  0  0  0  0  0  0  0  0  0  0
    2.2647    1.8479    0.9195 C   0  0  0  0  0  0  0  0  0  0  0  0
   -2.7001    2.9701   -0.6536 H   0  0  0  0  0  0  0  0  0  0  0  0
   -3.9401    2.8530    0.5958 H   0  0  0  0  0  0  0  0  0  0  0  0
   -2.2329    2.7830    1.0362 H   0  0  0  0  0  0  0  0  0  0  0  0
   -3.2653    0.5102    1.0705 H   0  0  0  0  0  0  0  0  0  0  0  0
   -3.7341    0.6970   -0.6191 H   0  0  0  0  0  0  0  0  0  0  0  0
   -1.3399    0.8963   -1.2648 H   0  0  0  0  0  0  0  0  0  0  0  0
   -0.8693    0.7177    0.4273 H   0  0  0  0  0  0  0  0  0  0  0  0
   -1.8762   -1.5459    0.4879 H   0  0  0  0  0  0  0  0  0  0  0  0
   -2.3811   -1.3760   -1.1992 H   0  0  0  0  0  0  0  0  0  0  0  0
    0.0446   -1.1093   -1.8503 H   0  0  0  0  0  0  0  0  0  0  0  0
   -0.5692   -3.6411   -0.2465 H   0  0  0  0  0  0  0  0  0  0  0  0
    0.6877   -3.4666   -1.4796 H   0  0  0  0  0  0  0  0  0  0  0  0
   -1.0162   -3.3705   -1.9392 H   0  0  0  0  0  0  0  0  0  0  0  0
    2.1792   -0.7462    1.8220 H   0  0  0  0  0  0  0  0  0  0  0  0
    3.5888   -1.3545    0.9259 H   0  0  0  0  0  0  0  0  0  0  0  0
    3.8759    0.8856   -0.1313 H   0  0  0  0  0  0  0  0  0  0  0  0
    4.0792    0.9298    1.6260 H   0  0  0  0  0  0  0  0  0  0  0  0
    1.7159    1.7494    1.8543 H   0  0  0  0  0  0  0  0  0  0  0  0
    2.6987    2.8442    0.8791 H   0  0  0  0  0  0  0  0  0  0  0  0
    1.5631    1.7475    0.0943 H   0  0  0  0  0  0  0  0  0  0  0  0
  1  2  1  0  0  0  0
  2  3  1  0  0  0  0
  3  4  1  0  0  0  0
  4  5  1  0  0  0  0
  5  6  1  0  0  0  0
  5  7  1  0  0  0  0
  7  8  1  0  0  0  0
  8  9  2  0  0  0  0
  8 10  1  0  0  0  0
 10 11  1  0  0  0  0
 11 12  1  0  0  0  0
  1 13  1  0  0  0  0
  1 14  1  0  0  0  0
  1 15  1  0  0  0  0
  2 16  1  0  0  0  0
  2 17  1  0  0  0  0
  3 18  1  0  0  0  0
  3 19  1  0  0  0  0
  4 20  1  0  0  0  0
  4 21  1  0  0  0  0
  5 22  1  0  0  0  0
  6 23  1  0  0  0  0
  6 24  1  0  0  0  0
  6 25  1  0  0  0  0
 10 26  1  0  0  0  0
 10 27  1  0  0  0  0
 11 28  1  0  0  0  0
 11 29  1  0  0  0  0
 12 30  1  0  0  0  0
 12 31  1  0  0  0  0
 12 32  1  0  0  0  0
M  END
