 xtb: 6.7.1 (edcfbbe)
          07072619093D

 25 24  0     0  0            999 V2000
    2.9843   -0.9784   -0.8975 C   0  0  0  0  0  0  0  0  0  0  0  0
    1.9684   -0.7598    0.2208 C   0  0  0  0  0  0  0  0  0  0  0  0
    2.5879    0.0152    1.2207 O   0  0  0  0  0  0  0  0  0  0  0  0
    0.6990   -0.0815   -0.3145 C   0  0  0  0  0  0  0  0  0  0  0  0
   -0.4425   -0.1006    0.7046 C   0  0  0  0  0  0  0  0  0  0  0  0
   -0.0511    0.7225    1.7950 O   0  0  0  0  0  0  0  0  0  0  0  0
   -1.8000    0.3654    0.1381 C   0  0  0  0  0  0  0  0  0  0  0  0
   -1.7107    1.7637   -0.4688 C   0  0  0  0  0  0  0  0  0  0  0  0
   -2.3736   -0.6324   -0.8638 C   0  0  0  0  0  0  0  0  0  0  0  0
    3.2240   -0.0287   -1.3683 H   0  0  0  0  0  0  0  0  0  0  0  0
    2.5912   -1.6635   -1.6436 H   0  0  0  0  0  0  0  0  0  0  0  0
    3.8960   -1.3922   -0.4763 H   0  0  0  0  0  0  0  0  0  0  0  0
    1.6895   -1.7437    0.6434 H   0  0  0  0  0  0  0  0  0  0  0  0
    1.8847    0.4235    1.7452 H   0  0  0  0  0  0  0  0  0  0  0  0
    0.3772   -0.5964   -1.2184 H   0  0  0  0  0  0  0  0  0  0  0  0
    0.9426    0.9532   -0.5570 H   0  0  0  0  0  0  0  0  0  0  0  0
   -0.5670   -1.1364    1.0682 H   0  0  0  0  0  0  0  0  0  0  0  0
   -0.7717    0.7634    2.4327 H   0  0  0  0  0  0  0  0  0  0  0  0
   -2.4879    0.4103    0.9950 H   0  0  0  0  0  0  0  0  0  0  0  0
   -1.1717    1.7394   -1.4120 H   0  0  0  0  0  0  0  0  0  0  0  0
   -1.1940    2.4374    0.2111 H   0  0  0  0  0  0  0  0  0  0  0  0
   -2.7076    2.1563   -0.6554 H   0  0  0  0  0  0  0  0  0  0  0  0
   -1.7752   -0.6623   -1.7706 H   0  0  0  0  0  0  0  0  0  0  0  0
   -2.4067   -1.6330   -0.4381 H   0  0  0  0  0  0  0  0  0  0  0  0
   -3.3852   -0.3417   -1.1372 H   0  0  0  0  0  0  0  0  0  0  0  0
  1  2  1  0  0  0  0
  2  3  1  0  0  0  0
  2  4  1  0  0  0  0
  4  5  1  0  0  0  0
  5  6  1  0  0  0  0
  5  7  1  0  0  0  0
  7  8  1  0  0  0  0
  7  9  1  0  0  0  0
  1 10  1  0  0  0  0
  1 11  1  0  0  0  0
  1 12  1  0  0  0  0
  2 13  1  0  0  0  0
  3 14  1  0  0  0  0
  4 15  1  0  0  0  0
  4 16  1  0  0  0  0
  5 17  1  0  0  0  0
  6 18  1  0  0  0  0
  7 19  1  0  0  0  0
  8 20  1  0  0  0  0
  8 21  1  0  0  0  0
  8 22  1  0  0  0  0
  9 23  1  0  0  0  0
  9 24  1  0  0  0  0
  9 25  1  0  0  0  0
M  END
