 xtb: 6.7.1 (edcfbbe)
          07082618143D

 17 16  0     0  0            999 V2000
    3.4818    0.6169    0.0415 C   0  0  0  0  0  0  0  0  0  0  0  0
    2.3449    0.1246   -0.4103 C   0  0  0  0  0  0  0  0  0  0  0  0
    1.1847   -0.2579    0.4539 C   0  0  0  0  0  0  0  0  0  0  0  0
   -0.0067    0.1596   -0.1713 O   0  0  0  0  0  0  0  0  0  0  0  0
   -1.1659   -0.1864    0.5504 C   0  0  0  0  0  0  0  0  0  0  0  0
   -2.3642    0.3344   -0.1791 C   0  0  0  0  0  0  0  0  0  0  0  0
   -3.4940   -0.3293   -0.3283 C   0  0  0  0  0  0  0  0  0  0  0  0
    4.2963    0.8607   -0.6183 H   0  0  0  0  0  0  0  0  0  0  0  0
    3.6502    0.7878    1.0923 H   0  0  0  0  0  0  0  0  0  0  0  0
    2.1791   -0.0352   -1.4658 H   0  0  0  0  0  0  0  0  0  0  0  0
    1.1713   -1.3566    0.5824 H   0  0  0  0  0  0  0  0  0  0  0  0
    1.2752    0.1940    1.4549 H   0  0  0  0  0  0  0  0  0  0  0  0
   -1.2295   -1.2790    0.6797 H   0  0  0  0  0  0  0  0  0  0  0  0
   -1.1254    0.2683    1.5581 H   0  0  0  0  0  0  0  0  0  0  0  0
   -2.2333    1.3252   -0.5894 H   0  0  0  0  0  0  0  0  0  0  0  0
   -3.6278   -1.3217    0.0702 H   0  0  0  0  0  0  0  0  0  0  0  0
   -4.3365    0.0946   -0.8467 H   0  0  0  0  0  0  0  0  0  0  0  0
  1  2  2  0  0  0  0
  2  3  1  0  0  0  0
  3  4  1  0  0  0  0
  4  5  1  0  0  0  0
  5  6  1  0  0  0  0
  6  7  2  0  0  0  0
  1  8  1  0  0  0  0
  1  9  1  0  0  0  0
  2 10  1  0  0  0  0
  3 11  1  0  0  0  0
  3 12  1  0  0  0  0
  5 13  1  0  0  0  0
  5 14  1  0  0  0  0
  6 15  1  0  0  0  0
  7 16  1  0  0  0  0
  7 17  1  0  0  0  0
M  END
