 xtb: 6.7.1 (edcfbbe)
          07072617443D

 31 31  0     0  0            999 V2000
   -2.9133   -0.1952   -2.0848 C   0  0  0  0  0  0  0  0  0  0  0  0
   -2.0575    0.1773   -0.9264 C   0  0  0  0  0  0  0  0  0  0  0  0
   -2.3191   -0.0877    0.3560 C   0  0  0  0  0  0  0  0  0  0  0  0
   -3.5224   -0.8375    0.8487 C   0  0  0  0  0  0  0  0  0  0  0  0
   -1.3572    0.3185    1.4094 C   0  0  0  0  0  0  0  0  0  0  0  0
   -1.3690   -0.1068    2.5410 O   0  0  0  0  0  0  0  0  0  0  0  0
   -0.4614    1.2186    0.9720 O   0  0  0  0  0  0  0  0  0  0  0  0
    0.5844    1.5711    1.8692 C   0  0  0  0  0  0  0  0  0  0  0  0
    1.6624    0.4792    1.9274 C   0  0  0  0  0  0  0  0  0  0  0  0
    2.1497    0.1630    0.5418 C   0  0  0  0  0  0  0  0  0  0  0  0
    1.5425   -0.8383   -0.2047 C   0  0  0  0  0  0  0  0  0  0  0  0
    1.9447   -1.0895   -1.5046 C   0  0  0  0  0  0  0  0  0  0  0  0
    2.9632   -0.3442   -2.0730 C   0  0  0  0  0  0  0  0  0  0  0  0
    3.5772    0.6534   -1.3348 C   0  0  0  0  0  0  0  0  0  0  0  0
    3.1695    0.9073   -0.0375 C   0  0  0  0  0  0  0  0  0  0  0  0
   -3.2254    0.7066   -2.6116 H   0  0  0  0  0  0  0  0  0  0  0  0
   -2.3393   -0.7977   -2.7887 H   0  0  0  0  0  0  0  0  0  0  0  0
   -3.7970   -0.7472   -1.7807 H   0  0  0  0  0  0  0  0  0  0  0  0
   -1.1462    0.7041   -1.1738 H   0  0  0  0  0  0  0  0  0  0  0  0
   -3.4114   -1.0260    1.9135 H   0  0  0  0  0  0  0  0  0  0  0  0
   -4.4290   -0.2558    0.6891 H   0  0  0  0  0  0  0  0  0  0  0  0
   -3.6289   -1.7900    0.3336 H   0  0  0  0  0  0  0  0  0  0  0  0
    0.9949    2.5011    1.4706 H   0  0  0  0  0  0  0  0  0  0  0  0
    0.1674    1.7383    2.8683 H   0  0  0  0  0  0  0  0  0  0  0  0
    1.2296   -0.4097    2.3890 H   0  0  0  0  0  0  0  0  0  0  0  0
    2.4784    0.8405    2.5548 H   0  0  0  0  0  0  0  0  0  0  0  0
    0.7479   -1.4247    0.2350 H   0  0  0  0  0  0  0  0  0  0  0  0
    1.4619   -1.8703   -2.0745 H   0  0  0  0  0  0  0  0  0  0  0  0
    3.2791   -0.5408   -3.0870 H   0  0  0  0  0  0  0  0  0  0  0  0
    4.3749    1.2363   -1.7721 H   0  0  0  0  0  0  0  0  0  0  0  0
    3.6495    1.6890    0.5347 H   0  0  0  0  0  0  0  0  0  0  0  0
  1  2  1  0  0  0  0
  2  3  2  0  0  0  0
  3  4  1  0  0  0  0
  3  5  1  0  0  0  0
  5  6  2  0  0  0  0
  5  7  1  0  0  0  0
  7  8  1  0  0  0  0
  8  9  1  0  0  0  0
  9 10  1  0  0  0  0
 10 11  4  0  0  0  0
 11 12  4  0  0  0  0
 12 13  4  0  0  0  0
 13 14  4  0  0  0  0
 10 15  4  0  0  0  0
 14 15  4  0  0  0  0
  1 16  1  0  0  0  0
  1 17  1  0  0  0  0
  1 18  1  0  0  0  0
  2 19  1  0  0  0  0
  4 20  1  0  0  0  0
  4 21  1  0  0  0  0
  4 22  1  0  0  0  0
  8 23  1  0  0  0  0
  8 24  1  0  0  0  0
  9 25  1  0  0  0  0
  9 26  1  0  0  0  0
 11 27  1  0  0  0  0
 12 28  1  0  0  0  0
 13 29  1  0  0  0  0
 14 30  1  0  0  0  0
 15 31  1  0  0  0  0
M  END
