 xtb: 6.7.1 (edcfbbe)
          07082612123D

 38 39  0     0  0            999 V2000
   -3.3936    2.0166    0.7365 C   0  0  0  0  0  0  0  0  0  0  0  0
   -2.8987    0.7987    0.5796 C   0  0  0  0  0  0  0  0  0  0  0  0
   -3.5312   -0.3940    1.2302 C   0  0  0  0  0  0  0  0  0  0  0  0
   -1.6633    0.5695   -0.2594 C   0  0  0  0  0  0  0  0  0  0  0  0
   -1.7981   -0.6054   -1.2242 C   0  0  0  0  0  0  0  0  0  0  0  0
   -0.5455   -0.6843   -2.0934 C   0  0  0  0  0  0  0  0  0  0  0  0
    0.7026   -0.8157   -1.2736 C   0  0  0  0  0  0  0  0  0  0  0  0
    1.6288   -1.7215   -1.6100 C   0  0  0  0  0  0  0  0  0  0  0  0
    2.9256   -1.8702   -0.9570 C   0  0  0  0  0  0  0  0  0  0  0  0
    3.7349   -2.7090   -1.2959 O   0  0  0  0  0  0  0  0  0  0  0  0
    3.2029   -0.8745    0.1438 C   0  0  0  0  0  0  0  0  0  0  0  0
    1.9268   -0.4453    0.8651 C   0  0  0  0  0  0  0  0  0  0  0  0
    2.2928    0.4807    2.0245 C   0  0  0  0  0  0  0  0  0  0  0  0
    0.8838    0.1454   -0.1190 C   0  0  0  0  0  0  0  0  0  0  0  0
    1.3435    1.4922   -0.6992 C   0  0  0  0  0  0  0  0  0  0  0  0
   -0.4465    0.3306    0.6412 C   0  0  0  0  0  0  0  0  0  0  0  0
   -4.2621    2.2051    1.3446 H   0  0  0  0  0  0  0  0  0  0  0  0
   -2.9527    2.8785    0.2640 H   0  0  0  0  0  0  0  0  0  0  0  0
   -3.9995   -1.0303    0.4800 H   0  0  0  0  0  0  0  0  0  0  0  0
   -4.2953   -0.0817    1.9371 H   0  0  0  0  0  0  0  0  0  0  0  0
   -2.7908   -0.9903    1.7599 H   0  0  0  0  0  0  0  0  0  0  0  0
   -1.4935    1.4790   -0.8445 H   0  0  0  0  0  0  0  0  0  0  0  0
   -1.9066   -1.5384   -0.6691 H   0  0  0  0  0  0  0  0  0  0  0  0
   -2.6785   -0.4775   -1.8573 H   0  0  0  0  0  0  0  0  0  0  0  0
   -0.4736    0.2295   -2.6918 H   0  0  0  0  0  0  0  0  0  0  0  0
   -0.6186   -1.5237   -2.7871 H   0  0  0  0  0  0  0  0  0  0  0  0
    1.4583   -2.3925   -2.4418 H   0  0  0  0  0  0  0  0  0  0  0  0
    3.9106   -1.3170    0.8478 H   0  0  0  0  0  0  0  0  0  0  0  0
    3.6980   -0.0101   -0.3069 H   0  0  0  0  0  0  0  0  0  0  0  0
    1.4753   -1.3515    1.2893 H   0  0  0  0  0  0  0  0  0  0  0  0
    2.9502   -0.0468    2.7123 H   0  0  0  0  0  0  0  0  0  0  0  0
    2.8203    1.3625    1.6705 H   0  0  0  0  0  0  0  0  0  0  0  0
    1.4140    0.7957    2.5796 H   0  0  0  0  0  0  0  0  0  0  0  0
    1.4668    2.2255    0.0929 H   0  0  0  0  0  0  0  0  0  0  0  0
    2.2846    1.3845   -1.2321 H   0  0  0  0  0  0  0  0  0  0  0  0
    0.6082    1.8759   -1.4006 H   0  0  0  0  0  0  0  0  0  0  0  0
   -0.3518    1.1751    1.3253 H   0  0  0  0  0  0  0  0  0  0  0  0
   -0.6277   -0.5655    1.2389 H   0  0  0  0  0  0  0  0  0  0  0  0
  1  2  2  0  0  0  0
  2  3  1  0  0  0  0
  2  4  1  0  0  0  0
  4  5  1  0  0  0  0
  5  6  1  0  0  0  0
  6  7  1  0  0  0  0
  7  8  2  0  0  0  0
  8  9  1  0  0  0  0
  9 10  2  0  0  0  0
  9 11  1  0  0  0  0
 11 12  1  0  0  0  0
 12 13  1  0  0  0  0
  7 14  1  0  0  0  0
 12 14  1  0  0  0  0
 14 15  1  0  0  0  0
  4 16  1  0  0  0  0
 14 16  1  0  0  0  0
  1 17  1  0  0  0  0
  1 18  1  0  0  0  0
  3 19  1  0  0  0  0
  3 20  1  0  0  0  0
  3 21  1  0  0  0  0
  4 22  1  0  0  0  0
  5 23  1  0  0  0  0
  5 24  1  0  0  0  0
  6 25  1  0  0  0  0
  6 26  1  0  0  0  0
  8 27  1  0  0  0  0
 11 28  1  0  0  0  0
 11 29  1  0  0  0  0
 12 30  1  0  0  0  0
 13 31  1  0  0  0  0
 13 32  1  0  0  0  0
 13 33  1  0  0  0  0
 15 34  1  0  0  0  0
 15 35  1  0  0  0  0
 15 36  1  0  0  0  0
 16 37  1  0  0  0  0
 16 38  1  0  0  0  0
M  END
