 xtb: 6.7.1 (edcfbbe)
          07072613483D

 40 39  0     0  0            999 V2000
   -4.0443    2.5722    0.8131 C   0  0  0  0  0  0  0  0  0  0  0  0
   -2.9894    1.8545   -0.0178 C   0  0  0  0  0  0  0  0  0  0  0  0
   -2.1911    0.8661    0.8347 C   0  0  0  0  0  0  0  0  0  0  0  0
   -1.1973    0.1518    0.0507 N   0  0  0  0  0  0  0  0  0  0  0  0
   -1.6337   -1.0686   -0.5906 C   0  0  0  0  0  0  0  0  0  0  0  0
   -1.4609   -2.2977    0.3104 C   0  0  0  0  0  0  0  0  0  0  0  0
   -1.9487   -3.5622   -0.3843 C   0  0  0  0  0  0  0  0  0  0  0  0
    0.0413    0.6842   -0.0397 C   0  0  0  0  0  0  0  0  0  0  0  0
    0.3094    1.7411    0.5162 O   0  0  0  0  0  0  0  0  0  0  0  0
    1.0580   -0.0703   -0.8791 C   0  0  0  0  0  0  0  0  0  0  0  0
    2.5150    0.4059   -0.6465 C   0  0  0  0  0  0  0  0  0  0  0  0
    3.4281   -0.3023   -1.6509 C   0  0  0  0  0  0  0  0  0  0  0  0
    2.6265    1.7863   -0.8962 O   0  0  0  0  0  0  0  0  0  0  0  0
    2.9237    0.0751    0.8064 C   0  0  0  0  0  0  0  0  0  0  0  0
    4.3427    0.5221    1.1390 C   0  0  0  0  0  0  0  0  0  0  0  0
   -4.7479    1.8598    1.2393 H   0  0  0  0  0  0  0  0  0  0  0  0
   -3.5761    3.1212    1.6264 H   0  0  0  0  0  0  0  0  0  0  0  0
   -4.5985    3.2760    0.1975 H   0  0  0  0  0  0  0  0  0  0  0  0
   -3.4697    1.3232   -0.8433 H   0  0  0  0  0  0  0  0  0  0  0  0
   -2.2959    2.5813   -0.4430 H   0  0  0  0  0  0  0  0  0  0  0  0
   -2.8596    0.1377    1.2995 H   0  0  0  0  0  0  0  0  0  0  0  0
   -1.6635    1.4144    1.6185 H   0  0  0  0  0  0  0  0  0  0  0  0
   -2.6927   -0.9556   -0.8398 H   0  0  0  0  0  0  0  0  0  0  0  0
   -1.0916   -1.2152   -1.5265 H   0  0  0  0  0  0  0  0  0  0  0  0
   -2.0216   -2.1466    1.2348 H   0  0  0  0  0  0  0  0  0  0  0  0
   -0.4092   -2.4068    0.5813 H   0  0  0  0  0  0  0  0  0  0  0  0
   -1.8223   -4.4250    0.2645 H   0  0  0  0  0  0  0  0  0  0  0  0
   -1.3882   -3.7365   -1.3001 H   0  0  0  0  0  0  0  0  0  0  0  0
   -3.0025   -3.4762   -0.6394 H   0  0  0  0  0  0  0  0  0  0  0  0
    1.0041   -1.1398   -0.6828 H   0  0  0  0  0  0  0  0  0  0  0  0
    0.8057    0.1061   -1.9293 H   0  0  0  0  0  0  0  0  0  0  0  0
    3.0689   -0.1282   -2.6620 H   0  0  0  0  0  0  0  0  0  0  0  0
    3.4577   -1.3715   -1.4586 H   0  0  0  0  0  0  0  0  0  0  0  0
    4.4299    0.1073   -1.5773 H   0  0  0  0  0  0  0  0  0  0  0  0
    1.9644    2.2176   -0.3287 H   0  0  0  0  0  0  0  0  0  0  0  0
    2.8219   -1.0001    0.9712 H   0  0  0  0  0  0  0  0  0  0  0  0
    2.2292    0.5882    1.4744 H   0  0  0  0  0  0  0  0  0  0  0  0
    4.5097    0.4726    2.2126 H   0  0  0  0  0  0  0  0  0  0  0  0
    5.0796   -0.1098    0.6498 H   0  0  0  0  0  0  0  0  0  0  0  0
    4.4890    1.5479    0.8099 H   0  0  0  0  0  0  0  0  0  0  0  0
  1  2  1  0  0  0  0
  2  3  1  0  0  0  0
  3  4  1  0  0  0  0
  4  5  1  0  0  0  0
  5  6  1  0  0  0  0
  6  7  1  0  0  0  0
  4  8  4  0  0  0  0
  8  9  2  0  0  0  0
  8 10  1  0  0  0  0
 10 11  1  0  0  0  0
 11 12  1  0  0  0  0
 11 13  1  0  0  0  0
 11 14  1  0  0  0  0
 14 15  1  0  0  0  0
  1 16  1  0  0  0  0
  1 17  1  0  0  0  0
  1 18  1  0  0  0  0
  2 19  1  0  0  0  0
  2 20  1  0  0  0  0
  3 21  1  0  0  0  0
  3 22  1  0  0  0  0
  5 23  1  0  0  0  0
  5 24  1  0  0  0  0
  6 25  1  0  0  0  0
  6 26  1  0  0  0  0
  7 27  1  0  0  0  0
  7 28  1  0  0  0  0
  7 29  1  0  0  0  0
 10 30  1  0  0  0  0
 10 31  1  0  0  0  0
 12 32  1  0  0  0  0
 12 33  1  0  0  0  0
 12 34  1  0  0  0  0
 13 35  1  0  0  0  0
 14 36  1  0  0  0  0
 14 37  1  0  0  0  0
 15 38  1  0  0  0  0
 15 39  1  0  0  0  0
 15 40  1  0  0  0  0
M  END
