 xtb: 6.7.1 (edcfbbe)
          07092620143D

 35 34  0     0  0            999 V2000
    6.0223    0.2915    0.5273 C   0  0  0  0  0  0  0  0  0  0  0  0
    4.5973    0.7958    0.7187 C   0  0  0  0  0  0  0  0  0  0  0  0
    3.5687   -0.1693    0.1344 C   0  0  0  0  0  0  0  0  0  0  0  0
    2.1383    0.3287    0.3255 C   0  0  0  0  0  0  0  0  0  0  0  0
    1.1104   -0.6375   -0.2583 C   0  0  0  0  0  0  0  0  0  0  0  0
   -0.3199   -0.1370   -0.0703 C   0  0  0  0  0  0  0  0  0  0  0  0
   -1.3427   -1.1198   -0.6363 C   0  0  0  0  0  0  0  0  0  0  0  0
   -2.7778   -0.5941   -0.5903 C   0  0  0  0  0  0  0  0  0  0  0  0
   -3.2930   -0.3999    0.8352 C   0  0  0  0  0  0  0  0  0  0  0  0
   -4.8016   -0.1586    0.9036 C   0  0  0  0  0  0  0  0  0  0  0  0
   -5.2450    1.1428    0.2551 C   0  0  0  0  0  0  0  0  0  0  0  0
   -4.5182    2.5534    1.0746 Cl  0  0  0  0  0  0  0  0  0  0  0  0
    6.2449    0.1694   -0.5306 H   0  0  0  0  0  0  0  0  0  0  0  0
    6.7378    0.9934    0.9496 H   0  0  0  0  0  0  0  0  0  0  0  0
    6.1554   -0.6707    1.0172 H   0  0  0  0  0  0  0  0  0  0  0  0
    4.4001    0.9301    1.7849 H   0  0  0  0  0  0  0  0  0  0  0  0
    4.4898    1.7710    0.2381 H   0  0  0  0  0  0  0  0  0  0  0  0
    3.6781   -1.1454    0.6134 H   0  0  0  0  0  0  0  0  0  0  0  0
    3.7651   -0.3023   -0.9323 H   0  0  0  0  0  0  0  0  0  0  0  0
    1.9424    0.4623    1.3922 H   0  0  0  0  0  0  0  0  0  0  0  0
    2.0287    1.3046   -0.1535 H   0  0  0  0  0  0  0  0  0  0  0  0
    1.2173   -1.6124    0.2237 H   0  0  0  0  0  0  0  0  0  0  0  0
    1.3090   -0.7743   -1.3242 H   0  0  0  0  0  0  0  0  0  0  0  0
   -0.4328    0.8285   -0.5689 H   0  0  0  0  0  0  0  0  0  0  0  0
   -0.5046    0.0152    0.9943 H   0  0  0  0  0  0  0  0  0  0  0  0
   -1.2840   -2.0605   -0.0834 H   0  0  0  0  0  0  0  0  0  0  0  0
   -1.0842   -1.3341   -1.6766 H   0  0  0  0  0  0  0  0  0  0  0  0
   -2.8210    0.3520   -1.1326 H   0  0  0  0  0  0  0  0  0  0  0  0
   -3.4263   -1.3068   -1.1072 H   0  0  0  0  0  0  0  0  0  0  0  0
   -2.7821    0.4428    1.3010 H   0  0  0  0  0  0  0  0  0  0  0  0
   -3.0646   -1.2949    1.4181 H   0  0  0  0  0  0  0  0  0  0  0  0
   -5.3271   -0.9735    0.3983 H   0  0  0  0  0  0  0  0  0  0  0  0
   -5.1139   -0.1547    1.9500 H   0  0  0  0  0  0  0  0  0  0  0  0
   -6.3254    1.2673    0.3287 H   0  0  0  0  0  0  0  0  0  0  0  0
   -4.9412    1.1971   -0.7890 H   0  0  0  0  0  0  0  0  0  0  0  0
  1  2  1  0  0  0  0
  2  3  1  0  0  0  0
  3  4  1  0  0  0  0
  4  5  1  0  0  0  0
  5  6  1  0  0  0  0
  6  7  1  0  0  0  0
  7  8  1  0  0  0  0
  8  9  1  0  0  0  0
  9 10  1  0  0  0  0
 10 11  1  0  0  0  0
 11 12  1  0  0  0  0
  1 13  1  0  0  0  0
  1 14  1  0  0  0  0
  1 15  1  0  0  0  0
  2 16  1  0  0  0  0
  2 17  1  0  0  0  0
  3 18  1  0  0  0  0
  3 19  1  0  0  0  0
  4 20  1  0  0  0  0
  4 21  1  0  0  0  0
  5 22  1  0  0  0  0
  5 23  1  0  0  0  0
  6 24  1  0  0  0  0
  6 25  1  0  0  0  0
  7 26  1  0  0  0  0
  7 27  1  0  0  0  0
  8 28  1  0  0  0  0
  8 29  1  0  0  0  0
  9 30  1  0  0  0  0
  9 31  1  0  0  0  0
 10 32  1  0  0  0  0
 10 33  1  0  0  0  0
 11 34  1  0  0  0  0
 11 35  1  0  0  0  0
M  END
