 xtb: 6.7.1 (edcfbbe)
          07092601423D

 26 25  0     0  0            999 V2000
   -4.3975   -0.0937   -0.7283 C   0  0  0  0  0  0  0  0  0  0  0  0
   -3.2010    0.7949   -0.4120 C   0  0  0  0  0  0  0  0  0  0  0  0
   -2.0015   -0.0263    0.0525 C   0  0  0  0  0  0  0  0  0  0  0  0
   -0.8065    0.8653    0.3778 C   0  0  0  0  0  0  0  0  0  0  0  0
    0.2896    0.1057    0.8866 O   0  0  0  0  0  0  0  0  0  0  0  0
    1.1240   -0.4423   -0.0036 C   0  0  0  0  0  0  0  0  0  0  0  0
    1.0175   -0.3132   -1.1946 O   0  0  0  0  0  0  0  0  0  0  0  0
    2.2104   -1.2331    0.6906 C   0  0  0  0  0  0  0  0  0  0  0  0
    3.5920   -0.8387    0.1641 C   0  0  0  0  0  0  0  0  0  0  0  0
    3.9540    0.5877    0.5581 C   0  0  0  0  0  0  0  0  0  0  0  0
   -4.7002   -0.6549    0.1529 H   0  0  0  0  0  0  0  0  0  0  0  0
   -5.2414    0.5066   -1.0597 H   0  0  0  0  0  0  0  0  0  0  0  0
   -4.1485   -0.8009   -1.5160 H   0  0  0  0  0  0  0  0  0  0  0  0
   -3.4740    1.5096    0.3678 H   0  0  0  0  0  0  0  0  0  0  0  0
   -2.9241    1.3634   -1.3021 H   0  0  0  0  0  0  0  0  0  0  0  0
   -1.7106   -0.7288   -0.7312 H   0  0  0  0  0  0  0  0  0  0  0  0
   -2.2665   -0.6009    0.9430 H   0  0  0  0  0  0  0  0  0  0  0  0
   -1.0547    1.5791    1.1666 H   0  0  0  0  0  0  0  0  0  0  0  0
   -0.4815    1.4013   -0.5203 H   0  0  0  0  0  0  0  0  0  0  0  0
    2.0276   -2.2897    0.4820 H   0  0  0  0  0  0  0  0  0  0  0  0
    2.1362   -1.0671    1.7652 H   0  0  0  0  0  0  0  0  0  0  0  0
    4.3366   -1.5305    0.5625 H   0  0  0  0  0  0  0  0  0  0  0  0
    3.5879   -0.9282   -0.9234 H   0  0  0  0  0  0  0  0  0  0  0  0
    4.9444    0.8444    0.1902 H   0  0  0  0  0  0  0  0  0  0  0  0
    3.9486    0.6999    1.6405 H   0  0  0  0  0  0  0  0  0  0  0  0
    3.2393    1.2905    0.1359 H   0  0  0  0  0  0  0  0  0  0  0  0
  1  2  1  0  0  0  0
  2  3  1  0  0  0  0
  3  4  1  0  0  0  0
  4  5  1  0  0  0  0
  5  6  1  0  0  0  0
  6  7  2  0  0  0  0
  6  8  1  0  0  0  0
  8  9  1  0  0  0  0
  9 10  1  0  0  0  0
  1 11  1  0  0  0  0
  1 12  1  0  0  0  0
  1 13  1  0  0  0  0
  2 14  1  0  0  0  0
  2 15  1  0  0  0  0
  3 16  1  0  0  0  0
  3 17  1  0  0  0  0
  4 18  1  0  0  0  0
  4 19  1  0  0  0  0
  8 20  1  0  0  0  0
  8 21  1  0  0  0  0
  9 22  1  0  0  0  0
  9 23  1  0  0  0  0
 10 24  1  0  0  0  0
 10 25  1  0  0  0  0
 10 26  1  0  0  0  0
M  END
