 xtb: 6.7.1 (edcfbbe)
          07082620273D

 21 20  0     0  0            999 V2000
   -1.5953   -1.4360   -0.7496 C   0  0  0  0  0  0  0  0  0  0  0  0
   -0.7614   -0.8449    0.3887 C   0  0  0  0  0  0  0  0  0  0  0  0
    0.1732    0.1548   -0.0772 N   0  0  0  0  0  0  0  0  0  0  0  0
    1.4694   -0.3217   -0.5283 C   0  0  0  0  0  0  0  0  0  0  0  0
    2.4628   -0.4360    0.6247 C   0  0  0  0  0  0  0  0  0  0  0  0
   -0.0795    1.4852   -0.1512 C   0  0  0  0  0  0  0  0  0  0  0  0
   -1.4348    1.9559    0.3374 C   0  0  0  0  0  0  0  0  0  0  0  0
    0.7471    2.2679   -0.5806 O   0  0  0  0  0  0  0  0  0  0  0  0
   -2.2759   -2.1883   -0.3594 H   0  0  0  0  0  0  0  0  0  0  0  0
   -2.1768   -0.6622   -1.2440 H   0  0  0  0  0  0  0  0  0  0  0  0
   -0.9524   -1.9022   -1.4921 H   0  0  0  0  0  0  0  0  0  0  0  0
   -0.1879   -1.6441    0.8670 H   0  0  0  0  0  0  0  0  0  0  0  0
   -1.4205   -0.4147    1.1440 H   0  0  0  0  0  0  0  0  0  0  0  0
    1.8446    0.3993   -1.2579 H   0  0  0  0  0  0  0  0  0  0  0  0
    1.3377   -1.2899   -1.0177 H   0  0  0  0  0  0  0  0  0  0  0  0
    3.4196   -0.7951    0.2555 H   0  0  0  0  0  0  0  0  0  0  0  0
    2.6080    0.5403    1.0794 H   0  0  0  0  0  0  0  0  0  0  0  0
    2.1025   -1.1261    1.3854 H   0  0  0  0  0  0  0  0  0  0  0  0
   -1.5078    3.0216    0.1383 H   0  0  0  0  0  0  0  0  0  0  0  0
   -2.2445    1.4411   -0.1720 H   0  0  0  0  0  0  0  0  0  0  0  0
   -1.5280    1.7951    1.4097 H   0  0  0  0  0  0  0  0  0  0  0  0
  1  2  1  0  0  0  0
  2  3  1  0  0  0  0
  3  4  1  0  0  0  0
  4  5  1  0  0  0  0
  3  6  4  0  0  0  0
  6  7  1  0  0  0  0
  6  8  2  0  0  0  0
  1  9  1  0  0  0  0
  1 10  1  0  0  0  0
  1 11  1  0  0  0  0
  2 12  1  0  0  0  0
  2 13  1  0  0  0  0
  4 14  1  0  0  0  0
  4 15  1  0  0  0  0
  5 16  1  0  0  0  0
  5 17  1  0  0  0  0
  5 18  1  0  0  0  0
  7 19  1  0  0  0  0
  7 20  1  0  0  0  0
  7 21  1  0  0  0  0
M  END
