 xtb: 6.7.1 (edcfbbe)
          07092612413D

 27 27  0     0  0            999 V2000
    2.8384    1.1739    0.1898 C   0  0  0  0  0  0  0  0  0  0  0  0
    2.3550   -0.0563    0.2616 C   0  0  0  0  0  0  0  0  0  0  0  0
    2.9912   -1.2094   -0.4519 C   0  0  0  0  0  0  0  0  0  0  0  0
    1.1298   -0.3793    1.0769 C   0  0  0  0  0  0  0  0  0  0  0  0
   -0.1429    0.2479    0.4925 C   0  0  0  0  0  0  0  0  0  0  0  0
   -0.4617   -0.2902   -0.9089 C   0  0  0  0  0  0  0  0  0  0  0  0
   -1.7374    0.3343   -1.4625 C   0  0  0  0  0  0  0  0  0  0  0  0
   -2.9127    0.0512   -0.5349 C   0  0  0  0  0  0  0  0  0  0  0  0
   -2.6258    0.5886    0.8693 C   0  0  0  0  0  0  0  0  0  0  0  0
   -1.3352    0.0040    1.3978 C   0  0  0  0  0  0  0  0  0  0  0  0
   -1.2696   -0.6060    2.4349 O   0  0  0  0  0  0  0  0  0  0  0  0
    3.7086    1.4120   -0.3979 H   0  0  0  0  0  0  0  0  0  0  0  0
    2.3889    1.9946    0.7235 H   0  0  0  0  0  0  0  0  0  0  0  0
    2.2647   -1.7170   -1.0852 H   0  0  0  0  0  0  0  0  0  0  0  0
    3.8257   -0.8806   -1.0660 H   0  0  0  0  0  0  0  0  0  0  0  0
    3.3581   -1.9348    0.2743 H   0  0  0  0  0  0  0  0  0  0  0  0
    0.9914   -1.4595    1.1397 H   0  0  0  0  0  0  0  0  0  0  0  0
    1.2519   -0.0047    2.0958 H   0  0  0  0  0  0  0  0  0  0  0  0
   -0.0044    1.3325    0.4175 H   0  0  0  0  0  0  0  0  0  0  0  0
    0.3783   -0.0712   -1.5707 H   0  0  0  0  0  0  0  0  0  0  0  0
   -0.5798   -1.3754   -0.8561 H   0  0  0  0  0  0  0  0  0  0  0  0
   -1.6017    1.4137   -1.5644 H   0  0  0  0  0  0  0  0  0  0  0  0
   -1.9439   -0.0715   -2.4550 H   0  0  0  0  0  0  0  0  0  0  0  0
   -3.8229    0.5129   -0.9228 H   0  0  0  0  0  0  0  0  0  0  0  0
   -3.0820   -1.0264   -0.4782 H   0  0  0  0  0  0  0  0  0  0  0  0
   -2.5226    1.6755    0.8279 H   0  0  0  0  0  0  0  0  0  0  0  0
   -3.4394    0.3413    1.5530 H   0  0  0  0  0  0  0  0  0  0  0  0
  1  2  2  0  0  0  0
  2  3  1  0  0  0  0
  2  4  1  0  0  0  0
  4  5  1  0  0  0  0
  5  6  1  0  0  0  0
  6  7  1  0  0  0  0
  7  8  1  0  0  0  0
  8  9  1  0  0  0  0
  5 10  1  0  0  0  0
  9 10  1  0  0  0  0
 10 11  2  0  0  0  0
  1 12  1  0  0  0  0
  1 13  1  0  0  0  0
  3 14  1  0  0  0  0
  3 15  1  0  0  0  0
  3 16  1  0  0  0  0
  4 17  1  0  0  0  0
  4 18  1  0  0  0  0
  5 19  1  0  0  0  0
  6 20  1  0  0  0  0
  6 21  1  0  0  0  0
  7 22  1  0  0  0  0
  7 23  1  0  0  0  0
  8 24  1  0  0  0  0
  8 25  1  0  0  0  0
  9 26  1  0  0  0  0
  9 27  1  0  0  0  0
M  END
