 xtb: 6.7.1 (edcfbbe)
          07082607463D

 37 37  0     0  0            999 V2000
   -4.2670   -0.3005    1.8174 C   0  0  0  0  0  0  0  0  0  0  0  0
   -4.0289    0.4644    0.5137 C   0  0  0  0  0  0  0  0  0  0  0  0
   -4.9706   -0.0313   -0.5857 C   0  0  0  0  0  0  0  0  0  0  0  0
   -2.5891    0.3489    0.0778 C   0  0  0  0  0  0  0  0  0  0  0  0
   -2.0236   -0.8836   -0.2300 C   0  0  0  0  0  0  0  0  0  0  0  0
   -0.7053   -0.9803   -0.6305 C   0  0  0  0  0  0  0  0  0  0  0  0
    0.0912    0.1533   -0.7435 C   0  0  0  0  0  0  0  0  0  0  0  0
    1.5398    0.0386   -1.1171 C   0  0  0  0  0  0  0  0  0  0  0  0
    2.3853   -0.2524    0.1411 C   0  0  0  0  0  0  0  0  0  0  0  0
    2.3604    0.8411    1.0319 O   0  0  0  0  0  0  0  0  0  0  0  0
    3.8524   -0.5766   -0.1934 C   0  0  0  0  0  0  0  0  0  0  0  0
    4.5669    0.6216   -0.8128 C   0  0  0  0  0  0  0  0  0  0  0  0
    4.5754   -1.0214    1.0765 C   0  0  0  0  0  0  0  0  0  0  0  0
   -0.4710    1.3855   -0.4351 C   0  0  0  0  0  0  0  0  0  0  0  0
   -1.7917    1.4794   -0.0316 C   0  0  0  0  0  0  0  0  0  0  0  0
   -4.0924   -1.3646    1.6791 H   0  0  0  0  0  0  0  0  0  0  0  0
   -3.5971    0.0587    2.5958 H   0  0  0  0  0  0  0  0  0  0  0  0
   -5.2927   -0.1621    2.1525 H   0  0  0  0  0  0  0  0  0  0  0  0
   -4.2453    1.5232    0.6955 H   0  0  0  0  0  0  0  0  0  0  0  0
   -4.7924    0.5128   -1.5108 H   0  0  0  0  0  0  0  0  0  0  0  0
   -6.0067    0.1184   -0.2896 H   0  0  0  0  0  0  0  0  0  0  0  0
   -4.8186   -1.0907   -0.7766 H   0  0  0  0  0  0  0  0  0  0  0  0
   -2.6180   -1.7824   -0.1577 H   0  0  0  0  0  0  0  0  0  0  0  0
   -0.2858   -1.9486   -0.8652 H   0  0  0  0  0  0  0  0  0  0  0  0
    1.6847   -0.7735   -1.8308 H   0  0  0  0  0  0  0  0  0  0  0  0
    1.8849    0.9714   -1.5638 H   0  0  0  0  0  0  0  0  0  0  0  0
    1.9485   -1.1371    0.6397 H   0  0  0  0  0  0  0  0  0  0  0  0
    1.4399    1.0942    1.1676 H   0  0  0  0  0  0  0  0  0  0  0  0
    3.8510   -1.4066   -0.9093 H   0  0  0  0  0  0  0  0  0  0  0  0
    4.1573    0.8638   -1.7901 H   0  0  0  0  0  0  0  0  0  0  0  0
    5.6251    0.4025   -0.9331 H   0  0  0  0  0  0  0  0  0  0  0  0
    4.4599    1.4839   -0.1606 H   0  0  0  0  0  0  0  0  0  0  0  0
    4.5465   -0.2204    1.8098 H   0  0  0  0  0  0  0  0  0  0  0  0
    5.6128   -1.2635    0.8585 H   0  0  0  0  0  0  0  0  0  0  0  0
    4.0971   -1.9002    1.5037 H   0  0  0  0  0  0  0  0  0  0  0  0
    0.1248    2.2839   -0.5239 H   0  0  0  0  0  0  0  0  0  0  0  0
   -2.2078    2.4502    0.1997 H   0  0  0  0  0  0  0  0  0  0  0  0
  1  2  1  0  0  0  0
  2  3  1  0  0  0  0
  2  4  1  0  0  0  0
  4  5  4  0  0  0  0
  5  6  4  0  0  0  0
  6  7  4  0  0  0  0
  7  8  1  0  0  0  0
  8  9  1  0  0  0  0
  9 10  1  0  0  0  0
  9 11  1  0  0  0  0
 11 12  1  0  0  0  0
 11 13  1  0  0  0  0
  7 14  4  0  0  0  0
  4 15  4  0  0  0  0
 14 15  4  0  0  0  0
  1 16  1  0  0  0  0
  1 17  1  0  0  0  0
  1 18  1  0  0  0  0
  2 19  1  0  0  0  0
  3 20  1  0  0  0  0
  3 21  1  0  0  0  0
  3 22  1  0  0  0  0
  5 23  1  0  0  0  0
  6 24  1  0  0  0  0
  8 25  1  0  0  0  0
  8 26  1  0  0  0  0
  9 27  1  0  0  0  0
 10 28  1  0  0  0  0
 11 29  1  0  0  0  0
 12 30  1  0  0  0  0
 12 31  1  0  0  0  0
 12 32  1  0  0  0  0
 13 33  1  0  0  0  0
 13 34  1  0  0  0  0
 13 35  1  0  0  0  0
 14 36  1  0  0  0  0
 15 37  1  0  0  0  0
M  END
