 xtb: 6.7.1 (edcfbbe)
          07082617103D

 21 21  0     0  0            999 V2000
    3.6322    0.5306    0.8549 C   0  0  0  0  0  0  0  0  0  0  0  0
    2.7966   -0.4387    0.0603 C   0  0  0  0  0  0  0  0  0  0  0  0
    3.2115   -1.4090   -0.5157 O   0  0  0  0  0  0  0  0  0  0  0  0
    1.5097   -0.0804    0.0741 O   0  0  0  0  0  0  0  0  0  0  0  0
    0.6079   -0.9281   -0.6509 C   0  0  0  0  0  0  0  0  0  0  0  0
   -0.7769   -0.3641   -0.5166 C   0  0  0  0  0  0  0  0  0  0  0  0
   -1.2461    0.5706   -1.4303 C   0  0  0  0  0  0  0  0  0  0  0  0
   -2.5143    1.1070   -1.2940 C   0  0  0  0  0  0  0  0  0  0  0  0
   -3.3239    0.7161   -0.2411 C   0  0  0  0  0  0  0  0  0  0  0  0
   -2.8600   -0.2107    0.6768 C   0  0  0  0  0  0  0  0  0  0  0  0
   -1.5918   -0.7472    0.5406 C   0  0  0  0  0  0  0  0  0  0  0  0
    3.5289    1.5270    0.4328 H   0  0  0  0  0  0  0  0  0  0  0  0
    4.6721    0.2204    0.8299 H   0  0  0  0  0  0  0  0  0  0  0  0
    3.2749    0.5586    1.8812 H   0  0  0  0  0  0  0  0  0  0  0  0
    0.9278   -0.9642   -1.6984 H   0  0  0  0  0  0  0  0  0  0  0  0
    0.6716   -1.9410   -0.2374 H   0  0  0  0  0  0  0  0  0  0  0  0
   -0.6152    0.8767   -2.2520 H   0  0  0  0  0  0  0  0  0  0  0  0
   -2.8719    1.8308   -2.0115 H   0  0  0  0  0  0  0  0  0  0  0  0
   -4.3147    1.1328   -0.1363 H   0  0  0  0  0  0  0  0  0  0  0  0
   -3.4879   -0.5173    1.5004 H   0  0  0  0  0  0  0  0  0  0  0  0
   -1.2308   -1.4700    1.2577 H   0  0  0  0  0  0  0  0  0  0  0  0
  1  2  1  0  0  0  0
  2  3  2  0  0  0  0
  2  4  1  0  0  0  0
  4  5  1  0  0  0  0
  5  6  1  0  0  0  0
  6  7  4  0  0  0  0
  7  8  4  0  0  0  0
  8  9  4  0  0  0  0
  9 10  4  0  0  0  0
  6 11  4  0  0  0  0
 10 11  4  0  0  0  0
  1 12  1  0  0  0  0
  1 13  1  0  0  0  0
  1 14  1  0  0  0  0
  5 15  1  0  0  0  0
  5 16  1  0  0  0  0
  7 17  1  0  0  0  0
  8 18  1  0  0  0  0
  9 19  1  0  0  0  0
 10 20  1  0  0  0  0
 11 21  1  0  0  0  0
M  END
