 xtb: 6.7.1 (edcfbbe)
          07072603283D

 42 41  0     0  0            999 V2000
    3.0690    0.4329    1.8076 C   0  0  0  0  0  0  0  0  0  0  0  0
    4.3701    0.0082    1.1374 C   0  0  0  0  0  0  0  0  0  0  0  0
    4.1533   -1.1106    0.1207 C   0  0  0  0  0  0  0  0  0  0  0  0
    3.3785   -0.6412   -0.9824 O   0  0  0  0  0  0  0  0  0  0  0  0
    2.1138   -1.0368   -1.0769 C   0  0  0  0  0  0  0  0  0  0  0  0
    1.5881   -1.8449   -0.3532 O   0  0  0  0  0  0  0  0  0  0  0  0
    1.4170   -0.3583   -2.2401 C   0  0  0  0  0  0  0  0  0  0  0  0
   -0.0734   -0.2633   -1.9252 C   0  0  0  0  0  0  0  0  0  0  0  0
   -0.2532    0.5882   -0.6710 C   0  0  0  0  0  0  0  0  0  0  0  0
    0.6135    1.3718   -0.3218 O   0  0  0  0  0  0  0  0  0  0  0  0
   -1.4145    0.4587    0.0080 N   0  0  0  0  0  0  0  0  0  0  0  0
   -2.4189   -0.5439   -0.2709 C   0  0  0  0  0  0  0  0  0  0  0  0
   -2.1024   -1.8853    0.4046 C   0  0  0  0  0  0  0  0  0  0  0  0
   -3.0985   -2.9600   -0.0100 C   0  0  0  0  0  0  0  0  0  0  0  0
   -1.6027    1.2476    1.2126 C   0  0  0  0  0  0  0  0  0  0  0  0
   -2.6118    2.3832    1.0216 C   0  0  0  0  0  0  0  0  0  0  0  0
   -2.1707    3.3587   -0.0617 C   0  0  0  0  0  0  0  0  0  0  0  0
    2.6002   -0.4166    2.3002 H   0  0  0  0  0  0  0  0  0  0  0  0
    2.3718    0.8339    1.0751 H   0  0  0  0  0  0  0  0  0  0  0  0
    3.2632    1.2024    2.5509 H   0  0  0  0  0  0  0  0  0  0  0  0
    4.8159    0.8629    0.6256 H   0  0  0  0  0  0  0  0  0  0  0  0
    5.0792   -0.3529    1.8854 H   0  0  0  0  0  0  0  0  0  0  0  0
    5.1080   -1.4450   -0.2958 H   0  0  0  0  0  0  0  0  0  0  0  0
    3.6336   -1.9565    0.5826 H   0  0  0  0  0  0  0  0  0  0  0  0
    1.5846   -0.9503   -3.1419 H   0  0  0  0  0  0  0  0  0  0  0  0
    1.8559    0.6292   -2.3755 H   0  0  0  0  0  0  0  0  0  0  0  0
   -0.4591   -1.2682   -1.7715 H   0  0  0  0  0  0  0  0  0  0  0  0
   -0.6098    0.2077   -2.7521 H   0  0  0  0  0  0  0  0  0  0  0  0
   -3.3773   -0.1708    0.0997 H   0  0  0  0  0  0  0  0  0  0  0  0
   -2.5199   -0.6805   -1.3496 H   0  0  0  0  0  0  0  0  0  0  0  0
   -1.0877   -2.1940    0.1476 H   0  0  0  0  0  0  0  0  0  0  0  0
   -2.1358   -1.7560    1.4880 H   0  0  0  0  0  0  0  0  0  0  0  0
   -2.8690   -3.9001    0.4845 H   0  0  0  0  0  0  0  0  0  0  0  0
   -3.0637   -3.1221   -1.0852 H   0  0  0  0  0  0  0  0  0  0  0  0
   -4.1120   -2.6687    0.2589 H   0  0  0  0  0  0  0  0  0  0  0  0
   -1.9294    0.5888    2.0224 H   0  0  0  0  0  0  0  0  0  0  0  0
   -0.6290    1.6694    1.4706 H   0  0  0  0  0  0  0  0  0  0  0  0
   -3.5929    1.9742    0.7675 H   0  0  0  0  0  0  0  0  0  0  0  0
   -2.7092    2.9086    1.9735 H   0  0  0  0  0  0  0  0  0  0  0  0
   -2.1291    2.8617   -1.0281 H   0  0  0  0  0  0  0  0  0  0  0  0
   -1.1799    3.7459    0.1605 H   0  0  0  0  0  0  0  0  0  0  0  0
   -2.8659    4.1920   -0.1322 H   0  0  0  0  0  0  0  0  0  0  0  0
  1  2  1  0  0  0  0
  2  3  1  0  0  0  0
  3  4  1  0  0  0  0
  4  5  1  0  0  0  0
  5  6  2  0  0  0  0
  5  7  1  0  0  0  0
  7  8  1  0  0  0  0
  8  9  1  0  0  0  0
  9 10  2  0  0  0  0
  9 11  4  0  0  0  0
 11 12  1  0  0  0  0
 12 13  1  0  0  0  0
 13 14  1  0  0  0  0
 11 15  1  0  0  0  0
 15 16  1  0  0  0  0
 16 17  1  0  0  0  0
  1 18  1  0  0  0  0
  1 19  1  0  0  0  0
  1 20  1  0  0  0  0
  2 21  1  0  0  0  0
  2 22  1  0  0  0  0
  3 23  1  0  0  0  0
  3 24  1  0  0  0  0
  7 25  1  0  0  0  0
  7 26  1  0  0  0  0
  8 27  1  0  0  0  0
  8 28  1  0  0  0  0
 12 29  1  0  0  0  0
 12 30  1  0  0  0  0
 13 31  1  0  0  0  0
 13 32  1  0  0  0  0
 14 33  1  0  0  0  0
 14 34  1  0  0  0  0
 14 35  1  0  0  0  0
 15 36  1  0  0  0  0
 15 37  1  0  0  0  0
 16 38  1  0  0  0  0
 16 39  1  0  0  0  0
 17 40  1  0  0  0  0
 17 41  1  0  0  0  0
 17 42  1  0  0  0  0
M  END
