 xtb: 6.7.1 (edcfbbe)
          07072621303D

 30 30  0     0  0            999 V2000
   -5.0511    1.4081    0.4997 C   0  0  0  0  0  0  0  0  0  0  0  0
   -4.2265    0.5200   -0.0294 C   0  0  0  0  0  0  0  0  0  0  0  0
   -4.3331    0.0316   -1.4391 C   0  0  0  0  0  0  0  0  0  0  0  0
   -3.0976   -0.0848    0.7627 C   0  0  0  0  0  0  0  0  0  0  0  0
   -1.8763    0.1577    0.0901 O   0  0  0  0  0  0  0  0  0  0  0  0
   -0.7683   -0.3883    0.7553 C   0  0  0  0  0  0  0  0  0  0  0  0
    0.4849   -0.0334   -0.0390 C   0  0  0  0  0  0  0  0  0  0  0  0
    1.5866   -0.5912    0.6382 O   0  0  0  0  0  0  0  0  0  0  0  0
    2.8367   -0.3964    0.1265 C   0  0  0  0  0  0  0  0  0  0  0  0
    3.8810   -0.9781    0.8469 C   0  0  0  0  0  0  0  0  0  0  0  0
    5.1845   -0.8419    0.4180 C   0  0  0  0  0  0  0  0  0  0  0  0
    5.4706   -0.1250   -0.7339 C   0  0  0  0  0  0  0  0  0  0  0  0
    4.4379    0.4513   -1.4486 C   0  0  0  0  0  0  0  0  0  0  0  0
    3.1235    0.3213   -1.0286 C   0  0  0  0  0  0  0  0  0  0  0  0
   -5.8648    1.8288   -0.0659 H   0  0  0  0  0  0  0  0  0  0  0  0
   -4.9516    1.7471    1.5167 H   0  0  0  0  0  0  0  0  0  0  0  0
   -4.5622   -1.0336   -1.4502 H   0  0  0  0  0  0  0  0  0  0  0  0
   -3.3774    0.1721   -1.9397 H   0  0  0  0  0  0  0  0  0  0  0  0
   -5.1083    0.5653   -1.9810 H   0  0  0  0  0  0  0  0  0  0  0  0
   -3.0617    0.3441    1.7752 H   0  0  0  0  0  0  0  0  0  0  0  0
   -3.2538   -1.1733    0.8601 H   0  0  0  0  0  0  0  0  0  0  0  0
   -0.6829    0.0180    1.7747 H   0  0  0  0  0  0  0  0  0  0  0  0
   -0.8576   -1.4831    0.8330 H   0  0  0  0  0  0  0  0  0  0  0  0
    0.3973   -0.4418   -1.0544 H   0  0  0  0  0  0  0  0  0  0  0  0
    0.5707    1.0590   -0.1044 H   0  0  0  0  0  0  0  0  0  0  0  0
    3.6393   -1.5317    1.7406 H   0  0  0  0  0  0  0  0  0  0  0  0
    5.9831   -1.2970    0.9848 H   0  0  0  0  0  0  0  0  0  0  0  0
    6.4909   -0.0180   -1.0693 H   0  0  0  0  0  0  0  0  0  0  0  0
    4.6490    1.0120   -2.3474 H   0  0  0  0  0  0  0  0  0  0  0  0
    2.3373    0.7813   -1.6062 H   0  0  0  0  0  0  0  0  0  0  0  0
  1  2  2  0  0  0  0
  2  3  1  0  0  0  0
  2  4  1  0  0  0  0
  4  5  1  0  0  0  0
  5  6  1  0  0  0  0
  6  7  1  0  0  0  0
  7  8  1  0  0  0  0
  8  9  1  0  0  0  0
  9 10  4  0  0  0  0
 10 11  4  0  0  0  0
 11 12  4  0  0  0  0
 12 13  4  0  0  0  0
  9 14  4  0  0  0  0
 13 14  4  0  0  0  0
  1 15  1  0  0  0  0
  1 16  1  0  0  0  0
  3 17  1  0  0  0  0
  3 18  1  0  0  0  0
  3 19  1  0  0  0  0
  4 20  1  0  0  0  0
  4 21  1  0  0  0  0
  6 22  1  0  0  0  0
  6 23  1  0  0  0  0
  7 24  1  0  0  0  0
  7 25  1  0  0  0  0
 10 26  1  0  0  0  0
 11 27  1  0  0  0  0
 12 28  1  0  0  0  0
 13 29  1  0  0  0  0
 14 30  1  0  0  0  0
M  END
