 xtb: 6.7.1 (edcfbbe)
          07082616003D

 30 29  0     0  0            999 V2000
    5.7556   -0.1925   -0.3356 C   0  0  0  0  0  0  0  0  0  0  0  0
    4.7279   -0.5565    0.4073 C   0  0  0  0  0  0  0  0  0  0  0  0
    3.4977    0.2660    0.6172 C   0  0  0  0  0  0  0  0  0  0  0  0
    2.2521   -0.4535    0.0903 C   0  0  0  0  0  0  0  0  0  0  0  0
    0.9853    0.3696    0.3071 C   0  0  0  0  0  0  0  0  0  0  0  0
   -0.2588   -0.3408   -0.2208 C   0  0  0  0  0  0  0  0  0  0  0  0
   -1.5243    0.4856   -0.0052 C   0  0  0  0  0  0  0  0  0  0  0  0
   -2.7706   -0.2212   -0.5321 C   0  0  0  0  0  0  0  0  0  0  0  0
   -4.0355    0.6058   -0.3158 C   0  0  0  0  0  0  0  0  0  0  0  0
   -5.2759   -0.1047   -0.8433 C   0  0  0  0  0  0  0  0  0  0  0  0
    5.7773    0.7579   -0.8440 H   0  0  0  0  0  0  0  0  0  0  0  0
    6.6203   -0.8208   -0.4663 H   0  0  0  0  0  0  0  0  0  0  0  0
    4.7294   -1.5183    0.9049 H   0  0  0  0  0  0  0  0  0  0  0  0
    3.6046    1.2288    0.1137 H   0  0  0  0  0  0  0  0  0  0  0  0
    3.3692    0.4546    1.6873 H   0  0  0  0  0  0  0  0  0  0  0  0
    2.1501   -1.4167    0.5958 H   0  0  0  0  0  0  0  0  0  0  0  0
    2.3799   -0.6517   -0.9765 H   0  0  0  0  0  0  0  0  0  0  0  0
    1.0905    1.3334   -0.1969 H   0  0  0  0  0  0  0  0  0  0  0  0
    0.8614    0.5681    1.3746 H   0  0  0  0  0  0  0  0  0  0  0  0
   -0.3663   -1.3042    0.2835 H   0  0  0  0  0  0  0  0  0  0  0  0
   -0.1349   -0.5402   -1.2880 H   0  0  0  0  0  0  0  0  0  0  0  0
   -1.4159    1.4490   -0.5095 H   0  0  0  0  0  0  0  0  0  0  0  0
   -1.6471    0.6854    1.0621 H   0  0  0  0  0  0  0  0  0  0  0  0
   -2.6486   -0.4203   -1.5996 H   0  0  0  0  0  0  0  0  0  0  0  0
   -2.8796   -1.1845   -0.0278 H   0  0  0  0  0  0  0  0  0  0  0  0
   -3.9269    1.5687   -0.8204 H   0  0  0  0  0  0  0  0  0  0  0  0
   -4.1577    0.8047    0.7515 H   0  0  0  0  0  0  0  0  0  0  0  0
   -5.4128   -1.0585   -0.3383 H   0  0  0  0  0  0  0  0  0  0  0  0
   -6.1643    0.5010   -0.6793 H   0  0  0  0  0  0  0  0  0  0  0  0
   -5.1820   -0.2942   -1.9105 H   0  0  0  0  0  0  0  0  0  0  0  0
  1  2  2  0  0  0  0
  2  3  1  0  0  0  0
  3  4  1  0  0  0  0
  4  5  1  0  0  0  0
  5  6  1  0  0  0  0
  6  7  1  0  0  0  0
  7  8  1  0  0  0  0
  8  9  1  0  0  0  0
  9 10  1  0  0  0  0
  1 11  1  0  0  0  0
  1 12  1  0  0  0  0
  2 13  1  0  0  0  0
  3 14  1  0  0  0  0
  3 15  1  0  0  0  0
  4 16  1  0  0  0  0
  4 17  1  0  0  0  0
  5 18  1  0  0  0  0
  5 19  1  0  0  0  0
  6 20  1  0  0  0  0
  6 21  1  0  0  0  0
  7 22  1  0  0  0  0
  7 23  1  0  0  0  0
  8 24  1  0  0  0  0
  8 25  1  0  0  0  0
  9 26  1  0  0  0  0
  9 27  1  0  0  0  0
 10 28  1  0  0  0  0
 10 29  1  0  0  0  0
 10 30  1  0  0  0  0
M  END
