 xtb: 6.7.1 (edcfbbe)
          07082600293D

 31 30  0     0  0            999 V2000
   -4.8400   -0.2580    0.2116 C   0  0  0  0  0  0  0  0  0  0  0  0
   -3.3781   -0.4130   -0.1894 C   0  0  0  0  0  0  0  0  0  0  0  0
   -2.7277    0.9406   -0.4679 C   0  0  0  0  0  0  0  0  0  0  0  0
   -1.2985    0.8302   -1.0004 C   0  0  0  0  0  0  0  0  0  0  0  0
   -0.3198    0.2652    0.0298 C   0  0  0  0  0  0  0  0  0  0  0  0
    1.1421    0.3605   -0.4260 C   0  0  0  0  0  0  0  0  0  0  0  0
    1.3910   -0.4728   -1.5475 O   0  0  0  0  0  0  0  0  0  0  0  0
    2.0951   -0.0648    0.6954 C   0  0  0  0  0  0  0  0  0  0  0  0
    3.5738    0.1219    0.3242 C   0  0  0  0  0  0  0  0  0  0  0  0
    4.4679   -0.0229    1.5528 C   0  0  0  0  0  0  0  0  0  0  0  0
    3.9936   -0.8282   -0.6264 O   0  0  0  0  0  0  0  0  0  0  0  0
   -5.4064    0.2220   -0.5837 H   0  0  0  0  0  0  0  0  0  0  0  0
   -4.9266    0.3520    1.1082 H   0  0  0  0  0  0  0  0  0  0  0  0
   -5.2867   -1.2288    0.4128 H   0  0  0  0  0  0  0  0  0  0  0  0
   -2.8411   -0.9228    0.6119 H   0  0  0  0  0  0  0  0  0  0  0  0
   -3.3129   -1.0356   -1.0849 H   0  0  0  0  0  0  0  0  0  0  0  0
   -2.7263    1.5362    0.4478 H   0  0  0  0  0  0  0  0  0  0  0  0
   -3.3325    1.4734   -1.2061 H   0  0  0  0  0  0  0  0  0  0  0  0
   -1.3099    0.1993   -1.8939 H   0  0  0  0  0  0  0  0  0  0  0  0
   -0.9602    1.8274   -1.2976 H   0  0  0  0  0  0  0  0  0  0  0  0
   -0.5474   -0.7831    0.2270 H   0  0  0  0  0  0  0  0  0  0  0  0
   -0.4254    0.8204    0.9632 H   0  0  0  0  0  0  0  0  0  0  0  0
    1.3627    1.4069   -0.7009 H   0  0  0  0  0  0  0  0  0  0  0  0
    0.7723   -0.2422   -2.2477 H   0  0  0  0  0  0  0  0  0  0  0  0
    1.9256   -1.1191    0.9209 H   0  0  0  0  0  0  0  0  0  0  0  0
    1.8712    0.5260    1.5839 H   0  0  0  0  0  0  0  0  0  0  0  0
    3.7038    1.1383   -0.0928 H   0  0  0  0  0  0  0  0  0  0  0  0
    5.5081    0.0445    1.2479 H   0  0  0  0  0  0  0  0  0  0  0  0
    4.3068   -0.9945    2.0119 H   0  0  0  0  0  0  0  0  0  0  0  0
    4.2546    0.7591    2.2763 H   0  0  0  0  0  0  0  0  0  0  0  0
    3.2712   -0.9382   -1.2605 H   0  0  0  0  0  0  0  0  0  0  0  0
  1  2  1  0  0  0  0
  2  3  1  0  0  0  0
  3  4  1  0  0  0  0
  4  5  1  0  0  0  0
  5  6  1  0  0  0  0
  6  7  1  0  0  0  0
  6  8  1  0  0  0  0
  8  9  1  0  0  0  0
  9 10  1  0  0  0  0
  9 11  1  0  0  0  0
  1 12  1  0  0  0  0
  1 13  1  0  0  0  0
  1 14  1  0  0  0  0
  2 15  1  0  0  0  0
  2 16  1  0  0  0  0
  3 17  1  0  0  0  0
  3 18  1  0  0  0  0
  4 19  1  0  0  0  0
  4 20  1  0  0  0  0
  5 21  1  0  0  0  0
  5 22  1  0  0  0  0
  6 23  1  0  0  0  0
  7 24  1  0  0  0  0
  8 25  1  0  0  0  0
  8 26  1  0  0  0  0
  9 27  1  0  0  0  0
 10 28  1  0  0  0  0
 10 29  1  0  0  0  0
 10 30  1  0  0  0  0
 11 31  1  0  0  0  0
M  END
