 xtb: 6.7.1 (edcfbbe)
          07082600353D

 28 27  0     0  0            999 V2000
    3.6802    2.2681   -0.5901 C   0  0  0  0  0  0  0  0  0  0  0  0
    3.0662    0.9716   -1.1043 C   0  0  0  0  0  0  0  0  0  0  0  0
    1.8536    0.5488   -0.2779 C   0  0  0  0  0  0  0  0  0  0  0  0
    1.2357   -0.7486   -0.7957 C   0  0  0  0  0  0  0  0  0  0  0  0
    0.0934   -1.2673    0.0765 C   0  0  0  0  0  0  0  0  0  0  0  0
   -1.1473   -0.3777    0.0393 C   0  0  0  0  0  0  0  0  0  0  0  0
   -2.3036   -1.0110    0.8115 C   0  0  0  0  0  0  0  0  0  0  0  0
   -2.6841   -2.2028    0.1652 O   0  0  0  0  0  0  0  0  0  0  0  0
   -3.5054   -0.0611    0.8994 C   0  0  0  0  0  0  0  0  0  0  0  0
   -4.5240   -0.7348    1.6134 O   0  0  0  0  0  0  0  0  0  0  0  0
    2.9548    3.0778   -0.6332 H   0  0  0  0  0  0  0  0  0  0  0  0
    4.5432    2.5486   -1.1897 H   0  0  0  0  0  0  0  0  0  0  0  0
    4.0028    2.1536    0.4427 H   0  0  0  0  0  0  0  0  0  0  0  0
    2.7641    1.1013   -2.1461 H   0  0  0  0  0  0  0  0  0  0  0  0
    3.8171    0.1787   -1.0750 H   0  0  0  0  0  0  0  0  0  0  0  0
    2.1586    0.4119    0.7625 H   0  0  0  0  0  0  0  0  0  0  0  0
    1.1116    1.3487   -0.3047 H   0  0  0  0  0  0  0  0  0  0  0  0
    2.0150   -1.5135   -0.8368 H   0  0  0  0  0  0  0  0  0  0  0  0
    0.8721   -0.5953   -1.8142 H   0  0  0  0  0  0  0  0  0  0  0  0
    0.4387   -1.3604    1.1087 H   0  0  0  0  0  0  0  0  0  0  0  0
   -0.1992   -2.2595   -0.2693 H   0  0  0  0  0  0  0  0  0  0  0  0
   -1.4619   -0.2405   -0.9966 H   0  0  0  0  0  0  0  0  0  0  0  0
   -0.9321    0.5998    0.4721 H   0  0  0  0  0  0  0  0  0  0  0  0
   -1.9805   -1.2386    1.8413 H   0  0  0  0  0  0  0  0  0  0  0  0
   -3.5153   -2.4842    0.5671 H   0  0  0  0  0  0  0  0  0  0  0  0
   -3.8466    0.1861   -0.1152 H   0  0  0  0  0  0  0  0  0  0  0  0
   -3.2125    0.8632    1.4134 H   0  0  0  0  0  0  0  0  0  0  0  0
   -5.2944   -0.1631    1.6813 H   0  0  0  0  0  0  0  0  0  0  0  0
  1  2  1  0  0  0  0
  2  3  1  0  0  0  0
  3  4  1  0  0  0  0
  4  5  1  0  0  0  0
  5  6  1  0  0  0  0
  6  7  1  0  0  0  0
  7  8  1  0  0  0  0
  7  9  1  0  0  0  0
  9 10  1  0  0  0  0
  1 11  1  0  0  0  0
  1 12  1  0  0  0  0
  1 13  1  0  0  0  0
  2 14  1  0  0  0  0
  2 15  1  0  0  0  0
  3 16  1  0  0  0  0
  3 17  1  0  0  0  0
  4 18  1  0  0  0  0
  4 19  1  0  0  0  0
  5 20  1  0  0  0  0
  5 21  1  0  0  0  0
  6 22  1  0  0  0  0
  6 23  1  0  0  0  0
  7 24  1  0  0  0  0
  8 25  1  0  0  0  0
  9 26  1  0  0  0  0
  9 27  1  0  0  0  0
 10 28  1  0  0  0  0
M  END
