 xtb: 6.7.1 (edcfbbe)
          07092622493D

 32 31  0     0  0            999 V2000
    5.6962    0.3679    0.3571 C   0  0  0  0  0  0  0  0  0  0  0  0
    4.5594   -0.2763    0.5411 C   0  0  0  0  0  0  0  0  0  0  0  0
    3.9745   -1.2463   -0.4355 C   0  0  0  0  0  0  0  0  0  0  0  0
    2.6804   -0.7256   -1.0755 C   0  0  0  0  0  0  0  0  0  0  0  0
    1.5223   -0.6104   -0.0872 C   0  0  0  0  0  0  0  0  0  0  0  0
    0.2271   -0.1935   -0.7800 C   0  0  0  0  0  0  0  0  0  0  0  0
   -0.9360   -0.0756    0.2021 C   0  0  0  0  0  0  0  0  0  0  0  0
   -2.2310    0.3421   -0.4903 C   0  0  0  0  0  0  0  0  0  0  0  0
   -3.3910    0.4568    0.4941 C   0  0  0  0  0  0  0  0  0  0  0  0
   -4.6858    0.8765   -0.1948 C   0  0  0  0  0  0  0  0  0  0  0  0
   -5.8423    0.9949    0.7523 C   0  0  0  0  0  0  0  0  0  0  0  0
   -5.8090    0.7917    1.9322 O   0  0  0  0  0  0  0  0  0  0  0  0
    6.0835    1.0660    1.0800 H   0  0  0  0  0  0  0  0  0  0  0  0
    6.2928    0.2214   -0.5289 H   0  0  0  0  0  0  0  0  0  0  0  0
    3.9838   -0.1112    1.4421 H   0  0  0  0  0  0  0  0  0  0  0  0
    3.7596   -2.1887    0.0763 H   0  0  0  0  0  0  0  0  0  0  0  0
    4.7026   -1.4453   -1.2248 H   0  0  0  0  0  0  0  0  0  0  0  0
    2.8741    0.2512   -1.5249 H   0  0  0  0  0  0  0  0  0  0  0  0
    2.3919   -1.4089   -1.8784 H   0  0  0  0  0  0  0  0  0  0  0  0
    1.7649    0.1251    0.6816 H   0  0  0  0  0  0  0  0  0  0  0  0
    1.3718   -1.5733    0.4072 H   0  0  0  0  0  0  0  0  0  0  0  0
    0.3786    0.7673   -1.2781 H   0  0  0  0  0  0  0  0  0  0  0  0
   -0.0238   -0.9274   -1.5500 H   0  0  0  0  0  0  0  0  0  0  0  0
   -0.6864    0.6583    0.9717 H   0  0  0  0  0  0  0  0  0  0  0  0
   -1.0875   -1.0361    0.6999 H   0  0  0  0  0  0  0  0  0  0  0  0
   -2.0791    1.3038   -0.9870 H   0  0  0  0  0  0  0  0  0  0  0  0
   -2.4797   -0.3915   -1.2614 H   0  0  0  0  0  0  0  0  0  0  0  0
   -3.1482    1.1880    1.2673 H   0  0  0  0  0  0  0  0  0  0  0  0
   -3.5494   -0.5018    0.9917 H   0  0  0  0  0  0  0  0  0  0  0  0
   -4.5648    1.8430   -0.6933 H   0  0  0  0  0  0  0  0  0  0  0  0
   -4.9645    0.1563   -0.9700 H   0  0  0  0  0  0  0  0  0  0  0  0
   -6.7852    1.3015    0.2526 H   0  0  0  0  0  0  0  0  0  0  0  0
  1  2  2  0  0  0  0
  2  3  1  0  0  0  0
  3  4  1  0  0  0  0
  4  5  1  0  0  0  0
  5  6  1  0  0  0  0
  6  7  1  0  0  0  0
  7  8  1  0  0  0  0
  8  9  1  0  0  0  0
  9 10  1  0  0  0  0
 10 11  1  0  0  0  0
 11 12  2  0  0  0  0
  1 13  1  0  0  0  0
  1 14  1  0  0  0  0
  2 15  1  0  0  0  0
  3 16  1  0  0  0  0
  3 17  1  0  0  0  0
  4 18  1  0  0  0  0
  4 19  1  0  0  0  0
  5 20  1  0  0  0  0
  5 21  1  0  0  0  0
  6 22  1  0  0  0  0
  6 23  1  0  0  0  0
  7 24  1  0  0  0  0
  7 25  1  0  0  0  0
  8 26  1  0  0  0  0
  8 27  1  0  0  0  0
  9 28  1  0  0  0  0
  9 29  1  0  0  0  0
 10 30  1  0  0  0  0
 10 31  1  0  0  0  0
 11 32  1  0  0  0  0
M  END
