 xtb: 6.7.1 (edcfbbe)
          07072614523D

 31 31  0     0  0            999 V2000
   -2.9096    1.4624   -1.8223 C   0  0  0  0  0  0  0  0  0  0  0  0
   -1.7113    0.5313   -1.8581 C   0  0  0  0  0  0  0  0  0  0  0  0
   -1.4188    0.0986   -0.5267 O   0  0  0  0  0  0  0  0  0  0  0  0
   -0.9216   -1.1263   -0.3650 C   0  0  0  0  0  0  0  0  0  0  0  0
   -0.7443   -1.9117   -1.2597 O   0  0  0  0  0  0  0  0  0  0  0  0
   -0.5791   -1.3825    1.0900 C   0  0  0  0  0  0  0  0  0  0  0  0
   -1.0669   -2.7577    1.5321 C   0  0  0  0  0  0  0  0  0  0  0  0
    0.9575   -1.2694    1.2246 C   0  0  0  0  0  0  0  0  0  0  0  0
    1.2565   -1.2911    2.6047 O   0  0  0  0  0  0  0  0  0  0  0  0
    1.4234   -0.0016    0.5456 C   0  0  0  0  0  0  0  0  0  0  0  0
    1.9096   -0.0334   -0.7549 C   0  0  0  0  0  0  0  0  0  0  0  0
    2.2766    1.1402   -1.3893 C   0  0  0  0  0  0  0  0  0  0  0  0
    2.1688    2.3523   -0.7277 C   0  0  0  0  0  0  0  0  0  0  0  0
    1.6935    2.3878    0.5722 C   0  0  0  0  0  0  0  0  0  0  0  0
    1.3197    1.2161    1.2049 C   0  0  0  0  0  0  0  0  0  0  0  0
   -3.1221    1.8225   -2.8248 H   0  0  0  0  0  0  0  0  0  0  0  0
   -2.7017    2.3102   -1.1750 H   0  0  0  0  0  0  0  0  0  0  0  0
   -3.7825    0.9387   -1.4409 H   0  0  0  0  0  0  0  0  0  0  0  0
   -0.8239    1.0477   -2.2418 H   0  0  0  0  0  0  0  0  0  0  0  0
   -1.9030   -0.3499   -2.4793 H   0  0  0  0  0  0  0  0  0  0  0  0
   -1.0235   -0.5949    1.7025 H   0  0  0  0  0  0  0  0  0  0  0  0
   -2.1531   -2.7801    1.5723 H   0  0  0  0  0  0  0  0  0  0  0  0
   -0.6695   -2.9817    2.5179 H   0  0  0  0  0  0  0  0  0  0  0  0
   -0.7281   -3.5123    0.8261 H   0  0  0  0  0  0  0  0  0  0  0  0
    1.4108   -2.1403    0.7240 H   0  0  0  0  0  0  0  0  0  0  0  0
    2.2007   -1.1380    2.7161 H   0  0  0  0  0  0  0  0  0  0  0  0
    1.9866   -0.9781   -1.2738 H   0  0  0  0  0  0  0  0  0  0  0  0
    2.6483    1.1081   -2.4031 H   0  0  0  0  0  0  0  0  0  0  0  0
    2.4553    3.2673   -1.2252 H   0  0  0  0  0  0  0  0  0  0  0  0
    1.6086    3.3307    1.0922 H   0  0  0  0  0  0  0  0  0  0  0  0
    0.9429    1.2350    2.2173 H   0  0  0  0  0  0  0  0  0  0  0  0
  1  2  1  0  0  0  0
  2  3  1  0  0  0  0
  3  4  1  0  0  0  0
  4  5  2  0  0  0  0
  4  6  1  0  0  0  0
  6  7  1  0  0  0  0
  6  8  1  0  0  0  0
  8  9  1  0  0  0  0
  8 10  1  0  0  0  0
 10 11  4  0  0  0  0
 11 12  4  0  0  0  0
 12 13  4  0  0  0  0
 13 14  4  0  0  0  0
 10 15  4  0  0  0  0
 14 15  4  0  0  0  0
  1 16  1  0  0  0  0
  1 17  1  0  0  0  0
  1 18  1  0  0  0  0
  2 19  1  0  0  0  0
  2 20  1  0  0  0  0
  6 21  1  0  0  0  0
  7 22  1  0  0  0  0
  7 23  1  0  0  0  0
  7 24  1  0  0  0  0
  8 25  1  0  0  0  0
  9 26  1  0  0  0  0
 11 27  1  0  0  0  0
 12 28  1  0  0  0  0
 13 29  1  0  0  0  0
 14 30  1  0  0  0  0
 15 31  1  0  0  0  0
M  END
