 xtb: 6.7.1 (edcfbbe)
          07082615083D

 26 25  0     0  0            999 V2000
    2.3260   -1.0609    1.4320 C   0  0  0  0  0  0  0  0  0  0  0  0
    2.9476   -0.2759    0.5595 C   0  0  0  0  0  0  0  0  0  0  0  0
    2.4052    0.2282   -0.6956 C   0  0  0  0  0  0  0  0  0  0  0  0
    3.1697    0.9667   -1.5004 C   0  0  0  0  0  0  0  0  0  0  0  0
    0.9722   -0.0599   -1.0428 C   0  0  0  0  0  0  0  0  0  0  0  0
    0.0250    0.8854   -0.2797 C   0  0  0  0  0  0  0  0  0  0  0  0
   -1.4021    0.5640   -0.5942 C   0  0  0  0  0  0  0  0  0  0  0  0
   -2.2727   -0.0952    0.1611 C   0  0  0  0  0  0  0  0  0  0  0  0
   -3.6687   -0.3672   -0.3214 C   0  0  0  0  0  0  0  0  0  0  0  0
   -1.9928   -0.6398    1.5305 C   0  0  0  0  0  0  0  0  0  0  0  0
    1.3201   -1.4156    1.2867 H   0  0  0  0  0  0  0  0  0  0  0  0
    2.8121   -1.3858    2.3367 H   0  0  0  0  0  0  0  0  0  0  0  0
    3.9643    0.0361    0.7663 H   0  0  0  0  0  0  0  0  0  0  0  0
    4.1905    1.2082   -1.2545 H   0  0  0  0  0  0  0  0  0  0  0  0
    2.8010    1.3556   -2.4346 H   0  0  0  0  0  0  0  0  0  0  0  0
    0.8190    0.0764   -2.1148 H   0  0  0  0  0  0  0  0  0  0  0  0
    0.7215   -1.0927   -0.7968 H   0  0  0  0  0  0  0  0  0  0  0  0
    0.2412    1.9121   -0.5866 H   0  0  0  0  0  0  0  0  0  0  0  0
    0.2275    0.8094    0.7880 H   0  0  0  0  0  0  0  0  0  0  0  0
   -1.7210    0.8894   -1.5772 H   0  0  0  0  0  0  0  0  0  0  0  0
   -3.8146   -0.0055   -1.3357 H   0  0  0  0  0  0  0  0  0  0  0  0
   -4.3949    0.1206    0.3288 H   0  0  0  0  0  0  0  0  0  0  0  0
   -3.8733   -1.4373   -0.2992 H   0  0  0  0  0  0  0  0  0  0  0  0
   -2.8000   -0.3705    2.2109 H   0  0  0  0  0  0  0  0  0  0  0  0
   -1.0581   -0.2701    1.9407 H   0  0  0  0  0  0  0  0  0  0  0  0
   -1.9449   -1.7290    1.4920 H   0  0  0  0  0  0  0  0  0  0  0  0
  1  2  2  0  0  0  0
  2  3  1  0  0  0  0
  3  4  2  0  0  0  0
  3  5  1  0  0  0  0
  5  6  1  0  0  0  0
  6  7  1  0  0  0  0
  7  8  2  0  0  0  0
  8  9  1  0  0  0  0
  8 10  1  0  0  0  0
  1 11  1  0  0  0  0
  1 12  1  0  0  0  0
  2 13  1  0  0  0  0
  4 14  1  0  0  0  0
  4 15  1  0  0  0  0
  5 16  1  0  0  0  0
  5 17  1  0  0  0  0
  6 18  1  0  0  0  0
  6 19  1  0  0  0  0
  7 20  1  0  0  0  0
  9 21  1  0  0  0  0
  9 22  1  0  0  0  0
  9 23  1  0  0  0  0
 10 24  1  0  0  0  0
 10 25  1  0  0  0  0
 10 26  1  0  0  0  0
M  END
