 xtb: 6.7.1 (edcfbbe)
          07072623243D

 28 27  0     0  0            999 V2000
    3.7786    0.7262   -0.4173 C   0  0  0  0  0  0  0  0  0  0  0  0
    2.3975    1.0684    0.1264 C   0  0  0  0  0  0  0  0  0  0  0  0
    1.3312    0.0964   -0.3737 C   0  0  0  0  0  0  0  0  0  0  0  0
   -0.0312    0.3855    0.2775 C   0  0  0  0  0  0  0  0  0  0  0  0
    0.0020    0.1228    1.6571 O   0  0  0  0  0  0  0  0  0  0  0  0
   -1.1879   -0.3606   -0.4291 C   0  0  0  0  0  0  0  0  0  0  0  0
   -2.5236   -0.1211    0.2872 C   0  0  0  0  0  0  0  0  0  0  0  0
   -2.9949    1.3258    0.2163 C   0  0  0  0  0  0  0  0  0  0  0  0
   -0.9212   -1.8678   -0.5501 C   0  0  0  0  0  0  0  0  0  0  0  0
   -0.6452   -2.4268    0.7217 O   0  0  0  0  0  0  0  0  0  0  0  0
    3.7786    0.7542   -1.5051 H   0  0  0  0  0  0  0  0  0  0  0  0
    4.5184    1.4368   -0.0563 H   0  0  0  0  0  0  0  0  0  0  0  0
    4.0791   -0.2703   -0.1011 H   0  0  0  0  0  0  0  0  0  0  0  0
    2.4102    1.0380    1.2171 H   0  0  0  0  0  0  0  0  0  0  0  0
    2.1285    2.0833   -0.1746 H   0  0  0  0  0  0  0  0  0  0  0  0
    1.6390   -0.9203   -0.1211 H   0  0  0  0  0  0  0  0  0  0  0  0
    1.2399    0.1730   -1.4595 H   0  0  0  0  0  0  0  0  0  0  0  0
   -0.2225    1.4619    0.1955 H   0  0  0  0  0  0  0  0  0  0  0  0
   -0.0171   -0.8392    1.7583 H   0  0  0  0  0  0  0  0  0  0  0  0
   -1.2598    0.0282   -1.4511 H   0  0  0  0  0  0  0  0  0  0  0  0
   -3.2805   -0.7630   -0.1708 H   0  0  0  0  0  0  0  0  0  0  0  0
   -2.4175   -0.4172    1.3314 H   0  0  0  0  0  0  0  0  0  0  0  0
   -2.3325    1.9766    0.7793 H   0  0  0  0  0  0  0  0  0  0  0  0
   -3.0286    1.6695   -0.8159 H   0  0  0  0  0  0  0  0  0  0  0  0
   -3.9930    1.4120    0.6396 H   0  0  0  0  0  0  0  0  0  0  0  0
   -0.0750   -2.0443   -1.2282 H   0  0  0  0  0  0  0  0  0  0  0  0
   -1.8079   -2.3473   -0.9881 H   0  0  0  0  0  0  0  0  0  0  0  0
   -0.5646   -3.3811    0.6347 H   0  0  0  0  0  0  0  0  0  0  0  0
  1  2  1  0  0  0  0
  2  3  1  0  0  0  0
  3  4  1  0  0  0  0
  4  5  1  0  0  0  0
  4  6  1  0  0  0  0
  6  7  1  0  0  0  0
  7  8  1  0  0  0  0
  6  9  1  0  0  0  0
  9 10  1  0  0  0  0
  1 11  1  0  0  0  0
  1 12  1  0  0  0  0
  1 13  1  0  0  0  0
  2 14  1  0  0  0  0
  2 15  1  0  0  0  0
  3 16  1  0  0  0  0
  3 17  1  0  0  0  0
  4 18  1  0  0  0  0
  5 19  1  0  0  0  0
  6 20  1  0  0  0  0
  7 21  1  0  0  0  0
  7 22  1  0  0  0  0
  8 23  1  0  0  0  0
  8 24  1  0  0  0  0
  8 25  1  0  0  0  0
  9 26  1  0  0  0  0
  9 27  1  0  0  0  0
 10 28  1  0  0  0  0
M  END
