 xtb: 6.7.1 (edcfbbe)
          07062620553D

 49 49  0     0  0            999 V2000
   -6.0646   -2.0669   -0.8554 C   0  0  0  0  0  0  0  0  0  0  0  0
   -6.5605   -1.2599    0.1852 O   0  0  0  0  0  0  0  0  0  0  0  0
   -5.8312   -0.1480    0.5386 C   0  0  0  0  0  0  0  0  0  0  0  0
   -4.6393    0.2461   -0.0362 C   0  0  0  0  0  0  0  0  0  0  0  0
   -3.9889    1.3955    0.4078 C   0  0  0  0  0  0  0  0  0  0  0  0
   -2.6660    1.7568   -0.2172 C   0  0  0  0  0  0  0  0  0  0  0  0
   -1.6090    0.8691    0.2365 N   0  0  0  0  0  0  0  0  0  0  0  0
   -1.2474   -0.2364   -0.4536 C   0  0  0  0  0  0  0  0  0  0  0  0
   -1.7160   -0.5139   -1.5391 O   0  0  0  0  0  0  0  0  0  0  0  0
   -0.1696   -1.0762    0.2098 C   0  0  0  0  0  0  0  0  0  0  0  0
    1.1402   -0.9670   -0.5782 C   0  0  0  0  0  0  0  0  0  0  0  0
    1.7361    0.4363   -0.5007 C   0  0  0  0  0  0  0  0  0  0  0  0
    3.0064    0.5899   -1.3487 C   0  0  0  0  0  0  0  0  0  0  0  0
    4.1319   -0.2589   -0.8448 C   0  0  0  0  0  0  0  0  0  0  0  0
    5.1773    0.2055   -0.1821 C   0  0  0  0  0  0  0  0  0  0  0  0
    6.3013   -0.6335    0.3479 C   0  0  0  0  0  0  0  0  0  0  0  0
    7.6246   -0.1947   -0.2819 C   0  0  0  0  0  0  0  0  0  0  0  0
    6.3695   -0.5092    1.8717 C   0  0  0  0  0  0  0  0  0  0  0  0
   -4.5412    2.1417    1.4334 C   0  0  0  0  0  0  0  0  0  0  0  0
   -5.7406    1.7580    2.0124 C   0  0  0  0  0  0  0  0  0  0  0  0
   -6.3922    0.6185    1.5763 C   0  0  0  0  0  0  0  0  0  0  0  0
   -7.5665    0.2431    2.1472 O   0  0  0  0  0  0  0  0  0  0  0  0
   -5.9962   -1.5093   -1.7939 H   0  0  0  0  0  0  0  0  0  0  0  0
   -5.0823   -2.4795   -0.6077 H   0  0  0  0  0  0  0  0  0  0  0  0
   -6.7821   -2.8785   -0.9665 H   0  0  0  0  0  0  0  0  0  0  0  0
   -4.1874   -0.3231   -0.8325 H   0  0  0  0  0  0  0  0  0  0  0  0
   -2.7188    1.6391   -1.3027 H   0  0  0  0  0  0  0  0  0  0  0  0
   -2.3890    2.7853    0.0267 H   0  0  0  0  0  0  0  0  0  0  0  0
   -1.2789    0.9974    1.1793 H   0  0  0  0  0  0  0  0  0  0  0  0
   -0.5054   -2.1149    0.1966 H   0  0  0  0  0  0  0  0  0  0  0  0
   -0.0138   -0.7700    1.2456 H   0  0  0  0  0  0  0  0  0  0  0  0
    1.8523   -1.6920   -0.1811 H   0  0  0  0  0  0  0  0  0  0  0  0
    0.9369   -1.2194   -1.6207 H   0  0  0  0  0  0  0  0  0  0  0  0
    1.9746    0.6756    0.5391 H   0  0  0  0  0  0  0  0  0  0  0  0
    0.9943    1.1575   -0.8520 H   0  0  0  0  0  0  0  0  0  0  0  0
    2.7748    0.3151   -2.3807 H   0  0  0  0  0  0  0  0  0  0  0  0
    3.3102    1.6388   -1.3343 H   0  0  0  0  0  0  0  0  0  0  0  0
    4.0493   -1.3200   -1.0406 H   0  0  0  0  0  0  0  0  0  0  0  0
    5.2663    1.2675    0.0119 H   0  0  0  0  0  0  0  0  0  0  0  0
    6.1171   -1.6814    0.0876 H   0  0  0  0  0  0  0  0  0  0  0  0
    7.5793   -0.2898   -1.3644 H   0  0  0  0  0  0  0  0  0  0  0  0
    7.8352    0.8442   -0.0359 H   0  0  0  0  0  0  0  0  0  0  0  0
    8.4436   -0.8087    0.0865 H   0  0  0  0  0  0  0  0  0  0  0  0
    5.4322   -0.8297    2.3214 H   0  0  0  0  0  0  0  0  0  0  0  0
    7.1729   -1.1261    2.2683 H   0  0  0  0  0  0  0  0  0  0  0  0
    6.5543    0.5238    2.1594 H   0  0  0  0  0  0  0  0  0  0  0  0
   -4.0434    3.0339    1.7833 H   0  0  0  0  0  0  0  0  0  0  0  0
   -6.1866    2.3329    2.8078 H   0  0  0  0  0  0  0  0  0  0  0  0
   -7.8639   -0.5646    1.7061 H   0  0  0  0  0  0  0  0  0  0  0  0
  1  2  1  0  0  0  0
  2  3  1  0  0  0  0
  3  4  4  0  0  0  0
  4  5  4  0  0  0  0
  5  6  1  0  0  0  0
  6  7  1  0  0  0  0
  7  8  4  0  0  0  0
  8  9  2  0  0  0  0
  8 10  1  0  0  0  0
 10 11  1  0  0  0  0
 11 12  1  0  0  0  0
 12 13  1  0  0  0  0
 13 14  1  0  0  0  0
 14 15  2  0  0  0  0
 15 16  1  0  0  0  0
 16 17  1  0  0  0  0
 16 18  1  0  0  0  0
  5 19  4  0  0  0  0
 19 20  4  0  0  0  0
  3 21  4  0  0  0  0
 20 21  4  0  0  0  0
 21 22  1  0  0  0  0
  1 23  1  0  0  0  0
  1 24  1  0  0  0  0
  1 25  1  0  0  0  0
  4 26  1  0  0  0  0
  6 27  1  0  0  0  0
  6 28  1  0  0  0  0
  7 29  1  0  0  0  0
 10 30  1  0  0  0  0
 10 31  1  0  0  0  0
 11 32  1  0  0  0  0
 11 33  1  0  0  0  0
 12 34  1  0  0  0  0
 12 35  1  0  0  0  0
 13 36  1  0  0  0  0
 13 37  1  0  0  0  0
 14 38  1  0  0  0  0
 15 39  1  0  0  0  0
 16 40  1  0  0  0  0
 17 41  1  0  0  0  0
 17 42  1  0  0  0  0
 17 43  1  0  0  0  0
 18 44  1  0  0  0  0
 18 45  1  0  0  0  0
 18 46  1  0  0  0  0
 19 47  1  0  0  0  0
 20 48  1  0  0  0  0
 22 49  1  0  0  0  0
M  END
