 xtb: 6.7.1 (edcfbbe)
          07082610313D

 22 21  0     0  0            999 V2000
    3.7883    0.0313   -0.5744 C   0  0  0  0  0  0  0  0  0  0  0  0
    2.5286   -0.4453    0.1358 C   0  0  0  0  0  0  0  0  0  0  0  0
    1.2684    0.1490   -0.4871 C   0  0  0  0  0  0  0  0  0  0  0  0
    0.0044   -0.3160    0.2090 C   0  0  0  0  0  0  0  0  0  0  0  0
    0.0149   -1.0705    1.1472 O   0  0  0  0  0  0  0  0  0  0  0  0
   -1.2740    0.2503   -0.3772 C   0  0  0  0  0  0  0  0  0  0  0  0
   -2.5190   -0.2443    0.3539 C   0  0  0  0  0  0  0  0  0  0  0  0
   -3.7933    0.3332   -0.2467 C   0  0  0  0  0  0  0  0  0  0  0  0
    3.8733    1.1148   -0.5200 H   0  0  0  0  0  0  0  0  0  0  0  0
    3.7709   -0.2584   -1.6232 H   0  0  0  0  0  0  0  0  0  0  0  0
    4.6714   -0.4044   -0.1140 H   0  0  0  0  0  0  0  0  0  0  0  0
    2.5677   -0.1656    1.1898 H   0  0  0  0  0  0  0  0  0  0  0  0
    2.4657   -1.5338    0.0905 H   0  0  0  0  0  0  0  0  0  0  0  0
    1.3042    1.2406   -0.4427 H   0  0  0  0  0  0  0  0  0  0  0  0
    1.2021   -0.1282   -1.5424 H   0  0  0  0  0  0  0  0  0  0  0  0
   -1.2190    1.3411   -0.3336 H   0  0  0  0  0  0  0  0  0  0  0  0
   -1.3211   -0.0277   -1.4333 H   0  0  0  0  0  0  0  0  0  0  0  0
   -2.5468   -1.3342    0.3072 H   0  0  0  0  0  0  0  0  0  0  0  0
   -2.4448    0.0341    1.4064 H   0  0  0  0  0  0  0  0  0  0  0  0
   -4.6653   -0.0326    0.2895 H   0  0  0  0  0  0  0  0  0  0  0  0
   -3.7871    1.4199   -0.1888 H   0  0  0  0  0  0  0  0  0  0  0  0
   -3.8895    0.0467   -1.2921 H   0  0  0  0  0  0  0  0  0  0  0  0
  1  2  1  0  0  0  0
  2  3  1  0  0  0  0
  3  4  1  0  0  0  0
  4  5  2  0  0  0  0
  4  6  1  0  0  0  0
  6  7  1  0  0  0  0
  7  8  1  0  0  0  0
  1  9  1  0  0  0  0
  1 10  1  0  0  0  0
  1 11  1  0  0  0  0
  2 12  1  0  0  0  0
  2 13  1  0  0  0  0
  3 14  1  0  0  0  0
  3 15  1  0  0  0  0
  6 16  1  0  0  0  0
  6 17  1  0  0  0  0
  7 18  1  0  0  0  0
  7 19  1  0  0  0  0
  8 20  1  0  0  0  0
  8 21  1  0  0  0  0
  8 22  1  0  0  0  0
M  END
