 xtb: 6.7.1 (edcfbbe)
          07072617393D

 20 20  0     0  0            999 V2000
    3.4903    1.2583   -0.5145 O   0  0  0  0  0  0  0  0  0  0  0  0
    3.2311   -0.0555   -0.1021 C   0  0  0  0  0  0  0  0  0  0  0  0
    1.8088   -0.4951   -0.4568 C   0  0  0  0  0  0  0  0  0  0  0  0
    0.9324    0.3025    0.3184 O   0  0  0  0  0  0  0  0  0  0  0  0
   -0.4099    0.1181    0.1992 C   0  0  0  0  0  0  0  0  0  0  0  0
   -1.0163   -0.8005   -0.6504 C   0  0  0  0  0  0  0  0  0  0  0  0
   -2.3971   -0.9021   -0.6907 C   0  0  0  0  0  0  0  0  0  0  0  0
   -3.1743   -0.0904    0.1147 C   0  0  0  0  0  0  0  0  0  0  0  0
   -4.8983   -0.2227    0.0602 Cl  0  0  0  0  0  0  0  0  0  0  0  0
   -2.5819    0.8300    0.9672 C   0  0  0  0  0  0  0  0  0  0  0  0
   -1.2080    0.9314    1.0065 C   0  0  0  0  0  0  0  0  0  0  0  0
    2.8069    1.8245   -0.1354 H   0  0  0  0  0  0  0  0  0  0  0  0
    3.3720   -0.1590    0.9829 H   0  0  0  0  0  0  0  0  0  0  0  0
    3.9526   -0.6909   -0.6192 H   0  0  0  0  0  0  0  0  0  0  0  0
    1.6763   -1.5585   -0.2216 H   0  0  0  0  0  0  0  0  0  0  0  0
    1.6289   -0.3304   -1.5269 H   0  0  0  0  0  0  0  0  0  0  0  0
   -0.4295   -1.4432   -1.2867 H   0  0  0  0  0  0  0  0  0  0  0  0
   -2.8646   -1.6152   -1.3513 H   0  0  0  0  0  0  0  0  0  0  0  0
   -3.1936    1.4599    1.5932 H   0  0  0  0  0  0  0  0  0  0  0  0
   -0.7259    1.6388    1.6622 H   0  0  0  0  0  0  0  0  0  0  0  0
  1  2  1  0  0  0  0
  2  3  1  0  0  0  0
  3  4  1  0  0  0  0
  4  5  1  0  0  0  0
  5  6  4  0  0  0  0
  6  7  4  0  0  0  0
  7  8  4  0  0  0  0
  8  9  1  0  0  0  0
  8 10  4  0  0  0  0
  5 11  4  0  0  0  0
 10 11  4  0  0  0  0
  1 12  1  0  0  0  0
  2 13  1  0  0  0  0
  2 14  1  0  0  0  0
  3 15  1  0  0  0  0
  3 16  1  0  0  0  0
  6 17  1  0  0  0  0
  7 18  1  0  0  0  0
 10 19  1  0  0  0  0
 11 20  1  0  0  0  0
M  END
