 xtb: 6.7.1 (edcfbbe)
          07082604083D

 23 23  0     0  0            999 V2000
    4.2119    0.4099   -0.0763 C   0  0  0  0  0  0  0  0  0  0  0  0
    2.7605    0.5438   -0.5099 C   0  0  0  0  0  0  0  0  0  0  0  0
    1.9649   -0.1371    0.4394 O   0  0  0  0  0  0  0  0  0  0  0  0
    0.6179   -0.1843    0.2600 C   0  0  0  0  0  0  0  0  0  0  0  0
   -0.0726    0.4061   -0.7924 C   0  0  0  0  0  0  0  0  0  0  0  0
   -1.4498    0.2846   -0.8675 C   0  0  0  0  0  0  0  0  0  0  0  0
   -2.1648   -0.4126    0.0935 C   0  0  0  0  0  0  0  0  0  0  0  0
   -3.6653   -0.5333   -0.0102 C   0  0  0  0  0  0  0  0  0  0  0  0
   -4.2846    0.5935   -0.5872 O   0  0  0  0  0  0  0  0  0  0  0  0
   -1.4700   -0.9967    1.1470 C   0  0  0  0  0  0  0  0  0  0  0  0
   -0.0991   -0.8886    1.2297 C   0  0  0  0  0  0  0  0  0  0  0  0
    4.4906   -0.6394   -0.0361 H   0  0  0  0  0  0  0  0  0  0  0  0
    4.8582    0.9251   -0.7812 H   0  0  0  0  0  0  0  0  0  0  0  0
    4.3445    0.8408    0.9122 H   0  0  0  0  0  0  0  0  0  0  0  0
    2.6206    0.1023   -1.5066 H   0  0  0  0  0  0  0  0  0  0  0  0
    2.4737    1.6042   -0.5522 H   0  0  0  0  0  0  0  0  0  0  0  0
    0.4463    0.9589   -1.5598 H   0  0  0  0  0  0  0  0  0  0  0  0
   -1.9816    0.7405   -1.6900 H   0  0  0  0  0  0  0  0  0  0  0  0
   -4.0888   -0.7394    0.9845 H   0  0  0  0  0  0  0  0  0  0  0  0
   -3.9263   -1.3703   -0.6673 H   0  0  0  0  0  0  0  0  0  0  0  0
   -4.0246    1.3747   -0.0863 H   0  0  0  0  0  0  0  0  0  0  0  0
   -2.0098   -1.5431    1.9070 H   0  0  0  0  0  0  0  0  0  0  0  0
    0.4481   -1.3397    2.0424 H   0  0  0  0  0  0  0  0  0  0  0  0
  1  2  1  0  0  0  0
  2  3  1  0  0  0  0
  3  4  1  0  0  0  0
  4  5  4  0  0  0  0
  5  6  4  0  0  0  0
  6  7  4  0  0  0  0
  7  8  1  0  0  0  0
  8  9  1  0  0  0  0
  7 10  4  0  0  0  0
  4 11  4  0  0  0  0
 10 11  4  0  0  0  0
  1 12  1  0  0  0  0
  1 13  1  0  0  0  0
  1 14  1  0  0  0  0
  2 15  1  0  0  0  0
  2 16  1  0  0  0  0
  5 17  1  0  0  0  0
  6 18  1  0  0  0  0
  8 19  1  0  0  0  0
  8 20  1  0  0  0  0
  9 21  1  0  0  0  0
 10 22  1  0  0  0  0
 11 23  1  0  0  0  0
M  END
