 xtb: 6.7.1 (edcfbbe)
          07092609143D

 28 27  0     0  0            999 V2000
    3.1707    1.2198   -0.8366 C   0  0  0  0  0  0  0  0  0  0  0  0
    2.0913    0.6027    0.0428 C   0  0  0  0  0  0  0  0  0  0  0  0
    1.3218   -0.4977   -0.7009 C   0  0  0  0  0  0  0  0  0  0  0  0
    0.2896   -1.1344    0.1846 C   0  0  0  0  0  0  0  0  0  0  0  0
    0.7445   -2.3788    0.8825 C   0  0  0  0  0  0  0  0  0  0  0  0
   -0.9409   -0.6294    0.3719 C   0  0  0  0  0  0  0  0  0  0  0  0
   -1.8459   -1.2878    1.2351 C   0  0  0  0  0  0  0  0  0  0  0  0
   -2.6053   -1.7964    1.9305 N   0  0  0  0  0  0  0  0  0  0  0  0
   -1.5127    0.6188   -0.2651 C   0  0  0  0  0  0  0  0  0  0  0  0
   -2.7178    0.2509   -1.1336 C   0  0  0  0  0  0  0  0  0  0  0  0
   -1.9164    1.6170    0.8223 C   0  0  0  0  0  0  0  0  0  0  0  0
    3.8877    0.4641   -1.1505 H   0  0  0  0  0  0  0  0  0  0  0  0
    3.7057    1.9957   -0.2942 H   0  0  0  0  0  0  0  0  0  0  0  0
    2.7314    1.6648   -1.7271 H   0  0  0  0  0  0  0  0  0  0  0  0
    1.3936    1.3782    0.3652 H   0  0  0  0  0  0  0  0  0  0  0  0
    2.5494    0.1786    0.9390 H   0  0  0  0  0  0  0  0  0  0  0  0
    0.8626   -0.0707   -1.5944 H   0  0  0  0  0  0  0  0  0  0  0  0
    2.0312   -1.2619   -1.0259 H   0  0  0  0  0  0  0  0  0  0  0  0
    0.9051   -3.1737    0.1530 H   0  0  0  0  0  0  0  0  0  0  0  0
    1.6943   -2.1974    1.3849 H   0  0  0  0  0  0  0  0  0  0  0  0
    0.0173   -2.7218    1.6138 H   0  0  0  0  0  0  0  0  0  0  0  0
   -0.7530    1.0840   -0.8979 H   0  0  0  0  0  0  0  0  0  0  0  0
   -3.4957   -0.2098   -0.5282 H   0  0  0  0  0  0  0  0  0  0  0  0
   -2.4276   -0.4512   -1.9132 H   0  0  0  0  0  0  0  0  0  0  0  0
   -3.1279    1.1415   -1.6052 H   0  0  0  0  0  0  0  0  0  0  0  0
   -1.0611    1.8747    1.4446 H   0  0  0  0  0  0  0  0  0  0  0  0
   -2.6883    1.1918    1.4606 H   0  0  0  0  0  0  0  0  0  0  0  0
   -2.3032    2.5284    0.3713 H   0  0  0  0  0  0  0  0  0  0  0  0
  1  2  1  0  0  0  0
  2  3  1  0  0  0  0
  3  4  1  0  0  0  0
  4  5  1  0  0  0  0
  4  6  2  0  0  0  0
  6  7  1  0  0  0  0
  7  8  3  0  0  0  0
  6  9  1  0  0  0  0
  9 10  1  0  0  0  0
  9 11  1  0  0  0  0
  1 12  1  0  0  0  0
  1 13  1  0  0  0  0
  1 14  1  0  0  0  0
  2 15  1  0  0  0  0
  2 16  1  0  0  0  0
  3 17  1  0  0  0  0
  3 18  1  0  0  0  0
  5 19  1  0  0  0  0
  5 20  1  0  0  0  0
  5 21  1  0  0  0  0
  9 22  1  0  0  0  0
 10 23  1  0  0  0  0
 10 24  1  0  0  0  0
 10 25  1  0  0  0  0
 11 26  1  0  0  0  0
 11 27  1  0  0  0  0
 11 28  1  0  0  0  0
M  END
