 xtb: 6.7.1 (edcfbbe)
          07082613203D

 19 20  0     0  0            999 V2000
    2.1537    3.2354   -0.5819 N   0  0  0  0  0  0  0  0  0  0  0  0
    1.8150    2.1494   -0.4338 C   0  0  0  0  0  0  0  0  0  0  0  0
    1.4214    0.8048   -0.2535 C   0  0  0  0  0  0  0  0  0  0  0  0
    2.3793   -0.1874   -0.2739 C   0  0  0  0  0  0  0  0  0  0  0  0
    2.0100   -1.5249   -0.0974 C   0  0  0  0  0  0  0  0  0  0  0  0
    0.6973   -1.8608    0.0969 C   0  0  0  0  0  0  0  0  0  0  0  0
   -0.3096   -0.8728    0.1237 C   0  0  0  0  0  0  0  0  0  0  0  0
   -1.6685   -1.1963    0.3223 C   0  0  0  0  0  0  0  0  0  0  0  0
   -2.6230   -0.2184    0.3437 C   0  0  0  0  0  0  0  0  0  0  0  0
   -2.2642    1.1270    0.1676 C   0  0  0  0  0  0  0  0  0  0  0  0
   -0.9562    1.4759   -0.0273 C   0  0  0  0  0  0  0  0  0  0  0  0
    0.0487    0.4885   -0.0539 C   0  0  0  0  0  0  0  0  0  0  0  0
    3.4166    0.0727   -0.4269 H   0  0  0  0  0  0  0  0  0  0  0  0
    2.7731   -2.2886   -0.1162 H   0  0  0  0  0  0  0  0  0  0  0  0
    0.4110   -2.8938    0.2334 H   0  0  0  0  0  0  0  0  0  0  0  0
   -1.9386   -2.2339    0.4572 H   0  0  0  0  0  0  0  0  0  0  0  0
   -3.6612   -0.4739    0.4962 H   0  0  0  0  0  0  0  0  0  0  0  0
   -3.0308    1.8871    0.1872 H   0  0  0  0  0  0  0  0  0  0  0  0
   -0.6739    2.5100   -0.1634 H   0  0  0  0  0  0  0  0  0  0  0  0
  1  2  3  0  0  0  0
  2  3  1  0  0  0  0
  3  4  4  0  0  0  0
  4  5  4  0  0  0  0
  5  6  2  0  0  0  0
  6  7  4  0  0  0  0
  7  8  4  0  0  0  0
  8  9  2  0  0  0  0
  9 10  4  0  0  0  0
 10 11  2  0  0  0  0
  3 12  4  0  0  0  0
  7 12  4  0  0  0  0
 11 12  4  0  0  0  0
  4 13  1  0  0  0  0
  5 14  1  0  0  0  0
  6 15  1  0  0  0  0
  8 16  1  0  0  0  0
  9 17  1  0  0  0  0
 10 18  1  0  0  0  0
 11 19  1  0  0  0  0
M  END
