 xtb: 6.7.1 (edcfbbe)
          07082619503D

 22 21  0     0  0            999 V2000
   -3.2230    0.6099    0.0088 C   0  0  0  0  0  0  0  0  0  0  0  0
   -1.9625   -0.1724   -0.3618 C   0  0  0  0  0  0  0  0  0  0  0  0
   -2.0480   -1.5154    0.0766 O   0  0  0  0  0  0  0  0  0  0  0  0
   -0.7193    0.4408    0.2857 C   0  0  0  0  0  0  0  0  0  0  0  0
    0.5615   -0.2450   -0.1829 C   0  0  0  0  0  0  0  0  0  0  0  0
    1.7956    0.3214    0.5112 C   0  0  0  0  0  0  0  0  0  0  0  0
    3.0761   -0.3705    0.0430 C   0  0  0  0  0  0  0  0  0  0  0  0
    4.2358    0.1681    0.6343 O   0  0  0  0  0  0  0  0  0  0  0  0
   -3.1404    1.6396   -0.3273 H   0  0  0  0  0  0  0  0  0  0  0  0
   -3.3601    0.6005    1.0877 H   0  0  0  0  0  0  0  0  0  0  0  0
   -4.1007    0.1640   -0.4572 H   0  0  0  0  0  0  0  0  0  0  0  0
   -1.8398   -0.1548   -1.4589 H   0  0  0  0  0  0  0  0  0  0  0  0
   -2.8652   -1.8990   -0.2582 H   0  0  0  0  0  0  0  0  0  0  0  0
   -0.6817    1.5044    0.0449 H   0  0  0  0  0  0  0  0  0  0  0  0
   -0.8135    0.3332    1.3674 H   0  0  0  0  0  0  0  0  0  0  0  0
    0.6644   -0.1204   -1.2632 H   0  0  0  0  0  0  0  0  0  0  0  0
    0.4792   -1.3127    0.0246 H   0  0  0  0  0  0  0  0  0  0  0  0
    1.8794    1.3914    0.3074 H   0  0  0  0  0  0  0  0  0  0  0  0
    1.6952    0.1941    1.5933 H   0  0  0  0  0  0  0  0  0  0  0  0
    3.0080   -1.4499    0.2454 H   0  0  0  0  0  0  0  0  0  0  0  0
    3.2090   -0.2317   -1.0324 H   0  0  0  0  0  0  0  0  0  0  0  0
    4.1501    0.1042    1.5922 H   0  0  0  0  0  0  0  0  0  0  0  0
  1  2  1  0  0  0  0
  2  3  1  0  0  0  0
  2  4  1  0  0  0  0
  4  5  1  0  0  0  0
  5  6  1  0  0  0  0
  6  7  1  0  0  0  0
  7  8  1  0  0  0  0
  1  9  1  0  0  0  0
  1 10  1  0  0  0  0
  1 11  1  0  0  0  0
  2 12  1  0  0  0  0
  3 13  1  0  0  0  0
  4 14  1  0  0  0  0
  4 15  1  0  0  0  0
  5 16  1  0  0  0  0
  5 17  1  0  0  0  0
  6 18  1  0  0  0  0
  6 19  1  0  0  0  0
  7 20  1  0  0  0  0
  7 21  1  0  0  0  0
  8 22  1  0  0  0  0
M  END
