 xtb: 6.7.1 (edcfbbe)
          07092618193D

 26 26  0     0  0            999 V2000
    3.6263    0.9293   -1.1825 C   0  0  0  0  0  0  0  0  0  0  0  0
    2.3062    0.9530   -1.1077 C   0  0  0  0  0  0  0  0  0  0  0  0
    1.4676    2.0517   -1.6798 C   0  0  0  0  0  0  0  0  0  0  0  0
    1.5292   -0.1381   -0.4218 C   0  0  0  0  0  0  0  0  0  0  0  0
    0.5637   -0.6569   -1.3165 O   0  0  0  0  0  0  0  0  0  0  0  0
   -0.2644   -1.6342   -0.7332 C   0  0  0  0  0  0  0  0  0  0  0  0
   -1.1936   -1.0815    0.3218 C   0  0  0  0  0  0  0  0  0  0  0  0
   -1.4160   -1.7597    1.5118 C   0  0  0  0  0  0  0  0  0  0  0  0
   -2.2741   -1.2378    2.4646 C   0  0  0  0  0  0  0  0  0  0  0  0
   -2.9081   -0.0278    2.2407 C   0  0  0  0  0  0  0  0  0  0  0  0
   -2.6855    0.6574    1.0578 C   0  0  0  0  0  0  0  0  0  0  0  0
   -1.8362    0.1310    0.1021 C   0  0  0  0  0  0  0  0  0  0  0  0
    4.1790    1.7209   -1.6590 H   0  0  0  0  0  0  0  0  0  0  0  0
    4.2085    0.1237   -0.7685 H   0  0  0  0  0  0  0  0  0  0  0  0
    2.0822    2.7920   -2.1840 H   0  0  0  0  0  0  0  0  0  0  0  0
    0.7583    1.6280   -2.3883 H   0  0  0  0  0  0  0  0  0  0  0  0
    0.8986    2.5390   -0.8882 H   0  0  0  0  0  0  0  0  0  0  0  0
    2.2022   -0.9434   -0.0890 H   0  0  0  0  0  0  0  0  0  0  0  0
    1.0276    0.2753    0.4696 H   0  0  0  0  0  0  0  0  0  0  0  0
    0.3444   -2.4476   -0.3075 H   0  0  0  0  0  0  0  0  0  0  0  0
   -0.8510   -2.0399   -1.5649 H   0  0  0  0  0  0  0  0  0  0  0  0
   -0.9169   -2.7015    1.6928 H   0  0  0  0  0  0  0  0  0  0  0  0
   -2.4431   -1.7747    3.3866 H   0  0  0  0  0  0  0  0  0  0  0  0
   -3.5729    0.3813    2.9872 H   0  0  0  0  0  0  0  0  0  0  0  0
   -3.1772    1.6026    0.8793 H   0  0  0  0  0  0  0  0  0  0  0  0
   -1.6547    0.6581   -0.8231 H   0  0  0  0  0  0  0  0  0  0  0  0
  1  2  2  0  0  0  0
  2  3  1  0  0  0  0
  2  4  1  0  0  0  0
  4  5  1  0  0  0  0
  5  6  1  0  0  0  0
  6  7  1  0  0  0  0
  7  8  4  0  0  0  0
  8  9  4  0  0  0  0
  9 10  4  0  0  0  0
 10 11  4  0  0  0  0
  7 12  4  0  0  0  0
 11 12  4  0  0  0  0
  1 13  1  0  0  0  0
  1 14  1  0  0  0  0
  3 15  1  0  0  0  0
  3 16  1  0  0  0  0
  3 17  1  0  0  0  0
  4 18  1  0  0  0  0
  4 19  1  0  0  0  0
  6 20  1  0  0  0  0
  6 21  1  0  0  0  0
  8 22  1  0  0  0  0
  9 23  1  0  0  0  0
 10 24  1  0  0  0  0
 11 25  1  0  0  0  0
 12 26  1  0  0  0  0
M  END
