 xtb: 6.7.1 (edcfbbe)
          07072609253D

 17 16  0     0  0            999 V2000
   -0.9067   -1.3810    0.0311 C   0  0  0  0  0  0  0  0  0  0  0  0
   -0.2777    0.0117   -0.0398 C   0  0  0  0  0  0  0  0  0  0  0  0
   -0.8564    0.7709   -1.0871 O   0  0  0  0  0  0  0  0  0  0  0  0
    1.2375   -0.0971   -0.2847 C   0  0  0  0  0  0  0  0  0  0  0  0
    1.4277   -0.5965   -1.5953 O   0  0  0  0  0  0  0  0  0  0  0  0
   -0.5428    0.8064    1.2508 C   0  0  0  0  0  0  0  0  0  0  0  0
   -0.0726    2.1221    1.1476 O   0  0  0  0  0  0  0  0  0  0  0  0
   -0.6279   -1.9502   -0.8522 H   0  0  0  0  0  0  0  0  0  0  0  0
   -1.9891   -1.2913    0.0664 H   0  0  0  0  0  0  0  0  0  0  0  0
   -0.5635   -1.9067    0.9175 H   0  0  0  0  0  0  0  0  0  0  0  0
   -0.5022    0.4150   -1.9120 H   0  0  0  0  0  0  0  0  0  0  0  0
    1.6824   -0.7674    0.4607 H   0  0  0  0  0  0  0  0  0  0  0  0
    1.6859    0.8993   -0.1809 H   0  0  0  0  0  0  0  0  0  0  0  0
    2.3707   -0.6462   -1.7749 H   0  0  0  0  0  0  0  0  0  0  0  0
   -0.0232    0.3475    2.0938 H   0  0  0  0  0  0  0  0  0  0  0  0
   -1.6240    0.7968    1.4466 H   0  0  0  0  0  0  0  0  0  0  0  0
   -0.4183    2.4666    0.3124 H   0  0  0  0  0  0  0  0  0  0  0  0
  1  2  1  0  0  0  0
  2  3  1  0  0  0  0
  2  4  1  0  0  0  0
  4  5  1  0  0  0  0
  2  6  1  0  0  0  0
  6  7  1  0  0  0  0
  1  8  1  0  0  0  0
  1  9  1  0  0  0  0
  1 10  1  0  0  0  0
  3 11  1  0  0  0  0
  4 12  1  0  0  0  0
  4 13  1  0  0  0  0
  5 14  1  0  0  0  0
  6 15  1  0  0  0  0
  6 16  1  0  0  0  0
  7 17  1  0  0  0  0
M  END
