 xtb: 6.7.1 (edcfbbe)
          07082619173D

 16 16  0     0  0            999 V2000
    2.6710   -0.3134   -0.0889 C   0  0  0  0  0  0  0  0  0  0  0  0
    1.6983    0.6578   -0.3846 O   0  0  0  0  0  0  0  0  0  0  0  0
    0.3867    0.3551   -0.1662 C   0  0  0  0  0  0  0  0  0  0  0  0
   -0.5276    1.3619   -0.4801 C   0  0  0  0  0  0  0  0  0  0  0  0
   -1.8789    1.1585   -0.2966 C   0  0  0  0  0  0  0  0  0  0  0  0
   -2.3435   -0.0492    0.2021 C   0  0  0  0  0  0  0  0  0  0  0  0
   -1.4401   -1.0471    0.5134 C   0  0  0  0  0  0  0  0  0  0  0  0
   -0.0794   -0.8552    0.3336 C   0  0  0  0  0  0  0  0  0  0  0  0
    2.6644   -0.5802    0.9732 H   0  0  0  0  0  0  0  0  0  0  0  0
    3.6281    0.1423   -0.3382 H   0  0  0  0  0  0  0  0  0  0  0  0
    2.5343   -1.2175   -0.6914 H   0  0  0  0  0  0  0  0  0  0  0  0
   -0.1479    2.2946   -0.8669 H   0  0  0  0  0  0  0  0  0  0  0  0
   -2.5754    1.9460   -0.5436 H   0  0  0  0  0  0  0  0  0  0  0  0
   -3.4014   -0.2084    0.3457 H   0  0  0  0  0  0  0  0  0  0  0  0
   -1.7904   -1.9921    0.9026 H   0  0  0  0  0  0  0  0  0  0  0  0
    0.6017   -1.6531    0.5858 H   0  0  0  0  0  0  0  0  0  0  0  0
  1  2  1  0  0  0  0
  2  3  1  0  0  0  0
  3  4  4  0  0  0  0
  4  5  4  0  0  0  0
  5  6  4  0  0  0  0
  6  7  4  0  0  0  0
  3  8  4  0  0  0  0
  7  8  4  0  0  0  0
  1  9  1  0  0  0  0
  1 10  1  0  0  0  0
  1 11  1  0  0  0  0
  4 12  1  0  0  0  0
  5 13  1  0  0  0  0
  6 14  1  0  0  0  0
  7 15  1  0  0  0  0
  8 16  1  0  0  0  0
M  END
