 xtb: 6.7.1 (edcfbbe)
          07082621373D

 23 22  0     0  0            999 V2000
    1.8418    1.7200   -0.6017 C   0  0  0  0  0  0  0  0  0  0  0  0
    0.7642    1.3590    0.4158 C   0  0  0  0  0  0  0  0  0  0  0  0
    0.2186    0.0352    0.1601 N   0  0  0  0  0  0  0  0  0  0  0  0
    1.0443   -1.0430    0.6796 C   0  0  0  0  0  0  0  0  0  0  0  0
    0.9199   -2.2971   -0.1795 C   0  0  0  0  0  0  0  0  0  0  0  0
   -1.1804   -0.0878    0.5168 C   0  0  0  0  0  0  0  0  0  0  0  0
   -2.0625    0.3722   -0.6588 C   0  0  0  0  0  0  0  0  0  0  0  0
   -3.4559    0.1872   -0.3598 C   0  0  0  0  0  0  0  0  0  0  0  0
   -4.5582    0.0316   -0.0990 N   0  0  0  0  0  0  0  0  0  0  0  0
    2.1846    2.7380   -0.4340 H   0  0  0  0  0  0  0  0  0  0  0  0
    2.6959    1.0528   -0.5252 H   0  0  0  0  0  0  0  0  0  0  0  0
    1.4386    1.6440   -1.6078 H   0  0  0  0  0  0  0  0  0  0  0  0
    1.1721    1.4368    1.4378 H   0  0  0  0  0  0  0  0  0  0  0  0
   -0.0458    2.0871    0.3319 H   0  0  0  0  0  0  0  0  0  0  0  0
    2.0835   -0.7116    0.6587 H   0  0  0  0  0  0  0  0  0  0  0  0
    0.7916   -1.2781    1.7276 H   0  0  0  0  0  0  0  0  0  0  0  0
   -0.0902   -2.6979   -0.1541 H   0  0  0  0  0  0  0  0  0  0  0  0
    1.1702   -2.0610   -1.2101 H   0  0  0  0  0  0  0  0  0  0  0  0
    1.6007   -3.0634    0.1822 H   0  0  0  0  0  0  0  0  0  0  0  0
   -1.4351    0.4937    1.4180 H   0  0  0  0  0  0  0  0  0  0  0  0
   -1.4063   -1.1349    0.7265 H   0  0  0  0  0  0  0  0  0  0  0  0
   -1.8858    1.4281   -0.8783 H   0  0  0  0  0  0  0  0  0  0  0  0
   -1.8059   -0.2108   -1.5465 H   0  0  0  0  0  0  0  0  0  0  0  0
  1  2  1  0  0  0  0
  2  3  1  0  0  0  0
  3  4  1  0  0  0  0
  4  5  1  0  0  0  0
  3  6  1  0  0  0  0
  6  7  1  0  0  0  0
  7  8  1  0  0  0  0
  8  9  3  0  0  0  0
  1 10  1  0  0  0  0
  1 11  1  0  0  0  0
  1 12  1  0  0  0  0
  2 13  1  0  0  0  0
  2 14  1  0  0  0  0
  4 15  1  0  0  0  0
  4 16  1  0  0  0  0
  5 17  1  0  0  0  0
  5 18  1  0  0  0  0
  5 19  1  0  0  0  0
  6 20  1  0  0  0  0
  6 21  1  0  0  0  0
  7 22  1  0  0  0  0
  7 23  1  0  0  0  0
M  END
