 xtb: 6.7.1 (edcfbbe)
          07082609013D

 34 34  0     0  0            999 V2000
    3.7484   -0.6526    0.3283 C   0  0  0  0  0  0  0  0  0  0  0  0
    2.2426   -0.5413    0.5490 C   0  0  0  0  0  0  0  0  0  0  0  0
    1.4811   -1.5370   -0.3191 C   0  0  0  0  0  0  0  0  0  0  0  0
   -0.0229   -1.4081   -0.1005 C   0  0  0  0  0  0  0  0  0  0  0  0
   -0.5322    0.0028   -0.4255 C   0  0  0  0  0  0  0  0  0  0  0  0
   -2.0837    0.0921   -0.3160 C   0  0  0  0  0  0  0  0  0  0  0  0
   -2.7562   -1.0462   -1.1049 C   0  0  0  0  0  0  0  0  0  0  0  0
   -2.5869    0.0641    1.1275 C   0  0  0  0  0  0  0  0  0  0  0  0
   -2.5514    1.3203   -0.8607 O   0  0  0  0  0  0  0  0  0  0  0  0
    0.2331    1.0189    0.4470 C   0  0  0  0  0  0  0  0  0  0  0  0
   -0.1395    2.4750    0.1706 C   0  0  0  0  0  0  0  0  0  0  0  0
    1.7425    0.8629    0.2257 C   0  0  0  0  0  0  0  0  0  0  0  0
    4.0973   -1.6551    0.5665 H   0  0  0  0  0  0  0  0  0  0  0  0
    4.2814    0.0556    0.9588 H   0  0  0  0  0  0  0  0  0  0  0  0
    3.9971   -0.4413   -0.7099 H   0  0  0  0  0  0  0  0  0  0  0  0
    2.0265   -0.7581    1.6015 H   0  0  0  0  0  0  0  0  0  0  0  0
    1.7155   -1.3505   -1.3703 H   0  0  0  0  0  0  0  0  0  0  0  0
    1.7955   -2.5568   -0.0847 H   0  0  0  0  0  0  0  0  0  0  0  0
   -0.5235   -2.1439   -0.7287 H   0  0  0  0  0  0  0  0  0  0  0  0
   -0.2498   -1.6433    0.9412 H   0  0  0  0  0  0  0  0  0  0  0  0
   -0.2839    0.2156   -1.4755 H   0  0  0  0  0  0  0  0  0  0  0  0
   -2.7053   -1.9894   -0.5708 H   0  0  0  0  0  0  0  0  0  0  0  0
   -3.8050   -0.7907   -1.2444 H   0  0  0  0  0  0  0  0  0  0  0  0
   -2.2988   -1.1650   -2.0861 H   0  0  0  0  0  0  0  0  0  0  0  0
   -2.2302   -0.8214    1.6439 H   0  0  0  0  0  0  0  0  0  0  0  0
   -3.6738    0.0568    1.1223 H   0  0  0  0  0  0  0  0  0  0  0  0
   -2.2595    0.9512    1.6595 H   0  0  0  0  0  0  0  0  0  0  0  0
   -2.2570    1.3818   -1.7757 H   0  0  0  0  0  0  0  0  0  0  0  0
    0.0210    0.7954    1.4974 H   0  0  0  0  0  0  0  0  0  0  0  0
    0.0837    2.7330   -0.8632 H   0  0  0  0  0  0  0  0  0  0  0  0
    0.4417    3.1312    0.8160 H   0  0  0  0  0  0  0  0  0  0  0  0
   -1.1932    2.6606    0.3480 H   0  0  0  0  0  0  0  0  0  0  0  0
    1.9784    1.0937   -0.8167 H   0  0  0  0  0  0  0  0  0  0  0  0
    2.2673    1.5898    0.8499 H   0  0  0  0  0  0  0  0  0  0  0  0
  1  2  1  0  0  0  0
  2  3  1  0  0  0  0
  3  4  1  0  0  0  0
  4  5  1  0  0  0  0
  5  6  1  0  0  0  0
  6  7  1  0  0  0  0
  6  8  1  0  0  0  0
  6  9  1  0  0  0  0
  5 10  1  0  0  0  0
 10 11  1  0  0  0  0
  2 12  1  0  0  0  0
 10 12  1  0  0  0  0
  1 13  1  0  0  0  0
  1 14  1  0  0  0  0
  1 15  1  0  0  0  0
  2 16  1  0  0  0  0
  3 17  1  0  0  0  0
  3 18  1  0  0  0  0
  4 19  1  0  0  0  0
  4 20  1  0  0  0  0
  5 21  1  0  0  0  0
  7 22  1  0  0  0  0
  7 23  1  0  0  0  0
  7 24  1  0  0  0  0
  8 25  1  0  0  0  0
  8 26  1  0  0  0  0
  8 27  1  0  0  0  0
  9 28  1  0  0  0  0
 10 29  1  0  0  0  0
 11 30  1  0  0  0  0
 11 31  1  0  0  0  0
 11 32  1  0  0  0  0
 12 33  1  0  0  0  0
 12 34  1  0  0  0  0
M  END
