 xtb: 6.7.1 (edcfbbe)
          07072621143D

 36 37  0     0  0            999 V2000
   -1.7004   -2.1032   -0.4354 C   0  0  0  0  0  0  0  0  0  0  0  0
   -1.2333   -0.8227    0.2657 C   0  0  0  0  0  0  0  0  0  0  0  0
   -2.2596   -0.3033    1.2856 C   0  0  0  0  0  0  0  0  0  0  0  0
   -3.4878    0.3106    0.6227 C   0  0  0  0  0  0  0  0  0  0  0  0
   -3.0395    1.4032   -0.3406 C   0  0  0  0  0  0  0  0  0  0  0  0
   -2.0656    0.8176   -1.3569 C   0  0  0  0  0  0  0  0  0  0  0  0
   -0.9180    0.2180   -0.6966 N   0  0  0  0  0  0  0  0  0  0  0  0
    0.3178    0.6465   -1.0557 C   0  0  0  0  0  0  0  0  0  0  0  0
    0.4606    1.5426   -1.8701 O   0  0  0  0  0  0  0  0  0  0  0  0
    1.5295   -0.0004   -0.3915 C   0  0  0  0  0  0  0  0  0  0  0  0
    2.7527    0.1414   -1.3000 C   0  0  0  0  0  0  0  0  0  0  0  0
    4.0217   -0.1690   -0.5737 C   0  0  0  0  0  0  0  0  0  0  0  0
    4.1191   -0.2387    0.7433 C   0  0  0  0  0  0  0  0  0  0  0  0
    2.9626    0.0054    1.6641 C   0  0  0  0  0  0  0  0  0  0  0  0
    1.8203    0.7086    0.9370 C   0  0  0  0  0  0  0  0  0  0  0  0
   -2.6561   -1.9651   -0.9312 H   0  0  0  0  0  0  0  0  0  0  0  0
   -0.9674   -2.4041   -1.1806 H   0  0  0  0  0  0  0  0  0  0  0  0
   -1.8046   -2.9037    0.2927 H   0  0  0  0  0  0  0  0  0  0  0  0
   -0.3285   -1.0670    0.8249 H   0  0  0  0  0  0  0  0  0  0  0  0
   -2.5501   -1.1259    1.9412 H   0  0  0  0  0  0  0  0  0  0  0  0
   -1.7774    0.4619    1.8991 H   0  0  0  0  0  0  0  0  0  0  0  0
   -4.1487    0.7234    1.3871 H   0  0  0  0  0  0  0  0  0  0  0  0
   -4.0464   -0.4538    0.0796 H   0  0  0  0  0  0  0  0  0  0  0  0
   -3.8947    1.8318   -0.8645 H   0  0  0  0  0  0  0  0  0  0  0  0
   -2.5435    2.2016    0.2148 H   0  0  0  0  0  0  0  0  0  0  0  0
   -2.5727    0.0618   -1.9663 H   0  0  0  0  0  0  0  0  0  0  0  0
   -1.6795    1.5951   -2.0181 H   0  0  0  0  0  0  0  0  0  0  0  0
    1.3573   -1.0647   -0.2129 H   0  0  0  0  0  0  0  0  0  0  0  0
    2.6512   -0.5206   -2.1641 H   0  0  0  0  0  0  0  0  0  0  0  0
    2.7870    1.1635   -1.6895 H   0  0  0  0  0  0  0  0  0  0  0  0
    4.8899   -0.3372   -1.1961 H   0  0  0  0  0  0  0  0  0  0  0  0
    5.0602   -0.4843    1.2157 H   0  0  0  0  0  0  0  0  0  0  0  0
    2.6173   -0.9533    2.0687 H   0  0  0  0  0  0  0  0  0  0  0  0
    3.2914    0.6102    2.5131 H   0  0  0  0  0  0  0  0  0  0  0  0
    2.1050    1.7394    0.7185 H   0  0  0  0  0  0  0  0  0  0  0  0
    0.9302    0.7341    1.5701 H   0  0  0  0  0  0  0  0  0  0  0  0
  1  2  1  0  0  0  0
  2  3  1  0  0  0  0
  3  4  1  0  0  0  0
  4  5  1  0  0  0  0
  5  6  1  0  0  0  0
  2  7  1  0  0  0  0
  6  7  1  0  0  0  0
  7  8  4  0  0  0  0
  8  9  2  0  0  0  0
  8 10  1  0  0  0  0
 10 11  1  0  0  0  0
 11 12  1  0  0  0  0
 12 13  2  0  0  0  0
 13 14  1  0  0  0  0
 10 15  1  0  0  0  0
 14 15  1  0  0  0  0
  1 16  1  0  0  0  0
  1 17  1  0  0  0  0
  1 18  1  0  0  0  0
  2 19  1  0  0  0  0
  3 20  1  0  0  0  0
  3 21  1  0  0  0  0
  4 22  1  0  0  0  0
  4 23  1  0  0  0  0
  5 24  1  0  0  0  0
  5 25  1  0  0  0  0
  6 26  1  0  0  0  0
  6 27  1  0  0  0  0
 10 28  1  0  0  0  0
 11 29  1  0  0  0  0
 11 30  1  0  0  0  0
 12 31  1  0  0  0  0
 13 32  1  0  0  0  0
 14 33  1  0  0  0  0
 14 34  1  0  0  0  0
 15 35  1  0  0  0  0
 15 36  1  0  0  0  0
M  END
