 xtb: 6.7.1 (edcfbbe)
          07092602363D

 23 22  0     0  0            999 V2000
   -2.3703    0.8687    0.4516 C   0  0  0  0  0  0  0  0  0  0  0  0
   -1.9128    0.0492   -0.7527 C   0  0  0  0  0  0  0  0  0  0  0  0
   -2.9204   -1.0619   -1.0424 C   0  0  0  0  0  0  0  0  0  0  0  0
   -0.5261   -0.5632   -0.5273 C   0  0  0  0  0  0  0  0  0  0  0  0
    0.5780    0.4790   -0.4293 C   0  0  0  0  0  0  0  0  0  0  0  0
    1.8375   -0.2077   -0.4063 O   0  0  0  0  0  0  0  0  0  0  0  0
    2.9201    0.5530   -0.2522 C   0  0  0  0  0  0  0  0  0  0  0  0
    2.9077    1.7440   -0.1358 O   0  0  0  0  0  0  0  0  0  0  0  0
    4.1563   -0.3340   -0.2470 C   0  0  0  0  0  0  0  0  0  0  0  0
    5.6260    0.6394   -0.0829 Cl  0  0  0  0  0  0  0  0  0  0  0  0
   -2.3760    0.2534    1.3486 H   0  0  0  0  0  0  0  0  0  0  0  0
   -3.3784    1.2426    0.2884 H   0  0  0  0  0  0  0  0  0  0  0  0
   -1.7183    1.7214    0.6189 H   0  0  0  0  0  0  0  0  0  0  0  0
   -1.8621    0.7092   -1.6257 H   0  0  0  0  0  0  0  0  0  0  0  0
   -2.9898   -1.7401   -0.1949 H   0  0  0  0  0  0  0  0  0  0  0  0
   -3.9062   -0.6425   -1.2269 H   0  0  0  0  0  0  0  0  0  0  0  0
   -2.6233   -1.6349   -1.9175 H   0  0  0  0  0  0  0  0  0  0  0  0
   -0.5322   -1.1632    0.3843 H   0  0  0  0  0  0  0  0  0  0  0  0
   -0.2851   -1.2266   -1.3601 H   0  0  0  0  0  0  0  0  0  0  0  0
    0.5626    1.1540   -1.2924 H   0  0  0  0  0  0  0  0  0  0  0  0
    0.4964    1.0832    0.4789 H   0  0  0  0  0  0  0  0  0  0  0  0
    4.2114   -0.8937   -1.1810 H   0  0  0  0  0  0  0  0  0  0  0  0
    4.1049   -1.0294    0.5914 H   0  0  0  0  0  0  0  0  0  0  0  0
  1  2  1  0  0  0  0
  2  3  1  0  0  0  0
  2  4  1  0  0  0  0
  4  5  1  0  0  0  0
  5  6  1  0  0  0  0
  6  7  1  0  0  0  0
  7  8  2  0  0  0  0
  7  9  1  0  0  0  0
  9 10  1  0  0  0  0
  1 11  1  0  0  0  0
  1 12  1  0  0  0  0
  1 13  1  0  0  0  0
  2 14  1  0  0  0  0
  3 15  1  0  0  0  0
  3 16  1  0  0  0  0
  3 17  1  0  0  0  0
  4 18  1  0  0  0  0
  4 19  1  0  0  0  0
  5 20  1  0  0  0  0
  5 21  1  0  0  0  0
  9 22  1  0  0  0  0
  9 23  1  0  0  0  0
M  END
