 xtb: 6.7.1 (edcfbbe)
          07092617583D

 28 28  0     0  0            999 V2000
   -5.1832    0.0688   -0.3092 C   0  0  0  0  0  0  0  0  0  0  0  0
   -3.7762    0.3452   -0.8243 C   0  0  0  0  0  0  0  0  0  0  0  0
   -2.7168   -0.0547    0.1984 C   0  0  0  0  0  0  0  0  0  0  0  0
   -1.3051    0.2218   -0.3073 C   0  0  0  0  0  0  0  0  0  0  0  0
   -0.4013   -0.1755    0.7014 O   0  0  0  0  0  0  0  0  0  0  0  0
    0.9355   -0.0257    0.4843 C   0  0  0  0  0  0  0  0  0  0  0  0
    1.7709   -0.4411    1.5221 C   0  0  0  0  0  0  0  0  0  0  0  0
    3.1395   -0.3320    1.4050 C   0  0  0  0  0  0  0  0  0  0  0  0
    3.7220    0.1932    0.2559 C   0  0  0  0  0  0  0  0  0  0  0  0
    5.2126    0.2886    0.1239 C   0  0  0  0  0  0  0  0  0  0  0  0
    2.8852    0.6035   -0.7697 C   0  0  0  0  0  0  0  0  0  0  0  0
    1.5073    0.5002   -0.6677 C   0  0  0  0  0  0  0  0  0  0  0  0
   -5.3711    0.6283    0.6042 H   0  0  0  0  0  0  0  0  0  0  0  0
   -5.9251    0.3595   -1.0492 H   0  0  0  0  0  0  0  0  0  0  0  0
   -5.3089   -0.9897   -0.0936 H   0  0  0  0  0  0  0  0  0  0  0  0
   -3.6125   -0.2098   -1.7510 H   0  0  0  0  0  0  0  0  0  0  0  0
   -3.6751    1.4086   -1.0531 H   0  0  0  0  0  0  0  0  0  0  0  0
   -2.8674    0.4980    1.1272 H   0  0  0  0  0  0  0  0  0  0  0  0
   -2.8019   -1.1183    0.4274 H   0  0  0  0  0  0  0  0  0  0  0  0
   -1.1180   -0.3442   -1.2314 H   0  0  0  0  0  0  0  0  0  0  0  0
   -1.1865    1.2932   -0.5252 H   0  0  0  0  0  0  0  0  0  0  0  0
    1.3172   -0.8459    2.4131 H   0  0  0  0  0  0  0  0  0  0  0  0
    3.7696   -0.6584    2.2200 H   0  0  0  0  0  0  0  0  0  0  0  0
    5.6767    0.4552    1.0935 H   0  0  0  0  0  0  0  0  0  0  0  0
    5.6131   -0.6399   -0.2854 H   0  0  0  0  0  0  0  0  0  0  0  0
    5.4920    1.0993   -0.5451 H   0  0  0  0  0  0  0  0  0  0  0  0
    3.3123    1.0158   -1.6732 H   0  0  0  0  0  0  0  0  0  0  0  0
    0.8950    0.8339   -1.4911 H   0  0  0  0  0  0  0  0  0  0  0  0
  1  2  1  0  0  0  0
  2  3  1  0  0  0  0
  3  4  1  0  0  0  0
  4  5  1  0  0  0  0
  5  6  1  0  0  0  0
  6  7  4  0  0  0  0
  7  8  4  0  0  0  0
  8  9  4  0  0  0  0
  9 10  1  0  0  0  0
  9 11  4  0  0  0  0
  6 12  4  0  0  0  0
 11 12  4  0  0  0  0
  1 13  1  0  0  0  0
  1 14  1  0  0  0  0
  1 15  1  0  0  0  0
  2 16  1  0  0  0  0
  2 17  1  0  0  0  0
  3 18  1  0  0  0  0
  3 19  1  0  0  0  0
  4 20  1  0  0  0  0
  4 21  1  0  0  0  0
  7 22  1  0  0  0  0
  8 23  1  0  0  0  0
 10 24  1  0  0  0  0
 10 25  1  0  0  0  0
 10 26  1  0  0  0  0
 11 27  1  0  0  0  0
 12 28  1  0  0  0  0
M  END
