 xtb: 6.7.1 (edcfbbe)
          07082622033D

 14 15  0     0  0            999 V2000
   -1.7552   -0.7080   -0.0044 C   0  0  0  0  0  0  0  0  0  0  0  0
   -1.7627    0.6876   -0.0215 C   0  0  0  0  0  0  0  0  0  0  0  0
   -0.5927    1.4237   -0.0218 C   0  0  0  0  0  0  0  0  0  0  0  0
    0.5860    0.7014   -0.0042 C   0  0  0  0  0  0  0  0  0  0  0  0
    1.8773    1.1256    0.0002 O   0  0  0  0  0  0  0  0  0  0  0  0
    2.5962   -0.0148    0.0195 C   0  0  0  0  0  0  0  0  0  0  0  0
    1.9264   -1.1083    0.0279 N   0  0  0  0  0  0  0  0  0  0  0  0
    0.6067   -0.7088    0.0132 C   0  0  0  0  0  0  0  0  0  0  0  0
   -0.5794   -1.4303    0.0131 C   0  0  0  0  0  0  0  0  0  0  0  0
   -2.6988   -1.2327   -0.0051 H   0  0  0  0  0  0  0  0  0  0  0  0
   -2.7092    1.2063   -0.0349 H   0  0  0  0  0  0  0  0  0  0  0  0
   -0.5923    2.5016   -0.0349 H   0  0  0  0  0  0  0  0  0  0  0  0
    3.6660    0.0644    0.0265 H   0  0  0  0  0  0  0  0  0  0  0  0
   -0.5681   -2.5076    0.0264 H   0  0  0  0  0  0  0  0  0  0  0  0
  1  2  4  0  0  0  0
  2  3  4  0  0  0  0
  3  4  4  0  0  0  0
  4  5  1  0  0  0  0
  5  6  1  0  0  0  0
  6  7  2  0  0  0  0
  4  8  4  0  0  0  0
  7  8  1  0  0  0  0
  1  9  4  0  0  0  0
  8  9  4  0  0  0  0
  1 10  1  0  0  0  0
  2 11  1  0  0  0  0
  3 12  1  0  0  0  0
  6 13  1  0  0  0  0
  9 14  1  0  0  0  0
M  END
