 xtb: 6.7.1 (edcfbbe)
          07082611503D

 24 24  0     0  0            999 V2000
    3.3019    0.3642    0.9004 C   0  0  0  0  0  0  0  0  0  0  0  0
    2.4686    0.2732   -0.3719 C   0  0  0  0  0  0  0  0  0  0  0  0
    1.1171   -0.3892   -0.1172 C   0  0  0  0  0  0  0  0  0  0  0  0
    0.2759   -0.4823   -1.3870 C   0  0  0  0  0  0  0  0  0  0  0  0
   -1.0853   -1.1436   -1.1299 C   0  0  0  0  0  0  0  0  0  0  0  0
   -1.9260   -0.3374   -0.1998 C   0  0  0  0  0  0  0  0  0  0  0  0
   -2.6225    0.8210   -0.3845 C   0  0  0  0  0  0  0  0  0  0  0  0
   -3.2033    1.1418    0.8673 C   0  0  0  0  0  0  0  0  0  0  0  0
   -2.8165    0.1565    1.7191 C   0  0  0  0  0  0  0  0  0  0  0  0
   -2.0434   -0.7416    1.0831 O   0  0  0  0  0  0  0  0  0  0  0  0
    3.4926   -0.6283    1.3032 H   0  0  0  0  0  0  0  0  0  0  0  0
    4.2577    0.8430    0.7004 H   0  0  0  0  0  0  0  0  0  0  0  0
    2.7786    0.9446    1.6572 H   0  0  0  0  0  0  0  0  0  0  0  0
    2.3077    1.2767   -0.7728 H   0  0  0  0  0  0  0  0  0  0  0  0
    3.0161   -0.2993   -1.1246 H   0  0  0  0  0  0  0  0  0  0  0  0
    0.5731    0.1851    0.6356 H   0  0  0  0  0  0  0  0  0  0  0  0
    1.2767   -1.3928    0.2844 H   0  0  0  0  0  0  0  0  0  0  0  0
    0.1142    0.5195   -1.7905 H   0  0  0  0  0  0  0  0  0  0  0  0
    0.8144   -1.0640   -2.1384 H   0  0  0  0  0  0  0  0  0  0  0  0
   -0.9337   -2.1312   -0.6909 H   0  0  0  0  0  0  0  0  0  0  0  0
   -1.6118   -1.2607   -2.0796 H   0  0  0  0  0  0  0  0  0  0  0  0
   -2.7151    1.3742   -1.2968 H   0  0  0  0  0  0  0  0  0  0  0  0
   -3.8208    1.9866    1.0945 H   0  0  0  0  0  0  0  0  0  0  0  0
   -3.0161   -0.0159    2.7580 H   0  0  0  0  0  0  0  0  0  0  0  0
  1  2  1  0  0  0  0
  2  3  1  0  0  0  0
  3  4  1  0  0  0  0
  4  5  1  0  0  0  0
  5  6  1  0  0  0  0
  6  7  2  0  0  0  0
  7  8  4  0  0  0  0
  8  9  2  0  0  0  0
  6 10  1  0  0  0  0
  9 10  1  0  0  0  0
  1 11  1  0  0  0  0
  1 12  1  0  0  0  0
  1 13  1  0  0  0  0
  2 14  1  0  0  0  0
  2 15  1  0  0  0  0
  3 16  1  0  0  0  0
  3 17  1  0  0  0  0
  4 18  1  0  0  0  0
  4 19  1  0  0  0  0
  5 20  1  0  0  0  0
  5 21  1  0  0  0  0
  7 22  1  0  0  0  0
  8 23  1  0  0  0  0
  9 24  1  0  0  0  0
M  END
