 xtb: 6.7.1 (edcfbbe)
          07072616093D

 25 25  0     0  0            999 V2000
    4.2700    1.0407   -1.9433 N   0  0  0  0  0  0  0  0  0  0  0  0
    4.0341    0.4556   -0.9910 C   0  0  0  0  0  0  0  0  0  0  0  0
    3.7159   -0.2705    0.2114 C   0  0  0  0  0  0  0  0  0  0  0  0
    2.3521    0.2076    0.7183 C   0  0  0  0  0  0  0  0  0  0  0  0
    2.2085    0.9174    1.6747 O   0  0  0  0  0  0  0  0  0  0  0  0
    1.3910   -0.2662   -0.0567 O   0  0  0  0  0  0  0  0  0  0  0  0
    0.0318    0.1235    0.2139 C   0  0  0  0  0  0  0  0  0  0  0  0
   -0.7330   -1.0709    0.7784 C   0  0  0  0  0  0  0  0  0  0  0  0
   -2.1950   -0.6950    1.0011 C   0  0  0  0  0  0  0  0  0  0  0  0
   -2.8294   -0.2145   -0.3006 C   0  0  0  0  0  0  0  0  0  0  0  0
   -2.0562    0.9751   -0.8620 C   0  0  0  0  0  0  0  0  0  0  0  0
   -0.5942    0.6035   -1.0915 C   0  0  0  0  0  0  0  0  0  0  0  0
    3.6683   -1.3365   -0.0195 H   0  0  0  0  0  0  0  0  0  0  0  0
    4.4740   -0.0734    0.9718 H   0  0  0  0  0  0  0  0  0  0  0  0
    0.0517    0.9364    0.9502 H   0  0  0  0  0  0  0  0  0  0  0  0
   -0.2745   -1.3871    1.7178 H   0  0  0  0  0  0  0  0  0  0  0  0
   -0.6634   -1.8980    0.0686 H   0  0  0  0  0  0  0  0  0  0  0  0
   -2.7384   -1.5593    1.3864 H   0  0  0  0  0  0  0  0  0  0  0  0
   -2.2532    0.0990    1.7487 H   0  0  0  0  0  0  0  0  0  0  0  0
   -3.8681    0.0691   -0.1233 H   0  0  0  0  0  0  0  0  0  0  0  0
   -2.8232   -1.0277   -1.0295 H   0  0  0  0  0  0  0  0  0  0  0  0
   -2.1114    1.8088   -0.1586 H   0  0  0  0  0  0  0  0  0  0  0  0
   -2.5006    1.3004   -1.8037 H   0  0  0  0  0  0  0  0  0  0  0  0
   -0.5218   -0.1988   -1.8283 H   0  0  0  0  0  0  0  0  0  0  0  0
   -0.0349    1.4608   -1.4703 H   0  0  0  0  0  0  0  0  0  0  0  0
  1  2  3  0  0  0  0
  2  3  1  0  0  0  0
  3  4  1  0  0  0  0
  4  5  2  0  0  0  0
  4  6  1  0  0  0  0
  6  7  1  0  0  0  0
  7  8  1  0  0  0  0
  8  9  1  0  0  0  0
  9 10  1  0  0  0  0
 10 11  1  0  0  0  0
  7 12  1  0  0  0  0
 11 12  1  0  0  0  0
  3 13  1  0  0  0  0
  3 14  1  0  0  0  0
  7 15  1  0  0  0  0
  8 16  1  0  0  0  0
  8 17  1  0  0  0  0
  9 18  1  0  0  0  0
  9 19  1  0  0  0  0
 10 20  1  0  0  0  0
 10 21  1  0  0  0  0
 11 22  1  0  0  0  0
 11 23  1  0  0  0  0
 12 24  1  0  0  0  0
 12 25  1  0  0  0  0
M  END
