 xtb: 6.7.1 (edcfbbe)
          07072608163D

 35 34  0     0  0            999 V2000
    4.1540    1.0781   -0.0504 C   0  0  0  0  0  0  0  0  0  0  0  0
    3.2489    0.1532    0.7108 C   0  0  0  0  0  0  0  0  0  0  0  0
    2.8880    0.3614    1.8422 O   0  0  0  0  0  0  0  0  0  0  0  0
    2.8083   -1.0827   -0.0571 C   0  0  0  0  0  0  0  0  0  0  0  0
    1.3359   -1.3649    0.2390 C   0  0  0  0  0  0  0  0  0  0  0  0
    0.5052   -0.1871   -0.2727 C   0  0  0  0  0  0  0  0  0  0  0  0
    1.0454    0.6946   -0.9195 O   0  0  0  0  0  0  0  0  0  0  0  0
   -0.8149   -0.1654    0.0201 N   0  0  0  0  0  0  0  0  0  0  0  0
   -1.6076    1.0059   -0.3760 C   0  0  0  0  0  0  0  0  0  0  0  0
   -1.0719    2.2856    0.2658 C   0  0  0  0  0  0  0  0  0  0  0  0
   -1.6835    1.1351   -1.8971 C   0  0  0  0  0  0  0  0  0  0  0  0
   -1.5001   -1.2097    0.7695 C   0  0  0  0  0  0  0  0  0  0  0  0
   -1.9442   -0.7068    2.1457 C   0  0  0  0  0  0  0  0  0  0  0  0
   -2.6714   -1.7986   -0.0227 C   0  0  0  0  0  0  0  0  0  0  0  0
    3.5504    1.5509   -0.8236 H   0  0  0  0  0  0  0  0  0  0  0  0
    4.9543    0.5214   -0.5319 H   0  0  0  0  0  0  0  0  0  0  0  0
    4.5642    1.8416    0.6049 H   0  0  0  0  0  0  0  0  0  0  0  0
    3.4194   -1.9247    0.2776 H   0  0  0  0  0  0  0  0  0  0  0  0
    2.9613   -0.9334   -1.1246 H   0  0  0  0  0  0  0  0  0  0  0  0
    1.2142   -1.4561    1.3194 H   0  0  0  0  0  0  0  0  0  0  0  0
    1.0223   -2.2910   -0.2469 H   0  0  0  0  0  0  0  0  0  0  0  0
   -2.6184    0.8373    0.0030 H   0  0  0  0  0  0  0  0  0  0  0  0
   -0.0858    2.5162   -0.1239 H   0  0  0  0  0  0  0  0  0  0  0  0
   -1.0011    2.1687    1.3446 H   0  0  0  0  0  0  0  0  0  0  0  0
   -1.7420    3.1127    0.0449 H   0  0  0  0  0  0  0  0  0  0  0  0
   -0.6950    1.3254   -2.3024 H   0  0  0  0  0  0  0  0  0  0  0  0
   -2.0761    0.2216   -2.3384 H   0  0  0  0  0  0  0  0  0  0  0  0
   -2.3389    1.9608   -2.1622 H   0  0  0  0  0  0  0  0  0  0  0  0
   -0.7895   -2.0208    0.9290 H   0  0  0  0  0  0  0  0  0  0  0  0
   -1.0949   -0.2856    2.6785 H   0  0  0  0  0  0  0  0  0  0  0  0
   -2.7139    0.0558    2.0632 H   0  0  0  0  0  0  0  0  0  0  0  0
   -2.3438   -1.5338    2.7271 H   0  0  0  0  0  0  0  0  0  0  0  0
   -3.4844   -1.0875   -0.1393 H   0  0  0  0  0  0  0  0  0  0  0  0
   -2.3369   -2.1084   -1.0099 H   0  0  0  0  0  0  0  0  0  0  0  0
   -3.0574   -2.6699    0.5003 H   0  0  0  0  0  0  0  0  0  0  0  0
  1  2  1  0  0  0  0
  2  3  2  0  0  0  0
  2  4  1  0  0  0  0
  4  5  1  0  0  0  0
  5  6  1  0  0  0  0
  6  7  2  0  0  0  0
  6  8  4  0  0  0  0
  8  9  1  0  0  0  0
  9 10  1  0  0  0  0
  9 11  1  0  0  0  0
  8 12  1  0  0  0  0
 12 13  1  0  0  0  0
 12 14  1  0  0  0  0
  1 15  1  0  0  0  0
  1 16  1  0  0  0  0
  1 17  1  0  0  0  0
  4 18  1  0  0  0  0
  4 19  1  0  0  0  0
  5 20  1  0  0  0  0
  5 21  1  0  0  0  0
  9 22  1  0  0  0  0
 10 23  1  0  0  0  0
 10 24  1  0  0  0  0
 10 25  1  0  0  0  0
 11 26  1  0  0  0  0
 11 27  1  0  0  0  0
 11 28  1  0  0  0  0
 12 29  1  0  0  0  0
 13 30  1  0  0  0  0
 13 31  1  0  0  0  0
 13 32  1  0  0  0  0
 14 33  1  0  0  0  0
 14 34  1  0  0  0  0
 14 35  1  0  0  0  0
M  END
