 xtb: 6.7.1 (edcfbbe)
          07092617263D

 27 27  0     0  0            999 V2000
    3.9445   -0.2562   -0.0260 C   0  0  0  0  0  0  0  0  0  0  0  0
    2.7851   -0.8346    0.7706 C   0  0  0  0  0  0  0  0  0  0  0  0
    1.5844   -0.8780   -0.0070 O   0  0  0  0  0  0  0  0  0  0  0  0
    0.8782    0.2531   -0.1016 C   0  0  0  0  0  0  0  0  0  0  0  0
    1.1802    1.2809    0.4411 O   0  0  0  0  0  0  0  0  0  0  0  0
   -0.3344    0.0581   -1.0069 C   0  0  0  0  0  0  0  0  0  0  0  0
   -1.2090    1.3123   -1.0473 C   0  0  0  0  0  0  0  0  0  0  0  0
   -1.9254    1.5397    0.2813 C   0  0  0  0  0  0  0  0  0  0  0  0
   -2.7534    0.3170    0.6619 C   0  0  0  0  0  0  0  0  0  0  0  0
   -1.8646   -0.9196    0.7498 C   0  0  0  0  0  0  0  0  0  0  0  0
   -1.1224   -1.1675   -0.5525 C   0  0  0  0  0  0  0  0  0  0  0  0
   -2.4003   -1.6791   -1.9623 Br  0  0  0  0  0  0  0  0  0  0  0  0
    4.0909   -0.8214   -0.9434 H   0  0  0  0  0  0  0  0  0  0  0  0
    4.8519   -0.3032    0.5689 H   0  0  0  0  0  0  0  0  0  0  0  0
    3.7420    0.7821   -0.2773 H   0  0  0  0  0  0  0  0  0  0  0  0
    2.6030   -0.2329    1.6669 H   0  0  0  0  0  0  0  0  0  0  0  0
    2.9753   -1.8729    1.0496 H   0  0  0  0  0  0  0  0  0  0  0  0
    0.0744   -0.1356   -2.0072 H   0  0  0  0  0  0  0  0  0  0  0  0
   -1.9452    1.2018   -1.8468 H   0  0  0  0  0  0  0  0  0  0  0  0
   -0.5808    2.1738   -1.2784 H   0  0  0  0  0  0  0  0  0  0  0  0
   -2.5726    2.4140    0.1969 H   0  0  0  0  0  0  0  0  0  0  0  0
   -1.1864    1.7432    1.0578 H   0  0  0  0  0  0  0  0  0  0  0  0
   -3.2454    0.4800    1.6223 H   0  0  0  0  0  0  0  0  0  0  0  0
   -3.5314    0.1522   -0.0875 H   0  0  0  0  0  0  0  0  0  0  0  0
   -1.1167   -0.7772    1.5363 H   0  0  0  0  0  0  0  0  0  0  0  0
   -2.4612   -1.7978    1.0084 H   0  0  0  0  0  0  0  0  0  0  0  0
   -0.4609   -2.0321   -0.4675 H   0  0  0  0  0  0  0  0  0  0  0  0
  1  2  1  0  0  0  0
  2  3  1  0  0  0  0
  3  4  1  0  0  0  0
  4  5  2  0  0  0  0
  4  6  1  0  0  0  0
  6  7  1  0  0  0  0
  7  8  1  0  0  0  0
  8  9  1  0  0  0  0
  9 10  1  0  0  0  0
  6 11  1  0  0  0  0
 10 11  1  0  0  0  0
 11 12  1  0  0  0  0
  1 13  1  0  0  0  0
  1 14  1  0  0  0  0
  1 15  1  0  0  0  0
  2 16  1  0  0  0  0
  2 17  1  0  0  0  0
  6 18  1  0  0  0  0
  7 19  1  0  0  0  0
  7 20  1  0  0  0  0
  8 21  1  0  0  0  0
  8 22  1  0  0  0  0
  9 23  1  0  0  0  0
  9 24  1  0  0  0  0
 10 25  1  0  0  0  0
 10 26  1  0  0  0  0
 11 27  1  0  0  0  0
M  END
