 xtb: 6.7.1 (edcfbbe)
          07092620393D

 26 25  0     0  0            999 V2000
   -3.3990    1.4877    0.8946 C   0  0  0  0  0  0  0  0  0  0  0  0
   -2.1687    0.6671    1.2595 C   0  0  0  0  0  0  0  0  0  0  0  0
   -1.6474   -0.1689    0.0879 C   0  0  0  0  0  0  0  0  0  0  0  0
   -2.5889   -1.2879   -0.3289 C   0  0  0  0  0  0  0  0  0  0  0  0
   -0.4067   -0.7983    0.4770 O   0  0  0  0  0  0  0  0  0  0  0  0
    0.7108   -0.1136    0.2939 C   0  0  0  0  0  0  0  0  0  0  0  0
    0.7934    0.9967   -0.1531 O   0  0  0  0  0  0  0  0  0  0  0  0
    1.9177   -0.9389    0.7474 C   0  0  0  0  0  0  0  0  0  0  0  0
    3.1148   -0.3456    0.2898 O   0  0  0  0  0  0  0  0  0  0  0  0
    3.2801   -0.3403   -1.0476 C   0  0  0  0  0  0  0  0  0  0  0  0
    4.4963    0.4509   -1.4321 C   0  0  0  0  0  0  0  0  0  0  0  0
    2.5394   -0.9099   -1.8016 O   0  0  0  0  0  0  0  0  0  0  0  0
   -3.1927    2.1173    0.0325 H   0  0  0  0  0  0  0  0  0  0  0  0
   -4.2450    0.8464    0.6632 H   0  0  0  0  0  0  0  0  0  0  0  0
   -3.6761    2.1279    1.7282 H   0  0  0  0  0  0  0  0  0  0  0  0
   -2.3948    0.0011    2.0950 H   0  0  0  0  0  0  0  0  0  0  0  0
   -1.3685    1.3423    1.5712 H   0  0  0  0  0  0  0  0  0  0  0  0
   -1.4324    0.4907   -0.7623 H   0  0  0  0  0  0  0  0  0  0  0  0
   -3.5055   -0.8723   -0.7348 H   0  0  0  0  0  0  0  0  0  0  0  0
   -2.8250   -1.9151    0.5269 H   0  0  0  0  0  0  0  0  0  0  0  0
   -2.1153   -1.9013   -1.0906 H   0  0  0  0  0  0  0  0  0  0  0  0
    1.8114   -1.9596    0.3652 H   0  0  0  0  0  0  0  0  0  0  0  0
    1.9706   -0.9485    1.8374 H   0  0  0  0  0  0  0  0  0  0  0  0
    4.8643    0.1180   -2.3976 H   0  0  0  0  0  0  0  0  0  0  0  0
    4.2054    1.4972   -1.5059 H   0  0  0  0  0  0  0  0  0  0  0  0
    5.2618    0.3568   -0.6682 H   0  0  0  0  0  0  0  0  0  0  0  0
  1  2  1  0  0  0  0
  2  3  1  0  0  0  0
  3  4  1  0  0  0  0
  3  5  1  0  0  0  0
  5  6  1  0  0  0  0
  6  7  2  0  0  0  0
  6  8  1  0  0  0  0
  8  9  1  0  0  0  0
  9 10  1  0  0  0  0
 10 11  1  0  0  0  0
 10 12  2  0  0  0  0
  1 13  1  0  0  0  0
  1 14  1  0  0  0  0
  1 15  1  0  0  0  0
  2 16  1  0  0  0  0
  2 17  1  0  0  0  0
  3 18  1  0  0  0  0
  4 19  1  0  0  0  0
  4 20  1  0  0  0  0
  4 21  1  0  0  0  0
  8 22  1  0  0  0  0
  8 23  1  0  0  0  0
 11 24  1  0  0  0  0
 11 25  1  0  0  0  0
 11 26  1  0  0  0  0
M  END
