 xtb: 6.7.1 (edcfbbe)
          07092622053D

 32 31  0     0  0            999 V2000
   -3.4239    1.3932   -2.3225 C   0  0  0  0  0  0  0  0  0  0  0  0
   -2.8256    1.2037   -0.9340 C   0  0  0  0  0  0  0  0  0  0  0  0
   -1.6917    0.1803   -0.9399 C   0  0  0  0  0  0  0  0  0  0  0  0
   -1.0801    0.0089    0.4492 C   0  0  0  0  0  0  0  0  0  0  0  0
   -0.0511   -1.1255    0.5414 C   0  0  0  0  0  0  0  0  0  0  0  0
    0.3388   -1.3657    2.0063 C   0  0  0  0  0  0  0  0  0  0  0  0
    1.1306   -2.6501    2.2247 C   0  0  0  0  0  0  0  0  0  0  0  0
    1.1812   -0.8232   -0.3096 C   0  0  0  0  0  0  0  0  0  0  0  0
    1.7961    0.3785    0.1568 O   0  0  0  0  0  0  0  0  0  0  0  0
    2.8705    0.7950   -0.5141 C   0  0  0  0  0  0  0  0  0  0  0  0
    3.4164    2.0677    0.0821 C   0  0  0  0  0  0  0  0  0  0  0  0
    3.3290    0.2200   -1.4659 O   0  0  0  0  0  0  0  0  0  0  0  0
   -2.6656    1.7414   -3.0205 H   0  0  0  0  0  0  0  0  0  0  0  0
   -3.8256    0.4537   -2.6961 H   0  0  0  0  0  0  0  0  0  0  0  0
   -4.2283    2.1245   -2.2974 H   0  0  0  0  0  0  0  0  0  0  0  0
   -3.6067    0.8745   -0.2447 H   0  0  0  0  0  0  0  0  0  0  0  0
   -2.4449    2.1604   -0.5690 H   0  0  0  0  0  0  0  0  0  0  0  0
   -2.0780   -0.7812   -1.2876 H   0  0  0  0  0  0  0  0  0  0  0  0
   -0.9296    0.5090   -1.6484 H   0  0  0  0  0  0  0  0  0  0  0  0
   -1.8856   -0.2003    1.1573 H   0  0  0  0  0  0  0  0  0  0  0  0
   -0.6030    0.9411    0.7563 H   0  0  0  0  0  0  0  0  0  0  0  0
   -0.4988   -2.0418    0.1404 H   0  0  0  0  0  0  0  0  0  0  0  0
   -0.5749   -1.4155    2.6024 H   0  0  0  0  0  0  0  0  0  0  0  0
    0.9191   -0.5112    2.3578 H   0  0  0  0  0  0  0  0  0  0  0  0
    1.3031   -2.8050    3.2873 H   0  0  0  0  0  0  0  0  0  0  0  0
    0.5828   -3.5072    1.8388 H   0  0  0  0  0  0  0  0  0  0  0  0
    2.0980   -2.6102    1.7316 H   0  0  0  0  0  0  0  0  0  0  0  0
    0.9144   -0.6985   -1.3638 H   0  0  0  0  0  0  0  0  0  0  0  0
    1.9104   -1.6377   -0.2527 H   0  0  0  0  0  0  0  0  0  0  0  0
    3.6783    1.8960    1.1232 H   0  0  0  0  0  0  0  0  0  0  0  0
    4.2923    2.3850   -0.4745 H   0  0  0  0  0  0  0  0  0  0  0  0
    2.6525    2.8403    0.0465 H   0  0  0  0  0  0  0  0  0  0  0  0
  1  2  1  0  0  0  0
  2  3  1  0  0  0  0
  3  4  1  0  0  0  0
  4  5  1  0  0  0  0
  5  6  1  0  0  0  0
  6  7  1  0  0  0  0
  5  8  1  0  0  0  0
  8  9  1  0  0  0  0
  9 10  1  0  0  0  0
 10 11  1  0  0  0  0
 10 12  2  0  0  0  0
  1 13  1  0  0  0  0
  1 14  1  0  0  0  0
  1 15  1  0  0  0  0
  2 16  1  0  0  0  0
  2 17  1  0  0  0  0
  3 18  1  0  0  0  0
  3 19  1  0  0  0  0
  4 20  1  0  0  0  0
  4 21  1  0  0  0  0
  5 22  1  0  0  0  0
  6 23  1  0  0  0  0
  6 24  1  0  0  0  0
  7 25  1  0  0  0  0
  7 26  1  0  0  0  0
  7 27  1  0  0  0  0
  8 28  1  0  0  0  0
  8 29  1  0  0  0  0
 11 30  1  0  0  0  0
 11 31  1  0  0  0  0
 11 32  1  0  0  0  0
M  END
