 xtb: 6.7.1 (edcfbbe)
          07082621063D

 21 20  0     0  0            999 V2000
    3.5292    0.5875   -0.5383 C   0  0  0  0  0  0  0  0  0  0  0  0
    2.0354    0.8752   -0.6005 C   0  0  0  0  0  0  0  0  0  0  0  0
    1.2138   -0.3743   -0.2970 C   0  0  0  0  0  0  0  0  0  0  0  0
   -0.2687   -0.1002   -0.3240 C   0  0  0  0  0  0  0  0  0  0  0  0
   -0.7722    0.9832   -0.4884 O   0  0  0  0  0  0  0  0  0  0  0  0
   -0.9633   -1.2256   -0.1373 O   0  0  0  0  0  0  0  0  0  0  0  0
   -2.3929   -1.1597   -0.1813 C   0  0  0  0  0  0  0  0  0  0  0  0
   -3.0047   -0.3430    0.9696 C   0  0  0  0  0  0  0  0  0  0  0  0
   -3.3243    0.9670    0.6057 O   0  0  0  0  0  0  0  0  0  0  0  0
    3.8125    0.2416    0.4534 H   0  0  0  0  0  0  0  0  0  0  0  0
    4.0974    1.4864   -0.7625 H   0  0  0  0  0  0  0  0  0  0  0  0
    3.8026   -0.1796   -1.2597 H   0  0  0  0  0  0  0  0  0  0  0  0
    1.7764    1.6548    0.1176 H   0  0  0  0  0  0  0  0  0  0  0  0
    1.7695    1.2449   -1.5922 H   0  0  0  0  0  0  0  0  0  0  0  0
    1.4611   -0.7660    0.6929 H   0  0  0  0  0  0  0  0  0  0  0  0
    1.4261   -1.1664   -1.0182 H   0  0  0  0  0  0  0  0  0  0  0  0
   -2.7081   -0.7216   -1.1347 H   0  0  0  0  0  0  0  0  0  0  0  0
   -2.7056   -2.2029   -0.1316 H   0  0  0  0  0  0  0  0  0  0  0  0
   -2.3077   -0.3645    1.8224 H   0  0  0  0  0  0  0  0  0  0  0  0
   -3.9445   -0.8052    1.2807 H   0  0  0  0  0  0  0  0  0  0  0  0
   -2.5321    1.3686    0.2075 H   0  0  0  0  0  0  0  0  0  0  0  0
  1  2  1  0  0  0  0
  2  3  1  0  0  0  0
  3  4  1  0  0  0  0
  4  5  2  0  0  0  0
  4  6  1  0  0  0  0
  6  7  1  0  0  0  0
  7  8  1  0  0  0  0
  8  9  1  0  0  0  0
  1 10  1  0  0  0  0
  1 11  1  0  0  0  0
  1 12  1  0  0  0  0
  2 13  1  0  0  0  0
  2 14  1  0  0  0  0
  3 15  1  0  0  0  0
  3 16  1  0  0  0  0
  7 17  1  0  0  0  0
  7 18  1  0  0  0  0
  8 19  1  0  0  0  0
  8 20  1  0  0  0  0
  9 21  1  0  0  0  0
M  END
