 xtb: 6.7.1 (edcfbbe)
          07072623383D

 34 35  0     0  0            999 V2000
    5.0580   -0.0835   -1.1926 C   0  0  0  0  0  0  0  0  0  0  0  0
    4.0415   -0.6751   -0.2254 C   0  0  0  0  0  0  0  0  0  0  0  0
    2.7829    0.1823   -0.1416 C   0  0  0  0  0  0  0  0  0  0  0  0
    1.7684   -0.3917    0.8217 C   0  0  0  0  0  0  0  0  0  0  0  0
    1.9185   -1.3865    1.4816 O   0  0  0  0  0  0  0  0  0  0  0  0
    0.6713    0.3682    0.8510 O   0  0  0  0  0  0  0  0  0  0  0  0
   -0.3926   -0.0406    1.7236 C   0  0  0  0  0  0  0  0  0  0  0  0
   -1.2460    1.1869    2.0195 C   0  0  0  0  0  0  0  0  0  0  0  0
   -1.7627    1.7778    0.7120 C   0  0  0  0  0  0  0  0  0  0  0  0
   -2.4109    0.7462   -0.1687 C   0  0  0  0  0  0  0  0  0  0  0  0
   -3.2706    1.1581   -1.1814 C   0  0  0  0  0  0  0  0  0  0  0  0
   -3.8622    0.2460   -2.0333 C   0  0  0  0  0  0  0  0  0  0  0  0
   -3.5951   -1.1046   -1.8821 C   0  0  0  0  0  0  0  0  0  0  0  0
   -2.7404   -1.5231   -0.8810 C   0  0  0  0  0  0  0  0  0  0  0  0
   -2.1412   -0.6108   -0.0190 C   0  0  0  0  0  0  0  0  0  0  0  0
   -1.2435   -1.1288    1.0722 C   0  0  0  0  0  0  0  0  0  0  0  0
    5.3581    0.9120   -0.8723 H   0  0  0  0  0  0  0  0  0  0  0  0
    4.6369   -0.0087   -2.1930 H   0  0  0  0  0  0  0  0  0  0  0  0
    5.9453   -0.7096   -1.2404 H   0  0  0  0  0  0  0  0  0  0  0  0
    3.7657   -1.6811   -0.5454 H   0  0  0  0  0  0  0  0  0  0  0  0
    4.4803   -0.7599    0.7700 H   0  0  0  0  0  0  0  0  0  0  0  0
    2.3051    0.2691   -1.1202 H   0  0  0  0  0  0  0  0  0  0  0  0
    3.0265    1.1941    0.1911 H   0  0  0  0  0  0  0  0  0  0  0  0
    0.0631   -0.4396    2.6397 H   0  0  0  0  0  0  0  0  0  0  0  0
   -0.6568    1.9314    2.5569 H   0  0  0  0  0  0  0  0  0  0  0  0
   -2.0791    0.8803    2.6538 H   0  0  0  0  0  0  0  0  0  0  0  0
   -0.9188    2.2114    0.1670 H   0  0  0  0  0  0  0  0  0  0  0  0
   -2.4702    2.5833    0.9203 H   0  0  0  0  0  0  0  0  0  0  0  0
   -3.4758    2.2133   -1.2971 H   0  0  0  0  0  0  0  0  0  0  0  0
   -4.5289    0.5854   -2.8122 H   0  0  0  0  0  0  0  0  0  0  0  0
   -4.0512   -1.8275   -2.5422 H   0  0  0  0  0  0  0  0  0  0  0  0
   -2.5288   -2.5762   -0.7591 H   0  0  0  0  0  0  0  0  0  0  0  0
   -1.8593   -1.5909    1.8499 H   0  0  0  0  0  0  0  0  0  0  0  0
   -0.5873   -1.9078    0.6767 H   0  0  0  0  0  0  0  0  0  0  0  0
  1  2  1  0  0  0  0
  2  3  1  0  0  0  0
  3  4  1  0  0  0  0
  4  5  2  0  0  0  0
  4  6  1  0  0  0  0
  6  7  1  0  0  0  0
  7  8  1  0  0  0  0
  8  9  1  0  0  0  0
  9 10  1  0  0  0  0
 10 11  4  0  0  0  0
 11 12  4  0  0  0  0
 12 13  4  0  0  0  0
 13 14  4  0  0  0  0
 10 15  4  0  0  0  0
 14 15  4  0  0  0  0
  7 16  1  0  0  0  0
 15 16  1  0  0  0  0
  1 17  1  0  0  0  0
  1 18  1  0  0  0  0
  1 19  1  0  0  0  0
  2 20  1  0  0  0  0
  2 21  1  0  0  0  0
  3 22  1  0  0  0  0
  3 23  1  0  0  0  0
  7 24  1  0  0  0  0
  8 25  1  0  0  0  0
  8 26  1  0  0  0  0
  9 27  1  0  0  0  0
  9 28  1  0  0  0  0
 11 29  1  0  0  0  0
 12 30  1  0  0  0  0
 13 31  1  0  0  0  0
 14 32  1  0  0  0  0
 16 33  1  0  0  0  0
 16 34  1  0  0  0  0
M  END
