 xtb: 6.7.1 (edcfbbe)
          07082602303D

 29 29  0     0  0            999 V2000
    5.0492   -0.7143    0.0176 C   0  0  0  0  0  0  0  0  0  0  0  0
    3.8566    0.1342    0.4367 C   0  0  0  0  0  0  0  0  0  0  0  0
    2.5488   -0.4333   -0.1021 C   0  0  0  0  0  0  0  0  0  0  0  0
    1.4882    0.3992    0.3109 O   0  0  0  0  0  0  0  0  0  0  0  0
    0.2277   -0.0306   -0.1478 C   0  0  0  0  0  0  0  0  0  0  0  0
   -0.8261    0.9277    0.4331 C   0  0  0  0  0  0  0  0  0  0  0  0
   -0.7559    0.9183    1.8378 O   0  0  0  0  0  0  0  0  0  0  0  0
   -2.1979    0.5081   -0.0306 C   0  0  0  0  0  0  0  0  0  0  0  0
   -2.6908    0.9573   -1.2486 C   0  0  0  0  0  0  0  0  0  0  0  0
   -3.9331    0.5438   -1.6948 C   0  0  0  0  0  0  0  0  0  0  0  0
   -4.6955   -0.3191   -0.9256 C   0  0  0  0  0  0  0  0  0  0  0  0
   -4.2101   -0.7663    0.2911 C   0  0  0  0  0  0  0  0  0  0  0  0
   -2.9647   -0.3584    0.7351 C   0  0  0  0  0  0  0  0  0  0  0  0
    4.9493   -1.7290    0.3967 H   0  0  0  0  0  0  0  0  0  0  0  0
    5.1246   -0.7599   -1.0666 H   0  0  0  0  0  0  0  0  0  0  0  0
    5.9700   -0.2900    0.4090 H   0  0  0  0  0  0  0  0  0  0  0  0
    3.7938    0.1819    1.5250 H   0  0  0  0  0  0  0  0  0  0  0  0
    3.9703    1.1535    0.0649 H   0  0  0  0  0  0  0  0  0  0  0  0
    2.5787   -0.4820   -1.2020 H   0  0  0  0  0  0  0  0  0  0  0  0
    2.3905   -1.4562    0.2757 H   0  0  0  0  0  0  0  0  0  0  0  0
    0.1860   -0.0220   -1.2468 H   0  0  0  0  0  0  0  0  0  0  0  0
    0.0219   -1.0549    0.1998 H   0  0  0  0  0  0  0  0  0  0  0  0
   -0.6000    1.9396    0.0570 H   0  0  0  0  0  0  0  0  0  0  0  0
    0.1798    0.9832    2.0665 H   0  0  0  0  0  0  0  0  0  0  0  0
   -2.1001    1.6368   -1.8468 H   0  0  0  0  0  0  0  0  0  0  0  0
   -4.3095    0.8991   -2.6431 H   0  0  0  0  0  0  0  0  0  0  0  0
   -5.6673   -0.6382   -1.2729 H   0  0  0  0  0  0  0  0  0  0  0  0
   -4.8031   -1.4364    0.8962 H   0  0  0  0  0  0  0  0  0  0  0  0
   -2.5814   -0.6924    1.6863 H   0  0  0  0  0  0  0  0  0  0  0  0
  1  2  1  0  0  0  0
  2  3  1  0  0  0  0
  3  4  1  0  0  0  0
  4  5  1  0  0  0  0
  5  6  1  0  0  0  0
  6  7  1  0  0  0  0
  6  8  1  0  0  0  0
  8  9  4  0  0  0  0
  9 10  4  0  0  0  0
 10 11  4  0  0  0  0
 11 12  4  0  0  0  0
  8 13  4  0  0  0  0
 12 13  4  0  0  0  0
  1 14  1  0  0  0  0
  1 15  1  0  0  0  0
  1 16  1  0  0  0  0
  2 17  1  0  0  0  0
  2 18  1  0  0  0  0
  3 19  1  0  0  0  0
  3 20  1  0  0  0  0
  5 21  1  0  0  0  0
  5 22  1  0  0  0  0
  6 23  1  0  0  0  0
  7 24  1  0  0  0  0
  9 25  1  0  0  0  0
 10 26  1  0  0  0  0
 11 27  1  0  0  0  0
 12 28  1  0  0  0  0
 13 29  1  0  0  0  0
M  END
