 xtb: 6.7.1 (edcfbbe)
          07072610233D

 28 28  0     0  0            999 V2000
   -4.4850    1.0259   -0.2202 C   0  0  0  0  0  0  0  0  0  0  0  0
   -3.0513    0.8231    0.2517 C   0  0  0  0  0  0  0  0  0  0  0  0
   -2.4674   -0.5265   -0.1781 C   0  0  0  0  0  0  0  0  0  0  0  0
   -3.1544   -1.7172    0.4745 C   0  0  0  0  0  0  0  0  0  0  0  0
   -1.0854   -0.5836    0.2057 O   0  0  0  0  0  0  0  0  0  0  0  0
   -0.1881   -0.0429   -0.6291 C   0  0  0  0  0  0  0  0  0  0  0  0
   -0.4715    0.4824   -1.6815 O   0  0  0  0  0  0  0  0  0  0  0  0
    1.1721   -0.1861   -0.0959 C   0  0  0  0  0  0  0  0  0  0  0  0
    2.2286    0.2847   -0.7752 C   0  0  0  0  0  0  0  0  0  0  0  0
    3.5888    0.1942   -0.3443 C   0  0  0  0  0  0  0  0  0  0  0  0
    4.7425    0.6385   -0.9544 C   0  0  0  0  0  0  0  0  0  0  0  0
    5.8053    0.2892   -0.0991 C   0  0  0  0  0  0  0  0  0  0  0  0
    5.2320   -0.3400    0.9678 C   0  0  0  0  0  0  0  0  0  0  0  0
    3.9041   -0.4035    0.8308 O   0  0  0  0  0  0  0  0  0  0  0  0
   -4.8180    2.0298    0.0314 H   0  0  0  0  0  0  0  0  0  0  0  0
   -4.5500    0.9036   -1.2989 H   0  0  0  0  0  0  0  0  0  0  0  0
   -5.1592    0.3164    0.2525 H   0  0  0  0  0  0  0  0  0  0  0  0
   -2.9984    0.8981    1.3403 H   0  0  0  0  0  0  0  0  0  0  0  0
   -2.4204    1.6073   -0.1728 H   0  0  0  0  0  0  0  0  0  0  0  0
   -2.5159   -0.6062   -1.2727 H   0  0  0  0  0  0  0  0  0  0  0  0
   -3.1495   -1.6036    1.5556 H   0  0  0  0  0  0  0  0  0  0  0  0
   -4.1790   -1.7964    0.1253 H   0  0  0  0  0  0  0  0  0  0  0  0
   -2.6259   -2.6322    0.2194 H   0  0  0  0  0  0  0  0  0  0  0  0
    1.2713   -0.6823    0.8564 H   0  0  0  0  0  0  0  0  0  0  0  0
    2.0627    0.7737   -1.7256 H   0  0  0  0  0  0  0  0  0  0  0  0
    4.8074    1.1481   -1.8938 H   0  0  0  0  0  0  0  0  0  0  0  0
    6.8483    0.4768   -0.2510 H   0  0  0  0  0  0  0  0  0  0  0  0
    5.6563   -0.7711    1.8535 H   0  0  0  0  0  0  0  0  0  0  0  0
  1  2  1  0  0  0  0
  2  3  1  0  0  0  0
  3  4  1  0  0  0  0
  3  5  1  0  0  0  0
  5  6  1  0  0  0  0
  6  7  2  0  0  0  0
  6  8  1  0  0  0  0
  8  9  2  0  0  0  0
  9 10  1  0  0  0  0
 10 11  4  0  0  0  0
 11 12  4  0  0  0  0
 12 13  2  0  0  0  0
 10 14  1  0  0  0  0
 13 14  1  0  0  0  0
  1 15  1  0  0  0  0
  1 16  1  0  0  0  0
  1 17  1  0  0  0  0
  2 18  1  0  0  0  0
  2 19  1  0  0  0  0
  3 20  1  0  0  0  0
  4 21  1  0  0  0  0
  4 22  1  0  0  0  0
  4 23  1  0  0  0  0
  8 24  1  0  0  0  0
  9 25  1  0  0  0  0
 11 26  1  0  0  0  0
 12 27  1  0  0  0  0
 13 28  1  0  0  0  0
M  END
