 xtb: 6.7.1 (edcfbbe)
          07082617203D

 15 14  0     0  0            999 V2000
   -0.2029    1.5193   -0.5849 C   0  0  0  0  0  0  0  0  0  0  0  0
   -0.0392    0.0086   -0.4509 C   0  0  0  0  0  0  0  0  0  0  0  0
   -1.3518   -0.6493   -0.0355 C   0  0  0  0  0  0  0  0  0  0  0  0
    1.0605   -0.3199    0.5614 C   0  0  0  0  0  0  0  0  0  0  0  0
    1.3191   -1.7076    0.5223 O   0  0  0  0  0  0  0  0  0  0  0  0
    0.7244    1.9834   -0.9135 H   0  0  0  0  0  0  0  0  0  0  0  0
   -0.9786    1.7495   -1.3108 H   0  0  0  0  0  0  0  0  0  0  0  0
   -0.4865    1.9560    0.3707 H   0  0  0  0  0  0  0  0  0  0  0  0
    0.2720   -0.4097   -1.4131 H   0  0  0  0  0  0  0  0  0  0  0  0
   -1.2007   -1.7167    0.0976 H   0  0  0  0  0  0  0  0  0  0  0  0
   -1.7072   -0.2267    0.9023 H   0  0  0  0  0  0  0  0  0  0  0  0
   -2.1133   -0.4948   -0.7959 H   0  0  0  0  0  0  0  0  0  0  0  0
    1.9718    0.2433    0.3099 H   0  0  0  0  0  0  0  0  0  0  0  0
    0.7365   -0.0165    1.5680 H   0  0  0  0  0  0  0  0  0  0  0  0
    1.9959   -1.9190    1.1724 H   0  0  0  0  0  0  0  0  0  0  0  0
  1  2  1  0  0  0  0
  2  3  1  0  0  0  0
  2  4  1  0  0  0  0
  4  5  1  0  0  0  0
  1  6  1  0  0  0  0
  1  7  1  0  0  0  0
  1  8  1  0  0  0  0
  2  9  1  0  0  0  0
  3 10  1  0  0  0  0
  3 11  1  0  0  0  0
  3 12  1  0  0  0  0
  4 13  1  0  0  0  0
  4 14  1  0  0  0  0
  5 15  1  0  0  0  0
M  END
