 xtb: 6.7.1 (edcfbbe)
          07092612243D

 25 25  0     0  0            999 V2000
    2.7840   -0.9276    0.9169 C   0  0  0  0  0  0  0  0  0  0  0  0
    2.9881    0.1998   -0.0869 C   0  0  0  0  0  0  0  0  0  0  0  0
    1.6645    0.6661   -0.6822 C   0  0  0  0  0  0  0  0  0  0  0  0
    1.1271   -0.3732   -1.4722 O   0  0  0  0  0  0  0  0  0  0  0  0
   -0.1445   -0.0742   -1.9978 C   0  0  0  0  0  0  0  0  0  0  0  0
   -1.2246    0.0031   -0.9444 C   0  0  0  0  0  0  0  0  0  0  0  0
   -2.1571    1.0307   -0.9418 C   0  0  0  0  0  0  0  0  0  0  0  0
   -3.1386    1.0824    0.0332 C   0  0  0  0  0  0  0  0  0  0  0  0
   -3.1894    0.1133    1.0202 C   0  0  0  0  0  0  0  0  0  0  0  0
   -2.2576   -0.9115    1.0271 C   0  0  0  0  0  0  0  0  0  0  0  0
   -1.2832   -0.9679    0.0479 C   0  0  0  0  0  0  0  0  0  0  0  0
    3.7391   -1.2627    1.3143 H   0  0  0  0  0  0  0  0  0  0  0  0
    2.2944   -1.7664    0.4305 H   0  0  0  0  0  0  0  0  0  0  0  0
    2.1611   -0.5934    1.7442 H   0  0  0  0  0  0  0  0  0  0  0  0
    3.6282   -0.1456   -0.8998 H   0  0  0  0  0  0  0  0  0  0  0  0
    3.4708    1.0515    0.3960 H   0  0  0  0  0  0  0  0  0  0  0  0
    1.8212    1.5607   -1.3079 H   0  0  0  0  0  0  0  0  0  0  0  0
    0.9627    0.9343    0.1221 H   0  0  0  0  0  0  0  0  0  0  0  0
   -0.1101    0.8675   -2.5688 H   0  0  0  0  0  0  0  0  0  0  0  0
   -0.3643   -0.8929   -2.6919 H   0  0  0  0  0  0  0  0  0  0  0  0
   -2.1158    1.7932   -1.7072 H   0  0  0  0  0  0  0  0  0  0  0  0
   -3.8614    1.8853    0.0255 H   0  0  0  0  0  0  0  0  0  0  0  0
   -3.9523    0.1575    1.7835 H   0  0  0  0  0  0  0  0  0  0  0  0
   -2.2925   -1.6693    1.7962 H   0  0  0  0  0  0  0  0  0  0  0  0
   -0.5496   -1.7606    0.0467 H   0  0  0  0  0  0  0  0  0  0  0  0
  1  2  1  0  0  0  0
  2  3  1  0  0  0  0
  3  4  1  0  0  0  0
  4  5  1  0  0  0  0
  5  6  1  0  0  0  0
  6  7  4  0  0  0  0
  7  8  4  0  0  0  0
  8  9  4  0  0  0  0
  9 10  4  0  0  0  0
  6 11  4  0  0  0  0
 10 11  4  0  0  0  0
  1 12  1  0  0  0  0
  1 13  1  0  0  0  0
  1 14  1  0  0  0  0
  2 15  1  0  0  0  0
  2 16  1  0  0  0  0
  3 17  1  0  0  0  0
  3 18  1  0  0  0  0
  5 19  1  0  0  0  0
  5 20  1  0  0  0  0
  7 21  1  0  0  0  0
  8 22  1  0  0  0  0
  9 23  1  0  0  0  0
 10 24  1  0  0  0  0
 11 25  1  0  0  0  0
M  END
