 xtb: 6.7.1 (edcfbbe)
          07082616063D

 39 40  0     0  0            999 V2000
    3.7496    1.4489    0.7825 C   0  0  0  0  0  0  0  0  0  0  0  0
    3.0809    0.5606    0.0633 C   0  0  0  0  0  0  0  0  0  0  0  0
    3.5943    0.0825   -1.2612 C   0  0  0  0  0  0  0  0  0  0  0  0
    1.7640    0.0045    0.5499 C   0  0  0  0  0  0  0  0  0  0  0  0
    1.6686   -1.5146    0.4240 C   0  0  0  0  0  0  0  0  0  0  0  0
    0.3394   -1.9882    1.0080 C   0  0  0  0  0  0  0  0  0  0  0  0
   -0.8229   -1.3244    0.3201 C   0  0  0  0  0  0  0  0  0  0  0  0
   -1.7960   -2.0549   -0.2069 C   0  0  0  0  0  0  0  0  0  0  0  0
   -3.0063   -1.5066   -0.8914 C   0  0  0  0  0  0  0  0  0  0  0  0
   -3.1806   -0.0295   -0.5689 C   0  0  0  0  0  0  0  0  0  0  0  0
   -1.8503    0.7033   -0.7437 C   0  0  0  0  0  0  0  0  0  0  0  0
   -2.0810    2.2132   -0.6906 C   0  0  0  0  0  0  0  0  0  0  0  0
   -0.7933    0.1923    0.2701 C   0  0  0  0  0  0  0  0  0  0  0  0
   -1.0598    0.7529    1.6743 C   0  0  0  0  0  0  0  0  0  0  0  0
    0.6002    0.6400   -0.2196 C   0  0  0  0  0  0  0  0  0  0  0  0
    3.3954    1.7919    1.7403 H   0  0  0  0  0  0  0  0  0  0  0  0
    4.6808    1.8726    0.4448 H   0  0  0  0  0  0  0  0  0  0  0  0
    3.9095   -0.9581   -1.1911 H   0  0  0  0  0  0  0  0  0  0  0  0
    2.8222    0.1477   -2.0253 H   0  0  0  0  0  0  0  0  0  0  0  0
    4.4476    0.6771   -1.5773 H   0  0  0  0  0  0  0  0  0  0  0  0
    1.6684    0.2702    1.6072 H   0  0  0  0  0  0  0  0  0  0  0  0
    1.7167   -1.8067   -0.6264 H   0  0  0  0  0  0  0  0  0  0  0  0
    2.4988   -1.9899    0.9518 H   0  0  0  0  0  0  0  0  0  0  0  0
    0.2527   -3.0718    0.9055 H   0  0  0  0  0  0  0  0  0  0  0  0
    0.3180   -1.7588    2.0772 H   0  0  0  0  0  0  0  0  0  0  0  0
   -1.7406   -3.1353   -0.1543 H   0  0  0  0  0  0  0  0  0  0  0  0
   -3.8899   -2.0731   -0.5853 H   0  0  0  0  0  0  0  0  0  0  0  0
   -2.8980   -1.6425   -1.9735 H   0  0  0  0  0  0  0  0  0  0  0  0
   -3.5343    0.0811    0.4573 H   0  0  0  0  0  0  0  0  0  0  0  0
   -3.9322    0.4121   -1.2269 H   0  0  0  0  0  0  0  0  0  0  0  0
   -1.4760    0.4570   -1.7449 H   0  0  0  0  0  0  0  0  0  0  0  0
   -2.7139    2.5128   -1.5238 H   0  0  0  0  0  0  0  0  0  0  0  0
   -2.5833    2.4988    0.2298 H   0  0  0  0  0  0  0  0  0  0  0  0
   -1.1475    2.7640   -0.7663 H   0  0  0  0  0  0  0  0  0  0  0  0
   -2.0844    0.5543    1.9782 H   0  0  0  0  0  0  0  0  0  0  0  0
   -0.4048    0.2928    2.4080 H   0  0  0  0  0  0  0  0  0  0  0  0
   -0.8881    1.8258    1.6976 H   0  0  0  0  0  0  0  0  0  0  0  0
    0.6940    0.3723   -1.2747 H   0  0  0  0  0  0  0  0  0  0  0  0
    0.6819    1.7257   -0.1426 H   0  0  0  0  0  0  0  0  0  0  0  0
  1  2  2  0  0  0  0
  2  3  1  0  0  0  0
  2  4  1  0  0  0  0
  4  5  1  0  0  0  0
  5  6  1  0  0  0  0
  6  7  1  0  0  0  0
  7  8  2  0  0  0  0
  8  9  1  0  0  0  0
  9 10  1  0  0  0  0
 10 11  1  0  0  0  0
 11 12  1  0  0  0  0
  7 13  1  0  0  0  0
 11 13  1  0  0  0  0
 13 14  1  0  0  0  0
  4 15  1  0  0  0  0
 13 15  1  0  0  0  0
  1 16  1  0  0  0  0
  1 17  1  0  0  0  0
  3 18  1  0  0  0  0
  3 19  1  0  0  0  0
  3 20  1  0  0  0  0
  4 21  1  0  0  0  0
  5 22  1  0  0  0  0
  5 23  1  0  0  0  0
  6 24  1  0  0  0  0
  6 25  1  0  0  0  0
  8 26  1  0  0  0  0
  9 27  1  0  0  0  0
  9 28  1  0  0  0  0
 10 29  1  0  0  0  0
 10 30  1  0  0  0  0
 11 31  1  0  0  0  0
 12 32  1  0  0  0  0
 12 33  1  0  0  0  0
 12 34  1  0  0  0  0
 14 35  1  0  0  0  0
 14 36  1  0  0  0  0
 14 37  1  0  0  0  0
 15 38  1  0  0  0  0
 15 39  1  0  0  0  0
M  END
