 xtb: 6.7.1 (edcfbbe)
          07092604293D

 18 19  0     0  0            999 V2000
    1.2352    3.2415   -0.4702 Br  0  0  0  0  0  0  0  0  0  0  0  0
    1.2017    1.3653   -0.1122 C   0  0  0  0  0  0  0  0  0  0  0  0
    2.3895    0.7438    0.1575 C   0  0  0  0  0  0  0  0  0  0  0  0
    2.4101   -0.6319    0.4257 C   0  0  0  0  0  0  0  0  0  0  0  0
    1.2495   -1.3523    0.4185 C   0  0  0  0  0  0  0  0  0  0  0  0
    0.0141   -0.7299    0.1427 C   0  0  0  0  0  0  0  0  0  0  0  0
   -1.1938   -1.4580    0.1311 C   0  0  0  0  0  0  0  0  0  0  0  0
   -2.3840   -0.8429   -0.1377 C   0  0  0  0  0  0  0  0  0  0  0  0
   -2.4206    0.5327   -0.4078 C   0  0  0  0  0  0  0  0  0  0  0  0
   -1.2693    1.2700   -0.4051 C   0  0  0  0  0  0  0  0  0  0  0  0
   -0.0264    0.6659   -0.1319 C   0  0  0  0  0  0  0  0  0  0  0  0
    3.3098    1.3075    0.1646 H   0  0  0  0  0  0  0  0  0  0  0  0
    3.3550   -1.1092    0.6369 H   0  0  0  0  0  0  0  0  0  0  0  0
    1.2591   -2.4126    0.6244 H   0  0  0  0  0  0  0  0  0  0  0  0
   -1.1560   -2.5173    0.3404 H   0  0  0  0  0  0  0  0  0  0  0  0
   -3.3027   -1.4105   -0.1438 H   0  0  0  0  0  0  0  0  0  0  0  0
   -3.3663    1.0088   -0.6189 H   0  0  0  0  0  0  0  0  0  0  0  0
   -1.3050    2.3289   -0.6141 H   0  0  0  0  0  0  0  0  0  0  0  0
  1  2  1  0  0  0  0
  2  3  2  0  0  0  0
  3  4  4  0  0  0  0
  4  5  2  0  0  0  0
  5  6  4  0  0  0  0
  6  7  4  0  0  0  0
  7  8  2  0  0  0  0
  8  9  4  0  0  0  0
  9 10  2  0  0  0  0
  2 11  4  0  0  0  0
  6 11  4  0  0  0  0
 10 11  4  0  0  0  0
  3 12  1  0  0  0  0
  4 13  1  0  0  0  0
  5 14  1  0  0  0  0
  7 15  1  0  0  0  0
  8 16  1  0  0  0  0
  9 17  1  0  0  0  0
 10 18  1  0  0  0  0
M  END
