 xtb: 6.7.1 (edcfbbe)
          07082605553D

 29 30  0     0  0            999 V2000
   -0.3033   -0.8205   -2.2426 O   0  0  0  0  0  0  0  0  0  0  0  0
   -0.8529    0.0104   -1.2423 C   0  0  0  0  0  0  0  0  0  0  0  0
   -2.3723   -0.1209   -1.3188 C   0  0  0  0  0  0  0  0  0  0  0  0
   -3.0512    0.7256   -0.2486 C   0  0  0  0  0  0  0  0  0  0  0  0
   -2.5577    0.3285    1.1393 C   0  0  0  0  0  0  0  0  0  0  0  0
   -1.0419    0.4749    1.2246 C   0  0  0  0  0  0  0  0  0  0  0  0
   -0.3559   -0.3901    0.1620 C   0  0  0  0  0  0  0  0  0  0  0  0
    1.1460   -0.2980    0.2461 C   0  0  0  0  0  0  0  0  0  0  0  0
    1.9075   -1.4433    0.4535 C   0  0  0  0  0  0  0  0  0  0  0  0
    3.2880   -1.3850    0.5203 C   0  0  0  0  0  0  0  0  0  0  0  0
    3.9070   -0.1584    0.3728 C   0  0  0  0  0  0  0  0  0  0  0  0
    5.2542   -0.0883    0.4347 F   0  0  0  0  0  0  0  0  0  0  0  0
    3.1820    0.9998    0.1609 C   0  0  0  0  0  0  0  0  0  0  0  0
    1.8032    0.9204    0.0987 C   0  0  0  0  0  0  0  0  0  0  0  0
    0.6574   -0.8060   -2.1638 H   0  0  0  0  0  0  0  0  0  0  0  0
   -0.5706    1.0588   -1.4366 H   0  0  0  0  0  0  0  0  0  0  0  0
   -2.6984    0.1800   -2.3150 H   0  0  0  0  0  0  0  0  0  0  0  0
   -2.6303   -1.1733   -1.1889 H   0  0  0  0  0  0  0  0  0  0  0  0
   -2.8293    1.7809   -0.4243 H   0  0  0  0  0  0  0  0  0  0  0  0
   -4.1329    0.5963   -0.3117 H   0  0  0  0  0  0  0  0  0  0  0  0
   -3.0310    0.9552    1.8976 H   0  0  0  0  0  0  0  0  0  0  0  0
   -2.8353   -0.7084    1.3403 H   0  0  0  0  0  0  0  0  0  0  0  0
   -0.6884    0.1761    2.2137 H   0  0  0  0  0  0  0  0  0  0  0  0
   -0.7727    1.5222    1.0763 H   0  0  0  0  0  0  0  0  0  0  0  0
   -0.6482   -1.4338    0.3211 H   0  0  0  0  0  0  0  0  0  0  0  0
    1.4141   -2.3977    0.5655 H   0  0  0  0  0  0  0  0  0  0  0  0
    3.8811   -2.2708    0.6837 H   0  0  0  0  0  0  0  0  0  0  0  0
    3.6959    1.9413    0.0485 H   0  0  0  0  0  0  0  0  0  0  0  0
    1.2360    1.8237   -0.0672 H   0  0  0  0  0  0  0  0  0  0  0  0
  1  2  1  0  0  0  0
  2  3  1  0  0  0  0
  3  4  1  0  0  0  0
  4  5  1  0  0  0  0
  5  6  1  0  0  0  0
  2  7  1  0  0  0  0
  6  7  1  0  0  0  0
  7  8  1  0  0  0  0
  8  9  4  0  0  0  0
  9 10  4  0  0  0  0
 10 11  4  0  0  0  0
 11 12  1  0  0  0  0
 11 13  4  0  0  0  0
  8 14  4  0  0  0  0
 13 14  4  0  0  0  0
  1 15  1  0  0  0  0
  2 16  1  0  0  0  0
  3 17  1  0  0  0  0
  3 18  1  0  0  0  0
  4 19  1  0  0  0  0
  4 20  1  0  0  0  0
  5 21  1  0  0  0  0
  5 22  1  0  0  0  0
  6 23  1  0  0  0  0
  6 24  1  0  0  0  0
  7 25  1  0  0  0  0
  9 26  1  0  0  0  0
 10 27  1  0  0  0  0
 13 28  1  0  0  0  0
 14 29  1  0  0  0  0
M  END
