 xtb: 6.7.1 (edcfbbe)
          07092620463D

 26 25  0     0  0            999 V2000
    3.7906    0.6638    0.9409 C   0  0  0  0  0  0  0  0  0  0  0  0
    2.4773    0.4309    0.2506 C   0  0  0  0  0  0  0  0  0  0  0  0
    1.7023    1.2874   -0.0886 O   0  0  0  0  0  0  0  0  0  0  0  0
    2.2560   -0.8741    0.0556 O   0  0  0  0  0  0  0  0  0  0  0  0
    0.9894   -1.2047   -0.5107 C   0  0  0  0  0  0  0  0  0  0  0  0
    0.8156   -2.7147   -0.4359 C   0  0  0  0  0  0  0  0  0  0  0  0
   -0.1129   -0.5040    0.2957 C   0  0  0  0  0  0  0  0  0  0  0  0
   -0.0879   -0.4014    1.4930 O   0  0  0  0  0  0  0  0  0  0  0  0
   -1.0886   -0.1046   -0.5008 O   0  0  0  0  0  0  0  0  0  0  0  0
   -2.1679    0.6472    0.0918 C   0  0  0  0  0  0  0  0  0  0  0  0
   -3.4508    0.2488   -0.6223 C   0  0  0  0  0  0  0  0  0  0  0  0
   -1.8544    2.1316   -0.0509 C   0  0  0  0  0  0  0  0  0  0  0  0
    3.6136    0.6369    2.0148 H   0  0  0  0  0  0  0  0  0  0  0  0
    4.4955   -0.1203    0.6832 H   0  0  0  0  0  0  0  0  0  0  0  0
    4.1788    1.6424    0.6750 H   0  0  0  0  0  0  0  0  0  0  0  0
    0.9458   -0.8444   -1.5458 H   0  0  0  0  0  0  0  0  0  0  0  0
    1.6366   -3.2045   -0.9525 H   0  0  0  0  0  0  0  0  0  0  0  0
   -0.1244   -2.9987   -0.9003 H   0  0  0  0  0  0  0  0  0  0  0  0
    0.8156   -3.0281    0.6050 H   0  0  0  0  0  0  0  0  0  0  0  0
   -2.2165    0.3773    1.1542 H   0  0  0  0  0  0  0  0  0  0  0  0
   -4.2867    0.8049   -0.2081 H   0  0  0  0  0  0  0  0  0  0  0  0
   -3.6398   -0.8149   -0.5012 H   0  0  0  0  0  0  0  0  0  0  0  0
   -3.3668    0.4698   -1.6832 H   0  0  0  0  0  0  0  0  0  0  0  0
   -0.8743    2.3406    0.3714 H   0  0  0  0  0  0  0  0  0  0  0  0
   -1.8438    2.4107   -1.1016 H   0  0  0  0  0  0  0  0  0  0  0  0
   -2.6023    2.7222    0.4704 H   0  0  0  0  0  0  0  0  0  0  0  0
  1  2  1  0  0  0  0
  2  3  2  0  0  0  0
  2  4  1  0  0  0  0
  4  5  1  0  0  0  0
  5  6  1  0  0  0  0
  5  7  1  0  0  0  0
  7  8  2  0  0  0  0
  7  9  1  0  0  0  0
  9 10  1  0  0  0  0
 10 11  1  0  0  0  0
 10 12  1  0  0  0  0
  1 13  1  0  0  0  0
  1 14  1  0  0  0  0
  1 15  1  0  0  0  0
  5 16  1  0  0  0  0
  6 17  1  0  0  0  0
  6 18  1  0  0  0  0
  6 19  1  0  0  0  0
 10 20  1  0  0  0  0
 11 21  1  0  0  0  0
 11 22  1  0  0  0  0
 11 23  1  0  0  0  0
 12 24  1  0  0  0  0
 12 25  1  0  0  0  0
 12 26  1  0  0  0  0
M  END
