F6845-0033
  -ISIS-  06222304352D

 18 19  0  0  0  0  0  0  0  0999 V2000
   10.8458   -2.8333    0.0000 C   0  0  0  0  0  0  0  0  0  0  0  0
   11.5583   -2.4167    0.0000 N   0  0  3  0  0  0  0  0  0  0  0  0
   10.8458   -3.6625    0.0000 O   0  0  0  0  0  0  0  0  0  0  0  0
   11.5667   -4.0667    0.0000 C   0  0  1  0  0  0  0  0  0  0  0  0
   11.5667   -5.7167    0.0000 N   0  0  0  0  0  0  0  0  0  0  0  0
   12.2708   -2.8292    0.0000 C   0  0  0  0  0  0  0  0  0  0  0  0
   10.1292   -2.4250    0.0000 O   0  0  0  0  0  0  0  0  0  0  0  0
   12.2792   -4.4792    0.0000 C   0  0  0  0  0  0  0  0  0  0  0  0
   10.8542   -4.4792    0.0000 C   0  0  0  0  0  0  0  0  0  0  0  0
   12.2792   -3.6500    0.0000 C   0  0  0  0  0  0  0  0  0  0  0  0
   10.8542   -5.3042    0.0000 C   0  0  2  0  0  0  0  0  0  0  0  0
   12.2792   -5.3042    0.0000 C   0  0  1  0  0  0  0  0  0  0  0  0
   11.5542   -1.5917    0.0000 C   0  0  3  0  0  0  0  0  0  0  0  0
   11.2417   -4.7417    0.0000 C   0  0  0  0  0  0  0  0  0  0  0  0
   11.8875   -4.7417    0.0000 C   0  0  0  0  0  0  0  0  0  0  0  0
   12.2667   -1.1750    0.0000 C   0  0  0  0  0  0  0  0  0  0  0  0
   10.8375   -1.1833    0.0000 C   0  0  0  0  0  0  0  0  0  0  0  0
   13.6667   -3.5000    0.0000 Cl  0  0  0  0  0  0  0  0  0  0  0  0
  3  1  1  0  0  0  0
  4  3  1  1  0  0  0
  5 12  1  0  0  0  0
  6  2  1  0  0  0  0
  7  1  2  0  0  0  0
  8  4  1  0  0  0  0
  9  4  1  0  0  0  0
 10  4  1  0  0  0  0
 11  9  1  0  0  0  0
 12  8  1  0  0  0  0
 13  2  1  0  0  0  0
 11 14  1  1  0  0  0
 12 15  1  1  0  0  0
 16 13  1  0  0  0  0
 17 13  1  0  0  0  0
  6 10  1  0  0  0  0
  5 11  1  0  0  0  0
 15 14  1  0  0  0  0
  2  1  1  0  0  0  0
M  END
> <IDNUMBER>
F6845-0033

> <Chemical_Name>
5'-(propan-2-yl)-8-azaspiro[bicyclo[3.2.1]octane-3,2'-[1,5]oxazinan]-6'-one hydrochloride

> <CAS>


> <PriceCoeff>
1.00

> <MW>
238.33

> <Description>
solid

> <FSP3>
0.92

> <clogP>
1.24

> <TPSA>
41.57

> <Acceptor>
2

> <Donor>
1

> <RotBonds>
1

> <HAC>
17

> <Collection>
General

> <Reference_compound>
PRI4988

> <Similarity>
0.8020

$$$$
F6482-2348
  -ISIS-  06222321462D

 20 22  0  0  0  0  0  0  0  0999 V2000
   -4.4708    2.4708    0.0000 C   0  0  0  0  0  0  0  0  0  0  0  0
   -3.8000    1.9875    0.0000 N   0  0  3  0  0  0  0  0  0  0  0  0
   -4.0667    1.2042    0.0000 N   0  0  0  0  0  0  0  0  0  0  0  0
   -4.4708    3.2917    0.0000 C   0  0  0  0  0  0  0  0  0  0  0  0
   -5.1417    1.9833    0.0000 C   0  0  0  0  0  0  0  0  0  0  0  0
   -4.8833    1.2000    0.0000 C   0  0  0  0  0  0  0  0  0  0  0  0
   -3.7583    3.7042    0.0000 N   0  0  0  0  0  0  0  0  0  0  0  0
   -4.4625    5.7500    0.0000 C   0  0  3  0  0  0  0  0  0  0  0  0
   -4.4750    4.9333    0.0000 C   0  0  0  0  0  0  0  0  0  0  0  0
   -5.1917    3.7083    0.0000 O   0  0  0  0  0  0  0  0  0  0  0  0
   -3.7583    4.5208    0.0000 C   0  0  3  0  0  0  0  0  0  0  0  0
   -3.7375    6.1667    0.0000 C   0  0  3  0  0  0  0  0  0  0  0  0
   -5.1667    6.1792    0.0000 O   0  0  0  0  0  0  0  0  0  0  0  0
   -3.7292    6.9875    0.0000 O   0  0  0  0  0  0  0  0  0  0  0  0
   -3.0333    5.7500    0.0000 C   0  0  0  0  0  0  0  0  0  0  0  0
   -3.0250    2.2458    0.0000 C   0  0  0  0  0  0  0  0  0  0  0  0
   -3.0375    4.9292    0.0000 C   0  0  0  0  0  0  0  0  0  0  0  0
   -5.3667    0.5292    0.0000 C   0  0  0  0  0  0  0  0  0  0  0  0
   -5.1583    7.0042    0.0000 C   0  0  0  0  0  0  0  0  0  0  0  0
   -4.4417    7.4083    0.0000 C   0  0  0  0  0  0  0  0  0  0  0  0
  2  1  1  0  0  0  0
  3  2  1  0  0  0  0
  4  1  1  0  0  0  0
  5  1  2  0  0  0  0
  6  5  1  0  0  0  0
  7  4  1  0  0  0  0
  8  9  1  0  0  0  0
  9 11  1  0  0  0  0
 10  4  2  0  0  0  0
 11  7  1  0  0  0  0
 12 15  1  0  0  0  0
 13  8  1  0  0  0  0
 14 12  1  0  0  0  0
 15 17  1  0  0  0  0
 16  2  1  0  0  0  0
 17 11  1  0  0  0  0
 18  6  1  0  0  0  0
 19 13  1  0  0  0  0
 20 14  1  0  0  0  0
  3  6  2  0  0  0  0
 12  8  1  0  0  0  0
 20 19  1  0  0  0  0
M  END
> <IDNUMBER>
F6482-2348

> <Chemical_Name>
1,3-dimethyl-N-(octahydro-1,4-benzodioxin-6-yl)-1H-pyrazole-5-carboxamide

> <CAS>
1902907-39-4

> <PriceCoeff>
1.50

> <MW>
279.33

> <Description>
oil

> <FSP3>
0.71

> <clogP>
-0.61

> <TPSA>
65.38

> <Acceptor>
4

> <Donor>
1

> <RotBonds>
2

> <HAC>
20

> <Collection>
Advanced

> <Reference_compound>
CHEMBL2381620

> <Similarity>
0.8400

$$$$
F3395-1848
  -ISIS-  06222321152D

 15 16  0  0  0  0  0  0  0  0999 V2000
    6.4375   -2.7375    0.0000 N   0  0  3  0  0  0  0  0  0  0  0  0
    5.7250   -2.3250    0.0000 C   0  0  3  0  0  0  0  0  0  0  0  0
    6.4375   -3.5625    0.0000 C   0  0  0  0  0  0  0  0  0  0  0  0
    5.0125   -2.7375    0.0000 C   0  0  0  0  0  0  0  0  0  0  0  0
    5.7250   -3.9750    0.0000 O   0  0  0  0  0  0  0  0  0  0  0  0
    4.3000   -3.9792    0.0000 N   0  0  0  0  0  0  0  0  0  0  0  0
    7.1542   -2.3250    0.0000 C   0  0  0  0  0  0  0  0  0  0  0  0
    5.0125   -3.5667    0.0000 C   0  0  0  0  0  0  0  0  0  0  0  0
    5.7250   -1.4917    0.0000 C   0  0  0  0  0  0  0  0  0  0  0  0
    7.1542   -3.9750    0.0000 C   0  0  0  0  0  0  0  0  0  0  0  0
    4.2917   -2.3250    0.0000 C   0  0  0  0  0  0  0  0  0  0  0  0
    3.5792   -3.5667    0.0000 C   0  0  0  0  0  0  0  0  0  0  0  0
    7.1542   -1.4917    0.0000 C   0  0  0  0  0  0  0  0  0  0  0  0
    3.5792   -2.7375    0.0000 C   0  0  0  0  0  0  0  0  0  0  0  0
    6.4375   -1.0792    0.0000 C   0  0  0  0  0  0  0  0  0  0  0  0
  2  1  1  0  0  0  0
  3  1  1  0  0  0  0
  4  2  1  0  0  0  0
  5  3  2  0  0  0  0
  6  8  1  0  0  0  0
  7  1  1  0  0  0  0
  8  4  2  0  0  0  0
  9  2  1  0  0  0  0
 10  3  1  0  0  0  0
 11  4  1  0  0  0  0
 12 14  1  0  0  0  0
 13  7  1  0  0  0  0
 14 11  2  0  0  0  0
 15 13  1  0  0  0  0
  9 15  1  0  0  0  0
 12  6  2  0  0  0  0
M  END
> <IDNUMBER>
F3395-1848

> <Chemical_Name>
1-[2-(pyridin-3-yl)piperidin-1-yl]ethan-1-one

> <CAS>


> <PriceCoeff>
1.00

> <MW>
204.27

> <Description>
oil

> <FSP3>
0.50

> <clogP>
0.04

> <TPSA>
33.20

> <Acceptor>
2

> <Donor>
1

> <RotBonds>
2

> <HAC>
15

> <Collection>
General

> <Reference_compound>
PRI37682

> <Similarity>
0.8100

$$$$
F6546-1184
  -ISIS-  06222321472D

 14 16  0  0  0  0  0  0  0  0999 V2000
   -3.1958    4.2542    0.0000 N   0  0  3  0  0  0  0  0  0  0  0  0
   -3.9208    3.8583    0.0000 C   0  0  0  0  0  0  0  0  0  0  0  0
   -2.5833    4.7167    0.0000 C   0  0  3  0  0  0  0  0  0  0  0  0
   -1.8875    4.8125    0.0000 C   0  0  3  0  0  0  0  0  0  0  0  0
   -3.2000    1.7708    0.0000 N   0  0  0  0  0  0  0  0  0  0  0  0
   -3.9208    3.0208    0.0000 C   0  0  0  0  0  0  0  0  0  0  0  0
   -1.2500    4.3167    0.0000 C   0  0  0  0  0  0  0  0  0  0  0  0
   -1.9458    4.3542    0.0000 C   0  0  0  0  0  0  0  0  0  0  0  0
   -1.8708    5.5667    0.0000 C   0  0  0  0  0  0  0  0  0  0  0  0
   -2.5083    5.5625    0.0000 C   0  0  0  0  0  0  0  0  0  0  0  0
   -3.2000    2.6083    0.0000 C   0  0  0  0  0  0  0  0  0  0  0  0
   -3.9208    1.3500    0.0000 C   0  0  0  0  0  0  0  0  0  0  0  0
   -4.6333    2.6083    0.0000 C   0  0  0  0  0  0  0  0  0  0  0  0
   -4.6333    1.7708    0.0000 C   0  0  0  0  0  0  0  0  0  0  0  0
  2  1  1  0  0  0  0
  3  1  1  0  0  0  0
  4  1  1  0  0  0  0
  5 11  1  0  0  0  0
  6  2  1  0  0  0  0
  7  4  1  0  0  0  0
  8  3  1  0  0  0  0
  9  4  1  0  0  0  0
 10  3  1  0  0  0  0
 11  6  2  0  0  0  0
 12 14  1  0  0  0  0
 13  6  1  0  0  0  0
 14 13  2  0  0  0  0
 10  9  1  0  0  0  0
  7  8  1  0  0  0  0
 12  5  2  0  0  0  0
M  END
> <IDNUMBER>
F6546-1184

> <Chemical_Name>
7-[(pyridin-3-yl)methyl]-7-azabicyclo[2.2.1]heptane

> <CAS>
445387-35-9

> <PriceCoeff>
1.50

> <MW>
188.26

> <Description>
oil

> <FSP3>
0.58

> <clogP>
1.42

> <TPSA>
16.13

> <Acceptor>
1

> <Donor>
2

> <RotBonds>
2

> <HAC>
14

> <Collection>
Advanced

> <Reference_compound>
CHEMBL9732

> <Similarity>
0.8060

$$$$
F6541-1260
  -ISIS-  06222304352D

 14 13  0  0  0  0  0  0  0  0999 V2000
    1.8542    0.0458    0.0000 N   0  0  3  0  0  0  0  0  0  0  0  0
    5.0167   -1.3667    0.0000 N   0  0  0  0  0  0  0  0  0  0  0  0
    2.4417   -0.7667    0.0000 C   0  0  0  0  0  0  0  0  0  0  0  0
    3.4417   -0.6625    0.0000 C   0  0  0  0  0  0  0  0  0  0  0  0
    4.0292   -1.4750    0.0000 C   0  0  0  0  0  0  0  0  0  0  0  0
    2.1667    1.0000    0.0000 C   0  0  0  0  0  0  0  0  0  0  0  0
    0.8542    0.0458    0.0000 C   0  0  0  0  0  0  0  0  0  0  0  0
    5.4250   -0.4542    0.0000 C   0  0  0  0  0  0  0  0  0  0  0  0
    3.8417    0.2500    0.0000 C   0  0  0  0  0  0  0  0  0  0  0  0
    4.8417    0.3583    0.0000 C   0  0  0  0  0  0  0  0  0  0  0  0
    1.3542    1.5833    0.0000 C   0  0  0  0  0  0  0  0  0  0  0  0
    0.5417    1.0000    0.0000 C   0  0  0  0  0  0  0  0  0  0  0  0
    6.8250   -0.7166    0.0000 Cl  0  0  0  0  0  0  0  0  0  0  0  0
    6.8250    0.8167    0.0000 Cl  0  0  0  0  0  0  0  0  0  0  0  0
  4  3  1  0  0  0  0
  5  4  2  0  0  0  0
  6  1  1  0  0  0  0
  7  1  1  0  0  0  0
  8 10  1  0  0  0  0
  9  4  1  0  0  0  0
 10  9  2  0  0  0  0
 11  6  1  0  0  0  0
 12  7  1  0  0  0  0
 11 12  1  0  0  0  0
  2  8  2  0  0  0  0
  2  5  1  0  0  0  0
  3  1  1  0  0  0  0
M  END
> <IDNUMBER>
F6541-1260

> <Chemical_Name>
3-[(pyrrolidin-1-yl)methyl]pyridine dihydrochloride

> <CAS>
2034456-53-4

> <PriceCoeff>
1.50

> <MW>
162.23

> <Description>
solid

> <FSP3>
0.50

> <clogP>
1.11

> <TPSA>
16.13

> <Acceptor>
1

> <Donor>
2

> <RotBonds>
2

> <HAC>
12

> <Collection>
Advanced

> <Reference_compound>
CHEMBL431574

> <Similarity>
0.8110

$$$$
F2644-0496
  -ISIS-  06222321152D

 19 20  0  0  0  0  0  0  0  0999 V2000
    4.0875   -4.5042    0.0000 C   0  0  0  0  0  0  0  0  0  0  0  0
    4.0875   -3.6792    0.0000 C   0  0  0  0  0  0  0  0  0  0  0  0
    4.8667   -4.7542    0.0000 N   0  0  0  0  0  0  0  0  0  0  0  0
    3.3750   -4.9250    0.0000 N   0  0  3  0  0  0  0  0  0  0  0  0
    2.6542   -3.6750    0.0000 N   0  0  3  0  0  0  0  0  0  0  0  0
    2.6542   -4.5167    0.0000 C   0  0  0  0  0  0  0  0  0  0  0  0
    3.3750   -3.2667    0.0000 C   0  0  0  0  0  0  0  0  0  0  0  0
    4.8667   -3.4375    0.0000 N   0  0  3  0  0  0  0  0  0  0  0  0
    5.3417   -4.0792    0.0000 C   0  0  0  0  0  0  0  0  0  0  0  0
    5.1375   -2.6292    0.0000 C   0  0  0  0  0  0  0  0  0  0  0  0
    1.9417   -4.9542    0.0000 O   0  0  0  0  0  0  0  0  0  0  0  0
    3.3750   -2.4417    0.0000 O   0  0  0  0  0  0  0  0  0  0  0  0
    6.1667   -4.0542    0.0000 N   0  0  0  0  0  0  0  0  0  0  0  0
    3.3750   -5.7417    0.0000 C   0  0  0  0  0  0  0  0  0  0  0  0
    1.9417   -3.2542    0.0000 C   0  0  0  0  0  0  0  0  0  0  0  0
    4.6042   -2.0125    0.0000 C   0  0  0  0  0  0  0  0  0  0  0  0
    4.8750   -1.2292    0.0000 C   0  0  3  0  0  0  0  0  0  0  0  0
    5.6792   -1.0792    0.0000 C   0  0  0  0  0  0  0  0  0  0  0  0
    4.3292   -0.6042    0.0000 C   0  0  0  0  0  0  0  0  0  0  0  0
  2  1  2  0  0  0  0
  3  1  1  0  0  0  0
  4  1  1  0  0  0  0
  5  6  1  0  0  0  0
  6  4  1  0  0  0  0
  7  2  1  0  0  0  0
  8  2  1  0  0  0  0
  9  3  2  0  0  0  0
 10  8  1  0  0  0  0
 11  6  2  0  0  0  0
 12  7  2  0  0  0  0
 13  9  1  0  0  0  0
 14  4  1  0  0  0  0
 15  5  1  0  0  0  0
 16 10  1  0  0  0  0
 17 16  1  0  0  0  0
 18 17  1  0  0  0  0
 19 17  1  0  0  0  0
  9  8  1  0  0  0  0
  5  7  1  0  0  0  0
M  END
> <IDNUMBER>
F2644-0496

> <Chemical_Name>
8-amino-1,3-dimethyl-7-(3-methylbutyl)-2,3,6,7-tetrahydro-1H-purine-2,6-dione

> <CAS>
1370596-54-5

> <PriceCoeff>
1.00

> <MW>
265.31

> <Description>
solid

> <FSP3>
0.58

> <clogP>
1.68

> <TPSA>
84.46

> <Acceptor>
3

> <Donor>
2

> <RotBonds>
3

> <HAC>
19

> <Collection>
General

> <Reference_compound>
CHEMBL113

> <Similarity>
0.8180

$$$$
F2163-0215
  -ISIS-  06222321442D

 11 12  0  0  0  0  0  0  0  0999 V2000
    1.0875   -1.8667    0.0000 C   0  0  0  0  0  0  0  0  0  0  0  0
    1.0875   -1.0417    0.0000 C   0  0  0  0  0  0  0  0  0  0  0  0
    1.7917   -0.6292    0.0000 N   0  0  0  0  0  0  0  0  0  0  0  0
    1.8000   -2.2792    0.0000 C   0  0  0  0  0  0  0  0  0  0  0  0
    1.7917   -3.1042    0.0000 N   0  0  0  0  0  0  0  0  0  0  0  0
    2.5042   -1.0417    0.0000 C   0  0  0  0  0  0  0  0  0  0  0  0
    2.5083   -1.8667    0.0000 C   0  0  0  0  0  0  0  0  0  0  0  0
    0.3750   -2.2792    0.0000 C   0  0  0  0  0  0  0  0  0  0  0  0
    0.3750   -0.6292    0.0000 C   0  0  0  0  0  0  0  0  0  0  0  0
   -0.3333   -1.8667    0.0000 C   0  0  0  0  0  0  0  0  0  0  0  0
   -0.3333   -1.0417    0.0000 C   0  0  0  0  0  0  0  0  0  0  0  0
  2  1  2  0  0  0  0
  3  2  1  0  0  0  0
  4  1  1  0  0  0  0
  5  4  1  0  0  0  0
  6  7  1  0  0  0  0
  7  4  2  0  0  0  0
  8  1  1  0  0  0  0
  9  2  1  0  0  0  0
 10  8  1  0  0  0  0
 11 10  1  0  0  0  0
 11  9  1  0  0  0  0
  6  3  2  0  0  0  0
M  END
> <IDNUMBER>
F2163-0215

> <Chemical_Name>
5,6,7,8-tetrahydroquinolin-4-amine

> <CAS>
14807-39-7

> <PriceCoeff>
1.00

> <MW>
148.21

> <Description>
solid

> <FSP3>
0.44

> <clogP>
1.89

> <TPSA>
38.91

> <Acceptor>
1

> <Donor>
2

> <RotBonds>
0

> <HAC>
11

> <Collection>
General

> <Reference_compound>
CHEMBL95

> <Similarity>
0.8250

$$$$
F6617-2271
  -ISIS-  06222321472D

 14 15  0  0  0  0  0  0  0  0999 V2000
   -1.4500   -4.9000    0.0000 N   0  0  0  0  0  0  0  0  0  0  0  0
   -2.2750   -4.9000    0.0000 C   0  0  0  0  0  0  0  0  0  0  0  0
   -1.1958   -4.1167    0.0000 C   0  0  0  0  0  0  0  0  0  0  0  0
   -1.8625   -3.6292    0.0000 N   0  0  0  0  0  0  0  0  0  0  0  0
   -2.5333   -4.1167    0.0000 O   0  0  0  0  0  0  0  0  0  0  0  0
   -2.7625   -5.5667    0.0000 C   0  0  0  0  0  0  0  0  0  0  0  0
   -2.4250   -6.3167    0.0000 N   0  0  0  0  0  0  0  0  0  0  0  0
   -0.4083   -3.8625    0.0000 C   0  0  3  0  0  0  0  0  0  0  0  0
   -2.9125   -6.9875    0.0000 C   0  0  0  0  0  0  0  0  0  0  0  0
   -3.5833   -5.4792    0.0000 C   0  0  0  0  0  0  0  0  0  0  0  0
    0.2000   -4.4125    0.0000 C   0  0  0  0  0  0  0  0  0  0  0  0
   -0.2333   -3.0542    0.0000 C   0  0  0  0  0  0  0  0  0  0  0  0
   -3.7333   -6.9042    0.0000 C   0  0  0  0  0  0  0  0  0  0  0  0
   -4.0625   -6.1500    0.0000 C   0  0  0  0  0  0  0  0  0  0  0  0
  2  1  2  0  0  0  0
  3  1  1  0  0  0  0
  4  3  2  0  0  0  0
  5  2  1  0  0  0  0
  6  2  1  0  0  0  0
  7  6  1  0  0  0  0
  8  3  1  0  0  0  0
  9  7  2  0  0  0  0
 10  6  2  0  0  0  0
 11  8  1  0  0  0  0
 12  8  1  0  0  0  0
 13 14  2  0  0  0  0
 14 10  1  0  0  0  0
  5  4  1  0  0  0  0
  9 13  1  0  0  0  0
M  END
> <IDNUMBER>
F6617-2271

> <Chemical_Name>
2-[3-(propan-2-yl)-1,2,4-oxadiazol-5-yl]pyridine

> <CAS>
2379949-36-5

> <PriceCoeff>
1.50

> <MW>
189.21

> <Description>
liquid

> <FSP3>
0.30

> <clogP>
1.60

> <TPSA>
51.81

> <Acceptor>
4

> <Donor>
1

> <RotBonds>
2

> <HAC>
14

> <Collection>
Advanced

> <Reference_compound>
CHEMBL2268705

> <Similarity>
0.8930

$$$$
F6617-2272
  -ISIS-  06222321162D

 14 15  0  0  0  0  0  0  0  0999 V2000
   -1.4500   -4.9042    0.0000 N   0  0  0  0  0  0  0  0  0  0  0  0
   -1.1958   -4.1167    0.0000 C   0  0  0  0  0  0  0  0  0  0  0  0
   -2.2750   -4.9042    0.0000 C   0  0  0  0  0  0  0  0  0  0  0  0
   -1.8625   -3.6292    0.0000 N   0  0  0  0  0  0  0  0  0  0  0  0
   -2.5333   -4.1167    0.0000 O   0  0  0  0  0  0  0  0  0  0  0  0
   -2.7625   -5.5667    0.0000 C   0  0  0  0  0  0  0  0  0  0  0  0
   -3.7333   -6.9042    0.0000 N   0  0  0  0  0  0  0  0  0  0  0  0
   -0.4083   -3.8625    0.0000 C   0  0  3  0  0  0  0  0  0  0  0  0
   -4.0625   -6.1542    0.0000 C   0  0  0  0  0  0  0  0  0  0  0  0
   -2.9125   -6.9917    0.0000 C   0  0  0  0  0  0  0  0  0  0  0  0
   -3.5833   -5.4792    0.0000 C   0  0  0  0  0  0  0  0  0  0  0  0
   -2.4250   -6.3167    0.0000 C   0  0  0  0  0  0  0  0  0  0  0  0
    0.2000   -4.4167    0.0000 C   0  0  0  0  0  0  0  0  0  0  0  0
   -0.2333   -3.0542    0.0000 C   0  0  0  0  0  0  0  0  0  0  0  0
  2  1  1  0  0  0  0
  3  1  2  0  0  0  0
  4  2  2  0  0  0  0
  5  3  1  0  0  0  0
  6  3  1  0  0  0  0
  7 10  2  0  0  0  0
  8  2  1  0  0  0  0
  9 11  2  0  0  0  0
 10 12  1  0  0  0  0
 11  6  1  0  0  0  0
 12  6  2  0  0  0  0
 13  8  1  0  0  0  0
 14  8  1  0  0  0  0
  4  5  1  0  0  0  0
  9  7  1  0  0  0  0
M  END
> <IDNUMBER>
F6617-2272

> <Chemical_Name>
4-[3-(propan-2-yl)-1,2,4-oxadiazol-5-yl]pyridine

> <CAS>
2310099-38-6

> <PriceCoeff>
1.00

> <MW>
189.21

> <Description>
solid

> <FSP3>
0.30

> <clogP>
1.39

> <TPSA>
51.81

> <Acceptor>
4

> <Donor>
1

> <RotBonds>
2

> <HAC>
14

> <Collection>
General

> <Reference_compound>
CHEMBL2272947

> <Similarity>
0.8870

$$$$
F6561-4597
  -ISIS-  06222321442D

 15 16  0  0  0  0  0  0  0  0999 V2000
   -3.1583    4.2042    0.0000 N   0  0  3  0  0  0  0  0  0  0  0  0
   -2.3333    4.3375    0.0000 C   0  0  3  0  0  0  0  0  0  0  0  0
   -2.7083    4.7667    0.0000 C   0  0  3  0  0  0  0  0  0  0  0  0
   -3.8708    3.8000    0.0000 C   0  0  0  0  0  0  0  0  0  0  0  0
   -1.8875    5.8417    0.0000 C   0  0  0  0  0  0  0  0  0  0  0  0
   -2.7208    5.7042    0.0000 C   0  0  0  0  0  0  0  0  0  0  0  0
   -2.3208    5.3250    0.0000 C   0  0  0  0  0  0  0  0  0  0  0  0
   -1.9958    4.4292    0.0000 C   0  0  0  0  0  0  0  0  0  0  0  0
   -1.6208    3.8083    0.0000 C   0  0  0  0  0  0  0  0  0  0  0  0
   -4.5833    4.2042    0.0000 O   0  0  0  0  0  0  0  0  0  0  0  0
   -1.1708    6.2542    0.0000 C   0  0  0  0  0  0  0  0  0  0  0  0
   -4.5833    1.7375    0.0000 C   0  0  0  0  0  0  0  0  0  0  0  0
   -5.2875    1.3333    0.0000 C   0  0  0  0  0  0  0  0  0  0  0  0
   -3.8708    2.9833    0.0000 C   0  0  0  0  0  0  0  0  0  0  0  0
   -4.5833    2.5792    0.0000 C   0  0  0  0  0  0  0  0  0  0  0  0
  2  1  1  0  0  0  0
  3  1  1  0  0  0  0
  4  1  1  0  0  0  0
  5  6  1  0  0  0  0
  6  3  1  0  0  0  0
  7  2  1  0  0  0  0
  8  3  1  0  0  0  0
  9  2  1  0  0  0  0
 10  4  2  0  0  0  0
 11  5  2  0  0  0  0
 12 15  1  0  0  0  0
 13 12  2  0  0  0  0
 14  4  1  0  0  0  0
 15 14  1  0  0  0  0
  9  8  1  0  0  0  0
  5  7  1  0  0  0  0
M  END
> <IDNUMBER>
F6561-4597

> <Chemical_Name>
1-{3-methylidene-8-azabicyclo[3.2.1]octan-8-yl}pent-4-en-1-one

> <CAS>
2320574-48-7

> <PriceCoeff>
1.00

> <MW>
205.30

> <Description>
liquid

> <FSP3>
0.62

> <clogP>
1.43

> <TPSA>
20.31

> <Acceptor>
1

> <Donor>
0

> <RotBonds>
4

> <HAC>
15

> <Collection>
General

> <Reference_compound>
CHEMBL2272437

> <Similarity>
0.8130

$$$$
F6617-2251
  -ISIS-  06222321472D

 14 16  0  0  0  0  0  0  0  0999 V2000
   -1.4500   -4.9000    0.0000 N   0  0  0  0  0  0  0  0  0  0  0  0
   -2.2750   -4.9000    0.0000 C   0  0  0  0  0  0  0  0  0  0  0  0
   -1.1958   -4.1167    0.0000 C   0  0  0  0  0  0  0  0  0  0  0  0
   -1.8625   -3.6292    0.0000 N   0  0  0  0  0  0  0  0  0  0  0  0
   -2.5333   -4.1167    0.0000 O   0  0  0  0  0  0  0  0  0  0  0  0
   -0.4083   -3.8625    0.0000 C   0  0  3  0  0  0  0  0  0  0  0  0
    0.1500   -3.2500    0.0000 C   0  0  0  0  0  0  0  0  0  0  0  0
    0.4000   -4.0292    0.0000 C   0  0  0  0  0  0  0  0  0  0  0  0
   -2.7625   -5.5667    0.0000 C   0  0  0  0  0  0  0  0  0  0  0  0
   -2.4250   -6.3167    0.0000 N   0  0  0  0  0  0  0  0  0  0  0  0
   -2.9125   -6.9875    0.0000 C   0  0  0  0  0  0  0  0  0  0  0  0
   -3.5833   -5.4792    0.0000 C   0  0  0  0  0  0  0  0  0  0  0  0
   -3.7333   -6.9042    0.0000 C   0  0  0  0  0  0  0  0  0  0  0  0
   -4.0625   -6.1500    0.0000 C   0  0  0  0  0  0  0  0  0  0  0  0
  2  1  2  0  0  0  0
  3  1  1  0  0  0  0
  4  3  2  0  0  0  0
  5  2  1  0  0  0  0
  6  3  1  0  0  0  0
  7  6  1  0  0  0  0
  8  6  1  0  0  0  0
  9  2  1  0  0  0  0
 10  9  1  0  0  0  0
 11 10  2  0  0  0  0
 12  9  2  0  0  0  0
 13 14  2  0  0  0  0
 14 12  1  0  0  0  0
  5  4  1  0  0  0  0
  7  8  1  0  0  0  0
 11 13  1  0  0  0  0
M  END
> <IDNUMBER>
F6617-2251

> <Chemical_Name>
2-(3-cyclopropyl-1,2,4-oxadiazol-5-yl)pyridine

> <CAS>
2309708-27-6

> <PriceCoeff>
1.50

> <MW>
187.20

> <Description>
solid

> <FSP3>
0.30

> <clogP>
1.11

> <TPSA>
51.81

> <Acceptor>
4

> <Donor>
1

> <RotBonds>
2

> <HAC>
14

> <Collection>
Advanced

> <Reference_compound>
CHEMBL2268705

> <Similarity>
0.8300

$$$$
F6617-2260
  -ISIS-  06222321442D

 14 16  0  0  0  0  0  0  0  0999 V2000
   -1.4500   -4.9000    0.0000 N   0  0  0  0  0  0  0  0  0  0  0  0
   -1.1958   -4.1167    0.0000 C   0  0  0  0  0  0  0  0  0  0  0  0
   -2.2750   -4.9000    0.0000 C   0  0  0  0  0  0  0  0  0  0  0  0
   -1.8625   -3.6292    0.0000 N   0  0  0  0  0  0  0  0  0  0  0  0
   -2.5333   -4.1167    0.0000 O   0  0  0  0  0  0  0  0  0  0  0  0
   -0.4083   -3.8625    0.0000 C   0  0  3  0  0  0  0  0  0  0  0  0
   -2.7625   -5.5667    0.0000 C   0  0  0  0  0  0  0  0  0  0  0  0
    0.1500   -3.2500    0.0000 C   0  0  0  0  0  0  0  0  0  0  0  0
    0.4000   -4.0292    0.0000 C   0  0  0  0  0  0  0  0  0  0  0  0
   -2.9125   -6.9875    0.0000 N   0  0  0  0  0  0  0  0  0  0  0  0
   -2.4250   -6.3167    0.0000 C   0  0  0  0  0  0  0  0  0  0  0  0
   -3.5833   -5.4792    0.0000 C   0  0  0  0  0  0  0  0  0  0  0  0
   -3.7333   -6.9042    0.0000 C   0  0  0  0  0  0  0  0  0  0  0  0
   -4.0625   -6.1500    0.0000 C   0  0  0  0  0  0  0  0  0  0  0  0
  2  1  1  0  0  0  0
  3  1  2  0  0  0  0
  4  2  2  0  0  0  0
  5  3  1  0  0  0  0
  6  2  1  0  0  0  0
  7  3  1  0  0  0  0
  8  6  1  0  0  0  0
  9  6  1  0  0  0  0
 10 11  1  0  0  0  0
 11  7  2  0  0  0  0
 12  7  1  0  0  0  0
 13 14  1  0  0  0  0
 14 12  2  0  0  0  0
  4  5  1  0  0  0  0
  8  9  1  0  0  0  0
 10 13  2  0  0  0  0
M  END
> <IDNUMBER>
F6617-2260

> <Chemical_Name>
3-(3-cyclopropyl-1,2,4-oxadiazol-5-yl)pyridine

> <CAS>
2380169-40-2

> <PriceCoeff>
1.50

> <MW>
187.20

> <Description>
oil

> <FSP3>
0.30

> <clogP>
0.90

> <TPSA>
51.81

> <Acceptor>
4

> <Donor>
1

> <RotBonds>
2

> <HAC>
14

> <Collection>
Advanced

> <Reference_compound>
CHEMBL2268707

> <Similarity>
0.8310

$$$$
F6619-8932
  -ISIS-  06222321162D

 14 15  0  0  0  0  0  0  0  0999 V2000
   -5.8958    4.9917    0.0000 O   0  0  0  0  0  0  0  0  0  0  0  0
   -3.0500    4.1167    0.0000 O   0  0  0  0  0  0  0  0  0  0  0  0
   -3.7625    3.7125    0.0000 C   0  0  0  0  0  0  0  0  0  0  0  0
   -3.0500    4.9542    0.0000 C   0  0  0  0  0  0  0  0  0  0  0  0
   -4.4833    4.1250    0.0000 C   0  0  3  0  0  0  0  0  0  0  0  0
   -5.1625    5.3792    0.0000 C   0  0  0  0  0  0  0  0  0  0  0  0
   -5.9208    4.1542    0.0000 C   0  0  0  0  0  0  0  0  0  0  0  0
   -2.3333    5.3542    0.0000 C   0  0  0  0  0  0  0  0  0  0  0  0
   -3.7625    5.3417    0.0000 C   0  0  0  0  0  0  0  0  0  0  0  0
   -4.4583    4.9375    0.0000 C   0  0  0  0  0  0  0  0  0  0  0  0
   -5.2208    3.7375    0.0000 C   0  0  0  0  0  0  0  0  0  0  0  0
   -3.7708    6.1750    0.0000 C   0  0  0  0  0  0  0  0  0  0  0  0
   -2.3458    6.1792    0.0000 C   0  0  0  0  0  0  0  0  0  0  0  0
   -3.0583    6.5917    0.0000 C   0  0  0  0  0  0  0  0  0  0  0  0
  2  3  1  0  0  0  0
  3  5  1  0  0  0  0
  4  2  1  0  0  0  0
  5 11  1  0  0  0  0
  6  1  1  0  0  0  0
  7  1  1  0  0  0  0
  8  4  2  0  0  0  0
  9  4  1  0  0  0  0
 10  6  1  0  0  0  0
 11  7  1  0  0  0  0
 12  9  2  0  0  0  0
 13  8  1  0  0  0  0
 14 12  1  0  0  0  0
 10  5  1  0  0  0  0
 14 13  2  0  0  0  0
M  END
> <IDNUMBER>
F6619-8932

> <Chemical_Name>
4-(phenoxymethyl)oxane

> <CAS>
62635-44-3

> <PriceCoeff>
1.50

> <MW>
192.26

> <Description>
solid

> <FSP3>
0.50

> <clogP>
2.31

> <TPSA>
18.46

> <Acceptor>
2

> <Donor>
0

> <RotBonds>
3

> <HAC>
14

> <Collection>
Advanced

> <Reference_compound>
CHEMBL2252607

> <Similarity>
0.8000

$$$$
F6617-2252
  -ISIS-  06222321472D

 14 16  0  0  0  0  0  0  0  0999 V2000
   -1.4458   -4.8917    0.0000 N   0  0  0  0  0  0  0  0  0  0  0  0
   -1.1875   -4.1042    0.0000 C   0  0  0  0  0  0  0  0  0  0  0  0
   -2.2708   -4.8917    0.0000 C   0  0  0  0  0  0  0  0  0  0  0  0
   -1.8583   -3.6167    0.0000 N   0  0  0  0  0  0  0  0  0  0  0  0
   -2.5250   -4.1042    0.0000 O   0  0  0  0  0  0  0  0  0  0  0  0
   -0.4083   -3.8542    0.0000 C   0  0  3  0  0  0  0  0  0  0  0  0
    0.1500   -3.2417    0.0000 C   0  0  0  0  0  0  0  0  0  0  0  0
    0.4000   -4.0167    0.0000 C   0  0  0  0  0  0  0  0  0  0  0  0
   -2.7583   -5.5542    0.0000 C   0  0  0  0  0  0  0  0  0  0  0  0
   -3.7208   -6.8917    0.0000 N   0  0  0  0  0  0  0  0  0  0  0  0
   -4.0583   -6.1417    0.0000 C   0  0  0  0  0  0  0  0  0  0  0  0
   -2.9083   -6.9792    0.0000 C   0  0  0  0  0  0  0  0  0  0  0  0
   -3.5708   -5.4667    0.0000 C   0  0  0  0  0  0  0  0  0  0  0  0
   -2.4208   -6.3042    0.0000 C   0  0  0  0  0  0  0  0  0  0  0  0
  2  1  1  0  0  0  0
  3  1  2  0  0  0  0
  4  2  2  0  0  0  0
  5  3  1  0  0  0  0
  6  2  1  0  0  0  0
  7  6  1  0  0  0  0
  8  6  1  0  0  0  0
  9  3  1  0  0  0  0
 10 12  2  0  0  0  0
 11 13  2  0  0  0  0
 12 14  1  0  0  0  0
 13  9  1  0  0  0  0
 14  9  2  0  0  0  0
  4  5  1  0  0  0  0
  7  8  1  0  0  0  0
 11 10  1  0  0  0  0
M  END
> <IDNUMBER>
F6617-2252

> <Chemical_Name>
4-(3-cyclopropyl-1,2,4-oxadiazol-5-yl)pyridine

> <CAS>
22926-76-7

> <PriceCoeff>
1.50

> <MW>
187.20

> <Description>
solid

> <FSP3>
0.30

> <clogP>
0.90

> <TPSA>
51.81

> <Acceptor>
4

> <Donor>
1

> <RotBonds>
2

> <HAC>
14

> <Collection>
Advanced

> <Reference_compound>
CHEMBL2272947

> <Similarity>
0.8170

$$$$
F6617-2213
  -ISIS-  06222321162D

 13 14  0  0  0  0  0  0  0  0999 V2000
   -1.4500   -4.9042    0.0000 N   0  0  0  0  0  0  0  0  0  0  0  0
   -2.2750   -4.9042    0.0000 C   0  0  0  0  0  0  0  0  0  0  0  0
   -1.8625   -3.6292    0.0000 N   0  0  0  0  0  0  0  0  0  0  0  0
   -2.5333   -4.1167    0.0000 O   0  0  0  0  0  0  0  0  0  0  0  0
   -1.1958   -4.1167    0.0000 C   0  0  0  0  0  0  0  0  0  0  0  0
   -2.7625   -5.5667    0.0000 C   0  0  0  0  0  0  0  0  0  0  0  0
   -2.9125   -6.9917    0.0000 N   0  0  0  0  0  0  0  0  0  0  0  0
   -2.4250   -6.3250    0.0000 C   0  0  0  0  0  0  0  0  0  0  0  0
   -3.5833   -5.4792    0.0000 C   0  0  0  0  0  0  0  0  0  0  0  0
   -3.7333   -6.9125    0.0000 C   0  0  0  0  0  0  0  0  0  0  0  0
   -4.0708   -6.1542    0.0000 C   0  0  0  0  0  0  0  0  0  0  0  0
   -0.4125   -3.8667    0.0000 C   0  0  0  0  0  0  0  0  0  0  0  0
   -4.2208   -7.5750    0.0000 C   0  0  0  0  0  0  0  0  0  0  0  0
  2  1  2  0  0  0  0
  3  5  2  0  0  0  0
  4  2  1  0  0  0  0
  5  1  1  0  0  0  0
  6  2  1  0  0  0  0
  7  8  1  0  0  0  0
  8  6  2  0  0  0  0
  9  6  1  0  0  0  0
 10 11  1  0  0  0  0
 11  9  2  0  0  0  0
 12  5  1  0  0  0  0
 13 10  1  0  0  0  0
  4  3  1  0  0  0  0
  7 10  2  0  0  0  0
M  END
> <IDNUMBER>
F6617-2213

> <Chemical_Name>
2-methyl-5-(3-methyl-1,2,4-oxadiazol-5-yl)pyridine

> <CAS>
1860966-01-3

> <PriceCoeff>
1.00

> <MW>
175.19

> <Description>
solid

> <FSP3>
0.22

> <clogP>
0.96

> <TPSA>
51.81

> <Acceptor>
4

> <Donor>
1

> <RotBonds>
1

> <HAC>
13

> <Collection>
General

> <Reference_compound>
CHEMBL2268707

> <Similarity>
0.9320

$$$$
F8889-4371
  -ISIS-  06222321162D

 14 15  0  0  0  0  0  0  0  0999 V2000
    2.1417   -3.7125    0.0000 O   0  0  0  0  0  0  0  0  0  0  0  0
    2.1417   -2.8875    0.0000 C   0  0  0  0  0  0  0  0  0  0  0  0
    2.1417   -1.2375    0.0000 C   0  0  0  0  0  0  0  0  0  0  0  0
    2.8542   -2.4750    0.0000 C   0  0  0  0  0  0  0  0  0  0  0  0
    1.4250   -2.4750    0.0000 C   0  0  0  0  0  0  0  0  0  0  0  0
    2.8542   -1.6500    0.0000 C   0  0  0  0  0  0  0  0  0  0  0  0
    1.4250   -1.6500    0.0000 C   0  0  0  0  0  0  0  0  0  0  0  0
    2.1417   -0.4125    0.0000 O   0  0  0  0  0  0  0  0  0  0  0  0
    1.4250   -4.1250    0.0000 C   0  0  3  0  0  0  0  0  0  0  0  0
    1.4250   -4.9500    0.0000 C   0  0  0  0  0  0  0  0  0  0  0  0
    0.7125   -3.7125    0.0000 C   0  0  0  0  0  0  0  0  0  0  0  0
    0.0000   -4.1250    0.0000 C   0  0  0  0  0  0  0  0  0  0  0  0
    0.7125   -5.3625    0.0000 C   0  0  0  0  0  0  0  0  0  0  0  0
    0.0000   -4.9500    0.0000 C   0  0  0  0  0  0  0  0  0  0  0  0
  2  1  1  0  0  0  0
  3  7  2  0  0  0  0
  4  2  1  0  0  0  0
  5  2  2  0  0  0  0
  6  4  2  0  0  0  0
  7  5  1  0  0  0  0
  8  3  1  0  0  0  0
  9  1  1  0  0  0  0
 10  9  1  0  0  0  0
 11  9  1  0  0  0  0
 12 11  1  0  0  0  0
 13 10  1  0  0  0  0
 14 12  1  0  0  0  0
  6  3  1  0  0  0  0
 14 13  1  0  0  0  0
M  END
> <IDNUMBER>
F8889-4371

> <Chemical_Name>
4-(cyclohexyloxy)phenol

> <CAS>
42873-96-1

> <PriceCoeff>
1.00

> <MW>
192.25

> <Description>
solid

> <FSP3>
0.50

> <clogP>
3.61

> <TPSA>
29.46

> <Acceptor>
2

> <Donor>
1

> <RotBonds>
2

> <HAC>
14

> <Collection>
General

> <Reference_compound>
CHEMBL2252607

> <Similarity>
0.8110

$$$$
F6473-3523
  -ISIS-  06222321462D

 19 21  0  0  0  0  0  0  0  0999 V2000
   -1.3083    5.1042    0.0000 N   0  0  3  0  0  0  0  0  0  0  0  0
   -3.0333    4.1042    0.0000 N   0  0  3  0  0  0  0  0  0  0  0  0
   -2.0333    4.6875    0.0000 C   0  0  3  0  0  0  0  0  0  0  0  0
   -3.7500    2.8708    0.0000 C   0  0  0  0  0  0  0  0  0  0  0  0
   -3.7458    3.6958    0.0000 C   0  0  0  0  0  0  0  0  0  0  0  0
   -3.1000    2.3833    0.0000 S   0  0  0  0  0  0  0  0  0  0  0  0
   -1.2250    5.9167    0.0000 C   0  0  0  0  0  0  0  0  0  0  0  0
   -0.5583    4.7667    0.0000 C   0  0  0  0  0  0  0  0  0  0  0  0
   -2.2458    3.8958    0.0000 C   0  0  0  0  0  0  0  0  0  0  0  0
   -2.8208    4.9000    0.0000 C   0  0  0  0  0  0  0  0  0  0  0  0
   -4.4333    2.3958    0.0000 C   0  0  0  0  0  0  0  0  0  0  0  0
   -3.3625    1.5958    0.0000 C   0  0  0  0  0  0  0  0  0  0  0  0
   -4.1875    1.6333    0.0000 C   0  0  0  0  0  0  0  0  0  0  0  0
   -4.4667    4.0958    0.0000 O   0  0  0  0  0  0  0  0  0  0  0  0
   -0.0083    5.3792    0.0000 C   0  0  0  0  0  0  0  0  0  0  0  0
   -0.4208    6.0917    0.0000 C   0  0  0  0  0  0  0  0  0  0  0  0
   -0.3875    3.9625    0.0000 O   0  0  0  0  0  0  0  0  0  0  0  0
   -1.8417    6.4708    0.0000 O   0  0  0  0  0  0  0  0  0  0  0  0
   -4.7042    0.9625    0.0000 C   0  0  0  0  0  0  0  0  0  0  0  0
  2 10  1  0  0  0  0
  3  1  1  0  0  0  0
  4  5  1  0  0  0  0
  5  2  1  0  0  0  0
  6  4  1  0  0  0  0
  7  1  1  0  0  0  0
  8  1  1  0  0  0  0
  9  3  1  0  0  0  0
 10  3  1  0  0  0  0
 11  4  2  0  0  0  0
 12  6  1  0  0  0  0
 13 11  1  0  0  0  0
 14  5  2  0  0  0  0
 15  8  1  0  0  0  0
 16  7  1  0  0  0  0
 17  8  2  0  0  0  0
 18  7  2  0  0  0  0
 19 13  1  0  0  0  0
 16 15  1  0  0  0  0
  9  2  1  0  0  0  0
 12 13  2  0  0  0  0
M  END
> <IDNUMBER>
F6473-3523

> <Chemical_Name>
1-[1-(4-methylthiophene-2-carbonyl)azetidin-3-yl]pyrrolidine-2,5-dione

> <CAS>
1795445-94-1

> <PriceCoeff>
1.50

> <MW>
278.33

> <Description>
solid

> <FSP3>
0.46

> <clogP>
0.53

> <TPSA>
85.93

> <Acceptor>
3

> <Donor>
0

> <RotBonds>
3

> <HAC>
19

> <Collection>
Advanced

$$$$
F3371-0262
  -ISIS-  06222321152D

 14 15  0  0  0  0  0  0  0  0999 V2000
    1.4042   -1.3417    0.0000 C   0  0  0  0  0  0  0  0  0  0  0  0
    1.3292   -2.1667    0.0000 C   0  0  0  0  0  0  0  0  0  0  0  0
    0.7375   -0.8542    0.0000 N   0  0  3  0  0  0  0  0  0  0  0  0
   -0.1083   -2.0292    0.0000 N   0  0  3  0  0  0  0  0  0  0  0  0
   -0.0250   -1.2000    0.0000 C   0  0  0  0  0  0  0  0  0  0  0  0
    0.5750   -2.5167    0.0000 C   0  0  0  0  0  0  0  0  0  0  0  0
    2.2125   -1.1625    0.0000 N   0  0  0  0  0  0  0  0  0  0  0  0
    2.0875   -2.5000    0.0000 N   0  0  3  0  0  0  0  0  0  0  0  0
    2.6375   -1.8750    0.0000 C   0  0  0  0  0  0  0  0  0  0  0  0
   -0.6958   -0.7167    0.0000 O   0  0  0  0  0  0  0  0  0  0  0  0
    0.4917   -3.3375    0.0000 O   0  0  0  0  0  0  0  0  0  0  0  0
    0.8167   -0.0333    0.0000 C   0  0  0  0  0  0  0  0  0  0  0  0
   -0.8583   -2.3667    0.0000 C   0  0  0  0  0  0  0  0  0  0  0  0
    2.2667   -3.3042    0.0000 C   0  0  0  0  0  0  0  0  0  0  0  0
  2  1  2  0  0  0  0
  3  1  1  0  0  0  0
  4  5  1  0  0  0  0
  5  3  1  0  0  0  0
  6  2  1  0  0  0  0
  7  1  1  0  0  0  0
  8  2  1  0  0  0  0
  9  7  2  0  0  0  0
 10  5  2  0  0  0  0
 11  6  2  0  0  0  0
 12  3  1  0  0  0  0
 13  4  1  0  0  0  0
 14  8  1  0  0  0  0
  8  9  1  0  0  0  0
  6  4  1  0  0  0  0
M  END
> <IDNUMBER>
F3371-0262

> <Chemical_Name>
1,3,7-trimethyl-2,3,6,7-tetrahydro-1H-purine-2,6-dione

> <CAS>
58-08-2

> <PriceCoeff>
1.50

> <MW>
194.19

> <Description>
solid

> <FSP3>
0.38

> <clogP>
-0.04

> <TPSA>
58.44

> <Acceptor>
3

> <Donor>
1

> <RotBonds>
0

> <HAC>
14

> <Collection>
Advanced

> <Reference_compound>
CHEMBL113

> <Similarity>
1.0000

$$$$
F6617-5673
  -ISIS-  06222321472D

 13 14  0  0  0  0  0  0  0  0999 V2000
    6.6625   -4.9792    0.0000 N   0  0  0  0  0  0  0  0  0  0  0  0
    6.0000   -5.4667    0.0000 C   0  0  0  0  0  0  0  0  0  0  0  0
    5.5792   -4.1917    0.0000 N   0  0  0  0  0  0  0  0  0  0  0  0
    5.3250   -4.9792    0.0000 O   0  0  0  0  0  0  0  0  0  0  0  0
    6.4042   -4.1917    0.0000 C   0  0  0  0  0  0  0  0  0  0  0  0
    6.0042   -6.2917    0.0000 C   0  0  0  0  0  0  0  0  0  0  0  0
    5.2917   -7.5292    0.0000 N   0  0  0  0  0  0  0  0  0  0  0  0
    6.0042   -7.9417    0.0000 C   0  0  0  0  0  0  0  0  0  0  0  0
    5.2917   -6.7042    0.0000 C   0  0  0  0  0  0  0  0  0  0  0  0
    6.7167   -6.7042    0.0000 C   0  0  0  0  0  0  0  0  0  0  0  0
    6.7167   -7.5292    0.0000 C   0  0  0  0  0  0  0  0  0  0  0  0
    6.0000   -8.7667    0.0000 Cl  0  0  0  0  0  0  0  0  0  0  0  0
    6.8875   -3.5292    0.0000 C   0  0  0  0  0  0  0  0  0  0  0  0
  2  1  2  0  0  0  0
  3  5  2  0  0  0  0
  4  2  1  0  0  0  0
  5  1  1  0  0  0  0
  6  2  1  0  0  0  0
  7  9  2  0  0  0  0
  8 11  2  0  0  0  0
  9  6  1  0  0  0  0
 10  6  2  0  0  0  0
 11 10  1  0  0  0  0
 12  8  1  0  0  0  0
 13  5  1  0  0  0  0
  3  4  1  0  0  0  0
  7  8  1  0  0  0  0
M  END
> <IDNUMBER>
F6617-5673

> <Chemical_Name>
2-chloro-5-(3-methyl-1,2,4-oxadiazol-5-yl)pyridine

> <CAS>
959240-62-1

> <PriceCoeff>
1.50

> <MW>
195.61

> <Description>
solid

> <FSP3>
0.12

> <clogP>
1.21

> <TPSA>
51.81

> <Acceptor>
4

> <Donor>
1

> <RotBonds>
1

> <HAC>
13

> <Collection>
Advanced

> <Reference_compound>
CHEMBL2268707

> <Similarity>
0.8680

$$$$
F1900-3879
  -ISIS-  06222321442D

 12 13  0  0  0  0  0  0  0  0999 V2000
    5.6917   -5.5292    0.0000 C   0  0  0  0  0  0  0  0  0  0  0  0
    5.9500   -6.3167    0.0000 C   0  0  0  0  0  0  0  0  0  0  0  0
    6.2500   -4.9167    0.0000 N   0  0  0  0  0  0  0  0  0  0  0  0
    7.3125   -5.8792    0.0000 N   0  0  0  0  0  0  0  0  0  0  0  0
    6.7542   -6.4917    0.0000 C   0  0  0  0  0  0  0  0  0  0  0  0
    7.0542   -5.0917    0.0000 C   0  0  0  0  0  0  0  0  0  0  0  0
    4.8667   -5.5292    0.0000 N   0  0  0  0  0  0  0  0  0  0  0  0
    4.6125   -6.3250    0.0000 N   0  0  3  0  0  0  0  0  0  0  0  0
    5.2792   -6.8042    0.0000 C   0  0  0  0  0  0  0  0  0  0  0  0
    7.0042   -7.2792    0.0000 O   0  0  0  0  0  0  0  0  0  0  0  0
    7.6125   -4.4792    0.0000 O   0  0  0  0  0  0  0  0  0  0  0  0
    3.8292   -6.5792    0.0000 C   0  0  0  0  0  0  0  0  0  0  0  0
  2  1  1  0  0  0  0
  3  1  1  0  0  0  0
  4  6  1  0  0  0  0
  5  2  1  0  0  0  0
  6  3  1  0  0  0  0
  7  1  2  0  0  0  0
  8  7  1  0  0  0  0
  9  2  2  0  0  0  0
 10  5  2  0  0  0  0
 11  6  2  0  0  0  0
 12  8  1  0  0  0  0
  8  9  1  0  0  0  0
  5  4  1  0  0  0  0
M  END
> <IDNUMBER>
F1900-3879

> <Chemical_Name>
2-methyl-2H,4H,5H,6H,7H-pyrazolo[3,4-d]pyrimidine-4,6-dione

> <CAS>
10505-25-6

> <PriceCoeff>
1.00

> <MW>
166.14

> <Description>
solid

> <FSP3>
0.17

> <clogP>
-0.82

> <TPSA>
76.02

> <Acceptor>
3

> <Donor>
2

> <RotBonds>
0

> <HAC>
12

> <Collection>
General

> <Reference_compound>
PRI4721

> <Similarity>
0.8470

$$$$
F6822-6691
  -ISIS-  06222321472D

 18 19  0  0  0  0  0  0  0  0999 V2000
    2.7500    5.5875    0.0000 C   0  0  0  0  0  0  0  0  0  0  0  0
    2.7500    4.7625    0.0000 C   0  0  0  0  0  0  0  0  0  0  0  0
    1.3167    5.5875    0.0000 C   0  0  3  0  0  0  0  0  0  0  0  0
    2.0292    6.0000    0.0000 C   0  0  0  0  0  0  0  0  0  0  0  0
    3.4625    4.3417    0.0000 N   0  0  0  0  0  0  0  0  0  0  0  0
    2.0292    4.3417    0.0000 O   0  0  0  0  0  0  0  0  0  0  0  0
    3.4625    6.8250    0.0000 N   0  0  0  0  0  0  0  0  0  0  0  0
    0.6042    5.1667    0.0000 F   0  0  0  0  0  0  0  0  0  0  0  0
    0.9042    6.3042    0.0000 F   0  0  0  0  0  0  0  0  0  0  0  0
    1.7292    4.8750    0.0000 F   0  0  0  0  0  0  0  0  0  0  0  0
    3.4625    6.0000    0.0000 C   0  0  0  0  0  0  0  0  0  0  0  0
    3.4625    3.5333    0.0000 C   0  0  3  0  0  0  0  0  0  0  0  0
    2.0292    6.8250    0.0000 C   0  0  0  0  0  0  0  0  0  0  0  0
    2.7500    7.2375    0.0000 C   0  0  0  0  0  0  0  0  0  0  0  0
    2.7917    3.0458    0.0000 C   0  0  0  0  0  0  0  0  0  0  0  0
    4.1292    3.0458    0.0000 C   0  0  0  0  0  0  0  0  0  0  0  0
    3.8750    2.2583    0.0000 C   0  0  0  0  0  0  0  0  0  0  0  0
    3.0500    2.2583    0.0000 C   0  0  0  0  0  0  0  0  0  0  0  0
  2  1  1  0  0  0  0
  3  4  1  0  0  0  0
  4  1  2  0  0  0  0
  5  2  1  0  0  0  0
  6  2  2  0  0  0  0
  7 11  2  0  0  0  0
  8  3  1  0  0  0  0
  9  3  1  0  0  0  0
 10  3  1  0  0  0  0
 11  1  1  0  0  0  0
 12  5  1  0  0  0  0
 13  4  1  0  0  0  0
 14  7  1  0  0  0  0
 15 12  1  0  0  0  0
 16 12  1  0  0  0  0
 17 16  1  0  0  0  0
 18 15  1  0  0  0  0
 14 13  2  0  0  0  0
 18 17  1  0  0  0  0
M  END
> <IDNUMBER>
F6822-6691

> <Chemical_Name>
N-cyclopentyl-4-(trifluoromethyl)pyridine-3-carboxamide

> <CAS>


> <PriceCoeff>
1.50

> <MW>
258.24

> <Description>
solid

> <FSP3>
0.50

> <clogP>
1.36

> <TPSA>
41.99

> <Acceptor>
2

> <Donor>
2

> <RotBonds>
2

> <HAC>
18

> <Collection>
Advanced

> <Reference_compound>
PRI3265

> <Similarity>
0.8270

$$$$
F6822-6716
  -ISIS-  06222321472D

 19 20  0  0  0  0  0  0  0  0999 V2000
    2.8542    3.3000    0.0000 C   0  0  0  0  0  0  0  0  0  0  0  0
    3.5667    3.7125    0.0000 C   0  0  0  0  0  0  0  0  0  0  0  0
    2.1417    4.5292    0.0000 C   0  0  3  0  0  0  0  0  0  0  0  0
    4.2792    3.3000    0.0000 N   0  0  3  0  0  0  0  0  0  0  0  0
    2.1417    3.7125    0.0000 C   0  0  0  0  0  0  0  0  0  0  0  0
    5.7125    2.4750    0.0000 N   0  0  3  0  0  0  0  0  0  0  0  0
    3.5667    4.5292    0.0000 O   0  0  0  0  0  0  0  0  0  0  0  0
    4.2792    2.4750    0.0000 C   0  0  0  0  0  0  0  0  0  0  0  0
    5.0000    3.7125    0.0000 C   0  0  0  0  0  0  0  0  0  0  0  0
    2.1417    2.0625    0.0000 N   0  0  0  0  0  0  0  0  0  0  0  0
    2.1417    5.3542    0.0000 F   0  0  0  0  0  0  0  0  0  0  0  0
    2.9667    4.5292    0.0000 F   0  0  0  0  0  0  0  0  0  0  0  0
    1.3167    4.5292    0.0000 F   0  0  0  0  0  0  0  0  0  0  0  0
    2.8542    2.4750    0.0000 C   0  0  0  0  0  0  0  0  0  0  0  0
    5.7125    3.3000    0.0000 C   0  0  0  0  0  0  0  0  0  0  0  0
    5.0000    2.0625    0.0000 C   0  0  0  0  0  0  0  0  0  0  0  0
    1.4250    3.3000    0.0000 C   0  0  0  0  0  0  0  0  0  0  0  0
    6.4292    2.0625    0.0000 C   0  0  0  0  0  0  0  0  0  0  0  0
    1.4250    2.4750    0.0000 C   0  0  0  0  0  0  0  0  0  0  0  0
  2  1  1  0  0  0  0
  3  5  1  0  0  0  0
  4  2  1  0  0  0  0
  5  1  2  0  0  0  0
  6 15  1  0  0  0  0
  7  2  2  0  0  0  0
  8  4  1  0  0  0  0
  9  4  1  0  0  0  0
 10 14  2  0  0  0  0
 11  3  1  0  0  0  0
 12  3  1  0  0  0  0
 13  3  1  0  0  0  0
 14  1  1  0  0  0  0
 15  9  1  0  0  0  0
 16  8  1  0  0  0  0
 17  5  1  0  0  0  0
 18  6  1  0  0  0  0
 19 10  1  0  0  0  0
 19 17  2  0  0  0  0
  6 16  1  0  0  0  0
M  END
> <IDNUMBER>
F6822-6716

> <Chemical_Name>
1-methyl-4-[4-(trifluoromethyl)pyridine-3-carbonyl]piperazine

> <CAS>


> <PriceCoeff>
1.50

> <MW>
273.26

> <Description>
oil

> <FSP3>
0.50

> <clogP>
1.18

> <TPSA>
36.44

> <Acceptor>
2

> <Donor>
2

> <RotBonds>
2

> <HAC>
19

> <Collection>
Advanced

> <Reference_compound>
PRI3265

> <Similarity>
0.8480

$$$$
F1905-0470
  -ISIS-  06222321442D

 10 10  0  0  0  0  0  0  0  0999 V2000
    1.4250    0.8250    0.0000 N   0  0  3  0  0  0  0  0  0  0  0  0
    0.7125    1.2375    0.0000 C   0  0  0  0  0  0  0  0  0  0  0  0
    0.7125    2.0625    0.0000 O   0  0  0  0  0  0  0  0  0  0  0  0
    2.1417    1.2375    0.0000 C   0  0  0  0  0  0  0  0  0  0  0  0
    1.4250   -0.0000    0.0000 C   0  0  0  0  0  0  0  0  0  0  0  0
    0.0000    0.8250    0.0000 C   0  0  0  0  0  0  0  0  0  0  0  0
    3.5667    1.2375    0.0000 O   0  0  0  0  0  0  0  0  0  0  0  0
    2.8542    0.8250    0.0000 C   0  0  0  0  0  0  0  0  0  0  0  0
    0.7125   -0.4125    0.0000 C   0  0  0  0  0  0  0  0  0  0  0  0
    0.0000   -0.0000    0.0000 C   0  0  0  0  0  0  0  0  0  0  0  0
  2  1  1  0  0  0  0
  3  2  2  0  0  0  0
  4  1  1  0  0  0  0
  5  1  1  0  0  0  0
  6  2  1  0  0  0  0
  7  8  1  0  0  0  0
  8  4  1  0  0  0  0
  9  5  1  0  0  0  0
 10  9  1  0  0  0  0
 10  6  1  0  0  0  0
M  END
> <IDNUMBER>
F1905-0470

> <Chemical_Name>
1-(2-hydroxyethyl)piperidin-2-one

> <CAS>
3445-12-3

> <PriceCoeff>
1.50

> <MW>
143.18

> <Description>
oil

> <FSP3>
0.86

> <clogP>
-0.26

> <TPSA>
40.54

> <Acceptor>
2

> <Donor>
1

> <RotBonds>
2

> <HAC>
10

> <Collection>
Advanced

> <Reference_compound>
PRI1862

> <Similarity>
0.9090

$$$$
F6617-2225
  -ISIS-  06222321472D

 13 14  0  0  0  0  0  0  0  0999 V2000
   -1.4500   -4.9125    0.0000 N   0  0  0  0  0  0  0  0  0  0  0  0
   -2.2833   -4.9125    0.0000 C   0  0  0  0  0  0  0  0  0  0  0  0
   -1.8708   -3.6375    0.0000 N   0  0  0  0  0  0  0  0  0  0  0  0
   -2.7708   -5.5792    0.0000 C   0  0  0  0  0  0  0  0  0  0  0  0
   -2.5333   -4.1250    0.0000 O   0  0  0  0  0  0  0  0  0  0  0  0
   -1.1958   -4.1250    0.0000 C   0  0  0  0  0  0  0  0  0  0  0  0
   -4.0708   -6.1625    0.0000 N   0  0  0  0  0  0  0  0  0  0  0  0
   -2.4333   -6.3292    0.0000 C   0  0  0  0  0  0  0  0  0  0  0  0
   -3.5875   -5.4917    0.0000 C   0  0  0  0  0  0  0  0  0  0  0  0
   -2.9208   -7.0042    0.0000 C   0  0  0  0  0  0  0  0  0  0  0  0
   -2.5833   -7.7542    0.0000 F   0  0  0  0  0  0  0  0  0  0  0  0
   -3.7375   -6.9167    0.0000 C   0  0  0  0  0  0  0  0  0  0  0  0
   -0.4125   -3.8667    0.0000 C   0  0  0  0  0  0  0  0  0  0  0  0
  2  1  2  0  0  0  0
  3  6  2  0  0  0  0
  4  2  1  0  0  0  0
  5  2  1  0  0  0  0
  6  1  1  0  0  0  0
  7  9  2  0  0  0  0
  8  4  2  0  0  0  0
  9  4  1  0  0  0  0
 10  8  1  0  0  0  0
 11 10  1  0  0  0  0
 12  7  1  0  0  0  0
 13  6  1  0  0  0  0
  5  3  1  0  0  0  0
 10 12  2  0  0  0  0
M  END
> <IDNUMBER>
F6617-2225

> <Chemical_Name>
3-fluoro-5-(3-methyl-1,2,4-oxadiazol-5-yl)pyridine

> <CAS>
1864357-27-6

> <PriceCoeff>
1.50

> <MW>
179.15

> <Description>
solid

> <FSP3>
0.12

> <clogP>
0.64

> <TPSA>
51.81

> <Acceptor>
4

> <Donor>
1

> <RotBonds>
1

> <HAC>
13

> <Collection>
Advanced

> <Reference_compound>
CHEMBL2268707

> <Similarity>
0.8450

$$$$
F1906-0442
  -ISIS-  06222321142D

 12 12  0  0  0  0  0  0  0  0999 V2000
    4.5375   -3.3792    0.0000 N   0  0  0  0  0  0  0  0  0  0  0  0
    0.2500   -3.3917    0.0000 C   0  0  0  0  0  0  0  0  0  0  0  0
    0.9625   -2.9792    0.0000 O   0  0  0  0  0  0  0  0  0  0  0  0
    3.8167   -2.9667    0.0000 C   0  0  0  0  0  0  0  0  0  0  0  0
    1.6792   -3.3875    0.0000 C   0  0  0  0  0  0  0  0  0  0  0  0
    0.2500   -4.2250    0.0000 C   0  0  0  0  0  0  0  0  0  0  0  0
   -0.4708   -2.9792    0.0000 C   0  0  0  0  0  0  0  0  0  0  0  0
    3.1042   -3.3792    0.0000 C   0  0  0  0  0  0  0  0  0  0  0  0
    2.3917   -2.9750    0.0000 C   0  0  0  0  0  0  0  0  0  0  0  0
   -0.4708   -4.6375    0.0000 C   0  0  0  0  0  0  0  0  0  0  0  0
   -1.1833   -3.4000    0.0000 C   0  0  0  0  0  0  0  0  0  0  0  0
   -1.1833   -4.2250    0.0000 C   0  0  0  0  0  0  0  0  0  0  0  0
  2  3  1  0  0  0  0
  3  5  1  0  0  0  0
  4  1  1  0  0  0  0
  5  9  1  0  0  0  0
  6  2  1  0  0  0  0
  7  2  2  0  0  0  0
  8  4  1  0  0  0  0
  9  8  1  0  0  0  0
 10  6  2  0  0  0  0
 11  7  1  0  0  0  0
 12 11  2  0  0  0  0
 12 10  1  0  0  0  0
M  END
> <IDNUMBER>
F1906-0442

> <Chemical_Name>
4-phenoxybutan-1-amine

> <CAS>
16728-66-8

> <PriceCoeff>
1.00

> <MW>
165.24

> <Description>
liquid

> <FSP3>
0.40

> <clogP>
1.76

> <TPSA>
60.38

> <Acceptor>
1

> <Donor>
1

> <RotBonds>
5

> <HAC>
12

> <Collection>
General

> <Reference_compound>
CHEMBL2252616

> <Similarity>
0.8030

$$$$
F6617-2496
  -ISIS-  06222321472D

 12 13  0  0  0  0  0  0  0  0999 V2000
   -1.4458   -4.8917    0.0000 N   0  0  0  0  0  0  0  0  0  0  0  0
   -1.1875   -4.1125    0.0000 C   0  0  0  0  0  0  0  0  0  0  0  0
   -1.8583   -3.6250    0.0000 N   0  0  0  0  0  0  0  0  0  0  0  0
   -2.2708   -4.8917    0.0000 C   0  0  0  0  0  0  0  0  0  0  0  0
   -2.5250   -4.1125    0.0000 O   0  0  0  0  0  0  0  0  0  0  0  0
   -0.4083   -3.8542    0.0000 C   0  0  0  0  0  0  0  0  0  0  0  0
    1.1625   -3.3417    0.0000 N   0  0  0  0  0  0  0  0  0  0  0  0
   -2.7583   -5.5542    0.0000 C   0  0  0  0  0  0  0  0  0  0  0  0
    0.5500   -2.7917    0.0000 C   0  0  0  0  0  0  0  0  0  0  0  0
    0.9875   -4.1417    0.0000 C   0  0  0  0  0  0  0  0  0  0  0  0
   -0.2333   -3.0500    0.0000 C   0  0  0  0  0  0  0  0  0  0  0  0
    0.2000   -4.4042    0.0000 C   0  0  0  0  0  0  0  0  0  0  0  0
  2  1  1  0  0  0  0
  3  2  2  0  0  0  0
  4  1  2  0  0  0  0
  5  4  1  0  0  0  0
  6  2  1  0  0  0  0
  7 10  1  0  0  0  0
  8  4  1  0  0  0  0
  9 11  1  0  0  0  0
 10 12  2  0  0  0  0
 11  6  2  0  0  0  0
 12  6  1  0  0  0  0
  3  5  1  0  0  0  0
  9  7  2  0  0  0  0
M  END
> <IDNUMBER>
F6617-2496

> <Chemical_Name>
4-(5-methyl-1,2,4-oxadiazol-3-yl)pyridine

> <CAS>
10350-70-6

> <PriceCoeff>
1.50

> <MW>
161.16

> <Description>
solid

> <FSP3>
0.12

> <clogP>
0.46

> <TPSA>
51.81

> <Acceptor>
4

> <Donor>
1

> <RotBonds>
1

> <HAC>
12

> <Collection>
Advanced

> <Reference_compound>
CHEMBL2272947

> <Similarity>
0.8160

$$$$
F6525-0009
  -ISIS-  06222321472D

 23 25  0  0  0  0  0  0  0  0999 V2000
   -2.5708    5.9667    0.0000 C   0  0  0  0  0  0  0  0  0  0  0  0
   -2.4458    6.7833    0.0000 N   0  0  3  0  0  0  0  0  0  0  0  0
   -1.6375    6.8917    0.0000 N   0  0  0  0  0  0  0  0  0  0  0  0
   -1.8500    5.5958    0.0000 C   0  0  0  0  0  0  0  0  0  0  0  0
   -1.2708    6.1792    0.0000 C   0  0  0  0  0  0  0  0  0  0  0  0
   -6.1917    4.8917    0.0000 C   0  0  3  0  0  0  0  0  0  0  0  0
   -6.1542    5.7167    0.0000 C   0  0  0  0  0  0  0  0  0  0  0  0
   -5.4208    6.0958    0.0000 C   0  0  0  0  0  0  0  0  0  0  0  0
   -4.7333    5.6417    0.0000 C   0  0  0  0  0  0  0  0  0  0  0  0
   -3.3083    5.5875    0.0000 C   0  0  0  0  0  0  0  0  0  0  0  0
   -4.0000    6.0292    0.0000 N   0  0  0  0  0  0  0  0  0  0  0  0
   -4.7708    4.8250    0.0000 O   0  0  0  0  0  0  0  0  0  0  0  0
   -6.2417    4.0667    0.0000 F   0  0  0  0  0  0  0  0  0  0  0  0
   -5.3833    4.8542    0.0000 F   0  0  0  0  0  0  0  0  0  0  0  0
   -7.0250    4.9417    0.0000 F   0  0  0  0  0  0  0  0  0  0  0  0
   -1.4833    4.8792    0.0000 C   0  0  0  0  0  0  0  0  0  0  0  0
   -3.0000    7.3875    0.0000 C   0  0  0  0  0  0  0  0  0  0  0  0
   -0.5500    5.8042    0.0000 C   0  0  0  0  0  0  0  0  0  0  0  0
   -6.8458    6.1792    0.0000 C   0  0  0  0  0  0  0  0  0  0  0  0
   -5.3750    6.9292    0.0000 C   0  0  0  0  0  0  0  0  0  0  0  0
   -0.6583    5.0042    0.0000 C   0  0  0  0  0  0  0  0  0  0  0  0
   -6.0625    7.3667    0.0000 C   0  0  0  0  0  0  0  0  0  0  0  0
   -6.8125    7.0000    0.0000 C   0  0  0  0  0  0  0  0  0  0  0  0
  2  1  1  0  0  0  0
  3  2  1  0  0  0  0
  4  1  2  0  0  0  0
  5  4  1  0  0  0  0
  6  7  1  0  0  0  0
  7  8  1  0  0  0  0
  8  9  1  0  0  0  0
  9 11  1  0  0  0  0
 10  1  1  0  0  0  0
 11 10  1  0  0  0  0
 12  9  2  0  0  0  0
 13  6  1  0  0  0  0
 14  6  1  0  0  0  0
 15  6  1  0  0  0  0
 16  4  1  0  0  0  0
 17  2  1  0  0  0  0
 18  5  1  0  0  0  0
 19  7  2  0  0  0  0
 20  8  2  0  0  0  0
 21 16  1  0  0  0  0
 22 20  1  0  0  0  0
 23 22  2  0  0  0  0
  5  3  2  0  0  0  0
 21 18  1  0  0  0  0
 23 19  1  0  0  0  0
M  END
> <IDNUMBER>
F6525-0009

> <Chemical_Name>
N-({2-methyl-2H,4H,5H,6H-cyclopenta[c]pyrazol-3-yl}methyl)-2-(trifluoromethyl)benzamide

> <CAS>
2034289-34-2

> <PriceCoeff>
1.50

> <MW>
323.31

> <Description>
solid

> <FSP3>
0.38

> <clogP>
1.52

> <TPSA>
46.92

> <Acceptor>
2

> <Donor>
1

> <RotBonds>
3

> <HAC>
23

> <Collection>
Advanced

> <Reference_compound>
CHEMBL2289356

> <Similarity>
0.8450

$$$$
F0915-1528
  -ISIS-  06222321452D

 15 16  0  0  0  0  0  0  0  0999 V2000
   -9.3917   -2.3542    0.0000 C   0  0  0  0  0  0  0  0  0  0  0  0
   -9.3917    0.1458    0.0000 C   0  0  0  0  0  0  0  0  0  0  0  0
   -6.9917   -3.1667    0.0000 N   0  0  0  0  0  0  0  0  0  0  0  0
  -11.5792   -3.6542    0.0000 N   0  0  3  0  0  0  0  0  0  0  0  0
  -13.7667    0.1583    0.0000 N   0  0  3  0  0  0  0  0  0  0  0  0
  -13.7667   -2.3542    0.0000 C   0  0  0  0  0  0  0  0  0  0  0  0
  -11.5792    1.4250    0.0000 C   0  0  0  0  0  0  0  0  0  0  0  0
   -5.4583   -1.1250    0.0000 C   0  0  0  0  0  0  0  0  0  0  0  0
   -6.9667    0.9250    0.0000 N   0  0  3  0  0  0  0  0  0  0  0  0
  -16.0000   -3.6292    0.0000 O   0  0  0  0  0  0  0  0  0  0  0  0
  -11.6042    3.9583    0.0000 O   0  0  0  0  0  0  0  0  0  0  0  0
   -2.9333   -1.0875    0.0000 N   0  0  0  0  0  0  0  0  0  0  0  0
  -11.6042   -6.1667    0.0000 C   0  0  0  0  0  0  0  0  0  0  0  0
  -16.0000    1.4250    0.0000 C   0  0  0  0  0  0  0  0  0  0  0  0
   -6.3125    3.3958    0.0000 C   0  0  0  0  0  0  0  0  0  0  0  0
  2  1  2  0  0  0  0
  3  1  1  0  0  0  0
  4  1  1  0  0  0  0
  5  6  1  0  0  0  0
  6  4  1  0  0  0  0
  7  2  1  0  0  0  0
  8  3  2  0  0  0  0
  9  2  1  0  0  0  0
 10  6  2  0  0  0  0
 11  7  2  0  0  0  0
 12  8  1  0  0  0  0
 13  4  1  0  0  0  0
 14  5  1  0  0  0  0
 15  9  1  0  0  0  0
  8  9  1  0  0  0  0
  7  5  1  0  0  0  0
M  END
> <IDNUMBER>
F0915-1528

> <Chemical_Name>
8-amino-1,3,7-trimethyl-2,3,6,7-tetrahydro-1H-purine-2,6-dione

> <CAS>
37789-28-9

> <PriceCoeff>
1.50

> <MW>
209.21

> <Description>
solid

> <FSP3>
0.38

> <clogP>
-0.31

> <TPSA>
84.46

> <Acceptor>
3

> <Donor>
2

> <RotBonds>
0

> <HAC>
15

> <Collection>
Advanced

> <Reference_compound>
CHEMBL113

> <Similarity>
0.9050

$$$$
F6477-5333
  -ISIS-  06222304352D

 21 22  0  0  0  0  0  0  0  0999 V2000
    1.9667   -1.1292    0.0000 N   0  0  3  0  0  0  0  0  0  0  0  0
    5.2792   -0.7792    0.0000 C   0  0  0  0  0  0  0  0  0  0  0  0
    4.4667   -0.2000    0.0000 N   0  0  0  0  0  0  0  0  0  0  0  0
    3.6625   -0.7792    0.0000 C   0  0  0  0  0  0  0  0  0  0  0  0
    0.9792   -0.9167    0.0000 C   0  0  0  0  0  0  0  0  0  0  0  0
    2.0625   -2.1250    0.0000 C   0  0  0  0  0  0  0  0  0  0  0  0
    6.2292   -0.4667    0.0000 N   0  0  0  0  0  0  0  0  0  0  0  0
    4.9667   -1.7375    0.0000 S   0  0  0  0  0  0  0  0  0  0  0  0
    2.7125   -0.4667    0.0000 C   0  0  0  0  0  0  0  0  0  0  0  0
    3.9667   -1.7375    0.0000 C   0  0  0  0  0  0  0  0  0  0  0  0
    6.4292    0.5125    0.0000 C   0  0  0  0  0  0  0  0  0  0  0  0
    7.3875    0.8333    0.0000 N   0  0  0  0  0  0  0  0  0  0  0  0
    0.4792   -1.7792    0.0000 C   0  0  0  0  0  0  0  0  0  0  0  0
    1.1417   -2.5292    0.0000 C   0  0  0  0  0  0  0  0  0  0  0  0
    0.5750   -0.0042    0.0000 O   0  0  0  0  0  0  0  0  0  0  0  0
    2.9292   -2.6292    0.0000 O   0  0  0  0  0  0  0  0  0  0  0  0
    7.5875    1.8083    0.0000 C   0  0  0  0  0  0  0  0  0  0  0  0
    5.6875    1.1833    0.0000 C   0  0  0  0  0  0  0  0  0  0  0  0
    6.8417    2.4708    0.0000 C   0  0  0  0  0  0  0  0  0  0  0  0
    5.8917    2.1625    0.0000 C   0  0  0  0  0  0  0  0  0  0  0  0
    8.9834   -0.1292    0.0000 Cl  0  0  0  0  0  0  0  0  0  0  0  0
  3  4  1  0  0  0  0
  4  9  1  0  0  0  0
  5  1  1  0  0  0  0
  6  1  1  0  0  0  0
  7  2  1  0  0  0  0
  8 10  1  0  0  0  0
  9  1  1  0  0  0  0
 10  4  2  0  0  0  0
 11  7  1  0  0  0  0
 12 11  1  0  0  0  0
 13  5  1  0  0  0  0
 14  6  1  0  0  0  0
 15  5  2  0  0  0  0
 16  6  2  0  0  0  0
 17 12  2  0  0  0  0
 18 11  2  0  0  0  0
 19 20  2  0  0  0  0
 20 18  1  0  0  0  0
 14 13  1  0  0  0  0
  2  8  1  0  0  0  0
 19 17  1  0  0  0  0
  2  3  2  0  0  0  0
M  END
> <IDNUMBER>
F6477-5333

> <Chemical_Name>
1-({2-[(pyridin-2-yl)amino]-1,3-thiazol-4-yl}methyl)pyrrolidine-2,5-dione hydrochloride

> <CAS>
2034530-36-2

> <PriceCoeff>
1.00

> <MW>
288.32

> <Description>
solid

> <FSP3>
0.23

> <clogP>
0.64

> <TPSA>
103.43

> <Acceptor>
4

> <Donor>
2

> <RotBonds>
4

> <HAC>
20

> <Collection>
General

$$$$
F6617-3584
  -ISIS-  06222321442D

 16 17  0  0  0  0  0  0  0  0999 V2000
    3.1542   -1.4542    0.0000 N   0  0  0  0  0  0  0  0  0  0  0  0
    3.4125   -0.6667    0.0000 C   0  0  0  0  0  0  0  0  0  0  0  0
    2.7417   -0.1875    0.0000 N   0  0  0  0  0  0  0  0  0  0  0  0
    2.3292   -1.4542    0.0000 C   0  0  0  0  0  0  0  0  0  0  0  0
    2.0792   -0.6667    0.0000 O   0  0  0  0  0  0  0  0  0  0  0  0
    4.1917   -0.4125    0.0000 C   0  0  0  0  0  0  0  0  0  0  0  0
    0.6917   -1.2792    0.0000 C   0  0  0  0  0  0  0  0  0  0  0  0
    5.5917   -0.7167    0.0000 N   0  0  0  0  0  0  0  0  0  0  0  0
   -0.1333   -1.1875    0.0000 O   0  0  0  0  0  0  0  0  0  0  0  0
    1.8417   -2.1167    0.0000 C   0  0  0  0  0  0  0  0  0  0  0  0
    1.0250   -2.0292    0.0000 C   0  0  0  0  0  0  0  0  0  0  0  0
    4.8042   -0.9667    0.0000 C   0  0  0  0  0  0  0  0  0  0  0  0
    1.1750   -0.6042    0.0000 O   0  0  0  0  0  0  0  0  0  0  0  0
    4.3625    0.3958    0.0000 C   0  0  0  0  0  0  0  0  0  0  0  0
    5.7625    0.0875    0.0000 C   0  0  0  0  0  0  0  0  0  0  0  0
    5.1417    0.6458    0.0000 C   0  0  0  0  0  0  0  0  0  0  0  0
  2  1  1  0  0  0  0
  3  2  2  0  0  0  0
  4  1  2  0  0  0  0
  5  4  1  0  0  0  0
  6  2  1  0  0  0  0
  7 11  1  0  0  0  0
  8 12  1  0  0  0  0
  9  7  2  0  0  0  0
 10  4  1  0  0  0  0
 11 10  1  0  0  0  0
 12  6  2  0  0  0  0
 13  7  1  0  0  0  0
 14  6  1  0  0  0  0
 15 16  1  0  0  0  0
 16 14  2  0  0  0  0
  5  3  1  0  0  0  0
 15  8  2  0  0  0  0
M  END
> <IDNUMBER>
F6617-3584

> <Chemical_Name>
3-[3-(pyridin-3-yl)-1,2,4-oxadiazol-5-yl]propanoic acid

> <CAS>
876716-11-9

> <PriceCoeff>
1.00

> <MW>
219.20

> <Description>
solid

> <FSP3>
0.20

> <clogP>
-0.28

> <TPSA>
89.11

> <Acceptor>
6

> <Donor>
1

> <RotBonds>
4

> <HAC>
16

> <Collection>
General

> <Reference_compound>
CHEMBL4744771

> <Similarity>
0.8270

$$$$
F0907-6685
  -ISIS-  06222321452D

 16 17  0  0  0  0  0  0  0  0999 V2000
   -8.3375   -3.3167    0.0000 C   0  0  0  0  0  0  0  0  0  0  0  0
   -8.3375   -0.3375    0.0000 C   0  0  0  0  0  0  0  0  0  0  0  0
   -5.5333   -4.2542    0.0000 N   0  0  0  0  0  0  0  0  0  0  0  0
  -10.8917   -4.8500    0.0000 N   0  0  3  0  0  0  0  0  0  0  0  0
  -13.4417   -0.3375    0.0000 N   0  0  3  0  0  0  0  0  0  0  0  0
  -13.4417   -3.4042    0.0000 C   0  0  0  0  0  0  0  0  0  0  0  0
  -10.8917    1.1958    0.0000 C   0  0  0  0  0  0  0  0  0  0  0  0
   -3.8333   -1.7792    0.0000 C   0  0  0  0  0  0  0  0  0  0  0  0
   -5.5333    0.5958    0.0000 N   0  0  3  0  0  0  0  0  0  0  0  0
  -16.0000   -4.9292    0.0000 O   0  0  0  0  0  0  0  0  0  0  0  0
  -10.8917    4.1667    0.0000 O   0  0  0  0  0  0  0  0  0  0  0  0
   -0.8583   -1.7792    0.0000 S   0  0  0  0  0  0  0  0  0  0  0  0
  -10.8917   -7.8292    0.0000 C   0  0  0  0  0  0  0  0  0  0  0  0
  -16.0000    1.2833    0.0000 C   0  0  0  0  0  0  0  0  0  0  0  0
   -4.5208    3.4083    0.0000 C   0  0  0  0  0  0  0  0  0  0  0  0
    0.6792   -4.3375    0.0000 C   0  0  0  0  0  0  0  0  0  0  0  0
  2  1  2  0  0  0  0
  3  1  1  0  0  0  0
  4  1  1  0  0  0  0
  5  6  1  0  0  0  0
  6  4  1  0  0  0  0
  7  2  1  0  0  0  0
  8  3  2  0  0  0  0
  9  2  1  0  0  0  0
 10  6  2  0  0  0  0
 11  7  2  0  0  0  0
 12  8  1  0  0  0  0
 13  4  1  0  0  0  0
 14  5  1  0  0  0  0
 15  9  1  0  0  0  0
 16 12  1  0  0  0  0
  9  8  1  0  0  0  0
  5  7  1  0  0  0  0
M  END
> <IDNUMBER>
F0907-6685

> <Chemical_Name>
1,3,7-trimethyl-8-(methylsulfanyl)-2,3,6,7-tetrahydro-1H-purine-2,6-dione

> <CAS>
6287-54-3

> <PriceCoeff>
1.50

> <MW>
240.28

> <Description>
solid

> <FSP3>
0.44

> <clogP>
1.10

> <TPSA>
83.74

> <Acceptor>
3

> <Donor>
1

> <RotBonds>
1

> <HAC>
16

> <Collection>
Advanced

> <Reference_compound>
CHEMBL113

> <Similarity>
0.8560

$$$$
F8880-8338
  -ISIS-  06222321472D

 12 13  0  0  0  0  0  0  0  0999 V2000
    1.4250   -1.6500    0.0000 N   0  0  0  0  0  0  0  0  0  0  0  0
    1.4250   -2.5042    0.0000 C   0  0  3  0  0  0  0  0  0  0  0  0
    1.8375   -3.2167    0.0000 C   0  0  0  0  0  0  0  0  0  0  0  0
    1.0125   -3.2167    0.0000 C   0  0  0  0  0  0  0  0  0  0  0  0
    0.7125   -1.2375    0.0000 C   0  0  3  0  0  0  0  0  0  0  0  0
    0.7125   -0.4125    0.0000 C   0  0  0  0  0  0  0  0  0  0  0  0
    1.4250    0.8583    0.0000 N   0  0  0  0  0  0  0  0  0  0  0  0
    1.4250   -0.0000    0.0000 C   0  0  0  0  0  0  0  0  0  0  0  0
    0.0000   -0.0000    0.0000 C   0  0  0  0  0  0  0  0  0  0  0  0
    0.7125    1.2708    0.0000 C   0  0  0  0  0  0  0  0  0  0  0  0
    0.0000   -1.6500    0.0000 C   0  0  0  0  0  0  0  0  0  0  0  0
    0.0000    0.8583    0.0000 C   0  0  0  0  0  0  0  0  0  0  0  0
  2  1  1  0  0  0  0
  3  2  1  0  0  0  0
  4  2  1  0  0  0  0
  5  1  1  0  0  0  0
  6  5  1  0  0  0  0
  7  8  1  0  0  0  0
  8  6  2  0  0  0  0
  9  6  1  0  0  0  0
 10 12  1  0  0  0  0
 11  5  1  0  0  0  0
 12  9  2  0  0  0  0
  4  3  1  0  0  0  0
 10  7  2  0  0  0  0
M  END
> <IDNUMBER>
F8880-8338

> <Chemical_Name>
N-[1-(pyridin-3-yl)ethyl]cyclopropanamine

> <CAS>
183609-12-3

> <PriceCoeff>
1.50

> <MW>
162.24

> <Description>
liquid

> <FSP3>
0.50

> <clogP>
0.91

> <TPSA>
24.92

> <Acceptor>
1

> <Donor>
2

> <RotBonds>
3

> <HAC>
12

> <Collection>
Advanced

> <Reference_compound>
PRI37682

> <Similarity>
0.8050

$$$$
F0634-0003
  -ISIS-  06222321452D

 22 24  0  0  0  0  0  0  0  0999 V2000
   -2.4208    1.7375    0.0000 C   0  0  0  0  0  0  0  0  0  0  0  0
   -2.4250    2.5583    0.0000 C   0  0  0  0  0  0  0  0  0  0  0  0
   -3.1375    1.3250    0.0000 N   0  0  3  0  0  0  0  0  0  0  0  0
   -3.8458    2.5583    0.0000 N   0  0  3  0  0  0  0  0  0  0  0  0
   -3.8458    1.7333    0.0000 C   0  0  0  0  0  0  0  0  0  0  0  0
   -3.1375    2.9833    0.0000 C   0  0  0  0  0  0  0  0  0  0  0  0
   -1.6375    1.4875    0.0000 N   0  0  0  0  0  0  0  0  0  0  0  0
   -1.1583    2.1583    0.0000 C   0  0  0  0  0  0  0  0  0  0  0  0
   -1.6458    2.8208    0.0000 N   0  0  3  0  0  0  0  0  0  0  0  0
   -0.3333    2.1625    0.0000 C   0  0  0  0  0  0  0  0  0  0  0  0
    0.0792    1.4583    0.0000 N   0  0  3  0  0  0  0  0  0  0  0  0
   -4.5625    1.3208    0.0000 O   0  0  0  0  0  0  0  0  0  0  0  0
   -3.1375    3.8000    0.0000 O   0  0  0  0  0  0  0  0  0  0  0  0
   -3.1375    0.5000    0.0000 C   0  0  0  0  0  0  0  0  0  0  0  0
   -4.5625    2.9708    0.0000 C   0  0  0  0  0  0  0  0  0  0  0  0
   -1.3958    3.6083    0.0000 C   0  0  0  0  0  0  0  0  0  0  0  0
    0.9000    1.4583    0.0000 C   0  0  0  0  0  0  0  0  0  0  0  0
   -0.3250    0.7458    0.0000 C   0  0  0  0  0  0  0  0  0  0  0  0
   -1.9500    4.2042    0.0000 C   0  0  0  0  0  0  0  0  0  0  0  0
    1.3167    0.7500    0.0000 C   0  0  0  0  0  0  0  0  0  0  0  0
    0.0875    0.0333    0.0000 C   0  0  0  0  0  0  0  0  0  0  0  0
    0.9125    0.0375    0.0000 C   0  0  0  0  0  0  0  0  0  0  0  0
  2  1  2  0  0  0  0
  3  1  1  0  0  0  0
  4  5  1  0  0  0  0
  5  3  1  0  0  0  0
  6  2  1  0  0  0  0
  7  1  1  0  0  0  0
  8  7  2  0  0  0  0
  9  2  1  0  0  0  0
 10  8  1  0  0  0  0
 11 10  1  0  0  0  0
 12  5  2  0  0  0  0
 13  6  2  0  0  0  0
 14  3  1  0  0  0  0
 15  4  1  0  0  0  0
 16  9  1  0  0  0  0
 17 11  1  0  0  0  0
 18 11  1  0  0  0  0
 19 16  1  0  0  0  0
 20 17  1  0  0  0  0
 21 18  1  0  0  0  0
 22 21  1  0  0  0  0
  9  8  1  0  0  0  0
  6  4  1  0  0  0  0
 22 20  1  0  0  0  0
M  END
> <IDNUMBER>
F0634-0003

> <Chemical_Name>
7-ethyl-1,3-dimethyl-8-[(piperidin-1-yl)methyl]-2,3,6,7-tetrahydro-1H-purine-2,6-dione

> <CAS>
876709-55-6

> <PriceCoeff>
1.50

> <MW>
305.38

> <Description>
solid

> <FSP3>
0.67

> <clogP>
1.52

> <TPSA>
28.42

> <Acceptor>
3

> <Donor>
2

> <RotBonds>
3

> <HAC>
22

> <Collection>
Advanced

> <Reference_compound>
CHEMBL113

> <Similarity>
0.8030

$$$$
F2158-0913
  -ISIS-  06222321462D

 12 13  0  0  0  0  0  0  0  0999 V2000
    0.9667    2.0000    0.0000 N   0  0  0  0  0  0  0  0  0  0  0  0
   -0.4583    1.9958    0.0000 C   0  0  0  0  0  0  0  0  0  0  0  0
    0.2542    2.4083    0.0000 C   0  0  3  0  0  0  0  0  0  0  0  0
   -1.1750    0.7583    0.0000 N   0  0  0  0  0  0  0  0  0  0  0  0
   -0.4583    1.1708    0.0000 C   0  0  0  0  0  0  0  0  0  0  0  0
    1.6792    2.4083    0.0000 C   0  0  0  0  0  0  0  0  0  0  0  0
   -1.1750    2.4083    0.0000 C   0  0  0  0  0  0  0  0  0  0  0  0
   -1.8875    1.1708    0.0000 C   0  0  0  0  0  0  0  0  0  0  0  0
    0.2500    3.2333    0.0000 C   0  0  0  0  0  0  0  0  0  0  0  0
   -1.8875    1.9958    0.0000 C   0  0  0  0  0  0  0  0  0  0  0  0
    1.6792    3.2333    0.0000 C   0  0  0  0  0  0  0  0  0  0  0  0
    0.9667    3.6458    0.0000 C   0  0  0  0  0  0  0  0  0  0  0  0
  2  3  1  0  0  0  0
  3  1  1  0  0  0  0
  4  5  2  0  0  0  0
  5  2  1  0  0  0  0
  6  1  1  0  0  0  0
  7  2  2  0  0  0  0
  8 10  2  0  0  0  0
  9  3  1  0  0  0  0
 10  7  1  0  0  0  0
 11  6  1  0  0  0  0
 12 11  1  0  0  0  0
  9 12  1  0  0  0  0
  4  8  1  0  0  0  0
M  END
> <IDNUMBER>
F2158-0913

> <Chemical_Name>
3-(piperidin-2-yl)pyridine

> <CAS>
13078-04-1

> <PriceCoeff>
1.50

> <MW>
162.23

> <Description>
liquid

> <FSP3>
0.50

> <clogP>
0.99

> <TPSA>
24.92

> <Acceptor>
1

> <Donor>
2

> <RotBonds>
1

> <HAC>
12

> <Collection>
Advanced

> <Reference_compound>
PRI37682

> <Similarity>
1.0000

$$$$
F0799-0101
  -ISIS-  06222321142D

 21 23  0  0  0  0  0  0  0  0999 V2000
    0.0292    0.9833    0.0000 C   0  0  0  0  0  0  0  0  0  0  0  0
    0.0292    1.7583    0.0000 C   0  0  0  0  0  0  0  0  0  0  0  0
    0.6917    0.5833    0.0000 N   0  0  0  0  0  0  0  0  0  0  0  0
   -0.6583    0.5833    0.0000 N   0  0  3  0  0  0  0  0  0  0  0  0
    1.3667    0.9583    0.0000 C   0  0  0  0  0  0  0  0  0  0  0  0
   -1.3208    1.7583    0.0000 N   0  0  3  0  0  0  0  0  0  0  0  0
   -1.3208    0.9708    0.0000 C   0  0  0  0  0  0  0  0  0  0  0  0
   -0.6583    2.1458    0.0000 C   0  0  0  0  0  0  0  0  0  0  0  0
    1.3792    1.7458    0.0000 N   0  0  3  0  0  0  0  0  0  0  0  0
    2.0292    0.5750    0.0000 N   0  0  3  0  0  0  0  0  0  0  0  0
    3.3625   -0.1917    0.0000 N   0  0  3  0  0  0  0  0  0  0  0  0
   -1.9958    0.5833    0.0000 O   0  0  0  0  0  0  0  0  0  0  0  0
   -0.6583    2.9333    0.0000 O   0  0  0  0  0  0  0  0  0  0  0  0
    2.0292   -0.1917    0.0000 C   0  0  0  0  0  0  0  0  0  0  0  0
    2.6917    0.9625    0.0000 C   0  0  0  0  0  0  0  0  0  0  0  0
   -0.6583   -0.1917    0.0000 C   0  0  0  0  0  0  0  0  0  0  0  0
   -2.0833    1.9583    0.0000 C   0  0  0  0  0  0  0  0  0  0  0  0
    1.9667    2.3208    0.0000 C   0  0  0  0  0  0  0  0  0  0  0  0
    3.3625    0.5750    0.0000 C   0  0  0  0  0  0  0  0  0  0  0  0
    2.6917   -0.5750    0.0000 C   0  0  0  0  0  0  0  0  0  0  0  0
    4.0250   -0.5750    0.0000 C   0  0  0  0  0  0  0  0  0  0  0  0
  2  1  2  0  0  0  0
  3  1  1  0  0  0  0
  4  1  1  0  0  0  0
  5  3  2  0  0  0  0
  6  7  1  0  0  0  0
  7  4  1  0  0  0  0
  8  2  1  0  0  0  0
  9  2  1  0  0  0  0
 10  5  1  0  0  0  0
 11 19  1  0  0  0  0
 12  7  2  0  0  0  0
 13  8  2  0  0  0  0
 14 10  1  0  0  0  0
 15 10  1  0  0  0  0
 16  4  1  0  0  0  0
 17  6  1  0  0  0  0
 18  9  1  0  0  0  0
 19 15  1  0  0  0  0
 20 14  1  0  0  0  0
 21 11  1  0  0  0  0
  5  9  1  0  0  0  0
  8  6  1  0  0  0  0
 20 11  1  0  0  0  0
M  END
> <IDNUMBER>
F0799-0101

> <Chemical_Name>
1,3,7-trimethyl-8-(4-methylpiperazin-1-yl)-2,3,6,7-tetrahydro-1H-purine-2,6-dione

> <CAS>
96294-94-9

> <PriceCoeff>
1.00

> <MW>
292.34

> <Description>
solid

> <FSP3>
0.62

> <clogP>
0.52

> <TPSA>
64.92

> <Acceptor>
4

> <Donor>
3

> <RotBonds>
1

> <HAC>
21

> <Collection>
General

> <Reference_compound>
CHEMBL113

> <Similarity>
0.8300

$$$$
F6511-9314
  -ISIS-  06222321152D

 15 16  0  0  0  0  0  0  0  0999 V2000
    6.1792   -9.0292    0.0000 N   0  0  0  0  0  0  0  0  0  0  0  0
    5.8417   -8.2792    0.0000 N   0  0  3  0  0  0  0  0  0  0  0  0
    5.5792   -9.5792    0.0000 N   0  0  0  0  0  0  0  0  0  0  0  0
    5.0167   -8.3667    0.0000 C   0  0  0  0  0  0  0  0  0  0  0  0
    4.8667   -9.1667    0.0000 C   0  0  0  0  0  0  0  0  0  0  0  0
    6.2792   -7.5667    0.0000 C   0  0  0  0  0  0  0  0  0  0  0  0
    7.1042   -7.5792    0.0000 C   0  0  0  0  0  0  0  0  0  0  0  0
    4.1125   -9.4917    0.0000 C   0  0  0  0  0  0  0  0  0  0  0  0
    7.5417   -6.8792    0.0000 C   0  0  0  0  0  0  0  0  0  0  0  0
    8.3792   -6.9042    0.0000 Br  0  0  0  0  0  0  0  0  0  0  0  0
    5.8917   -6.8292    0.0000 C   0  0  0  0  0  0  0  0  0  0  0  0
    2.6792   -9.3417    0.0000 O   0  0  0  0  0  0  0  0  0  0  0  0
    6.3250   -6.1292    0.0000 C   0  0  0  0  0  0  0  0  0  0  0  0
    3.4417   -9.0042    0.0000 C   0  0  0  0  0  0  0  0  0  0  0  0
    7.1500   -6.1542    0.0000 C   0  0  0  0  0  0  0  0  0  0  0  0
  2  1  1  0  0  0  0
  3  1  2  0  0  0  0
  4  2  1  0  0  0  0
  5  3  1  0  0  0  0
  6  2  1  0  0  0  0
  7  6  2  0  0  0  0
  8  5  1  0  0  0  0
  9  7  1  0  0  0  0
 10  9  1  0  0  0  0
 11  6  1  0  0  0  0
 12 14  1  0  0  0  0
 13 11  2  0  0  0  0
 14  8  1  0  0  0  0
 15 13  1  0  0  0  0
  5  4  2  0  0  0  0
 15  9  2  0  0  0  0
M  END
> <IDNUMBER>
F6511-9314

> <Chemical_Name>
2-[1-(3-bromophenyl)-1H-1,2,3-triazol-4-yl]ethan-1-ol

> <CAS>
1249588-05-3

> <PriceCoeff>
1.00

> <MW>
268.11

> <Description>
solid

> <FSP3>
0.20

> <clogP>
1.68

> <TPSA>
50.94

> <Acceptor>
3

> <Donor>
1

> <RotBonds>
3

> <HAC>
15

> <Collection>
General

> <Reference_compound>
CHEMBL237695

> <Similarity>
0.8280

$$$$
F6511-9321
  -ISIS-  06222321152D

 15 16  0  0  0  0  0  0  0  0999 V2000
    6.5792   -9.3792    0.0000 N   0  0  0  0  0  0  0  0  0  0  0  0
    6.2417   -8.6250    0.0000 N   0  0  3  0  0  0  0  0  0  0  0  0
    5.9667   -9.9292    0.0000 N   0  0  0  0  0  0  0  0  0  0  0  0
    5.4167   -8.7125    0.0000 C   0  0  0  0  0  0  0  0  0  0  0  0
    5.2542   -9.5167    0.0000 C   0  0  0  0  0  0  0  0  0  0  0  0
    6.6667   -7.9042    0.0000 C   0  0  0  0  0  0  0  0  0  0  0  0
    7.4917   -7.9292    0.0000 C   0  0  0  0  0  0  0  0  0  0  0  0
    6.2792   -7.1917    0.0000 C   0  0  0  0  0  0  0  0  0  0  0  0
    4.4917   -9.8542    0.0000 C   0  0  0  0  0  0  0  0  0  0  0  0
    7.5292   -6.4917    0.0000 C   0  0  0  0  0  0  0  0  0  0  0  0
    6.6917   -6.4792    0.0000 C   0  0  0  0  0  0  0  0  0  0  0  0
    7.9292   -7.2167    0.0000 C   0  0  0  0  0  0  0  0  0  0  0  0
    7.9542   -5.7917    0.0000 Br  0  0  0  0  0  0  0  0  0  0  0  0
    3.0750   -9.7042    0.0000 O   0  0  0  0  0  0  0  0  0  0  0  0
    3.8375   -9.3667    0.0000 C   0  0  0  0  0  0  0  0  0  0  0  0
  2  1  1  0  0  0  0
  3  1  2  0  0  0  0
  4  2  1  0  0  0  0
  5  3  1  0  0  0  0
  6  2  1  0  0  0  0
  7  6  2  0  0  0  0
  8  6  1  0  0  0  0
  9  5  1  0  0  0  0
 10 11  1  0  0  0  0
 11  8  2  0  0  0  0
 12  7  1  0  0  0  0
 13 10  1  0  0  0  0
 14 15  1  0  0  0  0
 15  9  1  0  0  0  0
  5  4  2  0  0  0  0
 10 12  2  0  0  0  0
M  END
> <IDNUMBER>
F6511-9321

> <Chemical_Name>
2-[1-(4-bromophenyl)-1H-1,2,3-triazol-4-yl]ethan-1-ol

> <CAS>
1247700-74-8

> <PriceCoeff>
1.00

> <MW>
268.11

> <Description>
solid

> <FSP3>
0.20

> <clogP>
1.68

> <TPSA>
50.94

> <Acceptor>
3

> <Donor>
1

> <RotBonds>
3

> <HAC>
15

> <Collection>
General

> <Reference_compound>
CHEMBL237695

> <Similarity>
0.8490

$$$$
F0481-0378
  -ISIS-  06222304342D

 13 13  0  0  0  0  0  0  0  0999 V2000
    0.1042    0.1125    0.0000 N   0  0  0  0  0  0  0  0  0  0  0  0
   -1.4958    0.1125    0.0000 C   0  0  0  0  0  0  0  0  0  0  0  0
   -0.7125    0.5708    0.0000 C   0  0  3  0  0  0  0  0  0  0  0  0
   -2.2708   -1.2667    0.0000 N   0  0  0  0  0  0  0  0  0  0  0  0
   -1.4958   -0.8042    0.0000 C   0  0  0  0  0  0  0  0  0  0  0  0
    0.8875    0.5708    0.0000 C   0  0  0  0  0  0  0  0  0  0  0  0
   -2.2958    0.5708    0.0000 C   0  0  0  0  0  0  0  0  0  0  0  0
   -3.0958   -0.8042    0.0000 C   0  0  0  0  0  0  0  0  0  0  0  0
   -0.7125    1.4958    0.0000 C   0  0  0  0  0  0  0  0  0  0  0  0
   -3.0958    0.1125    0.0000 C   0  0  0  0  0  0  0  0  0  0  0  0
    0.8875    1.4958    0.0000 C   0  0  0  0  0  0  0  0  0  0  0  0
    0.1042    1.9583    0.0000 C   0  0  0  0  0  0  0  0  0  0  0  0
    2.2750    0.2875    0.0000 Cl  0  0  0  0  0  0  0  0  0  0  0  0
  3  1  1  0  0  0  0
  4  5  1  0  0  0  0
  5  2  2  0  0  0  0
  6  1  1  0  0  0  0
  7  2  1  0  0  0  0
  8 10  1  0  0  0  0
  9  3  1  0  0  0  0
 10  7  2  0  0  0  0
 11  6  1  0  0  0  0
 12 11  1  0  0  0  0
 12  9  1  0  0  0  0
  4  8  2  0  0  0  0
  2  3  1  0  0  0  0
M  END
> <IDNUMBER>
F0481-0378

> <Chemical_Name>
3-(piperidin-2-yl)pyridine hydrochloride

> <CAS>
352220-15-6

> <PriceCoeff>
1.50

> <MW>
162.23

> <Description>
solid

> <FSP3>
0.50

> <clogP>
1.00

> <TPSA>
24.92

> <Acceptor>
1

> <Donor>
2

> <RotBonds>
1

> <HAC>
12

> <Collection>
Advanced

> <Reference_compound>
PRI37682

> <Similarity>
1.0000

$$$$
F0918-4252
  -ISIS-  06222321142D

 20 22  0  0  0  0  0  0  0  0999 V2000
   10.1417    5.5750    0.0000 C   0  0  0  0  0  0  0  0  0  0  0  0
   10.1417    3.3583    0.0000 C   0  0  0  0  0  0  0  0  0  0  0  0
    8.0375    6.3000    0.0000 N   0  0  0  0  0  0  0  0  0  0  0  0
   12.0625    6.7000    0.0000 N   0  0  3  0  0  0  0  0  0  0  0  0
    6.7250    4.4500    0.0000 C   0  0  0  0  0  0  0  0  0  0  0  0
   13.9875    3.3583    0.0000 N   0  0  3  0  0  0  0  0  0  0  0  0
   13.9875    5.5750    0.0000 C   0  0  0  0  0  0  0  0  0  0  0  0
   12.0625    2.2500    0.0000 C   0  0  0  0  0  0  0  0  0  0  0  0
    8.0375    2.6500    0.0000 N   0  0  3  0  0  0  0  0  0  0  0  0
    4.4750    4.2500    0.0000 N   0  0  3  0  0  0  0  0  0  0  0  0
   16.0000    6.7000    0.0000 O   0  0  0  0  0  0  0  0  0  0  0  0
   12.0625   -0.0000    0.0000 O   0  0  0  0  0  0  0  0  0  0  0  0
    0.0000    3.8625    0.0000 N   0  0  0  0  0  0  0  0  0  0  0  0
   12.0625    8.9375    0.0000 C   0  0  0  0  0  0  0  0  0  0  0  0
   16.0000    2.2500    0.0000 C   0  0  0  0  0  0  0  0  0  0  0  0
    7.3125    0.4750    0.0000 C   0  0  0  0  0  0  0  0  0  0  0  0
    3.5500    2.2500    0.0000 C   0  0  0  0  0  0  0  0  0  0  0  0
    3.2250    6.0917    0.0000 C   0  0  0  0  0  0  0  0  0  0  0  0
    1.3750    1.9875    0.0000 C   0  0  0  0  0  0  0  0  0  0  0  0
    0.9750    5.9000    0.0000 C   0  0  0  0  0  0  0  0  0  0  0  0
  2  1  2  0  0  0  0
  3  1  1  0  0  0  0
  4  1  1  0  0  0  0
  5  3  2  0  0  0  0
  6  7  1  0  0  0  0
  7  4  1  0  0  0  0
  8  2  1  0  0  0  0
  9  2  1  0  0  0  0
 10  5  1  0  0  0  0
 11  7  2  0  0  0  0
 12  8  2  0  0  0  0
 13 20  1  0  0  0  0
 14  4  1  0  0  0  0
 15  6  1  0  0  0  0
 16  9  1  0  0  0  0
 17 10  1  0  0  0  0
 18 10  1  0  0  0  0
 19 17  1  0  0  0  0
 20 18  1  0  0  0  0
  5  9  1  0  0  0  0
  8  6  1  0  0  0  0
 13 19  1  0  0  0  0
M  END
> <IDNUMBER>
F0918-4252

> <Chemical_Name>
1,3,7-trimethyl-8-(piperazin-1-yl)-2,3,6,7-tetrahydro-1H-purine-2,6-dione

> <CAS>
50693-74-8

> <PriceCoeff>
1.00

> <MW>
278.31

> <Description>
solid

> <FSP3>
0.58

> <clogP>
-0.06

> <TPSA>
73.71

> <Acceptor>
4

> <Donor>
3

> <RotBonds>
1

> <HAC>
20

> <Collection>
General

> <Reference_compound>
CHEMBL113

> <Similarity>
0.8270

$$$$
F6477-5328
  -ISIS-  06222304352D

 22 23  0  0  0  0  0  0  0  0999 V2000
    1.9667   -1.1292    0.0000 N   0  0  3  0  0  0  0  0  0  0  0  0
    5.2792   -0.7792    0.0000 C   0  0  0  0  0  0  0  0  0  0  0  0
    6.2292   -0.4667    0.0000 N   0  0  0  0  0  0  0  0  0  0  0  0
    4.4667   -0.2000    0.0000 N   0  0  0  0  0  0  0  0  0  0  0  0
    3.6625   -0.7792    0.0000 C   0  0  0  0  0  0  0  0  0  0  0  0
    2.0625   -2.1250    0.0000 C   0  0  0  0  0  0  0  0  0  0  0  0
    0.9792   -0.9167    0.0000 C   0  0  0  0  0  0  0  0  0  0  0  0
    6.4292    0.5125    0.0000 C   0  0  0  0  0  0  0  0  0  0  0  0
    4.9667   -1.7375    0.0000 S   0  0  0  0  0  0  0  0  0  0  0  0
    2.7125   -0.4667    0.0000 C   0  0  0  0  0  0  0  0  0  0  0  0
    3.9667   -1.7375    0.0000 C   0  0  0  0  0  0  0  0  0  0  0  0
    5.6875    1.1833    0.0000 N   0  0  0  0  0  0  0  0  0  0  0  0
    0.4792   -1.7792    0.0000 C   0  0  0  0  0  0  0  0  0  0  0  0
    1.1417   -2.5292    0.0000 C   0  0  0  0  0  0  0  0  0  0  0  0
    0.5750   -0.0042    0.0000 O   0  0  0  0  0  0  0  0  0  0  0  0
    2.9292   -2.6292    0.0000 O   0  0  0  0  0  0  0  0  0  0  0  0
    7.3792    0.8250    0.0000 C   0  0  0  0  0  0  0  0  0  0  0  0
    5.8917    2.1583    0.0000 C   0  0  0  0  0  0  0  0  0  0  0  0
    8.1292    0.1625    0.0000 C   0  0  0  0  0  0  0  0  0  0  0  0
    7.5792    1.8083    0.0000 C   0  0  0  0  0  0  0  0  0  0  0  0
    6.8417    2.4708    0.0000 C   0  0  0  0  0  0  0  0  0  0  0  0
    9.5167   -0.1333    0.0000 Cl  0  0  0  0  0  0  0  0  0  0  0  0
  3  2  1  0  0  0  0
  4  5  1  0  0  0  0
  5 10  1  0  0  0  0
  6  1  1  0  0  0  0
  7  1  1  0  0  0  0
  8  3  1  0  0  0  0
  9 11  1  0  0  0  0
 10  1  1  0  0  0  0
 11  5  2  0  0  0  0
 12  8  1  0  0  0  0
 13  7  1  0  0  0  0
 14  6  1  0  0  0  0
 15  7  2  0  0  0  0
 16  6  2  0  0  0  0
 17  8  2  0  0  0  0
 18 12  2  0  0  0  0
 19 17  1  0  0  0  0
 20 17  1  0  0  0  0
 21 20  2  0  0  0  0
 14 13  1  0  0  0  0
  2  9  1  0  0  0  0
 21 18  1  0  0  0  0
  2  4  2  0  0  0  0
M  END
> <IDNUMBER>
F6477-5328

> <Chemical_Name>
1-({2-[(3-methylpyridin-2-yl)amino]-1,3-thiazol-4-yl}methyl)pyrrolidine-2,5-dione hydrochloride

> <CAS>
2034619-98-0

> <PriceCoeff>
1.50

> <MW>
302.35

> <Description>
solid

> <FSP3>
0.29

> <clogP>
1.13

> <TPSA>
103.43

> <Acceptor>
4

> <Donor>
2

> <RotBonds>
4

> <HAC>
21

> <Collection>
Advanced

$$$$
F6481-0809
  -ISIS-  06222321462D

 24 26  0  0  0  0  0  0  0  0999 V2000
   -5.3583    5.4292    0.0000 N   0  0  3  0  0  0  0  0  0  0  0  0
   -4.5708    5.6875    0.0000 C   0  0  0  0  0  0  0  0  0  0  0  0
   -3.9583    5.1292    0.0000 C   0  0  0  0  0  0  0  0  0  0  0  0
   -6.0167    5.9167    0.0000 C   0  0  0  0  0  0  0  0  0  0  0  0
   -5.6083    4.6417    0.0000 C   0  0  0  0  0  0  0  0  0  0  0  0
   -3.1708    5.3875    0.0000 N   0  0  3  0  0  0  0  0  0  0  0  0
   -0.5083    5.4417    0.0000 C   0  0  0  0  0  0  0  0  0  0  0  0
   -1.3250    5.5542    0.0000 C   0  0  3  0  0  0  0  0  0  0  0  0
   -1.5833    6.3375    0.0000 S   0  0  0  0  0  0  0  0  0  0  0  0
   -1.7833    4.8667    0.0000 C   0  0  0  0  0  0  0  0  0  0  0  0
   -2.6083    4.7917    0.0000 C   0  0  0  0  0  0  0  0  0  0  0  0
   -4.1333    4.3250    0.0000 O   0  0  0  0  0  0  0  0  0  0  0  0
   -0.0083    6.0917    0.0000 C   0  0  0  0  0  0  0  0  0  0  0  0
   -6.4292    4.6417    0.0000 C   0  0  0  0  0  0  0  0  0  0  0  0
   -6.6875    5.4292    0.0000 C   0  0  0  0  0  0  0  0  0  0  0  0
   -5.1250    3.9833    0.0000 O   0  0  0  0  0  0  0  0  0  0  0  0
   -6.0167    6.7417    0.0000 O   0  0  0  0  0  0  0  0  0  0  0  0
   -0.3208    6.8542    0.0000 Cl  0  0  0  0  0  0  0  0  0  0  0  0
   -2.3583    6.6292    0.0000 C   0  0  0  0  0  0  0  0  0  0  0  0
   -3.0625    6.2042    0.0000 C   0  0  0  0  0  0  0  0  0  0  0  0
   -0.1958    4.6792    0.0000 C   0  0  0  0  0  0  0  0  0  0  0  0
    0.8125    5.9833    0.0000 C   0  0  0  0  0  0  0  0  0  0  0  0
    0.6167    4.5667    0.0000 C   0  0  0  0  0  0  0  0  0  0  0  0
    1.1250    5.2167    0.0000 C   0  0  0  0  0  0  0  0  0  0  0  0
  2  1  1  0  0  0  0
  3  2  1  0  0  0  0
  4  1  1  0  0  0  0
  5  1  1  0  0  0  0
  6  3  1  0  0  0  0
  7  8  1  0  0  0  0
  8 10  1  0  0  0  0
  9 19  1  0  0  0  0
 10 11  1  0  0  0  0
 11  6  1  0  0  0  0
 12  3  2  0  0  0  0
 13  7  1  0  0  0  0
 14  5  1  0  0  0  0
 15  4  1  0  0  0  0
 16  5  2  0  0  0  0
 17  4  2  0  0  0  0
 18 13  1  0  0  0  0
 19 20  1  0  0  0  0
 20  6  1  0  0  0  0
 21  7  2  0  0  0  0
 22 13  2  0  0  0  0
 23 21  1  0  0  0  0
 24 23  2  0  0  0  0
 15 14  1  0  0  0  0
  9  8  1  0  0  0  0
 22 24  1  0  0  0  0
M  END
> <IDNUMBER>
F6481-0809

> <Chemical_Name>
1-{2-[7-(2-chlorophenyl)-1,4-thiazepan-4-yl]-2-oxoethyl}pyrrolidine-2,5-dione

> <CAS>
1797185-75-1

> <PriceCoeff>
1.50

> <MW>
366.86

> <Description>
oil

> <FSP3>
0.47

> <clogP>
2.23

> <TPSA>
82.99

> <Acceptor>
3

> <Donor>
0

> <RotBonds>
4

> <HAC>
24

> <Collection>
Advanced

$$$$
F6525-0231
  -ISIS-  06222321472D

 21 23  0  0  0  0  0  0  0  0999 V2000
   -2.5708    5.9625    0.0000 C   0  0  0  0  0  0  0  0  0  0  0  0
   -2.4375    6.7792    0.0000 N   0  0  3  0  0  0  0  0  0  0  0  0
   -1.6375    6.8917    0.0000 N   0  0  0  0  0  0  0  0  0  0  0  0
   -1.8458    5.5917    0.0000 C   0  0  0  0  0  0  0  0  0  0  0  0
   -1.2708    6.1750    0.0000 C   0  0  0  0  0  0  0  0  0  0  0  0
   -4.7250    5.6417    0.0000 C   0  0  0  0  0  0  0  0  0  0  0  0
   -5.4208    6.0917    0.0000 C   0  0  0  0  0  0  0  0  0  0  0  0
   -3.3000    5.5792    0.0000 C   0  0  0  0  0  0  0  0  0  0  0  0
   -3.9958    6.0250    0.0000 N   0  0  0  0  0  0  0  0  0  0  0  0
   -5.3708    6.9167    0.0000 C   0  0  0  0  0  0  0  0  0  0  0  0
   -6.1417    5.7167    0.0000 C   0  0  0  0  0  0  0  0  0  0  0  0
   -4.7708    4.8167    0.0000 O   0  0  0  0  0  0  0  0  0  0  0  0
   -6.8417    6.1667    0.0000 C   0  0  0  0  0  0  0  0  0  0  0  0
   -6.0542    7.3667    0.0000 C   0  0  0  0  0  0  0  0  0  0  0  0
   -6.8042    6.9917    0.0000 C   0  0  0  0  0  0  0  0  0  0  0  0
   -1.4750    4.8750    0.0000 C   0  0  0  0  0  0  0  0  0  0  0  0
   -3.0000    7.3792    0.0000 C   0  0  0  0  0  0  0  0  0  0  0  0
   -0.5500    5.8042    0.0000 C   0  0  0  0  0  0  0  0  0  0  0  0
   -0.6583    5.0042    0.0000 C   0  0  0  0  0  0  0  0  0  0  0  0
   -6.0042    8.1875    0.0000 C   0  0  0  0  0  0  0  0  0  0  0  0
   -7.5917    5.8042    0.0000 C   0  0  0  0  0  0  0  0  0  0  0  0
  2  1  1  0  0  0  0
  3  2  1  0  0  0  0
  4  1  2  0  0  0  0
  5  4  1  0  0  0  0
  6  9  1  0  0  0  0
  7  6  1  0  0  0  0
  8  1  1  0  0  0  0
  9  8  1  0  0  0  0
 10  7  2  0  0  0  0
 11  7  1  0  0  0  0
 12  6  2  0  0  0  0
 13 11  2  0  0  0  0
 14 10  1  0  0  0  0
 15 13  1  0  0  0  0
 16  4  1  0  0  0  0
 17  2  1  0  0  0  0
 18  5  1  0  0  0  0
 19 16  1  0  0  0  0
 20 14  1  0  0  0  0
 21 13  1  0  0  0  0
  5  3  2  0  0  0  0
 19 18  1  0  0  0  0
 15 14  2  0  0  0  0
M  END
> <IDNUMBER>
F6525-0231

> <Chemical_Name>
3,5-dimethyl-N-({2-methyl-2H,4H,5H,6H-cyclopenta[c]pyrazol-3-yl}methyl)benzamide

> <CAS>
2034602-79-2

> <PriceCoeff>
1.50

> <MW>
283.37

> <Description>
solid

> <FSP3>
0.41

> <clogP>
2.50

> <TPSA>
46.92

> <Acceptor>
2

> <Donor>
1

> <RotBonds>
3

> <HAC>
21

> <Collection>
Advanced

> <Reference_compound>
CHEMBL2269988

> <Similarity>
0.8320

$$$$
F3259-0263
  -ISIS-  06222321152D

 17 18  0  0  0  0  0  0  0  0999 V2000
    4.7792   -3.9250    0.0000 C   0  0  0  0  0  0  0  0  0  0  0  0
    4.7792   -3.1500    0.0000 C   0  0  0  0  0  0  0  0  0  0  0  0
    4.0917   -4.3167    0.0000 N   0  0  3  0  0  0  0  0  0  0  0  0
    3.4292   -3.1500    0.0000 N   0  0  3  0  0  0  0  0  0  0  0  0
    3.4292   -3.9292    0.0000 C   0  0  0  0  0  0  0  0  0  0  0  0
    4.0917   -2.7542    0.0000 C   0  0  0  0  0  0  0  0  0  0  0  0
    5.4417   -4.3167    0.0000 N   0  0  0  0  0  0  0  0  0  0  0  0
    6.1292   -3.1542    0.0000 N   0  0  3  0  0  0  0  0  0  0  0  0
    6.1167   -3.9417    0.0000 C   0  0  0  0  0  0  0  0  0  0  0  0
    2.7542   -4.3167    0.0000 O   0  0  0  0  0  0  0  0  0  0  0  0
    4.0917   -1.9667    0.0000 O   0  0  0  0  0  0  0  0  0  0  0  0
    6.9250   -2.9417    0.0000 C   0  0  0  0  0  0  0  0  0  0  0  0
    4.0917   -5.1000    0.0000 C   0  0  0  0  0  0  0  0  0  0  0  0
    2.6750   -2.9417    0.0000 C   0  0  0  0  0  0  0  0  0  0  0  0
    7.1292   -2.1417    0.0000 C   0  0  3  0  0  0  0  0  0  0  0  0
    7.9292   -1.9292    0.0000 C   0  0  0  0  0  0  0  0  0  0  0  0
    6.5417   -1.5625    0.0000 C   0  0  0  0  0  0  0  0  0  0  0  0
  2  1  2  0  0  0  0
  3  1  1  0  0  0  0
  4  5  1  0  0  0  0
  5  3  1  0  0  0  0
  6  2  1  0  0  0  0
  7  1  1  0  0  0  0
  8  2  1  0  0  0  0
  9  7  2  0  0  0  0
 10  5  2  0  0  0  0
 11  6  2  0  0  0  0
 12  8  1  0  0  0  0
 13  3  1  0  0  0  0
 14  4  1  0  0  0  0
 15 12  1  0  0  0  0
 16 15  1  0  0  0  0
 17 15  1  0  0  0  0
  9  8  1  0  0  0  0
  6  4  1  0  0  0  0
M  END
> <IDNUMBER>
F3259-0263

> <Chemical_Name>
1,3-dimethyl-7-(2-methylpropyl)-2,3,6,7-tetrahydro-1H-purine-2,6-dione

> <CAS>
90162-60-0

> <PriceCoeff>
1.00

> <MW>
236.27

> <Description>
solid

> <FSP3>
0.55

> <clogP>
1.42

> <TPSA>
58.44

> <Acceptor>
3

> <Donor>
1

> <RotBonds>
2

> <HAC>
17

> <Collection>
General

> <Reference_compound>
CHEMBL113

> <Similarity>
0.9100

$$$$
F6511-9308
  -ISIS-  06222321442D

 19 20  0  0  0  0  0  0  0  0999 V2000
    5.5042   -8.3000    0.0000 N   0  0  3  0  0  0  0  0  0  0  0  0
    5.8417   -9.0417    0.0000 N   0  0  0  0  0  0  0  0  0  0  0  0
    5.9417   -7.5917    0.0000 C   0  0  0  0  0  0  0  0  0  0  0  0
    5.2292   -9.6042    0.0000 N   0  0  0  0  0  0  0  0  0  0  0  0
    4.6875   -8.3792    0.0000 C   0  0  0  0  0  0  0  0  0  0  0  0
    8.0292   -6.9375    0.0000 C   0  0  3  0  0  0  0  0  0  0  0  0
    4.5125   -9.1917    0.0000 C   0  0  0  0  0  0  0  0  0  0  0  0
    6.7625   -7.6125    0.0000 C   0  0  0  0  0  0  0  0  0  0  0  0
    7.2000   -6.9042    0.0000 C   0  0  0  0  0  0  0  0  0  0  0  0
    5.5542   -6.8625    0.0000 C   0  0  0  0  0  0  0  0  0  0  0  0
    6.8042   -6.1917    0.0000 C   0  0  0  0  0  0  0  0  0  0  0  0
    5.9875   -6.1667    0.0000 C   0  0  0  0  0  0  0  0  0  0  0  0
    8.0500   -6.1000    0.0000 F   0  0  0  0  0  0  0  0  0  0  0  0
    8.0000   -7.7750    0.0000 F   0  0  0  0  0  0  0  0  0  0  0  0
    8.8417   -6.9625    0.0000 F   0  0  0  0  0  0  0  0  0  0  0  0
    3.7542   -9.5167    0.0000 C   0  0  0  0  0  0  0  0  0  0  0  0
    4.7167   -6.8375    0.0000 Cl  0  0  0  0  0  0  0  0  0  0  0  0
    2.3292   -9.3667    0.0000 O   0  0  0  0  0  0  0  0  0  0  0  0
    3.0917   -9.0292    0.0000 C   0  0  0  0  0  0  0  0  0  0  0  0
  2  1  1  0  0  0  0
  3  1  1  0  0  0  0
  4  2  2  0  0  0  0
  5  1  1  0  0  0  0
  6  9  1  0  0  0  0
  7  5  2  0  0  0  0
  8  3  2  0  0  0  0
  9  8  1  0  0  0  0
 10  3  1  0  0  0  0
 11 12  1  0  0  0  0
 12 10  2  0  0  0  0
 13  6  1  0  0  0  0
 14  6  1  0  0  0  0
 15  6  1  0  0  0  0
 16  7  1  0  0  0  0
 17 10  1  0  0  0  0
 18 19  1  0  0  0  0
 19 16  1  0  0  0  0
  7  4  1  0  0  0  0
 11  9  2  0  0  0  0
M  END
> <IDNUMBER>
F6511-9308

> <Chemical_Name>
2-{1-[2-chloro-5-(trifluoromethyl)phenyl]-1H-1,2,3-triazol-4-yl}ethan-1-ol

> <CAS>
2176069-19-3

> <PriceCoeff>
1.00

> <MW>
291.65

> <Description>
oil

> <FSP3>
0.27

> <clogP>
2.60

> <TPSA>
50.94

> <Acceptor>
3

> <Donor>
1

> <RotBonds>
3

> <HAC>
19

> <Collection>
General

> <Reference_compound>
CHEMBL437189

> <Similarity>
0.8110

$$$$
F6572-1379
  -ISIS-  06222321472D

 15 16  0  0  0  0  0  0  0  0999 V2000
   -9.5042    6.2625    0.0000 N   0  0  3  0  0  0  0  0  0  0  0  0
   -8.7917    6.6917    0.0000 N   0  0  0  0  0  0  0  0  0  0  0  0
   -8.1750    6.1542    0.0000 N   0  0  0  0  0  0  0  0  0  0  0  0
   -9.2917    5.4542    0.0000 C   0  0  0  0  0  0  0  0  0  0  0  0
   -8.4667    5.4000    0.0000 C   0  0  0  0  0  0  0  0  0  0  0  0
  -10.2792    6.5417    0.0000 C   0  0  0  0  0  0  0  0  0  0  0  0
  -10.9292    6.0167    0.0000 C   0  0  0  0  0  0  0  0  0  0  0  0
   -8.0292    4.6917    0.0000 C   0  0  0  0  0  0  0  0  0  0  0  0
  -10.8167    5.1917    0.0000 Cl  0  0  0  0  0  0  0  0  0  0  0  0
  -10.4292    7.3667    0.0000 C   0  0  0  0  0  0  0  0  0  0  0  0
   -7.9667    3.2750    0.0000 O   0  0  0  0  0  0  0  0  0  0  0  0
   -8.4042    3.9708    0.0000 C   0  0  0  0  0  0  0  0  0  0  0  0
  -11.6917    6.3125    0.0000 C   0  0  0  0  0  0  0  0  0  0  0  0
  -11.2042    7.6500    0.0000 C   0  0  0  0  0  0  0  0  0  0  0  0
  -11.8375    7.1250    0.0000 C   0  0  0  0  0  0  0  0  0  0  0  0
  2  1  1  0  0  0  0
  3  2  2  0  0  0  0
  4  1  1  0  0  0  0
  5  4  2  0  0  0  0
  6  1  1  0  0  0  0
  7  6  1  0  0  0  0
  8  5  1  0  0  0  0
  9  7  1  0  0  0  0
 10  6  2  0  0  0  0
 11 12  1  0  0  0  0
 12  8  1  0  0  0  0
 13  7  2  0  0  0  0
 14 10  1  0  0  0  0
 15 14  2  0  0  0  0
  5  3  1  0  0  0  0
 15 13  1  0  0  0  0
M  END
> <IDNUMBER>
F6572-1379

> <Chemical_Name>
2-[1-(2-chlorophenyl)-1H-1,2,3-triazol-4-yl]ethan-1-ol

> <CAS>
1006917-18-5

> <PriceCoeff>
1.50

> <MW>
223.66

> <Description>
oil

> <FSP3>
0.20

> <clogP>
1.53

> <TPSA>
50.94

> <Acceptor>
3

> <Donor>
1

> <RotBonds>
3

> <HAC>
15

> <Collection>
Advanced

> <Reference_compound>
CHEMBL236432

> <Similarity>
0.8450

$$$$
F3259-0259
  -ISIS-  06222321152D

 15 16  0  0  0  0  0  0  0  0999 V2000
    0.1792   -0.5042    0.0000 C   0  0  0  0  0  0  0  0  0  0  0  0
    0.1875    0.2708    0.0000 C   0  0  0  0  0  0  0  0  0  0  0  0
   -0.5000   -0.9000    0.0000 N   0  0  3  0  0  0  0  0  0  0  0  0
   -1.1625    0.2708    0.0000 N   0  0  3  0  0  0  0  0  0  0  0  0
   -1.1625   -0.5125    0.0000 C   0  0  0  0  0  0  0  0  0  0  0  0
   -0.5000    0.6625    0.0000 C   0  0  0  0  0  0  0  0  0  0  0  0
    0.8500   -0.9042    0.0000 N   0  0  0  0  0  0  0  0  0  0  0  0
    1.5375    0.2625    0.0000 N   0  0  3  0  0  0  0  0  0  0  0  0
    1.5167   -0.5250    0.0000 C   0  0  0  0  0  0  0  0  0  0  0  0
   -1.8458   -0.9042    0.0000 O   0  0  0  0  0  0  0  0  0  0  0  0
   -0.5000    1.4500    0.0000 O   0  0  0  0  0  0  0  0  0  0  0  0
   -0.5000   -1.6792    0.0000 C   0  0  0  0  0  0  0  0  0  0  0  0
   -1.9208    0.4750    0.0000 C   0  0  0  0  0  0  0  0  0  0  0  0
    1.5375    1.0875    0.0000 C   0  0  0  0  0  0  0  0  0  0  0  0
    2.2417    1.5000    0.0000 C   0  0  0  0  0  0  0  0  0  0  0  0
  2  1  2  0  0  0  0
  3  1  1  0  0  0  0
  4  5  1  0  0  0  0
  5  3  1  0  0  0  0
  6  2  1  0  0  0  0
  7  1  1  0  0  0  0
  8  2  1  0  0  0  0
  9  7  2  0  0  0  0
 10  5  2  0  0  0  0
 11  6  2  0  0  0  0
 12  3  1  0  0  0  0
 13  4  1  0  0  0  0
 14  8  1  0  0  0  0
 15 14  1  0  0  0  0
  8  9  1  0  0  0  0
  6  4  1  0  0  0  0
M  END
> <IDNUMBER>
F3259-0259

> <Chemical_Name>
7-ethyl-1,3-dimethyl-2,3,6,7-tetrahydro-1H-purine-2,6-dione

> <CAS>
23043-88-1

> <PriceCoeff>
1.00

> <MW>
208.22

> <Description>
solid

> <FSP3>
0.44

> <clogP>
0.49

> <TPSA>
58.44

> <Acceptor>
3

> <Donor>
1

> <RotBonds>
1

> <HAC>
15

> <Collection>
General

> <Reference_compound>
CHEMBL113

> <Similarity>
0.9490

$$$$
F0799-0051
  -ISIS-  06222321142D

 19 20  0  0  0  0  0  0  0  0999 V2000
    2.2167   -0.9292    0.0000 C   0  0  0  0  0  0  0  0  0  0  0  0
    2.2167   -0.1542    0.0000 C   0  0  0  0  0  0  0  0  0  0  0  0
    2.8792   -1.3292    0.0000 N   0  0  0  0  0  0  0  0  0  0  0  0
    1.5292   -1.3167    0.0000 N   0  0  3  0  0  0  0  0  0  0  0  0
    0.8667   -0.1542    0.0000 N   0  0  3  0  0  0  0  0  0  0  0  0
    3.5542   -0.9417    0.0000 C   0  0  0  0  0  0  0  0  0  0  0  0
    0.8667   -0.9417    0.0000 C   0  0  0  0  0  0  0  0  0  0  0  0
    1.5292    0.2375    0.0000 C   0  0  0  0  0  0  0  0  0  0  0  0
    3.5667   -0.1542    0.0000 N   0  0  3  0  0  0  0  0  0  0  0  0
    4.2167   -1.3417    0.0000 N   0  0  3  0  0  0  0  0  0  0  0  0
    0.1917   -1.3292    0.0000 O   0  0  0  0  0  0  0  0  0  0  0  0
    1.5292    1.0208    0.0000 O   0  0  0  0  0  0  0  0  0  0  0  0
    4.3875   -0.1542    0.0000 C   0  0  0  0  0  0  0  0  0  0  0  0
    1.5292   -2.1042    0.0000 C   0  0  0  0  0  0  0  0  0  0  0  0
    0.1125    0.0458    0.0000 C   0  0  0  0  0  0  0  0  0  0  0  0
    4.7917    0.5500    0.0000 C   0  0  0  0  0  0  0  0  0  0  0  0
    5.6167    0.5500    0.0000 C   0  0  0  0  0  0  0  0  0  0  0  0
    4.8917   -0.9625    0.0000 C   0  0  0  0  0  0  0  0  0  0  0  0
    4.2125   -2.1125    0.0000 C   0  0  0  0  0  0  0  0  0  0  0  0
  2  1  2  0  0  0  0
  3  1  1  0  0  0  0
  4  1  1  0  0  0  0
  5  7  1  0  0  0  0
  6  3  2  0  0  0  0
  7  4  1  0  0  0  0
  8  2  1  0  0  0  0
  9  2  1  0  0  0  0
 10  6  1  0  0  0  0
 11  7  2  0  0  0  0
 12  8  2  0  0  0  0
 13  9  1  0  0  0  0
 14  4  1  0  0  0  0
 15  5  1  0  0  0  0
 16 13  1  0  0  0  0
 17 16  2  0  0  0  0
 18 10  1  0  0  0  0
 19 10  1  0  0  0  0
  6  9  1  0  0  0  0
  8  5  1  0  0  0  0
M  END
> <IDNUMBER>
F0799-0051

> <Chemical_Name>
8-(dimethylamino)-1,3-dimethyl-7-(prop-2-en-1-yl)-2,3,6,7-tetrahydro-1H-purine-2,6-dione

> <CAS>
377064-38-5

> <PriceCoeff>
1.00

> <MW>
263.30

> <Description>
solid

> <FSP3>
0.42

> <clogP>
1.44

> <TPSA>
61.68

> <Acceptor>
3

> <Donor>
2

> <RotBonds>
3

> <HAC>
19

> <Collection>
General

> <Reference_compound>
CHEMBL113

> <Similarity>
0.8030

$$$$
F6525-0151
  -ISIS-  06222321472D

 22 24  0  0  0  0  0  0  0  0999 V2000
   -2.5708    5.9708    0.0000 C   0  0  0  0  0  0  0  0  0  0  0  0
   -2.4458    6.7917    0.0000 N   0  0  3  0  0  0  0  0  0  0  0  0
   -1.6375    6.9042    0.0000 N   0  0  0  0  0  0  0  0  0  0  0  0
   -1.8500    5.6042    0.0000 C   0  0  0  0  0  0  0  0  0  0  0  0
   -1.2708    6.1875    0.0000 C   0  0  0  0  0  0  0  0  0  0  0  0
   -3.3083    5.5917    0.0000 C   0  0  0  0  0  0  0  0  0  0  0  0
   -4.7333    5.6542    0.0000 C   0  0  0  0  0  0  0  0  0  0  0  0
   -4.0083    6.0333    0.0000 N   0  0  0  0  0  0  0  0  0  0  0  0
   -4.7792    4.8292    0.0000 O   0  0  0  0  0  0  0  0  0  0  0  0
   -6.1542    5.7292    0.0000 C   0  0  0  0  0  0  0  0  0  0  0  0
   -5.4250    6.1042    0.0000 C   0  0  0  0  0  0  0  0  0  0  0  0
   -1.4833    4.8875    0.0000 C   0  0  0  0  0  0  0  0  0  0  0  0
   -6.2000    4.9042    0.0000 C   0  0  0  0  0  0  0  0  0  0  0  0
   -3.0083    7.3917    0.0000 C   0  0  0  0  0  0  0  0  0  0  0  0
   -6.9292    4.5250    0.0000 C   0  0  0  0  0  0  0  0  0  0  0  0
   -0.5500    5.8167    0.0000 C   0  0  0  0  0  0  0  0  0  0  0  0
   -6.9500    3.7042    0.0000 O   0  0  0  0  0  0  0  0  0  0  0  0
   -0.6583    5.0125    0.0000 C   0  0  0  0  0  0  0  0  0  0  0  0
   -7.5917    5.8042    0.0000 C   0  0  0  0  0  0  0  0  0  0  0  0
   -6.8583    6.1792    0.0000 C   0  0  0  0  0  0  0  0  0  0  0  0
   -7.6417    4.9792    0.0000 C   0  0  0  0  0  0  0  0  0  0  0  0
   -6.2417    3.2750    0.0000 C   0  0  0  0  0  0  0  0  0  0  0  0
  2  1  1  0  0  0  0
  3  2  1  0  0  0  0
  4  1  2  0  0  0  0
  5  4  1  0  0  0  0
  6  1  1  0  0  0  0
  7  8  1  0  0  0  0
  8  6  1  0  0  0  0
  9  7  2  0  0  0  0
 10 11  1  0  0  0  0
 11  7  1  0  0  0  0
 12  4  1  0  0  0  0
 13 10  1  0  0  0  0
 14  2  1  0  0  0  0
 15 13  2  0  0  0  0
 16  5  1  0  0  0  0
 17 15  1  0  0  0  0
 18 12  1  0  0  0  0
 19 20  1  0  0  0  0
 20 10  2  0  0  0  0
 21 19  2  0  0  0  0
 22 17  1  0  0  0  0
  5  3  2  0  0  0  0
 18 16  1  0  0  0  0
 15 21  1  0  0  0  0
M  END
> <IDNUMBER>
F6525-0151

> <Chemical_Name>
2-(3-methoxyphenyl)-N-({2-methyl-2H,4H,5H,6H-cyclopenta[c]pyrazol-3-yl}methyl)acetamide

> <CAS>
2034453-36-4

> <PriceCoeff>
1.50

> <MW>
299.37

> <Description>
solid

> <FSP3>
0.41

> <clogP>
1.31

> <TPSA>
56.15

> <Acceptor>
3

> <Donor>
1

> <RotBonds>
5

> <HAC>
22

> <Collection>
Advanced

> <Reference_compound>
CHEMBL2269988

> <Similarity>
0.8090

$$$$
F8889-6491
  -ISIS-  06222321162D

 14 14  0  0  0  0  0  0  0  0999 V2000
   -1.6083   -3.2292    0.0000 C   0  0  0  0  0  0  0  0  0  0  0  0
   -1.6208    0.0583    0.0000 C   0  0  0  0  0  0  0  0  0  0  0  0
   -1.6208   -2.4042    0.0000 C   0  0  0  0  0  0  0  0  0  0  0  0
   -1.6208   -0.7500    0.0000 C   0  0  0  0  0  0  0  0  0  0  0  0
   -0.9000   -3.6417    0.0000 O   0  0  0  0  0  0  0  0  0  0  0  0
   -2.3333    0.4708    0.0000 O   0  0  0  0  0  0  0  0  0  0  0  0
   -2.3333   -1.1667    0.0000 C   0  0  0  0  0  0  0  0  0  0  0  0
   -0.9000   -1.9917    0.0000 C   0  0  0  0  0  0  0  0  0  0  0  0
   -0.9000   -1.1625    0.0000 C   0  0  0  0  0  0  0  0  0  0  0  0
   -2.3333   -1.9917    0.0000 C   0  0  0  0  0  0  0  0  0  0  0  0
   -2.3333   -3.6417    0.0000 O   0  0  0  0  0  0  0  0  0  0  0  0
   -0.9083    0.4708    0.0000 O   0  0  0  0  0  0  0  0  0  0  0  0
   -0.1958    0.0583    0.0000 C   0  0  0  0  0  0  0  0  0  0  0  0
    0.5000    0.4750    0.0000 C   0  0  0  0  0  0  0  0  0  0  0  0
  2  4  1  0  0  0  0
  3  1  1  0  0  0  0
  4  7  1  0  0  0  0
  5  1  2  0  0  0  0
  6  2  2  0  0  0  0
  7 10  2  0  0  0  0
  8  3  2  0  0  0  0
  9  8  1  0  0  0  0
 10  3  1  0  0  0  0
 11  1  1  0  0  0  0
 12  2  1  0  0  0  0
 13 12  1  0  0  0  0
 14 13  1  0  0  0  0
  4  9  2  0  0  0  0
M  END
> <IDNUMBER>
F8889-6491

> <Chemical_Name>
4-(ethoxycarbonyl)benzoic acid

> <CAS>
713-57-5

> <PriceCoeff>
1.00

> <MW>
194.18

> <Description>
solid

> <FSP3>
0.20

> <clogP>
2.56

> <TPSA>
63.60

> <Acceptor>
4

> <Donor>
0

> <RotBonds>
4

> <HAC>
14

> <Collection>
General

> <Reference_compound>
PRI1598

> <Similarity>
0.8460

$$$$
F6477-5330
  -ISIS-  06222304352D

 21 22  0  0  0  0  0  0  0  0999 V2000
    1.9667   -1.1292    0.0000 N   0  0  3  0  0  0  0  0  0  0  0  0
    5.2792   -0.7792    0.0000 C   0  0  0  0  0  0  0  0  0  0  0  0
    4.4667   -0.2000    0.0000 N   0  0  0  0  0  0  0  0  0  0  0  0
    3.6625   -0.7792    0.0000 C   0  0  0  0  0  0  0  0  0  0  0  0
    0.9792   -0.9167    0.0000 C   0  0  0  0  0  0  0  0  0  0  0  0
    2.0625   -2.1250    0.0000 C   0  0  0  0  0  0  0  0  0  0  0  0
    4.9667   -1.7375    0.0000 S   0  0  0  0  0  0  0  0  0  0  0  0
    2.7125   -0.4667    0.0000 C   0  0  0  0  0  0  0  0  0  0  0  0
    3.9667   -1.7375    0.0000 C   0  0  0  0  0  0  0  0  0  0  0  0
    6.2292   -0.4667    0.0000 N   0  0  0  0  0  0  0  0  0  0  0  0
    0.4792   -1.7792    0.0000 C   0  0  0  0  0  0  0  0  0  0  0  0
    1.1417   -2.5292    0.0000 C   0  0  0  0  0  0  0  0  0  0  0  0
    0.5750   -0.0042    0.0000 O   0  0  0  0  0  0  0  0  0  0  0  0
    2.9292   -2.6292    0.0000 O   0  0  0  0  0  0  0  0  0  0  0  0
    7.5875    1.8083    0.0000 N   0  0  0  0  0  0  0  0  0  0  0  0
    6.4292    0.5125    0.0000 C   0  0  0  0  0  0  0  0  0  0  0  0
    7.3875    0.8333    0.0000 C   0  0  0  0  0  0  0  0  0  0  0  0
    6.8417    2.4708    0.0000 C   0  0  0  0  0  0  0  0  0  0  0  0
    5.6875    1.1833    0.0000 C   0  0  0  0  0  0  0  0  0  0  0  0
    5.8917    2.1625    0.0000 C   0  0  0  0  0  0  0  0  0  0  0  0
    9.0750   -0.1292    0.0000 Cl  0  0  0  0  0  0  0  0  0  0  0  0
  3  4  1  0  0  0  0
  4  8  1  0  0  0  0
  5  1  1  0  0  0  0
  6  1  1  0  0  0  0
  7  9  1  0  0  0  0
  8  1  1  0  0  0  0
  9  4  2  0  0  0  0
 10  2  1  0  0  0  0
 11  5  1  0  0  0  0
 12  6  1  0  0  0  0
 13  5  2  0  0  0  0
 14  6  2  0  0  0  0
 15 17  1  0  0  0  0
 16 10  1  0  0  0  0
 17 16  2  0  0  0  0
 18 20  1  0  0  0  0
 19 16  1  0  0  0  0
 20 19  2  0  0  0  0
 12 11  1  0  0  0  0
  2  7  1  0  0  0  0
 18 15  2  0  0  0  0
  2  3  2  0  0  0  0
M  END
> <IDNUMBER>
F6477-5330

> <Chemical_Name>
1-({2-[(pyridin-3-yl)amino]-1,3-thiazol-4-yl}methyl)pyrrolidine-2,5-dione hydrochloride

> <CAS>
2034302-09-3

> <PriceCoeff>
1.00

> <MW>
288.32

> <Description>
oil

> <FSP3>
0.23

> <clogP>
0.64

> <TPSA>
103.43

> <Acceptor>
5

> <Donor>
2

> <RotBonds>
4

> <HAC>
20

> <Collection>
General

$$$$
F0001-2175
  -ISIS-  06222321142D

  9  9  0  0  0  0  0  0  0  0999 V2000
   -0.6458   -1.1167    0.0000 C   0  0  0  0  0  0  0  0  0  0  0  0
   -0.6458   -0.2917    0.0000 C   0  0  3  0  0  0  0  0  0  0  0  0
    0.0750   -1.5292    0.0000 O   0  0  0  0  0  0  0  0  0  0  0  0
   -1.3500    0.9375    0.0000 O   0  0  0  0  0  0  0  0  0  0  0  0
   -1.3583   -1.5292    0.0000 O   0  0  0  0  0  0  0  0  0  0  0  0
   -1.3500    0.1125    0.0000 C   0  0  0  0  0  0  0  0  0  0  0  0
    0.0667    0.1125    0.0000 C   0  0  0  0  0  0  0  0  0  0  0  0
   -0.6458    1.3583    0.0000 C   0  0  0  0  0  0  0  0  0  0  0  0
    0.0667    0.9375    0.0000 C   0  0  0  0  0  0  0  0  0  0  0  0
  2  1  1  0  0  0  0
  3  1  2  0  0  0  0
  4  6  1  0  0  0  0
  5  1  1  0  0  0  0
  6  2  1  0  0  0  0
  7  2  1  0  0  0  0
  8  9  1  0  0  0  0
  9  7  1  0  0  0  0
  8  4  1  0  0  0  0
M  END
> <IDNUMBER>
F0001-2175

> <Chemical_Name>
oxane-3-carboxylic acid

> <CAS>
873397-34-3

> <PriceCoeff>
1.00

> <MW>
130.14

> <Description>
liquid

> <FSP3>
0.83

> <clogP>
0.09

> <TPSA>
46.53

> <Acceptor>
3

> <Donor>
0

> <RotBonds>
1

> <HAC>
9

> <Collection>
General

> <Reference_compound>
CHEMBL2228306

> <Similarity>
0.8310

$$$$
F8883-3578
  -ISIS-  06222321162D

  9  8  0  0  0  0  0  0  0  0999 V2000
    2.6375    0.7208    0.0000 C   0  0  3  0  0  0  0  0  0  0  0  0
    1.9250    1.1333    0.0000 O   0  0  0  0  0  0  0  0  0  0  0  0
    1.2250    0.7208    0.0000 C   0  0  0  0  0  0  0  0  0  0  0  0
    0.5042    1.9458    0.0000 O   0  0  0  0  0  0  0  0  0  0  0  0
    0.5042    1.1333    0.0000 C   0  0  3  0  0  0  0  0  0  0  0  0
    2.2250   -0.0000    0.0000 C   0  0  0  0  0  0  0  0  0  0  0  0
    3.0500    1.4333    0.0000 C   0  0  0  0  0  0  0  0  0  0  0  0
    3.3542    0.3083    0.0000 C   0  0  0  0  0  0  0  0  0  0  0  0
   -0.1958    0.7208    0.0000 C   0  0  0  0  0  0  0  0  0  0  0  0
  2  1  1  0  0  0  0
  3  2  1  0  0  0  0
  4  5  1  0  0  0  0
  5  3  1  0  0  0  0
  6  1  1  0  0  0  0
  7  1  1  0  0  0  0
  8  1  1  0  0  0  0
  9  5  1  0  0  0  0
M  END
> <IDNUMBER>
F8883-3578

> <Chemical_Name>
1-(tert-butoxy)propan-2-ol

> <CAS>
57018-52-7

> <PriceCoeff>
1.00

> <MW>
132.20

> <Description>
liquid

> <FSP3>
1.00

> <clogP>
0.80

> <TPSA>
29.46

> <Acceptor>
2

> <Donor>
1

> <RotBonds>
2

> <HAC>
9

> <Collection>
General

> <Reference_compound>
PRI2837

> <Similarity>
0.8410

$$$$
F6477-5326
  -ISIS-  06222304352D

 22 23  0  0  0  0  0  0  0  0999 V2000
    1.9667   -1.1292    0.0000 N   0  0  3  0  0  0  0  0  0  0  0  0
    5.2792   -0.7792    0.0000 C   0  0  0  0  0  0  0  0  0  0  0  0
    4.4667   -0.2000    0.0000 N   0  0  0  0  0  0  0  0  0  0  0  0
    3.6625   -0.7792    0.0000 C   0  0  0  0  0  0  0  0  0  0  0  0
    0.9792   -0.9167    0.0000 C   0  0  0  0  0  0  0  0  0  0  0  0
    2.0625   -2.1250    0.0000 C   0  0  0  0  0  0  0  0  0  0  0  0
    4.9667   -1.7375    0.0000 S   0  0  0  0  0  0  0  0  0  0  0  0
    6.2292   -0.4667    0.0000 N   0  0  0  0  0  0  0  0  0  0  0  0
    2.7125   -0.4667    0.0000 C   0  0  0  0  0  0  0  0  0  0  0  0
    3.9667   -1.7375    0.0000 C   0  0  0  0  0  0  0  0  0  0  0  0
    6.4292    0.5125    0.0000 C   0  0  0  0  0  0  0  0  0  0  0  0
    1.1417   -2.5292    0.0000 C   0  0  0  0  0  0  0  0  0  0  0  0
    0.4792   -1.7792    0.0000 C   0  0  0  0  0  0  0  0  0  0  0  0
    2.9292   -2.6292    0.0000 O   0  0  0  0  0  0  0  0  0  0  0  0
    0.5750   -0.0042    0.0000 O   0  0  0  0  0  0  0  0  0  0  0  0
    5.8917    2.1583    0.0000 N   0  0  0  0  0  0  0  0  0  0  0  0
    7.3792    0.8250    0.0000 C   0  0  0  0  0  0  0  0  0  0  0  0
    5.6875    1.1833    0.0000 C   0  0  0  0  0  0  0  0  0  0  0  0
    6.8417    2.4708    0.0000 C   0  0  0  0  0  0  0  0  0  0  0  0
    7.5792    1.8083    0.0000 C   0  0  0  0  0  0  0  0  0  0  0  0
    8.1292    0.1625    0.0000 C   0  0  0  0  0  0  0  0  0  0  0  0
    9.5167   -0.1292    0.0000 Cl  0  0  0  0  0  0  0  0  0  0  0  0
  3  4  1  0  0  0  0
  4  9  1  0  0  0  0
  5  1  1  0  0  0  0
  6  1  1  0  0  0  0
  7 10  1  0  0  0  0
  8  2  1  0  0  0  0
  9  1  1  0  0  0  0
 10  4  2  0  0  0  0
 11  8  1  0  0  0  0
 12  6  1  0  0  0  0
 13  5  1  0  0  0  0
 14  6  2  0  0  0  0
 15  5  2  0  0  0  0
 16 18  1  0  0  0  0
 17 11  1  0  0  0  0
 18 11  2  0  0  0  0
 19 16  2  0  0  0  0
 20 17  2  0  0  0  0
 21 17  1  0  0  0  0
 12 13  1  0  0  0  0
  2  7  1  0  0  0  0
 19 20  1  0  0  0  0
  2  3  2  0  0  0  0
M  END
> <IDNUMBER>
F6477-5326

> <Chemical_Name>
1-({2-[(4-methylpyridin-3-yl)amino]-1,3-thiazol-4-yl}methyl)pyrrolidine-2,5-dione hydrochloride

> <CAS>
2034316-34-0

> <PriceCoeff>
1.50

> <MW>
302.35

> <Description>
solid

> <FSP3>
0.29

> <clogP>
1.13

> <TPSA>
103.43

> <Acceptor>
5

> <Donor>
2

> <RotBonds>
4

> <HAC>
21

> <Collection>
Advanced

$$$$
F3259-0309
  -ISIS-  06222321462D

 18 19  0  0  0  0  0  0  0  0999 V2000
   -0.3375   -0.5250    0.0000 C   0  0  0  0  0  0  0  0  0  0  0  0
   -0.3375    0.2458    0.0000 C   0  0  0  0  0  0  0  0  0  0  0  0
    0.3250   -0.9250    0.0000 N   0  0  0  0  0  0  0  0  0  0  0  0
   -1.0250   -0.9167    0.0000 N   0  0  3  0  0  0  0  0  0  0  0  0
   -1.6958    0.2458    0.0000 N   0  0  3  0  0  0  0  0  0  0  0  0
    1.0042    0.2458    0.0000 N   0  0  3  0  0  0  0  0  0  0  0  0
   -1.6958   -0.5375    0.0000 C   0  0  0  0  0  0  0  0  0  0  0  0
   -1.0250    0.6458    0.0000 C   0  0  0  0  0  0  0  0  0  0  0  0
    0.9917   -0.5417    0.0000 C   0  0  0  0  0  0  0  0  0  0  0  0
    1.8250    0.2458    0.0000 C   0  0  0  0  0  0  0  0  0  0  0  0
   -2.3708   -0.9250    0.0000 O   0  0  0  0  0  0  0  0  0  0  0  0
   -1.0250    1.4208    0.0000 O   0  0  0  0  0  0  0  0  0  0  0  0
    1.6625   -0.9375    0.0000 N   0  0  0  0  0  0  0  0  0  0  0  0
    2.2375    0.9583    0.0000 C   0  0  0  0  0  0  0  0  0  0  0  0
   -1.0250   -1.7000    0.0000 C   0  0  0  0  0  0  0  0  0  0  0  0
   -2.4500    0.4458    0.0000 C   0  0  0  0  0  0  0  0  0  0  0  0
    3.0542    0.9583    0.0000 C   0  0  0  0  0  0  0  0  0  0  0  0
    1.8167    1.6708    0.0000 C   0  0  0  0  0  0  0  0  0  0  0  0
  2  1  2  0  0  0  0
  3  1  1  0  0  0  0
  4  1  1  0  0  0  0
  5  7  1  0  0  0  0
  6  2  1  0  0  0  0
  7  4  1  0  0  0  0
  8  2  1  0  0  0  0
  9  3  2  0  0  0  0
 10  6  1  0  0  0  0
 11  7  2  0  0  0  0
 12  8  2  0  0  0  0
 13  9  1  0  0  0  0
 14 10  1  0  0  0  0
 15  4  1  0  0  0  0
 16  5  1  0  0  0  0
 17 14  2  0  0  0  0
 18 14  1  0  0  0  0
  6  9  1  0  0  0  0
  8  5  1  0  0  0  0
M  END
> <IDNUMBER>
F3259-0309

> <Chemical_Name>
8-amino-1,3-dimethyl-7-(2-methylprop-2-en-1-yl)-2,3,6,7-tetrahydro-1H-purine-2,6-dione

> <CAS>
902047-64-7

> <PriceCoeff>
1.00

> <MW>
249.27

> <Description>
solid

> <FSP3>
0.36

> <clogP>
0.86

> <TPSA>
84.46

> <Acceptor>
3

> <Donor>
2

> <RotBonds>
2

> <HAC>
18

> <Collection>
General

> <Reference_compound>
CHEMBL113

> <Similarity>
0.8030

$$$$
F3259-0270
  -ISIS-  06222321152D

 17 18  0  0  0  0  0  0  0  0999 V2000
    3.6667    2.5500    0.0000 C   0  0  0  0  0  0  0  0  0  0  0  0
    3.2917    1.9000    0.0000 C   0  0  0  0  0  0  0  0  0  0  0  0
    4.4167    2.5500    0.0000 N   0  0  3  0  0  0  0  0  0  0  0  0
    4.4167    1.2500    0.0000 N   0  0  3  0  0  0  0  0  0  0  0  0
    4.7917    1.9000    0.0000 C   0  0  0  0  0  0  0  0  0  0  0  0
    3.6667    1.2500    0.0000 C   0  0  0  0  0  0  0  0  0  0  0  0
    3.1667    3.1083    0.0000 N   0  0  0  0  0  0  0  0  0  0  0  0
    2.5542    2.0583    0.0000 N   0  0  3  0  0  0  0  0  0  0  0  0
    2.4792    2.8000    0.0000 C   0  0  0  0  0  0  0  0  0  0  0  0
    5.5417    1.9000    0.0000 O   0  0  0  0  0  0  0  0  0  0  0  0
    3.2917    0.6000    0.0000 O   0  0  0  0  0  0  0  0  0  0  0  0
    4.7917    3.1958    0.0000 C   0  0  0  0  0  0  0  0  0  0  0  0
    4.7917    0.6000    0.0000 C   0  0  0  0  0  0  0  0  0  0  0  0
    1.2875    1.7833    0.0000 C   0  0  0  0  0  0  0  0  0  0  0  0
    0.7292    1.2833    0.0000 C   0  0  0  0  0  0  0  0  0  0  0  0
    2.0042    1.5583    0.0000 C   0  0  0  0  0  0  0  0  0  0  0  0
    0.0167    1.5125    0.0000 C   0  0  0  0  0  0  0  0  0  0  0  0
  2  1  2  0  0  0  0
  3  1  1  0  0  0  0
  4  5  1  0  0  0  0
  5  3  1  0  0  0  0
  6  2  1  0  0  0  0
  7  1  1  0  0  0  0
  8  2  1  0  0  0  0
  9  7  2  0  0  0  0
 10  5  2  0  0  0  0
 11  6  2  0  0  0  0
 12  3  1  0  0  0  0
 13  4  1  0  0  0  0
 14 16  1  0  0  0  0
 15 14  2  0  0  0  0
 16  8  1  0  0  0  0
 17 15  1  0  0  0  0
  8  9  1  0  0  0  0
  4  6  1  0  0  0  0
M  END
> <IDNUMBER>
F3259-0270

> <Chemical_Name>
7-[(2E)-but-2-en-1-yl]-1,3-dimethyl-2,3,6,7-tetrahydro-1H-purine-2,6-dione

> <CAS>
1556019-89-6

> <PriceCoeff>
1.00

> <MW>
234.25

> <Description>
solid

> <FSP3>
0.36

> <clogP>
1.26

> <TPSA>
58.44

> <Acceptor>
3

> <Donor>
1

> <RotBonds>
2

> <HAC>
17

> <Collection>
General

> <Reference_compound>
CHEMBL113

> <Similarity>
0.8960

$$$$
F0799-0049
  -ISIS-  06222321442D

 18 19  0  0  0  0  0  0  0  0999 V2000
    2.2167   -0.9292    0.0000 C   0  0  0  0  0  0  0  0  0  0  0  0
    2.2167   -0.1542    0.0000 C   0  0  0  0  0  0  0  0  0  0  0  0
    2.8792   -1.3292    0.0000 N   0  0  0  0  0  0  0  0  0  0  0  0
    1.5292   -1.3167    0.0000 N   0  0  3  0  0  0  0  0  0  0  0  0
    0.8667   -0.1542    0.0000 N   0  0  3  0  0  0  0  0  0  0  0  0
    0.8667   -0.9417    0.0000 C   0  0  0  0  0  0  0  0  0  0  0  0
    1.5292    0.2333    0.0000 C   0  0  0  0  0  0  0  0  0  0  0  0
    3.5542   -0.9417    0.0000 C   0  0  0  0  0  0  0  0  0  0  0  0
    3.5667   -0.1667    0.0000 N   0  0  3  0  0  0  0  0  0  0  0  0
    0.1917   -1.3292    0.0000 O   0  0  0  0  0  0  0  0  0  0  0  0
    1.5292    1.0208    0.0000 O   0  0  0  0  0  0  0  0  0  0  0  0
    4.2167   -1.3417    0.0000 N   0  0  0  0  0  0  0  0  0  0  0  0
    1.5292   -2.1042    0.0000 C   0  0  0  0  0  0  0  0  0  0  0  0
    0.1125    0.0458    0.0000 C   0  0  0  0  0  0  0  0  0  0  0  0
    4.3875   -0.1667    0.0000 C   0  0  0  0  0  0  0  0  0  0  0  0
    4.7917    0.5458    0.0000 C   0  0  0  0  0  0  0  0  0  0  0  0
    5.6167    0.5458    0.0000 C   0  0  0  0  0  0  0  0  0  0  0  0
    4.8917   -0.9667    0.0000 C   0  0  0  0  0  0  0  0  0  0  0  0
  2  1  2  0  0  0  0
  3  1  1  0  0  0  0
  4  1  1  0  0  0  0
  5  6  1  0  0  0  0
  6  4  1  0  0  0  0
  7  2  1  0  0  0  0
  8  3  2  0  0  0  0
  9  2  1  0  0  0  0
 10  6  2  0  0  0  0
 11  7  2  0  0  0  0
 12  8  1  0  0  0  0
 13  4  1  0  0  0  0
 14  5  1  0  0  0  0
 15  9  1  0  0  0  0
 16 15  1  0  0  0  0
 17 16  2  0  0  0  0
 18 12  1  0  0  0  0
  8  9  1  0  0  0  0
  7  5  1  0  0  0  0
M  END
> <IDNUMBER>
F0799-0049

> <Chemical_Name>
1,3-dimethyl-8-(methylamino)-7-(prop-2-en-1-yl)-2,3,6,7-tetrahydro-1H-purine-2,6-dione

> <CAS>
377050-67-4

> <PriceCoeff>
1.00

> <MW>
249.27

> <Description>
solid

> <FSP3>
0.36

> <clogP>
1.29

> <TPSA>
70.47

> <Acceptor>
3

> <Donor>
2

> <RotBonds>
3

> <HAC>
18

> <Collection>
General

> <Reference_compound>
CHEMBL113

> <Similarity>
0.8060

$$$$
F6451-0590
  -ISIS-  06222321152D

 21 22  0  0  0  0  0  0  0  0999 V2000
   -5.2833    2.5708    0.0000 N   0  0  3  0  0  0  0  0  0  0  0  0
   -2.4333    5.0417    0.0000 C   0  0  0  0  0  0  0  0  0  0  0  0
   -5.3708    1.7458    0.0000 C   0  0  0  0  0  0  0  0  0  0  0  0
   -6.0292    2.9000    0.0000 C   0  0  0  0  0  0  0  0  0  0  0  0
   -1.6750    5.3792    0.0000 S   0  0  0  0  0  0  0  0  0  0  0  0
   -2.3500    4.2167    0.0000 C   0  0  0  0  0  0  0  0  0  0  0  0
   -4.5833    2.9875    0.0000 C   0  0  0  0  0  0  0  0  0  0  0  0
   -1.1208    4.7542    0.0000 C   0  0  0  0  0  0  0  0  0  0  0  0
   -4.5833    3.8000    0.0000 C   0  0  0  0  0  0  0  0  0  0  0  0
   -1.5583    4.0417    0.0000 C   0  0  0  0  0  0  0  0  0  0  0  0
   -3.1583    5.4500    0.0000 C   0  0  3  0  0  0  0  0  0  0  0  0
   -3.8625    4.2125    0.0000 N   0  0  0  0  0  0  0  0  0  0  0  0
   -6.1667    1.5708    0.0000 C   0  0  0  0  0  0  0  0  0  0  0  0
   -6.5792    2.2833    0.0000 C   0  0  0  0  0  0  0  0  0  0  0  0
   -4.7500    1.1833    0.0000 O   0  0  0  0  0  0  0  0  0  0  0  0
   -6.2042    3.7083    0.0000 O   0  0  0  0  0  0  0  0  0  0  0  0
   -3.8625    5.0292    0.0000 C   0  0  0  0  0  0  0  0  0  0  0  0
   -5.2958    4.2125    0.0000 O   0  0  0  0  0  0  0  0  0  0  0  0
   -3.1583    6.2792    0.0000 O   0  0  0  0  0  0  0  0  0  0  0  0
   -0.2958    4.8417    0.0000 C   0  0  0  0  0  0  0  0  0  0  0  0
   -3.8708    6.6875    0.0000 C   0  0  0  0  0  0  0  0  0  0  0  0
  2 11  1  0  0  0  0
  3  1  1  0  0  0  0
  4  1  1  0  0  0  0
  5  2  1  0  0  0  0
  6  2  2  0  0  0  0
  7  1  1  0  0  0  0
  8  5  1  0  0  0  0
  9  7  1  0  0  0  0
 10  6  1  0  0  0  0
 11 17  1  0  0  0  0
 12  9  1  0  0  0  0
 13  3  1  0  0  0  0
 14  4  1  0  0  0  0
 15  3  2  0  0  0  0
 16  4  2  0  0  0  0
 17 12  1  0  0  0  0
 18  9  2  0  0  0  0
 19 11  1  0  0  0  0
 20  8  1  0  0  0  0
 21 19  1  0  0  0  0
 14 13  1  0  0  0  0
 10  8  2  0  0  0  0
M  END
> <IDNUMBER>
F6451-0590

> <Chemical_Name>
2-(2,5-dioxopyrrolidin-1-yl)-N-[2-methoxy-2-(5-methylthiophen-2-yl)ethyl]acetamide

> <CAS>
1797023-48-3

> <PriceCoeff>
1.00

> <MW>
310.37

> <Description>
oil

> <FSP3>
0.50

> <clogP>
1.00

> <TPSA>
103.95

> <Acceptor>
4

> <Donor>
1

> <RotBonds>
6

> <HAC>
21

> <Collection>
General

$$$$
F6440-2748
  -ISIS-  06222321442D

 26 29  0  0  0  0  0  0  0  0999 V2000
   -2.2833    6.4542    0.0000 N   0  0  3  0  0  0  0  0  0  0  0  0
   -3.0833    6.2792    0.0000 N   0  0  0  0  0  0  0  0  0  0  0  0
   -5.2833    2.5708    0.0000 N   0  0  3  0  0  0  0  0  0  0  0  0
   -1.8583    5.7417    0.0000 C   0  0  0  0  0  0  0  0  0  0  0  0
   -2.4083    5.1250    0.0000 C   0  0  0  0  0  0  0  0  0  0  0  0
   -3.1625    5.4500    0.0000 C   0  0  0  0  0  0  0  0  0  0  0  0
   -5.3708    1.7458    0.0000 C   0  0  0  0  0  0  0  0  0  0  0  0
   -6.0292    2.9000    0.0000 C   0  0  0  0  0  0  0  0  0  0  0  0
   -4.5833    2.9875    0.0000 C   0  0  0  0  0  0  0  0  0  0  0  0
   -4.5833    3.8000    0.0000 C   0  0  0  0  0  0  0  0  0  0  0  0
   -3.8625    5.0417    0.0000 C   0  0  0  0  0  0  0  0  0  0  0  0
   -1.9583    7.2167    0.0000 C   0  0  3  0  0  0  0  0  0  0  0  0
   -3.8625    4.2042    0.0000 N   0  0  0  0  0  0  0  0  0  0  0  0
   -6.1667    1.5708    0.0000 C   0  0  0  0  0  0  0  0  0  0  0  0
   -6.5750    2.2833    0.0000 C   0  0  0  0  0  0  0  0  0  0  0  0
   -4.7500    1.1833    0.0000 O   0  0  0  0  0  0  0  0  0  0  0  0
   -6.2042    3.7083    0.0000 O   0  0  0  0  0  0  0  0  0  0  0  0
   -5.3000    4.2042    0.0000 O   0  0  0  0  0  0  0  0  0  0  0  0
   -2.1500    4.3417    0.0000 C   0  0  0  0  0  0  0  0  0  0  0  0
   -1.0500    5.5917    0.0000 C   0  0  0  0  0  0  0  0  0  0  0  0
   -1.1500    7.4167    0.0000 C   0  0  0  0  0  0  0  0  0  0  0  0
   -2.3833    7.9250    0.0000 C   0  0  0  0  0  0  0  0  0  0  0  0
   -1.3333    4.1917    0.0000 C   0  0  0  0  0  0  0  0  0  0  0  0
   -0.7875    4.8042    0.0000 C   0  0  0  0  0  0  0  0  0  0  0  0
   -1.8458    8.5500    0.0000 C   0  0  0  0  0  0  0  0  0  0  0  0
   -1.0750    8.2292    0.0000 C   0  0  0  0  0  0  0  0  0  0  0  0
  2  1  1  0  0  0  0
  3  9  1  0  0  0  0
  4  1  1  0  0  0  0
  5  4  2  0  0  0  0
  6  2  2  0  0  0  0
  7  3  1  0  0  0  0
  8  3  1  0  0  0  0
  9 10  1  0  0  0  0
 10 13  1  0  0  0  0
 11  6  1  0  0  0  0
 12  1  1  0  0  0  0
 13 11  1  0  0  0  0
 14  7  1  0  0  0  0
 15  8  1  0  0  0  0
 16  7  2  0  0  0  0
 17  8  2  0  0  0  0
 18 10  2  0  0  0  0
 19  5  1  0  0  0  0
 20  4  1  0  0  0  0
 21 12  1  0  0  0  0
 22 12  1  0  0  0  0
 23 24  1  0  0  0  0
 24 20  1  0  0  0  0
 25 22  1  0  0  0  0
 26 21  1  0  0  0  0
  6  5  1  0  0  0  0
 26 25  1  0  0  0  0
 23 19  1  0  0  0  0
 14 15  1  0  0  0  0
M  END
> <IDNUMBER>
F6440-2748

> <Chemical_Name>
N-[(1-cyclopentyl-4,5,6,7-tetrahydro-1H-indazol-3-yl)methyl]-2-(2,5-dioxopyrrolidin-1-yl)acetamide

> <CAS>
1448063-02-2

> <PriceCoeff>
1.00

> <MW>
358.43

> <Description>
solid

> <FSP3>
0.68

> <clogP>
1.34

> <TPSA>
84.30

> <Acceptor>
4

> <Donor>
1

> <RotBonds>
5

> <HAC>
26

> <Collection>
General

$$$$
F9995-1053
  -ISIS-  06222321472D

  8  8  0  0  0  0  0  0  0  0999 V2000
    0.5167   -0.5292    0.0000 C   0  0  3  0  0  0  0  0  0  0  0  0
   -0.1333   -0.9042    0.0000 C   0  0  3  0  0  0  0  0  0  0  0  0
   -0.1333   -1.6542    0.0000 O   0  0  0  0  0  0  0  0  0  0  0  0
    0.5167    0.2208    0.0000 C   0  0  0  0  0  0  0  0  0  0  0  0
   -0.7833    0.2208    0.0000 C   0  0  0  0  0  0  0  0  0  0  0  0
    1.1625   -0.1542    0.0000 C   0  0  0  0  0  0  0  0  0  0  0  0
    0.7042   -1.2417    0.0000 C   0  0  0  0  0  0  0  0  0  0  0  0
   -0.7833   -0.5292    0.0000 C   0  0  0  0  0  0  0  0  0  0  0  0
  2  1  1  0  0  0  0
  3  2  1  0  0  0  0
  4  1  1  0  0  0  0
  5  4  1  0  0  0  0
  6  1  1  0  0  0  0
  7  1  1  0  0  0  0
  8  2  1  0  0  0  0
  5  8  1  0  0  0  0
M  END
> <IDNUMBER>
F9995-1053

> <Chemical_Name>
2,2-dimethylcyclopentan-1-ol

> <CAS>
37617-33-7

> <PriceCoeff>
1.00

> <MW>
114.19

> <Description>
solid

> <FSP3>
1.00

> <clogP>
1.75

> <TPSA>
20.23

> <Acceptor>
1

> <Donor>
1

> <RotBonds>
0

> <HAC>
8

> <Collection>
General

> <Reference_compound>
CHEMBL486208

> <Similarity>
0.8960

$$$$
F6359-1029
  -ISIS-  06222321462D

 24 26  0  0  0  0  0  0  0  0999 V2000
   -5.2833    2.5708    0.0000 N   0  0  3  0  0  0  0  0  0  0  0  0
   -4.5833    3.8000    0.0000 C   0  0  0  0  0  0  0  0  0  0  0  0
   -4.5792    2.9875    0.0000 C   0  0  0  0  0  0  0  0  0  0  0  0
   -5.3708    1.7458    0.0000 C   0  0  0  0  0  0  0  0  0  0  0  0
   -6.0292    2.9000    0.0000 C   0  0  0  0  0  0  0  0  0  0  0  0
   -3.8625    4.2125    0.0000 N   0  0  3  0  0  0  0  0  0  0  0  0
   -1.0083    5.0625    0.0000 C   0  0  0  0  0  0  0  0  0  0  0  0
   -1.7375    5.4667    0.0000 O   0  0  0  0  0  0  0  0  0  0  0  0
   -0.2958    5.4792    0.0000 N   0  0  0  0  0  0  0  0  0  0  0  0
   -3.1458    3.8083    0.0000 C   0  0  0  0  0  0  0  0  0  0  0  0
   -3.8583    5.0417    0.0000 C   0  0  0  0  0  0  0  0  0  0  0  0
   -0.9958    4.2333    0.0000 C   0  0  0  0  0  0  0  0  0  0  0  0
   -5.2958    4.2125    0.0000 O   0  0  0  0  0  0  0  0  0  0  0  0
   -6.5792    2.2833    0.0000 C   0  0  0  0  0  0  0  0  0  0  0  0
   -6.1667    1.5708    0.0000 C   0  0  0  0  0  0  0  0  0  0  0  0
   -6.2042    3.7083    0.0000 O   0  0  0  0  0  0  0  0  0  0  0  0
   -4.7500    1.1833    0.0000 O   0  0  0  0  0  0  0  0  0  0  0  0
   -2.4333    4.2208    0.0000 C   0  0  0  0  0  0  0  0  0  0  0  0
   -3.1583    5.4542    0.0000 C   0  0  0  0  0  0  0  0  0  0  0  0
   -2.4458    5.0458    0.0000 C   0  0  3  0  0  0  0  0  0  0  0  0
   -1.7083    3.8125    0.0000 Cl  0  0  0  0  0  0  0  0  0  0  0  0
    0.4250    5.0750    0.0000 C   0  0  0  0  0  0  0  0  0  0  0  0
   -0.2750    3.8333    0.0000 C   0  0  0  0  0  0  0  0  0  0  0  0
    0.4292    4.2500    0.0000 C   0  0  0  0  0  0  0  0  0  0  0  0
  2  3  1  0  0  0  0
  3  1  1  0  0  0  0
  4  1  1  0  0  0  0
  5  1  1  0  0  0  0
  6  2  1  0  0  0  0
  7  8  1  0  0  0  0
  8 20  1  0  0  0  0
  9  7  2  0  0  0  0
 10  6  1  0  0  0  0
 11  6  1  0  0  0  0
 12  7  1  0  0  0  0
 13  2  2  0  0  0  0
 14  5  1  0  0  0  0
 15  4  1  0  0  0  0
 16  5  2  0  0  0  0
 17  4  2  0  0  0  0
 18 10  1  0  0  0  0
 19 11  1  0  0  0  0
 20 19  1  0  0  0  0
 21 12  1  0  0  0  0
 22  9  1  0  0  0  0
 23 12  2  0  0  0  0
 24 23  1  0  0  0  0
 14 15  1  0  0  0  0
 18 20  1  0  0  0  0
 22 24  2  0  0  0  0
M  END
> <IDNUMBER>
F6359-1029

> <Chemical_Name>
1-(2-{4-[(3-chloropyridin-2-yl)oxy]piperidin-1-yl}-2-oxoethyl)pyrrolidine-2,5-dione

> <CAS>
1448036-82-5

> <PriceCoeff>
1.50

> <MW>
351.78

> <Description>
oil

> <FSP3>
0.50

> <clogP>
0.77

> <TPSA>
79.81

> <Acceptor>
5

> <Donor>
1

> <RotBonds>
5

> <HAC>
24

> <Collection>
Advanced

$$$$
F6473-3588
  -ISIS-  06222321462D

 23 25  0  0  0  0  0  0  0  0999 V2000
   -3.0333    4.1042    0.0000 N   0  0  3  0  0  0  0  0  0  0  0  0
   -1.3083    5.1042    0.0000 N   0  0  3  0  0  0  0  0  0  0  0  0
   -3.7458    3.6958    0.0000 C   0  0  0  0  0  0  0  0  0  0  0  0
   -2.0333    4.6875    0.0000 C   0  0  3  0  0  0  0  0  0  0  0  0
   -5.1583    2.8708    0.0000 C   0  0  3  0  0  0  0  0  0  0  0  0
   -3.7458    2.8958    0.0000 C   0  0  0  0  0  0  0  0  0  0  0  0
   -1.2250    5.9167    0.0000 C   0  0  0  0  0  0  0  0  0  0  0  0
   -0.5583    4.7667    0.0000 C   0  0  0  0  0  0  0  0  0  0  0  0
   -4.4583    2.4625    0.0000 C   0  0  0  0  0  0  0  0  0  0  0  0
   -2.8208    4.9000    0.0000 C   0  0  0  0  0  0  0  0  0  0  0  0
   -2.2458    3.8958    0.0000 C   0  0  0  0  0  0  0  0  0  0  0  0
   -4.4667    4.1042    0.0000 O   0  0  0  0  0  0  0  0  0  0  0  0
   -0.0083    5.3792    0.0000 C   0  0  0  0  0  0  0  0  0  0  0  0
   -0.4208    6.0917    0.0000 C   0  0  0  0  0  0  0  0  0  0  0  0
   -0.3875    3.9625    0.0000 O   0  0  0  0  0  0  0  0  0  0  0  0
   -1.8417    6.4708    0.0000 O   0  0  0  0  0  0  0  0  0  0  0  0
   -5.1750    3.6958    0.0000 F   0  0  0  0  0  0  0  0  0  0  0  0
   -5.3708    2.0833    0.0000 F   0  0  0  0  0  0  0  0  0  0  0  0
   -5.8708    2.4625    0.0000 F   0  0  0  0  0  0  0  0  0  0  0  0
   -3.0333    2.4958    0.0000 C   0  0  0  0  0  0  0  0  0  0  0  0
   -4.4458    1.6458    0.0000 C   0  0  0  0  0  0  0  0  0  0  0  0
   -3.0208    1.6583    0.0000 C   0  0  0  0  0  0  0  0  0  0  0  0
   -3.7333    1.2333    0.0000 C   0  0  0  0  0  0  0  0  0  0  0  0
  2  4  1  0  0  0  0
  3  1  1  0  0  0  0
  4 11  1  0  0  0  0
  5  9  1  0  0  0  0
  6  3  1  0  0  0  0
  7  2  1  0  0  0  0
  8  2  1  0  0  0  0
  9  6  1  0  0  0  0
 10  1  1  0  0  0  0
 11  1  1  0  0  0  0
 12  3  2  0  0  0  0
 13  8  1  0  0  0  0
 14  7  1  0  0  0  0
 15  8  2  0  0  0  0
 16  7  2  0  0  0  0
 17  5  1  0  0  0  0
 18  5  1  0  0  0  0
 19  5  1  0  0  0  0
 20  6  2  0  0  0  0
 21  9  2  0  0  0  0
 22 20  1  0  0  0  0
 23 22  2  0  0  0  0
 10  4  1  0  0  0  0
 14 13  1  0  0  0  0
 21 23  1  0  0  0  0
M  END
> <IDNUMBER>
F6473-3588

> <Chemical_Name>
1-{1-[2-(trifluoromethyl)benzoyl]azetidin-3-yl}pyrrolidine-2,5-dione

> <CAS>
1795191-31-9

> <PriceCoeff>
1.50

> <MW>
326.27

> <Description>
solid

> <FSP3>
0.40

> <clogP>
1.27

> <TPSA>
57.69

> <Acceptor>
3

> <Donor>
0

> <RotBonds>
3

> <HAC>
23

> <Collection>
Advanced

$$$$
F2168-0005
  -ISIS-  06222321442D

 11 11  0  0  0  0  0  0  0  0999 V2000
    2.2250   -0.2167    0.0000 C   0  0  0  0  0  0  0  0  0  0  0  0
    2.9875    0.1208    0.0000 C   0  0  0  0  0  0  0  0  0  0  0  0
    1.5542    0.2708    0.0000 C   0  0  0  0  0  0  0  0  0  0  0  0
    0.8042   -0.0625    0.0000 N   0  0  0  0  0  0  0  0  0  0  0  0
    3.0792    0.9375    0.0000 O   0  0  0  0  0  0  0  0  0  0  0  0
    1.6375    1.0958    0.0000 S   0  0  0  0  0  0  0  0  0  0  0  0
    3.6542   -0.3750    0.0000 O   0  0  0  0  0  0  0  0  0  0  0  0
    2.1333   -1.0375    0.0000 C   0  0  0  0  0  0  0  0  0  0  0  0
    0.7167   -0.8792    0.0000 C   0  0  0  0  0  0  0  0  0  0  0  0
    1.0792    1.6875    0.0000 C   0  0  0  0  0  0  0  0  0  0  0  0
    1.3875   -1.3667    0.0000 C   0  0  0  0  0  0  0  0  0  0  0  0
  2  1  1  0  0  0  0
  3  1  2  0  0  0  0
  4  3  1  0  0  0  0
  5  2  2  0  0  0  0
  6  3  1  0  0  0  0
  7  2  1  0  0  0  0
  8  1  1  0  0  0  0
  9 11  1  0  0  0  0
 10  6  1  0  0  0  0
 11  8  2  0  0  0  0
  4  9  2  0  0  0  0
M  END
> <IDNUMBER>
F2168-0005

> <Chemical_Name>
2-(methylsulfanyl)pyridine-3-carboxylic acid

> <CAS>
74470-23-8

> <PriceCoeff>
1.00

> <MW>
169.20

> <Description>
solid

> <FSP3>
0.14

> <clogP>
1.24

> <TPSA>
75.49

> <Acceptor>
3

> <Donor>
1

> <RotBonds>
2

> <HAC>
11

> <Collection>
General

> <Reference_compound>
CHEMBL1521174

> <Similarity>
0.8430

$$$$
F6525-0198
  -ISIS-  06222321472D

 24 26  0  0  0  0  0  0  0  0999 V2000
   -3.5833    7.2042    0.0000 C   0  0  0  0  0  0  0  0  0  0  0  0
   -4.0708    7.8750    0.0000 N   0  0  3  0  0  0  0  0  0  0  0  0
   -3.5833    8.5417    0.0000 N   0  0  0  0  0  0  0  0  0  0  0  0
   -2.7958    7.4625    0.0000 C   0  0  0  0  0  0  0  0  0  0  0  0
   -2.7958    8.2875    0.0000 C   0  0  0  0  0  0  0  0  0  0  0  0
   -2.9875    4.4083    0.0000 C   0  0  0  0  0  0  0  0  0  0  0  0
   -4.3083    2.6750    0.0000 C   0  0  3  0  0  0  0  0  0  0  0  0
   -3.5375    5.0250    0.0000 C   0  0  0  0  0  0  0  0  0  0  0  0
   -3.2458    3.6333    0.0000 C   0  0  0  0  0  0  0  0  0  0  0  0
   -3.8375    6.4167    0.0000 C   0  0  0  0  0  0  0  0  0  0  0  0
   -4.0500    3.4583    0.0000 O   0  0  0  0  0  0  0  0  0  0  0  0
   -3.2833    5.8042    0.0000 N   0  0  0  0  0  0  0  0  0  0  0  0
   -4.3458    4.8542    0.0000 O   0  0  0  0  0  0  0  0  0  0  0  0
   -4.5583    1.8958    0.0000 F   0  0  0  0  0  0  0  0  0  0  0  0
   -5.0917    2.9333    0.0000 F   0  0  0  0  0  0  0  0  0  0  0  0
   -3.5208    2.4208    0.0000 F   0  0  0  0  0  0  0  0  0  0  0  0
   -2.0125    7.2042    0.0000 C   0  0  0  0  0  0  0  0  0  0  0  0
   -4.8958    7.8750    0.0000 C   0  0  0  0  0  0  0  0  0  0  0  0
   -2.0125    8.5417    0.0000 C   0  0  0  0  0  0  0  0  0  0  0  0
   -2.1833    4.5792    0.0000 C   0  0  0  0  0  0  0  0  0  0  0  0
   -2.6958    3.0208    0.0000 C   0  0  0  0  0  0  0  0  0  0  0  0
   -1.5250    7.8750    0.0000 C   0  0  0  0  0  0  0  0  0  0  0  0
   -1.6333    3.9792    0.0000 C   0  0  0  0  0  0  0  0  0  0  0  0
   -1.8833    3.1958    0.0000 C   0  0  0  0  0  0  0  0  0  0  0  0
  2  1  1  0  0  0  0
  3  2  1  0  0  0  0
  4  1  2  0  0  0  0
  5  4  1  0  0  0  0
  6  8  1  0  0  0  0
  7 11  1  0  0  0  0
  8 12  1  0  0  0  0
  9  6  1  0  0  0  0
 10  1  1  0  0  0  0
 11  9  1  0  0  0  0
 12 10  1  0  0  0  0
 13  8  2  0  0  0  0
 14  7  1  0  0  0  0
 15  7  1  0  0  0  0
 16  7  1  0  0  0  0
 17  4  1  0  0  0  0
 18  2  1  0  0  0  0
 19  5  1  0  0  0  0
 20  6  2  0  0  0  0
 21  9  2  0  0  0  0
 22 17  1  0  0  0  0
 23 20  1  0  0  0  0
 24 23  2  0  0  0  0
  5  3  2  0  0  0  0
 22 19  1  0  0  0  0
 21 24  1  0  0  0  0
M  END
> <IDNUMBER>
F6525-0198

> <Chemical_Name>
N-({2-methyl-2H,4H,5H,6H-cyclopenta[c]pyrazol-3-yl}methyl)-2-(trifluoromethoxy)benzamide

> <CAS>
2034602-69-0

> <PriceCoeff>
1.50

> <MW>
339.31

> <Description>
solid

> <FSP3>
0.38

> <clogP>
2.74

> <TPSA>
56.15

> <Acceptor>
3

> <Donor>
1

> <RotBonds>
4

> <HAC>
24

> <Collection>
Advanced

> <Reference_compound>
CHEMBL2289356

> <Similarity>
0.8010

$$$$
F0799-0048
  -ISIS-  06222321452D

 17 18  0  0  0  0  0  0  0  0999 V2000
    2.2250   -0.9292    0.0000 C   0  0  0  0  0  0  0  0  0  0  0  0
    2.2250   -0.1542    0.0000 C   0  0  0  0  0  0  0  0  0  0  0  0
    2.8875   -1.3292    0.0000 N   0  0  0  0  0  0  0  0  0  0  0  0
    1.5375   -1.3292    0.0000 N   0  0  3  0  0  0  0  0  0  0  0  0
    0.8667   -0.1542    0.0000 N   0  0  3  0  0  0  0  0  0  0  0  0
    0.8667   -0.9417    0.0000 C   0  0  0  0  0  0  0  0  0  0  0  0
    1.5375    0.2333    0.0000 C   0  0  0  0  0  0  0  0  0  0  0  0
    3.5542   -0.9542    0.0000 C   0  0  0  0  0  0  0  0  0  0  0  0
    3.5667   -0.1667    0.0000 N   0  0  3  0  0  0  0  0  0  0  0  0
    0.1917   -1.3292    0.0000 O   0  0  0  0  0  0  0  0  0  0  0  0
    1.5375    1.0208    0.0000 O   0  0  0  0  0  0  0  0  0  0  0  0
    4.2250   -1.3417    0.0000 N   0  0  0  0  0  0  0  0  0  0  0  0
    1.5375   -2.1042    0.0000 C   0  0  0  0  0  0  0  0  0  0  0  0
    0.1125    0.0458    0.0000 C   0  0  0  0  0  0  0  0  0  0  0  0
    4.3875   -0.1667    0.0000 C   0  0  0  0  0  0  0  0  0  0  0  0
    4.8000    0.5458    0.0000 C   0  0  0  0  0  0  0  0  0  0  0  0
    5.6167    0.5458    0.0000 C   0  0  0  0  0  0  0  0  0  0  0  0
  2  1  2  0  0  0  0
  3  1  1  0  0  0  0
  4  1  1  0  0  0  0
  5  6  1  0  0  0  0
  6  4  1  0  0  0  0
  7  2  1  0  0  0  0
  8  3  2  0  0  0  0
  9  2  1  0  0  0  0
 10  6  2  0  0  0  0
 11  7  2  0  0  0  0
 12  8  1  0  0  0  0
 13  4  1  0  0  0  0
 14  5  1  0  0  0  0
 15  9  1  0  0  0  0
 16 15  1  0  0  0  0
 17 16  2  0  0  0  0
  8  9  1  0  0  0  0
  7  5  1  0  0  0  0
M  END
> <IDNUMBER>
F0799-0048

> <Chemical_Name>
8-amino-1,3-dimethyl-7-(prop-2-en-1-yl)-2,3,6,7-tetrahydro-1H-purine-2,6-dione

> <CAS>
135574-30-0

> <PriceCoeff>
1.50

> <MW>
235.24

> <Description>
solid

> <FSP3>
0.30

> <clogP>
0.46

> <TPSA>
84.46

> <Acceptor>
3

> <Donor>
2

> <RotBonds>
2

> <HAC>
17

> <Collection>
Advanced

> <Reference_compound>
CHEMBL113

> <Similarity>
0.8210

$$$$
F6473-3564
  -ISIS-  06222321462D

 21 23  0  0  0  0  0  0  0  0999 V2000
   -3.0333    4.1042    0.0000 N   0  0  3  0  0  0  0  0  0  0  0  0
   -1.3083    5.1042    0.0000 N   0  0  3  0  0  0  0  0  0  0  0  0
   -3.7458    3.6958    0.0000 C   0  0  0  0  0  0  0  0  0  0  0  0
   -3.7458    2.8583    0.0000 C   0  0  0  0  0  0  0  0  0  0  0  0
   -2.0333    4.6875    0.0000 C   0  0  3  0  0  0  0  0  0  0  0  0
   -0.5583    4.7667    0.0000 C   0  0  0  0  0  0  0  0  0  0  0  0
   -1.2250    5.9167    0.0000 C   0  0  0  0  0  0  0  0  0  0  0  0
   -4.4667    2.4458    0.0000 C   0  0  0  0  0  0  0  0  0  0  0  0
   -2.2458    3.8958    0.0000 C   0  0  0  0  0  0  0  0  0  0  0  0
   -2.8208    4.9000    0.0000 C   0  0  0  0  0  0  0  0  0  0  0  0
   -3.0333    2.4333    0.0000 C   0  0  0  0  0  0  0  0  0  0  0  0
   -4.4542    1.6250    0.0000 C   0  0  0  0  0  0  0  0  0  0  0  0
   -4.4458    4.0917    0.0000 O   0  0  0  0  0  0  0  0  0  0  0  0
   -0.4208    6.0917    0.0000 C   0  0  0  0  0  0  0  0  0  0  0  0
   -0.0083    5.3792    0.0000 C   0  0  0  0  0  0  0  0  0  0  0  0
   -1.8417    6.4708    0.0000 O   0  0  0  0  0  0  0  0  0  0  0  0
   -0.3875    3.9625    0.0000 O   0  0  0  0  0  0  0  0  0  0  0  0
   -3.7708    1.2000    0.0000 C   0  0  0  0  0  0  0  0  0  0  0  0
   -5.1583    2.8583    0.0000 Cl  0  0  0  0  0  0  0  0  0  0  0  0
   -3.0333    1.6208    0.0000 C   0  0  0  0  0  0  0  0  0  0  0  0
   -3.7708    0.3750    0.0000 F   0  0  0  0  0  0  0  0  0  0  0  0
  2  5  1  0  0  0  0
  3  1  1  0  0  0  0
  4  3  1  0  0  0  0
  5 10  1  0  0  0  0
  6  2  1  0  0  0  0
  7  2  1  0  0  0  0
  8  4  2  0  0  0  0
  9  1  1  0  0  0  0
 10  1  1  0  0  0  0
 11  4  1  0  0  0  0
 12  8  1  0  0  0  0
 13  3  2  0  0  0  0
 14  7  1  0  0  0  0
 15  6  1  0  0  0  0
 16  7  2  0  0  0  0
 17  6  2  0  0  0  0
 18 20  1  0  0  0  0
 19  8  1  0  0  0  0
 20 11  2  0  0  0  0
 21 18  1  0  0  0  0
  5  9  1  0  0  0  0
 14 15  1  0  0  0  0
 12 18  2  0  0  0  0
M  END
> <IDNUMBER>
F6473-3564

> <Chemical_Name>
1-[1-(2-chloro-4-fluorobenzoyl)azetidin-3-yl]pyrrolidine-2,5-dione

> <CAS>
1795303-73-9

> <PriceCoeff>
1.50

> <MW>
310.71

> <Description>
solid

> <FSP3>
0.36

> <clogP>
1.21

> <TPSA>
57.69

> <Acceptor>
3

> <Donor>
0

> <RotBonds>
3

> <HAC>
21

> <Collection>
Advanced

$$$$
F6374-1422
  -ISIS-  06222321462D

 24 26  0  0  0  0  0  0  0  0999 V2000
   -4.5958    5.0333    0.0000 N   0  0  3  0  0  0  0  0  0  0  0  0
   -0.2875    6.6792    0.0000 C   0  0  0  0  0  0  0  0  0  0  0  0
   -3.8708    3.8000    0.0000 C   0  0  0  0  0  0  0  0  0  0  0  0
   -4.5833    4.2125    0.0000 C   0  0  0  0  0  0  0  0  0  0  0  0
   -3.9208    5.5167    0.0000 C   0  0  0  0  0  0  0  0  0  0  0  0
   -5.2583    5.5042    0.0000 C   0  0  0  0  0  0  0  0  0  0  0  0
   -3.1583    4.2042    0.0000 N   0  0  3  0  0  0  0  0  0  0  0  0
   -0.2708    7.5125    0.0000 N   0  0  3  0  0  0  0  0  0  0  0  0
    0.5000    6.4167    0.0000 N   0  0  0  0  0  0  0  0  0  0  0  0
   -1.0083    6.2750    0.0000 S   0  0  0  0  0  0  0  0  0  0  0  0
    0.9792    7.0792    0.0000 C   0  0  0  0  0  0  0  0  0  0  0  0
    0.5125    7.7500    0.0000 C   0  0  0  0  0  0  0  0  0  0  0  0
   -3.8708    2.9833    0.0000 O   0  0  0  0  0  0  0  0  0  0  0  0
   -5.0167    6.2917    0.0000 C   0  0  0  0  0  0  0  0  0  0  0  0
   -4.1875    6.3042    0.0000 C   0  0  0  0  0  0  0  0  0  0  0  0
   -6.0292    5.2417    0.0000 O   0  0  0  0  0  0  0  0  0  0  0  0
   -3.1458    5.2667    0.0000 O   0  0  0  0  0  0  0  0  0  0  0  0
   -2.4458    3.8083    0.0000 C   0  0  0  0  0  0  0  0  0  0  0  0
   -3.1583    5.0292    0.0000 C   0  0  0  0  0  0  0  0  0  0  0  0
   -1.0083    5.4417    0.0000 C   0  0  0  0  0  0  0  0  0  0  0  0
   -1.7333    4.2167    0.0000 C   0  0  0  0  0  0  0  0  0  0  0  0
   -2.4500    5.4417    0.0000 C   0  0  0  0  0  0  0  0  0  0  0  0
   -1.7375    5.0292    0.0000 C   0  0  3  0  0  0  0  0  0  0  0  0
   -0.9333    8.0042    0.0000 C   0  0  0  0  0  0  0  0  0  0  0  0
  2 10  1  0  0  0  0
  3  4  1  0  0  0  0
  4  1  1  0  0  0  0
  5  1  1  0  0  0  0
  6  1  1  0  0  0  0
  7  3  1  0  0  0  0
  8  2  1  0  0  0  0
  9  2  2  0  0  0  0
 10 20  1  0  0  0  0
 11  9  1  0  0  0  0
 12  8  1  0  0  0  0
 13  3  2  0  0  0  0
 14  6  1  0  0  0  0
 15  5  1  0  0  0  0
 16  6  2  0  0  0  0
 17  5  2  0  0  0  0
 18  7  1  0  0  0  0
 19  7  1  0  0  0  0
 20 23  1  0  0  0  0
 21 18  1  0  0  0  0
 22 19  1  0  0  0  0
 23 22  1  0  0  0  0
 24  8  1  0  0  0  0
 14 15  1  0  0  0  0
 21 23  1  0  0  0  0
 12 11  2  0  0  0  0
M  END
> <IDNUMBER>
F6374-1422

> <Chemical_Name>
1-[2-(4-{[(1-methyl-1H-imidazol-2-yl)sulfanyl]methyl}piperidin-1-yl)-2-oxoethyl]pyrrolidine-2,5-dione

> <CAS>
1428357-37-2

> <PriceCoeff>
1.50

> <MW>
350.44

> <Description>
oil

> <FSP3>
0.62

> <clogP>
0.53

> <TPSA>
100.81

> <Acceptor>
4

> <Donor>
1

> <RotBonds>
6

> <HAC>
24

> <Collection>
Advanced

$$$$
F3260-0883
  -ISIS-  06222321462D

 20 22  0  0  0  0  0  0  0  0999 V2000
    3.5792    0.4583    0.0000 C   0  0  0  0  0  0  0  0  0  0  0  0
    3.8875   -0.5000    0.0000 C   0  0  0  0  0  0  0  0  0  0  0  0
    4.3875    1.0375    0.0000 N   0  0  0  0  0  0  0  0  0  0  0  0
    2.6042    0.6708    0.0000 N   0  0  3  0  0  0  0  0  0  0  0  0
    5.1917    0.4583    0.0000 C   0  0  0  0  0  0  0  0  0  0  0  0
    2.2292   -1.0250    0.0000 N   0  0  3  0  0  0  0  0  0  0  0  0
    1.9292   -0.0667    0.0000 C   0  0  0  0  0  0  0  0  0  0  0  0
    3.2125   -1.2375    0.0000 C   0  0  0  0  0  0  0  0  0  0  0  0
    4.8875   -0.5000    0.0000 N   0  0  3  0  0  0  0  0  0  0  0  0
    6.1417    0.7708    0.0000 N   0  0  3  0  0  0  0  0  0  0  0  0
    0.9542    0.1458    0.0000 O   0  0  0  0  0  0  0  0  0  0  0  0
    3.5125   -2.1917    0.0000 O   0  0  0  0  0  0  0  0  0  0  0  0
    1.5625   -1.7625    0.0000 C   0  0  0  0  0  0  0  0  0  0  0  0
    2.2917    1.6208    0.0000 C   0  0  0  0  0  0  0  0  0  0  0  0
    5.4750   -1.3042    0.0000 C   0  0  0  0  0  0  0  0  0  0  0  0
    6.4542    1.7250    0.0000 C   0  0  0  0  0  0  0  0  0  0  0  0
    6.9667    0.1833    0.0000 C   0  0  0  0  0  0  0  0  0  0  0  0
    0.5792   -1.5500    0.0000 C   0  0  0  0  0  0  0  0  0  0  0  0
    7.7667    0.7833    0.0000 C   0  0  0  0  0  0  0  0  0  0  0  0
    7.4625    1.7250    0.0000 C   0  0  0  0  0  0  0  0  0  0  0  0
  2  1  2  0  0  0  0
  3  1  1  0  0  0  0
  4  1  1  0  0  0  0
  5  3  2  0  0  0  0
  6  7  1  0  0  0  0
  7  4  1  0  0  0  0
  8  2  1  0  0  0  0
  9  2  1  0  0  0  0
 10  5  1  0  0  0  0
 11  7  2  0  0  0  0
 12  8  2  0  0  0  0
 13  6  1  0  0  0  0
 14  4  1  0  0  0  0
 15  9  1  0  0  0  0
 16 10  1  0  0  0  0
 17 10  1  0  0  0  0
 18 13  1  0  0  0  0
 19 17  1  0  0  0  0
 20 16  1  0  0  0  0
  5  9  1  0  0  0  0
  6  8  1  0  0  0  0
 20 19  1  0  0  0  0
M  END
> <IDNUMBER>
F3260-0883

> <Chemical_Name>
1-ethyl-3,7-dimethyl-8-(pyrrolidin-1-yl)-2,3,6,7-tetrahydro-1H-purine-2,6-dione

> <CAS>
1203256-28-3

> <PriceCoeff>
1.50

> <MW>
277.32

> <Description>
solid

> <FSP3>
0.62

> <clogP>
1.31

> <TPSA>
61.68

> <Acceptor>
3

> <Donor>
2

> <RotBonds>
2

> <HAC>
20

> <Collection>
Advanced

> <Reference_compound>
CHEMBL113

> <Similarity>
0.8120

$$$$
F6617-2074
  -ISIS-  06222321162D

 15 17  0  0  0  0  0  0  0  0999 V2000
   -8.7917    6.6917    0.0000 N   0  0  0  0  0  0  0  0  0  0  0  0
   -9.5000    6.2667    0.0000 N   0  0  3  0  0  0  0  0  0  0  0  0
   -8.4667    5.3917    0.0000 C   0  0  0  0  0  0  0  0  0  0  0  0
   -8.1542    6.1542    0.0000 N   0  0  0  0  0  0  0  0  0  0  0  0
   -9.2917    5.4542    0.0000 C   0  0  0  0  0  0  0  0  0  0  0  0
   -8.0042    4.7167    0.0000 C   0  0  3  0  0  0  0  0  0  0  0  0
   -7.9375    3.9083    0.0000 C   0  0  0  0  0  0  0  0  0  0  0  0
   -7.2500    4.3542    0.0000 C   0  0  0  0  0  0  0  0  0  0  0  0
  -10.2792    6.5417    0.0000 C   0  0  0  0  0  0  0  0  0  0  0  0
  -10.4292    7.3667    0.0000 C   0  0  0  0  0  0  0  0  0  0  0  0
  -10.9292    6.0167    0.0000 C   0  0  0  0  0  0  0  0  0  0  0  0
  -11.2042    7.6500    0.0000 C   0  0  0  0  0  0  0  0  0  0  0  0
  -11.6792    6.3167    0.0000 C   0  0  0  0  0  0  0  0  0  0  0  0
  -11.8167    7.1292    0.0000 C   0  0  0  0  0  0  0  0  0  0  0  0
  -12.5917    7.4292    0.0000 C   0  0  0  0  0  0  0  0  0  0  0  0
  2  1  1  0  0  0  0
  3  4  1  0  0  0  0
  4  1  2  0  0  0  0
  5  2  1  0  0  0  0
  6  3  1  0  0  0  0
  7  6  1  0  0  0  0
  8  6  1  0  0  0  0
  9  2  1  0  0  0  0
 10  9  2  0  0  0  0
 11  9  1  0  0  0  0
 12 10  1  0  0  0  0
 13 11  2  0  0  0  0
 14 13  1  0  0  0  0
 15 14  1  0  0  0  0
  3  5  2  0  0  0  0
  7  8  1  0  0  0  0
 14 12  2  0  0  0  0
M  END
> <IDNUMBER>
F6617-2074

> <Chemical_Name>
4-cyclopropyl-1-(4-methylphenyl)-1H-1,2,3-triazole

> <CAS>
2195881-69-5

> <PriceCoeff>
1.00

> <MW>
199.25

> <Description>
solid

> <FSP3>
0.33

> <clogP>
2.90

> <TPSA>
30.71

> <Acceptor>
2

> <Donor>
0

> <RotBonds>
2

> <HAC>
15

> <Collection>
General

> <Reference_compound>
CHEMBL237695

> <Similarity>
0.8110

$$$$
F6617-2428
  -ISIS-  06222321162D

 14 16  0  0  0  0  0  0  0  0999 V2000
   -4.8583   -3.9042    0.0000 N   0  0  0  0  0  0  0  0  0  0  0  0
   -4.1958   -4.3792    0.0000 N   0  0  3  0  0  0  0  0  0  0  0  0
   -3.7833   -3.1167    0.0000 C   0  0  0  0  0  0  0  0  0  0  0  0
   -4.6000   -3.1167    0.0000 N   0  0  0  0  0  0  0  0  0  0  0  0
   -3.5250   -3.9042    0.0000 C   0  0  0  0  0  0  0  0  0  0  0  0
   -3.3000   -2.4542    0.0000 C   0  0  3  0  0  0  0  0  0  0  0  0
   -3.2125   -1.6292    0.0000 C   0  0  0  0  0  0  0  0  0  0  0  0
   -2.5458   -2.1167    0.0000 C   0  0  0  0  0  0  0  0  0  0  0  0
   -4.1958   -5.2125    0.0000 C   0  0  0  0  0  0  0  0  0  0  0  0
   -3.4833   -5.6250    0.0000 C   0  0  0  0  0  0  0  0  0  0  0  0
   -4.9083   -5.6250    0.0000 C   0  0  0  0  0  0  0  0  0  0  0  0
   -4.9083   -6.4417    0.0000 C   0  0  0  0  0  0  0  0  0  0  0  0
   -3.4833   -6.4417    0.0000 C   0  0  0  0  0  0  0  0  0  0  0  0
   -4.1958   -6.8542    0.0000 C   0  0  0  0  0  0  0  0  0  0  0  0
  2  1  1  0  0  0  0
  3  4  1  0  0  0  0
  4  1  2  0  0  0  0
  5  2  1  0  0  0  0
  6  3  1  0  0  0  0
  7  6  1  0  0  0  0
  8  6  1  0  0  0  0
  9  2  1  0  0  0  0
 10  9  2  0  0  0  0
 11  9  1  0  0  0  0
 12 11  2  0  0  0  0
 13 10  1  0  0  0  0
 14 12  1  0  0  0  0
  5  3  2  0  0  0  0
  7  8  1  0  0  0  0
 13 14  2  0  0  0  0
M  END
> <IDNUMBER>
F6617-2428

> <Chemical_Name>
4-cyclopropyl-1-phenyl-1H-1,2,3-triazole

> <CAS>
1878984-83-8

> <PriceCoeff>
1.00

> <MW>
185.23

> <Description>
solid

> <FSP3>
0.27

> <clogP>
2.40

> <TPSA>
25.11

> <Acceptor>
2

> <Donor>
0

> <RotBonds>
2

> <HAC>
14

> <Collection>
General

> <Reference_compound>
CHEMBL237695

> <Similarity>
0.8400

$$$$
F2147-9882
  -ISIS-  06222304352D

 15 16  0  0  0  0  0  0  0  0999 V2000
   -2.0958    1.8417    0.0000 C   0  0  0  0  0  0  0  0  0  0  0  0
    0.0125    2.7958    0.0000 C   0  0  3  0  0  0  0  0  0  0  0  0
   -2.7625   -0.2042    0.0000 N   0  0  0  0  0  0  0  0  0  0  0  0
   -1.6833    0.5708    0.0000 C   0  0  0  0  0  0  0  0  0  0  0  0
   -3.4333    1.8417    0.0000 C   0  0  0  0  0  0  0  0  0  0  0  0
   -1.3208    2.9333    0.0000 C   0  0  0  0  0  0  0  0  0  0  0  0
    0.0083    1.4625    0.0000 C   0  0  0  0  0  0  0  0  0  0  0  0
    1.1667    2.1333    0.0000 C   0  0  0  0  0  0  0  0  0  0  0  0
   -3.8500    0.5708    0.0000 C   0  0  0  0  0  0  0  0  0  0  0  0
    0.3625    4.0917    0.0000 N   0  0  0  0  0  0  0  0  0  0  0  0
   -4.3208    2.8333    0.0000 C   0  0  0  0  0  0  0  0  0  0  0  0
   -5.1583    0.2875    0.0000 C   0  0  0  0  0  0  0  0  0  0  0  0
   -5.6333    2.5708    0.0000 C   0  0  0  0  0  0  0  0  0  0  0  0
   -6.0583    1.2875    0.0000 C   0  0  0  0  0  0  0  0  0  0  0  0
    2.5542    1.9417    0.0000 Cl  0  0  0  0  0  0  0  0  0  0  0  0
  3  4  1  0  0  0  0
  4  1  2  0  0  0  0
  5  1  1  0  0  0  0
  6  1  1  0  0  0  0
  7  2  1  0  0  0  0
  8  2  1  0  0  0  0
  9  5  2  0  0  0  0
 10  2  1  0  0  0  0
 11  5  1  0  0  0  0
 12  9  1  0  0  0  0
 13 11  2  0  0  0  0
 14 13  1  0  0  0  0
  3  9  1  0  0  0  0
  7  8  1  0  0  0  0
 12 14  2  0  0  0  0
  2  6  1  0  0  0  0
M  END
> <IDNUMBER>
F2147-9882

> <Chemical_Name>
1-[(1H-indol-3-yl)methyl]cyclopropan-1-amine hydrochloride

> <CAS>
2411638-56-5

> <PriceCoeff>
1.50

> <MW>
186.25

> <Description>
solid

> <FSP3>
0.33

> <clogP>
1.77

> <TPSA>
41.81

> <Acceptor>
0

> <Donor>
2

> <RotBonds>
2

> <HAC>
14

> <Collection>
Advanced

> <Reference_compound>
CHEMBL2229708

> <Similarity>
0.8020

$$$$
F3376-1619
  -ISIS-  06222321462D

 16 18  0  0  0  0  0  0  0  0999 V2000
    5.5917   -7.4542    0.0000 C   0  0  0  0  0  0  0  0  0  0  0  0
    5.5792   -6.5667    0.0000 C   0  0  0  0  0  0  0  0  0  0  0  0
    6.3667   -7.9042    0.0000 N   0  0  0  0  0  0  0  0  0  0  0  0
    4.8292   -7.9042    0.0000 N   0  0  3  0  0  0  0  0  0  0  0  0
    4.0542   -6.5292    0.0000 N   0  0  3  0  0  0  0  0  0  0  0  0
    4.0542   -7.4542    0.0000 C   0  0  0  0  0  0  0  0  0  0  0  0
    4.8292   -6.0917    0.0000 C   0  0  0  0  0  0  0  0  0  0  0  0
    7.1417   -7.4542    0.0000 C   0  0  0  0  0  0  0  0  0  0  0  0
    7.1417   -6.5417    0.0000 N   0  0  3  0  0  0  0  0  0  0  0  0
    7.9292   -7.9042    0.0000 N   0  0  0  0  0  0  0  0  0  0  0  0
    3.2667   -7.9542    0.0000 O   0  0  0  0  0  0  0  0  0  0  0  0
    4.8292   -5.1917    0.0000 O   0  0  0  0  0  0  0  0  0  0  0  0
    4.8292   -8.8042    0.0000 C   0  0  0  0  0  0  0  0  0  0  0  0
    3.2542   -6.0542    0.0000 C   0  0  0  0  0  0  0  0  0  0  0  0
    8.7167   -6.5417    0.0000 C   0  0  0  0  0  0  0  0  0  0  0  0
    8.7167   -7.4542    0.0000 C   0  0  0  0  0  0  0  0  0  0  0  0
  2  1  2  0  0  0  0
  3  1  1  0  0  0  0
  4  1  1  0  0  0  0
  5  6  1  0  0  0  0
  6  4  1  0  0  0  0
  7  2  1  0  0  0  0
  8  3  2  0  0  0  0
  9  2  1  0  0  0  0
 10  8  1  0  0  0  0
 11  6  2  0  0  0  0
 12  7  2  0  0  0  0
 13  4  1  0  0  0  0
 14  5  1  0  0  0  0
 15  9  1  0  0  0  0
 16 10  1  0  0  0  0
  8  9  1  0  0  0  0
  7  5  1  0  0  0  0
 15 16  1  0  0  0  0
M  END
> <IDNUMBER>
F3376-1619

> <Chemical_Name>
1,3-dimethyl-1H,2H,3H,4H,6H,7H,8H-imidazo[1,2-g]purine-2,4-dione

> <CAS>
49687-12-9

> <PriceCoeff>
1.50

> <MW>
221.22

> <Description>
solid

> <FSP3>
0.44

> <clogP>
0.40

> <TPSA>
70.47

> <Acceptor>
3

> <Donor>
2

> <RotBonds>
0

> <HAC>
16

> <Collection>
Advanced

> <Reference_compound>
CHEMBL113

> <Similarity>
0.8030

$$$$
F6473-3650
  -ISIS-  06222321442D

 22 24  0  0  0  0  0  0  0  0999 V2000
   -1.3083    5.1042    0.0000 N   0  0  3  0  0  0  0  0  0  0  0  0
   -3.0333    4.1042    0.0000 N   0  0  3  0  0  0  0  0  0  0  0  0
   -2.0333    4.6875    0.0000 C   0  0  3  0  0  0  0  0  0  0  0  0
   -0.5583    4.7667    0.0000 C   0  0  0  0  0  0  0  0  0  0  0  0
   -1.2250    5.9167    0.0000 C   0  0  0  0  0  0  0  0  0  0  0  0
   -3.7458    3.6958    0.0000 C   0  0  0  0  0  0  0  0  0  0  0  0
   -2.2458    3.8958    0.0000 C   0  0  0  0  0  0  0  0  0  0  0  0
   -2.8208    4.9000    0.0000 C   0  0  0  0  0  0  0  0  0  0  0  0
   -0.0083    5.3792    0.0000 C   0  0  0  0  0  0  0  0  0  0  0  0
   -0.4208    6.0917    0.0000 C   0  0  0  0  0  0  0  0  0  0  0  0
   -0.3875    3.9625    0.0000 O   0  0  0  0  0  0  0  0  0  0  0  0
   -1.8417    6.4708    0.0000 O   0  0  0  0  0  0  0  0  0  0  0  0
   -3.7458    2.8708    0.0000 C   0  0  0  0  0  0  0  0  0  0  0  0
   -4.4667    4.1042    0.0000 O   0  0  0  0  0  0  0  0  0  0  0  0
   -3.0458    1.6375    0.0000 C   0  0  0  0  0  0  0  0  0  0  0  0
   -2.3333    1.2333    0.0000 C   0  0  0  0  0  0  0  0  0  0  0  0
   -3.0333    2.4583    0.0000 C   0  0  0  0  0  0  0  0  0  0  0  0
   -1.6083    1.6458    0.0000 Br  0  0  0  0  0  0  0  0  0  0  0  0
   -3.7583    1.2250    0.0000 C   0  0  0  0  0  0  0  0  0  0  0  0
   -2.3333    0.4083    0.0000 C   0  0  0  0  0  0  0  0  0  0  0  0
   -3.0458   -0.0125    0.0000 C   0  0  0  0  0  0  0  0  0  0  0  0
   -3.7583    0.4000    0.0000 C   0  0  0  0  0  0  0  0  0  0  0  0
  2  8  1  0  0  0  0
  3  1  1  0  0  0  0
  4  1  1  0  0  0  0
  5  1  1  0  0  0  0
  6  2  1  0  0  0  0
  7  3  1  0  0  0  0
  8  3  1  0  0  0  0
  9  4  1  0  0  0  0
 10  5  1  0  0  0  0
 11  4  2  0  0  0  0
 12  5  2  0  0  0  0
 13  6  1  0  0  0  0
 14  6  2  0  0  0  0
 15 17  1  0  0  0  0
 16 15  2  0  0  0  0
 17 13  1  0  0  0  0
 18 16  1  0  0  0  0
 19 15  1  0  0  0  0
 20 16  1  0  0  0  0
 21 22  1  0  0  0  0
 22 19  2  0  0  0  0
 10  9  1  0  0  0  0
  7  2  1  0  0  0  0
 20 21  2  0  0  0  0
M  END
> <IDNUMBER>
F6473-3650

> <Chemical_Name>
1-{1-[3-(2-bromophenyl)propanoyl]azetidin-3-yl}pyrrolidine-2,5-dione

> <CAS>
1798675-89-4

> <PriceCoeff>
1.50

> <MW>
365.22

> <Description>
solid

> <FSP3>
0.44

> <clogP>
1.63

> <TPSA>
57.69

> <Acceptor>
3

> <Donor>
0

> <RotBonds>
5

> <HAC>
22

> <Collection>
Advanced

$$$$
F6473-3772
  -ISIS-  06222321462D

 22 25  0  0  0  0  0  0  0  0999 V2000
   -3.7458    2.9208    0.0000 C   0  0  0  0  0  0  0  0  0  0  0  0
   -3.0333    4.1042    0.0000 N   0  0  3  0  0  0  0  0  0  0  0  0
   -1.3083    5.1042    0.0000 N   0  0  3  0  0  0  0  0  0  0  0  0
   -3.7458    3.6958    0.0000 C   0  0  0  0  0  0  0  0  0  0  0  0
   -2.0333    4.6875    0.0000 C   0  0  3  0  0  0  0  0  0  0  0  0
   -3.2083    2.3833    0.0000 C   0  0  0  0  0  0  0  0  0  0  0  0
   -4.7083    1.9833    0.0000 C   0  0  0  0  0  0  0  0  0  0  0  0
   -0.5583    4.7667    0.0000 C   0  0  0  0  0  0  0  0  0  0  0  0
   -1.2250    5.9167    0.0000 C   0  0  0  0  0  0  0  0  0  0  0  0
   -3.4000    1.6250    0.0000 N   0  0  0  0  0  0  0  0  0  0  0  0
   -2.2458    3.8958    0.0000 C   0  0  0  0  0  0  0  0  0  0  0  0
   -2.8208    4.9000    0.0000 C   0  0  0  0  0  0  0  0  0  0  0  0
   -4.1583    1.4208    0.0000 C   0  0  0  0  0  0  0  0  0  0  0  0
   -4.4208    4.0792    0.0000 O   0  0  0  0  0  0  0  0  0  0  0  0
   -0.0083    5.3792    0.0000 C   0  0  0  0  0  0  0  0  0  0  0  0
   -0.4208    6.0917    0.0000 C   0  0  0  0  0  0  0  0  0  0  0  0
   -0.3875    3.9625    0.0000 O   0  0  0  0  0  0  0  0  0  0  0  0
   -1.8417    6.4708    0.0000 O   0  0  0  0  0  0  0  0  0  0  0  0
   -5.4542    1.7833    0.0000 C   0  0  0  0  0  0  0  0  0  0  0  0
   -4.3708    0.6833    0.0000 C   0  0  0  0  0  0  0  0  0  0  0  0
   -5.6542    1.0375    0.0000 C   0  0  0  0  0  0  0  0  0  0  0  0
   -5.1083    0.4875    0.0000 C   0  0  0  0  0  0  0  0  0  0  0  0
  2  4  1  0  0  0  0
  3  5  1  0  0  0  0
  4  1  1  0  0  0  0
  5 12  1  0  0  0  0
  6  1  2  0  0  0  0
  7  1  1  0  0  0  0
  8  3  1  0  0  0  0
  9  3  1  0  0  0  0
 10  6  1  0  0  0  0
 11  2  1  0  0  0  0
 12  2  1  0  0  0  0
 13  7  1  0  0  0  0
 14  4  2  0  0  0  0
 15  8  1  0  0  0  0
 16  9  1  0  0  0  0
 17  8  2  0  0  0  0
 18  9  2  0  0  0  0
 19  7  2  0  0  0  0
 20 13  2  0  0  0  0
 21 19  1  0  0  0  0
 22 21  2  0  0  0  0
 13 10  1  0  0  0  0
  5 11  1  0  0  0  0
 20 22  1  0  0  0  0
 16 15  1  0  0  0  0
M  END
> <IDNUMBER>
F6473-3772

> <Chemical_Name>
1-[1-(1H-indole-3-carbonyl)azetidin-3-yl]pyrrolidine-2,5-dione

> <CAS>
1795085-51-6

> <PriceCoeff>
1.50

> <MW>
297.31

> <Description>
solid

> <FSP3>
0.31

> <clogP>
0.65

> <TPSA>
73.48

> <Acceptor>
3

> <Donor>
1

> <RotBonds>
3

> <HAC>
22

> <Collection>
Advanced

$$$$
F9994-0706
  -ISIS-  06222321472D

  9  9  0  0  0  0  0  0  0  0999 V2000
   -4.1417    0.8875    0.0000 C   0  0  3  0  0  0  0  0  0  0  0  0
   -4.1417    2.5375    0.0000 C   0  0  0  0  0  0  0  0  0  0  0  0
   -4.1458    3.3625    0.0000 O   0  0  0  0  0  0  0  0  0  0  0  0
   -3.4250    1.2958    0.0000 C   0  0  0  0  0  0  0  0  0  0  0  0
   -4.8458    1.2958    0.0000 C   0  0  0  0  0  0  0  0  0  0  0  0
   -3.4250    2.1208    0.0000 C   0  0  0  0  0  0  0  0  0  0  0  0
   -4.8458    2.1208    0.0000 C   0  0  0  0  0  0  0  0  0  0  0  0
   -4.8583    0.4833    0.0000 C   0  0  0  0  0  0  0  0  0  0  0  0
   -3.4250    0.4750    0.0000 C   0  0  0  0  0  0  0  0  0  0  0  0
  2  7  1  0  0  0  0
  3  2  2  0  0  0  0
  4  1  1  0  0  0  0
  5  1  1  0  0  0  0
  6  4  1  0  0  0  0
  7  5  1  0  0  0  0
  8  1  1  0  0  0  0
  9  1  1  0  0  0  0
  6  2  1  0  0  0  0
M  END
> <IDNUMBER>
F9994-0706

> <Chemical_Name>
4,4-dimethylcyclohexan-1-one

> <CAS>
4255-62-3

> <PriceCoeff>
1.00

> <MW>
126.20

> <Description>
solid

> <FSP3>
0.88

> <clogP>
1.90

> <TPSA>
17.07

> <Acceptor>
1

> <Donor>
0

> <RotBonds>
0

> <HAC>
9

> <Collection>
General

> <Reference_compound>
CHEMBL2268548

> <Similarity>
0.8210

$$$$
F1468-0042
  -ISIS-  06222321452D

 20 22  0  0  0  0  0  0  0  0999 V2000
    0.9875   -2.1125    0.0000 C   0  0  0  0  0  0  0  0  0  0  0  0
    0.9875   -1.3167    0.0000 C   0  0  0  0  0  0  0  0  0  0  0  0
    0.2750   -2.4917    0.0000 N   0  0  3  0  0  0  0  0  0  0  0  0
   -0.4583   -1.3167    0.0000 N   0  0  3  0  0  0  0  0  0  0  0  0
   -0.4583   -2.1125    0.0000 C   0  0  0  0  0  0  0  0  0  0  0  0
    0.2750   -0.9125    0.0000 C   0  0  0  0  0  0  0  0  0  0  0  0
    1.7667   -2.3500    0.0000 N   0  0  0  0  0  0  0  0  0  0  0  0
    1.8250   -1.0042    0.0000 N   0  0  0  0  0  0  0  0  0  0  0  0
    2.2417   -1.7042    0.0000 C   0  0  0  0  0  0  0  0  0  0  0  0
   -1.1833   -2.4917    0.0000 O   0  0  0  0  0  0  0  0  0  0  0  0
    3.4750   -2.4167    0.0000 N   0  0  3  0  0  0  0  0  0  0  0  0
    0.2750   -0.1167    0.0000 O   0  0  0  0  0  0  0  0  0  0  0  0
    3.0667   -1.7042    0.0000 C   0  0  0  0  0  0  0  0  0  0  0  0
    0.2750   -3.2917    0.0000 C   0  0  0  0  0  0  0  0  0  0  0  0
   -1.1708   -0.9000    0.0000 C   0  0  0  0  0  0  0  0  0  0  0  0
    3.0542   -3.1250    0.0000 C   0  0  0  0  0  0  0  0  0  0  0  0
    4.2917   -2.4167    0.0000 C   0  0  0  0  0  0  0  0  0  0  0  0
    4.7000   -3.1292    0.0000 C   0  0  0  0  0  0  0  0  0  0  0  0
    3.4625   -3.8292    0.0000 C   0  0  0  0  0  0  0  0  0  0  0  0
    4.2792   -3.8417    0.0000 C   0  0  0  0  0  0  0  0  0  0  0  0
  2  1  2  0  0  0  0
  3  1  1  0  0  0  0
  4  5  1  0  0  0  0
  5  3  1  0  0  0  0
  6  2  1  0  0  0  0
  7  1  1  0  0  0  0
  8  2  1  0  0  0  0
  9  7  2  0  0  0  0
 10  5  2  0  0  0  0
 11 13  1  0  0  0  0
 12  6  2  0  0  0  0
 13  9  1  0  0  0  0
 14  3  1  0  0  0  0
 15  4  1  0  0  0  0
 16 11  1  0  0  0  0
 17 11  1  0  0  0  0
 18 17  1  0  0  0  0
 19 16  1  0  0  0  0
 20 18  1  0  0  0  0
  8  9  1  0  0  0  0
  6  4  1  0  0  0  0
 20 19  1  0  0  0  0
M  END
> <IDNUMBER>
F1468-0042

> <Chemical_Name>
1,3-dimethyl-8-[(piperidin-1-yl)methyl]-2,3,6,7-tetrahydro-1H-purine-2,6-dione

> <CAS>
5436-40-8

> <PriceCoeff>
1.50

> <MW>
277.32

> <Description>
solid

> <FSP3>
0.62

> <clogP>
0.99

> <TPSA>
72.54

> <Acceptor>
4

> <Donor>
3

> <RotBonds>
2

> <HAC>
20

> <Collection>
Advanced

> <Reference_compound>
CHEMBL190

> <Similarity>
0.8110

$$$$
F3176-0006
  -ISIS-  06222321462D

 20 22  0  0  0  0  0  0  0  0999 V2000
    3.6375    2.1083    0.0000 C   0  0  0  0  0  0  0  0  0  0  0  0
    3.6375    3.5083    0.0000 C   0  0  0  0  0  0  0  0  0  0  0  0
    4.9667    1.6708    0.0000 N   0  0  0  0  0  0  0  0  0  0  0  0
    2.4167    1.4000    0.0000 N   0  0  3  0  0  0  0  0  0  0  0  0
    1.2125    3.5083    0.0000 N   0  0  3  0  0  0  0  0  0  0  0  0
    1.2125    2.1083    0.0000 C   0  0  0  0  0  0  0  0  0  0  0  0
    5.7917    2.8083    0.0000 C   0  0  0  0  0  0  0  0  0  0  0  0
    2.4167    4.2000    0.0000 C   0  0  0  0  0  0  0  0  0  0  0  0
    4.9667    3.9375    0.0000 N   0  0  0  0  0  0  0  0  0  0  0  0
    7.1917    2.8083    0.0000 N   0  0  3  0  0  0  0  0  0  0  0  0
    0.0000    1.4083    0.0000 O   0  0  0  0  0  0  0  0  0  0  0  0
    2.4167    5.5917    0.0000 O   0  0  0  0  0  0  0  0  0  0  0  0
    2.4167   -0.0000    0.0000 C   0  0  0  0  0  0  0  0  0  0  0  0
    0.0000    4.2000    0.0000 C   0  0  0  0  0  0  0  0  0  0  0  0
    7.7917    1.5458    0.0000 C   0  0  0  0  0  0  0  0  0  0  0  0
    7.7917    4.0625    0.0000 C   0  0  0  0  0  0  0  0  0  0  0  0
    9.1625    4.3750    0.0000 C   0  0  0  0  0  0  0  0  0  0  0  0
    9.1625    1.2333    0.0000 C   0  0  0  0  0  0  0  0  0  0  0  0
   10.2542    2.1083    0.0000 C   0  0  0  0  0  0  0  0  0  0  0  0
   10.2542    3.5083    0.0000 C   0  0  0  0  0  0  0  0  0  0  0  0
  2  1  2  0  0  0  0
  3  1  1  0  0  0  0
  4  1  1  0  0  0  0
  5  6  1  0  0  0  0
  6  4  1  0  0  0  0
  7  3  2  0  0  0  0
  8  2  1  0  0  0  0
  9  2  1  0  0  0  0
 10  7  1  0  0  0  0
 11  6  2  0  0  0  0
 12  8  2  0  0  0  0
 13  4  1  0  0  0  0
 14  5  1  0  0  0  0
 15 10  1  0  0  0  0
 16 10  1  0  0  0  0
 17 16  1  0  0  0  0
 18 15  1  0  0  0  0
 19 18  1  0  0  0  0
 20 17  1  0  0  0  0
  9  7  1  0  0  0  0
  5  8  1  0  0  0  0
 20 19  1  0  0  0  0
M  END
> <IDNUMBER>
F3176-0006

> <Chemical_Name>
8-(azepan-1-yl)-1,3-dimethyl-2,3,6,7-tetrahydro-1H-purine-2,6-dione

> <CAS>
332116-03-7

> <PriceCoeff>
1.50

> <MW>
277.32

> <Description>
solid

> <FSP3>
0.62

> <clogP>
1.91

> <TPSA>
72.54

> <Acceptor>
4

> <Donor>
3

> <RotBonds>
1

> <HAC>
20

> <Collection>
Advanced

> <Reference_compound>
CHEMBL190

> <Similarity>
0.8080

$$$$
F6473-3536
  -ISIS-  06222321462D

 21 23  0  0  0  0  0  0  0  0999 V2000
   -1.3083    5.1042    0.0000 N   0  0  3  0  0  0  0  0  0  0  0  0
   -3.0333    4.1042    0.0000 N   0  0  3  0  0  0  0  0  0  0  0  0
   -2.0333    4.6875    0.0000 C   0  0  3  0  0  0  0  0  0  0  0  0
   -3.7458    3.6958    0.0000 C   0  0  0  0  0  0  0  0  0  0  0  0
   -1.2250    5.9167    0.0000 C   0  0  0  0  0  0  0  0  0  0  0  0
   -0.5583    4.7667    0.0000 C   0  0  0  0  0  0  0  0  0  0  0  0
   -2.2458    3.8958    0.0000 C   0  0  0  0  0  0  0  0  0  0  0  0
   -2.8208    4.9000    0.0000 C   0  0  0  0  0  0  0  0  0  0  0  0
   -3.7458    2.8833    0.0000 C   0  0  0  0  0  0  0  0  0  0  0  0
   -4.4708    4.1083    0.0000 O   0  0  0  0  0  0  0  0  0  0  0  0
   -0.0083    5.3792    0.0000 C   0  0  0  0  0  0  0  0  0  0  0  0
   -0.4208    6.0917    0.0000 C   0  0  0  0  0  0  0  0  0  0  0  0
   -0.3875    3.9625    0.0000 O   0  0  0  0  0  0  0  0  0  0  0  0
   -1.8417    6.4708    0.0000 O   0  0  0  0  0  0  0  0  0  0  0  0
   -4.4583    2.4625    0.0000 C   0  0  0  0  0  0  0  0  0  0  0  0
   -5.8458    1.6250    0.0000 C   0  0  0  0  0  0  0  0  0  0  0  0
   -6.5667    1.1958    0.0000 F   0  0  0  0  0  0  0  0  0  0  0  0
   -4.4333    1.6583    0.0000 C   0  0  0  0  0  0  0  0  0  0  0  0
   -5.1583    2.8833    0.0000 C   0  0  0  0  0  0  0  0  0  0  0  0
   -5.8625    2.4458    0.0000 C   0  0  0  0  0  0  0  0  0  0  0  0
   -5.1583    1.2333    0.0000 C   0  0  0  0  0  0  0  0  0  0  0  0
  2  8  1  0  0  0  0
  3  1  1  0  0  0  0
  4  2  1  0  0  0  0
  5  1  1  0  0  0  0
  6  1  1  0  0  0  0
  7  3  1  0  0  0  0
  8  3  1  0  0  0  0
  9  4  1  0  0  0  0
 10  4  2  0  0  0  0
 11  6  1  0  0  0  0
 12  5  1  0  0  0  0
 13  6  2  0  0  0  0
 14  5  2  0  0  0  0
 15  9  1  0  0  0  0
 16 20  1  0  0  0  0
 17 16  1  0  0  0  0
 18 15  2  0  0  0  0
 19 15  1  0  0  0  0
 20 19  2  0  0  0  0
 21 18  1  0  0  0  0
 12 11  1  0  0  0  0
  7  2  1  0  0  0  0
 21 16  2  0  0  0  0
M  END
> <IDNUMBER>
F6473-3536

> <Chemical_Name>
1-{1-[2-(4-fluorophenyl)acetyl]azetidin-3-yl}pyrrolidine-2,5-dione

> <CAS>
1795362-66-1

> <PriceCoeff>
1.50

> <MW>
290.29

> <Description>
solid

> <FSP3>
0.40

> <clogP>
0.87

> <TPSA>
57.69

> <Acceptor>
3

> <Donor>
0

> <RotBonds>
4

> <HAC>
21

> <Collection>
Advanced

$$$$
F1070-0203
  -ISIS-  06222321452D

 20 22  0  0  0  0  0  0  0  0999 V2000
    6.3125   -3.6292    0.0000 C   0  0  0  0  0  0  0  0  0  0  0  0
    6.3125   -4.3792    0.0000 C   0  0  0  0  0  0  0  0  0  0  0  0
    5.0167   -3.6292    0.0000 N   0  0  0  0  0  0  0  0  0  0  0  0
    6.9625   -3.2542    0.0000 N   0  0  3  0  0  0  0  0  0  0  0  0
    5.0167   -4.3792    0.0000 C   0  0  0  0  0  0  0  0  0  0  0  0
    7.6042   -4.3792    0.0000 N   0  0  3  0  0  0  0  0  0  0  0  0
    7.6042   -3.6375    0.0000 C   0  0  0  0  0  0  0  0  0  0  0  0
    6.9542   -4.7542    0.0000 C   0  0  0  0  0  0  0  0  0  0  0  0
    5.6625   -4.7542    0.0000 N   0  0  3  0  0  0  0  0  0  0  0  0
    4.3667   -4.7542    0.0000 N   0  0  3  0  0  0  0  0  0  0  0  0
    8.2625   -3.2667    0.0000 O   0  0  0  0  0  0  0  0  0  0  0  0
    6.9500   -5.5042    0.0000 O   0  0  0  0  0  0  0  0  0  0  0  0
    6.9625   -2.5042    0.0000 C   0  0  0  0  0  0  0  0  0  0  0  0
    8.2542   -4.7667    0.0000 C   0  0  0  0  0  0  0  0  0  0  0  0
    3.0667   -5.5042    0.0000 O   0  0  0  0  0  0  0  0  0  0  0  0
    5.6667   -5.5042    0.0000 C   0  0  0  0  0  0  0  0  0  0  0  0
    4.3667   -5.5042    0.0000 C   0  0  0  0  0  0  0  0  0  0  0  0
    3.7167   -4.3792    0.0000 C   0  0  0  0  0  0  0  0  0  0  0  0
    3.0667   -4.7542    0.0000 C   0  0  0  0  0  0  0  0  0  0  0  0
    3.7167   -5.8792    0.0000 C   0  0  0  0  0  0  0  0  0  0  0  0
  2  1  2  0  0  0  0
  3  1  1  0  0  0  0
  4  1  1  0  0  0  0
  5  3  2  0  0  0  0
  6  7  1  0  0  0  0
  7  4  1  0  0  0  0
  8  2  1  0  0  0  0
  9  2  1  0  0  0  0
 10  5  1  0  0  0  0
 11  7  2  0  0  0  0
 12  8  2  0  0  0  0
 13  4  1  0  0  0  0
 14  6  1  0  0  0  0
 15 19  1  0  0  0  0
 16  9  1  0  0  0  0
 17 10  1  0  0  0  0
 18 10  1  0  0  0  0
 19 18  1  0  0  0  0
 20 17  1  0  0  0  0
  5  9  1  0  0  0  0
  8  6  1  0  0  0  0
 20 15  1  0  0  0  0
M  END
> <IDNUMBER>
F1070-0203

> <Chemical_Name>
1,3,7-trimethyl-8-(morpholin-4-yl)-2,3,6,7-tetrahydro-1H-purine-2,6-dione

> <CAS>
5436-38-4

> <PriceCoeff>
1.50

> <MW>
279.30

> <Description>
solid

> <FSP3>
0.58

> <clogP>
-0.04

> <TPSA>
70.91

> <Acceptor>
4

> <Donor>
2

> <RotBonds>
1

> <HAC>
20

> <Collection>
Advanced

> <Reference_compound>
CHEMBL113

> <Similarity>
0.8130

$$$$
F2196-0154
  -ISIS-  06222321462D

  8  8  0  0  0  0  0  0  0  0999 V2000
    7.7042    0.6042    0.0000 C   0  0  0  0  0  0  0  0  0  0  0  0
    7.2167   -0.0625    0.0000 C   0  0  3  0  0  0  0  0  0  0  0  0
    7.3667    1.3583    0.0000 O   0  0  0  0  0  0  0  0  0  0  0  0
    6.8042   -1.3375    0.0000 O   0  0  0  0  0  0  0  0  0  0  0  0
    8.5250    0.5167    0.0000 O   0  0  0  0  0  0  0  0  0  0  0  0
    7.4750   -0.8500    0.0000 C   0  0  0  0  0  0  0  0  0  0  0  0
    6.3917   -0.0625    0.0000 C   0  0  0  0  0  0  0  0  0  0  0  0
    6.1417   -0.8500    0.0000 C   0  0  0  0  0  0  0  0  0  0  0  0
  2  1  1  0  0  0  0
  3  1  2  0  0  0  0
  4  6  1  0  0  0  0
  5  1  1  0  0  0  0
  6  2  1  0  0  0  0
  7  2  1  0  0  0  0
  8  7  1  0  0  0  0
  8  4  1  0  0  0  0
M  END
> <IDNUMBER>
F2196-0154

> <Chemical_Name>
oxolane-3-carboxylic acid

> <CAS>
89364-31-8

> <PriceCoeff>
1.00

> <MW>
116.12

> <Description>
liquid

> <FSP3>
0.80

> <clogP>
-0.34

> <TPSA>
46.53

> <Acceptor>
3

> <Donor>
0

> <RotBonds>
1

> <HAC>
8

> <Collection>
General

> <Reference_compound>
CHEMBL2228306

> <Similarity>
1.0000

$$$$
F3176-0004
  -ISIS-  06222321462D

 19 21  0  0  0  0  0  0  0  0999 V2000
    3.6375    2.1083    0.0000 C   0  0  0  0  0  0  0  0  0  0  0  0
    3.6375    3.5083    0.0000 C   0  0  0  0  0  0  0  0  0  0  0  0
    4.9667    1.6708    0.0000 N   0  0  0  0  0  0  0  0  0  0  0  0
    2.4167    1.4000    0.0000 N   0  0  3  0  0  0  0  0  0  0  0  0
    1.2125    3.5083    0.0000 N   0  0  3  0  0  0  0  0  0  0  0  0
    1.2125    2.1083    0.0000 C   0  0  0  0  0  0  0  0  0  0  0  0
    5.7917    2.8083    0.0000 C   0  0  0  0  0  0  0  0  0  0  0  0
    2.4167    4.2000    0.0000 C   0  0  0  0  0  0  0  0  0  0  0  0
    4.9667    3.9375    0.0000 N   0  0  0  0  0  0  0  0  0  0  0  0
    7.1917    2.8083    0.0000 N   0  0  3  0  0  0  0  0  0  0  0  0
    0.0000    1.4083    0.0000 O   0  0  0  0  0  0  0  0  0  0  0  0
    2.4167    5.5917    0.0000 O   0  0  0  0  0  0  0  0  0  0  0  0
    2.4167   -0.0000    0.0000 C   0  0  0  0  0  0  0  0  0  0  0  0
    0.0000    4.2000    0.0000 C   0  0  0  0  0  0  0  0  0  0  0  0
    7.8917    1.5958    0.0000 C   0  0  0  0  0  0  0  0  0  0  0  0
    7.8917    4.0125    0.0000 C   0  0  0  0  0  0  0  0  0  0  0  0
    9.2917    4.0125    0.0000 C   0  0  0  0  0  0  0  0  0  0  0  0
    9.2917    1.5958    0.0000 C   0  0  0  0  0  0  0  0  0  0  0  0
    9.9917    2.8083    0.0000 C   0  0  0  0  0  0  0  0  0  0  0  0
  2  1  2  0  0  0  0
  3  1  1  0  0  0  0
  4  1  1  0  0  0  0
  5  6  1  0  0  0  0
  6  4  1  0  0  0  0
  7  3  2  0  0  0  0
  8  2  1  0  0  0  0
  9  2  1  0  0  0  0
 10  7  1  0  0  0  0
 11  6  2  0  0  0  0
 12  8  2  0  0  0  0
 13  4  1  0  0  0  0
 14  5  1  0  0  0  0
 15 10  1  0  0  0  0
 16 10  1  0  0  0  0
 17 16  1  0  0  0  0
 18 15  1  0  0  0  0
 19 17  1  0  0  0  0
  9  7  1  0  0  0  0
  5  8  1  0  0  0  0
 19 18  1  0  0  0  0
M  END
> <IDNUMBER>
F3176-0004

> <Chemical_Name>
1,3-dimethyl-8-(piperidin-1-yl)-2,3,6,7-tetrahydro-1H-purine-2,6-dione

> <CAS>
961-48-8

> <PriceCoeff>
1.50

> <MW>
263.30

> <Description>
solid

> <FSP3>
0.58

> <clogP>
1.35

> <TPSA>
72.54

> <Acceptor>
4

> <Donor>
3

> <RotBonds>
1

> <HAC>
19

> <Collection>
Advanced

> <Reference_compound>
CHEMBL190

> <Similarity>
0.8040

$$$$
F2173-0145
  -ISIS-  06222321142D

 13 14  0  0  0  0  0  0  0  0999 V2000
    5.6917   -4.9667    0.0000 N   0  0  3  0  0  0  0  0  0  0  0  0
    6.4125   -4.5542    0.0000 C   0  0  0  0  0  0  0  0  0  0  0  0
    4.9875   -3.7292    0.0000 N   0  0  3  0  0  0  0  0  0  0  0  0
    4.9792   -4.5417    0.0000 C   0  0  0  0  0  0  0  0  0  0  0  0
    6.4125   -3.7292    0.0000 C   0  0  0  0  0  0  0  0  0  0  0  0
    5.7042   -3.3167    0.0000 C   0  0  0  0  0  0  0  0  0  0  0  0
    7.2000   -4.8167    0.0000 N   0  0  0  0  0  0  0  0  0  0  0  0
    7.2000   -3.4792    0.0000 N   0  0  0  0  0  0  0  0  0  0  0  0
    7.6792   -4.1417    0.0000 C   0  0  0  0  0  0  0  0  0  0  0  0
    4.2625   -4.9542    0.0000 O   0  0  0  0  0  0  0  0  0  0  0  0
    5.7000   -2.4917    0.0000 O   0  0  0  0  0  0  0  0  0  0  0  0
    5.6875   -5.7917    0.0000 C   0  0  0  0  0  0  0  0  0  0  0  0
    4.2750   -3.3167    0.0000 C   0  0  0  0  0  0  0  0  0  0  0  0
  2  1  1  0  0  0  0
  3  4  1  0  0  0  0
  4  1  1  0  0  0  0
  5  2  2  0  0  0  0
  6  3  1  0  0  0  0
  7  2  1  0  0  0  0
  8  5  1  0  0  0  0
  9  7  2  0  0  0  0
 10  4  2  0  0  0  0
 11  6  2  0  0  0  0
 12  1  1  0  0  0  0
 13  3  1  0  0  0  0
  5  6  1  0  0  0  0
  9  8  1  0  0  0  0
M  END
> <IDNUMBER>
F2173-0145

> <Chemical_Name>
1,3-dimethyl-2,3,6,7-tetrahydro-1H-purine-2,6-dione

> <CAS>
58-55-9

> <PriceCoeff>
1.00

> <MW>
180.16

> <Description>
solid

> <FSP3>
0.29

> <clogP>
-0.03

> <TPSA>
69.30

> <Acceptor>
4

> <Donor>
2

> <RotBonds>
0

> <HAC>
13

> <Collection>
General

> <Reference_compound>
CHEMBL113

> <Similarity>
0.8380

$$$$
F6451-1112
  -ISIS-  06222321152D

 22 23  0  0  0  0  0  0  0  0999 V2000
   -5.2833    2.5708    0.0000 N   0  0  3  0  0  0  0  0  0  0  0  0
   -5.3708    1.7458    0.0000 C   0  0  0  0  0  0  0  0  0  0  0  0
   -6.0292    2.9000    0.0000 C   0  0  0  0  0  0  0  0  0  0  0  0
   -4.5833    2.9875    0.0000 C   0  0  0  0  0  0  0  0  0  0  0  0
   -4.5833    3.8000    0.0000 C   0  0  0  0  0  0  0  0  0  0  0  0
   -3.1583    6.2917    0.0000 C   0  0  0  0  0  0  0  0  0  0  0  0
   -3.8625    4.2125    0.0000 N   0  0  0  0  0  0  0  0  0  0  0  0
   -6.1667    1.5708    0.0000 C   0  0  0  0  0  0  0  0  0  0  0  0
   -6.5792    2.2833    0.0000 C   0  0  0  0  0  0  0  0  0  0  0  0
   -4.7500    1.1833    0.0000 O   0  0  0  0  0  0  0  0  0  0  0  0
   -6.2042    3.7083    0.0000 O   0  0  0  0  0  0  0  0  0  0  0  0
   -2.4583    6.7042    0.0000 C   0  0  0  0  0  0  0  0  0  0  0  0
   -5.2958    4.2125    0.0000 O   0  0  0  0  0  0  0  0  0  0  0  0
   -3.8625    5.0292    0.0000 C   0  0  0  0  0  0  0  0  0  0  0  0
   -3.1583    5.4625    0.0000 C   0  0  3  0  0  0  0  0  0  0  0  0
   -2.4708    7.5417    0.0000 C   0  0  0  0  0  0  0  0  0  0  0  0
   -1.7583    7.9667    0.0000 F   0  0  0  0  0  0  0  0  0  0  0  0
   -2.4375    5.0542    0.0000 O   0  0  0  0  0  0  0  0  0  0  0  0
   -3.8833    6.6875    0.0000 C   0  0  0  0  0  0  0  0  0  0  0  0
   -3.8958    7.5042    0.0000 C   0  0  0  0  0  0  0  0  0  0  0  0
   -3.1833    7.9417    0.0000 C   0  0  0  0  0  0  0  0  0  0  0  0
   -1.7208    5.4667    0.0000 C   0  0  0  0  0  0  0  0  0  0  0  0
  2  1  1  0  0  0  0
  3  1  1  0  0  0  0
  4  1  1  0  0  0  0
  5  4  1  0  0  0  0
  6 15  1  0  0  0  0
  7  5  1  0  0  0  0
  8  2  1  0  0  0  0
  9  3  1  0  0  0  0
 10  2  2  0  0  0  0
 11  3  2  0  0  0  0
 12  6  2  0  0  0  0
 13  5  2  0  0  0  0
 14  7  1  0  0  0  0
 15 14  1  0  0  0  0
 16 12  1  0  0  0  0
 17 16  1  0  0  0  0
 18 15  1  0  0  0  0
 19  6  1  0  0  0  0
 20 19  2  0  0  0  0
 21 20  1  0  0  0  0
 22 18  1  0  0  0  0
  9  8  1  0  0  0  0
 16 21  2  0  0  0  0
M  END
> <IDNUMBER>
F6451-1112

> <Chemical_Name>
2-(2,5-dioxopyrrolidin-1-yl)-N-[2-(3-fluorophenyl)-2-methoxyethyl]acetamide

> <CAS>
1797092-44-4

> <PriceCoeff>
1.00

> <MW>
308.30

> <Description>
oil

> <FSP3>
0.40

> <clogP>
0.99

> <TPSA>
75.71

> <Acceptor>
4

> <Donor>
1

> <RotBonds>
6

> <HAC>
22

> <Collection>
General

$$$$
F1468-0011
  -ISIS-  06222321452D

 17 18  0  0  0  0  0  0  0  0999 V2000
   -0.4500    0.3250    0.0000 C   0  0  0  0  0  0  0  0  0  0  0  0
   -0.4500    1.1250    0.0000 C   0  0  0  0  0  0  0  0  0  0  0  0
   -1.1583   -0.0792    0.0000 N   0  0  3  0  0  0  0  0  0  0  0  0
   -1.8458    1.1250    0.0000 N   0  0  3  0  0  0  0  0  0  0  0  0
   -1.8458    0.3125    0.0000 C   0  0  0  0  0  0  0  0  0  0  0  0
   -1.1583    1.5333    0.0000 C   0  0  0  0  0  0  0  0  0  0  0  0
    0.2292   -0.0875    0.0000 N   0  0  0  0  0  0  0  0  0  0  0  0
    0.9375    1.1208    0.0000 N   0  0  0  0  0  0  0  0  0  0  0  0
    0.9250    0.3083    0.0000 C   0  0  0  0  0  0  0  0  0  0  0  0
   -2.5458   -0.0875    0.0000 O   0  0  0  0  0  0  0  0  0  0  0  0
   -1.1583    2.3375    0.0000 O   0  0  0  0  0  0  0  0  0  0  0  0
    1.4792   -0.2542    0.0000 C   0  0  0  0  0  0  0  0  0  0  0  0
   -1.1583   -0.8875    0.0000 C   0  0  0  0  0  0  0  0  0  0  0  0
   -2.5833    1.5458    0.0000 C   0  0  0  0  0  0  0  0  0  0  0  0
    2.2542   -0.2542    0.0000 N   0  0  3  0  0  0  0  0  0  0  0  0
    2.6500   -0.9292    0.0000 C   0  0  0  0  0  0  0  0  0  0  0  0
    2.6417    0.4250    0.0000 C   0  0  0  0  0  0  0  0  0  0  0  0
  2  1  2  0  0  0  0
  3  1  1  0  0  0  0
  4  5  1  0  0  0  0
  5  3  1  0  0  0  0
  6  2  1  0  0  0  0
  7  1  1  0  0  0  0
  8  2  1  0  0  0  0
  9  7  2  0  0  0  0
 10  5  2  0  0  0  0
 11  6  2  0  0  0  0
 12  9  1  0  0  0  0
 13  3  1  0  0  0  0
 14  4  1  0  0  0  0
 15 12  1  0  0  0  0
 16 15  1  0  0  0  0
 17 15  1  0  0  0  0
  9  8  1  0  0  0  0
  6  4  1  0  0  0  0
M  END
> <IDNUMBER>
F1468-0011

> <Chemical_Name>
8-[(dimethylamino)methyl]-1,3-dimethyl-2,3,6,7-tetrahydro-1H-purine-2,6-dione

> <CAS>
117099-45-3

> <PriceCoeff>
1.50

> <MW>
237.26

> <Description>
solid

> <FSP3>
0.50

> <clogP>
-0.20

> <TPSA>
72.54

> <Acceptor>
4

> <Donor>
3

> <RotBonds>
2

> <HAC>
17

> <Collection>
Advanced

> <Reference_compound>
CHEMBL190

> <Similarity>
0.8810

$$$$
F6359-5407
  -ISIS-  06222321462D

 24 26  0  0  0  0  0  0  0  0999 V2000
   -5.2833    2.5708    0.0000 N   0  0  3  0  0  0  0  0  0  0  0  0
   -4.5833    3.8000    0.0000 C   0  0  0  0  0  0  0  0  0  0  0  0
   -4.5792    2.9875    0.0000 C   0  0  0  0  0  0  0  0  0  0  0  0
   -5.3708    1.7458    0.0000 C   0  0  0  0  0  0  0  0  0  0  0  0
   -6.0292    2.9000    0.0000 C   0  0  0  0  0  0  0  0  0  0  0  0
   -3.8625    4.2125    0.0000 N   0  0  3  0  0  0  0  0  0  0  0  0
   -0.2875    5.4792    0.0000 N   0  0  0  0  0  0  0  0  0  0  0  0
   -1.0000    5.0458    0.0000 C   0  0  0  0  0  0  0  0  0  0  0  0
   -3.8625    5.0417    0.0000 C   0  0  0  0  0  0  0  0  0  0  0  0
   -3.1458    3.8083    0.0000 C   0  0  0  0  0  0  0  0  0  0  0  0
   -5.2958    4.2125    0.0000 O   0  0  0  0  0  0  0  0  0  0  0  0
   -6.5792    2.2833    0.0000 C   0  0  0  0  0  0  0  0  0  0  0  0
   -6.1667    1.5708    0.0000 C   0  0  0  0  0  0  0  0  0  0  0  0
   -6.2042    3.7083    0.0000 O   0  0  0  0  0  0  0  0  0  0  0  0
   -4.7500    1.1833    0.0000 O   0  0  0  0  0  0  0  0  0  0  0  0
   -1.7250    5.4667    0.0000 O   0  0  0  0  0  0  0  0  0  0  0  0
   -3.1583    5.4542    0.0000 C   0  0  0  0  0  0  0  0  0  0  0  0
   -2.4333    4.2167    0.0000 C   0  0  0  0  0  0  0  0  0  0  0  0
   -2.4458    5.0333    0.0000 C   0  0  3  0  0  0  0  0  0  0  0  0
    0.4292    5.0625    0.0000 C   0  0  0  0  0  0  0  0  0  0  0  0
   -0.9958    4.2292    0.0000 C   0  0  0  0  0  0  0  0  0  0  0  0
   -0.2750    3.8292    0.0000 C   0  0  0  0  0  0  0  0  0  0  0  0
    0.4375    4.2417    0.0000 C   0  0  0  0  0  0  0  0  0  0  0  0
    1.1500    5.4792    0.0000 C   0  0  0  0  0  0  0  0  0  0  0  0
  2  3  1  0  0  0  0
  3  1  1  0  0  0  0
  4  1  1  0  0  0  0
  5  1  1  0  0  0  0
  6  2  1  0  0  0  0
  7  8  2  0  0  0  0
  8 16  1  0  0  0  0
  9  6  1  0  0  0  0
 10  6  1  0  0  0  0
 11  2  2  0  0  0  0
 12  5  1  0  0  0  0
 13  4  1  0  0  0  0
 14  5  2  0  0  0  0
 15  4  2  0  0  0  0
 16 19  1  0  0  0  0
 17  9  1  0  0  0  0
 18 10  1  0  0  0  0
 19 18  1  0  0  0  0
 20  7  1  0  0  0  0
 21  8  1  0  0  0  0
 22 21  2  0  0  0  0
 23 22  1  0  0  0  0
 24 20  1  0  0  0  0
 12 13  1  0  0  0  0
 17 19  1  0  0  0  0
 20 23  2  0  0  0  0
M  END
> <IDNUMBER>
F6359-5407

> <Chemical_Name>
1-(2-{4-[(6-methylpyridin-2-yl)oxy]piperidin-1-yl}-2-oxoethyl)pyrrolidine-2,5-dione

> <CAS>
1797952-45-4

> <PriceCoeff>
1.50

> <MW>
331.37

> <Description>
solid

> <FSP3>
0.53

> <clogP>
0.74

> <TPSA>
79.81

> <Acceptor>
5

> <Donor>
1

> <RotBonds>
5

> <HAC>
24

> <Collection>
Advanced

$$$$
F0887-0017
  -ISIS-  06222321442D

 17 18  0  0  0  0  0  0  0  0999 V2000
    2.1667   -1.2792    0.0000 C   0  0  0  0  0  0  0  0  0  0  0  0
    2.1667   -0.6375    0.0000 C   0  0  0  0  0  0  0  0  0  0  0  0
    2.7292   -1.6167    0.0000 N   0  0  0  0  0  0  0  0  0  0  0  0
    1.5792   -1.6042    0.0000 N   0  0  3  0  0  0  0  0  0  0  0  0
    1.0167   -0.6375    0.0000 N   0  0  3  0  0  0  0  0  0  0  0  0
    1.0167   -1.2917    0.0000 C   0  0  0  0  0  0  0  0  0  0  0  0
    1.5792   -0.3125    0.0000 C   0  0  0  0  0  0  0  0  0  0  0  0
    3.3000   -1.3042    0.0000 C   0  0  0  0  0  0  0  0  0  0  0  0
    3.3125   -0.6375    0.0000 N   0  0  3  0  0  0  0  0  0  0  0  0
    0.4417   -1.6167    0.0000 O   0  0  0  0  0  0  0  0  0  0  0  0
    1.5792    0.3583    0.0000 O   0  0  0  0  0  0  0  0  0  0  0  0
    3.8917   -1.6417    0.0000 N   0  0  0  0  0  0  0  0  0  0  0  0
    1.5792   -2.2625    0.0000 C   0  0  0  0  0  0  0  0  0  0  0  0
    0.4625   -0.3167    0.0000 C   0  0  0  0  0  0  0  0  0  0  0  0
    3.7167    0.0750    0.0000 C   0  0  0  0  0  0  0  0  0  0  0  0
    3.8917   -2.3167    0.0000 C   0  0  0  0  0  0  0  0  0  0  0  0
    4.5417    0.0750    0.0000 C   0  0  0  0  0  0  0  0  0  0  0  0
  2  1  2  0  0  0  0
  3  1  1  0  0  0  0
  4  1  1  0  0  0  0
  5  6  1  0  0  0  0
  6  4  1  0  0  0  0
  7  2  1  0  0  0  0
  8  3  2  0  0  0  0
  9  2  1  0  0  0  0
 10  6  2  0  0  0  0
 11  7  2  0  0  0  0
 12  8  1  0  0  0  0
 13  4  1  0  0  0  0
 14  5  1  0  0  0  0
 15  9  1  0  0  0  0
 16 12  1  0  0  0  0
 17 15  1  0  0  0  0
  9  8  1  0  0  0  0
  5  7  1  0  0  0  0
M  END
> <IDNUMBER>
F0887-0017

> <Chemical_Name>
7-ethyl-1,3-dimethyl-8-(methylamino)-2,3,6,7-tetrahydro-1H-purine-2,6-dione

> <CAS>
333752-03-7

> <PriceCoeff>
1.50

> <MW>
237.26

> <Description>
solid

> <FSP3>
0.50

> <clogP>
1.04

> <TPSA>
70.47

> <Acceptor>
3

> <Donor>
2

> <RotBonds>
2

> <HAC>
17

> <Collection>
Advanced

> <Reference_compound>
CHEMBL113

> <Similarity>
0.8430

$$$$
F6473-3845
  -ISIS-  06222321462D

 22 24  0  0  0  0  0  0  0  0999 V2000
   -1.3083    5.1042    0.0000 N   0  0  3  0  0  0  0  0  0  0  0  0
   -3.0333    4.1042    0.0000 N   0  0  3  0  0  0  0  0  0  0  0  0
   -3.7458    3.6958    0.0000 C   0  0  0  0  0  0  0  0  0  0  0  0
   -2.0333    4.6875    0.0000 C   0  0  3  0  0  0  0  0  0  0  0  0
   -1.2250    5.9167    0.0000 C   0  0  0  0  0  0  0  0  0  0  0  0
   -0.5583    4.7667    0.0000 C   0  0  0  0  0  0  0  0  0  0  0  0
   -2.2458    3.8958    0.0000 C   0  0  0  0  0  0  0  0  0  0  0  0
   -2.8208    4.9000    0.0000 C   0  0  0  0  0  0  0  0  0  0  0  0
   -4.4583    4.1042    0.0000 N   0  0  0  0  0  0  0  0  0  0  0  0
   -6.5917    3.7083    0.0000 C   0  0  0  0  0  0  0  0  0  0  0  0
   -5.8917    4.1083    0.0000 C   0  0  0  0  0  0  0  0  0  0  0  0
   -5.1708    3.7042    0.0000 C   0  0  0  0  0  0  0  0  0  0  0  0
   -3.7458    2.8833    0.0000 O   0  0  0  0  0  0  0  0  0  0  0  0
   -6.5917    2.8833    0.0000 C   0  0  0  0  0  0  0  0  0  0  0  0
   -0.0083    5.3792    0.0000 C   0  0  0  0  0  0  0  0  0  0  0  0
   -0.4208    6.0917    0.0000 C   0  0  0  0  0  0  0  0  0  0  0  0
   -0.3875    3.9625    0.0000 O   0  0  0  0  0  0  0  0  0  0  0  0
   -1.8417    6.4708    0.0000 O   0  0  0  0  0  0  0  0  0  0  0  0
   -5.8958    2.4625    0.0000 C   0  0  0  0  0  0  0  0  0  0  0  0
   -7.3042    4.1167    0.0000 Cl  0  0  0  0  0  0  0  0  0  0  0  0
   -5.1708    2.8750    0.0000 C   0  0  0  0  0  0  0  0  0  0  0  0
   -7.3167    2.4708    0.0000 Cl  0  0  0  0  0  0  0  0  0  0  0  0
  2  8  1  0  0  0  0
  3  2  1  0  0  0  0
  4  1  1  0  0  0  0
  5  1  1  0  0  0  0
  6  1  1  0  0  0  0
  7  4  1  0  0  0  0
  8  4  1  0  0  0  0
  9  3  1  0  0  0  0
 10 11  1  0  0  0  0
 11 12  2  0  0  0  0
 12  9  1  0  0  0  0
 13  3  2  0  0  0  0
 14 19  1  0  0  0  0
 15  6  1  0  0  0  0
 16  5  1  0  0  0  0
 17  6  2  0  0  0  0
 18  5  2  0  0  0  0
 19 21  2  0  0  0  0
 20 10  1  0  0  0  0
 21 12  1  0  0  0  0
 22 14  1  0  0  0  0
 16 15  1  0  0  0  0
  7  2  1  0  0  0  0
 10 14  2  0  0  0  0
M  END
> <IDNUMBER>
F6473-3845

> <Chemical_Name>
N-(3,4-dichlorophenyl)-3-(2,5-dioxopyrrolidin-1-yl)azetidine-1-carboxamide

> <CAS>
1795303-77-3

> <PriceCoeff>
1.50

> <MW>
342.18

> <Description>
solid

> <FSP3>
0.36

> <clogP>
2.00

> <TPSA>
69.72

> <Acceptor>
3

> <Donor>
1

> <RotBonds>
3

> <HAC>
22

> <Collection>
Advanced

$$$$
F6617-2177
  -ISIS-  06222321162D

 14 15  0  0  0  0  0  0  0  0999 V2000
   11.7417   -7.0250    0.0000 N   0  0  0  0  0  0  0  0  0  0  0  0
   11.0292   -7.4542    0.0000 N   0  0  3  0  0  0  0  0  0  0  0  0
   12.3542   -7.5792    0.0000 N   0  0  0  0  0  0  0  0  0  0  0  0
   12.0250   -8.3167    0.0000 C   0  0  0  0  0  0  0  0  0  0  0  0
   11.2167   -8.2542    0.0000 C   0  0  0  0  0  0  0  0  0  0  0  0
   10.2625   -7.1625    0.0000 C   0  0  0  0  0  0  0  0  0  0  0  0
   12.4375   -9.0500    0.0000 C   0  0  3  0  0  0  0  0  0  0  0  0
   10.1167   -6.3417    0.0000 C   0  0  0  0  0  0  0  0  0  0  0  0
    9.6167   -7.6792    0.0000 C   0  0  0  0  0  0  0  0  0  0  0  0
   12.0250   -9.7667    0.0000 C   0  0  0  0  0  0  0  0  0  0  0  0
   13.2667   -9.0500    0.0000 C   0  0  0  0  0  0  0  0  0  0  0  0
    9.3417   -6.0542    0.0000 C   0  0  0  0  0  0  0  0  0  0  0  0
    8.8542   -7.3875    0.0000 C   0  0  0  0  0  0  0  0  0  0  0  0
    8.7125   -6.5792    0.0000 C   0  0  0  0  0  0  0  0  0  0  0  0
  2  1  1  0  0  0  0
  3  1  2  0  0  0  0
  4  3  1  0  0  0  0
  5  2  1  0  0  0  0
  6  2  1  0  0  0  0
  7  4  1  0  0  0  0
  8  6  2  0  0  0  0
  9  6  1  0  0  0  0
 10  7  1  0  0  0  0
 11  7  1  0  0  0  0
 12  8  1  0  0  0  0
 13  9  2  0  0  0  0
 14 13  1  0  0  0  0
  4  5  2  0  0  0  0
 12 14  2  0  0  0  0
M  END
> <IDNUMBER>
F6617-2177

> <Chemical_Name>
1-phenyl-4-(propan-2-yl)-1H-1,2,3-triazole

> <CAS>
859791-75-6

> <PriceCoeff>
1.00

> <MW>
187.24

> <Description>
oil

> <FSP3>
0.27

> <clogP>
2.89

> <TPSA>
30.71

> <Acceptor>
2

> <Donor>
0

> <RotBonds>
2

> <HAC>
14

> <Collection>
General

> <Reference_compound>
CHEMBL237695

> <Similarity>
0.8050

$$$$
F3176-0003
  -ISIS-  06222321462D

 18 20  0  0  0  0  0  0  0  0999 V2000
    3.6375    2.1083    0.0000 C   0  0  0  0  0  0  0  0  0  0  0  0
    3.6375    3.5083    0.0000 C   0  0  0  0  0  0  0  0  0  0  0  0
    4.9667    1.6708    0.0000 N   0  0  0  0  0  0  0  0  0  0  0  0
    2.4167    1.4000    0.0000 N   0  0  3  0  0  0  0  0  0  0  0  0
    1.2125    3.5083    0.0000 N   0  0  3  0  0  0  0  0  0  0  0  0
    1.2125    2.1083    0.0000 C   0  0  0  0  0  0  0  0  0  0  0  0
    5.7917    2.8083    0.0000 C   0  0  0  0  0  0  0  0  0  0  0  0
    2.4167    4.2000    0.0000 C   0  0  0  0  0  0  0  0  0  0  0  0
    4.9667    3.9375    0.0000 N   0  0  0  0  0  0  0  0  0  0  0  0
    7.1917    2.8083    0.0000 N   0  0  3  0  0  0  0  0  0  0  0  0
    0.0000    1.4083    0.0000 O   0  0  0  0  0  0  0  0  0  0  0  0
    2.4167    5.5917    0.0000 O   0  0  0  0  0  0  0  0  0  0  0  0
    2.4167   -0.0000    0.0000 C   0  0  0  0  0  0  0  0  0  0  0  0
    0.0000    4.2000    0.0000 C   0  0  0  0  0  0  0  0  0  0  0  0
    8.0125    1.6708    0.0000 C   0  0  0  0  0  0  0  0  0  0  0  0
    8.0125    3.9375    0.0000 C   0  0  0  0  0  0  0  0  0  0  0  0
    9.3417    3.5083    0.0000 C   0  0  0  0  0  0  0  0  0  0  0  0
    9.3417    2.1083    0.0000 C   0  0  0  0  0  0  0  0  0  0  0  0
  2  1  2  0  0  0  0
  3  1  1  0  0  0  0
  4  1  1  0  0  0  0
  5  6  1  0  0  0  0
  6  4  1  0  0  0  0
  7  3  2  0  0  0  0
  8  2  1  0  0  0  0
  9  2  1  0  0  0  0
 10  7  1  0  0  0  0
 11  6  2  0  0  0  0
 12  8  2  0  0  0  0
 13  4  1  0  0  0  0
 14  5  1  0  0  0  0
 15 10  1  0  0  0  0
 16 10  1  0  0  0  0
 17 16  1  0  0  0  0
 18 15  1  0  0  0  0
  9  7  1  0  0  0  0
  5  8  1  0  0  0  0
 17 18  1  0  0  0  0
M  END
> <IDNUMBER>
F3176-0003

> <Chemical_Name>
1,3-dimethyl-8-(pyrrolidin-1-yl)-2,3,6,7-tetrahydro-1H-purine-2,6-dione

> <CAS>
30958-51-1

> <PriceCoeff>
1.50

> <MW>
249.27

> <Description>
solid

> <FSP3>
0.55

> <clogP>
0.80

> <TPSA>
72.54

> <Acceptor>
4

> <Donor>
3

> <RotBonds>
1

> <HAC>
18

> <Collection>
Advanced

> <Reference_compound>
CHEMBL190

> <Similarity>
0.8110

$$$$
F3176-0123
  -ISIS-  06222321462D

 18 19  0  0  0  0  0  0  0  0999 V2000
    3.6375    2.1083    0.0000 C   0  0  0  0  0  0  0  0  0  0  0  0
    3.6375    3.5083    0.0000 C   0  0  0  0  0  0  0  0  0  0  0  0
    2.4167    1.4000    0.0000 N   0  0  3  0  0  0  0  0  0  0  0  0
    1.2125    3.5083    0.0000 N   0  0  3  0  0  0  0  0  0  0  0  0
    1.2125    2.1083    0.0000 C   0  0  0  0  0  0  0  0  0  0  0  0
    2.4167    4.2000    0.0000 C   0  0  0  0  0  0  0  0  0  0  0  0
    4.9667    1.6708    0.0000 N   0  0  0  0  0  0  0  0  0  0  0  0
    5.7917    2.8083    0.0000 C   0  0  0  0  0  0  0  0  0  0  0  0
    4.9667    3.9375    0.0000 N   0  0  0  0  0  0  0  0  0  0  0  0
    0.0000    1.4083    0.0000 O   0  0  0  0  0  0  0  0  0  0  0  0
    2.4167    5.5917    0.0000 O   0  0  0  0  0  0  0  0  0  0  0  0
    7.1917    2.8083    0.0000 N   0  0  0  0  0  0  0  0  0  0  0  0
    2.4167   -0.0000    0.0000 C   0  0  0  0  0  0  0  0  0  0  0  0
    0.0000    4.2000    0.0000 C   0  0  0  0  0  0  0  0  0  0  0  0
    8.5542    1.7958    0.0000 C   0  0  0  0  0  0  0  0  0  0  0  0
    9.8417    2.3333    0.0000 C   0  0  3  0  0  0  0  0  0  0  0  0
   10.9542    1.4833    0.0000 C   0  0  0  0  0  0  0  0  0  0  0  0
   10.0167    3.7208    0.0000 C   0  0  0  0  0  0  0  0  0  0  0  0
  2  1  2  0  0  0  0
  3  1  1  0  0  0  0
  4  5  1  0  0  0  0
  5  3  1  0  0  0  0
  6  2  1  0  0  0  0
  7  1  1  0  0  0  0
  8  7  2  0  0  0  0
  9  2  1  0  0  0  0
 10  5  2  0  0  0  0
 11  6  2  0  0  0  0
 12  8  1  0  0  0  0
 13  3  1  0  0  0  0
 14  4  1  0  0  0  0
 15 12  1  0  0  0  0
 16 15  1  0  0  0  0
 17 16  1  0  0  0  0
 18 16  1  0  0  0  0
  9  8  1  0  0  0  0
  4  6  1  0  0  0  0
M  END
> <IDNUMBER>
F3176-0123

> <Chemical_Name>
1,3-dimethyl-8-[(2-methylpropyl)amino]-2,3,6,7-tetrahydro-1H-purine-2,6-dione

> <CAS>
32086-99-0

> <PriceCoeff>
1.50

> <MW>
251.28

> <Description>
solid

> <FSP3>
0.55

> <clogP>
1.98

> <TPSA>
81.33

> <Acceptor>
4

> <Donor>
3

> <RotBonds>
3

> <HAC>
18

> <Collection>
Advanced

> <Reference_compound>
CHEMBL190

> <Similarity>
0.8350

$$$$
F1913-1244
  -ISIS-  06222321452D

 13 14  0  0  0  0  0  0  0  0999 V2000
    6.8292   -0.8625    0.0000 N   0  0  0  0  0  0  0  0  0  0  0  0
    6.0792   -0.3542    0.0000 C   0  0  0  0  0  0  0  0  0  0  0  0
    6.3375    0.5000    0.0000 C   0  0  0  0  0  0  0  0  0  0  0  0
    7.5500   -0.3042    0.0000 C   0  0  0  0  0  0  0  0  0  0  0  0
    7.2375    0.5250    0.0000 C   0  0  0  0  0  0  0  0  0  0  0  0
    5.2125   -0.5750    0.0000 C   0  0  0  0  0  0  0  0  0  0  0  0
    9.1500    1.9708    0.0000 N   0  0  0  0  0  0  0  0  0  0  0  0
    5.7125    1.1500    0.0000 C   0  0  0  0  0  0  0  0  0  0  0  0
    7.7417    1.2833    0.0000 C   0  0  0  0  0  0  0  0  0  0  0  0
    4.8292    0.9458    0.0000 C   0  0  0  0  0  0  0  0  0  0  0  0
    4.5792    0.0625    0.0000 C   0  0  0  0  0  0  0  0  0  0  0  0
    4.9542   -1.4417    0.0000 C   0  0  0  0  0  0  0  0  0  0  0  0
    8.6417    1.2208    0.0000 C   0  0  0  0  0  0  0  0  0  0  0  0
  2  1  1  0  0  0  0
  3  2  2  0  0  0  0
  4  1  1  0  0  0  0
  5  4  2  0  0  0  0
  6  2  1  0  0  0  0
  7 13  1  0  0  0  0
  8  3  1  0  0  0  0
  9  5  1  0  0  0  0
 10 11  1  0  0  0  0
 11  6  2  0  0  0  0
 12  6  1  0  0  0  0
 13  9  1  0  0  0  0
  5  3  1  0  0  0  0
 10  8  2  0  0  0  0
M  END
> <IDNUMBER>
F1913-1244

> <Chemical_Name>
2-(7-methyl-1H-indol-3-yl)ethan-1-amine

> <CAS>
14490-05-2

> <PriceCoeff>
1.00

> <MW>
174.25

> <Description>
solid

> <FSP3>
0.27

> <clogP>
1.92

> <TPSA>
41.81

> <Acceptor>
0

> <Donor>
2

> <RotBonds>
2

> <HAC>
13

> <Collection>
General

> <Reference_compound>
CHEMBL6640

> <Similarity>
0.9290

$$$$
F3176-0009
  -ISIS-  06222321462D

 16 17  0  0  0  0  0  0  0  0999 V2000
    3.6375    2.1083    0.0000 C   0  0  0  0  0  0  0  0  0  0  0  0
    3.6375    3.5083    0.0000 C   0  0  0  0  0  0  0  0  0  0  0  0
    2.4167    1.4000    0.0000 N   0  0  3  0  0  0  0  0  0  0  0  0
    1.2125    3.5083    0.0000 N   0  0  3  0  0  0  0  0  0  0  0  0
    1.2125    2.1083    0.0000 C   0  0  0  0  0  0  0  0  0  0  0  0
    2.4167    4.2000    0.0000 C   0  0  0  0  0  0  0  0  0  0  0  0
    4.9667    1.6708    0.0000 N   0  0  0  0  0  0  0  0  0  0  0  0
    4.9667    3.9375    0.0000 N   0  0  0  0  0  0  0  0  0  0  0  0
    5.7917    2.8083    0.0000 C   0  0  0  0  0  0  0  0  0  0  0  0
    0.0000    1.4083    0.0000 O   0  0  0  0  0  0  0  0  0  0  0  0
    2.4167    5.5917    0.0000 O   0  0  0  0  0  0  0  0  0  0  0  0
    7.1917    2.8083    0.0000 N   0  0  0  0  0  0  0  0  0  0  0  0
    2.4167   -0.0000    0.0000 C   0  0  0  0  0  0  0  0  0  0  0  0
    0.0000    4.2000    0.0000 C   0  0  0  0  0  0  0  0  0  0  0  0
    7.8917    4.0125    0.0000 C   0  0  0  0  0  0  0  0  0  0  0  0
    9.2917    4.0125    0.0000 C   0  0  0  0  0  0  0  0  0  0  0  0
  2  1  2  0  0  0  0
  3  1  1  0  0  0  0
  4  5  1  0  0  0  0
  5  3  1  0  0  0  0
  6  2  1  0  0  0  0
  7  1  1  0  0  0  0
  8  2  1  0  0  0  0
  9  7  2  0  0  0  0
 10  5  2  0  0  0  0
 11  6  2  0  0  0  0
 12  9  1  0  0  0  0
 13  3  1  0  0  0  0
 14  4  1  0  0  0  0
 15 12  1  0  0  0  0
 16 15  1  0  0  0  0
  8  9  1  0  0  0  0
  4  6  1  0  0  0  0
M  END
> <IDNUMBER>
F3176-0009

> <Chemical_Name>
8-(ethylamino)-1,3-dimethyl-2,3,6,7-tetrahydro-1H-purine-2,6-dione

> <CAS>
5426-46-0

> <PriceCoeff>
1.50

> <MW>
223.23

> <Description>
solid

> <FSP3>
0.44

> <clogP>
1.06

> <TPSA>
81.33

> <Acceptor>
4

> <Donor>
3

> <RotBonds>
2

> <HAC>
16

> <Collection>
Advanced

> <Reference_compound>
CHEMBL190

> <Similarity>
0.8690

$$$$
F6473-3893
  -ISIS-  06222321462D

 20 22  0  0  0  0  0  0  0  0999 V2000
   -3.7458    3.6958    0.0000 S   0  0  3  0  0  0  0  0  0  0  0  0
   -3.0333    4.1042    0.0000 N   0  0  3  0  0  0  0  0  0  0  0  0
   -1.3083    5.1042    0.0000 N   0  0  3  0  0  0  0  0  0  0  0  0
   -2.0333    4.6875    0.0000 C   0  0  3  0  0  0  0  0  0  0  0  0
   -2.2458    3.8958    0.0000 C   0  0  0  0  0  0  0  0  0  0  0  0
   -2.8208    4.9000    0.0000 C   0  0  0  0  0  0  0  0  0  0  0  0
   -1.2250    5.9167    0.0000 C   0  0  0  0  0  0  0  0  0  0  0  0
   -0.5583    4.7667    0.0000 C   0  0  0  0  0  0  0  0  0  0  0  0
   -3.3333    2.9958    0.0000 O   0  0  0  0  0  0  0  0  0  0  0  0
   -4.1708    4.4042    0.0000 O   0  0  0  0  0  0  0  0  0  0  0  0
   -4.4583    3.2833    0.0000 C   0  0  3  0  0  0  0  0  0  0  0  0
   -0.4208    6.0917    0.0000 C   0  0  0  0  0  0  0  0  0  0  0  0
   -0.0083    5.3792    0.0000 C   0  0  0  0  0  0  0  0  0  0  0  0
   -1.8417    6.4708    0.0000 O   0  0  0  0  0  0  0  0  0  0  0  0
   -0.3875    3.9625    0.0000 O   0  0  0  0  0  0  0  0  0  0  0  0
   -5.1750    3.6958    0.0000 C   0  0  0  0  0  0  0  0  0  0  0  0
   -4.4542    2.4625    0.0000 C   0  0  0  0  0  0  0  0  0  0  0  0
   -5.1708    2.0458    0.0000 C   0  0  0  0  0  0  0  0  0  0  0  0
   -5.8833    3.2833    0.0000 C   0  0  0  0  0  0  0  0  0  0  0  0
   -5.8833    2.4583    0.0000 C   0  0  0  0  0  0  0  0  0  0  0  0
  2  1  1  0  0  0  0
  3  4  1  0  0  0  0
  4  6  1  0  0  0  0
  5  2  1  0  0  0  0
  6  2  1  0  0  0  0
  7  3  1  0  0  0  0
  8  3  1  0  0  0  0
  9  1  2  0  0  0  0
 10  1  2  0  0  0  0
 11  1  1  0  0  0  0
 12  7  1  0  0  0  0
 13  8  1  0  0  0  0
 14  7  2  0  0  0  0
 15  8  2  0  0  0  0
 16 11  1  0  0  0  0
 17 11  1  0  0  0  0
 18 17  1  0  0  0  0
 19 16  1  0  0  0  0
 20 18  1  0  0  0  0
  4  5  1  0  0  0  0
 19 20  1  0  0  0  0
 12 13  1  0  0  0  0
M  END
> <IDNUMBER>
F6473-3893

> <Chemical_Name>
1-[1-(cyclohexanesulfonyl)azetidin-3-yl]pyrrolidine-2,5-dione

> <CAS>
1787879-64-4

> <PriceCoeff>
1.00

> <MW>
300.37

> <Description>
solid

> <FSP3>
0.85

> <clogP>
1.12

> <TPSA>
83.14

> <Acceptor>
4

> <Donor>
0

> <RotBonds>
3

> <HAC>
20

> <Collection>
General

$$$$
F6442-0044
  -ISIS-  06222321442D

 24 26  0  0  0  0  0  0  0  0999 V2000
   -1.4458    5.2042    0.0000 S   0  0  3  0  0  0  0  0  0  0  0  0
   -4.5833    2.5708    0.0000 N   0  0  3  0  0  0  0  0  0  0  0  0
   -2.1583    4.7917    0.0000 C   0  0  3  0  0  0  0  0  0  0  0  0
   -3.1583    4.2042    0.0000 N   0  0  3  0  0  0  0  0  0  0  0  0
   -3.8708    3.8000    0.0000 C   0  0  0  0  0  0  0  0  0  0  0  0
   -3.8708    2.9833    0.0000 C   0  0  0  0  0  0  0  0  0  0  0  0
   -4.6708    1.7458    0.0000 C   0  0  0  0  0  0  0  0  0  0  0  0
   -5.3208    2.9000    0.0000 C   0  0  0  0  0  0  0  0  0  0  0  0
   -2.3708    4.0000    0.0000 C   0  0  0  0  0  0  0  0  0  0  0  0
   -2.9458    5.0000    0.0000 C   0  0  0  0  0  0  0  0  0  0  0  0
   -0.7333    5.6167    0.0000 C   0  0  0  0  0  0  0  0  0  0  0  0
   -1.8583    5.9167    0.0000 O   0  0  0  0  0  0  0  0  0  0  0  0
   -1.0333    4.4833    0.0000 O   0  0  0  0  0  0  0  0  0  0  0  0
   -4.5833    4.2042    0.0000 O   0  0  0  0  0  0  0  0  0  0  0  0
   -5.4583    1.5833    0.0000 C   0  0  0  0  0  0  0  0  0  0  0  0
   -5.8708    2.2958    0.0000 C   0  0  0  0  0  0  0  0  0  0  0  0
   -4.0458    1.1833    0.0000 O   0  0  0  0  0  0  0  0  0  0  0  0
   -5.4875    3.7083    0.0000 O   0  0  0  0  0  0  0  0  0  0  0  0
   -0.0208    5.2042    0.0000 C   0  0  0  0  0  0  0  0  0  0  0  0
   -0.7375    6.4417    0.0000 C   0  0  0  0  0  0  0  0  0  0  0  0
    0.7000    6.4500    0.0000 C   0  0  0  0  0  0  0  0  0  0  0  0
   -0.0250    6.8542    0.0000 C   0  0  0  0  0  0  0  0  0  0  0  0
    0.7000    5.6167    0.0000 C   0  0  0  0  0  0  0  0  0  0  0  0
    1.4042    6.8625    0.0000 F   0  0  0  0  0  0  0  0  0  0  0  0
  2  6  1  0  0  0  0
  3  1  1  0  0  0  0
  4 10  1  0  0  0  0
  5  4  1  0  0  0  0
  6  5  1  0  0  0  0
  7  2  1  0  0  0  0
  8  2  1  0  0  0  0
  9  3  1  0  0  0  0
 10  3  1  0  0  0  0
 11  1  1  0  0  0  0
 12  1  2  0  0  0  0
 13  1  2  0  0  0  0
 14  5  2  0  0  0  0
 15  7  1  0  0  0  0
 16  8  1  0  0  0  0
 17  7  2  0  0  0  0
 18  8  2  0  0  0  0
 19 11  2  0  0  0  0
 20 11  1  0  0  0  0
 21 22  1  0  0  0  0
 22 20  2  0  0  0  0
 23 19  1  0  0  0  0
 24 21  1  0  0  0  0
  4  9  1  0  0  0  0
 21 23  2  0  0  0  0
 15 16  1  0  0  0  0
M  END
> <IDNUMBER>
F6442-0044

> <Chemical_Name>
1-{2-[3-(4-fluorobenzenesulfonyl)azetidin-1-yl]-2-oxoethyl}pyrrolidine-2,5-dione

> <CAS>
1797630-45-5

> <PriceCoeff>
1.50

> <MW>
354.35

> <Description>
solid

> <FSP3>
0.40

> <clogP>
1.08

> <TPSA>
100.21

> <Acceptor>
5

> <Donor>
0

> <RotBonds>
5

> <HAC>
24

> <Collection>
Advanced

$$$$
F6473-3555
  -ISIS-  06222321442D

 22 24  0  0  0  0  0  0  0  0999 V2000
   -1.3083    5.1042    0.0000 N   0  0  3  0  0  0  0  0  0  0  0  0
   -3.0333    4.1042    0.0000 N   0  0  3  0  0  0  0  0  0  0  0  0
   -2.0333    4.6875    0.0000 C   0  0  3  0  0  0  0  0  0  0  0  0
   -0.5583    4.7667    0.0000 C   0  0  0  0  0  0  0  0  0  0  0  0
   -1.2250    5.9167    0.0000 C   0  0  0  0  0  0  0  0  0  0  0  0
   -3.7458    3.6958    0.0000 C   0  0  0  0  0  0  0  0  0  0  0  0
   -2.2458    3.8958    0.0000 C   0  0  0  0  0  0  0  0  0  0  0  0
   -2.8208    4.9000    0.0000 C   0  0  0  0  0  0  0  0  0  0  0  0
   -4.4583    2.4625    0.0000 O   0  0  0  0  0  0  0  0  0  0  0  0
   -3.7500    2.8750    0.0000 C   0  0  0  0  0  0  0  0  0  0  0  0
   -0.0083    5.3792    0.0000 C   0  0  0  0  0  0  0  0  0  0  0  0
   -0.4208    6.0917    0.0000 C   0  0  0  0  0  0  0  0  0  0  0  0
   -0.3875    3.9625    0.0000 O   0  0  0  0  0  0  0  0  0  0  0  0
   -1.8417    6.4708    0.0000 O   0  0  0  0  0  0  0  0  0  0  0  0
   -4.4583    4.0958    0.0000 O   0  0  0  0  0  0  0  0  0  0  0  0
   -4.4833    1.6458    0.0000 C   0  0  0  0  0  0  0  0  0  0  0  0
   -5.1708    1.2250    0.0000 C   0  0  0  0  0  0  0  0  0  0  0  0
   -3.7625    1.2250    0.0000 C   0  0  0  0  0  0  0  0  0  0  0  0
   -5.8958    1.6583    0.0000 C   0  0  0  0  0  0  0  0  0  0  0  0
   -5.2042    0.4208    0.0000 C   0  0  0  0  0  0  0  0  0  0  0  0
   -4.5208   -0.0167    0.0000 C   0  0  0  0  0  0  0  0  0  0  0  0
   -3.7875    0.3833    0.0000 C   0  0  0  0  0  0  0  0  0  0  0  0
  2  8  1  0  0  0  0
  3  1  1  0  0  0  0
  4  1  1  0  0  0  0
  5  1  1  0  0  0  0
  6  2  1  0  0  0  0
  7  3  1  0  0  0  0
  8  3  1  0  0  0  0
  9 10  1  0  0  0  0
 10  6  1  0  0  0  0
 11  4  1  0  0  0  0
 12  5  1  0  0  0  0
 13  4  2  0  0  0  0
 14  5  2  0  0  0  0
 15  6  2  0  0  0  0
 16  9  1  0  0  0  0
 17 16  2  0  0  0  0
 18 16  1  0  0  0  0
 19 17  1  0  0  0  0
 20 17  1  0  0  0  0
 21 22  1  0  0  0  0
 22 18  2  0  0  0  0
 12 11  1  0  0  0  0
  7  2  1  0  0  0  0
 21 20  2  0  0  0  0
M  END
> <IDNUMBER>
F6473-3555

> <Chemical_Name>
1-{1-[2-(2-methylphenoxy)acetyl]azetidin-3-yl}pyrrolidine-2,5-dione

> <CAS>
1798490-67-1

> <PriceCoeff>
1.50

> <MW>
302.33

> <Description>
solid

> <FSP3>
0.44

> <clogP>
1.35

> <TPSA>
66.92

> <Acceptor>
4

> <Donor>
0

> <RotBonds>
5

> <HAC>
22

> <Collection>
Advanced

$$$$
F6473-3854
  -ISIS-  06222321462D

 24 26  0  0  0  0  0  0  0  0999 V2000
   -1.3083    5.1042    0.0000 N   0  0  3  0  0  0  0  0  0  0  0  0
   -3.0333    4.1042    0.0000 N   0  0  3  0  0  0  0  0  0  0  0  0
   -3.7458    3.6958    0.0000 C   0  0  0  0  0  0  0  0  0  0  0  0
   -2.0333    4.6875    0.0000 C   0  0  3  0  0  0  0  0  0  0  0  0
   -1.2250    5.9167    0.0000 C   0  0  0  0  0  0  0  0  0  0  0  0
   -0.5583    4.7667    0.0000 C   0  0  0  0  0  0  0  0  0  0  0  0
   -2.2458    3.8958    0.0000 C   0  0  0  0  0  0  0  0  0  0  0  0
   -2.8208    4.9000    0.0000 C   0  0  0  0  0  0  0  0  0  0  0  0
   -4.4583    4.1042    0.0000 N   0  0  0  0  0  0  0  0  0  0  0  0
   -3.7458    2.8708    0.0000 O   0  0  0  0  0  0  0  0  0  0  0  0
   -7.3167    2.4583    0.0000 C   0  0  3  0  0  0  0  0  0  0  0  0
   -6.5958    2.8708    0.0000 C   0  0  0  0  0  0  0  0  0  0  0  0
   -0.0083    5.3792    0.0000 C   0  0  0  0  0  0  0  0  0  0  0  0
   -0.4208    6.0917    0.0000 C   0  0  0  0  0  0  0  0  0  0  0  0
   -0.3875    3.9625    0.0000 O   0  0  0  0  0  0  0  0  0  0  0  0
   -1.8417    6.4708    0.0000 O   0  0  0  0  0  0  0  0  0  0  0  0
   -5.1750    3.6958    0.0000 C   0  0  0  0  0  0  0  0  0  0  0  0
   -6.5958    3.6958    0.0000 C   0  0  0  0  0  0  0  0  0  0  0  0
   -5.8958    2.4583    0.0000 C   0  0  0  0  0  0  0  0  0  0  0  0
   -5.1750    2.8750    0.0000 C   0  0  0  0  0  0  0  0  0  0  0  0
   -5.8917    4.0958    0.0000 C   0  0  0  0  0  0  0  0  0  0  0  0
   -7.7292    3.1750    0.0000 C   0  0  0  0  0  0  0  0  0  0  0  0
   -6.9042    1.7458    0.0000 C   0  0  0  0  0  0  0  0  0  0  0  0
   -8.0292    2.0458    0.0000 C   0  0  0  0  0  0  0  0  0  0  0  0
  2  8  1  0  0  0  0
  3  2  1  0  0  0  0
  4  1  1  0  0  0  0
  5  1  1  0  0  0  0
  6  1  1  0  0  0  0
  7  4  1  0  0  0  0
  8  4  1  0  0  0  0
  9  3  1  0  0  0  0
 10  3  2  0  0  0  0
 11 12  1  0  0  0  0
 12 18  2  0  0  0  0
 13  6  1  0  0  0  0
 14  5  1  0  0  0  0
 15  6  2  0  0  0  0
 16  5  2  0  0  0  0
 17  9  1  0  0  0  0
 18 21  1  0  0  0  0
 19 20  2  0  0  0  0
 20 17  1  0  0  0  0
 21 17  2  0  0  0  0
 22 11  1  0  0  0  0
 23 11  1  0  0  0  0
 24 11  1  0  0  0  0
 14 13  1  0  0  0  0
  7  2  1  0  0  0  0
 12 19  1  0  0  0  0
M  END
> <IDNUMBER>
F6473-3854

> <Chemical_Name>
N-(4-tert-butylphenyl)-3-(2,5-dioxopyrrolidin-1-yl)azetidine-1-carboxamide

> <CAS>
1795085-60-7

> <PriceCoeff>
1.50

> <MW>
329.39

> <Description>
solid

> <FSP3>
0.50

> <clogP>
2.12

> <TPSA>
69.72

> <Acceptor>
3

> <Donor>
1

> <RotBonds>
3

> <HAC>
24

> <Collection>
Advanced

$$$$
F2477-0096
  -ISIS-  06222321462D

 19 20  0  0  0  0  0  0  0  0999 V2000
    3.6292    2.1000    0.0000 C   0  0  0  0  0  0  0  0  0  0  0  0
    3.6292    3.5000    0.0000 C   0  0  0  0  0  0  0  0  0  0  0  0
    4.9667    1.6708    0.0000 N   0  0  0  0  0  0  0  0  0  0  0  0
    2.4250    1.4000    0.0000 N   0  0  3  0  0  0  0  0  0  0  0  0
    1.2125    3.5000    0.0000 N   0  0  3  0  0  0  0  0  0  0  0  0
    4.9667    3.9333    0.0000 N   0  0  3  0  0  0  0  0  0  0  0  0
    1.2042    2.1000    0.0000 C   0  0  0  0  0  0  0  0  0  0  0  0
    2.4167    4.2000    0.0000 C   0  0  0  0  0  0  0  0  0  0  0  0
    5.7875    2.8000    0.0000 C   0  0  0  0  0  0  0  0  0  0  0  0
    5.4000    5.2625    0.0000 C   0  0  0  0  0  0  0  0  0  0  0  0
    0.2167    1.1083    0.0000 O   0  0  0  0  0  0  0  0  0  0  0  0
    2.4250    5.5917    0.0000 O   0  0  0  0  0  0  0  0  0  0  0  0
    7.1917    2.8000    0.0000 N   0  0  0  0  0  0  0  0  0  0  0  0
    2.4167   -0.0000    0.0000 C   0  0  0  0  0  0  0  0  0  0  0  0
    0.0000    4.1917    0.0000 C   0  0  0  0  0  0  0  0  0  0  0  0
    6.7667    5.5542    0.0000 C   0  0  3  0  0  0  0  0  0  0  0  0
    7.8875    1.5875    0.0000 C   0  0  0  0  0  0  0  0  0  0  0  0
    7.2000    6.8875    0.0000 C   0  0  0  0  0  0  0  0  0  0  0  0
    7.7042    4.5167    0.0000 C   0  0  0  0  0  0  0  0  0  0  0  0
  2  1  2  0  0  0  0
  3  1  1  0  0  0  0
  4  1  1  0  0  0  0
  5  7  1  0  0  0  0
  6  2  1  0  0  0  0
  7  4  1  0  0  0  0
  8  2  1  0  0  0  0
  9  3  2  0  0  0  0
 10  6  1  0  0  0  0
 11  7  2  0  0  0  0
 12  8  2  0  0  0  0
 13  9  1  0  0  0  0
 14  4  1  0  0  0  0
 15  5  1  0  0  0  0
 16 10  1  0  0  0  0
 17 13  1  0  0  0  0
 18 16  1  0  0  0  0
 19 16  1  0  0  0  0
  6  9  1  0  0  0  0
  5  8  1  0  0  0  0
M  END
> <IDNUMBER>
F2477-0096

> <Chemical_Name>
1,3-dimethyl-8-(methylamino)-7-(2-methylpropyl)-2,3,6,7-tetrahydro-1H-purine-2,6-dione

> <CAS>
941993-67-5

> <PriceCoeff>
1.50

> <MW>
265.31

> <Description>
solid

> <FSP3>
0.58

> <clogP>
1.97

> <TPSA>
70.47

> <Acceptor>
3

> <Donor>
2

> <RotBonds>
3

> <HAC>
19

> <Collection>
Advanced

> <Reference_compound>
CHEMBL113

> <Similarity>
0.8150

$$$$
F3260-0407
  -ISIS-  06222321462D

 17 18  0  0  0  0  0  0  0  0999 V2000
    3.4125    2.1000    0.0000 C   0  0  0  0  0  0  0  0  0  0  0  0
    3.4125    3.5000    0.0000 C   0  0  0  0  0  0  0  0  0  0  0  0
    4.7417    1.6708    0.0000 N   0  0  0  0  0  0  0  0  0  0  0  0
    5.5667    2.8000    0.0000 C   0  0  0  0  0  0  0  0  0  0  0  0
    2.1917    1.4000    0.0000 N   0  0  3  0  0  0  0  0  0  0  0  0
    4.7417    3.9333    0.0000 N   0  0  3  0  0  0  0  0  0  0  0  0
    0.9875    2.1000    0.0000 C   0  0  0  0  0  0  0  0  0  0  0  0
    0.9875    3.5000    0.0000 N   0  0  0  0  0  0  0  0  0  0  0  0
    2.1917    4.2000    0.0000 C   0  0  0  0  0  0  0  0  0  0  0  0
    6.9667    2.8000    0.0000 N   0  0  3  0  0  0  0  0  0  0  0  0
    0.0000    1.1125    0.0000 O   0  0  0  0  0  0  0  0  0  0  0  0
    2.1917    5.5917    0.0000 O   0  0  0  0  0  0  0  0  0  0  0  0
    5.1750    5.2625    0.0000 C   0  0  0  0  0  0  0  0  0  0  0  0
    2.1917   -0.0000    0.0000 C   0  0  0  0  0  0  0  0  0  0  0  0
    7.6667    4.0042    0.0000 C   0  0  0  0  0  0  0  0  0  0  0  0
    7.6667    1.5958    0.0000 C   0  0  0  0  0  0  0  0  0  0  0  0
    6.5417    5.5542    0.0000 C   0  0  0  0  0  0  0  0  0  0  0  0
  2  1  2  0  0  0  0
  3  1  1  0  0  0  0
  4  3  2  0  0  0  0
  5  1  1  0  0  0  0
  6  2  1  0  0  0  0
  7  5  1  0  0  0  0
  8  7  1  0  0  0  0
  9  2  1  0  0  0  0
 10  4  1  0  0  0  0
 11  7  2  0  0  0  0
 12  9  2  0  0  0  0
 13  6  1  0  0  0  0
 14  5  1  0  0  0  0
 15 10  1  0  0  0  0
 16 10  1  0  0  0  0
 17 13  1  0  0  0  0
  8  9  1  0  0  0  0
  6  4  1  0  0  0  0
M  END
> <IDNUMBER>
F3260-0407

> <Chemical_Name>
8-(dimethylamino)-7-ethyl-3-methyl-2,3,6,7-tetrahydro-1H-purine-2,6-dione

> <CAS>
923183-57-7

> <PriceCoeff>
1.50

> <MW>
237.26

> <Description>
solid

> <FSP3>
0.50

> <clogP>
0.56

> <TPSA>
70.47

> <Acceptor>
3

> <Donor>
3

> <RotBonds>
2

> <HAC>
17

> <Collection>
Advanced

> <Reference_compound>
CHEMBL113

> <Similarity>
0.8180

$$$$
F9994-5206
  -ISIS-  06222321442D

 14 14  0  0  0  0  0  0  0  0999 V2000
   -1.6375   -6.6042    0.0000 C   0  0  0  0  0  0  0  0  0  0  0  0
   -2.2583   -6.2417    0.0000 C   0  0  0  0  0  0  0  0  0  0  0  0
   -0.3958   -5.1625    0.0000 C   0  0  0  0  0  0  0  0  0  0  0  0
   -2.8833   -6.6042    0.0000 C   0  0  0  0  0  0  0  0  0  0  0  0
   -0.4000   -4.4417    0.0000 O   0  0  0  0  0  0  0  0  0  0  0  0
   -1.6333   -7.3167    0.0000 O   0  0  0  0  0  0  0  0  0  0  0  0
   -1.0125   -6.2375    0.0000 C   0  0  0  0  0  0  0  0  0  0  0  0
   -1.0208   -5.5167    0.0000 C   0  0  0  0  0  0  0  0  0  0  0  0
    0.2250   -5.5167    0.0000 O   0  0  0  0  0  0  0  0  0  0  0  0
   -3.5083   -6.2417    0.0000 C   0  0  0  0  0  0  0  0  0  0  0  0
   -2.2625   -5.5167    0.0000 C   0  0  0  0  0  0  0  0  0  0  0  0
   -2.8833   -5.1667    0.0000 C   0  0  0  0  0  0  0  0  0  0  0  0
   -3.5083   -5.5250    0.0000 C   0  0  0  0  0  0  0  0  0  0  0  0
   -4.1250   -6.6042    0.0000 C   0  0  0  0  0  0  0  0  0  0  0  0
  2  1  1  0  0  0  0
  3  8  1  0  0  0  0
  4  2  2  0  0  0  0
  5  3  2  0  0  0  0
  6  1  2  0  0  0  0
  7  1  1  0  0  0  0
  8  7  1  0  0  0  0
  9  3  1  0  0  0  0
 10  4  1  0  0  0  0
 11  2  1  0  0  0  0
 12 11  2  0  0  0  0
 13 12  1  0  0  0  0
 14 10  1  0  0  0  0
 10 13  2  0  0  0  0
M  END
> <IDNUMBER>
F9994-5206

> <Chemical_Name>
4-(3-methylphenyl)-4-oxobutanoic acid

> <CAS>
59618-44-9

> <PriceCoeff>
1.00

> <MW>
192.21

> <Description>
solid

> <FSP3>
0.27

> <clogP>
1.75

> <TPSA>
54.37

> <Acceptor>
3

> <Donor>
0

> <RotBonds>
4

> <HAC>
14

> <Collection>
General

> <Reference_compound>
CHEMBL461681

> <Similarity>
0.9330

$$$$
F0887-0018
  -ISIS-  06222321452D

 18 19  0  0  0  0  0  0  0  0999 V2000
    2.1667   -1.2542    0.0000 C   0  0  0  0  0  0  0  0  0  0  0  0
    2.1667   -0.6042    0.0000 C   0  0  0  0  0  0  0  0  0  0  0  0
    2.7292   -1.5917    0.0000 N   0  0  0  0  0  0  0  0  0  0  0  0
    1.5792   -1.5792    0.0000 N   0  0  3  0  0  0  0  0  0  0  0  0
    1.0167   -0.6042    0.0000 N   0  0  3  0  0  0  0  0  0  0  0  0
    3.3000   -1.2750    0.0000 C   0  0  0  0  0  0  0  0  0  0  0  0
    1.0167   -1.2625    0.0000 C   0  0  0  0  0  0  0  0  0  0  0  0
    1.5792   -0.2792    0.0000 C   0  0  0  0  0  0  0  0  0  0  0  0
    3.3125   -0.6042    0.0000 N   0  0  3  0  0  0  0  0  0  0  0  0
    3.8917   -1.6125    0.0000 N   0  0  3  0  0  0  0  0  0  0  0  0
    0.4417   -1.5917    0.0000 O   0  0  0  0  0  0  0  0  0  0  0  0
    1.5792    0.3833    0.0000 O   0  0  0  0  0  0  0  0  0  0  0  0
    1.5792   -2.2292    0.0000 C   0  0  0  0  0  0  0  0  0  0  0  0
    0.4625   -0.2875    0.0000 C   0  0  0  0  0  0  0  0  0  0  0  0
    3.7167    0.1083    0.0000 C   0  0  0  0  0  0  0  0  0  0  0  0
    3.8917   -2.2875    0.0000 C   0  0  0  0  0  0  0  0  0  0  0  0
    4.4750   -1.2667    0.0000 C   0  0  0  0  0  0  0  0  0  0  0  0
    4.5417    0.1083    0.0000 C   0  0  0  0  0  0  0  0  0  0  0  0
  2  1  2  0  0  0  0
  3  1  1  0  0  0  0
  4  1  1  0  0  0  0
  5  7  1  0  0  0  0
  6  3  2  0  0  0  0
  7  4  1  0  0  0  0
  8  2  1  0  0  0  0
  9  2  1  0  0  0  0
 10  6  1  0  0  0  0
 11  7  2  0  0  0  0
 12  8  2  0  0  0  0
 13  4  1  0  0  0  0
 14  5  1  0  0  0  0
 15  9  1  0  0  0  0
 16 10  1  0  0  0  0
 17 10  1  0  0  0  0
 18 15  1  0  0  0  0
  9  6  1  0  0  0  0
  8  5  1  0  0  0  0
M  END
> <IDNUMBER>
F0887-0018

> <Chemical_Name>
8-(dimethylamino)-7-ethyl-1,3-dimethyl-2,3,6,7-tetrahydro-1H-purine-2,6-dione

> <CAS>
159626-53-6

> <PriceCoeff>
1.50

> <MW>
251.28

> <Description>
solid

> <FSP3>
0.55

> <clogP>
1.19

> <TPSA>
61.68

> <Acceptor>
3

> <Donor>
2

> <RotBonds>
2

> <HAC>
18

> <Collection>
Advanced

> <Reference_compound>
CHEMBL113

> <Similarity>
0.8400

$$$$
F6184-0072
  -ISIS-  06222321462D

 21 23  0  0  0  0  0  0  0  0999 V2000
   -5.2833    2.5708    0.0000 N   0  0  3  0  0  0  0  0  0  0  0  0
   -4.5708    3.8000    0.0000 C   0  0  0  0  0  0  0  0  0  0  0  0
   -4.5708    2.9875    0.0000 C   0  0  0  0  0  0  0  0  0  0  0  0
   -5.3625    1.7458    0.0000 C   0  0  0  0  0  0  0  0  0  0  0  0
   -6.0292    2.9000    0.0000 C   0  0  0  0  0  0  0  0  0  0  0  0
   -3.8583    4.2125    0.0000 N   0  0  3  0  0  0  0  0  0  0  0  0
   -1.7208    5.4417    0.0000 C   0  0  0  0  0  0  0  0  0  0  0  0
   -1.6333    6.2667    0.0000 S   0  0  0  0  0  0  0  0  0  0  0  0
   -2.4333    5.0292    0.0000 C   0  0  3  0  0  0  0  0  0  0  0  0
   -3.1458    3.8083    0.0000 C   0  0  0  0  0  0  0  0  0  0  0  0
   -3.8583    5.0292    0.0000 C   0  0  0  0  0  0  0  0  0  0  0  0
   -5.2958    4.2125    0.0000 O   0  0  0  0  0  0  0  0  0  0  0  0
   -6.5750    2.2833    0.0000 C   0  0  0  0  0  0  0  0  0  0  0  0
   -6.1667    1.5708    0.0000 C   0  0  0  0  0  0  0  0  0  0  0  0
   -0.9708    5.1042    0.0000 C   0  0  0  0  0  0  0  0  0  0  0  0
   -6.2042    3.7083    0.0000 O   0  0  0  0  0  0  0  0  0  0  0  0
   -4.7458    1.1833    0.0000 O   0  0  0  0  0  0  0  0  0  0  0  0
   -0.8250    6.4417    0.0000 C   0  0  0  0  0  0  0  0  0  0  0  0
   -0.4083    5.7167    0.0000 C   0  0  0  0  0  0  0  0  0  0  0  0
   -3.1458    5.4417    0.0000 C   0  0  0  0  0  0  0  0  0  0  0  0
   -2.4333    4.2125    0.0000 C   0  0  0  0  0  0  0  0  0  0  0  0
  2  3  1  0  0  0  0
  3  1  1  0  0  0  0
  4  1  1  0  0  0  0
  5  1  1  0  0  0  0
  6  2  1  0  0  0  0
  7  9  1  0  0  0  0
  8  7  1  0  0  0  0
  9 20  1  0  0  0  0
 10  6  1  0  0  0  0
 11  6  1  0  0  0  0
 12  2  2  0  0  0  0
 13  5  1  0  0  0  0
 14  4  1  0  0  0  0
 15  7  2  0  0  0  0
 16  5  2  0  0  0  0
 17  4  2  0  0  0  0
 18  8  1  0  0  0  0
 19 15  1  0  0  0  0
 20 11  1  0  0  0  0
 21 10  1  0  0  0  0
 14 13  1  0  0  0  0
 21  9  1  0  0  0  0
 18 19  2  0  0  0  0
M  END
> <IDNUMBER>
F6184-0072

> <Chemical_Name>
1-{2-oxo-2-[4-(thiophen-2-yl)piperidin-1-yl]ethyl}pyrrolidine-2,5-dione

> <CAS>
1396809-08-7

> <PriceCoeff>
1.50

> <MW>
306.38

> <Description>
solid

> <FSP3>
0.53

> <clogP>
1.15

> <TPSA>
85.93

> <Acceptor>
3

> <Donor>
0

> <RotBonds>
4

> <HAC>
21

> <Collection>
Advanced

$$$$
F6477-5320
  -ISIS-  06222304352D

 22 23  0  0  0  0  0  0  0  0999 V2000
    1.9667    0.7583    0.0000 N   0  0  3  0  0  0  0  0  0  0  0  0
    4.9667    0.1458    0.0000 C   0  0  0  0  0  0  0  0  0  0  0  0
    3.9667    0.1458    0.0000 N   0  0  0  0  0  0  0  0  0  0  0  0
    3.6625    1.1083    0.0000 C   0  0  0  0  0  0  0  0  0  0  0  0
    0.9792    0.9708    0.0000 C   0  0  0  0  0  0  0  0  0  0  0  0
    2.0625   -0.2417    0.0000 C   0  0  0  0  0  0  0  0  0  0  0  0
    5.2792    1.1083    0.0000 S   0  0  0  0  0  0  0  0  0  0  0  0
    5.5542   -0.6625    0.0000 N   0  0  0  0  0  0  0  0  0  0  0  0
    2.7125    1.4208    0.0000 C   0  0  0  0  0  0  0  0  0  0  0  0
    4.4667    1.6875    0.0000 C   0  0  0  0  0  0  0  0  0  0  0  0
    6.5542   -0.5542    0.0000 C   0  0  0  0  0  0  0  0  0  0  0  0
    1.1417   -0.6417    0.0000 C   0  0  0  0  0  0  0  0  0  0  0  0
    0.4792    0.1083    0.0000 C   0  0  0  0  0  0  0  0  0  0  0  0
    2.9292   -0.7417    0.0000 O   0  0  0  0  0  0  0  0  0  0  0  0
    0.5750    1.8833    0.0000 O   0  0  0  0  0  0  0  0  0  0  0  0
    7.1417   -1.3667    0.0000 C   0  0  0  0  0  0  0  0  0  0  0  0
    6.7417   -2.2792    0.0000 F   0  0  0  0  0  0  0  0  0  0  0  0
    6.9542    0.3583    0.0000 C   0  0  0  0  0  0  0  0  0  0  0  0
    8.1375   -1.2542    0.0000 C   0  0  0  0  0  0  0  0  0  0  0  0
    7.9542    0.4583    0.0000 C   0  0  0  0  0  0  0  0  0  0  0  0
    8.5417   -0.3417    0.0000 C   0  0  0  0  0  0  0  0  0  0  0  0
    9.9417   -0.2000    0.0000 Cl  0  0  0  0  0  0  0  0  0  0  0  0
  3  4  1  0  0  0  0
  4  9  1  0  0  0  0
  5  1  1  0  0  0  0
  6  1  1  0  0  0  0
  7 10  1  0  0  0  0
  8  2  1  0  0  0  0
  9  1  1  0  0  0  0
 10  4  2  0  0  0  0
 11  8  1  0  0  0  0
 12  6  1  0  0  0  0
 13  5  1  0  0  0  0
 14  6  2  0  0  0  0
 15  5  2  0  0  0  0
 16 11  2  0  0  0  0
 17 16  1  0  0  0  0
 18 11  1  0  0  0  0
 19 16  1  0  0  0  0
 20 18  2  0  0  0  0
 21 20  1  0  0  0  0
 12 13  1  0  0  0  0
  7  2  1  0  0  0  0
 19 21  2  0  0  0  0
  2  3  2  0  0  0  0
M  END
> <IDNUMBER>
F6477-5320

> <Chemical_Name>
1-({2-[(2-fluorophenyl)amino]-1,3-thiazol-4-yl}methyl)pyrrolidine-2,5-dione hydrochloride

> <CAS>
2034250-70-7

> <PriceCoeff>
1.50

> <MW>
305.33

> <Description>
solid

> <FSP3>
0.21

> <clogP>
2.04

> <TPSA>
90.54

> <Acceptor>
4

> <Donor>
1

> <RotBonds>
4

> <HAC>
21

> <Collection>
Advanced

$$$$
F6473-3532
  -ISIS-  06222321462D

 21 23  0  0  0  0  0  0  0  0999 V2000
   -1.3083    5.1042    0.0000 N   0  0  3  0  0  0  0  0  0  0  0  0
   -3.0333    4.1042    0.0000 N   0  0  3  0  0  0  0  0  0  0  0  0
   -2.0333    4.6875    0.0000 C   0  0  3  0  0  0  0  0  0  0  0  0
   -0.5583    4.7667    0.0000 C   0  0  0  0  0  0  0  0  0  0  0  0
   -1.2250    5.9167    0.0000 C   0  0  0  0  0  0  0  0  0  0  0  0
   -3.7458    3.6958    0.0000 C   0  0  0  0  0  0  0  0  0  0  0  0
   -2.2458    3.8958    0.0000 C   0  0  0  0  0  0  0  0  0  0  0  0
   -2.8208    4.9000    0.0000 C   0  0  0  0  0  0  0  0  0  0  0  0
   -0.0083    5.3792    0.0000 C   0  0  0  0  0  0  0  0  0  0  0  0
   -0.4208    6.0917    0.0000 C   0  0  0  0  0  0  0  0  0  0  0  0
   -0.3875    3.9625    0.0000 O   0  0  0  0  0  0  0  0  0  0  0  0
   -1.8417    6.4708    0.0000 O   0  0  0  0  0  0  0  0  0  0  0  0
   -3.7458    2.8708    0.0000 C   0  0  0  0  0  0  0  0  0  0  0  0
   -4.4583    4.1042    0.0000 O   0  0  0  0  0  0  0  0  0  0  0  0
   -4.4458    2.4458    0.0000 O   0  0  0  0  0  0  0  0  0  0  0  0
   -4.4083    1.6333    0.0000 C   0  0  0  0  0  0  0  0  0  0  0  0
   -5.1208    1.1958    0.0000 C   0  0  0  0  0  0  0  0  0  0  0  0
   -3.7083    1.2250    0.0000 C   0  0  0  0  0  0  0  0  0  0  0  0
   -3.6708    0.4083    0.0000 C   0  0  0  0  0  0  0  0  0  0  0  0
   -5.1125    0.3750    0.0000 C   0  0  0  0  0  0  0  0  0  0  0  0
   -4.4042   -0.0292    0.0000 C   0  0  0  0  0  0  0  0  0  0  0  0
  2  8  1  0  0  0  0
  3  1  1  0  0  0  0
  4  1  1  0  0  0  0
  5  1  1  0  0  0  0
  6  2  1  0  0  0  0
  7  3  1  0  0  0  0
  8  3  1  0  0  0  0
  9  4  1  0  0  0  0
 10  5  1  0  0  0  0
 11  4  2  0  0  0  0
 12  5  2  0  0  0  0
 13  6  1  0  0  0  0
 14  6  2  0  0  0  0
 15 13  1  0  0  0  0
 16 15  1  0  0  0  0
 17 16  2  0  0  0  0
 18 16  1  0  0  0  0
 19 18  2  0  0  0  0
 20 17  1  0  0  0  0
 21 19  1  0  0  0  0
 10  9  1  0  0  0  0
  7  2  1  0  0  0  0
 21 20  2  0  0  0  0
M  END
> <IDNUMBER>
F6473-3532

> <Chemical_Name>
1-[1-(2-phenoxyacetyl)azetidin-3-yl]pyrrolidine-2,5-dione

> <CAS>
1798540-18-7

> <PriceCoeff>
1.50

> <MW>
288.30

> <Description>
solid

> <FSP3>
0.40

> <clogP>
0.86

> <TPSA>
66.92

> <Acceptor>
4

> <Donor>
0

> <RotBonds>
5

> <HAC>
21

> <Collection>
Advanced

$$$$
F6473-3558
  -ISIS-  06222321462D

 22 24  0  0  0  0  0  0  0  0999 V2000
   -1.3083    5.1042    0.0000 N   0  0  3  0  0  0  0  0  0  0  0  0
   -3.0333    4.1042    0.0000 N   0  0  3  0  0  0  0  0  0  0  0  0
   -2.0333    4.6875    0.0000 C   0  0  3  0  0  0  0  0  0  0  0  0
   -0.5583    4.7667    0.0000 C   0  0  0  0  0  0  0  0  0  0  0  0
   -1.2250    5.9167    0.0000 C   0  0  0  0  0  0  0  0  0  0  0  0
   -3.7458    3.6958    0.0000 C   0  0  0  0  0  0  0  0  0  0  0  0
   -2.2458    3.8958    0.0000 C   0  0  0  0  0  0  0  0  0  0  0  0
   -2.8208    4.9000    0.0000 C   0  0  0  0  0  0  0  0  0  0  0  0
   -4.4708    2.4833    0.0000 O   0  0  0  0  0  0  0  0  0  0  0  0
   -3.7500    2.8750    0.0000 C   0  0  0  0  0  0  0  0  0  0  0  0
   -0.0083    5.3792    0.0000 C   0  0  0  0  0  0  0  0  0  0  0  0
   -0.4208    6.0917    0.0000 C   0  0  0  0  0  0  0  0  0  0  0  0
   -0.3875    3.9625    0.0000 O   0  0  0  0  0  0  0  0  0  0  0  0
   -1.8417    6.4708    0.0000 O   0  0  0  0  0  0  0  0  0  0  0  0
   -4.4583    4.0958    0.0000 O   0  0  0  0  0  0  0  0  0  0  0  0
   -4.4667    1.6458    0.0000 C   0  0  0  0  0  0  0  0  0  0  0  0
   -5.1708    1.2333    0.0000 C   0  0  0  0  0  0  0  0  0  0  0  0
   -5.8833    1.6375    0.0000 F   0  0  0  0  0  0  0  0  0  0  0  0
   -3.7458    1.2208    0.0000 C   0  0  0  0  0  0  0  0  0  0  0  0
   -5.1708    0.4083    0.0000 C   0  0  0  0  0  0  0  0  0  0  0  0
   -4.4708   -0.0000    0.0000 C   0  0  0  0  0  0  0  0  0  0  0  0
   -3.7583    0.3833    0.0000 C   0  0  0  0  0  0  0  0  0  0  0  0
  2  8  1  0  0  0  0
  3  1  1  0  0  0  0
  4  1  1  0  0  0  0
  5  1  1  0  0  0  0
  6  2  1  0  0  0  0
  7  3  1  0  0  0  0
  8  3  1  0  0  0  0
  9 10  1  0  0  0  0
 10  6  1  0  0  0  0
 11  4  1  0  0  0  0
 12  5  1  0  0  0  0
 13  4  2  0  0  0  0
 14  5  2  0  0  0  0
 15  6  2  0  0  0  0
 16  9  1  0  0  0  0
 17 16  2  0  0  0  0
 18 17  1  0  0  0  0
 19 16  1  0  0  0  0
 20 17  1  0  0  0  0
 21 22  1  0  0  0  0
 22 19  2  0  0  0  0
 12 11  1  0  0  0  0
  7  2  1  0  0  0  0
 20 21  2  0  0  0  0
M  END
> <IDNUMBER>
F6473-3558

> <Chemical_Name>
1-{1-[2-(2-fluorophenoxy)acetyl]azetidin-3-yl}pyrrolidine-2,5-dione

> <CAS>
1795422-53-5

> <PriceCoeff>
1.50

> <MW>
306.29

> <Description>
solid

> <FSP3>
0.40

> <clogP>
0.94

> <TPSA>
66.92

> <Acceptor>
4

> <Donor>
0

> <RotBonds>
5

> <HAC>
22

> <Collection>
Advanced

$$$$
F6525-0002
  -ISIS-  06222321472D

 24 26  0  0  0  0  0  0  0  0999 V2000
   -2.5750    5.9792    0.0000 C   0  0  0  0  0  0  0  0  0  0  0  0
   -2.4458    6.8042    0.0000 N   0  0  3  0  0  0  0  0  0  0  0  0
   -1.6458    6.9167    0.0000 N   0  0  0  0  0  0  0  0  0  0  0  0
   -1.8583    5.6167    0.0000 C   0  0  0  0  0  0  0  0  0  0  0  0
   -1.2750    6.1917    0.0000 C   0  0  0  0  0  0  0  0  0  0  0  0
   -3.3125    5.5958    0.0000 C   0  0  0  0  0  0  0  0  0  0  0  0
   -4.7458    5.6583    0.0000 C   0  0  0  0  0  0  0  0  0  0  0  0
   -4.0083    6.0417    0.0000 N   0  0  0  0  0  0  0  0  0  0  0  0
   -4.7833    4.8417    0.0000 C   0  0  0  0  0  0  0  0  0  0  0  0
   -4.8500    3.1875    0.0000 C   0  0  0  0  0  0  0  0  0  0  0  0
   -4.8917    2.3583    0.0000 N   0  0  3  0  0  0  0  0  0  0  0  0
   -5.4333    6.1083    0.0000 O   0  0  0  0  0  0  0  0  0  0  0  0
   -4.0917    4.3875    0.0000 C   0  0  0  0  0  0  0  0  0  0  0  0
   -5.5167    4.4542    0.0000 C   0  0  0  0  0  0  0  0  0  0  0  0
   -5.5458    3.6333    0.0000 C   0  0  0  0  0  0  0  0  0  0  0  0
   -4.1250    3.5625    0.0000 C   0  0  0  0  0  0  0  0  0  0  0  0
   -1.4833    4.8917    0.0000 C   0  0  0  0  0  0  0  0  0  0  0  0
   -3.0083    7.4042    0.0000 C   0  0  0  0  0  0  0  0  0  0  0  0
   -0.5500    5.8250    0.0000 C   0  0  0  0  0  0  0  0  0  0  0  0
   -0.6583    5.0167    0.0000 C   0  0  0  0  0  0  0  0  0  0  0  0
   -4.1958    1.9208    0.0000 C   0  0  0  0  0  0  0  0  0  0  0  0
   -5.6208    1.9750    0.0000 C   0  0  0  0  0  0  0  0  0  0  0  0
   -4.2333    1.0958    0.0000 C   0  0  0  0  0  0  0  0  0  0  0  0
   -6.3125    2.4208    0.0000 C   0  0  0  0  0  0  0  0  0  0  0  0
  2  1  1  0  0  0  0
  3  2  1  0  0  0  0
  4  1  2  0  0  0  0
  5  4  1  0  0  0  0
  6  1  1  0  0  0  0
  7  8  1  0  0  0  0
  8  6  1  0  0  0  0
  9  7  1  0  0  0  0
 10 15  2  0  0  0  0
 11 10  1  0  0  0  0
 12  7  2  0  0  0  0
 13  9  1  0  0  0  0
 14  9  2  0  0  0  0
 15 14  1  0  0  0  0
 16 13  2  0  0  0  0
 17  4  1  0  0  0  0
 18  2  1  0  0  0  0
 19  5  1  0  0  0  0
 20 17  1  0  0  0  0
 21 11  1  0  0  0  0
 22 11  1  0  0  0  0
 23 21  1  0  0  0  0
 24 22  1  0  0  0  0
  5  3  2  0  0  0  0
 20 19  1  0  0  0  0
 10 16  1  0  0  0  0
M  END
> <IDNUMBER>
F6525-0002

> <Chemical_Name>
4-(diethylamino)-N-({2-methyl-2H,4H,5H,6H-cyclopenta[c]pyrazol-3-yl}methyl)benzamide

> <CAS>
2034370-32-4

> <PriceCoeff>
1.50

> <MW>
326.44

> <Description>
solid

> <FSP3>
0.47

> <clogP>
2.92

> <TPSA>
50.16

> <Acceptor>
3

> <Donor>
2

> <RotBonds>
6

> <HAC>
24

> <Collection>
Advanced

> <Reference_compound>
CHEMBL2269988

> <Similarity>
0.8020

$$$$
F6452-0068
  -ISIS-  06222321442D

 23 24  0  0  0  0  0  0  0  0999 V2000
   -5.2833    2.5708    0.0000 N   0  0  3  0  0  0  0  0  0  0  0  0
   -5.3708    1.7458    0.0000 C   0  0  0  0  0  0  0  0  0  0  0  0
   -6.0292    2.9000    0.0000 C   0  0  0  0  0  0  0  0  0  0  0  0
   -2.4250    5.8583    0.0000 C   0  0  0  0  0  0  0  0  0  0  0  0
   -4.5792    2.9875    0.0000 C   0  0  0  0  0  0  0  0  0  0  0  0
   -3.1458    5.4500    0.0000 C   0  0  3  0  0  0  0  0  0  0  0  0
   -4.5833    3.8000    0.0000 C   0  0  0  0  0  0  0  0  0  0  0  0
   -3.8625    4.2125    0.0000 N   0  0  0  0  0  0  0  0  0  0  0  0
   -1.7125    5.4500    0.0000 C   0  0  0  0  0  0  0  0  0  0  0  0
   -6.1667    1.5708    0.0000 C   0  0  0  0  0  0  0  0  0  0  0  0
   -6.5792    2.2833    0.0000 C   0  0  0  0  0  0  0  0  0  0  0  0
   -4.7500    1.1833    0.0000 O   0  0  0  0  0  0  0  0  0  0  0  0
   -6.2042    3.7083    0.0000 O   0  0  0  0  0  0  0  0  0  0  0  0
   -3.8625    5.0292    0.0000 C   0  0  0  0  0  0  0  0  0  0  0  0
   -5.2958    4.2125    0.0000 O   0  0  0  0  0  0  0  0  0  0  0  0
   -1.7083    4.6167    0.0000 F   0  0  0  0  0  0  0  0  0  0  0  0
   -3.5583    6.1667    0.0000 O   0  0  0  0  0  0  0  0  0  0  0  0
   -2.4208    6.6792    0.0000 C   0  0  0  0  0  0  0  0  0  0  0  0
   -2.7333    4.7292    0.0000 C   0  0  0  0  0  0  0  0  0  0  0  0
   -1.0000    5.8583    0.0000 C   0  0  0  0  0  0  0  0  0  0  0  0
   -4.3833    6.1667    0.0000 C   0  0  0  0  0  0  0  0  0  0  0  0
   -1.7083    7.1042    0.0000 C   0  0  0  0  0  0  0  0  0  0  0  0
   -0.9958    6.6917    0.0000 C   0  0  0  0  0  0  0  0  0  0  0  0
  2  1  1  0  0  0  0
  3  1  1  0  0  0  0
  4  6  1  0  0  0  0
  5  1  1  0  0  0  0
  6 14  1  0  0  0  0
  7  5  1  0  0  0  0
  8  7  1  0  0  0  0
  9  4  2  0  0  0  0
 10  2  1  0  0  0  0
 11  3  1  0  0  0  0
 12  2  2  0  0  0  0
 13  3  2  0  0  0  0
 14  8  1  0  0  0  0
 15  7  2  0  0  0  0
 16  9  1  0  0  0  0
 17  6  1  0  0  0  0
 18  4  1  0  0  0  0
 19  6  1  0  0  0  0
 20  9  1  0  0  0  0
 21 17  1  0  0  0  0
 22 18  2  0  0  0  0
 23 22  1  0  0  0  0
 11 10  1  0  0  0  0
 23 20  2  0  0  0  0
M  END
> <IDNUMBER>
F6452-0068

> <Chemical_Name>
2-(2,5-dioxopyrrolidin-1-yl)-N-[2-(2-fluorophenyl)-2-methoxypropyl]acetamide

> <CAS>
1797716-01-8

> <PriceCoeff>
1.00

> <MW>
322.33

> <Description>
oil

> <FSP3>
0.44

> <clogP>
1.39

> <TPSA>
75.71

> <Acceptor>
4

> <Donor>
1

> <RotBonds>
6

> <HAC>
23

> <Collection>
General

$$$$
F2477-0097
  -ISIS-  06222321442D

 20 21  0  0  0  0  0  0  0  0999 V2000
    3.6292    2.1000    0.0000 C   0  0  0  0  0  0  0  0  0  0  0  0
    3.6292    3.5000    0.0000 C   0  0  0  0  0  0  0  0  0  0  0  0
    4.9667    1.6708    0.0000 N   0  0  0  0  0  0  0  0  0  0  0  0
    2.4250    1.4000    0.0000 N   0  0  3  0  0  0  0  0  0  0  0  0
    4.9667    3.9333    0.0000 N   0  0  3  0  0  0  0  0  0  0  0  0
    1.2125    3.5000    0.0000 N   0  0  3  0  0  0  0  0  0  0  0  0
    5.7875    2.8000    0.0000 C   0  0  0  0  0  0  0  0  0  0  0  0
    1.2042    2.1000    0.0000 C   0  0  0  0  0  0  0  0  0  0  0  0
    2.4167    4.2000    0.0000 C   0  0  0  0  0  0  0  0  0  0  0  0
    7.1917    2.8000    0.0000 N   0  0  3  0  0  0  0  0  0  0  0  0
    5.4000    5.2625    0.0000 C   0  0  0  0  0  0  0  0  0  0  0  0
    0.2167    1.1083    0.0000 O   0  0  0  0  0  0  0  0  0  0  0  0
    2.4250    5.5917    0.0000 O   0  0  0  0  0  0  0  0  0  0  0  0
    2.4167   -0.0000    0.0000 C   0  0  0  0  0  0  0  0  0  0  0  0
    0.0000    4.1917    0.0000 C   0  0  0  0  0  0  0  0  0  0  0  0
    6.7667    5.5542    0.0000 C   0  0  3  0  0  0  0  0  0  0  0  0
    7.8917    4.0042    0.0000 C   0  0  0  0  0  0  0  0  0  0  0  0
    7.8875    1.5875    0.0000 C   0  0  0  0  0  0  0  0  0  0  0  0
    7.7042    4.5167    0.0000 C   0  0  0  0  0  0  0  0  0  0  0  0
    7.2000    6.8875    0.0000 C   0  0  0  0  0  0  0  0  0  0  0  0
  2  1  2  0  0  0  0
  3  1  1  0  0  0  0
  4  1  1  0  0  0  0
  5  2  1  0  0  0  0
  6  8  1  0  0  0  0
  7  3  2  0  0  0  0
  8  4  1  0  0  0  0
  9  2  1  0  0  0  0
 10  7  1  0  0  0  0
 11  5  1  0  0  0  0
 12  8  2  0  0  0  0
 13  9  2  0  0  0  0
 14  4  1  0  0  0  0
 15  6  1  0  0  0  0
 16 11  1  0  0  0  0
 17 10  1  0  0  0  0
 18 10  1  0  0  0  0
 19 16  1  0  0  0  0
 20 16  1  0  0  0  0
  5  7  1  0  0  0  0
  6  9  1  0  0  0  0
M  END
> <IDNUMBER>
F2477-0097

> <Chemical_Name>
8-(dimethylamino)-1,3-dimethyl-7-(2-methylpropyl)-2,3,6,7-tetrahydro-1H-purine-2,6-dione

> <CAS>
941886-12-0

> <PriceCoeff>
1.50

> <MW>
279.34

> <Description>
solid

> <FSP3>
0.62

> <clogP>
2.12

> <TPSA>
61.68

> <Acceptor>
3

> <Donor>
2

> <RotBonds>
3

> <HAC>
20

> <Collection>
Advanced

> <Reference_compound>
CHEMBL113

> <Similarity>
0.8120

$$$$
F6477-5337
  -ISIS-  06222304352D

 22 23  0  0  0  0  0  0  0  0999 V2000
    1.9667   -0.1292    0.0000 N   0  0  3  0  0  0  0  0  0  0  0  0
    4.4667    0.8000    0.0000 N   0  0  0  0  0  0  0  0  0  0  0  0
    5.2792    0.2208    0.0000 C   0  0  0  0  0  0  0  0  0  0  0  0
    3.6625    0.2208    0.0000 C   0  0  0  0  0  0  0  0  0  0  0  0
    0.9792    0.0833    0.0000 C   0  0  0  0  0  0  0  0  0  0  0  0
    2.0625   -1.1292    0.0000 C   0  0  0  0  0  0  0  0  0  0  0  0
    4.9667   -0.7417    0.0000 S   0  0  0  0  0  0  0  0  0  0  0  0
    2.7125    0.5333    0.0000 C   0  0  0  0  0  0  0  0  0  0  0  0
    3.9667   -0.7417    0.0000 C   0  0  0  0  0  0  0  0  0  0  0  0
    6.2292    0.5333    0.0000 N   0  0  0  0  0  0  0  0  0  0  0  0
    0.4792   -0.7792    0.0000 C   0  0  0  0  0  0  0  0  0  0  0  0
    1.1417   -1.5292    0.0000 C   0  0  0  0  0  0  0  0  0  0  0  0
    0.5750    0.9958    0.0000 O   0  0  0  0  0  0  0  0  0  0  0  0
    2.9292   -1.6292    0.0000 O   0  0  0  0  0  0  0  0  0  0  0  0
    6.9750   -0.1292    0.0000 C   0  0  0  0  0  0  0  0  0  0  0  0
    7.9250    0.1833    0.0000 C   0  0  0  0  0  0  0  0  0  0  0  0
    8.6750   -0.4875    0.0000 C   0  0  0  0  0  0  0  0  0  0  0  0
    8.1292    1.1583    0.0000 C   0  0  0  0  0  0  0  0  0  0  0  0
    9.0792    1.4708    0.0000 C   0  0  0  0  0  0  0  0  0  0  0  0
    9.6167   -0.1750    0.0000 C   0  0  0  0  0  0  0  0  0  0  0  0
    9.8250    0.8083    0.0000 C   0  0  0  0  0  0  0  0  0  0  0  0
   11.2250   -0.1292    0.0000 Cl  0  0  0  0  0  0  0  0  0  0  0  0
  3  2  2  0  0  0  0
  4  8  1  0  0  0  0
  5  1  1  0  0  0  0
  6  1  1  0  0  0  0
  7  9  1  0  0  0  0
  8  1  1  0  0  0  0
  9  4  2  0  0  0  0
 10  3  1  0  0  0  0
 11  5  1  0  0  0  0
 12  6  1  0  0  0  0
 13  5  2  0  0  0  0
 14  6  2  0  0  0  0
 15 10  1  0  0  0  0
 16 15  1  0  0  0  0
 17 16  2  0  0  0  0
 18 16  1  0  0  0  0
 19 18  2  0  0  0  0
 20 17  1  0  0  0  0
 21 19  1  0  0  0  0
 12 11  1  0  0  0  0
  3  7  1  0  0  0  0
 21 20  2  0  0  0  0
  2  4  1  0  0  0  0
M  END
> <IDNUMBER>
F6477-5337

> <Chemical_Name>
1-{[2-(benzylamino)-1,3-thiazol-4-yl]methyl}pyrrolidine-2,5-dione hydrochloride

> <CAS>
2034250-82-1

> <PriceCoeff>
1.50

> <MW>
301.36

> <Description>
solid

> <FSP3>
0.27

> <clogP>
1.31

> <TPSA>
90.54

> <Acceptor>
3

> <Donor>
1

> <RotBonds>
5

> <HAC>
21

> <Collection>
Advanced

$$$$
F8888-8743
  -ISIS-  06222304352D

 18 19  0  0  0  0  0  0  0  0999 V2000
   -1.1875    2.1000    0.0000 O   0  0  0  0  0  0  0  0  0  0  0  0
    1.6417   -0.0583    0.0000 N   0  0  0  0  0  0  0  0  0  0  0  0
   -0.2125    1.3375    0.0000 C   0  0  3  0  0  0  0  0  0  0  0  0
   -0.9542    0.6875    0.0000 C   0  0  3  0  0  0  0  0  0  0  0  0
   -1.1875   -0.5625    0.0000 C   0  0  0  0  0  0  0  0  0  0  0  0
    1.3917    1.3583    0.0000 C   0  0  0  0  0  0  0  0  0  0  0  0
    0.7417    0.6875    0.0000 C   0  0  0  0  0  0  0  0  0  0  0  0
    4.6765    1.8337    0.0000 S   0  0  3  0  0  0  0  0  0  0  0  0
    4.2737    1.1239    0.0000 C   0  0  0  0  0  0  0  0  0  0  0  0
    3.9656    2.2550    0.0000 O   0  0  0  0  0  0  0  0  0  0  0  0
    5.0823    2.5548    0.0000 O   0  0  0  0  0  0  0  0  0  0  0  0
    5.3977    1.4279    0.0000 O   0  0  0  0  0  0  0  0  0  0  0  0
    4.6891    0.4063    0.0000 C   0  0  0  0  0  0  0  0  0  0  0  0
    3.4432    1.1197    0.0000 C   0  0  0  0  0  0  0  0  0  0  0  0
    4.2720   -0.3119    0.0000 C   0  0  0  0  0  0  0  0  0  0  0  0
    3.0353    0.4022    0.0000 C   0  0  0  0  0  0  0  0  0  0  0  0
    3.4487   -0.3118    0.0000 C   0  0  0  0  0  0  0  0  0  0  0  0
    3.0351   -1.0279    0.0000 C   0  0  0  0  0  0  0  0  0  0  0  0
  5  4  1  0  0  0  0
  6  3  1  0  0  0  0
  7  4  1  0  0  0  0
  5  3  1  0  0  0  0
  2  6  1  0  0  0  0
  2  7  1  0  0  0  0
  3  1  1  0  0  0  0
  4  1  1  0  0  0  0
  9  8  1  0  0  0  0
 10  8  2  0  0  0  0
 11  8  2  0  0  0  0
 12  8  1  0  0  0  0
 13  9  1  0  0  0  0
 14  9  2  0  0  0  0
 15 13  2  0  0  0  0
 16 14  1  0  0  0  0
 17 16  2  0  0  0  0
 18 17  1  0  0  0  0
 15 17  1  0  0  0  0
M  END
> <IDNUMBER>
F8888-8743

> <Chemical_Name>
4-methylbenzene-1-sulfonic acid; 6-oxa-3-azabicyclo[3.1.1]heptane

> <CAS>
1339953-58-0

> <PriceCoeff>
1.50

> <MW>
99.13

> <Description>
solid

> <FSP3>
1.00

> <clogP>
-0.65

> <TPSA>
21.26

> <Acceptor>
1

> <Donor>
1

> <RotBonds>
0

> <HAC>
7

> <Collection>
Advanced

> <Reference_compound>
PRI5904

> <Similarity>
0.8060

$$$$
F6619-8934
  -ISIS-  06222321472D

 13 14  0  0  0  0  0  0  0  0999 V2000
   -5.3833    5.1250    0.0000 O   0  0  0  0  0  0  0  0  0  0  0  0
   -3.0500    4.1167    0.0000 O   0  0  0  0  0  0  0  0  0  0  0  0
   -4.4875    4.1292    0.0000 C   0  0  3  0  0  0  0  0  0  0  0  0
   -3.7625    3.7208    0.0000 C   0  0  0  0  0  0  0  0  0  0  0  0
   -3.0500    4.9542    0.0000 C   0  0  0  0  0  0  0  0  0  0  0  0
   -4.5833    4.9500    0.0000 C   0  0  0  0  0  0  0  0  0  0  0  0
   -5.7958    4.4042    0.0000 C   0  0  0  0  0  0  0  0  0  0  0  0
   -5.2375    3.8083    0.0000 C   0  0  0  0  0  0  0  0  0  0  0  0
   -2.3333    5.3542    0.0000 C   0  0  0  0  0  0  0  0  0  0  0  0
   -3.7625    5.3417    0.0000 C   0  0  0  0  0  0  0  0  0  0  0  0
   -3.7708    6.1750    0.0000 C   0  0  0  0  0  0  0  0  0  0  0  0
   -2.3458    6.1792    0.0000 C   0  0  0  0  0  0  0  0  0  0  0  0
   -3.0583    6.5917    0.0000 C   0  0  0  0  0  0  0  0  0  0  0  0
  2  4  1  0  0  0  0
  3  6  1  0  0  0  0
  4  3  1  0  0  0  0
  5  2  1  0  0  0  0
  6  1  1  0  0  0  0
  7  1  1  0  0  0  0
  8  7  1  0  0  0  0
  9  5  2  0  0  0  0
 10  5  1  0  0  0  0
 11 10  2  0  0  0  0
 12  9  1  0  0  0  0
 13 11  1  0  0  0  0
  3  8  1  0  0  0  0
 13 12  2  0  0  0  0
M  END
> <IDNUMBER>
F6619-8934

> <Chemical_Name>
3-(phenoxymethyl)oxolane

> <CAS>
1341645-29-1

> <PriceCoeff>
1.50

> <MW>
178.23

> <Description>
liquid

> <FSP3>
0.45

> <clogP>
2.24

> <TPSA>
18.46

> <Acceptor>
2

> <Donor>
0

> <RotBonds>
3

> <HAC>
13

> <Collection>
Advanced

> <Reference_compound>
CHEMBL2252611

> <Similarity>
0.8380

$$$$
F0886-0009
  -ISIS-  06222321452D

 18 19  0  0  0  0  0  0  0  0999 V2000
   -0.0083    1.2833    0.0000 C   0  0  0  0  0  0  0  0  0  0  0  0
    0.2875    1.8208    0.0000 C   0  0  0  0  0  0  0  0  0  0  0  0
    0.4167    0.8375    0.0000 N   0  0  0  0  0  0  0  0  0  0  0  0
   -0.6458    1.2708    0.0000 N   0  0  3  0  0  0  0  0  0  0  0  0
   -0.6583    2.3125    0.0000 N   0  0  3  0  0  0  0  0  0  0  0  0
   -0.9833    1.7708    0.0000 C   0  0  0  0  0  0  0  0  0  0  0  0
   -0.0458    2.3375    0.0000 C   0  0  0  0  0  0  0  0  0  0  0  0
    1.0042    1.1125    0.0000 C   0  0  0  0  0  0  0  0  0  0  0  0
    0.8792    1.7125    0.0000 N   0  0  3  0  0  0  0  0  0  0  0  0
   -1.6083    1.7583    0.0000 O   0  0  0  0  0  0  0  0  0  0  0  0
    0.2417    2.8833    0.0000 O   0  0  0  0  0  0  0  0  0  0  0  0
    1.5750    0.8500    0.0000 N   0  0  0  0  0  0  0  0  0  0  0  0
   -0.9375    0.7333    0.0000 C   0  0  0  0  0  0  0  0  0  0  0  0
   -0.8250    2.9250    0.0000 C   0  0  0  0  0  0  0  0  0  0  0  0
    1.3042    2.1458    0.0000 C   0  0  0  0  0  0  0  0  0  0  0  0
    2.7292   -0.5417    0.0000 O   0  0  0  0  0  0  0  0  0  0  0  0
    1.7250    0.3000    0.0000 C   0  0  0  0  0  0  0  0  0  0  0  0
    2.6125    0.0875    0.0000 C   0  0  0  0  0  0  0  0  0  0  0  0
  2  1  2  0  0  0  0
  3  1  1  0  0  0  0
  4  1  1  0  0  0  0
  5  6  1  0  0  0  0
  6  4  1  0  0  0  0
  7  2  1  0  0  0  0
  8  3  2  0  0  0  0
  9  2  1  0  0  0  0
 10  6  2  0  0  0  0
 11  7  2  0  0  0  0
 12  8  1  0  0  0  0
 13  4  1  0  0  0  0
 14  5  1  0  0  0  0
 15  9  1  0  0  0  0
 16 18  1  0  0  0  0
 17 12  1  0  0  0  0
 18 17  1  0  0  0  0
  8  9  1  0  0  0  0
  5  7  1  0  0  0  0
M  END
> <IDNUMBER>
F0886-0009

> <Chemical_Name>
8-[(2-hydroxyethyl)amino]-1,3,7-trimethyl-2,3,6,7-tetrahydro-1H-purine-2,6-dione

> <CAS>
6320-10-1

> <PriceCoeff>
1.50

> <MW>
253.26

> <Description>
solid

> <FSP3>
0.50

> <clogP>
-0.25

> <TPSA>
90.70

> <Acceptor>
4

> <Donor>
3

> <RotBonds>
3

> <HAC>
18

> <Collection>
Advanced

> <Reference_compound>
CHEMBL113

> <Similarity>
0.8370

$$$$
F0001-1297
  -ISIS-  06222321142D

  8  9  0  0  0  0  0  0  0  0999 V2000
    1.1250   -0.9292    0.0000 C   0  0  0  0  0  0  0  0  0  0  0  0
    0.3292   -0.7167    0.0000 C   0  0  3  0  0  0  0  0  0  0  0  0
    0.8250   -1.9292    0.0000 C   0  0  0  0  0  0  0  0  0  0  0  0
    0.1125    0.0833    0.0000 C   0  0  0  0  0  0  0  0  0  0  0  0
    1.8417   -0.5292    0.0000 O   0  0  0  0  0  0  0  0  0  0  0  0
    0.1125   -1.5167    0.0000 C   0  0  3  0  0  0  0  0  0  0  0  0
   -0.4708   -0.9375    0.0000 C   0  0  0  0  0  0  0  0  0  0  0  0
   -0.6833   -1.7292    0.0000 C   0  0  0  0  0  0  0  0  0  0  0  0
  2  1  1  0  0  0  0
  3  1  1  0  0  0  0
  4  2  1  0  0  0  0
  5  1  2  0  0  0  0
  6  3  1  0  0  0  0
  7  2  1  0  0  0  0
  8  6  1  0  0  0  0
  4  6  1  0  0  0  0
  8  7  1  0  0  0  0
M  END
> <IDNUMBER>
F0001-1297

> <Chemical_Name>
bicyclo[2.2.1]heptan-2-one

> <CAS>
497-38-1

> <PriceCoeff>
1.00

> <MW>
110.15

> <Description>
solid

> <FSP3>
0.86

> <clogP>
1.14

> <TPSA>
17.07

> <Acceptor>
1

> <Donor>
0

> <RotBonds>
0

> <HAC>
8

> <Collection>
General

> <Reference_compound>
CHEMBL2268548

> <Similarity>
0.8330

$$$$
F3260-0408
  -ISIS-  06222321442D

 17 18  0  0  0  0  0  0  0  0999 V2000
    3.4125    2.1000    0.0000 C   0  0  0  0  0  0  0  0  0  0  0  0
    4.7417    1.6708    0.0000 N   0  0  0  0  0  0  0  0  0  0  0  0
    3.4125    3.5000    0.0000 C   0  0  0  0  0  0  0  0  0  0  0  0
    2.1917    1.4000    0.0000 N   0  0  3  0  0  0  0  0  0  0  0  0
    0.9875    2.1000    0.0000 C   0  0  0  0  0  0  0  0  0  0  0  0
    0.9875    3.5000    0.0000 N   0  0  0  0  0  0  0  0  0  0  0  0
    5.5667    2.8000    0.0000 C   0  0  0  0  0  0  0  0  0  0  0  0
    2.1917    4.2000    0.0000 C   0  0  0  0  0  0  0  0  0  0  0  0
    4.7417    3.9333    0.0000 N   0  0  3  0  0  0  0  0  0  0  0  0
    0.0000    1.1125    0.0000 O   0  0  0  0  0  0  0  0  0  0  0  0
    2.1917    5.5917    0.0000 O   0  0  0  0  0  0  0  0  0  0  0  0
    6.9667    2.8000    0.0000 N   0  0  0  0  0  0  0  0  0  0  0  0
    2.1917   -0.0000    0.0000 C   0  0  0  0  0  0  0  0  0  0  0  0
    5.1750    5.2625    0.0000 C   0  0  0  0  0  0  0  0  0  0  0  0
    7.6667    4.0042    0.0000 C   0  0  0  0  0  0  0  0  0  0  0  0
    6.5417    5.5542    0.0000 C   0  0  0  0  0  0  0  0  0  0  0  0
    9.0667    4.0042    0.0000 C   0  0  0  0  0  0  0  0  0  0  0  0
  2  1  1  0  0  0  0
  3  1  2  0  0  0  0
  4  1  1  0  0  0  0
  5  4  1  0  0  0  0
  6  5  1  0  0  0  0
  7  2  2  0  0  0  0
  8  3  1  0  0  0  0
  9  3  1  0  0  0  0
 10  5  2  0  0  0  0
 11  8  2  0  0  0  0
 12  7  1  0  0  0  0
 13  4  1  0  0  0  0
 14  9  1  0  0  0  0
 15 12  1  0  0  0  0
 16 14  1  0  0  0  0
 17 15  1  0  0  0  0
  9  7  1  0  0  0  0
  6  8  1  0  0  0  0
M  END
> <IDNUMBER>
F3260-0408

> <Chemical_Name>
7-ethyl-8-(ethylamino)-3-methyl-2,3,6,7-tetrahydro-1H-purine-2,6-dione

> <CAS>
923680-45-9

> <PriceCoeff>
1.50

> <MW>
237.26

> <Description>
solid

> <FSP3>
0.50

> <clogP>
0.95

> <TPSA>
79.26

> <Acceptor>
3

> <Donor>
3

> <RotBonds>
3

> <HAC>
17

> <Collection>
Advanced

> <Reference_compound>
CHEMBL113

> <Similarity>
0.8150

$$$$
F1909-1624
  -ISIS-  06222304352D

 15 14  0  0  0  0  0  0  0  0999 V2000
    0.4792    0.5375    0.0000 C   0  0  0  0  0  0  0  0  0  0  0  0
    1.1917    0.1250    0.0000 C   0  0  0  0  0  0  0  0  0  0  0  0
    4.7625    0.5708    0.0000 N   0  0  0  0  0  0  0  0  0  0  0  0
    1.9042    0.5458    0.0000 O   0  0  0  0  0  0  0  0  0  0  0  0
    0.4750    1.3625    0.0000 O   0  0  0  0  0  0  0  0  0  0  0  0
    3.3375    0.5500    0.0000 C   0  0  0  0  0  0  0  0  0  0  0  0
    4.0542    0.1458    0.0000 C   0  0  0  0  0  0  0  0  0  0  0  0
    2.6250    0.1333    0.0000 C   0  0  0  0  0  0  0  0  0  0  0  0
    1.1917   -0.7042    0.0000 C   0  0  0  0  0  0  0  0  0  0  0  0
   -0.2333    0.1250    0.0000 C   0  0  0  0  0  0  0  0  0  0  0  0
    5.4792    0.1583    0.0000 C   0  0  0  0  0  0  0  0  0  0  0  0
    1.1917    1.7750    0.0000 C   0  0  0  0  0  0  0  0  0  0  0  0
   -0.2333   -0.7042    0.0000 C   0  0  0  0  0  0  0  0  0  0  0  0
    0.4792   -1.1167    0.0000 C   0  0  0  0  0  0  0  0  0  0  0  0
    6.8667    0.4250    0.0000 Cl  0  0  0  0  0  0  0  0  0  0  0  0
  3  7  1  0  0  0  0
  4  2  1  0  0  0  0
  5  1  1  0  0  0  0
  6  8  1  0  0  0  0
  7  6  1  0  0  0  0
  8  4  1  0  0  0  0
  9  2  1  0  0  0  0
 10  1  1  0  0  0  0
 11  3  1  0  0  0  0
 12  5  1  0  0  0  0
 13 10  2  0  0  0  0
 14 13  1  0  0  0  0
 14  9  2  0  0  0  0
  2  1  2  0  0  0  0
M  END
> <IDNUMBER>
F1909-1624

> <Chemical_Name>
[3-(2-methoxyphenoxy)propyl](methyl)amine hydrochloride

> <CAS>
1609407-81-9

> <PriceCoeff>
1.00

> <MW>
195.25

> <Description>
solid

> <FSP3>
0.45

> <clogP>
1.66

> <TPSA>
30.49

> <Acceptor>
2

> <Donor>
1

> <RotBonds>
6

> <HAC>
14

> <Collection>
General

> <Reference_compound>
CHEMBL2252478

> <Similarity>
0.8000

$$$$
F6477-5322
  -ISIS-  06222304352D

 23 24  0  0  0  0  0  0  0  0999 V2000
    1.9667    0.6458    0.0000 N   0  0  3  0  0  0  0  0  0  0  0  0
    4.9667    0.0375    0.0000 C   0  0  0  0  0  0  0  0  0  0  0  0
    3.9667    0.0375    0.0000 N   0  0  0  0  0  0  0  0  0  0  0  0
    3.6625    1.0000    0.0000 C   0  0  0  0  0  0  0  0  0  0  0  0
    0.9792    0.8583    0.0000 C   0  0  0  0  0  0  0  0  0  0  0  0
    2.0625   -0.3500    0.0000 C   0  0  0  0  0  0  0  0  0  0  0  0
    5.2792    1.0000    0.0000 S   0  0  0  0  0  0  0  0  0  0  0  0
    2.7125    1.3125    0.0000 C   0  0  0  0  0  0  0  0  0  0  0  0
    4.4667    1.5833    0.0000 C   0  0  0  0  0  0  0  0  0  0  0  0
    5.5542   -0.7667    0.0000 N   0  0  0  0  0  0  0  0  0  0  0  0
    8.1375   -1.3667    0.0000 C   0  0  0  0  0  0  0  0  0  0  0  0
    7.1417   -1.4750    0.0000 C   0  0  0  0  0  0  0  0  0  0  0  0
    6.5542   -0.6667    0.0000 C   0  0  0  0  0  0  0  0  0  0  0  0
    8.5417   -0.4500    0.0000 C   0  0  0  0  0  0  0  0  0  0  0  0
    1.1417   -0.7542    0.0000 C   0  0  0  0  0  0  0  0  0  0  0  0
    0.4792   -0.0042    0.0000 C   0  0  0  0  0  0  0  0  0  0  0  0
    2.9292   -0.8542    0.0000 O   0  0  0  0  0  0  0  0  0  0  0  0
    0.5750    1.7708    0.0000 O   0  0  0  0  0  0  0  0  0  0  0  0
    7.9542    0.3583    0.0000 C   0  0  0  0  0  0  0  0  0  0  0  0
    8.7292   -2.1750    0.0000 F   0  0  0  0  0  0  0  0  0  0  0  0
    6.9542    0.2458    0.0000 C   0  0  0  0  0  0  0  0  0  0  0  0
    9.5375   -0.3375    0.0000 F   0  0  0  0  0  0  0  0  0  0  0  0
   10.9917   -0.2042    0.0000 Cl  0  0  0  0  0  0  0  0  0  0  0  0
  3  4  1  0  0  0  0
  4  8  1  0  0  0  0
  5  1  1  0  0  0  0
  6  1  1  0  0  0  0
  7  9  1  0  0  0  0
  8  1  1  0  0  0  0
  9  4  2  0  0  0  0
 10  2  1  0  0  0  0
 11 12  1  0  0  0  0
 12 13  2  0  0  0  0
 13 10  1  0  0  0  0
 14 19  1  0  0  0  0
 15  6  1  0  0  0  0
 16  5  1  0  0  0  0
 17  6  2  0  0  0  0
 18  5  2  0  0  0  0
 19 21  2  0  0  0  0
 20 11  1  0  0  0  0
 21 13  1  0  0  0  0
 22 14  1  0  0  0  0
 15 16  1  0  0  0  0
  7  2  1  0  0  0  0
 14 11  2  0  0  0  0
  2  3  2  0  0  0  0
M  END
> <IDNUMBER>
F6477-5322

> <Chemical_Name>
1-({2-[(3,4-difluorophenyl)amino]-1,3-thiazol-4-yl}methyl)pyrrolidine-2,5-dione hydrochloride

> <CAS>
2034393-91-2

> <PriceCoeff>
1.50

> <MW>
323.32

> <Description>
solid

> <FSP3>
0.21

> <clogP>
2.13

> <TPSA>
90.54

> <Acceptor>
4

> <Donor>
1

> <RotBonds>
4

> <HAC>
22

> <Collection>
Advanced

$$$$
F0373-0038
  -ISIS-  06222321142D

 16 17  0  0  0  0  0  0  0  0999 V2000
   -0.2125   -1.1667    0.0000 C   0  0  0  0  0  0  0  0  0  0  0  0
   -0.2125    0.1458    0.0000 C   0  0  0  0  0  0  0  0  0  0  0  0
   -1.3458   -1.8292    0.0000 N   0  0  3  0  0  0  0  0  0  0  0  0
   -2.4958   -1.1667    0.0000 C   0  0  0  0  0  0  0  0  0  0  0  0
   -2.4958    0.1458    0.0000 N   0  0  0  0  0  0  0  0  0  0  0  0
    1.0167   -1.5667    0.0000 N   0  0  0  0  0  0  0  0  0  0  0  0
   -1.3458    0.8000    0.0000 C   0  0  0  0  0  0  0  0  0  0  0  0
    1.0167    0.5458    0.0000 N   0  0  3  0  0  0  0  0  0  0  0  0
    1.7792   -0.5042    0.0000 C   0  0  0  0  0  0  0  0  0  0  0  0
    1.4500    1.8125    0.0000 C   0  0  0  0  0  0  0  0  0  0  0  0
    2.7500    2.0958    0.0000 C   0  0  0  0  0  0  0  0  0  0  0  0
   -3.6500   -1.8500    0.0000 O   0  0  0  0  0  0  0  0  0  0  0  0
   -1.3458    2.1208    0.0000 O   0  0  0  0  0  0  0  0  0  0  0  0
    3.6167    1.1208    0.0000 O   0  0  0  0  0  0  0  0  0  0  0  0
   -1.3458   -3.1500    0.0000 C   0  0  0  0  0  0  0  0  0  0  0  0
    3.1500    3.3458    0.0000 O   0  0  0  0  0  0  0  0  0  0  0  0
  2  1  2  0  0  0  0
  3  1  1  0  0  0  0
  4  3  1  0  0  0  0
  5  4  1  0  0  0  0
  6  1  1  0  0  0  0
  7  2  1  0  0  0  0
  8  2  1  0  0  0  0
  9  6  2  0  0  0  0
 10  8  1  0  0  0  0
 11 10  1  0  0  0  0
 12  4  2  0  0  0  0
 13  7  2  0  0  0  0
 14 11  2  0  0  0  0
 15  3  1  0  0  0  0
 16 11  1  0  0  0  0
  8  9  1  0  0  0  0
  5  7  1  0  0  0  0
M  END
> <IDNUMBER>
F0373-0038

> <Chemical_Name>
2-(3-methyl-2,6-dioxo-2,3,6,7-tetrahydro-1H-purin-7-yl)acetic acid

> <CAS>
102838-43-7

> <PriceCoeff>
1.00

> <MW>
224.18

> <Description>
solid

> <FSP3>
0.25

> <clogP>
-1.29

> <TPSA>
104.53

> <Acceptor>
5

> <Donor>
2

> <RotBonds>
2

> <HAC>
16

> <Collection>
General

> <Reference_compound>
CHEMBL113

> <Similarity>
0.8490

$$$$
F5577-0010
  -ISIS-  06222321442D

 22 24  0  0  0  0  0  0  0  0999 V2000
   -1.0083    2.5583    0.0000 C   0  0  0  0  0  0  0  0  0  0  0  0
   -2.4333    2.5583    0.0000 C   0  0  0  0  0  0  0  0  0  0  0  0
   -1.7208    2.9833    0.0000 C   0  0  0  0  0  0  0  0  0  0  0  0
   -2.4375    1.7333    0.0000 C   0  0  0  0  0  0  0  0  0  0  0  0
   -1.0083    1.7333    0.0000 C   0  0  0  0  0  0  0  0  0  0  0  0
   -1.7208    1.3208    0.0000 N   0  0  3  0  0  0  0  0  0  0  0  0
   -3.1500    1.3208    0.0000 C   0  0  0  0  0  0  0  0  0  0  0  0
   -3.8625    1.7333    0.0000 C   0  0  0  0  0  0  0  0  0  0  0  0
   -3.1500    2.9708    0.0000 C   0  0  0  0  0  0  0  0  0  0  0  0
   -0.2875    2.9708    0.0000 C   0  0  0  0  0  0  0  0  0  0  0  0
   -3.8625    2.5583    0.0000 C   0  0  0  0  0  0  0  0  0  0  0  0
   -4.5833    1.3208    0.0000 N   0  0  3  0  0  0  0  0  0  0  0  0
   -1.7208    3.8000    0.0000 O   0  0  0  0  0  0  0  0  0  0  0  0
   -0.2875    3.7958    0.0000 O   0  0  0  0  0  0  0  0  0  0  0  0
   -4.5833    2.9708    0.0000 F   0  0  0  0  0  0  0  0  0  0  0  0
    0.4250    2.5583    0.0000 O   0  0  0  0  0  0  0  0  0  0  0  0
   -1.7250    0.4958    0.0000 C   0  0  0  0  0  0  0  0  0  0  0  0
   -4.5833    0.4958    0.0000 C   0  0  0  0  0  0  0  0  0  0  0  0
   -5.2958    1.7333    0.0000 C   0  0  0  0  0  0  0  0  0  0  0  0
   -5.2958    0.0833    0.0000 C   0  0  0  0  0  0  0  0  0  0  0  0
   -6.0000    1.3208    0.0000 C   0  0  0  0  0  0  0  0  0  0  0  0
   -6.0125    0.4958    0.0000 C   0  0  0  0  0  0  0  0  0  0  0  0
  2  3  1  0  0  0  0
  3  1  1  0  0  0  0
  4  6  1  0  0  0  0
  5  1  2  0  0  0  0
  6  5  1  0  0  0  0
  7  4  2  0  0  0  0
  8  7  1  0  0  0  0
  9  2  2  0  0  0  0
 10  1  1  0  0  0  0
 11  9  1  0  0  0  0
 12  8  1  0  0  0  0
 13  3  2  0  0  0  0
 14 10  2  0  0  0  0
 15 11  1  0  0  0  0
 16 10  1  0  0  0  0
 17  6  1  0  0  0  0
 18 12  1  0  0  0  0
 19 12  1  0  0  0  0
 20 18  1  0  0  0  0
 21 19  1  0  0  0  0
 22 21  1  0  0  0  0
  4  2  1  0  0  0  0
  8 11  2  0  0  0  0
 22 20  1  0  0  0  0
M  END
> <IDNUMBER>
F5577-0010

> <Chemical_Name>
6-fluoro-1-methyl-4-oxo-7-(piperidin-1-yl)-1,4-dihydroquinoline-3-carboxylic acid

> <CAS>
1030120-88-7

> <PriceCoeff>
1.50

> <MW>
304.32

> <Description>
solid

> <FSP3>
0.38

> <clogP>
2.36

> <TPSA>
60.85

> <Acceptor>
5

> <Donor>
2

> <RotBonds>
2

> <HAC>
22

> <Collection>
Advanced

> <Reference_compound>
CHEMBL8

> <Similarity>
0.8770

$$$$
F8889-0707
  -ISIS-  06222321472D

 10 10  0  0  0  0  0  0  0  0999 V2000
    0.7125    1.2708    0.0000 C   0  0  3  0  0  0  0  0  0  0  0  0
    0.0000    0.8583    0.0000 C   0  0  3  0  0  0  0  0  0  0  0  0
    0.7125    2.1208    0.0000 C   0  0  3  0  0  0  0  0  0  0  0  0
   -0.7500    1.2708    0.0000 O   0  0  0  0  0  0  0  0  0  0  0  0
    1.4250    0.8583    0.0000 C   0  0  0  0  0  0  0  0  0  0  0  0
    0.0000   -0.0000    0.0000 C   0  0  0  0  0  0  0  0  0  0  0  0
    1.4250    2.5333    0.0000 C   0  0  0  0  0  0  0  0  0  0  0  0
    0.0000    2.5333    0.0000 C   0  0  0  0  0  0  0  0  0  0  0  0
    1.4250   -0.0000    0.0000 C   0  0  0  0  0  0  0  0  0  0  0  0
    0.7125   -0.4125    0.0000 C   0  0  0  0  0  0  0  0  0  0  0  0
  2  1  1  0  0  0  0
  3  1  1  0  0  0  0
  4  2  1  0  0  0  0
  5  1  1  0  0  0  0
  6  2  1  0  0  0  0
  7  3  1  0  0  0  0
  8  3  1  0  0  0  0
  9  5  1  0  0  0  0
 10  9  1  0  0  0  0
 10  6  1  0  0  0  0
M  END
> <IDNUMBER>
F8889-0707

> <Chemical_Name>
2-(propan-2-yl)cyclohexan-1-ol

> <CAS>
96-07-1

> <PriceCoeff>
1.00

> <MW>
142.24

> <Description>
oil

> <FSP3>
1.00

> <clogP>
2.71

> <TPSA>
20.23

> <Acceptor>
1

> <Donor>
1

> <RotBonds>
1

> <HAC>
10

> <Collection>
General

> <Reference_compound>
CHEMBL486208

> <Similarity>
0.8330

$$$$
F6473-3602
  -ISIS-  06222321462D

 24 26  0  0  0  0  0  0  0  0999 V2000
   -1.3083    5.1042    0.0000 N   0  0  3  0  0  0  0  0  0  0  0  0
   -3.0333    4.1042    0.0000 N   0  0  3  0  0  0  0  0  0  0  0  0
   -2.0333    4.6875    0.0000 C   0  0  3  0  0  0  0  0  0  0  0  0
   -3.7458    3.6958    0.0000 C   0  0  0  0  0  0  0  0  0  0  0  0
   -1.2250    5.9167    0.0000 C   0  0  0  0  0  0  0  0  0  0  0  0
   -0.5583    4.7667    0.0000 C   0  0  0  0  0  0  0  0  0  0  0  0
   -3.7458    2.8750    0.0000 C   0  0  3  0  0  0  0  0  0  0  0  0
   -2.8208    4.9000    0.0000 C   0  0  0  0  0  0  0  0  0  0  0  0
   -2.2458    3.8958    0.0000 C   0  0  0  0  0  0  0  0  0  0  0  0
   -3.7500    2.0625    0.0000 O   0  0  0  0  0  0  0  0  0  0  0  0
   -4.4583    4.1042    0.0000 O   0  0  0  0  0  0  0  0  0  0  0  0
   -0.4208    6.0917    0.0000 C   0  0  0  0  0  0  0  0  0  0  0  0
   -0.0083    5.3792    0.0000 C   0  0  0  0  0  0  0  0  0  0  0  0
   -1.8417    6.4708    0.0000 O   0  0  0  0  0  0  0  0  0  0  0  0
   -0.3875    3.9625    0.0000 O   0  0  0  0  0  0  0  0  0  0  0  0
   -3.0333    1.6583    0.0000 C   0  0  0  0  0  0  0  0  0  0  0  0
   -1.5958    0.8500    0.0000 C   0  0  0  0  0  0  0  0  0  0  0  0
   -0.8708    0.4375    0.0000 Cl  0  0  0  0  0  0  0  0  0  0  0  0
   -3.0250    0.8333    0.0000 C   0  0  0  0  0  0  0  0  0  0  0  0
   -2.3208    2.0708    0.0000 C   0  0  0  0  0  0  0  0  0  0  0  0
   -2.3000    0.4250    0.0000 C   0  0  0  0  0  0  0  0  0  0  0  0
   -1.6000    1.6750    0.0000 C   0  0  0  0  0  0  0  0  0  0  0  0
   -4.5708    2.8833    0.0000 C   0  0  0  0  0  0  0  0  0  0  0  0
   -2.9333    2.8750    0.0000 C   0  0  0  0  0  0  0  0  0  0  0  0
  2  9  1  0  0  0  0
  3  1  1  0  0  0  0
  4  2  1  0  0  0  0
  5  1  1  0  0  0  0
  6  1  1  0  0  0  0
  7  4  1  0  0  0  0
  8  3  1  0  0  0  0
  9  3  1  0  0  0  0
 10  7  1  0  0  0  0
 11  4  2  0  0  0  0
 12  5  1  0  0  0  0
 13  6  1  0  0  0  0
 14  5  2  0  0  0  0
 15  6  2  0  0  0  0
 16 10  1  0  0  0  0
 17 22  2  0  0  0  0
 18 17  1  0  0  0  0
 19 16  1  0  0  0  0
 20 16  2  0  0  0  0
 21 19  2  0  0  0  0
 22 20  1  0  0  0  0
 23  7  1  0  0  0  0
 24  7  1  0  0  0  0
 12 13  1  0  0  0  0
  2  8  1  0  0  0  0
 21 17  1  0  0  0  0
M  END
> <IDNUMBER>
F6473-3602

> <Chemical_Name>
1-{1-[2-(4-chlorophenoxy)-2-methylpropanoyl]azetidin-3-yl}pyrrolidine-2,5-dione

> <CAS>
1795085-49-2

> <PriceCoeff>
1.50

> <MW>
350.80

> <Description>
solid

> <FSP3>
0.47

> <clogP>
2.33

> <TPSA>
66.92

> <Acceptor>
4

> <Donor>
0

> <RotBonds>
5

> <HAC>
24

> <Collection>
Advanced

$$$$
F6374-0166
  -ISIS-  06222321152D

 24 26  0  0  0  0  0  0  0  0999 V2000
   -4.5958    5.0333    0.0000 N   0  0  3  0  0  0  0  0  0  0  0  0
   -3.8708    3.8000    0.0000 C   0  0  0  0  0  0  0  0  0  0  0  0
   -4.5833    4.2125    0.0000 C   0  0  0  0  0  0  0  0  0  0  0  0
   -3.9208    5.5167    0.0000 C   0  0  0  0  0  0  0  0  0  0  0  0
   -5.2583    5.5042    0.0000 C   0  0  0  0  0  0  0  0  0  0  0  0
   -3.1583    4.2042    0.0000 N   0  0  3  0  0  0  0  0  0  0  0  0
    0.4042    5.4375    0.0000 C   0  0  0  0  0  0  0  0  0  0  0  0
    1.1250    5.0292    0.0000 N   0  0  0  0  0  0  0  0  0  0  0  0
   -3.8708    2.9833    0.0000 O   0  0  0  0  0  0  0  0  0  0  0  0
   -5.0167    6.2917    0.0000 C   0  0  0  0  0  0  0  0  0  0  0  0
   -4.1875    6.3042    0.0000 C   0  0  0  0  0  0  0  0  0  0  0  0
   -6.0292    5.2417    0.0000 O   0  0  0  0  0  0  0  0  0  0  0  0
   -3.1458    5.2667    0.0000 O   0  0  0  0  0  0  0  0  0  0  0  0
   -3.1583    5.0292    0.0000 C   0  0  0  0  0  0  0  0  0  0  0  0
   -2.4458    3.8000    0.0000 C   0  0  0  0  0  0  0  0  0  0  0  0
   -0.3083    5.0292    0.0000 S   0  0  0  0  0  0  0  0  0  0  0  0
   -1.0125    5.4375    0.0000 C   0  0  0  0  0  0  0  0  0  0  0  0
   -1.7250    4.2042    0.0000 C   0  0  0  0  0  0  0  0  0  0  0  0
   -2.4458    5.4417    0.0000 C   0  0  0  0  0  0  0  0  0  0  0  0
   -1.7333    5.0292    0.0000 C   0  0  3  0  0  0  0  0  0  0  0  0
    1.8375    5.4375    0.0000 C   0  0  0  0  0  0  0  0  0  0  0  0
    0.4042    6.2542    0.0000 C   0  0  0  0  0  0  0  0  0  0  0  0
    1.8292    6.2542    0.0000 C   0  0  0  0  0  0  0  0  0  0  0  0
    1.1250    6.6750    0.0000 C   0  0  0  0  0  0  0  0  0  0  0  0
  2  3  1  0  0  0  0
  3  1  1  0  0  0  0
  4  1  1  0  0  0  0
  5  1  1  0  0  0  0
  6  2  1  0  0  0  0
  7 16  1  0  0  0  0
  8  7  2  0  0  0  0
  9  2  2  0  0  0  0
 10  5  1  0  0  0  0
 11  4  1  0  0  0  0
 12  5  2  0  0  0  0
 13  4  2  0  0  0  0
 14  6  1  0  0  0  0
 15  6  1  0  0  0  0
 16 17  1  0  0  0  0
 17 20  1  0  0  0  0
 18 15  1  0  0  0  0
 19 14  1  0  0  0  0
 20 18  1  0  0  0  0
 21  8  1  0  0  0  0
 22  7  1  0  0  0  0
 23 24  1  0  0  0  0
 24 22  2  0  0  0  0
 10 11  1  0  0  0  0
 20 19  1  0  0  0  0
 21 23  2  0  0  0  0
M  END
> <IDNUMBER>
F6374-0166

> <Chemical_Name>
1-(2-oxo-2-{4-[(pyridin-2-ylsulfanyl)methyl]piperidin-1-yl}ethyl)pyrrolidine-2,5-dione

> <CAS>
1421500-46-0

> <PriceCoeff>
1.00

> <MW>
347.43

> <Description>
oil

> <FSP3>
0.53

> <clogP>
1.18

> <TPSA>
95.88

> <Acceptor>
4

> <Donor>
1

> <RotBonds>
6

> <HAC>
24

> <Collection>
General

$$$$
F6619-8931
  -ISIS-  06222321472D

 14 15  0  0  0  0  0  0  0  0999 V2000
   -5.9083    4.1292    0.0000 O   0  0  0  0  0  0  0  0  0  0  0  0
   -3.0500    4.1167    0.0000 O   0  0  0  0  0  0  0  0  0  0  0  0
   -4.4833    4.1250    0.0000 C   0  0  3  0  0  0  0  0  0  0  0  0
   -3.7625    3.7125    0.0000 C   0  0  0  0  0  0  0  0  0  0  0  0
   -3.0500    4.9542    0.0000 C   0  0  0  0  0  0  0  0  0  0  0  0
   -5.1958    3.7208    0.0000 C   0  0  0  0  0  0  0  0  0  0  0  0
   -5.9125    4.9500    0.0000 C   0  0  0  0  0  0  0  0  0  0  0  0
   -4.4833    4.9500    0.0000 C   0  0  0  0  0  0  0  0  0  0  0  0
   -2.3333    5.3542    0.0000 C   0  0  0  0  0  0  0  0  0  0  0  0
   -3.7625    5.3417    0.0000 C   0  0  0  0  0  0  0  0  0  0  0  0
   -5.1958    5.3542    0.0000 C   0  0  0  0  0  0  0  0  0  0  0  0
   -3.7708    6.1750    0.0000 C   0  0  0  0  0  0  0  0  0  0  0  0
   -2.3458    6.1792    0.0000 C   0  0  0  0  0  0  0  0  0  0  0  0
   -3.0583    6.5917    0.0000 C   0  0  0  0  0  0  0  0  0  0  0  0
  2  4  1  0  0  0  0
  3  6  1  0  0  0  0
  4  3  1  0  0  0  0
  5  2  1  0  0  0  0
  6  1  1  0  0  0  0
  7  1  1  0  0  0  0
  8 11  1  0  0  0  0
  9  5  2  0  0  0  0
 10  5  1  0  0  0  0
 11  7  1  0  0  0  0
 12 10  2  0  0  0  0
 13  9  1  0  0  0  0
 14 12  1  0  0  0  0
  3  8  1  0  0  0  0
 14 13  2  0  0  0  0
M  END
> <IDNUMBER>
F6619-8931

> <Chemical_Name>
3-(phenoxymethyl)oxane

> <CAS>
2273711-86-5

> <PriceCoeff>
1.50

> <MW>
192.26

> <Description>
oil

> <FSP3>
0.50

> <clogP>
2.67

> <TPSA>
18.46

> <Acceptor>
2

> <Donor>
0

> <RotBonds>
3

> <HAC>
14

> <Collection>
Advanced

> <Reference_compound>
CHEMBL2252607

> <Similarity>
0.8000

$$$$
F1913-0569
  -ISIS-  06222321452D

 13 14  0  0  0  0  0  0  0  0999 V2000
    6.4042   -1.2375    0.0000 N   0  0  0  0  0  0  0  0  0  0  0  0
    5.6167   -0.1542    0.0000 C   0  0  0  0  0  0  0  0  0  0  0  0
    6.8917   -0.5667    0.0000 C   0  0  0  0  0  0  0  0  0  0  0  0
    6.4042    0.1083    0.0000 C   0  0  0  0  0  0  0  0  0  0  0  0
    5.6167   -0.9792    0.0000 C   0  0  0  0  0  0  0  0  0  0  0  0
    4.9000    0.2583    0.0000 C   0  0  0  0  0  0  0  0  0  0  0  0
    4.9000   -1.3917    0.0000 C   0  0  0  0  0  0  0  0  0  0  0  0
    4.1875   -0.1542    0.0000 C   0  0  0  0  0  0  0  0  0  0  0  0
    4.1875   -0.9792    0.0000 C   0  0  0  0  0  0  0  0  0  0  0  0
    3.4750    0.2583    0.0000 F   0  0  0  0  0  0  0  0  0  0  0  0
    7.7167    1.8458    0.0000 N   0  0  0  0  0  0  0  0  0  0  0  0
    6.6542    0.8875    0.0000 C   0  0  0  0  0  0  0  0  0  0  0  0
    7.4667    1.0625    0.0000 C   0  0  0  0  0  0  0  0  0  0  0  0
  2  5  1  0  0  0  0
  3  1  1  0  0  0  0
  4  3  2  0  0  0  0
  5  1  1  0  0  0  0
  6  2  2  0  0  0  0
  7  5  2  0  0  0  0
  8  9  2  0  0  0  0
  9  7  1  0  0  0  0
 10  8  1  0  0  0  0
 11 13  1  0  0  0  0
 12  4  1  0  0  0  0
 13 12  1  0  0  0  0
  4  2  1  0  0  0  0
  6  8  1  0  0  0  0
M  END
> <IDNUMBER>
F1913-0569

> <Chemical_Name>
2-(5-fluoro-1H-indol-3-yl)ethan-1-amine

> <CAS>
576-16-9

> <PriceCoeff>
1.50

> <MW>
178.21

> <Description>
solid

> <FSP3>
0.20

> <clogP>
1.73

> <TPSA>
41.81

> <Acceptor>
0

> <Donor>
2

> <RotBonds>
2

> <HAC>
13

> <Collection>
Advanced

> <Reference_compound>
CHEMBL6640

> <Similarity>
0.8620

$$$$
F6473-3572
  -ISIS-  06222321442D

 23 25  0  0  0  0  0  0  0  0999 V2000
   -1.3083    5.1042    0.0000 N   0  0  3  0  0  0  0  0  0  0  0  0
   -3.0333    4.1042    0.0000 N   0  0  3  0  0  0  0  0  0  0  0  0
   -2.0333    4.6875    0.0000 C   0  0  3  0  0  0  0  0  0  0  0  0
   -3.7458    3.6958    0.0000 C   0  0  0  0  0  0  0  0  0  0  0  0
   -1.2250    5.9167    0.0000 C   0  0  0  0  0  0  0  0  0  0  0  0
   -0.5583    4.7667    0.0000 C   0  0  0  0  0  0  0  0  0  0  0  0
   -2.2458    3.8958    0.0000 C   0  0  0  0  0  0  0  0  0  0  0  0
   -2.8208    4.9000    0.0000 C   0  0  0  0  0  0  0  0  0  0  0  0
   -3.7500    2.8750    0.0000 C   0  0  0  0  0  0  0  0  0  0  0  0
   -4.4583    4.0958    0.0000 O   0  0  0  0  0  0  0  0  0  0  0  0
   -0.0083    5.3792    0.0000 C   0  0  0  0  0  0  0  0  0  0  0  0
   -0.4208    6.0917    0.0000 C   0  0  0  0  0  0  0  0  0  0  0  0
   -0.3875    3.9625    0.0000 O   0  0  0  0  0  0  0  0  0  0  0  0
   -1.8417    6.4708    0.0000 O   0  0  0  0  0  0  0  0  0  0  0  0
   -4.4708    2.4708    0.0000 C   0  0  0  0  0  0  0  0  0  0  0  0
   -5.8833    1.6500    0.0000 C   0  0  0  0  0  0  0  0  0  0  0  0
   -5.1708    2.8917    0.0000 C   0  0  0  0  0  0  0  0  0  0  0  0
   -4.4583    1.6458    0.0000 C   0  0  0  0  0  0  0  0  0  0  0  0
   -5.8833    2.4833    0.0000 C   0  0  0  0  0  0  0  0  0  0  0  0
   -5.1833    1.2375    0.0000 C   0  0  0  0  0  0  0  0  0  0  0  0
   -6.5958    1.2333    0.0000 O   0  0  0  0  0  0  0  0  0  0  0  0
   -6.6042    0.4083    0.0000 C   0  0  0  0  0  0  0  0  0  0  0  0
   -7.3042   -0.0042    0.0000 C   0  0  0  0  0  0  0  0  0  0  0  0
  2  8  1  0  0  0  0
  3  1  1  0  0  0  0
  4  2  1  0  0  0  0
  5  1  1  0  0  0  0
  6  1  1  0  0  0  0
  7  3  1  0  0  0  0
  8  3  1  0  0  0  0
  9  4  1  0  0  0  0
 10  4  2  0  0  0  0
 11  6  1  0  0  0  0
 12  5  1  0  0  0  0
 13  6  2  0  0  0  0
 14  5  2  0  0  0  0
 15  9  1  0  0  0  0
 16 20  2  0  0  0  0
 17 15  1  0  0  0  0
 18 15  2  0  0  0  0
 19 17  2  0  0  0  0
 20 18  1  0  0  0  0
 21 16  1  0  0  0  0
 22 21  1  0  0  0  0
 23 22  1  0  0  0  0
 12 11  1  0  0  0  0
  7  2  1  0  0  0  0
 16 19  1  0  0  0  0
M  END
> <IDNUMBER>
F6473-3572

> <Chemical_Name>
1-{1-[2-(4-ethoxyphenyl)acetyl]azetidin-3-yl}pyrrolidine-2,5-dione

> <CAS>
1798638-93-3

> <PriceCoeff>
1.50

> <MW>
316.35

> <Description>
solid

> <FSP3>
0.47

> <clogP>
1.18

> <TPSA>
66.92

> <Acceptor>
4

> <Donor>
0

> <RotBonds>
6

> <HAC>
23

> <Collection>
Advanced

$$$$
F1913-1517
  -ISIS-  06222304352D

 14 14  0  0  0  0  0  0  0  0999 V2000
    3.7125   -1.7000    0.0000 N   0  0  0  0  0  0  0  0  0  0  0  0
    3.4250   -0.8375    0.0000 C   0  0  0  0  0  0  0  0  0  0  0  0
    4.1625   -1.3792    0.0000 C   0  0  0  0  0  0  0  0  0  0  0  0
    3.9875   -0.8375    0.0000 C   0  0  0  0  0  0  0  0  0  0  0  0
    3.2542   -1.3792    0.0000 C   0  0  0  0  0  0  0  0  0  0  0  0
    3.0542   -0.4167    0.0000 C   0  0  0  0  0  0  0  0  0  0  0  0
    2.7042   -1.4917    0.0000 C   0  0  0  0  0  0  0  0  0  0  0  0
    2.5042   -0.5292    0.0000 C   0  0  0  0  0  0  0  0  0  0  0  0
    2.3208   -1.0750    0.0000 C   0  0  0  0  0  0  0  0  0  0  0  0
    2.1292   -0.1167    0.0000 F   0  0  0  0  0  0  0  0  0  0  0  0
    5.2042    0.0208    0.0000 N   0  0  0  0  0  0  0  0  0  0  0  0
    4.3167   -0.3792    0.0000 C   0  0  0  0  0  0  0  0  0  0  0  0
    4.8792   -0.4375    0.0000 C   0  0  0  0  0  0  0  0  0  0  0  0
    6.6917   -0.8417    0.0000 Cl  0  0  0  0  0  0  0  0  0  0  0  0
  3  1  1  0  0  0  0
  4  3  2  0  0  0  0
  5  1  1  0  0  0  0
  6  2  1  0  0  0  0
  7  5  1  0  0  0  0
  8  9  1  0  0  0  0
  9  7  2  0  0  0  0
 10  8  1  0  0  0  0
 11 13  1  0  0  0  0
 12  4  1  0  0  0  0
 13 12  1  0  0  0  0
  4  2  1  0  0  0  0
  6  8  2  0  0  0  0
  2  5  2  0  0  0  0
M  END
> <IDNUMBER>
F1913-1517

> <Chemical_Name>
2-(5-fluoro-1H-indol-3-yl)ethan-1-amine hydrochloride

> <CAS>
2711-58-2

> <PriceCoeff>
1.50

> <MW>
178.21

> <Description>
solid

> <FSP3>
0.20

> <clogP>
1.73

> <TPSA>
41.81

> <Acceptor>
0

> <Donor>
2

> <RotBonds>
2

> <HAC>
13

> <Collection>
Advanced

> <Reference_compound>
CHEMBL6640

> <Similarity>
0.8620

$$$$
F0001-1304
  -ISIS-  06222321142D

 11 11  0  0  0  0  0  0  0  0999 V2000
    0.6417   -0.2833    0.0000 C   0  0  0  0  0  0  0  0  0  0  0  0
    0.6417   -1.1125    0.0000 C   0  0  0  0  0  0  0  0  0  0  0  0
   -0.0750    0.1292    0.0000 C   0  0  0  0  0  0  0  0  0  0  0  0
   -0.7875   -1.1125    0.0000 C   0  0  0  0  0  0  0  0  0  0  0  0
   -0.0750   -1.5250    0.0000 C   0  0  0  0  0  0  0  0  0  0  0  0
   -0.7875   -0.2875    0.0000 C   0  0  0  0  0  0  0  0  0  0  0  0
    1.3542    0.1333    0.0000 O   0  0  0  0  0  0  0  0  0  0  0  0
   -0.0833   -2.3500    0.0000 O   0  0  0  0  0  0  0  0  0  0  0  0
   -1.5083    0.1333    0.0000 O   0  0  0  0  0  0  0  0  0  0  0  0
   -0.0875   -3.1708    0.0000 C   0  0  0  0  0  0  0  0  0  0  0  0
   -2.2250    0.5458    0.0000 C   0  0  0  0  0  0  0  0  0  0  0  0
  2  1  1  0  0  0  0
  3  1  2  0  0  0  0
  4  6  2  0  0  0  0
  5  2  2  0  0  0  0
  6  3  1  0  0  0  0
  7  1  1  0  0  0  0
  8  5  1  0  0  0  0
  9  6  1  0  0  0  0
 10  8  1  0  0  0  0
 11  9  1  0  0  0  0
  5  4  1  0  0  0  0
M  END
> <IDNUMBER>
F0001-1304

> <Chemical_Name>
3,5-dimethoxyphenol

> <CAS>
500-99-2

> <PriceCoeff>
1.00

> <MW>
154.16

> <Description>
solid

> <FSP3>
0.25

> <clogP>
1.60

> <TPSA>
38.69

> <Acceptor>
3

> <Donor>
1

> <RotBonds>
2

> <HAC>
11

> <Collection>
General

> <Reference_compound>
CHEMBL1668604

> <Similarity>
0.8180

$$$$
F2147-1619
  -ISIS-  06222321462D

 15 17  0  0  0  0  0  0  0  0999 V2000
    3.7500   -1.0167    0.0000 C   0  0  0  0  0  0  0  0  0  0  0  0
    4.0042   -1.8042    0.0000 C   0  0  0  0  0  0  0  0  0  0  0  0
    3.3375   -2.2875    0.0000 N   0  0  0  0  0  0  0  0  0  0  0  0
    2.9250   -1.0167    0.0000 C   0  0  0  0  0  0  0  0  0  0  0  0
    4.2292   -0.3500    0.0000 C   0  0  3  0  0  0  0  0  0  0  0  0
    4.6417    0.9208    0.0000 N   0  0  0  0  0  0  0  0  0  0  0  0
    5.3083    0.4375    0.0000 C   0  0  0  0  0  0  0  0  0  0  0  0
    2.6667   -1.8042    0.0000 C   0  0  0  0  0  0  0  0  0  0  0  0
    5.0542   -0.3458    0.0000 C   0  0  0  0  0  0  0  0  0  0  0  0
    3.9750    0.4375    0.0000 C   0  0  0  0  0  0  0  0  0  0  0  0
    6.0917    0.6958    0.0000 O   0  0  0  0  0  0  0  0  0  0  0  0
    2.3750   -0.4042    0.0000 C   0  0  0  0  0  0  0  0  0  0  0  0
    1.8625   -1.9750    0.0000 C   0  0  0  0  0  0  0  0  0  0  0  0
    1.5667   -0.5708    0.0000 C   0  0  0  0  0  0  0  0  0  0  0  0
    1.3083   -1.3625    0.0000 C   0  0  0  0  0  0  0  0  0  0  0  0
  2  1  2  0  0  0  0
  3  2  1  0  0  0  0
  4  1  1  0  0  0  0
  5  1  1  0  0  0  0
  6 10  1  0  0  0  0
  7  9  1  0  0  0  0
  8  4  2  0  0  0  0
  9  5  1  0  0  0  0
 10  5  1  0  0  0  0
 11  7  2  0  0  0  0
 12  4  1  0  0  0  0
 13  8  1  0  0  0  0
 14 12  2  0  0  0  0
 15 14  1  0  0  0  0
  3  8  1  0  0  0  0
  6  7  1  0  0  0  0
 13 15  2  0  0  0  0
M  END
> <IDNUMBER>
F2147-1619

> <Chemical_Name>
4-(1H-indol-3-yl)pyrrolidin-2-one

> <CAS>
27008-33-9

> <PriceCoeff>
1.50

> <MW>
200.24

> <Description>
solid

> <FSP3>
0.25

> <clogP>
0.58

> <TPSA>
44.89

> <Acceptor>
1

> <Donor>
2

> <RotBonds>
1

> <HAC>
15

> <Collection>
Advanced

> <Reference_compound>
CHEMBL33171

> <Similarity>
0.8060

$$$$
F6442-1092
  -ISIS-  06222321462D

 23 25  0  0  0  0  0  0  0  0999 V2000
   -1.4458    5.2000    0.0000 S   0  0  3  0  0  0  0  0  0  0  0  0
   -4.5833    2.5708    0.0000 N   0  0  3  0  0  0  0  0  0  0  0  0
   -2.1583    4.7917    0.0000 C   0  0  3  0  0  0  0  0  0  0  0  0
   -3.1583    4.2042    0.0000 N   0  0  3  0  0  0  0  0  0  0  0  0
   -3.8708    3.8000    0.0000 C   0  0  0  0  0  0  0  0  0  0  0  0
   -3.8708    2.9833    0.0000 C   0  0  0  0  0  0  0  0  0  0  0  0
   -4.6708    1.7458    0.0000 C   0  0  0  0  0  0  0  0  0  0  0  0
   -5.3208    2.9000    0.0000 C   0  0  0  0  0  0  0  0  0  0  0  0
   -2.3708    4.0000    0.0000 C   0  0  0  0  0  0  0  0  0  0  0  0
   -2.9458    5.0000    0.0000 C   0  0  0  0  0  0  0  0  0  0  0  0
   -1.0333    4.4833    0.0000 O   0  0  0  0  0  0  0  0  0  0  0  0
   -1.8583    5.9167    0.0000 O   0  0  0  0  0  0  0  0  0  0  0  0
   -0.7333    5.6167    0.0000 C   0  0  3  0  0  0  0  0  0  0  0  0
   -4.5833    4.2042    0.0000 O   0  0  0  0  0  0  0  0  0  0  0  0
   -5.4583    1.5833    0.0000 C   0  0  0  0  0  0  0  0  0  0  0  0
   -5.8708    2.2958    0.0000 C   0  0  0  0  0  0  0  0  0  0  0  0
   -4.0458    1.1833    0.0000 O   0  0  0  0  0  0  0  0  0  0  0  0
   -5.4875    3.7083    0.0000 O   0  0  0  0  0  0  0  0  0  0  0  0
   -0.7458    6.4417    0.0000 C   0  0  0  0  0  0  0  0  0  0  0  0
   -0.0125    5.2125    0.0000 C   0  0  0  0  0  0  0  0  0  0  0  0
    0.7042    5.6292    0.0000 C   0  0  0  0  0  0  0  0  0  0  0  0
   -0.0375    6.8667    0.0000 C   0  0  0  0  0  0  0  0  0  0  0  0
    0.6875    6.4625    0.0000 C   0  0  0  0  0  0  0  0  0  0  0  0
  2  6  1  0  0  0  0
  3  1  1  0  0  0  0
  4 10  1  0  0  0  0
  5  4  1  0  0  0  0
  6  5  1  0  0  0  0
  7  2  1  0  0  0  0
  8  2  1  0  0  0  0
  9  3  1  0  0  0  0
 10  3  1  0  0  0  0
 11  1  2  0  0  0  0
 12  1  2  0  0  0  0
 13  1  1  0  0  0  0
 14  5  2  0  0  0  0
 15  7  1  0  0  0  0
 16  8  1  0  0  0  0
 17  7  2  0  0  0  0
 18  8  2  0  0  0  0
 19 13  1  0  0  0  0
 20 13  1  0  0  0  0
 21 20  1  0  0  0  0
 22 19  1  0  0  0  0
 23 21  1  0  0  0  0
  9  4  1  0  0  0  0
 23 22  1  0  0  0  0
 15 16  1  0  0  0  0
M  END
> <IDNUMBER>
F6442-1092

> <Chemical_Name>
1-{2-[3-(cyclohexanesulfonyl)azetidin-1-yl]-2-oxoethyl}pyrrolidine-2,5-dione

> <CAS>
1797342-73-4

> <PriceCoeff>
1.50

> <MW>
342.41

> <Description>
solid

> <FSP3>
0.80

> <clogP>
1.29

> <TPSA>
100.21

> <Acceptor>
5

> <Donor>
0

> <RotBonds>
5

> <HAC>
23

> <Collection>
Advanced

$$$$
F3176-0005
  -ISIS-  06222321462D

 19 21  0  0  0  0  0  0  0  0999 V2000
    3.6375    2.1083    0.0000 C   0  0  0  0  0  0  0  0  0  0  0  0
    3.6375    3.5083    0.0000 C   0  0  0  0  0  0  0  0  0  0  0  0
    4.9667    1.6708    0.0000 N   0  0  0  0  0  0  0  0  0  0  0  0
    2.4167    1.4000    0.0000 N   0  0  3  0  0  0  0  0  0  0  0  0
    1.2125    3.5083    0.0000 N   0  0  3  0  0  0  0  0  0  0  0  0
    1.2125    2.1083    0.0000 C   0  0  0  0  0  0  0  0  0  0  0  0
    5.7917    2.8083    0.0000 C   0  0  0  0  0  0  0  0  0  0  0  0
    2.4167    4.2000    0.0000 C   0  0  0  0  0  0  0  0  0  0  0  0
    4.9667    3.9375    0.0000 N   0  0  0  0  0  0  0  0  0  0  0  0
    7.1917    2.8083    0.0000 N   0  0  3  0  0  0  0  0  0  0  0  0
    0.0000    1.4083    0.0000 O   0  0  0  0  0  0  0  0  0  0  0  0
    2.4167    5.5917    0.0000 O   0  0  0  0  0  0  0  0  0  0  0  0
    2.4167   -0.0000    0.0000 C   0  0  0  0  0  0  0  0  0  0  0  0
    0.0000    4.2000    0.0000 C   0  0  0  0  0  0  0  0  0  0  0  0
    9.9917    2.8083    0.0000 O   0  0  0  0  0  0  0  0  0  0  0  0
    7.8917    1.5958    0.0000 C   0  0  0  0  0  0  0  0  0  0  0  0
    7.8917    4.0125    0.0000 C   0  0  0  0  0  0  0  0  0  0  0  0
    9.2917    4.0125    0.0000 C   0  0  0  0  0  0  0  0  0  0  0  0
    9.2917    1.5958    0.0000 C   0  0  0  0  0  0  0  0  0  0  0  0
  2  1  2  0  0  0  0
  3  1  1  0  0  0  0
  4  1  1  0  0  0  0
  5  6  1  0  0  0  0
  6  4  1  0  0  0  0
  7  3  2  0  0  0  0
  8  2  1  0  0  0  0
  9  2  1  0  0  0  0
 10  7  1  0  0  0  0
 11  6  2  0  0  0  0
 12  8  2  0  0  0  0
 13  4  1  0  0  0  0
 14  5  1  0  0  0  0
 15 18  1  0  0  0  0
 16 10  1  0  0  0  0
 17 10  1  0  0  0  0
 18 17  1  0  0  0  0
 19 16  1  0  0  0  0
  9  7  1  0  0  0  0
  5  8  1  0  0  0  0
 15 19  1  0  0  0  0
M  END
> <IDNUMBER>
F3176-0005

> <Chemical_Name>
1,3-dimethyl-8-(morpholin-4-yl)-2,3,6,7-tetrahydro-1H-purine-2,6-dione

> <CAS>
30958-49-7

> <PriceCoeff>
1.50

> <MW>
265.27

> <Description>
solid

> <FSP3>
0.55

> <clogP>
-0.03

> <TPSA>
81.77

> <Acceptor>
5

> <Donor>
3

> <RotBonds>
1

> <HAC>
19

> <Collection>
Advanced

> <Reference_compound>
CHEMBL190

> <Similarity>
0.8080

$$$$
F0373-0286
  -ISIS-  06222321142D

 17 18  0  0  0  0  0  0  0  0999 V2000
    5.6042   -4.4167    0.0000 C   0  0  0  0  0  0  0  0  0  0  0  0
    5.6042   -3.5667    0.0000 C   0  0  0  0  0  0  0  0  0  0  0  0
    4.9000   -4.8542    0.0000 N   0  0  3  0  0  0  0  0  0  0  0  0
    4.1875   -3.5667    0.0000 N   0  0  3  0  0  0  0  0  0  0  0  0
    4.1875   -4.4167    0.0000 C   0  0  0  0  0  0  0  0  0  0  0  0
    4.9000   -3.1667    0.0000 C   0  0  0  0  0  0  0  0  0  0  0  0
    6.4000   -4.6792    0.0000 N   0  0  0  0  0  0  0  0  0  0  0  0
    6.4000   -3.3167    0.0000 N   0  0  3  0  0  0  0  0  0  0  0  0
    6.8542   -4.0000    0.0000 C   0  0  0  0  0  0  0  0  0  0  0  0
    6.6500   -2.5375    0.0000 C   0  0  0  0  0  0  0  0  0  0  0  0
    3.4667   -4.8542    0.0000 O   0  0  0  0  0  0  0  0  0  0  0  0
    4.9000   -2.3167    0.0000 O   0  0  0  0  0  0  0  0  0  0  0  0
    7.4667   -2.3542    0.0000 C   0  0  0  0  0  0  0  0  0  0  0  0
    7.7167   -1.5292    0.0000 O   0  0  0  0  0  0  0  0  0  0  0  0
    4.9000   -5.6667    0.0000 C   0  0  0  0  0  0  0  0  0  0  0  0
    3.4667   -3.1375    0.0000 C   0  0  0  0  0  0  0  0  0  0  0  0
    8.0042   -2.9542    0.0000 N   0  0  0  0  0  0  0  0  0  0  0  0
  2  1  2  0  0  0  0
  3  1  1  0  0  0  0
  4  5  1  0  0  0  0
  5  3  1  0  0  0  0
  6  2  1  0  0  0  0
  7  1  1  0  0  0  0
  8  2  1  0  0  0  0
  9  7  2  0  0  0  0
 10  8  1  0  0  0  0
 11  5  2  0  0  0  0
 12  6  2  0  0  0  0
 13 10  1  0  0  0  0
 14 13  2  0  0  0  0
 15  3  1  0  0  0  0
 16  4  1  0  0  0  0
 17 13  1  0  0  0  0
  9  8  1  0  0  0  0
  4  6  1  0  0  0  0
M  END
> <IDNUMBER>
F0373-0286

> <Chemical_Name>
2-(1,3-dimethyl-2,6-dioxo-2,3,6,7-tetrahydro-1H-purin-7-yl)acetamide

> <CAS>
5614-55-1

> <PriceCoeff>
1.00

> <MW>
237.22

> <Description>
solid

> <FSP3>
0.33

> <clogP>
-1.39

> <TPSA>
101.53

> <Acceptor>
4

> <Donor>
2

> <RotBonds>
2

> <HAC>
17

> <Collection>
General

> <Reference_compound>
CHEMBL113

> <Similarity>
0.8810

$$$$
F0373-0101
  -ISIS-  06222321452D

 15 16  0  0  0  0  0  0  0  0999 V2000
    5.7542   -4.0292    0.0000 C   0  0  0  0  0  0  0  0  0  0  0  0
    6.5042   -4.2667    0.0000 N   0  0  0  0  0  0  0  0  0  0  0  0
    5.7542   -3.2000    0.0000 C   0  0  0  0  0  0  0  0  0  0  0  0
    5.0292   -4.4375    0.0000 N   0  0  3  0  0  0  0  0  0  0  0  0
    4.3500   -4.0292    0.0000 C   0  0  0  0  0  0  0  0  0  0  0  0
    4.3500   -3.1667    0.0000 N   0  0  0  0  0  0  0  0  0  0  0  0
    6.9875   -3.5792    0.0000 C   0  0  0  0  0  0  0  0  0  0  0  0
    5.0292   -2.7500    0.0000 C   0  0  0  0  0  0  0  0  0  0  0  0
    6.5042   -2.9167    0.0000 N   0  0  3  0  0  0  0  0  0  0  0  0
    3.6500   -4.5042    0.0000 O   0  0  0  0  0  0  0  0  0  0  0  0
    4.9875   -1.9292    0.0000 O   0  0  0  0  0  0  0  0  0  0  0  0
    7.8167   -3.5792    0.0000 N   0  0  0  0  0  0  0  0  0  0  0  0
    4.9875   -5.2667    0.0000 C   0  0  0  0  0  0  0  0  0  0  0  0
    6.7875   -2.1375    0.0000 C   0  0  0  0  0  0  0  0  0  0  0  0
    7.6167   -1.9667    0.0000 C   0  0  0  0  0  0  0  0  0  0  0  0
  2  1  1  0  0  0  0
  3  1  2  0  0  0  0
  4  1  1  0  0  0  0
  5  4  1  0  0  0  0
  6  5  1  0  0  0  0
  7  2  2  0  0  0  0
  8  3  1  0  0  0  0
  9  3  1  0  0  0  0
 10  5  2  0  0  0  0
 11  8  2  0  0  0  0
 12  7  1  0  0  0  0
 13  4  1  0  0  0  0
 14  9  1  0  0  0  0
 15 14  1  0  0  0  0
  7  9  1  0  0  0  0
  8  6  1  0  0  0  0
M  END
> <IDNUMBER>
F0373-0101

> <Chemical_Name>
8-amino-7-ethyl-3-methyl-2,3,6,7-tetrahydro-1H-purine-2,6-dione

> <CAS>
313507-18-5

> <PriceCoeff>
1.50

> <MW>
209.21

> <Description>
solid

> <FSP3>
0.38

> <clogP>
-0.40

> <TPSA>
93.25

> <Acceptor>
3

> <Donor>
3

> <RotBonds>
1

> <HAC>
15

> <Collection>
Advanced

> <Reference_compound>
CHEMBL113

> <Similarity>
0.8370

$$$$
F6477-5331
  -ISIS-  06222304352D

 22 23  0  0  0  0  0  0  0  0999 V2000
    1.9667   -1.6167    0.0000 N   0  0  3  0  0  0  0  0  0  0  0  0
    5.2792   -1.2667    0.0000 C   0  0  0  0  0  0  0  0  0  0  0  0
    4.4667   -0.6875    0.0000 N   0  0  0  0  0  0  0  0  0  0  0  0
    3.6625   -1.2667    0.0000 C   0  0  0  0  0  0  0  0  0  0  0  0
    0.9792   -1.4042    0.0000 C   0  0  0  0  0  0  0  0  0  0  0  0
    2.0625   -2.6167    0.0000 C   0  0  0  0  0  0  0  0  0  0  0  0
    4.9667   -2.2292    0.0000 S   0  0  0  0  0  0  0  0  0  0  0  0
    2.7125   -0.9542    0.0000 C   0  0  0  0  0  0  0  0  0  0  0  0
    3.9667   -2.2292    0.0000 C   0  0  0  0  0  0  0  0  0  0  0  0
    6.2292   -0.9542    0.0000 N   0  0  0  0  0  0  0  0  0  0  0  0
    0.4792   -2.2667    0.0000 C   0  0  0  0  0  0  0  0  0  0  0  0
    1.1417   -3.0167    0.0000 C   0  0  0  0  0  0  0  0  0  0  0  0
    0.5750   -0.4917    0.0000 O   0  0  0  0  0  0  0  0  0  0  0  0
    2.9292   -3.1167    0.0000 O   0  0  0  0  0  0  0  0  0  0  0  0
    6.4292    0.0250    0.0000 C   0  0  0  0  0  0  0  0  0  0  0  0
    6.8417    1.9833    0.0000 C   0  0  0  0  0  0  0  0  0  0  0  0
    7.3875    0.3375    0.0000 C   0  0  0  0  0  0  0  0  0  0  0  0
    5.6875    0.6958    0.0000 C   0  0  0  0  0  0  0  0  0  0  0  0
    5.8917    1.6708    0.0000 C   0  0  0  0  0  0  0  0  0  0  0  0
    7.5875    1.3125    0.0000 C   0  0  0  0  0  0  0  0  0  0  0  0
    7.0500    2.9583    0.0000 C   0  0  0  0  0  0  0  0  0  0  0  0
    8.9875   -0.1375    0.0000 Cl  0  0  0  0  0  0  0  0  0  0  0  0
  3  4  1  0  0  0  0
  4  8  1  0  0  0  0
  5  1  1  0  0  0  0
  6  1  1  0  0  0  0
  7  9  1  0  0  0  0
  8  1  1  0  0  0  0
  9  4  2  0  0  0  0
 10  2  1  0  0  0  0
 11  5  1  0  0  0  0
 12  6  1  0  0  0  0
 13  5  2  0  0  0  0
 14  6  2  0  0  0  0
 15 10  1  0  0  0  0
 16 19  1  0  0  0  0
 17 15  2  0  0  0  0
 18 15  1  0  0  0  0
 19 18  2  0  0  0  0
 20 17  1  0  0  0  0
 21 16  1  0  0  0  0
 12 11  1  0  0  0  0
  2  7  1  0  0  0  0
 16 20  2  0  0  0  0
  2  3  2  0  0  0  0
M  END
> <IDNUMBER>
F6477-5331

> <Chemical_Name>
1-({2-[(4-methylphenyl)amino]-1,3-thiazol-4-yl}methyl)pyrrolidine-2,5-dione hydrochloride

> <CAS>
2034325-67-0

> <PriceCoeff>
1.50

> <MW>
301.36

> <Description>
solid

> <FSP3>
0.27

> <clogP>
2.34

> <TPSA>
90.54

> <Acceptor>
4

> <Donor>
1

> <RotBonds>
4

> <HAC>
21

> <Collection>
Advanced

$$$$
F2189-0857
  -ISIS-  06222321462D

 12 12  0  0  0  0  0  0  0  0999 V2000
    8.9917  -20.2167    0.0000 C   0  0  0  0  0  0  0  0  0  0  0  0
    8.2667  -19.8042    0.0000 C   0  0  0  0  0  0  0  0  0  0  0  0
    8.9917  -21.0542    0.0000 C   0  0  0  0  0  0  0  0  0  0  0  0
    9.7042  -19.8042    0.0000 C   0  0  3  0  0  0  0  0  0  0  0  0
    7.5542  -20.2167    0.0000 C   0  0  0  0  0  0  0  0  0  0  0  0
    8.2667  -21.4667    0.0000 C   0  0  0  0  0  0  0  0  0  0  0  0
    7.5542  -21.0542    0.0000 C   0  0  0  0  0  0  0  0  0  0  0  0
   11.1292  -19.7917    0.0000 N   0  0  0  0  0  0  0  0  0  0  0  0
    9.6917  -18.9792    0.0000 O   0  0  0  0  0  0  0  0  0  0  0  0
   10.4167  -20.2042    0.0000 C   0  0  0  0  0  0  0  0  0  0  0  0
    6.8500  -21.4625    0.0000 C   0  0  0  0  0  0  0  0  0  0  0  0
    6.1375  -21.0542    0.0000 C   0  0  0  0  0  0  0  0  0  0  0  0
  2  1  2  0  0  0  0
  3  1  1  0  0  0  0
  4  1  1  0  0  0  0
  5  2  1  0  0  0  0
  6  3  2  0  0  0  0
  7  6  1  0  0  0  0
  8 10  1  0  0  0  0
  9  4  1  0  0  0  0
 10  4  1  0  0  0  0
 11  7  1  0  0  0  0
 12 11  1  0  0  0  0
  5  7  2  0  0  0  0
M  END
> <IDNUMBER>
F2189-0857

> <Chemical_Name>
2-amino-1-(4-ethylphenyl)ethan-1-ol

> <CAS>
133562-39-7

> <PriceCoeff>
1.00

> <MW>
165.23

> <Description>
solid

> <FSP3>
0.40

> <clogP>
1.30

> <TPSA>
46.25

> <Acceptor>
1

> <Donor>
2

> <RotBonds>
3

> <HAC>
12

> <Collection>
General

> <Reference_compound>
CHEMBL1367565

> <Similarity>
0.8140

$$$$
F3260-0725
  -ISIS-  06222321462D

 19 20  0  0  0  0  0  0  0  0999 V2000
    3.6375    2.1000    0.0000 C   0  0  0  0  0  0  0  0  0  0  0  0
    3.6375    3.5000    0.0000 C   0  0  0  0  0  0  0  0  0  0  0  0
    4.9417    1.6833    0.0000 N   0  0  0  0  0  0  0  0  0  0  0  0
    2.4250    1.4000    0.0000 N   0  0  3  0  0  0  0  0  0  0  0  0
    1.2125    3.5000    0.0000 N   0  0  3  0  0  0  0  0  0  0  0  0
    1.2125    2.1000    0.0000 C   0  0  0  0  0  0  0  0  0  0  0  0
    2.4250    4.1917    0.0000 C   0  0  0  0  0  0  0  0  0  0  0  0
    5.7792    2.8000    0.0000 C   0  0  0  0  0  0  0  0  0  0  0  0
    4.9417    3.9708    0.0000 N   0  0  3  0  0  0  0  0  0  0  0  0
    0.0000    1.4000    0.0000 O   0  0  0  0  0  0  0  0  0  0  0  0
    2.4250    5.5917    0.0000 O   0  0  0  0  0  0  0  0  0  0  0  0
    7.1792    2.7875    0.0000 N   0  0  0  0  0  0  0  0  0  0  0  0
    2.4250   -0.0000    0.0000 C   0  0  0  0  0  0  0  0  0  0  0  0
    0.0000    4.1917    0.0000 C   0  0  0  0  0  0  0  0  0  0  0  0
    5.9667    5.4292    0.0000 C   0  0  0  0  0  0  0  0  0  0  0  0
   10.0042    5.1792    0.0000 O   0  0  0  0  0  0  0  0  0  0  0  0
    7.8917    3.9958    0.0000 C   0  0  0  0  0  0  0  0  0  0  0  0
    9.2917    3.9833    0.0000 C   0  0  0  0  0  0  0  0  0  0  0  0
    5.3750    6.7000    0.0000 C   0  0  0  0  0  0  0  0  0  0  0  0
  2  1  2  0  0  0  0
  3  1  1  0  0  0  0
  4  1  1  0  0  0  0
  5  6  1  0  0  0  0
  6  4  1  0  0  0  0
  7  2  1  0  0  0  0
  8  3  2  0  0  0  0
  9  2  1  0  0  0  0
 10  6  2  0  0  0  0
 11  7  2  0  0  0  0
 12  8  1  0  0  0  0
 13  4  1  0  0  0  0
 14  5  1  0  0  0  0
 15  9  1  0  0  0  0
 16 18  1  0  0  0  0
 17 12  1  0  0  0  0
 18 17  1  0  0  0  0
 19 15  1  0  0  0  0
  8  9  1  0  0  0  0
  7  5  1  0  0  0  0
M  END
> <IDNUMBER>
F3260-0725

> <Chemical_Name>
7-ethyl-8-[(2-hydroxyethyl)amino]-1,3-dimethyl-2,3,6,7-tetrahydro-1H-purine-2,6-dione

> <CAS>
682761-53-1

> <PriceCoeff>
1.50

> <MW>
267.28

> <Description>
solid

> <FSP3>
0.55

> <clogP>
0.28

> <TPSA>
90.70

> <Acceptor>
4

> <Donor>
3

> <RotBonds>
4

> <HAC>
19

> <Collection>
Advanced

> <Reference_compound>
CHEMBL113

> <Similarity>
0.8090

$$$$
F3260-0886
  -ISIS-  06222321462D

 21 22  0  0  0  0  0  0  0  0999 V2000
    3.5792   -0.8417    0.0000 C   0  0  0  0  0  0  0  0  0  0  0  0
    3.8875   -1.8042    0.0000 C   0  0  0  0  0  0  0  0  0  0  0  0
    4.3875   -0.2625    0.0000 N   0  0  0  0  0  0  0  0  0  0  0  0
    2.6042   -0.6375    0.0000 N   0  0  3  0  0  0  0  0  0  0  0  0
    2.2292   -2.3292    0.0000 N   0  0  3  0  0  0  0  0  0  0  0  0
    1.9292   -1.3667    0.0000 C   0  0  0  0  0  0  0  0  0  0  0  0
    3.2125   -2.5417    0.0000 C   0  0  0  0  0  0  0  0  0  0  0  0
    5.1917   -0.8417    0.0000 C   0  0  0  0  0  0  0  0  0  0  0  0
    4.8875   -1.8042    0.0000 N   0  0  3  0  0  0  0  0  0  0  0  0
    0.9542   -1.1542    0.0000 O   0  0  0  0  0  0  0  0  0  0  0  0
    3.5125   -3.4917    0.0000 O   0  0  0  0  0  0  0  0  0  0  0  0
    6.1417   -0.5292    0.0000 N   0  0  0  0  0  0  0  0  0  0  0  0
    1.5625   -3.0667    0.0000 C   0  0  0  0  0  0  0  0  0  0  0  0
    2.2917    0.3208    0.0000 C   0  0  0  0  0  0  0  0  0  0  0  0
    5.4750   -2.6125    0.0000 C   0  0  0  0  0  0  0  0  0  0  0  0
    7.2917    0.7625    0.0000 C   0  0  0  0  0  0  0  0  0  0  0  0
    8.4417    2.0583    0.0000 O   0  0  0  0  0  0  0  0  0  0  0  0
    6.3500    0.4583    0.0000 C   0  0  0  0  0  0  0  0  0  0  0  0
    7.5000    1.7458    0.0000 C   0  0  0  0  0  0  0  0  0  0  0  0
    8.6500    3.0458    0.0000 C   0  0  0  0  0  0  0  0  0  0  0  0
    0.5792   -2.8542    0.0000 C   0  0  0  0  0  0  0  0  0  0  0  0
  2  1  2  0  0  0  0
  3  1  1  0  0  0  0
  4  1  1  0  0  0  0
  5  6  1  0  0  0  0
  6  4  1  0  0  0  0
  7  2  1  0  0  0  0
  8  3  2  0  0  0  0
  9  2  1  0  0  0  0
 10  6  2  0  0  0  0
 11  7  2  0  0  0  0
 12  8  1  0  0  0  0
 13  5  1  0  0  0  0
 14  4  1  0  0  0  0
 15  9  1  0  0  0  0
 16 18  1  0  0  0  0
 17 19  1  0  0  0  0
 18 12  1  0  0  0  0
 19 16  1  0  0  0  0
 20 17  1  0  0  0  0
 21 13  1  0  0  0  0
  8  9  1  0  0  0  0
  5  7  1  0  0  0  0
M  END
> <IDNUMBER>
F3260-0886

> <Chemical_Name>
1-ethyl-8-[(3-methoxypropyl)amino]-3,7-dimethyl-2,3,6,7-tetrahydro-1H-purine-2,6-dione

> <CAS>
1203138-96-8

> <PriceCoeff>
1.50

> <MW>
295.34

> <Description>
solid

> <FSP3>
0.62

> <clogP>
1.40

> <TPSA>
79.70

> <Acceptor>
4

> <Donor>
2

> <RotBonds>
6

> <HAC>
21

> <Collection>
Advanced

> <Reference_compound>
CHEMBL113

> <Similarity>
0.8040

$$$$
F5577-0021
  -ISIS-  06222321462D

 22 24  0  0  0  0  0  0  0  0999 V2000
   -1.0083    2.5583    0.0000 C   0  0  0  0  0  0  0  0  0  0  0  0
   -2.4333    2.5583    0.0000 C   0  0  0  0  0  0  0  0  0  0  0  0
   -1.7208    2.9833    0.0000 C   0  0  0  0  0  0  0  0  0  0  0  0
   -2.4375    1.7333    0.0000 C   0  0  0  0  0  0  0  0  0  0  0  0
   -1.0083    1.7333    0.0000 C   0  0  0  0  0  0  0  0  0  0  0  0
   -1.7208    1.3208    0.0000 N   0  0  3  0  0  0  0  0  0  0  0  0
   -3.1500    1.3208    0.0000 C   0  0  0  0  0  0  0  0  0  0  0  0
   -3.8625    1.7333    0.0000 C   0  0  0  0  0  0  0  0  0  0  0  0
   -3.1500    2.9708    0.0000 C   0  0  0  0  0  0  0  0  0  0  0  0
   -0.2875    2.9708    0.0000 C   0  0  0  0  0  0  0  0  0  0  0  0
   -3.8625    2.5583    0.0000 C   0  0  0  0  0  0  0  0  0  0  0  0
   -4.5833    1.3208    0.0000 N   0  0  3  0  0  0  0  0  0  0  0  0
   -1.7208    3.8000    0.0000 O   0  0  0  0  0  0  0  0  0  0  0  0
   -0.2875    3.7958    0.0000 O   0  0  0  0  0  0  0  0  0  0  0  0
   -6.0125    0.4958    0.0000 O   0  0  0  0  0  0  0  0  0  0  0  0
   -4.5833    2.9708    0.0000 F   0  0  0  0  0  0  0  0  0  0  0  0
    0.4250    2.5583    0.0000 O   0  0  0  0  0  0  0  0  0  0  0  0
   -1.7250    0.4958    0.0000 C   0  0  0  0  0  0  0  0  0  0  0  0
   -5.2958    1.7333    0.0000 C   0  0  0  0  0  0  0  0  0  0  0  0
   -4.5833    0.4958    0.0000 C   0  0  0  0  0  0  0  0  0  0  0  0
   -6.0000    1.3208    0.0000 C   0  0  0  0  0  0  0  0  0  0  0  0
   -5.2958    0.0833    0.0000 C   0  0  0  0  0  0  0  0  0  0  0  0
  2  3  1  0  0  0  0
  3  1  1  0  0  0  0
  4  6  1  0  0  0  0
  5  1  2  0  0  0  0
  6  5  1  0  0  0  0
  7  4  2  0  0  0  0
  8  7  1  0  0  0  0
  9  2  2  0  0  0  0
 10  1  1  0  0  0  0
 11  9  1  0  0  0  0
 12  8  1  0  0  0  0
 13  3  2  0  0  0  0
 14 10  2  0  0  0  0
 15 22  1  0  0  0  0
 16 11  1  0  0  0  0
 17 10  1  0  0  0  0
 18  6  1  0  0  0  0
 19 12  1  0  0  0  0
 20 12  1  0  0  0  0
 21 19  1  0  0  0  0
 22 20  1  0  0  0  0
  4  2  1  0  0  0  0
  8 11  2  0  0  0  0
 15 21  1  0  0  0  0
M  END
> <IDNUMBER>
F5577-0021

> <Chemical_Name>
6-fluoro-1-methyl-7-(morpholin-4-yl)-4-oxo-1,4-dihydroquinoline-3-carboxylic acid

> <CAS>
70459-08-4

> <PriceCoeff>
1.50

> <MW>
306.29

> <Description>
solid

> <FSP3>
0.33

> <clogP>
0.97

> <TPSA>
70.08

> <Acceptor>
6

> <Donor>
2

> <RotBonds>
2

> <HAC>
22

> <Collection>
Advanced

> <Reference_compound>
CHEMBL8

> <Similarity>
0.8340

$$$$
F6473-3573
  -ISIS-  06222321462D

 23 27  0  0  0  0  0  0  0  0999 V2000
   -1.3083    5.1042    0.0000 N   0  0  3  0  0  0  0  0  0  0  0  0
   -3.0333    4.1042    0.0000 N   0  0  3  0  0  0  0  0  0  0  0  0
   -3.7458    2.8833    0.0000 C   0  0  3  0  0  0  0  0  0  0  0  0
   -3.7458    3.6958    0.0000 C   0  0  0  0  0  0  0  0  0  0  0  0
   -2.0333    4.6875    0.0000 C   0  0  3  0  0  0  0  0  0  0  0  0
   -0.5583    4.7667    0.0000 C   0  0  0  0  0  0  0  0  0  0  0  0
   -1.2250    5.9167    0.0000 C   0  0  0  0  0  0  0  0  0  0  0  0
   -2.8208    4.9000    0.0000 C   0  0  0  0  0  0  0  0  0  0  0  0
   -2.2458    3.8958    0.0000 C   0  0  0  0  0  0  0  0  0  0  0  0
   -4.2958    2.2208    0.0000 C   0  0  0  0  0  0  0  0  0  0  0  0
   -4.4583    2.6250    0.0000 C   0  0  0  0  0  0  0  0  0  0  0  0
   -2.9958    2.5500    0.0000 C   0  0  0  0  0  0  0  0  0  0  0  0
   -4.2958    1.3625    0.0000 C   0  0  3  0  0  0  0  0  0  0  0  0
   -4.4458    1.8333    0.0000 C   0  0  3  0  0  0  0  0  0  0  0  0
   -3.0083    1.7375    0.0000 C   0  0  3  0  0  0  0  0  0  0  0  0
   -4.4458    4.1042    0.0000 O   0  0  0  0  0  0  0  0  0  0  0  0
   -0.0083    5.3792    0.0000 C   0  0  0  0  0  0  0  0  0  0  0  0
   -0.4208    6.0917    0.0000 C   0  0  0  0  0  0  0  0  0  0  0  0
   -0.3875    3.9625    0.0000 O   0  0  0  0  0  0  0  0  0  0  0  0
   -1.8417    6.4708    0.0000 O   0  0  0  0  0  0  0  0  0  0  0  0
   -5.1125    1.1458    0.0000 C   0  0  0  0  0  0  0  0  0  0  0  0
   -3.5583    1.0583    0.0000 C   0  0  0  0  0  0  0  0  0  0  0  0
   -3.7625    1.5625    0.0000 C   0  0  0  0  0  0  0  0  0  0  0  0
  2  9  1  0  0  0  0
  3  4  1  0  0  0  0
  4  2  1  0  0  0  0
  5  1  1  0  0  0  0
  6  1  1  0  0  0  0
  7  1  1  0  0  0  0
  8  5  1  0  0  0  0
  9  5  1  0  0  0  0
 10  3  1  0  0  0  0
 11  3  1  0  0  0  0
 12  3  1  0  0  0  0
 13 10  1  0  0  0  0
 14 11  1  0  0  0  0
 15 12  1  0  0  0  0
 16  4  2  0  0  0  0
 17  6  1  0  0  0  0
 18  7  1  0  0  0  0
 19  6  2  0  0  0  0
 20  7  2  0  0  0  0
 21 14  1  0  0  0  0
 22 15  1  0  0  0  0
 23 15  1  0  0  0  0
 18 17  1  0  0  0  0
  2  8  1  0  0  0  0
 14 23  1  0  0  0  0
 13 22  1  0  0  0  0
 21 13  1  0  0  0  0
M  END
> <IDNUMBER>
F6473-3573

> <Chemical_Name>
1-[1-(adamantane-1-carbonyl)azetidin-3-yl]pyrrolidine-2,5-dione

> <CAS>
1795300-49-0

> <PriceCoeff>
1.50

> <MW>
316.39

> <Description>
solid

> <FSP3>
0.83

> <clogP>
1.33

> <TPSA>
57.69

> <Acceptor>
3

> <Donor>
0

> <RotBonds>
3

> <HAC>
23

> <Collection>
Advanced

$$$$
F5822-0970
  -ISIS-  06222321462D

 25 27  0  0  0  0  0  0  0  0999 V2000
    3.8292   -5.5375    0.0000 N   0  0  3  0  0  0  0  0  0  0  0  0
    8.1500   -8.0417    0.0000 N   0  0  3  0  0  0  0  0  0  0  0  0
    8.8250   -8.5292    0.0000 C   0  0  0  0  0  0  0  0  0  0  0  0
    5.2667   -5.5417    0.0000 C   0  0  0  0  0  0  0  0  0  0  0  0
    4.5417   -5.9542    0.0000 C   0  0  0  0  0  0  0  0  0  0  0  0
    3.7500   -4.7125    0.0000 C   0  0  0  0  0  0  0  0  0  0  0  0
    3.0667   -5.8625    0.0000 C   0  0  0  0  0  0  0  0  0  0  0  0
    5.9792   -5.9542    0.0000 N   0  0  3  0  0  0  0  0  0  0  0  0
    8.5667   -9.3167    0.0000 N   0  0  0  0  0  0  0  0  0  0  0  0
    7.7375   -9.3167    0.0000 C   0  0  0  0  0  0  0  0  0  0  0  0
    7.4792   -8.5292    0.0000 C   0  0  0  0  0  0  0  0  0  0  0  0
    8.1500   -7.2125    0.0000 C   0  0  0  0  0  0  0  0  0  0  0  0
    5.2667   -4.7125    0.0000 O   0  0  0  0  0  0  0  0  0  0  0  0
    2.9417   -4.5292    0.0000 C   0  0  0  0  0  0  0  0  0  0  0  0
    2.5250   -5.2375    0.0000 C   0  0  0  0  0  0  0  0  0  0  0  0
    4.3667   -4.1542    0.0000 O   0  0  0  0  0  0  0  0  0  0  0  0
    2.8917   -6.6792    0.0000 O   0  0  0  0  0  0  0  0  0  0  0  0
    6.7042   -5.5417    0.0000 C   0  0  0  0  0  0  0  0  0  0  0  0
    5.9792   -6.7917    0.0000 C   0  0  0  0  0  0  0  0  0  0  0  0
    9.6125   -8.2667    0.0000 C   0  0  3  0  0  0  0  0  0  0  0  0
    7.4167   -6.7917    0.0000 C   0  0  3  0  0  0  0  0  0  0  0  0
    7.4167   -5.9625    0.0000 C   0  0  0  0  0  0  0  0  0  0  0  0
    6.6917   -7.2042    0.0000 C   0  0  0  0  0  0  0  0  0  0  0  0
   10.2292   -8.8250    0.0000 C   0  0  0  0  0  0  0  0  0  0  0  0
    9.7792   -7.4542    0.0000 C   0  0  0  0  0  0  0  0  0  0  0  0
  2 12  1  0  0  0  0
  3  2  1  0  0  0  0
  4  5  1  0  0  0  0
  5  1  1  0  0  0  0
  6  1  1  0  0  0  0
  7  1  1  0  0  0  0
  8  4  1  0  0  0  0
  9  3  2  0  0  0  0
 10 11  2  0  0  0  0
 11  2  1  0  0  0  0
 12 21  1  0  0  0  0
 13  4  2  0  0  0  0
 14  6  1  0  0  0  0
 15  7  1  0  0  0  0
 16  6  2  0  0  0  0
 17  7  2  0  0  0  0
 18  8  1  0  0  0  0
 19  8  1  0  0  0  0
 20  3  1  0  0  0  0
 21 23  1  0  0  0  0
 22 18  1  0  0  0  0
 23 19  1  0  0  0  0
 24 20  1  0  0  0  0
 25 20  1  0  0  0  0
 15 14  1  0  0  0  0
 22 21  1  0  0  0  0
  9 10  1  0  0  0  0
M  END
> <IDNUMBER>
F5822-0970

> <Chemical_Name>
1-[2-oxo-2-(4-{[2-(propan-2-yl)-1H-imidazol-1-yl]methyl}piperidin-1-yl)ethyl]pyrrolidine-2,5-dione

> <CAS>
1334374-84-3

> <PriceCoeff>
1.50

> <MW>
346.42

> <Description>
oil

> <FSP3>
0.67

> <clogP>
0.58

> <TPSA>
75.51

> <Acceptor>
4

> <Donor>
1

> <RotBonds>
6

> <HAC>
25

> <Collection>
Advanced

$$$$
F6359-5009
  -ISIS-  06222321442D

 24 26  0  0  0  0  0  0  0  0999 V2000
   -5.2833    2.5708    0.0000 N   0  0  3  0  0  0  0  0  0  0  0  0
   -4.5833    3.8000    0.0000 C   0  0  0  0  0  0  0  0  0  0  0  0
   -4.5792    2.9875    0.0000 C   0  0  0  0  0  0  0  0  0  0  0  0
   -5.3708    1.7458    0.0000 C   0  0  0  0  0  0  0  0  0  0  0  0
   -6.0292    2.9000    0.0000 C   0  0  0  0  0  0  0  0  0  0  0  0
   -3.8625    4.2125    0.0000 N   0  0  3  0  0  0  0  0  0  0  0  0
   -1.0083    5.0625    0.0000 C   0  0  0  0  0  0  0  0  0  0  0  0
   -1.7375    5.4667    0.0000 O   0  0  0  0  0  0  0  0  0  0  0  0
   -0.2958    5.4792    0.0000 N   0  0  0  0  0  0  0  0  0  0  0  0
   -3.1458    3.8083    0.0000 C   0  0  0  0  0  0  0  0  0  0  0  0
   -3.8583    5.0417    0.0000 C   0  0  0  0  0  0  0  0  0  0  0  0
   -0.9958    4.2333    0.0000 C   0  0  0  0  0  0  0  0  0  0  0  0
   -5.2958    4.2125    0.0000 O   0  0  0  0  0  0  0  0  0  0  0  0
   -6.5792    2.2833    0.0000 C   0  0  0  0  0  0  0  0  0  0  0  0
   -6.1667    1.5708    0.0000 C   0  0  0  0  0  0  0  0  0  0  0  0
   -6.2042    3.7083    0.0000 O   0  0  0  0  0  0  0  0  0  0  0  0
   -4.7500    1.1833    0.0000 O   0  0  0  0  0  0  0  0  0  0  0  0
   -2.4333    4.2208    0.0000 C   0  0  0  0  0  0  0  0  0  0  0  0
   -3.1583    5.4542    0.0000 C   0  0  0  0  0  0  0  0  0  0  0  0
   -2.4458    5.0458    0.0000 C   0  0  3  0  0  0  0  0  0  0  0  0
   -1.7083    3.8125    0.0000 Br  0  0  0  0  0  0  0  0  0  0  0  0
    0.4250    5.0750    0.0000 C   0  0  0  0  0  0  0  0  0  0  0  0
   -0.2750    3.8333    0.0000 C   0  0  0  0  0  0  0  0  0  0  0  0
    0.4292    4.2500    0.0000 C   0  0  0  0  0  0  0  0  0  0  0  0
  2  3  1  0  0  0  0
  3  1  1  0  0  0  0
  4  1  1  0  0  0  0
  5  1  1  0  0  0  0
  6  2  1  0  0  0  0
  7  8  1  0  0  0  0
  8 20  1  0  0  0  0
  9  7  2  0  0  0  0
 10  6  1  0  0  0  0
 11  6  1  0  0  0  0
 12  7  1  0  0  0  0
 13  2  2  0  0  0  0
 14  5  1  0  0  0  0
 15  4  1  0  0  0  0
 16  5  2  0  0  0  0
 17  4  2  0  0  0  0
 18 10  1  0  0  0  0
 19 11  1  0  0  0  0
 20 19  1  0  0  0  0
 21 12  1  0  0  0  0
 22  9  1  0  0  0  0
 23 12  2  0  0  0  0
 24 23  1  0  0  0  0
 14 15  1  0  0  0  0
 18 20  1  0  0  0  0
 22 24  2  0  0  0  0
M  END
> <IDNUMBER>
F6359-5009

> <Chemical_Name>
1-(2-{4-[(3-bromopyridin-2-yl)oxy]piperidin-1-yl}-2-oxoethyl)pyrrolidine-2,5-dione

> <CAS>
1448069-73-5

> <PriceCoeff>
1.50

> <MW>
396.24

> <Description>
oil

> <FSP3>
0.50

> <clogP>
0.92

> <TPSA>
79.81

> <Acceptor>
5

> <Donor>
1

> <RotBonds>
5

> <HAC>
24

> <Collection>
Advanced

$$$$
F6473-3860
  -ISIS-  06222321462D

 22 24  0  0  0  0  0  0  0  0999 V2000
   -1.3083    5.1042    0.0000 N   0  0  3  0  0  0  0  0  0  0  0  0
   -3.0333    4.1042    0.0000 N   0  0  3  0  0  0  0  0  0  0  0  0
   -2.0333    4.6875    0.0000 C   0  0  3  0  0  0  0  0  0  0  0  0
   -3.7458    3.6958    0.0000 C   0  0  0  0  0  0  0  0  0  0  0  0
   -1.2250    5.9167    0.0000 C   0  0  0  0  0  0  0  0  0  0  0  0
   -0.5583    4.7667    0.0000 C   0  0  0  0  0  0  0  0  0  0  0  0
   -2.2458    3.8958    0.0000 C   0  0  0  0  0  0  0  0  0  0  0  0
   -2.8208    4.9000    0.0000 C   0  0  0  0  0  0  0  0  0  0  0  0
   -4.4583    4.1042    0.0000 N   0  0  0  0  0  0  0  0  0  0  0  0
   -3.7458    2.8708    0.0000 O   0  0  0  0  0  0  0  0  0  0  0  0
   -0.0083    5.3792    0.0000 C   0  0  0  0  0  0  0  0  0  0  0  0
   -0.4208    6.0917    0.0000 C   0  0  0  0  0  0  0  0  0  0  0  0
   -0.3875    3.9625    0.0000 O   0  0  0  0  0  0  0  0  0  0  0  0
   -1.8417    6.4708    0.0000 O   0  0  0  0  0  0  0  0  0  0  0  0
   -5.1708    3.6958    0.0000 C   0  0  0  0  0  0  0  0  0  0  0  0
   -5.1958    1.2208    0.0000 C   0  0  0  0  0  0  0  0  0  0  0  0
   -5.1750    2.8750    0.0000 C   0  0  0  0  0  0  0  0  0  0  0  0
   -5.2083    0.4000    0.0000 Cl  0  0  0  0  0  0  0  0  0  0  0  0
   -5.9083    1.6458    0.0000 C   0  0  0  0  0  0  0  0  0  0  0  0
   -4.4750    1.6250    0.0000 C   0  0  0  0  0  0  0  0  0  0  0  0
   -5.9042    2.4625    0.0000 C   0  0  0  0  0  0  0  0  0  0  0  0
   -4.4667    2.4583    0.0000 C   0  0  0  0  0  0  0  0  0  0  0  0
  2  8  1  0  0  0  0
  3  1  1  0  0  0  0
  4  2  1  0  0  0  0
  5  1  1  0  0  0  0
  6  1  1  0  0  0  0
  7  3  1  0  0  0  0
  8  3  1  0  0  0  0
  9  4  1  0  0  0  0
 10  4  2  0  0  0  0
 11  6  1  0  0  0  0
 12  5  1  0  0  0  0
 13  6  2  0  0  0  0
 14  5  2  0  0  0  0
 15  9  1  0  0  0  0
 16 20  1  0  0  0  0
 17 15  1  0  0  0  0
 18 16  1  0  0  0  0
 19 21  1  0  0  0  0
 20 22  2  0  0  0  0
 21 17  2  0  0  0  0
 22 17  1  0  0  0  0
 12 11  1  0  0  0  0
  7  2  1  0  0  0  0
 16 19  2  0  0  0  0
M  END
> <IDNUMBER>
F6473-3860

> <Chemical_Name>
N-[(4-chlorophenyl)methyl]-3-(2,5-dioxopyrrolidin-1-yl)azetidine-1-carboxamide

> <CAS>
1795191-42-2

> <PriceCoeff>
1.50

> <MW>
321.76

> <Description>
solid

> <FSP3>
0.40

> <clogP>
1.57

> <TPSA>
69.72

> <Acceptor>
3

> <Donor>
1

> <RotBonds>
4

> <HAC>
22

> <Collection>
Advanced

$$$$
F3325-0151
  -ISIS-  06222321152D

 22 24  0  0  0  0  0  0  0  0999 V2000
    2.0042   -2.4417    0.0000 N   0  0  3  0  0  0  0  0  0  0  0  0
    2.5292   -3.0875    0.0000 C   0  0  0  0  0  0  0  0  0  0  0  0
    2.4625   -1.7417    0.0000 C   0  0  0  0  0  0  0  0  0  0  0  0
    3.3042   -2.7917    0.0000 C   0  0  3  0  0  0  0  0  0  0  0  0
    3.2667   -1.9667    0.0000 C   0  0  0  0  0  0  0  0  0  0  0  0
    4.0417   -3.1667    0.0000 N   0  0  3  0  0  0  0  0  0  0  0  0
    5.5042   -3.9167    0.0000 N   0  0  3  0  0  0  0  0  0  0  0  0
    2.3167   -3.8792    0.0000 O   0  0  0  0  0  0  0  0  0  0  0  0
    2.1667   -0.9750    0.0000 O   0  0  0  0  0  0  0  0  0  0  0  0
    4.0792   -3.9875    0.0000 C   0  0  0  0  0  0  0  0  0  0  0  0
    4.7292   -2.7167    0.0000 C   0  0  0  0  0  0  0  0  0  0  0  0
    5.4625   -3.0917    0.0000 C   0  0  0  0  0  0  0  0  0  0  0  0
    4.8042   -4.3625    0.0000 C   0  0  0  0  0  0  0  0  0  0  0  0
    6.2292   -4.2917    0.0000 C   0  0  0  0  0  0  0  0  0  0  0  0
    1.1875   -2.4792    0.0000 C   0  0  0  0  0  0  0  0  0  0  0  0
    6.9250   -3.8500    0.0000 C   0  0  0  0  0  0  0  0  0  0  0  0
    6.2667   -5.1167    0.0000 C   0  0  0  0  0  0  0  0  0  0  0  0
    0.7417   -1.7875    0.0000 C   0  0  0  0  0  0  0  0  0  0  0  0
   -0.0833   -1.8292    0.0000 C   0  0  0  0  0  0  0  0  0  0  0  0
    7.0042   -5.4917    0.0000 C   0  0  0  0  0  0  0  0  0  0  0  0
    7.6542   -4.2167    0.0000 C   0  0  0  0  0  0  0  0  0  0  0  0
    7.7000   -5.0500    0.0000 C   0  0  0  0  0  0  0  0  0  0  0  0
  2  1  1  0  0  0  0
  3  1  1  0  0  0  0
  4  2  1  0  0  0  0
  5  3  1  0  0  0  0
  6  4  1  0  0  0  0
  7 12  1  0  0  0  0
  8  2  2  0  0  0  0
  9  3  2  0  0  0  0
 10  6  1  0  0  0  0
 11  6  1  0  0  0  0
 12 11  1  0  0  0  0
 13 10  1  0  0  0  0
 14  7  1  0  0  0  0
 15  1  1  0  0  0  0
 16 14  1  0  0  0  0
 17 14  2  0  0  0  0
 18 15  1  0  0  0  0
 19 18  1  0  0  0  0
 20 17  1  0  0  0  0
 21 16  2  0  0  0  0
 22 20  2  0  0  0  0
  5  4  1  0  0  0  0
 13  7  1  0  0  0  0
 21 22  1  0  0  0  0
M  END
> <IDNUMBER>
F3325-0151

> <Chemical_Name>
3-(4-phenylpiperazin-1-yl)-1-propylpyrrolidine-2,5-dione

> <CAS>
924861-22-3

> <PriceCoeff>
1.00

> <MW>
301.38

> <Description>
solid

> <FSP3>
0.53

> <clogP>
3.41

> <TPSA>
43.86

> <Acceptor>
3

> <Donor>
2

> <RotBonds>
4

> <HAC>
22

> <Collection>
General

$$$$
F6477-5317
  -ISIS-  06222304352D

 24 25  0  0  0  0  0  0  0  0999 V2000
    1.9667    0.6458    0.0000 N   0  0  3  0  0  0  0  0  0  0  0  0
    4.9667    0.0375    0.0000 C   0  0  0  0  0  0  0  0  0  0  0  0
    3.9667    0.0375    0.0000 N   0  0  0  0  0  0  0  0  0  0  0  0
    3.6625    1.0000    0.0000 C   0  0  0  0  0  0  0  0  0  0  0  0
    0.9792    0.8583    0.0000 C   0  0  0  0  0  0  0  0  0  0  0  0
    2.0625   -0.3500    0.0000 C   0  0  0  0  0  0  0  0  0  0  0  0
    5.2792    1.0000    0.0000 S   0  0  0  0  0  0  0  0  0  0  0  0
    2.7125    1.3125    0.0000 C   0  0  0  0  0  0  0  0  0  0  0  0
    4.4667    1.5833    0.0000 C   0  0  0  0  0  0  0  0  0  0  0  0
    5.5542   -0.7667    0.0000 N   0  0  0  0  0  0  0  0  0  0  0  0
    8.1375   -1.3667    0.0000 C   0  0  0  0  0  0  0  0  0  0  0  0
    7.1417   -1.4750    0.0000 C   0  0  0  0  0  0  0  0  0  0  0  0
    6.5542   -0.6667    0.0000 C   0  0  0  0  0  0  0  0  0  0  0  0
    8.5417   -0.4500    0.0000 C   0  0  0  0  0  0  0  0  0  0  0  0
    1.1417   -0.7542    0.0000 C   0  0  0  0  0  0  0  0  0  0  0  0
    0.4792   -0.0042    0.0000 C   0  0  0  0  0  0  0  0  0  0  0  0
    2.9292   -0.8542    0.0000 O   0  0  0  0  0  0  0  0  0  0  0  0
    0.5750    1.7708    0.0000 O   0  0  0  0  0  0  0  0  0  0  0  0
    7.9542    0.3583    0.0000 C   0  0  0  0  0  0  0  0  0  0  0  0
    8.7292   -2.1750    0.0000 F   0  0  0  0  0  0  0  0  0  0  0  0
    6.9542    0.2458    0.0000 C   0  0  0  0  0  0  0  0  0  0  0  0
    9.5375   -0.3375    0.0000 O   0  0  0  0  0  0  0  0  0  0  0  0
   10.1292   -1.1417    0.0000 C   0  0  0  0  0  0  0  0  0  0  0  0
   11.5167   -0.2042    0.0000 Cl  0  0  0  0  0  0  0  0  0  0  0  0
  3  4  1  0  0  0  0
  4  8  1  0  0  0  0
  5  1  1  0  0  0  0
  6  1  1  0  0  0  0
  7  9  1  0  0  0  0
  8  1  1  0  0  0  0
  9  4  2  0  0  0  0
 10  2  1  0  0  0  0
 11 12  1  0  0  0  0
 12 13  2  0  0  0  0
 13 10  1  0  0  0  0
 14 19  1  0  0  0  0
 15  6  1  0  0  0  0
 16  5  1  0  0  0  0
 17  6  2  0  0  0  0
 18  5  2  0  0  0  0
 19 21  2  0  0  0  0
 20 11  1  0  0  0  0
 21 13  1  0  0  0  0
 22 14  1  0  0  0  0
 23 22  1  0  0  0  0
 15 16  1  0  0  0  0
  7  2  1  0  0  0  0
 14 11  2  0  0  0  0
  2  3  2  0  0  0  0
M  END
> <IDNUMBER>
F6477-5317

> <Chemical_Name>
1-({2-[(3-fluoro-4-methoxyphenyl)amino]-1,3-thiazol-4-yl}methyl)pyrrolidine-2,5-dione hydrochloride

> <CAS>
2034619-97-9

> <PriceCoeff>
1.50

> <MW>
335.35

> <Description>
solid

> <FSP3>
0.27

> <clogP>
1.81

> <TPSA>
99.77

> <Acceptor>
5

> <Donor>
1

> <RotBonds>
5

> <HAC>
23

> <Collection>
Advanced

$$$$
F6477-5325
  -ISIS-  06222304352D

 24 25  0  0  0  0  0  0  0  0999 V2000
    1.9667    0.5708    0.0000 N   0  0  3  0  0  0  0  0  0  0  0  0
    4.9667   -0.0417    0.0000 C   0  0  0  0  0  0  0  0  0  0  0  0
    3.9667   -0.0417    0.0000 N   0  0  0  0  0  0  0  0  0  0  0  0
    3.6625    0.9208    0.0000 C   0  0  0  0  0  0  0  0  0  0  0  0
    0.9792    0.7833    0.0000 C   0  0  0  0  0  0  0  0  0  0  0  0
    2.0625   -0.4292    0.0000 C   0  0  0  0  0  0  0  0  0  0  0  0
    5.2792    0.9208    0.0000 S   0  0  0  0  0  0  0  0  0  0  0  0
    2.7125    1.2333    0.0000 C   0  0  0  0  0  0  0  0  0  0  0  0
    4.4667    1.5000    0.0000 C   0  0  0  0  0  0  0  0  0  0  0  0
    5.5542   -0.8500    0.0000 N   0  0  0  0  0  0  0  0  0  0  0  0
    6.9542    0.1708    0.0000 C   0  0  0  0  0  0  0  0  0  0  0  0
    7.9417    0.2833    0.0000 C   0  0  0  0  0  0  0  0  0  0  0  0
    6.5542   -0.7417    0.0000 C   0  0  0  0  0  0  0  0  0  0  0  0
    8.5417   -0.5292    0.0000 C   0  0  0  0  0  0  0  0  0  0  0  0
    1.1417   -0.8292    0.0000 C   0  0  0  0  0  0  0  0  0  0  0  0
    0.4792   -0.0792    0.0000 C   0  0  0  0  0  0  0  0  0  0  0  0
    2.9292   -0.9292    0.0000 O   0  0  0  0  0  0  0  0  0  0  0  0
    0.5750    1.6958    0.0000 O   0  0  0  0  0  0  0  0  0  0  0  0
    8.1375   -1.4417    0.0000 C   0  0  0  0  0  0  0  0  0  0  0  0
    7.1375   -1.5500    0.0000 C   0  0  0  0  0  0  0  0  0  0  0  0
    9.5292   -0.4167    0.0000 F   0  0  0  0  0  0  0  0  0  0  0  0
    8.3500    1.1958    0.0000 O   0  0  0  0  0  0  0  0  0  0  0  0
    9.3417    1.3083    0.0000 C   0  0  0  0  0  0  0  0  0  0  0  0
   10.9834    0.2167    0.0000 Cl  0  0  0  0  0  0  0  0  0  0  0  0
  3  4  1  0  0  0  0
  4  8  1  0  0  0  0
  5  1  1  0  0  0  0
  6  1  1  0  0  0  0
  7  9  1  0  0  0  0
  8  1  1  0  0  0  0
  9  4  2  0  0  0  0
 10  2  1  0  0  0  0
 11 13  2  0  0  0  0
 12 11  1  0  0  0  0
 13 10  1  0  0  0  0
 14 19  1  0  0  0  0
 15  6  1  0  0  0  0
 16  5  1  0  0  0  0
 17  6  2  0  0  0  0
 18  5  2  0  0  0  0
 19 20  2  0  0  0  0
 20 13  1  0  0  0  0
 21 14  1  0  0  0  0
 22 12  1  0  0  0  0
 23 22  1  0  0  0  0
 15 16  1  0  0  0  0
  7  2  1  0  0  0  0
 12 14  2  0  0  0  0
  2  3  2  0  0  0  0
M  END
> <IDNUMBER>
F6477-5325

> <Chemical_Name>
1-({2-[(4-fluoro-3-methoxyphenyl)amino]-1,3-thiazol-4-yl}methyl)pyrrolidine-2,5-dione hydrochloride

> <CAS>
2034473-53-3

> <PriceCoeff>
1.50

> <MW>
335.35

> <Description>
solid

> <FSP3>
0.27

> <clogP>
1.81

> <TPSA>
99.77

> <Acceptor>
5

> <Donor>
1

> <RotBonds>
5

> <HAC>
23

> <Collection>
Advanced

$$$$
F5103-0371
  -ISIS-  06222321152D

 18 19  0  0  0  0  0  0  0  0999 V2000
   -5.2958    2.5583    0.0000 N   0  0  3  0  0  0  0  0  0  0  0  0
   -5.3708    1.7333    0.0000 C   0  0  0  0  0  0  0  0  0  0  0  0
   -6.0292    2.8958    0.0000 C   0  0  0  0  0  0  0  0  0  0  0  0
   -4.5833    2.9833    0.0000 C   0  0  0  0  0  0  0  0  0  0  0  0
   -4.5833    3.8000    0.0000 C   0  0  0  0  0  0  0  0  0  0  0  0
   -3.5625    7.5417    0.0000 S   0  0  0  0  0  0  0  0  0  0  0  0
   -3.1583    6.2667    0.0000 C   0  0  0  0  0  0  0  0  0  0  0  0
   -3.8208    6.7542    0.0000 C   0  0  0  0  0  0  0  0  0  0  0  0
   -6.1667    1.5583    0.0000 C   0  0  0  0  0  0  0  0  0  0  0  0
   -6.5875    2.2750    0.0000 C   0  0  0  0  0  0  0  0  0  0  0  0
   -4.7583    1.1708    0.0000 O   0  0  0  0  0  0  0  0  0  0  0  0
   -6.2125    3.7083    0.0000 O   0  0  0  0  0  0  0  0  0  0  0  0
   -2.7375    7.5417    0.0000 C   0  0  0  0  0  0  0  0  0  0  0  0
   -2.4833    6.7542    0.0000 C   0  0  0  0  0  0  0  0  0  0  0  0
   -5.3000    4.2125    0.0000 O   0  0  0  0  0  0  0  0  0  0  0  0
   -3.8625    4.2125    0.0000 N   0  0  0  0  0  0  0  0  0  0  0  0
   -3.8625    5.0292    0.0000 C   0  0  0  0  0  0  0  0  0  0  0  0
   -3.1500    5.4417    0.0000 C   0  0  0  0  0  0  0  0  0  0  0  0
  2  1  1  0  0  0  0
  3  1  1  0  0  0  0
  4  1  1  0  0  0  0
  5  4  1  0  0  0  0
  6  8  1  0  0  0  0
  7 18  1  0  0  0  0
  8  7  2  0  0  0  0
  9  2  1  0  0  0  0
 10  3  1  0  0  0  0
 11  2  2  0  0  0  0
 12  3  2  0  0  0  0
 13 14  2  0  0  0  0
 14  7  1  0  0  0  0
 15  5  2  0  0  0  0
 16  5  1  0  0  0  0
 17 16  1  0  0  0  0
 18 17  1  0  0  0  0
 10  9  1  0  0  0  0
  6 13  1  0  0  0  0
M  END
> <IDNUMBER>
F5103-0371

> <Chemical_Name>
2-(2,5-dioxopyrrolidin-1-yl)-N-[2-(thiophen-3-yl)ethyl]acetamide

> <CAS>
1251577-20-4

> <PriceCoeff>
1.00

> <MW>
266.32

> <Description>
solid

> <FSP3>
0.42

> <clogP>
0.50

> <TPSA>
94.72

> <Acceptor>
3

> <Donor>
1

> <RotBonds>
5

> <HAC>
18

> <Collection>
General

$$$$
F9995-0937
  -ISIS-  06222321472D

 15 15  0  0  0  0  0  0  0  0999 V2000
    7.9667   -6.2792    0.0000 C   0  0  0  0  0  0  0  0  0  0  0  0
    8.5500   -5.6917    0.0000 O   0  0  0  0  0  0  0  0  0  0  0  0
    7.1750   -6.0750    0.0000 C   0  0  0  0  0  0  0  0  0  0  0  0
    5.8000   -6.4500    0.0000 C   0  0  0  0  0  0  0  0  0  0  0  0
    4.1417   -6.4417    0.0000 C   0  0  0  0  0  0  0  0  0  0  0  0
    8.1875   -7.0667    0.0000 O   0  0  0  0  0  0  0  0  0  0  0  0
    6.5917   -6.6542    0.0000 C   0  0  0  0  0  0  0  0  0  0  0  0
    5.3875   -5.7375    0.0000 C   0  0  0  0  0  0  0  0  0  0  0  0
    5.3875   -7.1625    0.0000 C   0  0  0  0  0  0  0  0  0  0  0  0
    4.5542   -7.1625    0.0000 C   0  0  0  0  0  0  0  0  0  0  0  0
    4.5625   -5.7292    0.0000 C   0  0  0  0  0  0  0  0  0  0  0  0
    3.3167   -6.4375    0.0000 O   0  0  0  0  0  0  0  0  0  0  0  0
    2.6042   -6.0250    0.0000 C   0  0  0  0  0  0  0  0  0  0  0  0
    1.8917   -6.4375    0.0000 C   0  0  0  0  0  0  0  0  0  0  0  0
    1.1792   -6.0250    0.0000 C   0  0  0  0  0  0  0  0  0  0  0  0
  2  1  2  0  0  0  0
  3  1  1  0  0  0  0
  4  7  1  0  0  0  0
  5 10  2  0  0  0  0
  6  1  1  0  0  0  0
  7  3  1  0  0  0  0
  8  4  1  0  0  0  0
  9  4  2  0  0  0  0
 10  9  1  0  0  0  0
 11  8  2  0  0  0  0
 12  5  1  0  0  0  0
 13 12  1  0  0  0  0
 14 13  1  0  0  0  0
 15 14  1  0  0  0  0
  5 11  1  0  0  0  0
M  END
> <IDNUMBER>
F9995-0937

> <Chemical_Name>
3-(4-propoxyphenyl)propanoic acid

> <CAS>
3243-40-1

> <PriceCoeff>
1.00

> <MW>
208.25

> <Description>
solid

> <FSP3>
0.42

> <clogP>
2.88

> <TPSA>
46.53

> <Acceptor>
3

> <Donor>
0

> <RotBonds>
6

> <HAC>
15

> <Collection>
General

> <Reference_compound>
CHEMBL1172560

> <Similarity>
0.8020

$$$$
F1285-1324
  -ISIS-  06222321142D

 12 13  0  0  0  0  0  0  0  0999 V2000
   -0.5833   -1.9167    0.0000 C   0  0  0  0  0  0  0  0  0  0  0  0
   -1.3625   -2.3542    0.0000 N   0  0  3  0  0  0  0  0  0  0  0  0
   -0.5833   -1.0000    0.0000 C   0  0  0  0  0  0  0  0  0  0  0  0
   -2.1458   -1.9167    0.0000 C   0  0  0  0  0  0  0  0  0  0  0  0
   -2.1458   -1.0000    0.0000 N   0  0  0  0  0  0  0  0  0  0  0  0
   -1.3625   -0.5542    0.0000 C   0  0  0  0  0  0  0  0  0  0  0  0
    0.2792   -2.1792    0.0000 N   0  0  0  0  0  0  0  0  0  0  0  0
    0.2792   -0.7375    0.0000 N   0  0  0  0  0  0  0  0  0  0  0  0
    0.7792   -1.4792    0.0000 C   0  0  0  0  0  0  0  0  0  0  0  0
   -2.9208   -2.4000    0.0000 O   0  0  0  0  0  0  0  0  0  0  0  0
   -1.3625    0.3458    0.0000 O   0  0  0  0  0  0  0  0  0  0  0  0
   -1.3625   -3.2542    0.0000 C   0  0  0  0  0  0  0  0  0  0  0  0
  2  1  1  0  0  0  0
  3  1  2  0  0  0  0
  4  2  1  0  0  0  0
  5  6  1  0  0  0  0
  6  3  1  0  0  0  0
  7  1  1  0  0  0  0
  8  3  1  0  0  0  0
  9  7  2  0  0  0  0
 10  4  2  0  0  0  0
 11  6  2  0  0  0  0
 12  2  1  0  0  0  0
  8  9  1  0  0  0  0
  5  4  1  0  0  0  0
M  END
> <IDNUMBER>
F1285-1324

> <Chemical_Name>
3-methyl-2,3,6,7-tetrahydro-1H-purine-2,6-dione

> <CAS>
1076-22-8

> <PriceCoeff>
1.00

> <MW>
166.14

> <Description>
solid

> <FSP3>
0.17

> <clogP>
-0.66

> <TPSA>
78.09

> <Acceptor>
4

> <Donor>
3

> <RotBonds>
0

> <HAC>
12

> <Collection>
General

> <Reference_compound>
CHEMBL113

> <Similarity>
0.8130

$$$$
F9994-5366
  -ISIS-  06222304352D

  9  8  0  0  0  0  0  0  0  0999 V2000
   -0.4458   -4.5542    0.0000 C   0  0  3  0  0  0  0  0  0  0  0  0
   -0.8625   -5.2750    0.0000 C   0  0  3  0  0  0  0  0  0  0  0  0
   -0.0333   -3.8292    0.0000 N   0  0  0  0  0  0  0  0  0  0  0  0
   -1.4500   -6.2875    0.0000 C   0  0  0  0  0  0  0  0  0  0  0  0
    0.2667   -4.9667    0.0000 C   0  0  0  0  0  0  0  0  0  0  0  0
   -1.1708   -4.1292    0.0000 C   0  0  0  0  0  0  0  0  0  0  0  0
   -0.6500   -6.0750    0.0000 C   0  0  0  0  0  0  0  0  0  0  0  0
   -1.6625   -5.4875    0.0000 C   0  0  0  0  0  0  0  0  0  0  0  0
    1.6542   -4.9042    0.0000 Cl  0  0  0  0  0  0  0  0  0  0  0  0
  3  1  1  0  0  0  0
  4  8  1  0  0  0  0
  5  1  1  0  0  0  0
  6  1  1  0  0  0  0
  7  2  1  0  0  0  0
  8  2  1  0  0  0  0
  7  4  1  0  0  0  0
  2  1  1  0  0  0  0
M  END
> <IDNUMBER>
F9994-5366

> <Chemical_Name>
2-cyclobutylpropan-2-amine hydrochloride

> <CAS>
1864058-17-2

> <PriceCoeff>
1.00

> <MW>
113.20

> <Description>
solid

> <FSP3>
1.00

> <clogP>
1.58

> <TPSA>
26.02

> <Acceptor>
0

> <Donor>
1

> <RotBonds>
1

> <HAC>
8

> <Collection>
General

> <Reference_compound>
PRI100

> <Similarity>
0.8140

$$$$
F0001-1662
  -ISIS-  06222321142D

 10 10  0  0  0  0  0  0  0  0999 V2000
    2.4250   -0.5625    0.0000 C   0  0  0  0  0  0  0  0  0  0  0  0
    0.9917   -1.3917    0.0000 C   0  0  0  0  0  0  0  0  0  0  0  0
    2.4250   -1.3917    0.0000 C   0  0  0  0  0  0  0  0  0  0  0  0
    1.7042   -0.1500    0.0000 C   0  0  0  0  0  0  0  0  0  0  0  0
    1.7042   -1.8042    0.0000 C   0  0  0  0  0  0  0  0  0  0  0  0
    0.9917   -0.5625    0.0000 C   0  0  0  0  0  0  0  0  0  0  0  0
    3.1375   -0.1417    0.0000 O   0  0  0  0  0  0  0  0  0  0  0  0
    0.2792   -1.8042    0.0000 O   0  0  0  0  0  0  0  0  0  0  0  0
   -0.4333   -1.3917    0.0000 C   0  0  0  0  0  0  0  0  0  0  0  0
   -1.1500   -1.8042    0.0000 C   0  0  0  0  0  0  0  0  0  0  0  0
  2  6  2  0  0  0  0
  3  1  1  0  0  0  0
  4  1  2  0  0  0  0
  5  3  2  0  0  0  0
  6  4  1  0  0  0  0
  7  1  1  0  0  0  0
  8  2  1  0  0  0  0
  9  8  1  0  0  0  0
 10  9  1  0  0  0  0
  5  2  1  0  0  0  0
M  END
> <IDNUMBER>
F0001-1662

> <Chemical_Name>
4-ethoxyphenol

> <CAS>
622-62-8

> <PriceCoeff>
1.00

> <MW>
138.16

> <Description>
solid

> <FSP3>
0.25

> <clogP>
2.10

> <TPSA>
29.46

> <Acceptor>
2

> <Donor>
1

> <RotBonds>
2

> <HAC>
10

> <Collection>
General

> <Reference_compound>
CHEMBL2252609

> <Similarity>
0.9800

$$$$
F6477-5318
  -ISIS-  06222304352D

 23 24  0  0  0  0  0  0  0  0999 V2000
    1.9667    0.7583    0.0000 N   0  0  3  0  0  0  0  0  0  0  0  0
    4.9667    0.1458    0.0000 C   0  0  0  0  0  0  0  0  0  0  0  0
    3.9667    0.1458    0.0000 N   0  0  0  0  0  0  0  0  0  0  0  0
    3.6625    1.1083    0.0000 C   0  0  0  0  0  0  0  0  0  0  0  0
    0.9792    0.9708    0.0000 C   0  0  0  0  0  0  0  0  0  0  0  0
    2.0625   -0.2417    0.0000 C   0  0  0  0  0  0  0  0  0  0  0  0
    5.2792    1.1083    0.0000 S   0  0  0  0  0  0  0  0  0  0  0  0
    5.5542   -0.6625    0.0000 N   0  0  0  0  0  0  0  0  0  0  0  0
    2.7125    1.4208    0.0000 C   0  0  0  0  0  0  0  0  0  0  0  0
    4.4667    1.6875    0.0000 C   0  0  0  0  0  0  0  0  0  0  0  0
    6.5542   -0.5542    0.0000 C   0  0  0  0  0  0  0  0  0  0  0  0
    7.1417   -1.3667    0.0000 C   0  0  0  0  0  0  0  0  0  0  0  0
    8.1375   -1.2542    0.0000 C   0  0  0  0  0  0  0  0  0  0  0  0
    1.1417   -0.6417    0.0000 C   0  0  0  0  0  0  0  0  0  0  0  0
    0.4792    0.1083    0.0000 C   0  0  0  0  0  0  0  0  0  0  0  0
    2.9292   -0.7417    0.0000 O   0  0  0  0  0  0  0  0  0  0  0  0
    0.5750    1.8833    0.0000 O   0  0  0  0  0  0  0  0  0  0  0  0
    6.9542    0.3583    0.0000 C   0  0  0  0  0  0  0  0  0  0  0  0
    8.5417   -0.3417    0.0000 C   0  0  0  0  0  0  0  0  0  0  0  0
    6.7417   -2.2792    0.0000 F   0  0  0  0  0  0  0  0  0  0  0  0
    7.9542    0.4583    0.0000 C   0  0  0  0  0  0  0  0  0  0  0  0
    9.5375   -0.2292    0.0000 F   0  0  0  0  0  0  0  0  0  0  0  0
   10.9917   -0.2000    0.0000 Cl  0  0  0  0  0  0  0  0  0  0  0  0
  3  4  1  0  0  0  0
  4  9  1  0  0  0  0
  5  1  1  0  0  0  0
  6  1  1  0  0  0  0
  7 10  1  0  0  0  0
  8  2  1  0  0  0  0
  9  1  1  0  0  0  0
 10  4  2  0  0  0  0
 11  8  1  0  0  0  0
 12 11  2  0  0  0  0
 13 12  1  0  0  0  0
 14  6  1  0  0  0  0
 15  5  1  0  0  0  0
 16  6  2  0  0  0  0
 17  5  2  0  0  0  0
 18 11  1  0  0  0  0
 19 21  1  0  0  0  0
 20 12  1  0  0  0  0
 21 18  2  0  0  0  0
 22 19  1  0  0  0  0
 14 15  1  0  0  0  0
  7  2  1  0  0  0  0
 13 19  2  0  0  0  0
  2  3  2  0  0  0  0
M  END
> <IDNUMBER>
F6477-5318

> <Chemical_Name>
1-({2-[(2,4-difluorophenyl)amino]-1,3-thiazol-4-yl}methyl)pyrrolidine-2,5-dione hydrochloride

> <CAS>
2034325-60-3

> <PriceCoeff>
1.50

> <MW>
323.32

> <Description>
solid

> <FSP3>
0.21

> <clogP>
2.20

> <TPSA>
90.54

> <Acceptor>
4

> <Donor>
1

> <RotBonds>
4

> <HAC>
22

> <Collection>
Advanced

$$$$
F6477-5321
  -ISIS-  06222304352D

 23 24  0  0  0  0  0  0  0  0999 V2000
    1.9667    0.7583    0.0000 N   0  0  3  0  0  0  0  0  0  0  0  0
    4.9667    0.1458    0.0000 C   0  0  0  0  0  0  0  0  0  0  0  0
    3.9667    0.1458    0.0000 N   0  0  0  0  0  0  0  0  0  0  0  0
    3.6625    1.1083    0.0000 C   0  0  0  0  0  0  0  0  0  0  0  0
    0.9792    0.9708    0.0000 C   0  0  0  0  0  0  0  0  0  0  0  0
    2.0625   -0.2417    0.0000 C   0  0  0  0  0  0  0  0  0  0  0  0
    5.2792    1.1083    0.0000 S   0  0  0  0  0  0  0  0  0  0  0  0
    5.5542   -0.6625    0.0000 N   0  0  0  0  0  0  0  0  0  0  0  0
    6.5542   -0.5542    0.0000 C   0  0  0  0  0  0  0  0  0  0  0  0
    2.7125    1.4208    0.0000 C   0  0  0  0  0  0  0  0  0  0  0  0
    4.4667    1.6875    0.0000 C   0  0  0  0  0  0  0  0  0  0  0  0
    6.9542    0.3583    0.0000 C   0  0  0  0  0  0  0  0  0  0  0  0
    7.1417   -1.3667    0.0000 C   0  0  0  0  0  0  0  0  0  0  0  0
    1.1417   -0.6417    0.0000 C   0  0  0  0  0  0  0  0  0  0  0  0
    0.4792    0.1083    0.0000 C   0  0  0  0  0  0  0  0  0  0  0  0
    2.9292   -0.7417    0.0000 O   0  0  0  0  0  0  0  0  0  0  0  0
    0.5750    1.8833    0.0000 O   0  0  0  0  0  0  0  0  0  0  0  0
    8.1375   -1.2542    0.0000 C   0  0  0  0  0  0  0  0  0  0  0  0
    7.9542    0.4583    0.0000 C   0  0  0  0  0  0  0  0  0  0  0  0
    6.7417   -2.2792    0.0000 F   0  0  0  0  0  0  0  0  0  0  0  0
    8.5417   -0.3417    0.0000 C   0  0  0  0  0  0  0  0  0  0  0  0
    8.3542    1.3750    0.0000 F   0  0  0  0  0  0  0  0  0  0  0  0
    9.9417   -0.2000    0.0000 Cl  0  0  0  0  0  0  0  0  0  0  0  0
  3  4  1  0  0  0  0
  4 10  1  0  0  0  0
  5  1  1  0  0  0  0
  6  1  1  0  0  0  0
  7 11  1  0  0  0  0
  8  2  1  0  0  0  0
  9  8  1  0  0  0  0
 10  1  1  0  0  0  0
 11  4  2  0  0  0  0
 12  9  1  0  0  0  0
 13  9  2  0  0  0  0
 14  6  1  0  0  0  0
 15  5  1  0  0  0  0
 16  6  2  0  0  0  0
 17  5  2  0  0  0  0
 18 13  1  0  0  0  0
 19 12  2  0  0  0  0
 20 13  1  0  0  0  0
 21 18  2  0  0  0  0
 22 19  1  0  0  0  0
 14 15  1  0  0  0  0
  7  2  1  0  0  0  0
 21 19  1  0  0  0  0
  2  3  2  0  0  0  0
M  END
> <IDNUMBER>
F6477-5321

> <Chemical_Name>
1-({2-[(2,5-difluorophenyl)amino]-1,3-thiazol-4-yl}methyl)pyrrolidine-2,5-dione hydrochloride

> <CAS>
2034393-86-5

> <PriceCoeff>
1.50

> <MW>
323.32

> <Description>
solid

> <FSP3>
0.21

> <clogP>
2.20

> <TPSA>
90.54

> <Acceptor>
4

> <Donor>
1

> <RotBonds>
4

> <HAC>
22

> <Collection>
Advanced

$$$$
F6477-5324
  -ISIS-  06222304352D

 24 25  0  0  0  0  0  0  0  0999 V2000
    1.9667   -1.7667    0.0000 N   0  0  3  0  0  0  0  0  0  0  0  0
    5.2792   -1.4167    0.0000 C   0  0  0  0  0  0  0  0  0  0  0  0
    4.4667   -0.8292    0.0000 N   0  0  0  0  0  0  0  0  0  0  0  0
    3.6625   -1.4167    0.0000 C   0  0  0  0  0  0  0  0  0  0  0  0
    0.9792   -1.5542    0.0000 C   0  0  0  0  0  0  0  0  0  0  0  0
    2.0625   -2.7625    0.0000 C   0  0  0  0  0  0  0  0  0  0  0  0
    4.9667   -2.3750    0.0000 S   0  0  0  0  0  0  0  0  0  0  0  0
    6.2292   -1.1000    0.0000 N   0  0  0  0  0  0  0  0  0  0  0  0
    2.7125   -1.1000    0.0000 C   0  0  0  0  0  0  0  0  0  0  0  0
    3.9667   -2.3750    0.0000 C   0  0  0  0  0  0  0  0  0  0  0  0
    6.4292   -0.1167    0.0000 C   0  0  0  0  0  0  0  0  0  0  0  0
    7.3875    0.1958    0.0000 C   0  0  0  0  0  0  0  0  0  0  0  0
    0.4792   -2.4167    0.0000 C   0  0  0  0  0  0  0  0  0  0  0  0
    1.1417   -3.1667    0.0000 C   0  0  0  0  0  0  0  0  0  0  0  0
    0.5750   -0.6417    0.0000 O   0  0  0  0  0  0  0  0  0  0  0  0
    2.9292   -3.2667    0.0000 O   0  0  0  0  0  0  0  0  0  0  0  0
    7.5875    1.1708    0.0000 C   0  0  0  0  0  0  0  0  0  0  0  0
    5.6875    0.5458    0.0000 C   0  0  0  0  0  0  0  0  0  0  0  0
    6.8417    1.8333    0.0000 C   0  0  0  0  0  0  0  0  0  0  0  0
    5.8917    1.5250    0.0000 C   0  0  0  0  0  0  0  0  0  0  0  0
    7.0500    2.8125    0.0000 O   0  0  0  0  0  0  0  0  0  0  0  0
    8.1292   -0.4667    0.0000 C   0  0  0  0  0  0  0  0  0  0  0  0
    8.0000    3.1208    0.0000 C   0  0  0  0  0  0  0  0  0  0  0  0
    9.5167   -0.1292    0.0000 Cl  0  0  0  0  0  0  0  0  0  0  0  0
  3  4  1  0  0  0  0
  4  9  1  0  0  0  0
  5  1  1  0  0  0  0
  6  1  1  0  0  0  0
  7 10  1  0  0  0  0
  8  2  1  0  0  0  0
  9  1  1  0  0  0  0
 10  4  2  0  0  0  0
 11  8  1  0  0  0  0
 12 11  2  0  0  0  0
 13  5  1  0  0  0  0
 14  6  1  0  0  0  0
 15  5  2  0  0  0  0
 16  6  2  0  0  0  0
 17 12  1  0  0  0  0
 18 11  1  0  0  0  0
 19 20  1  0  0  0  0
 20 18  2  0  0  0  0
 21 19  1  0  0  0  0
 22 12  1  0  0  0  0
 23 21  1  0  0  0  0
 14 13  1  0  0  0  0
  2  7  1  0  0  0  0
 19 17  2  0  0  0  0
  2  3  2  0  0  0  0
M  END
> <IDNUMBER>
F6477-5324

> <Chemical_Name>
1-({2-[(4-methoxy-2-methylphenyl)amino]-1,3-thiazol-4-yl}methyl)pyrrolidine-2,5-dione hydrochloride

> <CAS>
2034497-08-8

> <PriceCoeff>
1.50

> <MW>
331.39

> <Description>
oil

> <FSP3>
0.31

> <clogP>
2.28

> <TPSA>
99.77

> <Acceptor>
5

> <Donor>
1

> <RotBonds>
5

> <HAC>
23

> <Collection>
Advanced

$$$$
F6477-5327
  -ISIS-  06222304352D

 23 24  0  0  0  0  0  0  0  0999 V2000
    1.9667    0.8333    0.0000 N   0  0  3  0  0  0  0  0  0  0  0  0
    4.9667    0.2250    0.0000 C   0  0  0  0  0  0  0  0  0  0  0  0
    3.9667    0.2250    0.0000 N   0  0  0  0  0  0  0  0  0  0  0  0
    3.6625    1.1833    0.0000 C   0  0  0  0  0  0  0  0  0  0  0  0
    0.9792    1.0458    0.0000 C   0  0  0  0  0  0  0  0  0  0  0  0
    2.0625   -0.1667    0.0000 C   0  0  0  0  0  0  0  0  0  0  0  0
    6.6667   -0.6417    0.0000 C   0  0  0  0  0  0  0  0  0  0  0  0
    5.6750   -0.7417    0.0000 N   0  0  0  0  0  0  0  0  0  0  0  0
    5.2792    1.1833    0.0000 S   0  0  0  0  0  0  0  0  0  0  0  0
    2.7125    1.4958    0.0000 C   0  0  0  0  0  0  0  0  0  0  0  0
    4.4667    1.7625    0.0000 C   0  0  0  0  0  0  0  0  0  0  0  0
    7.0792    0.2750    0.0000 C   0  0  0  0  0  0  0  0  0  0  0  0
    7.2542   -1.4417    0.0000 C   0  0  0  0  0  0  0  0  0  0  0  0
    1.1417   -0.5667    0.0000 C   0  0  0  0  0  0  0  0  0  0  0  0
    0.4792    0.1833    0.0000 C   0  0  0  0  0  0  0  0  0  0  0  0
    2.9292   -0.6667    0.0000 O   0  0  0  0  0  0  0  0  0  0  0  0
    0.5750    1.9583    0.0000 O   0  0  0  0  0  0  0  0  0  0  0  0
    6.7250    0.7625    0.0000 F   0  0  0  0  0  0  0  0  0  0  0  0
    6.8500   -2.3542    0.0000 F   0  0  0  0  0  0  0  0  0  0  0  0
    8.6625   -0.4375    0.0000 C   0  0  0  0  0  0  0  0  0  0  0  0
    8.0750    0.3833    0.0000 C   0  0  0  0  0  0  0  0  0  0  0  0
    8.2500   -1.3417    0.0000 C   0  0  0  0  0  0  0  0  0  0  0  0
   10.0625   -0.2000    0.0000 Cl  0  0  0  0  0  0  0  0  0  0  0  0
  3  4  1  0  0  0  0
  4 10  1  0  0  0  0
  5  1  1  0  0  0  0
  6  1  1  0  0  0  0
  7  8  1  0  0  0  0
  8  2  1  0  0  0  0
  9 11  1  0  0  0  0
 10  1  1  0  0  0  0
 11  4  2  0  0  0  0
 12  7  2  0  0  0  0
 13  7  1  0  0  0  0
 14  6  1  0  0  0  0
 15  5  1  0  0  0  0
 16  6  2  0  0  0  0
 17  5  2  0  0  0  0
 18 12  1  0  0  0  0
 19 13  1  0  0  0  0
 20 22  1  0  0  0  0
 21 12  1  0  0  0  0
 22 13  2  0  0  0  0
 14 15  1  0  0  0  0
  9  2  1  0  0  0  0
 21 20  2  0  0  0  0
  2  3  2  0  0  0  0
M  END
> <IDNUMBER>
F6477-5327

> <Chemical_Name>
1-({2-[(2,6-difluorophenyl)amino]-1,3-thiazol-4-yl}methyl)pyrrolidine-2,5-dione hydrochloride

> <CAS>
2034365-59-6

> <PriceCoeff>
1.50

> <MW>
323.32

> <Description>
solid

> <FSP3>
0.21

> <clogP>
2.20

> <TPSA>
90.54

> <Acceptor>
4

> <Donor>
1

> <RotBonds>
4

> <HAC>
22

> <Collection>
Advanced

$$$$
F6359-0631
  -ISIS-  06222321462D

 27 29  0  0  0  0  0  0  0  0999 V2000
   -5.2833    2.5708    0.0000 N   0  0  3  0  0  0  0  0  0  0  0  0
    1.1417    3.8125    0.0000 C   0  0  3  0  0  0  0  0  0  0  0  0
   -4.5833    3.8000    0.0000 C   0  0  0  0  0  0  0  0  0  0  0  0
   -4.5792    2.9875    0.0000 C   0  0  0  0  0  0  0  0  0  0  0  0
   -5.3708    1.7458    0.0000 C   0  0  0  0  0  0  0  0  0  0  0  0
   -6.0292    2.9000    0.0000 C   0  0  0  0  0  0  0  0  0  0  0  0
   -3.8625    4.2125    0.0000 N   0  0  3  0  0  0  0  0  0  0  0  0
    0.4250    4.2167    0.0000 C   0  0  0  0  0  0  0  0  0  0  0  0
   -0.2958    5.4542    0.0000 N   0  0  0  0  0  0  0  0  0  0  0  0
   -1.0125    5.0417    0.0000 C   0  0  0  0  0  0  0  0  0  0  0  0
    0.4167    5.0417    0.0000 C   0  0  0  0  0  0  0  0  0  0  0  0
   -3.8708    5.0417    0.0000 C   0  0  0  0  0  0  0  0  0  0  0  0
   -3.1500    3.8000    0.0000 C   0  0  0  0  0  0  0  0  0  0  0  0
   -5.2958    4.2125    0.0000 O   0  0  0  0  0  0  0  0  0  0  0  0
   -6.5792    2.2833    0.0000 C   0  0  0  0  0  0  0  0  0  0  0  0
   -6.1667    1.5708    0.0000 C   0  0  0  0  0  0  0  0  0  0  0  0
   -6.2042    3.7083    0.0000 O   0  0  0  0  0  0  0  0  0  0  0  0
   -4.7500    1.1833    0.0000 O   0  0  0  0  0  0  0  0  0  0  0  0
   -0.2875    3.8083    0.0000 C   0  0  0  0  0  0  0  0  0  0  0  0
   -1.7333    5.4542    0.0000 O   0  0  0  0  0  0  0  0  0  0  0  0
    1.1417    2.9958    0.0000 F   0  0  0  0  0  0  0  0  0  0  0  0
    1.8542    4.2208    0.0000 F   0  0  0  0  0  0  0  0  0  0  0  0
    1.8625    3.4000    0.0000 F   0  0  0  0  0  0  0  0  0  0  0  0
   -3.1583    5.4500    0.0000 C   0  0  0  0  0  0  0  0  0  0  0  0
   -2.4333    4.2125    0.0000 C   0  0  0  0  0  0  0  0  0  0  0  0
   -2.4458    5.0333    0.0000 C   0  0  3  0  0  0  0  0  0  0  0  0
   -1.0083    4.2167    0.0000 C   0  0  0  0  0  0  0  0  0  0  0  0
  2  8  1  0  0  0  0
  3  4  1  0  0  0  0
  4  1  1  0  0  0  0
  5  1  1  0  0  0  0
  6  1  1  0  0  0  0
  7  3  1  0  0  0  0
  8 19  1  0  0  0  0
  9 10  2  0  0  0  0
 10 20  1  0  0  0  0
 11  9  1  0  0  0  0
 12  7  1  0  0  0  0
 13  7  1  0  0  0  0
 14  3  2  0  0  0  0
 15  6  1  0  0  0  0
 16  5  1  0  0  0  0
 17  6  2  0  0  0  0
 18  5  2  0  0  0  0
 19 27  2  0  0  0  0
 20 26  1  0  0  0  0
 21  2  1  0  0  0  0
 22  2  1  0  0  0  0
 23  2  1  0  0  0  0
 24 12  1  0  0  0  0
 25 13  1  0  0  0  0
 26 25  1  0  0  0  0
 27 10  1  0  0  0  0
 15 16  1  0  0  0  0
 24 26  1  0  0  0  0
 11  8  2  0  0  0  0
M  END
> <IDNUMBER>
F6359-0631

> <Chemical_Name>
1-[2-oxo-2-(4-{[5-(trifluoromethyl)pyridin-2-yl]oxy}piperidin-1-yl)ethyl]pyrrolidine-2,5-dione

> <CAS>
1421445-24-0

> <PriceCoeff>
1.50

> <MW>
385.34

> <Description>
solid

> <FSP3>
0.53

> <clogP>
1.22

> <TPSA>
79.81

> <Acceptor>
5

> <Donor>
1

> <RotBonds>
5

> <HAC>
27

> <Collection>
Advanced

$$$$
F9994-5470
  -ISIS-  06222304352D

 12 11  0  0  0  0  0  0  0  0999 V2000
    4.4375   -2.6250    0.0000 C   0  0  0  0  0  0  0  0  0  0  0  0
    5.1542   -3.0375    0.0000 C   0  0  0  0  0  0  0  0  0  0  0  0
    4.4375   -1.7917    0.0000 C   0  0  0  0  0  0  0  0  0  0  0  0
    5.1542   -3.8667    0.0000 C   0  0  0  0  0  0  0  0  0  0  0  0
    3.0000   -1.7917    0.0000 N   0  0  0  0  0  0  0  0  0  0  0  0
    5.8667   -4.2792    0.0000 O   0  0  0  0  0  0  0  0  0  0  0  0
    3.7167   -1.3792    0.0000 C   0  0  3  0  0  0  0  0  0  0  0  0
    3.7167   -3.8667    0.0000 C   0  0  0  0  0  0  0  0  0  0  0  0
    3.7167   -3.0375    0.0000 C   0  0  0  0  0  0  0  0  0  0  0  0
    4.4375   -4.2792    0.0000 C   0  0  0  0  0  0  0  0  0  0  0  0
    3.7167   -0.5500    0.0000 C   0  0  0  0  0  0  0  0  0  0  0  0
    7.3709   -2.4709    0.0000 Br  0  0  0  0  0  0  0  0  0  0  0  0
  3  1  1  0  0  0  0
  4  2  1  0  0  0  0
  5  7  1  0  0  0  0
  6  4  1  0  0  0  0
  7  3  1  0  0  0  0
  8  9  2  0  0  0  0
  9  1  1  0  0  0  0
 10  8  1  0  0  0  0
 11  7  1  0  0  0  0
  4 10  2  0  0  0  0
  2  1  2  0  0  0  0
M  END
> <IDNUMBER>
F9994-5470

> <Chemical_Name>
3-(2-aminopropyl)phenol hydrobromide

> <CAS>
1391054-33-3

> <PriceCoeff>
1.00

> <MW>
151.20

> <Description>
solid

> <FSP3>
0.33

> <clogP>
1.07

> <TPSA>
46.25

> <Acceptor>
1

> <Donor>
2

> <RotBonds>
2

> <HAC>
11

> <Collection>
General

> <Reference_compound>
CHEMBL1255790

> <Similarity>
0.8050

$$$$
F6663-4248
  -ISIS-  06222321162D

 20 22  0  0  0  0  0  0  0  0999 V2000
   -2.2958    4.4667    0.0000 C   0  0  0  0  0  0  0  0  0  0  0  0
   -2.2958    3.6583    0.0000 N   0  0  3  0  0  0  0  0  0  0  0  0
   -2.2958    2.0083    0.0000 N   0  0  3  0  0  0  0  0  0  0  0  0
   -3.0083    4.8875    0.0000 C   0  0  0  0  0  0  0  0  0  0  0  0
   -3.0083    5.7125    0.0000 C   0  0  0  0  0  0  0  0  0  0  0  0
   -3.7208    6.1250    0.0000 C   0  0  0  0  0  0  0  0  0  0  0  0
   -3.0083    3.2458    0.0000 C   0  0  0  0  0  0  0  0  0  0  0  0
   -1.5833    3.2458    0.0000 C   0  0  0  0  0  0  0  0  0  0  0  0
   -1.5833    2.4208    0.0000 C   0  0  0  0  0  0  0  0  0  0  0  0
   -3.0083    2.4208    0.0000 C   0  0  0  0  0  0  0  0  0  0  0  0
   -1.5833    4.8875    0.0000 O   0  0  0  0  0  0  0  0  0  0  0  0
   -4.4375    5.7125    0.0000 C   0  0  0  0  0  0  0  0  0  0  0  0
   -3.7208    4.4667    0.0000 C   0  0  0  0  0  0  0  0  0  0  0  0
   -2.2958    1.1833    0.0000 C   0  0  3  0  0  0  0  0  0  0  0  0
   -4.4375    4.8875    0.0000 C   0  0  0  0  0  0  0  0  0  0  0  0
   -3.7208    6.9500    0.0000 F   0  0  0  0  0  0  0  0  0  0  0  0
   -2.2958    0.0125    0.0000 C   0  0  0  0  0  0  0  0  0  0  0  0
   -2.8750    0.5958    0.0000 C   0  0  0  0  0  0  0  0  0  0  0  0
   -1.7083    0.5958    0.0000 C   0  0  0  0  0  0  0  0  0  0  0  0
   -5.1583    6.1250    0.0000 C   0  0  0  0  0  0  0  0  0  0  0  0
  2  1  1  0  0  0  0
  3  9  1  0  0  0  0
  4  1  1  0  0  0  0
  5  4  2  0  0  0  0
  6  5  1  0  0  0  0
  7  2  1  0  0  0  0
  8  2  1  0  0  0  0
  9  8  1  0  0  0  0
 10  7  1  0  0  0  0
 11  1  2  0  0  0  0
 12 15  1  0  0  0  0
 13  4  1  0  0  0  0
 14  3  1  0  0  0  0
 15 13  2  0  0  0  0
 16  6  1  0  0  0  0
 17 19  1  0  0  0  0
 18 14  1  0  0  0  0
 19 14  1  0  0  0  0
 20 12  1  0  0  0  0
 10  3  1  0  0  0  0
  6 12  2  0  0  0  0
 18 17  1  0  0  0  0
M  END
> <IDNUMBER>
F6663-4248

> <Chemical_Name>
1-cyclobutyl-4-(3-fluoro-4-methylbenzoyl)piperazine

> <CAS>
2327307-01-5

> <PriceCoeff>
1.00

> <MW>
276.34

> <Description>
oil

> <FSP3>
0.56

> <clogP>
2.75

> <TPSA>
23.55

> <Acceptor>
1

> <Donor>
1

> <RotBonds>
3

> <HAC>
20

> <Collection>
General

> <Reference_compound>
CHEMBL3969241

> <Similarity>
0.8150

$$$$
F5831-9803
  -ISIS-  06222321462D

 20 22  0  0  0  0  0  0  0  0999 V2000
   -5.2875    2.5625    0.0000 N   0  0  3  0  0  0  0  0  0  0  0  0
   -3.1458    5.4500    0.0000 C   0  0  3  0  0  0  0  0  0  0  0  0
   -5.3708    1.7333    0.0000 C   0  0  0  0  0  0  0  0  0  0  0  0
   -6.0292    2.9000    0.0000 C   0  0  0  0  0  0  0  0  0  0  0  0
   -2.4375    5.0417    0.0000 C   0  0  0  0  0  0  0  0  0  0  0  0
   -2.7375    6.1667    0.0000 C   0  0  0  0  0  0  0  0  0  0  0  0
   -3.5625    6.1667    0.0000 C   0  0  0  0  0  0  0  0  0  0  0  0
   -4.5833    2.9833    0.0000 C   0  0  0  0  0  0  0  0  0  0  0  0
   -1.6500    5.2917    0.0000 S   0  0  0  0  0  0  0  0  0  0  0  0
   -4.5833    3.8000    0.0000 C   0  0  0  0  0  0  0  0  0  0  0  0
   -3.8625    5.0417    0.0000 C   0  0  0  0  0  0  0  0  0  0  0  0
   -3.8625    4.2125    0.0000 N   0  0  0  0  0  0  0  0  0  0  0  0
   -2.4333    4.2125    0.0000 C   0  0  0  0  0  0  0  0  0  0  0  0
   -6.1667    1.5583    0.0000 C   0  0  0  0  0  0  0  0  0  0  0  0
   -6.5875    2.2833    0.0000 C   0  0  0  0  0  0  0  0  0  0  0  0
   -4.7583    1.1708    0.0000 O   0  0  0  0  0  0  0  0  0  0  0  0
   -6.2125    3.7083    0.0000 O   0  0  0  0  0  0  0  0  0  0  0  0
   -1.1583    4.6292    0.0000 C   0  0  0  0  0  0  0  0  0  0  0  0
   -1.6458    3.9583    0.0000 C   0  0  0  0  0  0  0  0  0  0  0  0
   -5.3000    4.2125    0.0000 O   0  0  0  0  0  0  0  0  0  0  0  0
  2 11  1  0  0  0  0
  3  1  1  0  0  0  0
  4  1  1  0  0  0  0
  5  2  1  0  0  0  0
  6  2  1  0  0  0  0
  7  2  1  0  0  0  0
  8  1  1  0  0  0  0
  9  5  1  0  0  0  0
 10  8  1  0  0  0  0
 11 12  1  0  0  0  0
 12 10  1  0  0  0  0
 13  5  2  0  0  0  0
 14  3  1  0  0  0  0
 15  4  1  0  0  0  0
 16  3  2  0  0  0  0
 17  4  2  0  0  0  0
 18  9  1  0  0  0  0
 19 13  1  0  0  0  0
 20 10  2  0  0  0  0
 14 15  1  0  0  0  0
  6  7  1  0  0  0  0
 18 19  2  0  0  0  0
M  END
> <IDNUMBER>
F5831-9803

> <Chemical_Name>
2-(2,5-dioxopyrrolidin-1-yl)-N-{[1-(thiophen-2-yl)cyclopropyl]methyl}acetamide

> <CAS>
1208383-99-6

> <PriceCoeff>
1.00

> <MW>
292.35

> <Description>
solid

> <FSP3>
0.50

> <clogP>
0.93

> <TPSA>
94.72

> <Acceptor>
3

> <Donor>
1

> <RotBonds>
5

> <HAC>
20

> <Collection>
General

$$$$
F2147-0872
  -ISIS-  06222321442D

 12 12  0  0  0  0  0  0  0  0999 V2000
    4.4167   -1.0000    0.0000 C   0  0  0  0  0  0  0  0  0  0  0  0
    2.9875   -1.8292    0.0000 C   0  0  0  0  0  0  0  0  0  0  0  0
    4.4167   -1.8292    0.0000 C   0  0  0  0  0  0  0  0  0  0  0  0
    3.7000   -0.5875    0.0000 C   0  0  0  0  0  0  0  0  0  0  0  0
    3.7000   -2.2417    0.0000 C   0  0  0  0  0  0  0  0  0  0  0  0
    2.9875   -1.0000    0.0000 C   0  0  0  0  0  0  0  0  0  0  0  0
    5.1292   -0.5833    0.0000 O   0  0  0  0  0  0  0  0  0  0  0  0
    2.2708   -2.2417    0.0000 O   0  0  0  0  0  0  0  0  0  0  0  0
    0.1292   -1.8292    0.0000 O   0  0  0  0  0  0  0  0  0  0  0  0
    1.5583   -1.8292    0.0000 C   0  0  0  0  0  0  0  0  0  0  0  0
    0.8417   -2.2417    0.0000 C   0  0  0  0  0  0  0  0  0  0  0  0
   -0.5875   -2.2375    0.0000 C   0  0  0  0  0  0  0  0  0  0  0  0
  2  6  2  0  0  0  0
  3  1  1  0  0  0  0
  4  1  2  0  0  0  0
  5  3  2  0  0  0  0
  6  4  1  0  0  0  0
  7  1  1  0  0  0  0
  8  2  1  0  0  0  0
  9 11  1  0  0  0  0
 10  8  1  0  0  0  0
 11 10  1  0  0  0  0
 12  9  1  0  0  0  0
  5  2  1  0  0  0  0
M  END
> <IDNUMBER>
F2147-0872

> <Chemical_Name>
4-(2-methoxyethoxy)phenol

> <CAS>
51980-60-0

> <PriceCoeff>
1.00

> <MW>
168.19

> <Description>
solid

> <FSP3>
0.33

> <clogP>
1.46

> <TPSA>
38.69

> <Acceptor>
3

> <Donor>
1

> <RotBonds>
4

> <HAC>
12

> <Collection>
General

> <Reference_compound>
CHEMBL2252609

> <Similarity>
0.8600

$$$$
F1555-0079
  -ISIS-  06222304352D

 24 25  0  0  0  0  0  0  0  0999 V2000
    1.4500    0.2583    0.0000 C   0  0  0  0  0  0  0  0  0  0  0  0
    1.4500   -0.4625    0.0000 C   0  0  0  0  0  0  0  0  0  0  0  0
    0.8292    0.6208    0.0000 N   0  0  3  0  0  0  0  0  0  0  0  0
    0.2042   -0.4625    0.0000 N   0  0  3  0  0  0  0  0  0  0  0  0
    0.2042    0.2583    0.0000 C   0  0  0  0  0  0  0  0  0  0  0  0
    0.8292   -0.8250    0.0000 C   0  0  0  0  0  0  0  0  0  0  0  0
    2.1292    0.4833    0.0000 N   0  0  0  0  0  0  0  0  0  0  0  0
    2.1292   -0.6875    0.0000 N   0  0  3  0  0  0  0  0  0  0  0  0
    2.5542   -0.0917    0.0000 C   0  0  0  0  0  0  0  0  0  0  0  0
    2.3667   -1.3667    0.0000 C   0  0  0  0  0  0  0  0  0  0  0  0
   -0.4125    0.6125    0.0000 O   0  0  0  0  0  0  0  0  0  0  0  0
    0.8292   -1.5375    0.0000 O   0  0  0  0  0  0  0  0  0  0  0  0
    4.0000   -2.3500    0.0000 N   0  0  3  0  0  0  0  0  0  0  0  0
    3.0667   -1.5167    0.0000 C   0  0  3  0  0  0  0  0  0  0  0  0
    3.2917   -2.2000    0.0000 C   0  0  0  0  0  0  0  0  0  0  0  0
    0.8292    1.3375    0.0000 C   0  0  0  0  0  0  0  0  0  0  0  0
   -0.4125   -0.8250    0.0000 C   0  0  0  0  0  0  0  0  0  0  0  0
    5.4042   -2.6500    0.0000 O   0  0  0  0  0  0  0  0  0  0  0  0
    3.5417   -0.9792    0.0000 O   0  0  0  0  0  0  0  0  0  0  0  0
    4.2167   -3.0292    0.0000 C   0  0  0  0  0  0  0  0  0  0  0  0
    4.4750   -1.8125    0.0000 C   0  0  0  0  0  0  0  0  0  0  0  0
    5.1792   -1.9625    0.0000 C   0  0  0  0  0  0  0  0  0  0  0  0
    4.9167   -3.1792    0.0000 C   0  0  0  0  0  0  0  0  0  0  0  0
    6.9209   -0.8250    0.0000 Cl  0  0  0  0  0  0  0  0  0  0  0  0
  3  1  1  0  0  0  0
  4  5  1  0  0  0  0
  5  3  1  0  0  0  0
  6  2  1  0  0  0  0
  7  1  1  0  0  0  0
  8  2  1  0  0  0  0
  9  7  2  0  0  0  0
 10  8  1  0  0  0  0
 11  5  2  0  0  0  0
 12  6  2  0  0  0  0
 13 15  1  0  0  0  0
 14 10  1  0  0  0  0
 15 14  1  0  0  0  0
 16  3  1  0  0  0  0
 17  4  1  0  0  0  0
 18 22  1  0  0  0  0
 19 14  1  0  0  0  0
 20 13  1  0  0  0  0
 21 13  1  0  0  0  0
 22 21  1  0  0  0  0
 23 20  1  0  0  0  0
  8  9  1  0  0  0  0
  6  4  1  0  0  0  0
 23 18  1  0  0  0  0
  2  1  2  0  0  0  0
M  END
> <IDNUMBER>
F1555-0079

> <Chemical_Name>
7-[2-hydroxy-3-(morpholin-4-yl)propyl]-1,3-dimethyl-2,3,6,7-tetrahydro-1H-purine-2,6-dione hydrochloride

> <CAS>
1216407-33-8

> <PriceCoeff>
1.50

> <MW>
323.35

> <Description>
solid

> <FSP3>
0.64

> <clogP>
-0.73

> <TPSA>
91.14

> <Acceptor>
5

> <Donor>
3

> <RotBonds>
4

> <HAC>
23

> <Collection>
Advanced

> <Reference_compound>
CHEMBL113

> <Similarity>
0.8200

$$$$
F5672-0114
  -ISIS-  06222304352D

 30 31  0  0  0  0  0  0  0  0999 V2000
    1.1750    0.8458    0.0000 N   0  0  3  0  0  0  0  0  0  0  0  0
    1.2042    2.2833    0.0000 C   0  0  0  0  0  0  0  0  0  0  0  0
    1.6042    1.5583    0.0000 C   0  0  0  0  0  0  0  0  0  0  0  0
    0.3500    0.7833    0.0000 C   0  0  0  0  0  0  0  0  0  0  0  0
    1.4875    0.0958    0.0000 C   0  0  0  0  0  0  0  0  0  0  0  0
    0.3792    2.3083    0.0000 N   0  0  3  0  0  0  0  0  0  0  0  0
   -2.4833    3.0958    0.0000 C   0  0  0  0  0  0  0  0  0  0  0  0
   -3.3083    3.1125    0.0000 C   0  0  0  0  0  0  0  0  0  0  0  0
   -1.2583    2.3500    0.0000 N   0  0  3  0  0  0  0  0  0  0  0  0
   -3.8083    2.4583    0.0000 S   0  0  0  0  0  0  0  0  0  0  0  0
   -2.0833    2.3708    0.0000 C   0  0  0  0  0  0  0  0  0  0  0  0
    1.6375    2.9833    0.0000 O   0  0  0  0  0  0  0  0  0  0  0  0
   -3.7750    3.7958    0.0000 C   0  0  0  0  0  0  0  0  0  0  0  0
    0.8750   -0.4542    0.0000 C   0  0  0  0  0  0  0  0  0  0  0  0
    0.1542   -0.0292    0.0000 C   0  0  0  0  0  0  0  0  0  0  0  0
    2.2917   -0.0917    0.0000 O   0  0  0  0  0  0  0  0  0  0  0  0
   -0.1875    1.4083    0.0000 O   0  0  0  0  0  0  0  0  0  0  0  0
   -0.0500    1.6083    0.0000 C   0  0  0  0  0  0  0  0  0  0  0  0
   -0.0083    3.0333    0.0000 C   0  0  0  0  0  0  0  0  0  0  0  0
   -2.0500    3.8000    0.0000 O   0  0  0  0  0  0  0  0  0  0  0  0
   -4.5833    2.7333    0.0000 C   0  0  0  0  0  0  0  0  0  0  0  0
   -4.5708    3.5583    0.0000 C   0  0  0  0  0  0  0  0  0  0  0  0
   -0.8708    1.6250    0.0000 C   0  0  0  0  0  0  0  0  0  0  0  0
   -0.8375    3.0583    0.0000 C   0  0  0  0  0  0  0  0  0  0  0  0
    4.6471    1.4245    0.0000 C   0  0  0  0  0  0  0  0  0  0  0  0
    4.8689    2.2173    0.0000 C   0  0  0  0  0  0  0  0  0  0  0  0
    5.2262    0.8310    0.0000 O   0  0  0  0  0  0  0  0  0  0  0  0
    4.2898    2.8107    0.0000 O   0  0  0  0  0  0  0  0  0  0  0  0
    5.6699    2.4226    0.0000 O   0  0  0  0  0  0  0  0  0  0  0  0
    3.8431    1.2163    0.0000 O   0  0  0  0  0  0  0  0  0  0  0  0
  8  7  1  0  0  0  0
  9 24  1  0  0  0  0
 10  8  1  0  0  0  0
 11  9  1  0  0  0  0
 12  2  2  0  0  0  0
 13  8  2  0  0  0  0
 14  5  1  0  0  0  0
 15  4  1  0  0  0  0
 16  5  2  0  0  0  0
 17  4  2  0  0  0  0
 18  6  1  0  0  0  0
 19  6  1  0  0  0  0
 20  7  2  0  0  0  0
 21 10  1  0  0  0  0
 22 13  1  0  0  0  0
 23 18  1  0  0  0  0
 24 19  1  0  0  0  0
 15 14  1  0  0  0  0
 23  9  1  0  0  0  0
 21 22  2  0  0  0  0
  2  3  1  0  0  0  0
  3  1  1  0  0  0  0
  4  1  1  0  0  0  0
  5  1  1  0  0  0  0
  6  2  1  0  0  0  0
  7 11  1  0  0  0  0
 26 25  1  0  0  0  0
 27 25  2  0  0  0  0
 28 26  2  0  0  0  0
 29 26  1  0  0  0  0
 30 25  1  0  0  0  0
M  END
> <IDNUMBER>
F5672-0114

> <Chemical_Name>
1-(2-oxo-2-{4-[2-oxo-2-(thiophen-2-yl)ethyl]piperazin-1-yl}ethyl)pyrrolidine-2,5-dione; oxalic acid

> <CAS>
1351631-38-3

> <PriceCoeff>
1.50

> <MW>
349.40

> <Description>
solid

> <FSP3>
0.50

> <clogP>
0.99

> <TPSA>
106.24

> <Acceptor>
4

> <Donor>
1

> <RotBonds>
6

> <HAC>
24

> <Collection>
Advanced

$$$$
F6188-0566
  -ISIS-  06222321462D

 25 27  0  0  0  0  0  0  0  0999 V2000
   -5.2833    2.5708    0.0000 N   0  0  3  0  0  0  0  0  0  0  0  0
   -5.3625    1.7458    0.0000 C   0  0  0  0  0  0  0  0  0  0  0  0
   -6.0292    2.9000    0.0000 C   0  0  0  0  0  0  0  0  0  0  0  0
   -4.5708    2.9875    0.0000 C   0  0  0  0  0  0  0  0  0  0  0  0
   -4.5708    3.8000    0.0000 C   0  0  0  0  0  0  0  0  0  0  0  0
   -3.1458    5.4500    0.0000 C   0  0  3  0  0  0  0  0  0  0  0  0
   -2.4333    5.0417    0.0000 S   0  0  0  0  0  0  0  0  0  0  0  0
   -3.8583    4.2125    0.0000 N   0  0  0  0  0  0  0  0  0  0  0  0
   -6.1667    1.5708    0.0000 C   0  0  0  0  0  0  0  0  0  0  0  0
   -6.5750    2.2833    0.0000 C   0  0  0  0  0  0  0  0  0  0  0  0
   -4.7458    1.1833    0.0000 O   0  0  0  0  0  0  0  0  0  0  0  0
   -6.2042    3.7083    0.0000 O   0  0  0  0  0  0  0  0  0  0  0  0
   -5.2958    4.2125    0.0000 O   0  0  0  0  0  0  0  0  0  0  0  0
   -3.1458    7.1042    0.0000 O   0  0  0  0  0  0  0  0  0  0  0  0
   -3.8583    5.0292    0.0000 C   0  0  0  0  0  0  0  0  0  0  0  0
   -2.4333    5.8667    0.0000 C   0  0  0  0  0  0  0  0  0  0  0  0
   -3.8583    5.8667    0.0000 C   0  0  0  0  0  0  0  0  0  0  0  0
   -1.7208    5.4542    0.0000 C   0  0  0  0  0  0  0  0  0  0  0  0
   -2.4333    6.6917    0.0000 C   0  0  0  0  0  0  0  0  0  0  0  0
   -3.8583    6.6917    0.0000 C   0  0  0  0  0  0  0  0  0  0  0  0
   -1.0000    5.0417    0.0000 C   0  0  0  0  0  0  0  0  0  0  0  0
   -1.7208    6.2792    0.0000 C   0  0  0  0  0  0  0  0  0  0  0  0
   -0.2833    5.4625    0.0000 C   0  0  0  0  0  0  0  0  0  0  0  0
   -1.0000    6.7042    0.0000 C   0  0  0  0  0  0  0  0  0  0  0  0
   -0.2833    6.2792    0.0000 C   0  0  0  0  0  0  0  0  0  0  0  0
  2  1  1  0  0  0  0
  3  1  1  0  0  0  0
  4  1  1  0  0  0  0
  5  4  1  0  0  0  0
  6 15  1  0  0  0  0
  7  6  1  0  0  0  0
  8  5  1  0  0  0  0
  9  2  1  0  0  0  0
 10  3  1  0  0  0  0
 11  2  2  0  0  0  0
 12  3  2  0  0  0  0
 13  5  2  0  0  0  0
 14 20  1  0  0  0  0
 15  8  1  0  0  0  0
 16  6  1  0  0  0  0
 17  6  1  0  0  0  0
 18  7  1  0  0  0  0
 19 16  1  0  0  0  0
 20 17  1  0  0  0  0
 21 18  2  0  0  0  0
 22 18  1  0  0  0  0
 23 21  1  0  0  0  0
 24 22  2  0  0  0  0
 25 24  1  0  0  0  0
 10  9  1  0  0  0  0
 19 14  1  0  0  0  0
 23 25  2  0  0  0  0
M  END
> <IDNUMBER>
F6188-0566

> <Chemical_Name>
2-(2,5-dioxopyrrolidin-1-yl)-N-{[4-(phenylsulfanyl)oxan-4-yl]methyl}acetamide

> <CAS>
1797726-86-3

> <PriceCoeff>
1.00

> <MW>
362.44

> <Description>
solid

> <FSP3>
0.50

> <clogP>
1.08

> <TPSA>
101.01

> <Acceptor>
4

> <Donor>
1

> <RotBonds>
6

> <HAC>
25

> <Collection>
General

$$$$
F3229-0069
  -ISIS-  06222321152D

 20 21  0  0  0  0  0  0  0  0999 V2000
    3.3125   -2.5375    0.0000 C   0  0  0  0  0  0  0  0  0  0  0  0
    3.3125   -1.7125    0.0000 C   0  0  0  0  0  0  0  0  0  0  0  0
    2.6000   -2.9500    0.0000 N   0  0  3  0  0  0  0  0  0  0  0  0
    1.8792   -1.7125    0.0000 N   0  0  3  0  0  0  0  0  0  0  0  0
    1.8792   -2.5375    0.0000 C   0  0  0  0  0  0  0  0  0  0  0  0
    2.6000   -1.3000    0.0000 C   0  0  0  0  0  0  0  0  0  0  0  0
    4.0917   -2.7917    0.0000 N   0  0  0  0  0  0  0  0  0  0  0  0
    4.0917   -1.4542    0.0000 N   0  0  3  0  0  0  0  0  0  0  0  0
    4.5792   -2.1292    0.0000 C   0  0  0  0  0  0  0  0  0  0  0  0
    1.1625   -2.9542    0.0000 O   0  0  0  0  0  0  0  0  0  0  0  0
    2.6000   -0.4750    0.0000 O   0  0  0  0  0  0  0  0  0  0  0  0
    4.3500   -0.6667    0.0000 C   0  0  0  0  0  0  0  0  0  0  0  0
    2.6000   -3.7750    0.0000 C   0  0  0  0  0  0  0  0  0  0  0  0
    1.1625   -1.3000    0.0000 C   0  0  0  0  0  0  0  0  0  0  0  0
    5.3667    0.3083    0.0000 N   0  0  3  0  0  0  0  0  0  0  0  0
    5.1542   -0.4917    0.0000 C   0  0  0  0  0  0  0  0  0  0  0  0
    6.1625    0.5333    0.0000 C   0  0  0  0  0  0  0  0  0  0  0  0
    4.7792    0.8958    0.0000 C   0  0  0  0  0  0  0  0  0  0  0  0
    4.9875    1.6875    0.0000 C   0  0  0  0  0  0  0  0  0  0  0  0
    6.3667    1.3250    0.0000 C   0  0  0  0  0  0  0  0  0  0  0  0
  2  1  2  0  0  0  0
  3  1  1  0  0  0  0
  4  5  1  0  0  0  0
  5  3  1  0  0  0  0
  6  2  1  0  0  0  0
  7  1  1  0  0  0  0
  8  2  1  0  0  0  0
  9  7  2  0  0  0  0
 10  5  2  0  0  0  0
 11  6  2  0  0  0  0
 12  8  1  0  0  0  0
 13  3  1  0  0  0  0
 14  4  1  0  0  0  0
 15 16  1  0  0  0  0
 16 12  1  0  0  0  0
 17 15  1  0  0  0  0
 18 15  1  0  0  0  0
 19 18  1  0  0  0  0
 20 17  1  0  0  0  0
  9  8  1  0  0  0  0
  4  6  1  0  0  0  0
M  END
> <IDNUMBER>
F3229-0069

> <Chemical_Name>
7-[2-(diethylamino)ethyl]-1,3-dimethyl-2,3,6,7-tetrahydro-1H-purine-2,6-dione

> <CAS>
314-35-2

> <PriceCoeff>
1.00

> <MW>
279.34

> <Description>
solid

> <FSP3>
0.62

> <clogP>
1.14

> <TPSA>
61.68

> <Acceptor>
3

> <Donor>
2

> <RotBonds>
5

> <HAC>
20

> <Collection>
General

> <Reference_compound>
CHEMBL113

> <Similarity>
0.9030

$$$$
F2477-0098
  -ISIS-  06222321462D

 20 21  0  0  0  0  0  0  0  0999 V2000
    3.6292    2.1000    0.0000 C   0  0  0  0  0  0  0  0  0  0  0  0
    3.6292    3.5000    0.0000 C   0  0  0  0  0  0  0  0  0  0  0  0
    4.9667    1.6708    0.0000 N   0  0  0  0  0  0  0  0  0  0  0  0
    2.4250    1.4000    0.0000 N   0  0  3  0  0  0  0  0  0  0  0  0
    1.2125    3.5000    0.0000 N   0  0  3  0  0  0  0  0  0  0  0  0
    4.9667    3.9333    0.0000 N   0  0  3  0  0  0  0  0  0  0  0  0
    1.2042    2.1000    0.0000 C   0  0  0  0  0  0  0  0  0  0  0  0
    2.4167    4.2000    0.0000 C   0  0  0  0  0  0  0  0  0  0  0  0
    5.7875    2.8000    0.0000 C   0  0  0  0  0  0  0  0  0  0  0  0
    5.4000    5.2625    0.0000 C   0  0  0  0  0  0  0  0  0  0  0  0
    0.2167    1.1083    0.0000 O   0  0  0  0  0  0  0  0  0  0  0  0
    2.4250    5.5917    0.0000 O   0  0  0  0  0  0  0  0  0  0  0  0
    7.1917    2.8000    0.0000 N   0  0  0  0  0  0  0  0  0  0  0  0
    2.4167   -0.0000    0.0000 C   0  0  0  0  0  0  0  0  0  0  0  0
    0.0000    4.1917    0.0000 C   0  0  0  0  0  0  0  0  0  0  0  0
    6.7667    5.5542    0.0000 C   0  0  3  0  0  0  0  0  0  0  0  0
    7.8875    1.5875    0.0000 C   0  0  0  0  0  0  0  0  0  0  0  0
    7.2000    6.8875    0.0000 C   0  0  0  0  0  0  0  0  0  0  0  0
    7.7042    4.5167    0.0000 C   0  0  0  0  0  0  0  0  0  0  0  0
    7.1875    0.3750    0.0000 C   0  0  0  0  0  0  0  0  0  0  0  0
  2  1  2  0  0  0  0
  3  1  1  0  0  0  0
  4  1  1  0  0  0  0
  5  7  1  0  0  0  0
  6  2  1  0  0  0  0
  7  4  1  0  0  0  0
  8  2  1  0  0  0  0
  9  3  2  0  0  0  0
 10  6  1  0  0  0  0
 11  7  2  0  0  0  0
 12  8  2  0  0  0  0
 13  9  1  0  0  0  0
 14  4  1  0  0  0  0
 15  5  1  0  0  0  0
 16 10  1  0  0  0  0
 17 13  1  0  0  0  0
 18 16  1  0  0  0  0
 19 16  1  0  0  0  0
 20 17  1  0  0  0  0
  6  9  1  0  0  0  0
  5  8  1  0  0  0  0
M  END
> <IDNUMBER>
F2477-0098

> <Chemical_Name>
8-(ethylamino)-1,3-dimethyl-7-(2-methylpropyl)-2,3,6,7-tetrahydro-1H-purine-2,6-dione

> <CAS>
941916-96-7

> <PriceCoeff>
1.50

> <MW>
279.34

> <Description>
solid

> <FSP3>
0.62

> <clogP>
2.50

> <TPSA>
70.47

> <Acceptor>
3

> <Donor>
2

> <RotBonds>
4

> <HAC>
20

> <Collection>
Advanced

> <Reference_compound>
CHEMBL113

> <Similarity>
0.8060

$$$$
F3260-0381
  -ISIS-  06222321462D

 20 21  0  0  0  0  0  0  0  0999 V2000
    3.6292    2.1000    0.0000 C   0  0  0  0  0  0  0  0  0  0  0  0
    3.6292    3.5000    0.0000 C   0  0  0  0  0  0  0  0  0  0  0  0
    4.9667    1.6708    0.0000 N   0  0  0  0  0  0  0  0  0  0  0  0
    2.4167    1.4000    0.0000 N   0  0  3  0  0  0  0  0  0  0  0  0
    1.2042    3.5000    0.0000 N   0  0  3  0  0  0  0  0  0  0  0  0
    1.2042    2.1000    0.0000 C   0  0  0  0  0  0  0  0  0  0  0  0
    2.4167    4.2000    0.0000 C   0  0  0  0  0  0  0  0  0  0  0  0
    5.7917    2.8000    0.0000 C   0  0  0  0  0  0  0  0  0  0  0  0
    4.9667    3.9333    0.0000 N   0  0  3  0  0  0  0  0  0  0  0  0
    7.1917    2.8000    0.0000 N   0  0  0  0  0  0  0  0  0  0  0  0
    0.2167    1.1125    0.0000 O   0  0  0  0  0  0  0  0  0  0  0  0
    2.4167    5.5917    0.0000 O   0  0  0  0  0  0  0  0  0  0  0  0
    2.4167   -0.0000    0.0000 C   0  0  0  0  0  0  0  0  0  0  0  0
    0.0000    4.2000    0.0000 C   0  0  0  0  0  0  0  0  0  0  0  0
    5.4000    5.2625    0.0000 C   0  0  0  0  0  0  0  0  0  0  0  0
    7.8917    1.5958    0.0000 C   0  0  0  0  0  0  0  0  0  0  0  0
    9.2917    1.5958    0.0000 C   0  0  3  0  0  0  0  0  0  0  0  0
    6.7667    5.5542    0.0000 C   0  0  0  0  0  0  0  0  0  0  0  0
    9.9917    0.3833    0.0000 C   0  0  0  0  0  0  0  0  0  0  0  0
    9.9917    2.8000    0.0000 C   0  0  0  0  0  0  0  0  0  0  0  0
  2  1  2  0  0  0  0
  3  1  1  0  0  0  0
  4  1  1  0  0  0  0
  5  6  1  0  0  0  0
  6  4  1  0  0  0  0
  7  2  1  0  0  0  0
  8  3  2  0  0  0  0
  9  2  1  0  0  0  0
 10  8  1  0  0  0  0
 11  6  2  0  0  0  0
 12  7  2  0  0  0  0
 13  4  1  0  0  0  0
 14  5  1  0  0  0  0
 15  9  1  0  0  0  0
 16 10  1  0  0  0  0
 17 16  1  0  0  0  0
 18 15  1  0  0  0  0
 19 17  1  0  0  0  0
 20 17  1  0  0  0  0
  8  9  1  0  0  0  0
  7  5  1  0  0  0  0
M  END
> <IDNUMBER>
F3260-0381

> <Chemical_Name>
7-ethyl-1,3-dimethyl-8-[(2-methylpropyl)amino]-2,3,6,7-tetrahydro-1H-purine-2,6-dione

> <CAS>
923232-63-7

> <PriceCoeff>
1.50

> <MW>
279.34

> <Description>
solid

> <FSP3>
0.62

> <clogP>
2.50

> <TPSA>
70.47

> <Acceptor>
3

> <Donor>
2

> <RotBonds>
4

> <HAC>
20

> <Collection>
Advanced

> <Reference_compound>
CHEMBL113

> <Similarity>
0.8090

$$$$
F6414-1061
  -ISIS-  06222321462D

 23 25  0  0  0  0  0  0  0  0999 V2000
   -5.2833    2.5708    0.0000 N   0  0  3  0  0  0  0  0  0  0  0  0
   -5.3708    1.7458    0.0000 C   0  0  0  0  0  0  0  0  0  0  0  0
   -6.0292    2.9000    0.0000 C   0  0  0  0  0  0  0  0  0  0  0  0
   -4.5833    2.9875    0.0000 C   0  0  0  0  0  0  0  0  0  0  0  0
   -4.5833    3.8000    0.0000 C   0  0  0  0  0  0  0  0  0  0  0  0
   -2.4333    6.7042    0.0000 C   0  0  0  0  0  0  0  0  0  0  0  0
   -3.1458    5.4500    0.0000 C   0  0  3  0  0  0  0  0  0  0  0  0
   -2.4333    5.8750    0.0000 C   0  0  0  0  0  0  0  0  0  0  0  0
   -3.8625    4.2125    0.0000 N   0  0  0  0  0  0  0  0  0  0  0  0
   -6.1667    1.5708    0.0000 C   0  0  0  0  0  0  0  0  0  0  0  0
   -6.5792    2.2833    0.0000 C   0  0  0  0  0  0  0  0  0  0  0  0
   -4.7500    1.1833    0.0000 O   0  0  0  0  0  0  0  0  0  0  0  0
   -6.2042    3.7083    0.0000 O   0  0  0  0  0  0  0  0  0  0  0  0
   -3.1458    7.1125    0.0000 C   0  0  0  0  0  0  0  0  0  0  0  0
   -5.2958    4.2125    0.0000 O   0  0  0  0  0  0  0  0  0  0  0  0
   -3.8625    6.7042    0.0000 C   0  0  0  0  0  0  0  0  0  0  0  0
   -3.8625    5.0417    0.0000 C   0  0  0  0  0  0  0  0  0  0  0  0
   -3.8625    5.8750    0.0000 C   0  0  0  0  0  0  0  0  0  0  0  0
   -2.4333    5.0417    0.0000 O   0  0  0  0  0  0  0  0  0  0  0  0
   -1.7208    7.1125    0.0000 C   0  0  0  0  0  0  0  0  0  0  0  0
   -3.1458    7.9375    0.0000 C   0  0  0  0  0  0  0  0  0  0  0  0
   -1.7250    7.9417    0.0000 C   0  0  0  0  0  0  0  0  0  0  0  0
   -2.4458    8.3542    0.0000 C   0  0  0  0  0  0  0  0  0  0  0  0
  2  1  1  0  0  0  0
  3  1  1  0  0  0  0
  4  1  1  0  0  0  0
  5  4  1  0  0  0  0
  6  8  1  0  0  0  0
  7 17  1  0  0  0  0
  8  7  1  0  0  0  0
  9  5  1  0  0  0  0
 10  2  1  0  0  0  0
 11  3  1  0  0  0  0
 12  2  2  0  0  0  0
 13  3  2  0  0  0  0
 14 16  1  0  0  0  0
 15  5  2  0  0  0  0
 16 18  1  0  0  0  0
 17  9  1  0  0  0  0
 18  7  1  0  0  0  0
 19  7  1  0  0  0  0
 20  6  1  0  0  0  0
 21 14  1  0  0  0  0
 22 20  2  0  0  0  0
 23 21  2  0  0  0  0
 10 11  1  0  0  0  0
 14  6  2  0  0  0  0
 22 23  1  0  0  0  0
M  END
> <IDNUMBER>
F6414-1061

> <Chemical_Name>
2-(2,5-dioxopyrrolidin-1-yl)-N-[(2-hydroxy-1,2,3,4-tetrahydronaphthalen-2-yl)methyl]acetamide

> <CAS>
1421494-95-2

> <PriceCoeff>
1.00

> <MW>
316.35

> <Description>
solid

> <FSP3>
0.47

> <clogP>
0.96

> <TPSA>
86.71

> <Acceptor>
4

> <Donor>
2

> <RotBonds>
4

> <HAC>
23

> <Collection>
General

$$$$
F6617-2447
  -ISIS-  06222321442D

 13 14  0  0  0  0  0  0  0  0999 V2000
   -1.3083   -2.8750    0.0000 C   0  0  0  0  0  0  0  0  0  0  0  0
   -1.5583   -3.6542    0.0000 C   0  0  0  0  0  0  0  0  0  0  0  0
   -1.9708   -2.3917    0.0000 C   0  0  0  0  0  0  0  0  0  0  0  0
   -2.3750   -3.6542    0.0000 N   0  0  0  0  0  0  0  0  0  0  0  0
   -0.5208   -2.6167    0.0000 C   0  0  0  0  0  0  0  0  0  0  0  0
   -2.6333   -2.8750    0.0000 C   0  0  0  0  0  0  0  0  0  0  0  0
   -0.3458   -1.8167    0.0000 O   0  0  0  0  0  0  0  0  0  0  0  0
    0.0875   -3.1667    0.0000 N   0  0  0  0  0  0  0  0  0  0  0  0
   -2.0500   -1.5667    0.0000 C   0  0  0  0  0  0  0  0  0  0  0  0
   -3.3833   -2.5417    0.0000 C   0  0  0  0  0  0  0  0  0  0  0  0
    0.8750   -2.9167    0.0000 C   0  0  0  0  0  0  0  0  0  0  0  0
   -2.8083   -1.2292    0.0000 C   0  0  0  0  0  0  0  0  0  0  0  0
   -3.4708   -1.7167    0.0000 C   0  0  0  0  0  0  0  0  0  0  0  0
  2  1  2  0  0  0  0
  3  1  1  0  0  0  0
  4  2  1  0  0  0  0
  5  1  1  0  0  0  0
  6  3  2  0  0  0  0
  7  5  2  0  0  0  0
  8  5  1  0  0  0  0
  9  3  1  0  0  0  0
 10  6  1  0  0  0  0
 11  8  1  0  0  0  0
 12  9  2  0  0  0  0
 13 12  1  0  0  0  0
  4  6  1  0  0  0  0
 13 10  2  0  0  0  0
M  END
> <IDNUMBER>
F6617-2447

> <Chemical_Name>
N-methyl-1H-indole-3-carboxamide

> <CAS>
85729-23-3

> <PriceCoeff>
1.00

> <MW>
174.20

> <Description>
solid

> <FSP3>
0.10

> <clogP>
1.11

> <TPSA>
44.89

> <Acceptor>
1

> <Donor>
2

> <RotBonds>
1

> <HAC>
13

> <Collection>
General

> <Reference_compound>
CHEMBL443132

> <Similarity>
0.8100

$$$$
F6110-1919
  -ISIS-  06222304352D

 31 31  0  0  0  0  0  0  0  0999 V2000
   -4.5833    3.8000    0.0000 C   0  0  0  0  0  0  0  0  0  0  0  0
   -4.5833    2.9708    0.0000 C   0  0  0  0  0  0  0  0  0  0  0  0
   -1.7333    6.2917    0.0000 N   0  0  3  0  0  0  0  0  0  0  0  0
   -3.8625    4.2125    0.0000 N   0  0  3  0  0  0  0  0  0  0  0  0
   -1.7458    7.9542    0.0000 N   0  0  3  0  0  0  0  0  0  0  0  0
   -1.0208    6.7208    0.0000 C   0  0  3  0  0  0  0  0  0  0  0  0
   -3.8833    2.5583    0.0000 C   0  0  0  0  0  0  0  0  0  0  0  0
   -5.3000    2.5708    0.0000 C   0  0  0  0  0  0  0  0  0  0  0  0
   -1.7250    5.4667    0.0000 C   0  0  0  0  0  0  0  0  0  0  0  0
   -1.0250    7.5542    0.0000 C   0  0  0  0  0  0  0  0  0  0  0  0
   -5.3000    4.2042    0.0000 O   0  0  0  0  0  0  0  0  0  0  0  0
   -2.4500    6.7125    0.0000 C   0  0  0  0  0  0  0  0  0  0  0  0
   -3.1458    3.8000    0.0000 C   0  0  0  0  0  0  0  0  0  0  0  0
   -3.8625    5.0417    0.0000 C   0  0  0  0  0  0  0  0  0  0  0  0
   -2.4583    7.5417    0.0000 C   0  0  0  0  0  0  0  0  0  0  0  0
   -6.0292    2.9708    0.0000 F   0  0  0  0  0  0  0  0  0  0  0  0
   -3.1708    2.9625    0.0000 F   0  0  0  0  0  0  0  0  0  0  0  0
   -2.4458    5.0333    0.0000 C   0  0  3  0  0  0  0  0  0  0  0  0
   -2.4250    4.2167    0.0000 C   0  0  0  0  0  0  0  0  0  0  0  0
   -3.1583    5.4542    0.0000 C   0  0  0  0  0  0  0  0  0  0  0  0
   -1.7583    8.7792    0.0000 C   0  0  0  0  0  0  0  0  0  0  0  0
   -4.5958    1.3083    0.0000 C   0  0  0  0  0  0  0  0  0  0  0  0
   -5.3208    1.7333    0.0000 C   0  0  0  0  0  0  0  0  0  0  0  0
   -3.8917    1.7375    0.0000 C   0  0  0  0  0  0  0  0  0  0  0  0
   -0.2958    6.3167    0.0000 C   0  0  0  0  0  0  0  0  0  0  0  0
    1.8458    5.3417    0.0000 C   0  0  0  0  0  0  0  0  0  0  0  0
    1.1250    5.7542    0.0000 O   0  0  0  0  0  0  0  0  0  0  0  0
    2.5583    5.7542    0.0000 O   0  0  0  0  0  0  0  0  0  0  0  0
    1.8708    4.2208    0.0000 C   0  0  0  0  0  0  0  0  0  0  0  0
    1.1542    4.6333    0.0000 O   0  0  0  0  0  0  0  0  0  0  0  0
    2.5875    4.6333    0.0000 O   0  0  0  0  0  0  0  0  0  0  0  0
  8  2  1  0  0  0  0
  9 18  1  0  0  0  0
 10  6  1  0  0  0  0
 11  1  2  0  0  0  0
 12  3  1  0  0  0  0
 13  4  1  0  0  0  0
 14  4  1  0  0  0  0
 15 12  1  0  0  0  0
 16  8  1  0  0  0  0
 17  7  1  0  0  0  0
 18 20  1  0  0  0  0
 19 13  1  0  0  0  0
 20 14  1  0  0  0  0
 21  5  1  0  0  0  0
 22 23  1  0  0  0  0
 23  8  2  0  0  0  0
 24  7  1  0  0  0  0
 25  6  1  0  0  0  0
 19 18  1  0  0  0  0
 22 24  2  0  0  0  0
 10  5  1  0  0  0  0
  2  1  1  0  0  0  0
  3  9  1  0  0  0  0
  4  1  1  0  0  0  0
  5 15  1  0  0  0  0
  6  3  1  0  0  0  0
  7  2  2  0  0  0  0
 28 26  1  0  0  0  0
 27 26  2  0  0  0  0
 30 29  2  0  0  0  0
 31 29  1  0  0  0  0
M  END
> <IDNUMBER>
F6110-1919

> <Chemical_Name>
1-{[1-(2,6-difluorobenzoyl)piperidin-4-yl]methyl}-2,4-dimethylpiperazine; bis(formic acid)

> <CAS>
1421452-85-8

> <PriceCoeff>
1.50

> <MW>
351.43

> <Description>
oil

> <FSP3>
0.63

> <clogP>
1.07

> <TPSA>
26.79

> <Acceptor>
3

> <Donor>
2

> <RotBonds>
4

> <HAC>
25

> <Collection>
Advanced

> <Reference_compound>
CHEMBL3969241

> <Similarity>
0.8430

$$$$
F8882-3710
  -ISIS-  06222304352D

  9  7  0  0  0  0  0  0  0  0999 V2000
   -0.8500    0.3833    0.0000 C   0  0  3  0  0  0  0  0  0  0  0  0
   -1.6250    0.1125    0.0000 N   0  0  0  0  0  0  0  0  0  0  0  0
   -0.2250   -0.1583    0.0000 C   0  0  3  0  0  0  0  0  0  0  0  0
    0.5542    0.1125    0.0000 C   0  0  0  0  0  0  0  0  0  0  0  0
   -0.6958    1.1958    0.0000 C   0  0  0  0  0  0  0  0  0  0  0  0
   -0.3750   -0.9667    0.0000 C   0  0  0  0  0  0  0  0  0  0  0  0
    1.1792   -0.4292    0.0000 C   0  0  0  0  0  0  0  0  0  0  0  0
    1.9542   -0.1583    0.0000 C   0  0  0  0  0  0  0  0  0  0  0  0
    3.3417    0.2083    0.0000 Cl  0  0  0  0  0  0  0  0  0  0  0  0
  3  1  1  0  0  0  0
  4  3  1  0  0  0  0
  5  1  1  0  0  0  0
  6  3  1  0  0  0  0
  7  4  1  0  0  0  0
  8  7  1  0  0  0  0
  2  1  1  0  0  0  0
M  END
> <IDNUMBER>
F8882-3710

> <Chemical_Name>
3-methylhexan-2-amine hydrochloride

> <CAS>
855475-52-4

> <PriceCoeff>
1.00

> <MW>
115.22

> <Description>
solid

> <FSP3>
1.00

> <clogP>
2.16

> <TPSA>
26.02

> <Acceptor>
0

> <Donor>
1

> <RotBonds>
3

> <HAC>
8

> <Collection>
General

> <Reference_compound>
PRI100

> <Similarity>
0.8000

$$$$
F9995-0149
  -ISIS-  06222321162D

 19 19  0  0  0  0  0  0  0  0999 V2000
    6.8917   -6.0292    0.0000 C   0  0  0  0  0  0  0  0  0  0  0  0
    8.3250   -6.0167    0.0000 C   0  0  3  0  0  0  0  0  0  0  0  0
    7.6125   -6.4375    0.0000 N   0  0  0  0  0  0  0  0  0  0  0  0
    8.3167   -5.1917    0.0000 C   0  0  0  0  0  0  0  0  0  0  0  0
    9.0417   -6.4292    0.0000 C   0  0  3  0  0  0  0  0  0  0  0  0
    6.8917   -5.2042    0.0000 O   0  0  0  0  0  0  0  0  0  0  0  0
    7.6042   -4.7792    0.0000 O   0  0  0  0  0  0  0  0  0  0  0  0
    6.1792   -6.4417    0.0000 O   0  0  0  0  0  0  0  0  0  0  0  0
    9.0292   -4.7792    0.0000 O   0  0  0  0  0  0  0  0  0  0  0  0
    5.4667   -6.0292    0.0000 C   0  0  0  0  0  0  0  0  0  0  0  0
    4.7542   -6.4500    0.0000 C   0  0  0  0  0  0  0  0  0  0  0  0
    9.7542   -6.0167    0.0000 C   0  0  0  0  0  0  0  0  0  0  0  0
    9.0417   -7.2542    0.0000 C   0  0  0  0  0  0  0  0  0  0  0  0
    8.8250   -5.6375    0.0000 C   0  0  0  0  0  0  0  0  0  0  0  0
    4.0375   -6.0375    0.0000 C   0  0  0  0  0  0  0  0  0  0  0  0
    4.7542   -7.2792    0.0000 C   0  0  0  0  0  0  0  0  0  0  0  0
    3.3250   -6.4500    0.0000 C   0  0  0  0  0  0  0  0  0  0  0  0
    4.0375   -7.6917    0.0000 C   0  0  0  0  0  0  0  0  0  0  0  0
    3.3250   -7.2792    0.0000 C   0  0  0  0  0  0  0  0  0  0  0  0
  2  3  1  0  0  0  0
  3  1  1  0  0  0  0
  4  2  1  0  0  0  0
  5  2  1  0  0  0  0
  6  1  2  0  0  0  0
  7  4  2  0  0  0  0
  8  1  1  0  0  0  0
  9  4  1  0  0  0  0
 10  8  1  0  0  0  0
 11 10  1  0  0  0  0
 12  5  1  0  0  0  0
 13  5  1  0  0  0  0
 14  5  1  0  0  0  0
 15 11  2  0  0  0  0
 16 11  1  0  0  0  0
 17 15  1  0  0  0  0
 18 16  2  0  0  0  0
 19 18  1  0  0  0  0
 17 19  2  0  0  0  0
M  END
> <IDNUMBER>
F9995-0149

> <Chemical_Name>
2-{[(benzyloxy)carbonyl]amino}-3,3-dimethylbutanoic acid

> <CAS>
68222-59-3

> <PriceCoeff>
1.00

> <MW>
265.31

> <Description>
oil

> <FSP3>
0.43

> <clogP>
2.95

> <TPSA>
75.63

> <Acceptor>
4

> <Donor>
1

> <RotBonds>
5

> <HAC>
19

> <Collection>
General

> <Reference_compound>
CHEMBL367937

> <Similarity>
0.8240

$$$$
F3260-0814
  -ISIS-  06222321462D

 18 19  0  0  0  0  0  0  0  0999 V2000
    3.6375    2.1083    0.0000 C   0  0  0  0  0  0  0  0  0  0  0  0
    3.6375    3.5083    0.0000 C   0  0  0  0  0  0  0  0  0  0  0  0
    2.4250    1.4000    0.0000 N   0  0  3  0  0  0  0  0  0  0  0  0
    1.2125    2.1083    0.0000 C   0  0  0  0  0  0  0  0  0  0  0  0
    1.2125    3.5083    0.0000 N   0  0  0  0  0  0  0  0  0  0  0  0
    4.9667    1.6708    0.0000 N   0  0  0  0  0  0  0  0  0  0  0  0
    2.4250    4.2000    0.0000 C   0  0  0  0  0  0  0  0  0  0  0  0
    4.9667    3.9375    0.0000 N   0  0  3  0  0  0  0  0  0  0  0  0
    5.7917    2.8083    0.0000 C   0  0  0  0  0  0  0  0  0  0  0  0
    5.7917    5.0667    0.0000 C   0  0  0  0  0  0  0  0  0  0  0  0
    5.2167    6.3417    0.0000 C   0  0  0  0  0  0  0  0  0  0  0  0
    0.0000    1.4083    0.0000 O   0  0  0  0  0  0  0  0  0  0  0  0
    2.4167    5.5917    0.0000 O   0  0  0  0  0  0  0  0  0  0  0  0
    3.8292    6.4917    0.0000 O   0  0  0  0  0  0  0  0  0  0  0  0
    2.4167   -0.0000    0.0000 C   0  0  0  0  0  0  0  0  0  0  0  0
    6.0417    7.4667    0.0000 N   0  0  0  0  0  0  0  0  0  0  0  0
    5.4750    8.7542    0.0000 C   0  0  0  0  0  0  0  0  0  0  0  0
    6.2917    9.8792    0.0000 C   0  0  0  0  0  0  0  0  0  0  0  0
  2  1  2  0  0  0  0
  3  1  1  0  0  0  0
  4  3  1  0  0  0  0
  5  4  1  0  0  0  0
  6  1  1  0  0  0  0
  7  2  1  0  0  0  0
  8  2  1  0  0  0  0
  9  6  2  0  0  0  0
 10  8  1  0  0  0  0
 11 10  1  0  0  0  0
 12  4  2  0  0  0  0
 13  7  2  0  0  0  0
 14 11  2  0  0  0  0
 15  3  1  0  0  0  0
 16 11  1  0  0  0  0
 17 16  1  0  0  0  0
 18 17  1  0  0  0  0
  9  8  1  0  0  0  0
  5  7  1  0  0  0  0
M  END
> <IDNUMBER>
F3260-0814

> <Chemical_Name>
N-ethyl-2-(3-methyl-2,6-dioxo-2,3,6,7-tetrahydro-1H-purin-7-yl)acetamide

> <CAS>
1105197-81-6

> <PriceCoeff>
1.50

> <MW>
251.24

> <Description>
solid

> <FSP3>
0.40

> <clogP>
-1.23

> <TPSA>
96.33

> <Acceptor>
4

> <Donor>
3

> <RotBonds>
3

> <HAC>
18

> <Collection>
Advanced

> <Reference_compound>
CHEMBL113

> <Similarity>
0.8490

$$$$
F2173-0390
  -ISIS-  06222321462D

  9  9  0  0  0  0  0  0  0  0999 V2000
    3.1042   -4.2375    0.0000 N   0  0  0  0  0  0  0  0  0  0  0  0
    3.8167   -4.6542    0.0000 C   0  0  0  0  0  0  0  0  0  0  0  0
    3.8167   -5.4792    0.0000 C   0  0  0  0  0  0  0  0  0  0  0  0
    2.3917   -4.6542    0.0000 C   0  0  0  0  0  0  0  0  0  0  0  0
    2.3917   -5.4792    0.0000 N   0  0  0  0  0  0  0  0  0  0  0  0
    3.1042   -5.8875    0.0000 C   0  0  0  0  0  0  0  0  0  0  0  0
    4.5292   -4.2417    0.0000 O   0  0  0  0  0  0  0  0  0  0  0  0
    1.6792   -4.2417    0.0000 O   0  0  0  0  0  0  0  0  0  0  0  0
    4.5292   -5.8917    0.0000 F   0  0  0  0  0  0  0  0  0  0  0  0
  2  1  1  0  0  0  0
  3  2  1  0  0  0  0
  4  1  1  0  0  0  0
  5  4  1  0  0  0  0
  6  5  1  0  0  0  0
  7  2  2  0  0  0  0
  8  4  2  0  0  0  0
  9  3  1  0  0  0  0
  3  6  2  0  0  0  0
M  END
> <IDNUMBER>
F2173-0390

> <Chemical_Name>
5-fluoro-1,2,3,4-tetrahydropyrimidine-2,4-dione

> <CAS>
51-21-8

> <PriceCoeff>
1.00

> <MW>
130.08

> <Description>
solid

> <FSP3>
0.00

> <clogP>
-0.58

> <TPSA>
58.20

> <Acceptor>
2

> <Donor>
2

> <RotBonds>
0

> <HAC>
9

> <Collection>
General

> <Reference_compound>
CHEMBL185

> <Similarity>
1.0000

$$$$
F1699-0030
  -ISIS-  06222321452D

 19 20  0  0  0  0  0  0  0  0999 V2000
    5.0292   -3.7667    0.0000 C   0  0  0  0  0  0  0  0  0  0  0  0
    5.0292   -2.9417    0.0000 C   0  0  0  0  0  0  0  0  0  0  0  0
    4.3167   -4.1750    0.0000 N   0  0  3  0  0  0  0  0  0  0  0  0
    3.5792   -2.9417    0.0000 N   0  0  3  0  0  0  0  0  0  0  0  0
    3.5792   -3.7667    0.0000 C   0  0  0  0  0  0  0  0  0  0  0  0
    4.3167   -2.5375    0.0000 C   0  0  0  0  0  0  0  0  0  0  0  0
    5.8125   -4.0250    0.0000 N   0  0  0  0  0  0  0  0  0  0  0  0
    5.8750   -2.6292    0.0000 N   0  0  0  0  0  0  0  0  0  0  0  0
    6.2917   -3.3417    0.0000 C   0  0  0  0  0  0  0  0  0  0  0  0
    2.8542   -4.1750    0.0000 O   0  0  0  0  0  0  0  0  0  0  0  0
    4.3167   -1.7167    0.0000 O   0  0  0  0  0  0  0  0  0  0  0  0
    4.3167   -4.9917    0.0000 C   0  0  0  0  0  0  0  0  0  0  0  0
    2.8750   -2.5250    0.0000 C   0  0  0  0  0  0  0  0  0  0  0  0
    7.1042   -3.3417    0.0000 C   0  0  0  0  0  0  0  0  0  0  0  0
    7.5167   -4.0417    0.0000 N   0  0  0  0  0  0  0  0  0  0  0  0
    8.3292   -5.4542    0.0000 O   0  0  0  0  0  0  0  0  0  0  0  0
    8.3292   -4.0375    0.0000 C   0  0  0  0  0  0  0  0  0  0  0  0
    8.7375   -4.7417    0.0000 C   0  0  0  0  0  0  0  0  0  0  0  0
    8.7417   -6.1667    0.0000 C   0  0  0  0  0  0  0  0  0  0  0  0
  2  1  2  0  0  0  0
  3  1  1  0  0  0  0
  4  5  1  0  0  0  0
  5  3  1  0  0  0  0
  6  2  1  0  0  0  0
  7  1  1  0  0  0  0
  8  2  1  0  0  0  0
  9  7  2  0  0  0  0
 10  5  2  0  0  0  0
 11  6  2  0  0  0  0
 12  3  1  0  0  0  0
 13  4  1  0  0  0  0
 14  9  1  0  0  0  0
 15 14  1  0  0  0  0
 16 18  1  0  0  0  0
 17 15  1  0  0  0  0
 18 17  1  0  0  0  0
 19 16  1  0  0  0  0
  8  9  1  0  0  0  0
  4  6  1  0  0  0  0
M  END
> <IDNUMBER>
F1699-0030

> <Chemical_Name>
8-{[(2-methoxyethyl)amino]methyl}-1,3-dimethyl-2,3,6,7-tetrahydro-1H-purine-2,6-dione

> <CAS>
838884-59-6

> <PriceCoeff>
1.50

> <MW>
267.28

> <Description>
solid

> <FSP3>
0.55

> <clogP>
-0.49

> <TPSA>
90.56

> <Acceptor>
5

> <Donor>
3

> <RotBonds>
5

> <HAC>
19

> <Collection>
Advanced

> <Reference_compound>
CHEMBL190

> <Similarity>
0.8190

$$$$
F6473-3542
  -ISIS-  06222321462D

 22 25  0  0  0  0  0  0  0  0999 V2000
   -1.3083    5.1042    0.0000 N   0  0  3  0  0  0  0  0  0  0  0  0
   -3.0333    4.1042    0.0000 N   0  0  3  0  0  0  0  0  0  0  0  0
   -3.7500    2.8833    0.0000 C   0  0  0  0  0  0  0  0  0  0  0  0
   -3.7458    3.6958    0.0000 C   0  0  0  0  0  0  0  0  0  0  0  0
   -2.0333    4.6875    0.0000 C   0  0  3  0  0  0  0  0  0  0  0  0
   -3.0833    2.4000    0.0000 O   0  0  0  0  0  0  0  0  0  0  0  0
   -4.4083    2.3958    0.0000 C   0  0  0  0  0  0  0  0  0  0  0  0
   -0.5583    4.7667    0.0000 C   0  0  0  0  0  0  0  0  0  0  0  0
   -1.2250    5.9167    0.0000 C   0  0  0  0  0  0  0  0  0  0  0  0
   -2.8208    4.9000    0.0000 C   0  0  0  0  0  0  0  0  0  0  0  0
   -2.2458    3.8958    0.0000 C   0  0  0  0  0  0  0  0  0  0  0  0
   -3.3333    1.6208    0.0000 C   0  0  0  0  0  0  0  0  0  0  0  0
   -4.1542    1.6083    0.0000 C   0  0  0  0  0  0  0  0  0  0  0  0
   -4.4583    4.0958    0.0000 O   0  0  0  0  0  0  0  0  0  0  0  0
   -0.0083    5.3792    0.0000 C   0  0  0  0  0  0  0  0  0  0  0  0
   -0.4208    6.0917    0.0000 C   0  0  0  0  0  0  0  0  0  0  0  0
   -0.3875    3.9625    0.0000 O   0  0  0  0  0  0  0  0  0  0  0  0
   -1.8417    6.4708    0.0000 O   0  0  0  0  0  0  0  0  0  0  0  0
   -2.9000    0.9083    0.0000 C   0  0  0  0  0  0  0  0  0  0  0  0
   -4.5583    0.8875    0.0000 C   0  0  0  0  0  0  0  0  0  0  0  0
   -3.2958    0.2000    0.0000 C   0  0  0  0  0  0  0  0  0  0  0  0
   -4.1417    0.1833    0.0000 C   0  0  0  0  0  0  0  0  0  0  0  0
  2 11  1  0  0  0  0
  3  4  1  0  0  0  0
  4  2  1  0  0  0  0
  5  1  1  0  0  0  0
  6  3  1  0  0  0  0
  7  3  2  0  0  0  0
  8  1  1  0  0  0  0
  9  1  1  0  0  0  0
 10  5  1  0  0  0  0
 11  5  1  0  0  0  0
 12  6  1  0  0  0  0
 13  7  1  0  0  0  0
 14  4  2  0  0  0  0
 15  8  1  0  0  0  0
 16  9  1  0  0  0  0
 17  8  2  0  0  0  0
 18  9  2  0  0  0  0
 19 12  2  0  0  0  0
 20 13  2  0  0  0  0
 21 19  1  0  0  0  0
 22 20  1  0  0  0  0
 16 15  1  0  0  0  0
  2 10  1  0  0  0  0
 13 12  1  0  0  0  0
 22 21  2  0  0  0  0
M  END
> <IDNUMBER>
F6473-3542

> <Chemical_Name>
1-[1-(1-benzofuran-2-carbonyl)azetidin-3-yl]pyrrolidine-2,5-dione

> <CAS>
1795191-23-9

> <PriceCoeff>
1.50

> <MW>
298.29

> <Description>
solid

> <FSP3>
0.31

> <clogP>
0.81

> <TPSA>
70.83

> <Acceptor>
4

> <Donor>
0

> <RotBonds>
3

> <HAC>
22

> <Collection>
Advanced

$$$$
F5032-0039
  -ISIS-  06222321442D

 19 20  0  0  0  0  0  0  0  0999 V2000
    2.6167   -0.9000    0.0000 C   0  0  0  0  0  0  0  0  0  0  0  0
    2.9292   -1.8542    0.0000 C   0  0  0  0  0  0  0  0  0  0  0  0
    1.6417   -0.6917    0.0000 N   0  0  3  0  0  0  0  0  0  0  0  0
    1.2792   -2.3792    0.0000 N   0  0  3  0  0  0  0  0  0  0  0  0
    0.9750   -1.4250    0.0000 C   0  0  0  0  0  0  0  0  0  0  0  0
    2.2542   -2.5917    0.0000 C   0  0  0  0  0  0  0  0  0  0  0  0
    3.4292   -0.3167    0.0000 N   0  0  0  0  0  0  0  0  0  0  0  0
    3.9292   -1.8542    0.0000 N   0  0  0  0  0  0  0  0  0  0  0  0
    4.2417   -0.9000    0.0000 C   0  0  0  0  0  0  0  0  0  0  0  0
    0.0000   -1.2125    0.0000 O   0  0  0  0  0  0  0  0  0  0  0  0
    2.5542   -3.5500    0.0000 O   0  0  0  0  0  0  0  0  0  0  0  0
    5.1917   -0.5875    0.0000 N   0  0  0  0  0  0  0  0  0  0  0  0
    1.3417    0.2583    0.0000 C   0  0  0  0  0  0  0  0  0  0  0  0
    0.6042   -3.1167    0.0000 C   0  0  0  0  0  0  0  0  0  0  0  0
    6.3417    0.7083    0.0000 C   0  0  0  0  0  0  0  0  0  0  0  0
    7.4875    2.0000    0.0000 O   0  0  0  0  0  0  0  0  0  0  0  0
    5.3917    0.3958    0.0000 C   0  0  0  0  0  0  0  0  0  0  0  0
    6.5417    1.6958    0.0000 C   0  0  0  0  0  0  0  0  0  0  0  0
    7.6917    2.9833    0.0000 C   0  0  0  0  0  0  0  0  0  0  0  0
  2  1  2  0  0  0  0
  3  1  1  0  0  0  0
  4  5  1  0  0  0  0
  5  3  1  0  0  0  0
  6  2  1  0  0  0  0
  7  1  1  0  0  0  0
  8  2  1  0  0  0  0
  9  7  2  0  0  0  0
 10  5  2  0  0  0  0
 11  6  2  0  0  0  0
 12  9  1  0  0  0  0
 13  3  1  0  0  0  0
 14  4  1  0  0  0  0
 15 17  1  0  0  0  0
 16 18  1  0  0  0  0
 17 12  1  0  0  0  0
 18 15  1  0  0  0  0
 19 16  1  0  0  0  0
  9  8  1  0  0  0  0
  4  6  1  0  0  0  0
M  END
> <IDNUMBER>
F5032-0039

> <Chemical_Name>
8-[(3-methoxypropyl)amino]-1,3-dimethyl-2,3,6,7-tetrahydro-1H-purine-2,6-dione

> <CAS>
36740-30-4

> <PriceCoeff>
1.50

> <MW>
267.28

> <Description>
solid

> <FSP3>
0.55

> <clogP>
0.88

> <TPSA>
90.56

> <Acceptor>
5

> <Donor>
3

> <RotBonds>
5

> <HAC>
19

> <Collection>
Advanced

> <Reference_compound>
CHEMBL190

> <Similarity>
0.8020

$$$$
F6110-1920
  -ISIS-  06222321462D

 25 27  0  0  0  0  0  0  0  0999 V2000
   -4.5833    2.9708    0.0000 C   0  0  0  0  0  0  0  0  0  0  0  0
   -4.5833    3.8000    0.0000 C   0  0  0  0  0  0  0  0  0  0  0  0
   -1.7333    6.2917    0.0000 N   0  0  3  0  0  0  0  0  0  0  0  0
   -3.8625    4.2125    0.0000 N   0  0  3  0  0  0  0  0  0  0  0  0
   -5.2958    2.5583    0.0000 C   0  0  0  0  0  0  0  0  0  0  0  0
   -1.7458    7.9542    0.0000 N   0  0  3  0  0  0  0  0  0  0  0  0
   -3.8583    2.5583    0.0000 C   0  0  0  0  0  0  0  0  0  0  0  0
   -1.0208    6.7208    0.0000 C   0  0  3  0  0  0  0  0  0  0  0  0
   -5.2875    1.7208    0.0000 C   0  0  0  0  0  0  0  0  0  0  0  0
   -1.7250    5.4667    0.0000 C   0  0  0  0  0  0  0  0  0  0  0  0
   -1.0250    7.5542    0.0000 C   0  0  0  0  0  0  0  0  0  0  0  0
   -5.2958    4.2042    0.0000 O   0  0  0  0  0  0  0  0  0  0  0  0
   -2.4500    6.7125    0.0000 C   0  0  0  0  0  0  0  0  0  0  0  0
   -3.8625    5.0417    0.0000 C   0  0  0  0  0  0  0  0  0  0  0  0
   -3.1458    3.8000    0.0000 C   0  0  0  0  0  0  0  0  0  0  0  0
   -4.5708    1.3083    0.0000 C   0  0  0  0  0  0  0  0  0  0  0  0
   -2.4583    7.5417    0.0000 C   0  0  0  0  0  0  0  0  0  0  0  0
   -6.0042    2.9625    0.0000 F   0  0  0  0  0  0  0  0  0  0  0  0
   -3.8500    1.7333    0.0000 C   0  0  0  0  0  0  0  0  0  0  0  0
   -2.4458    5.0333    0.0000 C   0  0  3  0  0  0  0  0  0  0  0  0
   -2.4250    4.2167    0.0000 C   0  0  0  0  0  0  0  0  0  0  0  0
   -3.1583    5.4542    0.0000 C   0  0  0  0  0  0  0  0  0  0  0  0
   -4.5708    0.4875    0.0000 F   0  0  0  0  0  0  0  0  0  0  0  0
   -1.7583    8.7792    0.0000 C   0  0  0  0  0  0  0  0  0  0  0  0
   -0.2958    6.3167    0.0000 C   0  0  0  0  0  0  0  0  0  0  0  0
  2  1  1  0  0  0  0
  3 10  1  0  0  0  0
  4  2  1  0  0  0  0
  5  1  1  0  0  0  0
  6 17  1  0  0  0  0
  7  1  2  0  0  0  0
  8  3  1  0  0  0  0
  9  5  2  0  0  0  0
 10 20  1  0  0  0  0
 11  8  1  0  0  0  0
 12  2  2  0  0  0  0
 13  3  1  0  0  0  0
 14  4  1  0  0  0  0
 15  4  1  0  0  0  0
 16 19  2  0  0  0  0
 17 13  1  0  0  0  0
 18  5  1  0  0  0  0
 19  7  1  0  0  0  0
 20 21  1  0  0  0  0
 21 15  1  0  0  0  0
 22 14  1  0  0  0  0
 23 16  1  0  0  0  0
 24  6  1  0  0  0  0
 25  8  1  0  0  0  0
  9 16  1  0  0  0  0
 20 22  1  0  0  0  0
 11  6  1  0  0  0  0
M  END
> <IDNUMBER>
F6110-1920

> <Chemical_Name>
1-{[1-(2,4-difluorobenzoyl)piperidin-4-yl]methyl}-2,4-dimethylpiperazine

> <CAS>
1421515-75-4

> <PriceCoeff>
1.50

> <MW>
351.43

> <Description>
oil

> <FSP3>
0.63

> <clogP>
1.07

> <TPSA>
26.79

> <Acceptor>
3

> <Donor>
2

> <RotBonds>
4

> <HAC>
25

> <Collection>
Advanced

> <Reference_compound>
CHEMBL3969241

> <Similarity>
0.8310

$$$$
F9995-0068
  -ISIS-  06222321472D

 10 11  0  0  0  0  0  0  0  0999 V2000
    2.9917   -4.8875    0.0000 C   0  0  0  0  0  0  0  0  0  0  0  0
    2.9917   -4.0667    0.0000 C   0  0  0  0  0  0  0  0  0  0  0  0
    2.2875   -3.6542    0.0000 O   0  0  0  0  0  0  0  0  0  0  0  0
    2.2792   -5.3000    0.0000 O   0  0  0  0  0  0  0  0  0  0  0  0
    1.5667   -4.8792    0.0000 C   0  0  0  0  0  0  0  0  0  0  0  0
    1.5750   -4.0542    0.0000 C   0  0  0  0  0  0  0  0  0  0  0  0
    3.7042   -5.3000    0.0000 C   0  0  0  0  0  0  0  0  0  0  0  0
    3.7042   -3.6417    0.0000 C   0  0  0  0  0  0  0  0  0  0  0  0
    4.4167   -4.0542    0.0000 C   0  0  0  0  0  0  0  0  0  0  0  0
    4.4167   -4.8875    0.0000 C   0  0  0  0  0  0  0  0  0  0  0  0
  2  1  2  0  0  0  0
  3  2  1  0  0  0  0
  4  1  1  0  0  0  0
  5  4  1  0  0  0  0
  6  5  1  0  0  0  0
  7  1  1  0  0  0  0
  8  2  1  0  0  0  0
  9 10  1  0  0  0  0
 10  7  2  0  0  0  0
  8  9  2  0  0  0  0
  6  3  1  0  0  0  0
M  END
> <IDNUMBER>
F9995-0068

> <Chemical_Name>
2,3-dihydro-1,4-benzodioxine

> <CAS>
493-09-4

> <PriceCoeff>
1.50

> <MW>
136.15

> <Description>
liquid

> <FSP3>
0.25

> <clogP>
2.07

> <TPSA>
18.46

> <Acceptor>
2

> <Donor>
0

> <RotBonds>
0

> <HAC>
10

> <Collection>
Advanced

> <Reference_compound>
CHEMBL225436

> <Similarity>
0.8460

$$$$
F0001-0518
  -ISIS-  06222321442D

  9  9  0  0  0  0  0  0  0  0999 V2000
   11.8125  -12.2542    0.0000 C   0  0  0  0  0  0  0  0  0  0  0  0
   11.0917  -12.6625    0.0000 O   0  0  0  0  0  0  0  0  0  0  0  0
   11.8167   -9.7750    0.0000 N   0  0  0  0  0  0  0  0  0  0  0  0
   11.8167  -11.4292    0.0000 C   0  0  0  0  0  0  0  0  0  0  0  0
   12.5250  -12.6667    0.0000 N   0  0  0  0  0  0  0  0  0  0  0  0
   11.1042  -10.1875    0.0000 C   0  0  0  0  0  0  0  0  0  0  0  0
   12.5292  -10.1875    0.0000 C   0  0  0  0  0  0  0  0  0  0  0  0
   12.5292  -11.0167    0.0000 C   0  0  0  0  0  0  0  0  0  0  0  0
   11.1042  -11.0167    0.0000 C   0  0  0  0  0  0  0  0  0  0  0  0
  2  1  2  0  0  0  0
  3  6  1  0  0  0  0
  4  1  1  0  0  0  0
  5  1  1  0  0  0  0
  6  9  2  0  0  0  0
  7  8  1  0  0  0  0
  8  4  2  0  0  0  0
  9  4  1  0  0  0  0
  3  7  2  0  0  0  0
M  END
> <IDNUMBER>
F0001-0518

> <Chemical_Name>
pyridine-4-carboxamide

> <CAS>
1453-82-3

> <PriceCoeff>
1.00

> <MW>
122.12

> <Description>
solid

> <FSP3>
0.00

> <clogP>
-0.21

> <TPSA>
55.98

> <Acceptor>
2

> <Donor>
2

> <RotBonds>
1

> <HAC>
9

> <Collection>
General

> <Reference_compound>
CHEMBL64

> <Similarity>
0.8050

$$$$
F6451-1634
  -ISIS-  06222321152D

 22 23  0  0  0  0  0  0  0  0999 V2000
   -5.2833    2.5708    0.0000 N   0  0  3  0  0  0  0  0  0  0  0  0
   -5.3708    1.7458    0.0000 C   0  0  0  0  0  0  0  0  0  0  0  0
   -6.0292    2.9000    0.0000 C   0  0  0  0  0  0  0  0  0  0  0  0
   -4.5833    2.9875    0.0000 C   0  0  0  0  0  0  0  0  0  0  0  0
   -4.5833    3.8000    0.0000 C   0  0  0  0  0  0  0  0  0  0  0  0
   -3.1333    6.2667    0.0000 C   0  0  0  0  0  0  0  0  0  0  0  0
   -3.8625    4.2125    0.0000 N   0  0  0  0  0  0  0  0  0  0  0  0
   -6.1667    1.5708    0.0000 C   0  0  0  0  0  0  0  0  0  0  0  0
   -6.5792    2.2833    0.0000 C   0  0  0  0  0  0  0  0  0  0  0  0
   -4.7500    1.1833    0.0000 O   0  0  0  0  0  0  0  0  0  0  0  0
   -6.2042    3.7083    0.0000 O   0  0  0  0  0  0  0  0  0  0  0  0
   -5.2958    4.2125    0.0000 O   0  0  0  0  0  0  0  0  0  0  0  0
   -3.8458    6.6792    0.0000 C   0  0  0  0  0  0  0  0  0  0  0  0
   -3.8625    5.0292    0.0000 C   0  0  0  0  0  0  0  0  0  0  0  0
   -3.1375    5.4292    0.0000 C   0  0  3  0  0  0  0  0  0  0  0  0
   -2.4333    5.0042    0.0000 O   0  0  0  0  0  0  0  0  0  0  0  0
   -2.4208    6.6667    0.0000 C   0  0  0  0  0  0  0  0  0  0  0  0
   -4.5708    6.2750    0.0000 C   0  0  0  0  0  0  0  0  0  0  0  0
   -3.8333    7.5250    0.0000 C   0  0  0  0  0  0  0  0  0  0  0  0
   -1.7208    5.4167    0.0000 C   0  0  0  0  0  0  0  0  0  0  0  0
   -2.4083    7.4917    0.0000 C   0  0  0  0  0  0  0  0  0  0  0  0
   -3.1000    7.9250    0.0000 C   0  0  0  0  0  0  0  0  0  0  0  0
  2  1  1  0  0  0  0
  3  1  1  0  0  0  0
  4  1  1  0  0  0  0
  5  4  1  0  0  0  0
  6 15  1  0  0  0  0
  7  5  1  0  0  0  0
  8  2  1  0  0  0  0
  9  3  1  0  0  0  0
 10  2  2  0  0  0  0
 11  3  2  0  0  0  0
 12  5  2  0  0  0  0
 13  6  1  0  0  0  0
 14  7  1  0  0  0  0
 15 14  1  0  0  0  0
 16 15  1  0  0  0  0
 17  6  2  0  0  0  0
 18 13  1  0  0  0  0
 19 13  2  0  0  0  0
 20 16  1  0  0  0  0
 21 17  1  0  0  0  0
 22 21  2  0  0  0  0
  9  8  1  0  0  0  0
 22 19  1  0  0  0  0
M  END
> <IDNUMBER>
F6451-1634

> <Chemical_Name>
2-(2,5-dioxopyrrolidin-1-yl)-N-[2-methoxy-2-(2-methylphenyl)ethyl]acetamide

> <CAS>
1797877-57-6

> <PriceCoeff>
1.00

> <MW>
304.34

> <Description>
solid

> <FSP3>
0.44

> <clogP>
1.30

> <TPSA>
75.71

> <Acceptor>
4

> <Donor>
1

> <RotBonds>
6

> <HAC>
22

> <Collection>
General

$$$$
F6110-1885
  -ISIS-  06222304352D

 30 30  0  0  0  0  0  0  0  0999 V2000
   -4.5833    3.8000    0.0000 C   0  0  0  0  0  0  0  0  0  0  0  0
   -4.5833    2.9792    0.0000 C   0  0  0  0  0  0  0  0  0  0  0  0
   -1.7333    6.2917    0.0000 N   0  0  3  0  0  0  0  0  0  0  0  0
   -3.8625    4.2125    0.0000 N   0  0  3  0  0  0  0  0  0  0  0  0
   -1.7458    7.9542    0.0000 N   0  0  3  0  0  0  0  0  0  0  0  0
   -1.0208    6.7208    0.0000 C   0  0  3  0  0  0  0  0  0  0  0  0
   -5.3000    2.5583    0.0000 C   0  0  0  0  0  0  0  0  0  0  0  0
   -1.7250    5.4667    0.0000 C   0  0  0  0  0  0  0  0  0  0  0  0
   -1.0250    7.5542    0.0000 C   0  0  0  0  0  0  0  0  0  0  0  0
   -5.2958    4.2042    0.0000 O   0  0  0  0  0  0  0  0  0  0  0  0
   -2.4500    6.7125    0.0000 C   0  0  0  0  0  0  0  0  0  0  0  0
   -3.8625    5.0417    0.0000 C   0  0  0  0  0  0  0  0  0  0  0  0
   -3.1458    3.8000    0.0000 C   0  0  0  0  0  0  0  0  0  0  0  0
   -2.4583    7.5417    0.0000 C   0  0  0  0  0  0  0  0  0  0  0  0
   -6.0042    2.9708    0.0000 F   0  0  0  0  0  0  0  0  0  0  0  0
   -2.4458    5.0333    0.0000 C   0  0  3  0  0  0  0  0  0  0  0  0
   -3.8625    2.5708    0.0000 C   0  0  0  0  0  0  0  0  0  0  0  0
   -3.1583    5.4542    0.0000 C   0  0  0  0  0  0  0  0  0  0  0  0
   -2.4250    4.2167    0.0000 C   0  0  0  0  0  0  0  0  0  0  0  0
   -1.7583    8.7792    0.0000 C   0  0  0  0  0  0  0  0  0  0  0  0
   -0.2958    6.3167    0.0000 C   0  0  0  0  0  0  0  0  0  0  0  0
   -5.2958    1.7333    0.0000 C   0  0  0  0  0  0  0  0  0  0  0  0
   -3.8625    1.7458    0.0000 C   0  0  0  0  0  0  0  0  0  0  0  0
   -4.5792    1.3250    0.0000 C   0  0  0  0  0  0  0  0  0  0  0  0
    1.8458    5.3500    0.0000 C   0  0  0  0  0  0  0  0  0  0  0  0
    1.1250    5.7625    0.0000 O   0  0  0  0  0  0  0  0  0  0  0  0
    2.5583    5.7625    0.0000 O   0  0  0  0  0  0  0  0  0  0  0  0
    1.8708    4.2291    0.0000 C   0  0  0  0  0  0  0  0  0  0  0  0
    1.1542    4.6416    0.0000 O   0  0  0  0  0  0  0  0  0  0  0  0
    2.5875    4.6416    0.0000 O   0  0  0  0  0  0  0  0  0  0  0  0
  8 16  1  0  0  0  0
  9  6  1  0  0  0  0
 10  1  2  0  0  0  0
 11  3  1  0  0  0  0
 12  4  1  0  0  0  0
 13  4  1  0  0  0  0
 14 11  1  0  0  0  0
 15  7  1  0  0  0  0
 16 19  1  0  0  0  0
 17  2  2  0  0  0  0
 18 12  1  0  0  0  0
 19 13  1  0  0  0  0
 20  5  1  0  0  0  0
 21  6  1  0  0  0  0
 22  7  2  0  0  0  0
 23 17  1  0  0  0  0
 24 23  2  0  0  0  0
 16 18  1  0  0  0  0
 24 22  1  0  0  0  0
  9  5  1  0  0  0  0
  2  1  1  0  0  0  0
  3  8  1  0  0  0  0
  4  1  1  0  0  0  0
  5 14  1  0  0  0  0
  6  3  1  0  0  0  0
  7  2  1  0  0  0  0
 27 25  1  0  0  0  0
 26 25  2  0  0  0  0
 29 28  2  0  0  0  0
 30 28  1  0  0  0  0
M  END
> <IDNUMBER>
F6110-1885

> <Chemical_Name>
1-{[1-(2-fluorobenzoyl)piperidin-4-yl]methyl}-2,4-dimethylpiperazine; bis(formic acid)

> <CAS>
1421490-62-1

> <PriceCoeff>
1.50

> <MW>
333.44

> <Description>
oil

> <FSP3>
0.63

> <clogP>
0.90

> <TPSA>
26.79

> <Acceptor>
3

> <Donor>
2

> <RotBonds>
4

> <HAC>
24

> <Collection>
Advanced

> <Reference_compound>
CHEMBL3969241

> <Similarity>
0.8580

$$$$
F8887-5762
  -ISIS-  06222321472D

 11 12  0  0  0  0  0  0  0  0999 V2000
    5.2042   -0.9875    0.0000 N   0  0  0  0  0  0  0  0  0  0  0  0
    5.6917   -0.3167    0.0000 C   0  0  0  0  0  0  0  0  0  0  0  0
    4.4167   -0.7292    0.0000 C   0  0  0  0  0  0  0  0  0  0  0  0
    4.4167    0.0958    0.0000 C   0  0  0  0  0  0  0  0  0  0  0  0
    5.2042    0.3500    0.0000 C   0  0  0  0  0  0  0  0  0  0  0  0
    3.7042    0.5000    0.0000 C   0  0  0  0  0  0  0  0  0  0  0  0
    6.5125   -0.3167    0.0000 O   0  0  0  0  0  0  0  0  0  0  0  0
    3.7042   -1.1500    0.0000 C   0  0  0  0  0  0  0  0  0  0  0  0
    2.9917    0.0875    0.0000 C   0  0  0  0  0  0  0  0  0  0  0  0
    2.9917   -0.7375    0.0000 C   0  0  0  0  0  0  0  0  0  0  0  0
    2.2792    0.5000    0.0000 Br  0  0  0  0  0  0  0  0  0  0  0  0
  2  1  1  0  0  0  0
  3  1  1  0  0  0  0
  4  3  1  0  0  0  0
  5  2  1  0  0  0  0
  6  4  2  0  0  0  0
  7  2  2  0  0  0  0
  8  3  2  0  0  0  0
  9 10  2  0  0  0  0
 10  8  1  0  0  0  0
 11  9  1  0  0  0  0
  4  5  1  0  0  0  0
  9  6  1  0  0  0  0
M  END
> <IDNUMBER>
F8887-5762

> <Chemical_Name>
5-bromo-2,3-dihydro-1H-indol-2-one

> <CAS>
20870-78-4

> <PriceCoeff>
1.00

> <MW>
212.04

> <Description>
solid

> <FSP3>
0.12

> <clogP>
1.83

> <TPSA>
29.10

> <Acceptor>
1

> <Donor>
1

> <RotBonds>
0

> <HAC>
11

> <Collection>
General

> <Reference_compound>
CHEMBL40823

> <Similarity>
0.8680

$$$$
F2124-0810
  -ISIS-  06222321142D

 13 14  0  0  0  0  0  0  0  0999 V2000
    6.9500   -0.7917    0.0000 C   0  0  0  0  0  0  0  0  0  0  0  0
    6.2375   -1.2125    0.0000 C   0  0  0  0  0  0  0  0  0  0  0  0
    5.5250   -0.8042    0.0000 C   0  0  0  0  0  0  0  0  0  0  0  0
    4.8167   -1.2167    0.0000 C   0  0  0  0  0  0  0  0  0  0  0  0
    4.8167   -2.0375    0.0000 C   0  0  0  0  0  0  0  0  0  0  0  0
    6.9500    0.0333    0.0000 O   0  0  0  0  0  0  0  0  0  0  0  0
    6.2417   -2.0375    0.0000 C   0  0  0  0  0  0  0  0  0  0  0  0
    5.5292   -2.4500    0.0000 C   0  0  0  0  0  0  0  0  0  0  0  0
    7.6667   -1.2042    0.0000 O   0  0  0  0  0  0  0  0  0  0  0  0
    4.1042   -0.8000    0.0000 C   0  0  0  0  0  0  0  0  0  0  0  0
    4.1042   -2.4500    0.0000 C   0  0  0  0  0  0  0  0  0  0  0  0
    3.3917   -1.2167    0.0000 C   0  0  0  0  0  0  0  0  0  0  0  0
    3.3917   -2.0417    0.0000 C   0  0  0  0  0  0  0  0  0  0  0  0
  2  1  1  0  0  0  0
  3  2  2  0  0  0  0
  4  3  1  0  0  0  0
  5  8  1  0  0  0  0
  6  1  2  0  0  0  0
  7  2  1  0  0  0  0
  8  7  2  0  0  0  0
  9  1  1  0  0  0  0
 10  4  1  0  0  0  0
 11  5  1  0  0  0  0
 12 10  1  0  0  0  0
 13 11  1  0  0  0  0
  4  5  2  0  0  0  0
 12 13  1  0  0  0  0
M  END
> <IDNUMBER>
F2124-0810

> <Chemical_Name>
5,6,7,8-tetrahydronaphthalene-2-carboxylic acid

> <CAS>
1131-63-1

> <PriceCoeff>
1.50

> <MW>
176.21

> <Description>
solid

> <FSP3>
0.36

> <clogP>
3.46

> <TPSA>
37.30

> <Acceptor>
2

> <Donor>
0

> <RotBonds>
1

> <HAC>
13

> <Collection>
Advanced

> <Reference_compound>
CHEMBL116157

> <Similarity>
0.8020

$$$$
F3260-0820
  -ISIS-  06222321152D

 19 20  0  0  0  0  0  0  0  0999 V2000
    3.6375    2.1083    0.0000 C   0  0  0  0  0  0  0  0  0  0  0  0
    3.6375    3.5083    0.0000 C   0  0  0  0  0  0  0  0  0  0  0  0
    2.4250    1.4000    0.0000 N   0  0  3  0  0  0  0  0  0  0  0  0
    1.2125    2.1083    0.0000 C   0  0  0  0  0  0  0  0  0  0  0  0
    1.2125    3.5083    0.0000 N   0  0  0  0  0  0  0  0  0  0  0  0
    4.9667    1.6708    0.0000 N   0  0  0  0  0  0  0  0  0  0  0  0
    2.4250    4.2000    0.0000 C   0  0  0  0  0  0  0  0  0  0  0  0
    4.9667    3.9375    0.0000 N   0  0  3  0  0  0  0  0  0  0  0  0
    5.7917    2.8083    0.0000 C   0  0  0  0  0  0  0  0  0  0  0  0
    5.7917    5.0667    0.0000 C   0  0  0  0  0  0  0  0  0  0  0  0
    5.2167    6.3417    0.0000 C   0  0  0  0  0  0  0  0  0  0  0  0
    0.0000    1.4083    0.0000 O   0  0  0  0  0  0  0  0  0  0  0  0
    2.4167    5.5917    0.0000 O   0  0  0  0  0  0  0  0  0  0  0  0
    3.8292    6.4917    0.0000 O   0  0  0  0  0  0  0  0  0  0  0  0
    2.4167   -0.0000    0.0000 C   0  0  0  0  0  0  0  0  0  0  0  0
    6.0417    7.4667    0.0000 N   0  0  0  0  0  0  0  0  0  0  0  0
    5.4750    8.7542    0.0000 C   0  0  0  0  0  0  0  0  0  0  0  0
    6.2917    9.8792    0.0000 C   0  0  0  0  0  0  0  0  0  0  0  0
    5.7250   11.1667    0.0000 C   0  0  0  0  0  0  0  0  0  0  0  0
  2  1  2  0  0  0  0
  3  1  1  0  0  0  0
  4  3  1  0  0  0  0
  5  4  1  0  0  0  0
  6  1  1  0  0  0  0
  7  2  1  0  0  0  0
  8  2  1  0  0  0  0
  9  6  2  0  0  0  0
 10  8  1  0  0  0  0
 11 10  1  0  0  0  0
 12  4  2  0  0  0  0
 13  7  2  0  0  0  0
 14 11  2  0  0  0  0
 15  3  1  0  0  0  0
 16 11  1  0  0  0  0
 17 16  1  0  0  0  0
 18 17  1  0  0  0  0
 19 18  1  0  0  0  0
  9  8  1  0  0  0  0
  5  7  1  0  0  0  0
M  END
> <IDNUMBER>
F3260-0820

> <Chemical_Name>
2-(3-methyl-2,6-dioxo-2,3,6,7-tetrahydro-1H-purin-7-yl)-N-propylacetamide

> <CAS>
1105245-10-0

> <PriceCoeff>
1.00

> <MW>
265.27

> <Description>
solid

> <FSP3>
0.45

> <clogP>
-0.70

> <TPSA>
96.33

> <Acceptor>
4

> <Donor>
3

> <RotBonds>
4

> <HAC>
19

> <Collection>
General

> <Reference_compound>
CHEMBL113

> <Similarity>
0.8360

$$$$
F0017-0651
  -ISIS-  06222321442D

 16 17  0  0  0  0  0  0  0  0999 V2000
   -1.0125   -2.1667    0.0000 C   0  0  0  0  0  0  0  0  0  0  0  0
   -1.0125   -1.4042    0.0000 C   0  0  0  0  0  0  0  0  0  0  0  0
   -1.6500   -2.5292    0.0000 N   0  0  3  0  0  0  0  0  0  0  0  0
   -0.3125   -2.3875    0.0000 N   0  0  0  0  0  0  0  0  0  0  0  0
   -2.2958   -2.1667    0.0000 C   0  0  0  0  0  0  0  0  0  0  0  0
   -2.2958   -1.4042    0.0000 N   0  0  0  0  0  0  0  0  0  0  0  0
   -1.6500   -1.0500    0.0000 C   0  0  0  0  0  0  0  0  0  0  0  0
    0.1292   -1.7875    0.0000 C   0  0  0  0  0  0  0  0  0  0  0  0
   -0.3125   -1.1875    0.0000 N   0  0  0  0  0  0  0  0  0  0  0  0
   -2.9500   -2.5500    0.0000 O   0  0  0  0  0  0  0  0  0  0  0  0
   -1.6500   -0.2875    0.0000 O   0  0  0  0  0  0  0  0  0  0  0  0
    0.8667   -1.7875    0.0000 N   0  0  0  0  0  0  0  0  0  0  0  0
   -1.6500   -3.2875    0.0000 C   0  0  0  0  0  0  0  0  0  0  0  0
    1.9875   -2.4292    0.0000 C   0  0  0  0  0  0  0  0  0  0  0  0
    2.3667   -3.0667    0.0000 C   0  0  0  0  0  0  0  0  0  0  0  0
    1.2500   -2.4292    0.0000 C   0  0  0  0  0  0  0  0  0  0  0  0
  2  1  2  0  0  0  0
  3  1  1  0  0  0  0
  4  1  1  0  0  0  0
  5  3  1  0  0  0  0
  6  5  1  0  0  0  0
  7  2  1  0  0  0  0
  8  4  2  0  0  0  0
  9  2  1  0  0  0  0
 10  5  2  0  0  0  0
 11  7  2  0  0  0  0
 12  8  1  0  0  0  0
 13  3  1  0  0  0  0
 14 16  1  0  0  0  0
 15 14  2  0  0  0  0
 16 12  1  0  0  0  0
  9  8  1  0  0  0  0
  6  7  1  0  0  0  0
M  END
> <IDNUMBER>
F0017-0651

> <Chemical_Name>
3-methyl-8-[(prop-2-en-1-yl)amino]-2,3,6,7-tetrahydro-1H-purine-2,6-dione

> <CAS>
302801-95-2

> <PriceCoeff>
1.50

> <MW>
221.22

> <Description>
solid

> <FSP3>
0.22

> <clogP>
0.68

> <TPSA>
118.77

> <Acceptor>
4

> <Donor>
4

> <RotBonds>
3

> <HAC>
16

> <Collection>
Advanced

> <Reference_compound>
CHEMBL190

> <Similarity>
0.8230

$$$$
F2145-0647
  -ISIS-  06222321462D

 13 14  0  0  0  0  0  0  0  0999 V2000
    6.9333   -8.7250    0.0000 N   0  0  0  0  0  0  0  0  0  0  0  0
    7.6875   -8.3917    0.0000 C   0  0  0  0  0  0  0  0  0  0  0  0
    6.7958   -7.3958    0.0000 N   0  0  0  0  0  0  0  0  0  0  0  0
    8.4042   -8.8042    0.0000 C   0  0  0  0  0  0  0  0  0  0  0  0
    7.6042   -7.5708    0.0000 O   0  0  0  0  0  0  0  0  0  0  0  0
    6.3833   -8.1125    0.0000 C   0  0  0  0  0  0  0  0  0  0  0  0
    9.1167  -10.0417    0.0000 N   0  0  0  0  0  0  0  0  0  0  0  0
    9.1167   -8.3917    0.0000 C   0  0  0  0  0  0  0  0  0  0  0  0
    8.4000   -9.6250    0.0000 C   0  0  0  0  0  0  0  0  0  0  0  0
    9.8292   -8.8042    0.0000 C   0  0  0  0  0  0  0  0  0  0  0  0
   10.5458   -8.3917    0.0000 Br  0  0  0  0  0  0  0  0  0  0  0  0
    9.8292   -9.6292    0.0000 C   0  0  0  0  0  0  0  0  0  0  0  0
    5.5625   -8.1958    0.0000 C   0  0  0  0  0  0  0  0  0  0  0  0
  2  1  2  0  0  0  0
  3  6  2  0  0  0  0
  4  2  1  0  0  0  0
  5  2  1  0  0  0  0
  6  1  1  0  0  0  0
  7  9  1  0  0  0  0
  8  4  1  0  0  0  0
  9  4  2  0  0  0  0
 10  8  2  0  0  0  0
 11 10  1  0  0  0  0
 12  7  2  0  0  0  0
 13  6  1  0  0  0  0
  3  5  1  0  0  0  0
 10 12  1  0  0  0  0
M  END
> <IDNUMBER>
F2145-0647

> <Chemical_Name>
3-bromo-5-(3-methyl-1,2,4-oxadiazol-5-yl)pyridine

> <CAS>
1283108-13-3

> <PriceCoeff>
1.50

> <MW>
240.06

> <Description>
solid

> <FSP3>
0.12

> <clogP>
1.36

> <TPSA>
51.81

> <Acceptor>
4

> <Donor>
1

> <RotBonds>
1

> <HAC>
13

> <Collection>
Advanced

> <Reference_compound>
CHEMBL2268707

> <Similarity>
0.8500

$$$$
F8884-5845
  -ISIS-  06222321162D

 11 12  0  0  0  0  0  0  0  0999 V2000
    1.1375    0.8583    0.0000 N   0  0  0  0  0  0  0  0  0  0  0  0
    0.6500    1.5250    0.0000 C   0  0  0  0  0  0  0  0  0  0  0  0
    1.9167    1.1125    0.0000 C   0  0  0  0  0  0  0  0  0  0  0  0
    1.9167    1.9375    0.0000 C   0  0  0  0  0  0  0  0  0  0  0  0
    1.1375    2.1958    0.0000 C   0  0  0  0  0  0  0  0  0  0  0  0
    2.6375    2.3500    0.0000 C   0  0  0  0  0  0  0  0  0  0  0  0
   -0.1750    1.5250    0.0000 O   0  0  0  0  0  0  0  0  0  0  0  0
    2.6375    0.7000    0.0000 C   0  0  0  0  0  0  0  0  0  0  0  0
    3.3500    1.9375    0.0000 C   0  0  0  0  0  0  0  0  0  0  0  0
    3.3500    1.1125    0.0000 C   0  0  0  0  0  0  0  0  0  0  0  0
    4.0667    2.3500    0.0000 C   0  0  0  0  0  0  0  0  0  0  0  0
  2  1  1  0  0  0  0
  3  1  1  0  0  0  0
  4  3  2  0  0  0  0
  5  2  1  0  0  0  0
  6  4  1  0  0  0  0
  7  2  2  0  0  0  0
  8  3  1  0  0  0  0
  9 10  1  0  0  0  0
 10  8  2  0  0  0  0
 11  9  1  0  0  0  0
  4  5  1  0  0  0  0
  9  6  2  0  0  0  0
M  END
> <IDNUMBER>
F8884-5845

> <Chemical_Name>
5-methyl-2,3-dihydro-1H-indol-2-one

> <CAS>
3484-35-3

> <PriceCoeff>
1.00

> <MW>
147.17

> <Description>
solid

> <FSP3>
0.22

> <clogP>
1.21

> <TPSA>
29.10

> <Acceptor>
1

> <Donor>
1

> <RotBonds>
0

> <HAC>
11

> <Collection>
General

> <Reference_compound>
CHEMBL40823

> <Similarity>
0.9660

$$$$
F6477-5319
  -ISIS-  06222304352D

 25 26  0  0  0  0  0  0  0  0999 V2000
    1.9667   -1.7667    0.0000 N   0  0  3  0  0  0  0  0  0  0  0  0
    5.2792   -1.4167    0.0000 C   0  0  0  0  0  0  0  0  0  0  0  0
    4.4667   -0.8292    0.0000 N   0  0  0  0  0  0  0  0  0  0  0  0
    3.6625   -1.4167    0.0000 C   0  0  0  0  0  0  0  0  0  0  0  0
    0.9792   -1.5542    0.0000 C   0  0  0  0  0  0  0  0  0  0  0  0
    2.0625   -2.7625    0.0000 C   0  0  0  0  0  0  0  0  0  0  0  0
    4.9667   -2.3750    0.0000 S   0  0  0  0  0  0  0  0  0  0  0  0
    6.2292   -1.1000    0.0000 N   0  0  0  0  0  0  0  0  0  0  0  0
    2.7125   -1.1000    0.0000 C   0  0  0  0  0  0  0  0  0  0  0  0
    3.9667   -2.3750    0.0000 C   0  0  0  0  0  0  0  0  0  0  0  0
    6.4292   -0.1167    0.0000 C   0  0  0  0  0  0  0  0  0  0  0  0
    7.3875    0.1958    0.0000 C   0  0  0  0  0  0  0  0  0  0  0  0
    7.5875    1.1708    0.0000 C   0  0  0  0  0  0  0  0  0  0  0  0
    1.1417   -3.1667    0.0000 C   0  0  0  0  0  0  0  0  0  0  0  0
    0.4792   -2.4167    0.0000 C   0  0  0  0  0  0  0  0  0  0  0  0
    2.9292   -3.2667    0.0000 O   0  0  0  0  0  0  0  0  0  0  0  0
    0.5750   -0.6417    0.0000 O   0  0  0  0  0  0  0  0  0  0  0  0
    5.6875    0.5458    0.0000 C   0  0  0  0  0  0  0  0  0  0  0  0
    6.8417    1.8333    0.0000 C   0  0  0  0  0  0  0  0  0  0  0  0
    5.8917    1.5250    0.0000 C   0  0  0  0  0  0  0  0  0  0  0  0
    8.1292   -0.4667    0.0000 O   0  0  0  0  0  0  0  0  0  0  0  0
    7.0500    2.8125    0.0000 O   0  0  0  0  0  0  0  0  0  0  0  0
    7.9292   -1.4500    0.0000 C   0  0  0  0  0  0  0  0  0  0  0  0
    8.0000    3.1208    0.0000 C   0  0  0  0  0  0  0  0  0  0  0  0
    9.6459   -0.1292    0.0000 Cl  0  0  0  0  0  0  0  0  0  0  0  0
  3  4  1  0  0  0  0
  4  9  1  0  0  0  0
  5  1  1  0  0  0  0
  6  1  1  0  0  0  0
  7 10  1  0  0  0  0
  8  2  1  0  0  0  0
  9  1  1  0  0  0  0
 10  4  2  0  0  0  0
 11  8  1  0  0  0  0
 12 11  2  0  0  0  0
 13 12  1  0  0  0  0
 14  6  1  0  0  0  0
 15  5  1  0  0  0  0
 16  6  2  0  0  0  0
 17  5  2  0  0  0  0
 18 11  1  0  0  0  0
 19 20  1  0  0  0  0
 20 18  2  0  0  0  0
 21 12  1  0  0  0  0
 22 19  1  0  0  0  0
 23 21  1  0  0  0  0
 24 22  1  0  0  0  0
 14 15  1  0  0  0  0
  2  7  1  0  0  0  0
 19 13  2  0  0  0  0
  2  3  2  0  0  0  0
M  END
> <IDNUMBER>
F6477-5319

> <Chemical_Name>
1-({2-[(2,4-dimethoxyphenyl)amino]-1,3-thiazol-4-yl}methyl)pyrrolidine-2,5-dione hydrochloride

> <CAS>
2034556-57-3

> <PriceCoeff>
1.50

> <MW>
347.39

> <Description>
oil

> <FSP3>
0.31

> <clogP>
1.76

> <TPSA>
109.00

> <Acceptor>
6

> <Donor>
1

> <RotBonds>
6

> <HAC>
24

> <Collection>
Advanced

$$$$
F6471-5845
  -ISIS-  06222321462D

 22 24  0  0  0  0  0  0  0  0999 V2000
   -3.7458    3.6958    0.0000 C   0  0  0  0  0  0  0  0  0  0  0  0
   -0.1583    4.7542    0.0000 N   0  0  0  0  0  0  0  0  0  0  0  0
   -0.8458    5.2208    0.0000 N   0  0  3  0  0  0  0  0  0  0  0  0
   -3.0333    4.1042    0.0000 N   0  0  3  0  0  0  0  0  0  0  0  0
    0.4917    5.2667    0.0000 N   0  0  0  0  0  0  0  0  0  0  0  0
   -4.4583    4.1042    0.0000 N   0  0  0  0  0  0  0  0  0  0  0  0
   -0.6083    6.0167    0.0000 C   0  0  0  0  0  0  0  0  0  0  0  0
    0.2250    6.0458    0.0000 C   0  0  0  0  0  0  0  0  0  0  0  0
   -6.5917    3.7083    0.0000 C   0  0  0  0  0  0  0  0  0  0  0  0
   -5.8917    4.1083    0.0000 C   0  0  0  0  0  0  0  0  0  0  0  0
   -1.6208    4.9167    0.0000 C   0  0  3  0  0  0  0  0  0  0  0  0
   -5.1708    3.7042    0.0000 C   0  0  0  0  0  0  0  0  0  0  0  0
   -1.6208    4.0917    0.0000 C   0  0  0  0  0  0  0  0  0  0  0  0
   -2.3208    5.3292    0.0000 C   0  0  0  0  0  0  0  0  0  0  0  0
   -2.3208    3.6958    0.0000 C   0  0  0  0  0  0  0  0  0  0  0  0
   -3.0333    4.9208    0.0000 C   0  0  0  0  0  0  0  0  0  0  0  0
   -3.7458    2.8833    0.0000 O   0  0  0  0  0  0  0  0  0  0  0  0
   -6.5917    2.8833    0.0000 C   0  0  0  0  0  0  0  0  0  0  0  0
   -5.8958    2.4625    0.0000 C   0  0  0  0  0  0  0  0  0  0  0  0
   -7.3042    4.1167    0.0000 Cl  0  0  0  0  0  0  0  0  0  0  0  0
   -5.1708    2.8750    0.0000 C   0  0  0  0  0  0  0  0  0  0  0  0
   -7.3167    2.4708    0.0000 Cl  0  0  0  0  0  0  0  0  0  0  0  0
  2  3  1  0  0  0  0
  3 11  1  0  0  0  0
  4  1  1  0  0  0  0
  5  2  2  0  0  0  0
  6  1  1  0  0  0  0
  7  3  1  0  0  0  0
  8  7  2  0  0  0  0
  9 10  1  0  0  0  0
 10 12  2  0  0  0  0
 11 14  1  0  0  0  0
 12  6  1  0  0  0  0
 13 15  1  0  0  0  0
 14 16  1  0  0  0  0
 15  4  1  0  0  0  0
 16  4  1  0  0  0  0
 17  1  2  0  0  0  0
 18 19  1  0  0  0  0
 19 21  2  0  0  0  0
 20  9  1  0  0  0  0
 21 12  1  0  0  0  0
 22 18  1  0  0  0  0
 13 11  1  0  0  0  0
  9 18  2  0  0  0  0
  8  5  1  0  0  0  0
M  END
> <IDNUMBER>
F6471-5845

> <Chemical_Name>
N-(3,4-dichlorophenyl)-4-(1H-1,2,3-triazol-1-yl)piperidine-1-carboxamide

> <CAS>
1795084-58-0

> <PriceCoeff>
1.50

> <MW>
340.21

> <Description>
solid

> <FSP3>
0.36

> <clogP>
1.71

> <TPSA>
63.05

> <Acceptor>
3

> <Donor>
1

> <RotBonds>
3

> <HAC>
22

> <Collection>
Advanced

$$$$
F6473-3901
  -ISIS-  06222321462D

 22 24  0  0  0  0  0  0  0  0999 V2000
   -3.7458    3.6958    0.0000 S   0  0  3  0  0  0  0  0  0  0  0  0
   -3.0333    4.1042    0.0000 N   0  0  3  0  0  0  0  0  0  0  0  0
   -1.3083    5.1042    0.0000 N   0  0  3  0  0  0  0  0  0  0  0  0
   -2.0333    4.6875    0.0000 C   0  0  3  0  0  0  0  0  0  0  0  0
   -2.2458    3.8958    0.0000 C   0  0  0  0  0  0  0  0  0  0  0  0
   -2.8208    4.9000    0.0000 C   0  0  0  0  0  0  0  0  0  0  0  0
   -4.4583    3.2917    0.0000 C   0  0  0  0  0  0  0  0  0  0  0  0
   -0.5583    4.7667    0.0000 C   0  0  0  0  0  0  0  0  0  0  0  0
   -1.2250    5.9167    0.0000 C   0  0  0  0  0  0  0  0  0  0  0  0
   -3.3458    2.9833    0.0000 O   0  0  0  0  0  0  0  0  0  0  0  0
   -4.1542    4.4042    0.0000 O   0  0  0  0  0  0  0  0  0  0  0  0
   -5.1708    3.7083    0.0000 C   0  0  0  0  0  0  0  0  0  0  0  0
   -5.8958    3.2958    0.0000 C   0  0  0  0  0  0  0  0  0  0  0  0
   -0.4208    6.0917    0.0000 C   0  0  0  0  0  0  0  0  0  0  0  0
   -0.0083    5.3792    0.0000 C   0  0  0  0  0  0  0  0  0  0  0  0
   -1.8417    6.4708    0.0000 O   0  0  0  0  0  0  0  0  0  0  0  0
   -0.3875    3.9625    0.0000 O   0  0  0  0  0  0  0  0  0  0  0  0
   -4.4708    2.4708    0.0000 C   0  0  0  0  0  0  0  0  0  0  0  0
   -5.8958    2.4708    0.0000 C   0  0  0  0  0  0  0  0  0  0  0  0
   -5.1958    2.0583    0.0000 C   0  0  0  0  0  0  0  0  0  0  0  0
   -6.6042    3.7208    0.0000 C   0  0  0  0  0  0  0  0  0  0  0  0
   -6.6042    2.0708    0.0000 C   0  0  0  0  0  0  0  0  0  0  0  0
  2  1  1  0  0  0  0
  3  4  1  0  0  0  0
  4  6  1  0  0  0  0
  5  2  1  0  0  0  0
  6  2  1  0  0  0  0
  7  1  1  0  0  0  0
  8  3  1  0  0  0  0
  9  3  1  0  0  0  0
 10  1  2  0  0  0  0
 11  1  2  0  0  0  0
 12  7  2  0  0  0  0
 13 12  1  0  0  0  0
 14  9  1  0  0  0  0
 15  8  1  0  0  0  0
 16  9  2  0  0  0  0
 17  8  2  0  0  0  0
 18  7  1  0  0  0  0
 19 20  1  0  0  0  0
 20 18  2  0  0  0  0
 21 13  1  0  0  0  0
 22 19  1  0  0  0  0
  4  5  1  0  0  0  0
 19 13  2  0  0  0  0
 14 15  1  0  0  0  0
M  END
> <IDNUMBER>
F6473-3901

> <Chemical_Name>
1-[1-(3,4-dimethylbenzenesulfonyl)azetidin-3-yl]pyrrolidine-2,5-dione

> <CAS>
1795446-38-6

> <PriceCoeff>
1.50

> <MW>
322.38

> <Description>
solid

> <FSP3>
0.47

> <clogP>
1.71

> <TPSA>
83.14

> <Acceptor>
4

> <Donor>
0

> <RotBonds>
3

> <HAC>
22

> <Collection>
Advanced

$$$$
F9995-1658
  -ISIS-  06222321162D

  9  9  0  0  0  0  0  0  0  0999 V2000
    4.7125   -4.5792    0.0000 C   0  0  0  0  0  0  0  0  0  0  0  0
    4.7125   -6.2375    0.0000 C   0  0  0  0  0  0  0  0  0  0  0  0
    5.4292   -4.9917    0.0000 C   0  0  0  0  0  0  0  0  0  0  0  0
    4.0000   -5.0000    0.0000 C   0  0  0  0  0  0  0  0  0  0  0  0
    4.0000   -5.8250    0.0000 C   0  0  0  0  0  0  0  0  0  0  0  0
    5.4292   -5.8250    0.0000 C   0  0  0  0  0  0  0  0  0  0  0  0
    4.7042   -3.7542    0.0000 O   0  0  0  0  0  0  0  0  0  0  0  0
    4.7125   -7.0625    0.0000 O   0  0  0  0  0  0  0  0  0  0  0  0
    4.0000   -7.4750    0.0000 C   0  0  0  0  0  0  0  0  0  0  0  0
  2  5  1  0  0  0  0
  3  1  2  0  0  0  0
  4  1  1  0  0  0  0
  5  4  2  0  0  0  0
  6  3  1  0  0  0  0
  7  1  1  0  0  0  0
  8  2  1  0  0  0  0
  9  8  1  0  0  0  0
  6  2  2  0  0  0  0
M  END
> <IDNUMBER>
F9995-1658

> <Chemical_Name>
4-methoxyphenol

> <CAS>
150-76-5

> <PriceCoeff>
1.00

> <MW>
124.14

> <Description>
solid

> <FSP3>
0.14

> <clogP>
1.57

> <TPSA>
29.46

> <Acceptor>
2

> <Donor>
1

> <RotBonds>
1

> <HAC>
9

> <Collection>
General

> <Reference_compound>
CHEMBL1668604

> <Similarity>
0.9740

$$$$
F0886-0008
  -ISIS-  06222321452D

 21 23  0  0  0  0  0  0  0  0999 V2000
   -0.2208    0.3958    0.0000 C   0  0  0  0  0  0  0  0  0  0  0  0
    0.0792    0.9375    0.0000 C   0  0  0  0  0  0  0  0  0  0  0  0
   -0.8583    0.3833    0.0000 N   0  0  3  0  0  0  0  0  0  0  0  0
   -0.8708    1.4333    0.0000 N   0  0  3  0  0  0  0  0  0  0  0  0
   -1.1875    0.8833    0.0000 C   0  0  0  0  0  0  0  0  0  0  0  0
   -0.2583    1.4583    0.0000 C   0  0  0  0  0  0  0  0  0  0  0  0
    0.2125   -0.0417    0.0000 N   0  0  0  0  0  0  0  0  0  0  0  0
    0.6750    0.8333    0.0000 N   0  0  3  0  0  0  0  0  0  0  0  0
    0.7917    0.2333    0.0000 C   0  0  0  0  0  0  0  0  0  0  0  0
   -1.8125    0.8708    0.0000 O   0  0  0  0  0  0  0  0  0  0  0  0
    0.0292    1.9958    0.0000 O   0  0  0  0  0  0  0  0  0  0  0  0
    2.1042    1.5250    0.0000 N   0  0  3  0  0  0  0  0  0  0  0  0
    1.1000    1.2583    0.0000 C   0  0  0  0  0  0  0  0  0  0  0  0
   -1.1458   -0.1542    0.0000 C   0  0  0  0  0  0  0  0  0  0  0  0
   -1.1833    1.9833    0.0000 C   0  0  0  0  0  0  0  0  0  0  0  0
    2.9542    2.3750    0.0000 O   0  0  0  0  0  0  0  0  0  0  0  0
    1.6792    1.1000    0.0000 C   0  0  0  0  0  0  0  0  0  0  0  0
    1.9500    2.1083    0.0000 C   0  0  0  0  0  0  0  0  0  0  0  0
    2.6875    1.3708    0.0000 C   0  0  0  0  0  0  0  0  0  0  0  0
    3.1125    1.7958    0.0000 C   0  0  0  0  0  0  0  0  0  0  0  0
    2.3792    2.5333    0.0000 C   0  0  0  0  0  0  0  0  0  0  0  0
  2  1  2  0  0  0  0
  3  1  1  0  0  0  0
  4  5  1  0  0  0  0
  5  3  1  0  0  0  0
  6  2  1  0  0  0  0
  7  1  1  0  0  0  0
  8  2  1  0  0  0  0
  9  7  2  0  0  0  0
 10  5  2  0  0  0  0
 11  6  2  0  0  0  0
 12 17  1  0  0  0  0
 13  8  1  0  0  0  0
 14  3  1  0  0  0  0
 15  4  1  0  0  0  0
 16 20  1  0  0  0  0
 17 13  1  0  0  0  0
 18 12  1  0  0  0  0
 19 12  1  0  0  0  0
 20 19  1  0  0  0  0
 21 18  1  0  0  0  0
  9  8  1  0  0  0  0
  4  6  1  0  0  0  0
 16 21  1  0  0  0  0
M  END
> <IDNUMBER>
F0886-0008

> <Chemical_Name>
1,3-dimethyl-7-[2-(morpholin-4-yl)ethyl]-2,3,6,7-tetrahydro-1H-purine-2,6-dione

> <CAS>
85745-76-2

> <PriceCoeff>
1.50

> <MW>
293.32

> <Description>
solid

> <FSP3>
0.62

> <clogP>
-0.07

> <TPSA>
70.91

> <Acceptor>
4

> <Donor>
2

> <RotBonds>
3

> <HAC>
21

> <Collection>
Advanced

> <Reference_compound>
CHEMBL113

> <Similarity>
0.8510

$$$$
F0886-0010
  -ISIS-  06222321452D

 20 22  0  0  0  0  0  0  0  0999 V2000
   -0.2208    0.3958    0.0000 C   0  0  0  0  0  0  0  0  0  0  0  0
    0.0792    0.9375    0.0000 C   0  0  0  0  0  0  0  0  0  0  0  0
   -0.8583    0.3833    0.0000 N   0  0  3  0  0  0  0  0  0  0  0  0
   -1.1875    0.8833    0.0000 C   0  0  0  0  0  0  0  0  0  0  0  0
   -0.8708    1.4333    0.0000 N   0  0  0  0  0  0  0  0  0  0  0  0
    0.2125   -0.0417    0.0000 N   0  0  0  0  0  0  0  0  0  0  0  0
   -0.2583    1.4583    0.0000 C   0  0  0  0  0  0  0  0  0  0  0  0
    0.6750    0.8333    0.0000 N   0  0  3  0  0  0  0  0  0  0  0  0
    0.7917    0.2333    0.0000 C   0  0  0  0  0  0  0  0  0  0  0  0
    2.1042    1.5250    0.0000 N   0  0  3  0  0  0  0  0  0  0  0  0
   -1.8125    0.8708    0.0000 O   0  0  0  0  0  0  0  0  0  0  0  0
    0.0292    1.9958    0.0000 O   0  0  0  0  0  0  0  0  0  0  0  0
    1.1000    1.2583    0.0000 C   0  0  0  0  0  0  0  0  0  0  0  0
   -1.1458   -0.1542    0.0000 C   0  0  0  0  0  0  0  0  0  0  0  0
    1.6792    1.1000    0.0000 C   0  0  0  0  0  0  0  0  0  0  0  0
    2.6875    1.3708    0.0000 C   0  0  0  0  0  0  0  0  0  0  0  0
    1.9500    2.1083    0.0000 C   0  0  0  0  0  0  0  0  0  0  0  0
    2.3792    2.5333    0.0000 C   0  0  0  0  0  0  0  0  0  0  0  0
    3.1125    1.7958    0.0000 C   0  0  0  0  0  0  0  0  0  0  0  0
    2.9542    2.3750    0.0000 C   0  0  0  0  0  0  0  0  0  0  0  0
  2  1  2  0  0  0  0
  3  1  1  0  0  0  0
  4  3  1  0  0  0  0
  5  4  1  0  0  0  0
  6  1  1  0  0  0  0
  7  2  1  0  0  0  0
  8  2  1  0  0  0  0
  9  6  2  0  0  0  0
 10 15  1  0  0  0  0
 11  4  2  0  0  0  0
 12  7  2  0  0  0  0
 13  8  1  0  0  0  0
 14  3  1  0  0  0  0
 15 13  1  0  0  0  0
 16 10  1  0  0  0  0
 17 10  1  0  0  0  0
 18 17  1  0  0  0  0
 19 16  1  0  0  0  0
 20 18  1  0  0  0  0
  9  8  1  0  0  0  0
  5  7  1  0  0  0  0
 20 19  1  0  0  0  0
M  END
> <IDNUMBER>
F0886-0010

> <Chemical_Name>
3-methyl-7-[2-(piperidin-1-yl)ethyl]-2,3,6,7-tetrahydro-1H-purine-2,6-dione

> <CAS>
335403-11-7

> <PriceCoeff>
1.50

> <MW>
277.32

> <Description>
solid

> <FSP3>
0.62

> <clogP>
0.51

> <TPSA>
70.47

> <Acceptor>
3

> <Donor>
3

> <RotBonds>
3

> <HAC>
20

> <Collection>
Advanced

> <Reference_compound>
CHEMBL113

> <Similarity>
0.8390

$$$$
F3260-0380
  -ISIS-  06222321462D

 20 21  0  0  0  0  0  0  0  0999 V2000
    3.6292    2.1000    0.0000 C   0  0  0  0  0  0  0  0  0  0  0  0
    3.6292    3.5000    0.0000 C   0  0  0  0  0  0  0  0  0  0  0  0
    4.9667    1.6708    0.0000 N   0  0  0  0  0  0  0  0  0  0  0  0
    2.4167    1.4000    0.0000 N   0  0  3  0  0  0  0  0  0  0  0  0
    1.2042    3.5000    0.0000 N   0  0  3  0  0  0  0  0  0  0  0  0
    1.2042    2.1000    0.0000 C   0  0  0  0  0  0  0  0  0  0  0  0
    2.4167    4.2000    0.0000 C   0  0  0  0  0  0  0  0  0  0  0  0
    5.7917    2.8000    0.0000 C   0  0  0  0  0  0  0  0  0  0  0  0
    4.9667    3.9333    0.0000 N   0  0  3  0  0  0  0  0  0  0  0  0
    0.2167    1.1125    0.0000 O   0  0  0  0  0  0  0  0  0  0  0  0
    2.4167    5.5917    0.0000 O   0  0  0  0  0  0  0  0  0  0  0  0
    7.1917    2.8000    0.0000 N   0  0  0  0  0  0  0  0  0  0  0  0
    2.4167   -0.0000    0.0000 C   0  0  0  0  0  0  0  0  0  0  0  0
    0.0000    4.2000    0.0000 C   0  0  0  0  0  0  0  0  0  0  0  0
    5.4000    5.2625    0.0000 C   0  0  0  0  0  0  0  0  0  0  0  0
    7.8917    1.5958    0.0000 C   0  0  0  0  0  0  0  0  0  0  0  0
    6.7667    5.5542    0.0000 C   0  0  0  0  0  0  0  0  0  0  0  0
    9.2917    1.5958    0.0000 C   0  0  0  0  0  0  0  0  0  0  0  0
    9.9917    0.3833    0.0000 C   0  0  0  0  0  0  0  0  0  0  0  0
   11.3917    0.3833    0.0000 C   0  0  0  0  0  0  0  0  0  0  0  0
  2  1  2  0  0  0  0
  3  1  1  0  0  0  0
  4  1  1  0  0  0  0
  5  6  1  0  0  0  0
  6  4  1  0  0  0  0
  7  2  1  0  0  0  0
  8  3  2  0  0  0  0
  9  2  1  0  0  0  0
 10  6  2  0  0  0  0
 11  7  2  0  0  0  0
 12  8  1  0  0  0  0
 13  4  1  0  0  0  0
 14  5  1  0  0  0  0
 15  9  1  0  0  0  0
 16 12  1  0  0  0  0
 17 15  1  0  0  0  0
 18 16  1  0  0  0  0
 19 18  1  0  0  0  0
 20 19  1  0  0  0  0
  8  9  1  0  0  0  0
  7  5  1  0  0  0  0
M  END
> <IDNUMBER>
F3260-0380

> <Chemical_Name>
8-(butylamino)-7-ethyl-1,3-dimethyl-2,3,6,7-tetrahydro-1H-purine-2,6-dione

> <CAS>
681839-34-9

> <PriceCoeff>
1.00

> <MW>
279.34

> <Description>
solid

> <FSP3>
0.62

> <clogP>
2.63

> <TPSA>
70.47

> <Acceptor>
3

> <Donor>
2

> <RotBonds>
5

> <HAC>
20

> <Collection>
General

> <Reference_compound>
CHEMBL113

> <Similarity>
0.8060

$$$$
F0001-0533
  -ISIS-  06222321142D

  9  9  0  0  0  0  0  0  0  0999 V2000
    3.3042    1.1083    0.0000 C   0  0  0  0  0  0  0  0  0  0  0  0
    4.0167    0.6958    0.0000 C   0  0  0  0  0  0  0  0  0  0  0  0
    2.5917    0.6875    0.0000 C   0  0  0  0  0  0  0  0  0  0  0  0
    4.7292    1.1083    0.0000 O   0  0  0  0  0  0  0  0  0  0  0  0
    1.8792    1.1000    0.0000 O   0  0  0  0  0  0  0  0  0  0  0  0
    3.3042   -0.5500    0.0000 C   0  0  0  0  0  0  0  0  0  0  0  0
    4.0167   -0.1375    0.0000 C   0  0  0  0  0  0  0  0  0  0  0  0
    2.5917   -0.1375    0.0000 C   0  0  0  0  0  0  0  0  0  0  0  0
    1.1625    0.6875    0.0000 C   0  0  0  0  0  0  0  0  0  0  0  0
  2  1  2  0  0  0  0
  3  1  1  0  0  0  0
  4  2  1  0  0  0  0
  5  3  1  0  0  0  0
  6  8  1  0  0  0  0
  7  2  1  0  0  0  0
  8  3  2  0  0  0  0
  9  5  1  0  0  0  0
  6  7  2  0  0  0  0
M  END
> <IDNUMBER>
F0001-0533

> <Chemical_Name>
3-methoxyphenol

> <CAS>
150-19-6

> <PriceCoeff>
1.00

> <MW>
124.14

> <Description>
liquid

> <FSP3>
0.14

> <clogP>
1.57

> <TPSA>
29.46

> <Acceptor>
2

> <Donor>
1

> <RotBonds>
1

> <HAC>
9

> <Collection>
General

> <Reference_compound>
CHEMBL1668604

> <Similarity>
0.8810

$$$$
F0634-0010
  -ISIS-  06222321442D

 22 24  0  0  0  0  0  0  0  0999 V2000
   -2.4208    1.7375    0.0000 C   0  0  0  0  0  0  0  0  0  0  0  0
   -2.4250    2.5583    0.0000 C   0  0  0  0  0  0  0  0  0  0  0  0
   -3.1375    1.3250    0.0000 N   0  0  3  0  0  0  0  0  0  0  0  0
   -3.8458    2.5583    0.0000 N   0  0  3  0  0  0  0  0  0  0  0  0
   -3.8458    1.7333    0.0000 C   0  0  0  0  0  0  0  0  0  0  0  0
   -3.1375    2.9833    0.0000 C   0  0  0  0  0  0  0  0  0  0  0  0
   -1.6375    1.4875    0.0000 N   0  0  0  0  0  0  0  0  0  0  0  0
   -1.1583    2.1583    0.0000 C   0  0  0  0  0  0  0  0  0  0  0  0
   -1.6458    2.8208    0.0000 N   0  0  3  0  0  0  0  0  0  0  0  0
   -0.3333    2.1625    0.0000 C   0  0  0  0  0  0  0  0  0  0  0  0
    0.0792    1.4583    0.0000 N   0  0  3  0  0  0  0  0  0  0  0  0
   -4.5625    1.3208    0.0000 O   0  0  0  0  0  0  0  0  0  0  0  0
   -3.1375    3.8000    0.0000 O   0  0  0  0  0  0  0  0  0  0  0  0
   -3.1375    0.5000    0.0000 C   0  0  0  0  0  0  0  0  0  0  0  0
   -4.5625    2.9708    0.0000 C   0  0  0  0  0  0  0  0  0  0  0  0
    0.9167    0.0250    0.0000 O   0  0  0  0  0  0  0  0  0  0  0  0
   -1.3958    3.6083    0.0000 C   0  0  0  0  0  0  0  0  0  0  0  0
   -0.3333    0.7375    0.0000 C   0  0  0  0  0  0  0  0  0  0  0  0
    0.9000    1.4583    0.0000 C   0  0  0  0  0  0  0  0  0  0  0  0
    0.0875    0.0250    0.0000 C   0  0  0  0  0  0  0  0  0  0  0  0
    1.3167    0.7500    0.0000 C   0  0  0  0  0  0  0  0  0  0  0  0
   -1.9500    4.2042    0.0000 C   0  0  0  0  0  0  0  0  0  0  0  0
  2  1  2  0  0  0  0
  3  1  1  0  0  0  0
  4  5  1  0  0  0  0
  5  3  1  0  0  0  0
  6  2  1  0  0  0  0
  7  1  1  0  0  0  0
  8  7  2  0  0  0  0
  9  2  1  0  0  0  0
 10  8  1  0  0  0  0
 11 10  1  0  0  0  0
 12  5  2  0  0  0  0
 13  6  2  0  0  0  0
 14  3  1  0  0  0  0
 15  4  1  0  0  0  0
 16 21  1  0  0  0  0
 17  9  1  0  0  0  0
 18 11  1  0  0  0  0
 19 11  1  0  0  0  0
 20 18  1  0  0  0  0
 21 19  1  0  0  0  0
 22 17  1  0  0  0  0
  9  8  1  0  0  0  0
  6  4  1  0  0  0  0
 16 20  1  0  0  0  0
M  END
> <IDNUMBER>
F0634-0010

> <Chemical_Name>
7-ethyl-1,3-dimethyl-8-[(morpholin-4-yl)methyl]-2,3,6,7-tetrahydro-1H-purine-2,6-dione

> <CAS>
838876-89-4

> <PriceCoeff>
1.50

> <MW>
307.35

> <Description>
solid

> <FSP3>
0.64

> <clogP>
0.24

> <TPSA>
30.68

> <Acceptor>
4

> <Donor>
2

> <RotBonds>
3

> <HAC>
22

> <Collection>
Advanced

> <Reference_compound>
CHEMBL113

> <Similarity>
0.8010

$$$$
F2173-0425
  -ISIS-  06222321442D

  9  9  0  0  0  0  0  0  0  0999 V2000
    3.7500    3.3583    0.0000 C   0  0  0  0  0  0  0  0  0  0  0  0
    3.0000    2.0500    0.0000 C   0  0  0  0  0  0  0  0  0  0  0  0
    3.0000    4.6417    0.0000 O   0  0  0  0  0  0  0  0  0  0  0  0
    1.5000    2.0500    0.0000 O   0  0  0  0  0  0  0  0  0  0  0  0
    5.2500    3.3583    0.0000 C   0  0  0  0  0  0  0  0  0  0  0  0
    3.7500    0.7500    0.0000 C   0  0  0  0  0  0  0  0  0  0  0  0
    0.7500    0.7500    0.0000 C   0  0  0  0  0  0  0  0  0  0  0  0
    5.2500    0.7500    0.0000 C   0  0  0  0  0  0  0  0  0  0  0  0
    6.0000    2.0500    0.0000 C   0  0  0  0  0  0  0  0  0  0  0  0
  2  1  2  0  0  0  0
  3  1  1  0  0  0  0
  4  2  1  0  0  0  0
  5  1  1  0  0  0  0
  6  2  1  0  0  0  0
  7  4  1  0  0  0  0
  8  9  1  0  0  0  0
  9  5  2  0  0  0  0
  8  6  2  0  0  0  0
M  END
> <IDNUMBER>
F2173-0425

> <Chemical_Name>
2-methoxyphenol

> <CAS>
90-05-1

> <PriceCoeff>
1.00

> <MW>
124.14

> <Description>
liquid

> <FSP3>
0.14

> <clogP>
1.32

> <TPSA>
29.46

> <Acceptor>
2

> <Donor>
1

> <RotBonds>
1

> <HAC>
9

> <Collection>
General

> <Reference_compound>
CHEMBL1668604

> <Similarity>
0.8040

$$$$
F0886-0007
  -ISIS-  06222321452D

 20 22  0  0  0  0  0  0  0  0999 V2000
   -0.0083    1.2833    0.0000 C   0  0  0  0  0  0  0  0  0  0  0  0
    0.2875    1.8208    0.0000 C   0  0  0  0  0  0  0  0  0  0  0  0
   -0.6458    1.2708    0.0000 N   0  0  3  0  0  0  0  0  0  0  0  0
   -0.9833    1.7708    0.0000 C   0  0  0  0  0  0  0  0  0  0  0  0
   -0.6583    2.3125    0.0000 N   0  0  0  0  0  0  0  0  0  0  0  0
    0.4167    0.8375    0.0000 N   0  0  0  0  0  0  0  0  0  0  0  0
   -0.0458    2.3375    0.0000 C   0  0  0  0  0  0  0  0  0  0  0  0
    0.8792    1.7125    0.0000 N   0  0  3  0  0  0  0  0  0  0  0  0
    1.0042    1.1125    0.0000 C   0  0  0  0  0  0  0  0  0  0  0  0
    2.3167    2.4083    0.0000 N   0  0  3  0  0  0  0  0  0  0  0  0
   -1.6083    1.7583    0.0000 O   0  0  0  0  0  0  0  0  0  0  0  0
    0.2417    2.8833    0.0000 O   0  0  0  0  0  0  0  0  0  0  0  0
    1.3042    2.1458    0.0000 C   0  0  0  0  0  0  0  0  0  0  0  0
   -0.9375    0.7333    0.0000 C   0  0  0  0  0  0  0  0  0  0  0  0
    3.1667    3.2583    0.0000 O   0  0  0  0  0  0  0  0  0  0  0  0
    1.8917    1.9833    0.0000 C   0  0  0  0  0  0  0  0  0  0  0  0
    2.8917    2.2583    0.0000 C   0  0  0  0  0  0  0  0  0  0  0  0
    2.1542    2.9958    0.0000 C   0  0  0  0  0  0  0  0  0  0  0  0
    2.5875    3.4208    0.0000 C   0  0  0  0  0  0  0  0  0  0  0  0
    3.3167    2.6750    0.0000 C   0  0  0  0  0  0  0  0  0  0  0  0
  2  1  2  0  0  0  0
  3  1  1  0  0  0  0
  4  3  1  0  0  0  0
  5  4  1  0  0  0  0
  6  1  1  0  0  0  0
  7  2  1  0  0  0  0
  8  2  1  0  0  0  0
  9  6  2  0  0  0  0
 10 16  1  0  0  0  0
 11  4  2  0  0  0  0
 12  7  2  0  0  0  0
 13  8  1  0  0  0  0
 14  3  1  0  0  0  0
 15 19  1  0  0  0  0
 16 13  1  0  0  0  0
 17 10  1  0  0  0  0
 18 10  1  0  0  0  0
 19 18  1  0  0  0  0
 20 17  1  0  0  0  0
  9  8  1  0  0  0  0
  5  7  1  0  0  0  0
 15 20  1  0  0  0  0
M  END
> <IDNUMBER>
F0886-0007

> <Chemical_Name>
3-methyl-7-[2-(morpholin-4-yl)ethyl]-2,3,6,7-tetrahydro-1H-purine-2,6-dione

> <CAS>
354795-11-2

> <PriceCoeff>
1.50

> <MW>
279.30

> <Description>
solid

> <FSP3>
0.58

> <clogP>
-0.71

> <TPSA>
79.70

> <Acceptor>
4

> <Donor>
3

> <RotBonds>
3

> <HAC>
20

> <Collection>
Advanced

> <Reference_compound>
CHEMBL113

> <Similarity>
0.8300

$$$$
F5577-0091
  -ISIS-  06222321462D

 24 26  0  0  0  0  0  0  0  0999 V2000
   -1.0083    2.5583    0.0000 C   0  0  0  0  0  0  0  0  0  0  0  0
   -2.4333    2.5583    0.0000 C   0  0  0  0  0  0  0  0  0  0  0  0
   -1.7208    2.9833    0.0000 C   0  0  0  0  0  0  0  0  0  0  0  0
   -2.4375    1.7333    0.0000 C   0  0  0  0  0  0  0  0  0  0  0  0
   -1.0083    1.7333    0.0000 C   0  0  0  0  0  0  0  0  0  0  0  0
   -1.7208    1.3208    0.0000 N   0  0  3  0  0  0  0  0  0  0  0  0
   -3.1500    1.3208    0.0000 C   0  0  0  0  0  0  0  0  0  0  0  0
   -3.8625    1.7333    0.0000 C   0  0  0  0  0  0  0  0  0  0  0  0
   -3.1500    2.9708    0.0000 C   0  0  0  0  0  0  0  0  0  0  0  0
   -4.5833    1.3208    0.0000 N   0  0  3  0  0  0  0  0  0  0  0  0
   -0.2875    2.9708    0.0000 C   0  0  0  0  0  0  0  0  0  0  0  0
   -3.8625    2.5583    0.0000 C   0  0  0  0  0  0  0  0  0  0  0  0
   -6.0125    0.4958    0.0000 N   0  0  3  0  0  0  0  0  0  0  0  0
   -1.7208    3.8000    0.0000 O   0  0  0  0  0  0  0  0  0  0  0  0
   -5.2958    1.7333    0.0000 C   0  0  0  0  0  0  0  0  0  0  0  0
   -4.5833    0.4958    0.0000 C   0  0  0  0  0  0  0  0  0  0  0  0
   -0.2875    3.7958    0.0000 O   0  0  0  0  0  0  0  0  0  0  0  0
   -6.0000    1.3208    0.0000 C   0  0  0  0  0  0  0  0  0  0  0  0
   -5.2958    0.0833    0.0000 C   0  0  0  0  0  0  0  0  0  0  0  0
   -4.5833    2.9708    0.0000 F   0  0  0  0  0  0  0  0  0  0  0  0
    0.4250    2.5583    0.0000 O   0  0  0  0  0  0  0  0  0  0  0  0
   -1.7250    0.4958    0.0000 C   0  0  0  0  0  0  0  0  0  0  0  0
   -6.7292    0.0833    0.0000 C   0  0  0  0  0  0  0  0  0  0  0  0
   -1.0083    0.0833    0.0000 C   0  0  0  0  0  0  0  0  0  0  0  0
  2  3  1  0  0  0  0
  3  1  1  0  0  0  0
  4  6  1  0  0  0  0
  5  1  2  0  0  0  0
  6  5  1  0  0  0  0
  7  4  2  0  0  0  0
  8  7  1  0  0  0  0
  9  2  2  0  0  0  0
 10  8  1  0  0  0  0
 11  1  1  0  0  0  0
 12  9  1  0  0  0  0
 13 19  1  0  0  0  0
 14  3  2  0  0  0  0
 15 10  1  0  0  0  0
 16 10  1  0  0  0  0
 17 11  2  0  0  0  0
 18 15  1  0  0  0  0
 19 16  1  0  0  0  0
 20 12  1  0  0  0  0
 21 11  1  0  0  0  0
 22  6  1  0  0  0  0
 23 13  1  0  0  0  0
 24 22  1  0  0  0  0
  4  2  1  0  0  0  0
  8 12  2  0  0  0  0
 13 18  1  0  0  0  0
M  END
> <IDNUMBER>
F5577-0091

> <Chemical_Name>
1-ethyl-6-fluoro-7-(4-methylpiperazin-1-yl)-4-oxo-1,4-dihydroquinoline-3-carboxylic acid

> <CAS>
70458-92-3

> <PriceCoeff>
1.50

> <MW>
333.36

> <Description>
solid

> <FSP3>
0.41

> <clogP>
-0.32

> <TPSA>
64.09

> <Acceptor>
5

> <Donor>
3

> <RotBonds>
3

> <HAC>
24

> <Collection>
Advanced

> <Reference_compound>
CHEMBL8

> <Similarity>
0.9190

$$$$
F6473-3909
  -ISIS-  06222321462D

 22 24  0  0  0  0  0  0  0  0999 V2000
   -3.7458    3.6958    0.0000 S   0  0  3  0  0  0  0  0  0  0  0  0
   -3.0333    4.1042    0.0000 N   0  0  3  0  0  0  0  0  0  0  0  0
   -1.3083    5.1042    0.0000 N   0  0  3  0  0  0  0  0  0  0  0  0
   -2.0333    4.6875    0.0000 C   0  0  3  0  0  0  0  0  0  0  0  0
   -4.4583    3.2917    0.0000 C   0  0  0  0  0  0  0  0  0  0  0  0
   -2.8208    4.9000    0.0000 C   0  0  0  0  0  0  0  0  0  0  0  0
   -2.2458    3.8958    0.0000 C   0  0  0  0  0  0  0  0  0  0  0  0
   -0.5583    4.7667    0.0000 C   0  0  0  0  0  0  0  0  0  0  0  0
   -1.2250    5.9167    0.0000 C   0  0  0  0  0  0  0  0  0  0  0  0
   -5.1708    3.7083    0.0000 C   0  0  0  0  0  0  0  0  0  0  0  0
   -3.3458    2.9833    0.0000 O   0  0  0  0  0  0  0  0  0  0  0  0
   -4.1583    4.4083    0.0000 O   0  0  0  0  0  0  0  0  0  0  0  0
   -4.4667    2.4625    0.0000 C   0  0  0  0  0  0  0  0  0  0  0  0
   -0.4208    6.0917    0.0000 C   0  0  0  0  0  0  0  0  0  0  0  0
   -0.0083    5.3792    0.0000 C   0  0  0  0  0  0  0  0  0  0  0  0
   -5.8833    3.2917    0.0000 C   0  0  0  0  0  0  0  0  0  0  0  0
   -0.3875    3.9625    0.0000 O   0  0  0  0  0  0  0  0  0  0  0  0
   -1.8417    6.4708    0.0000 O   0  0  0  0  0  0  0  0  0  0  0  0
   -5.8833    2.4625    0.0000 C   0  0  0  0  0  0  0  0  0  0  0  0
   -5.1625    2.0583    0.0000 C   0  0  0  0  0  0  0  0  0  0  0  0
   -6.5917    2.0583    0.0000 F   0  0  0  0  0  0  0  0  0  0  0  0
   -5.1708    4.5250    0.0000 C   0  0  0  0  0  0  0  0  0  0  0  0
  2  1  1  0  0  0  0
  3  4  1  0  0  0  0
  4  7  1  0  0  0  0
  5  1  1  0  0  0  0
  6  2  1  0  0  0  0
  7  2  1  0  0  0  0
  8  3  1  0  0  0  0
  9  3  1  0  0  0  0
 10  5  2  0  0  0  0
 11  1  2  0  0  0  0
 12  1  2  0  0  0  0
 13  5  1  0  0  0  0
 14  9  1  0  0  0  0
 15  8  1  0  0  0  0
 16 10  1  0  0  0  0
 17  8  2  0  0  0  0
 18  9  2  0  0  0  0
 19 20  1  0  0  0  0
 20 13  2  0  0  0  0
 21 19  1  0  0  0  0
 22 10  1  0  0  0  0
  6  4  1  0  0  0  0
 16 19  2  0  0  0  0
 14 15  1  0  0  0  0
M  END
> <IDNUMBER>
F6473-3909

> <Chemical_Name>
1-[1-(4-fluoro-2-methylbenzenesulfonyl)azetidin-3-yl]pyrrolidine-2,5-dione

> <CAS>
1795300-54-7

> <PriceCoeff>
1.50

> <MW>
326.34

> <Description>
solid

> <FSP3>
0.43

> <clogP>
1.41

> <TPSA>
83.14

> <Acceptor>
4

> <Donor>
0

> <RotBonds>
3

> <HAC>
22

> <Collection>
Advanced

$$$$
F6473-3910
  -ISIS-  06222321462D

 22 24  0  0  0  0  0  0  0  0999 V2000
   -3.7458    3.6958    0.0000 S   0  0  3  0  0  0  0  0  0  0  0  0
   -3.0333    4.1042    0.0000 N   0  0  3  0  0  0  0  0  0  0  0  0
   -1.3083    5.1042    0.0000 N   0  0  3  0  0  0  0  0  0  0  0  0
   -2.0333    4.6875    0.0000 C   0  0  3  0  0  0  0  0  0  0  0  0
   -2.2458    3.8958    0.0000 C   0  0  0  0  0  0  0  0  0  0  0  0
   -2.8208    4.9000    0.0000 C   0  0  0  0  0  0  0  0  0  0  0  0
   -4.4583    3.2917    0.0000 C   0  0  0  0  0  0  0  0  0  0  0  0
   -0.5583    4.7667    0.0000 C   0  0  0  0  0  0  0  0  0  0  0  0
   -1.2250    5.9167    0.0000 C   0  0  0  0  0  0  0  0  0  0  0  0
   -3.3458    2.9833    0.0000 O   0  0  0  0  0  0  0  0  0  0  0  0
   -4.1583    4.4083    0.0000 O   0  0  0  0  0  0  0  0  0  0  0  0
   -5.1708    3.7083    0.0000 C   0  0  0  0  0  0  0  0  0  0  0  0
   -5.8917    3.2917    0.0000 C   0  0  0  0  0  0  0  0  0  0  0  0
   -5.8917    2.4625    0.0000 C   0  0  0  0  0  0  0  0  0  0  0  0
   -0.0083    5.3792    0.0000 C   0  0  0  0  0  0  0  0  0  0  0  0
   -0.4208    6.0917    0.0000 C   0  0  0  0  0  0  0  0  0  0  0  0
   -0.3875    3.9625    0.0000 O   0  0  0  0  0  0  0  0  0  0  0  0
   -1.8417    6.4708    0.0000 O   0  0  0  0  0  0  0  0  0  0  0  0
   -4.4667    2.4625    0.0000 C   0  0  0  0  0  0  0  0  0  0  0  0
   -5.1708    2.0583    0.0000 C   0  0  0  0  0  0  0  0  0  0  0  0
   -6.5958    2.0500    0.0000 F   0  0  0  0  0  0  0  0  0  0  0  0
   -6.5917    3.7042    0.0000 C   0  0  0  0  0  0  0  0  0  0  0  0
  2  1  1  0  0  0  0
  3  4  1  0  0  0  0
  4  6  1  0  0  0  0
  5  2  1  0  0  0  0
  6  2  1  0  0  0  0
  7  1  1  0  0  0  0
  8  3  1  0  0  0  0
  9  3  1  0  0  0  0
 10  1  2  0  0  0  0
 11  1  2  0  0  0  0
 12  7  2  0  0  0  0
 13 12  1  0  0  0  0
 14 20  1  0  0  0  0
 15  8  1  0  0  0  0
 16  9  1  0  0  0  0
 17  8  2  0  0  0  0
 18  9  2  0  0  0  0
 19  7  1  0  0  0  0
 20 19  2  0  0  0  0
 21 14  1  0  0  0  0
 22 13  1  0  0  0  0
  4  5  1  0  0  0  0
 13 14  2  0  0  0  0
 16 15  1  0  0  0  0
M  END
> <IDNUMBER>
F6473-3910

> <Chemical_Name>
1-[1-(4-fluoro-3-methylbenzenesulfonyl)azetidin-3-yl]pyrrolidine-2,5-dione

> <CAS>
1795085-64-1

> <PriceCoeff>
1.50

> <MW>
326.34

> <Description>
solid

> <FSP3>
0.43

> <clogP>
1.41

> <TPSA>
83.14

> <Acceptor>
4

> <Donor>
0

> <RotBonds>
3

> <HAC>
22

> <Collection>
Advanced

$$$$
F2189-0836
  -ISIS-  06222321462D

 11 11  0  0  0  0  0  0  0  0999 V2000
   -1.4500    2.4625    0.0000 C   0  0  0  0  0  0  0  0  0  0  0  0
   -2.1708    2.8750    0.0000 C   0  0  0  0  0  0  0  0  0  0  0  0
   -1.4500    1.6333    0.0000 C   0  0  0  0  0  0  0  0  0  0  0  0
   -0.7333    2.8750    0.0000 C   0  0  3  0  0  0  0  0  0  0  0  0
   -2.1708    1.2208    0.0000 C   0  0  0  0  0  0  0  0  0  0  0  0
   -2.8833    2.4625    0.0000 C   0  0  0  0  0  0  0  0  0  0  0  0
   -2.8833    1.6333    0.0000 C   0  0  0  0  0  0  0  0  0  0  0  0
    0.6917    2.8708    0.0000 N   0  0  0  0  0  0  0  0  0  0  0  0
   -0.7333    3.7042    0.0000 O   0  0  0  0  0  0  0  0  0  0  0  0
   -0.0208    2.4583    0.0000 C   0  0  0  0  0  0  0  0  0  0  0  0
   -3.5958    1.2250    0.0000 C   0  0  0  0  0  0  0  0  0  0  0  0
  2  1  2  0  0  0  0
  3  1  1  0  0  0  0
  4  1  1  0  0  0  0
  5  3  2  0  0  0  0
  6  2  1  0  0  0  0
  7  5  1  0  0  0  0
  8 10  1  0  0  0  0
  9  4  1  0  0  0  0
 10  4  1  0  0  0  0
 11  7  1  0  0  0  0
  7  6  2  0  0  0  0
M  END
> <IDNUMBER>
F2189-0836

> <Chemical_Name>
2-amino-1-(4-methylphenyl)ethan-1-ol

> <CAS>
53360-85-3

> <PriceCoeff>
1.50

> <MW>
151.21

> <Description>
solid

> <FSP3>
0.33

> <clogP>
0.77

> <TPSA>
46.25

> <Acceptor>
1

> <Donor>
2

> <RotBonds>
2

> <HAC>
11

> <Collection>
Advanced

> <Reference_compound>
CHEMBL1367565

> <Similarity>
0.8140

$$$$
F6473-3858
  -ISIS-  06222321152D

 25 27  0  0  0  0  0  0  0  0999 V2000
   -1.3083    5.1042    0.0000 N   0  0  3  0  0  0  0  0  0  0  0  0
   -3.0333    4.1042    0.0000 N   0  0  3  0  0  0  0  0  0  0  0  0
   -3.7458    3.6958    0.0000 C   0  0  0  0  0  0  0  0  0  0  0  0
   -2.0333    4.6875    0.0000 C   0  0  3  0  0  0  0  0  0  0  0  0
   -1.2250    5.9167    0.0000 C   0  0  0  0  0  0  0  0  0  0  0  0
   -0.5583    4.7667    0.0000 C   0  0  0  0  0  0  0  0  0  0  0  0
   -2.2458    3.8958    0.0000 C   0  0  0  0  0  0  0  0  0  0  0  0
   -2.8208    4.9000    0.0000 C   0  0  0  0  0  0  0  0  0  0  0  0
   -4.4583    4.1042    0.0000 N   0  0  0  0  0  0  0  0  0  0  0  0
   -3.7458    2.8750    0.0000 O   0  0  0  0  0  0  0  0  0  0  0  0
   -0.0083    5.3792    0.0000 C   0  0  0  0  0  0  0  0  0  0  0  0
   -0.4208    6.0917    0.0000 C   0  0  0  0  0  0  0  0  0  0  0  0
   -0.3875    3.9625    0.0000 O   0  0  0  0  0  0  0  0  0  0  0  0
   -1.8417    6.4708    0.0000 O   0  0  0  0  0  0  0  0  0  0  0  0
   -5.1625    3.6958    0.0000 C   0  0  0  0  0  0  0  0  0  0  0  0
   -6.5792    2.8833    0.0000 C   0  0  0  0  0  0  0  0  0  0  0  0
   -5.1708    2.8833    0.0000 C   0  0  0  0  0  0  0  0  0  0  0  0
   -5.8750    4.1042    0.0000 C   0  0  0  0  0  0  0  0  0  0  0  0
   -5.8833    2.4708    0.0000 C   0  0  0  0  0  0  0  0  0  0  0  0
   -6.5792    3.7042    0.0000 C   0  0  0  0  0  0  0  0  0  0  0  0
   -7.2917    2.4708    0.0000 O   0  0  0  0  0  0  0  0  0  0  0  0
   -7.2917    1.6583    0.0000 C   0  0  0  0  0  0  0  0  0  0  0  0
   -8.0083    1.2458    0.0000 C   0  0  0  0  0  0  0  0  0  0  0  0
   -8.0167    0.4250    0.0000 C   0  0  0  0  0  0  0  0  0  0  0  0
   -8.7292    0.0208    0.0000 C   0  0  0  0  0  0  0  0  0  0  0  0
  2  8  1  0  0  0  0
  3  2  1  0  0  0  0
  4  1  1  0  0  0  0
  5  1  1  0  0  0  0
  6  1  1  0  0  0  0
  7  4  1  0  0  0  0
  8  4  1  0  0  0  0
  9  3  1  0  0  0  0
 10  3  2  0  0  0  0
 11  6  1  0  0  0  0
 12  5  1  0  0  0  0
 13  6  2  0  0  0  0
 14  5  2  0  0  0  0
 15  9  1  0  0  0  0
 16 20  1  0  0  0  0
 17 15  2  0  0  0  0
 18 15  1  0  0  0  0
 19 17  1  0  0  0  0
 20 18  2  0  0  0  0
 21 16  1  0  0  0  0
 22 21  1  0  0  0  0
 23 22  1  0  0  0  0
 24 23  1  0  0  0  0
 25 24  1  0  0  0  0
 12 11  1  0  0  0  0
  7  2  1  0  0  0  0
 16 19  2  0  0  0  0
M  END
> <IDNUMBER>
F6473-3858

> <Chemical_Name>
N-(4-butoxyphenyl)-3-(2,5-dioxopyrrolidin-1-yl)azetidine-1-carboxamide

> <CAS>
1795446-16-0

> <PriceCoeff>
1.00

> <MW>
345.39

> <Description>
solid

> <FSP3>
0.50

> <clogP>
1.98

> <TPSA>
78.95

> <Acceptor>
4

> <Donor>
1

> <RotBonds>
7

> <HAC>
25

> <Collection>
General

$$$$
F6414-2055
  -ISIS-  06222321442D

 22 23  0  0  0  0  0  0  0  0999 V2000
   -5.2833    2.5708    0.0000 N   0  0  3  0  0  0  0  0  0  0  0  0
   -5.3708    1.7458    0.0000 C   0  0  0  0  0  0  0  0  0  0  0  0
   -6.0292    2.9000    0.0000 C   0  0  0  0  0  0  0  0  0  0  0  0
   -4.5833    2.9875    0.0000 C   0  0  0  0  0  0  0  0  0  0  0  0
   -4.5833    3.8000    0.0000 C   0  0  0  0  0  0  0  0  0  0  0  0
   -3.8625    4.2125    0.0000 N   0  0  0  0  0  0  0  0  0  0  0  0
   -6.1667    1.5708    0.0000 C   0  0  0  0  0  0  0  0  0  0  0  0
   -6.5792    2.2833    0.0000 C   0  0  0  0  0  0  0  0  0  0  0  0
   -4.7500    1.1833    0.0000 O   0  0  0  0  0  0  0  0  0  0  0  0
   -6.2042    3.7083    0.0000 O   0  0  0  0  0  0  0  0  0  0  0  0
   -3.1583    6.2792    0.0000 C   0  0  0  0  0  0  0  0  0  0  0  0
   -5.2958    4.2125    0.0000 O   0  0  0  0  0  0  0  0  0  0  0  0
   -3.8625    5.0292    0.0000 C   0  0  0  0  0  0  0  0  0  0  0  0
   -2.4375    6.6917    0.0000 C   0  0  0  0  0  0  0  0  0  0  0  0
   -3.8708    6.6917    0.0000 C   0  0  0  0  0  0  0  0  0  0  0  0
   -3.1583    5.4500    0.0000 C   0  0  3  0  0  0  0  0  0  0  0  0
   -3.1500    7.9375    0.0000 C   0  0  0  0  0  0  0  0  0  0  0  0
   -3.1500    8.7667    0.0000 S   0  0  0  0  0  0  0  0  0  0  0  0
   -2.4333    7.5250    0.0000 C   0  0  0  0  0  0  0  0  0  0  0  0
   -3.8708    7.5250    0.0000 C   0  0  0  0  0  0  0  0  0  0  0  0
   -2.4333    5.0417    0.0000 O   0  0  0  0  0  0  0  0  0  0  0  0
   -2.4333    9.1750    0.0000 C   0  0  0  0  0  0  0  0  0  0  0  0
  2  1  1  0  0  0  0
  3  1  1  0  0  0  0
  4  1  1  0  0  0  0
  5  4  1  0  0  0  0
  6  5  1  0  0  0  0
  7  2  1  0  0  0  0
  8  3  1  0  0  0  0
  9  2  2  0  0  0  0
 10  3  2  0  0  0  0
 11 16  1  0  0  0  0
 12  5  2  0  0  0  0
 13  6  1  0  0  0  0
 14 11  2  0  0  0  0
 15 11  1  0  0  0  0
 16 13  1  0  0  0  0
 17 20  1  0  0  0  0
 18 17  1  0  0  0  0
 19 14  1  0  0  0  0
 20 15  2  0  0  0  0
 21 16  1  0  0  0  0
 22 18  1  0  0  0  0
  8  7  1  0  0  0  0
 17 19  2  0  0  0  0
M  END
> <IDNUMBER>
F6414-2055

> <Chemical_Name>
2-(2,5-dioxopyrrolidin-1-yl)-N-{2-hydroxy-2-[4-(methylsulfanyl)phenyl]ethyl}acetamide

> <CAS>
1448031-30-8

> <PriceCoeff>
1.00

> <MW>
322.38

> <Description>
solid

> <FSP3>
0.40

> <clogP>
0.56

> <TPSA>
112.01

> <Acceptor>
4

> <Donor>
2

> <RotBonds>
6

> <HAC>
22

> <Collection>
General

$$$$
F6439-5046
  -ISIS-  06222321462D

 23 25  0  0  0  0  0  0  0  0999 V2000
   -5.2833    2.5708    0.0000 N   0  0  3  0  0  0  0  0  0  0  0  0
   -2.4750    6.7750    0.0000 N   0  0  0  0  0  0  0  0  0  0  0  0
   -2.7250    7.5667    0.0000 C   0  0  0  0  0  0  0  0  0  0  0  0
   -5.3708    1.7458    0.0000 C   0  0  0  0  0  0  0  0  0  0  0  0
   -6.0292    2.9000    0.0000 C   0  0  0  0  0  0  0  0  0  0  0  0
   -3.1500    6.2792    0.0000 N   0  0  3  0  0  0  0  0  0  0  0  0
   -3.5625    7.5542    0.0000 C   0  0  0  0  0  0  0  0  0  0  0  0
   -2.2583    8.2292    0.0000 C   0  0  0  0  0  0  0  0  0  0  0  0
   -3.8208    6.7750    0.0000 C   0  0  0  0  0  0  0  0  0  0  0  0
   -4.5833    2.9875    0.0000 C   0  0  0  0  0  0  0  0  0  0  0  0
   -2.5083    9.0167    0.0000 S   0  0  0  0  0  0  0  0  0  0  0  0
   -4.5833    3.8000    0.0000 C   0  0  0  0  0  0  0  0  0  0  0  0
   -1.4250    8.2292    0.0000 C   0  0  0  0  0  0  0  0  0  0  0  0
   -6.5750    2.2833    0.0000 C   0  0  0  0  0  0  0  0  0  0  0  0
   -6.1667    1.5708    0.0000 C   0  0  0  0  0  0  0  0  0  0  0  0
   -6.2042    3.7083    0.0000 O   0  0  0  0  0  0  0  0  0  0  0  0
   -4.7500    1.1833    0.0000 O   0  0  0  0  0  0  0  0  0  0  0  0
   -1.8333    9.5000    0.0000 C   0  0  0  0  0  0  0  0  0  0  0  0
   -1.1708    9.0167    0.0000 C   0  0  0  0  0  0  0  0  0  0  0  0
   -5.3000    4.2042    0.0000 O   0  0  0  0  0  0  0  0  0  0  0  0
   -3.8625    4.2042    0.0000 N   0  0  0  0  0  0  0  0  0  0  0  0
   -3.1500    5.4500    0.0000 C   0  0  0  0  0  0  0  0  0  0  0  0
   -3.8625    5.0417    0.0000 C   0  0  0  0  0  0  0  0  0  0  0  0
  2  6  1  0  0  0  0
  3  2  2  0  0  0  0
  4  1  1  0  0  0  0
  5  1  1  0  0  0  0
  6 22  1  0  0  0  0
  7  9  2  0  0  0  0
  8  3  1  0  0  0  0
  9  6  1  0  0  0  0
 10  1  1  0  0  0  0
 11  8  1  0  0  0  0
 12 10  1  0  0  0  0
 13  8  2  0  0  0  0
 14  5  1  0  0  0  0
 15  4  1  0  0  0  0
 16  5  2  0  0  0  0
 17  4  2  0  0  0  0
 18 11  1  0  0  0  0
 19 13  1  0  0  0  0
 20 12  2  0  0  0  0
 21 12  1  0  0  0  0
 22 23  1  0  0  0  0
 23 21  1  0  0  0  0
 14 15  1  0  0  0  0
  7  3  1  0  0  0  0
 19 18  2  0  0  0  0
M  END
> <IDNUMBER>
F6439-5046

> <Chemical_Name>
2-(2,5-dioxopyrrolidin-1-yl)-N-{2-[3-(thiophen-2-yl)-1H-pyrazol-1-yl]ethyl}acetamide

> <CAS>
1796991-26-8

> <PriceCoeff>
1.00

> <MW>
332.38

> <Description>
oil

> <FSP3>
0.33

> <clogP>
1.32

> <TPSA>
112.54

> <Acceptor>
4

> <Donor>
1

> <RotBonds>
6

> <HAC>
23

> <Collection>
General

$$$$
F1064-0001
  -ISIS-  06222321452D

 23 24  0  0  0  0  0  0  0  0999 V2000
   -1.7208    0.8625    0.0000 C   0  0  0  0  0  0  0  0  0  0  0  0
   -1.7208    1.5458    0.0000 C   0  0  0  0  0  0  0  0  0  0  0  0
   -1.0833    0.6625    0.0000 N   0  0  0  0  0  0  0  0  0  0  0  0
   -2.3000    0.5208    0.0000 N   0  0  3  0  0  0  0  0  0  0  0  0
   -2.8833    1.5458    0.0000 N   0  0  3  0  0  0  0  0  0  0  0  0
   -2.8833    0.8625    0.0000 C   0  0  0  0  0  0  0  0  0  0  0  0
   -2.3000    1.8833    0.0000 C   0  0  0  0  0  0  0  0  0  0  0  0
   -0.6833    1.2000    0.0000 C   0  0  0  0  0  0  0  0  0  0  0  0
   -1.0833    1.7625    0.0000 N   0  0  3  0  0  0  0  0  0  0  0  0
   -3.4833    0.5208    0.0000 O   0  0  0  0  0  0  0  0  0  0  0  0
   -2.3000    2.5625    0.0000 O   0  0  0  0  0  0  0  0  0  0  0  0
    0.0000    1.2000    0.0000 N   0  0  0  0  0  0  0  0  0  0  0  0
   -2.3000   -0.1542    0.0000 C   0  0  0  0  0  0  0  0  0  0  0  0
   -3.4833    1.8833    0.0000 C   0  0  0  0  0  0  0  0  0  0  0  0
   -0.8625    2.4208    0.0000 C   0  0  0  0  0  0  0  0  0  0  0  0
    1.3542    0.0458    0.0000 N   0  0  3  0  0  0  0  0  0  0  0  0
    0.3375    0.6208    0.0000 C   0  0  0  0  0  0  0  0  0  0  0  0
    1.0167    0.6458    0.0000 C   0  0  0  0  0  0  0  0  0  0  0  0
    2.0375    0.0625    0.0000 C   0  0  0  0  0  0  0  0  0  0  0  0
    1.0167   -0.5375    0.0000 C   0  0  0  0  0  0  0  0  0  0  0  0
   -0.2000    2.5625    0.0000 C   0  0  0  0  0  0  0  0  0  0  0  0
    2.3792   -0.5167    0.0000 C   0  0  0  0  0  0  0  0  0  0  0  0
    0.3375   -0.5167    0.0000 C   0  0  0  0  0  0  0  0  0  0  0  0
  2  1  2  0  0  0  0
  3  1  1  0  0  0  0
  4  1  1  0  0  0  0
  5  6  1  0  0  0  0
  6  4  1  0  0  0  0
  7  2  1  0  0  0  0
  8  3  2  0  0  0  0
  9  2  1  0  0  0  0
 10  6  2  0  0  0  0
 11  7  2  0  0  0  0
 12  8  1  0  0  0  0
 13  4  1  0  0  0  0
 14  5  1  0  0  0  0
 15  9  1  0  0  0  0
 16 18  1  0  0  0  0
 17 12  1  0  0  0  0
 18 17  1  0  0  0  0
 19 16  1  0  0  0  0
 20 16  1  0  0  0  0
 21 15  1  0  0  0  0
 22 19  1  0  0  0  0
 23 20  1  0  0  0  0
  8  9  1  0  0  0  0
  7  5  1  0  0  0  0
M  END
> <IDNUMBER>
F1064-0001

> <Chemical_Name>
8-{[2-(diethylamino)ethyl]amino}-7-ethyl-1,3-dimethyl-2,3,6,7-tetrahydro-1H-purine-2,6-dione

> <CAS>
505080-56-8

> <PriceCoeff>
1.50

> <MW>
322.41

> <Description>
solid

> <FSP3>
0.67

> <clogP>
2.31

> <TPSA>
73.71

> <Acceptor>
4

> <Donor>
3

> <RotBonds>
7

> <HAC>
23

> <Collection>
Advanced

> <Reference_compound>
CHEMBL113

> <Similarity>
0.8060

$$$$
F6440-2354
  -ISIS-  06222321462D

 22 24  0  0  0  0  0  0  0  0999 V2000
   -3.0750    6.2750    0.0000 N   0  0  0  0  0  0  0  0  0  0  0  0
   -2.2708    6.4500    0.0000 N   0  0  3  0  0  0  0  0  0  0  0  0
   -2.4083    5.1167    0.0000 C   0  0  0  0  0  0  0  0  0  0  0  0
   -3.1583    5.4500    0.0000 C   0  0  0  0  0  0  0  0  0  0  0  0
   -1.8500    5.7292    0.0000 C   0  0  0  0  0  0  0  0  0  0  0  0
   -4.5833    2.9833    0.0000 C   0  0  0  0  0  0  0  0  0  0  0  0
   -4.5833    3.8000    0.0000 C   0  0  0  0  0  0  0  0  0  0  0  0
   -3.8625    4.2042    0.0000 N   0  0  0  0  0  0  0  0  0  0  0  0
   -3.8625    5.0417    0.0000 C   0  0  0  0  0  0  0  0  0  0  0  0
   -5.3000    2.5833    0.0000 C   0  0  0  0  0  0  0  0  0  0  0  0
   -5.2958    4.2167    0.0000 O   0  0  0  0  0  0  0  0  0  0  0  0
   -2.1500    4.3292    0.0000 C   0  0  0  0  0  0  0  0  0  0  0  0
   -1.9375    7.2042    0.0000 C   0  0  0  0  0  0  0  0  0  0  0  0
   -1.0375    5.5750    0.0000 C   0  0  0  0  0  0  0  0  0  0  0  0
   -3.8833    2.5833    0.0000 C   0  0  0  0  0  0  0  0  0  0  0  0
   -6.0000    2.9875    0.0000 O   0  0  0  0  0  0  0  0  0  0  0  0
   -5.3000    1.7458    0.0000 C   0  0  0  0  0  0  0  0  0  0  0  0
   -6.7167    2.5833    0.0000 C   0  0  0  0  0  0  0  0  0  0  0  0
   -1.3375    4.1667    0.0000 C   0  0  0  0  0  0  0  0  0  0  0  0
   -0.7833    4.7792    0.0000 C   0  0  0  0  0  0  0  0  0  0  0  0
   -3.8500    1.7500    0.0000 C   0  0  0  0  0  0  0  0  0  0  0  0
   -4.5833    1.3333    0.0000 C   0  0  0  0  0  0  0  0  0  0  0  0
  2  1  1  0  0  0  0
  3  4  1  0  0  0  0
  4  1  2  0  0  0  0
  5  2  1  0  0  0  0
  6  7  1  0  0  0  0
  7  8  1  0  0  0  0
  8  9  1  0  0  0  0
  9  4  1  0  0  0  0
 10  6  2  0  0  0  0
 11  7  2  0  0  0  0
 12  3  1  0  0  0  0
 13  2  1  0  0  0  0
 14  5  1  0  0  0  0
 15  6  1  0  0  0  0
 16 10  1  0  0  0  0
 17 10  1  0  0  0  0
 18 16  1  0  0  0  0
 19 12  1  0  0  0  0
 20 14  1  0  0  0  0
 21 15  2  0  0  0  0
 22 21  1  0  0  0  0
  5  3  2  0  0  0  0
 19 20  1  0  0  0  0
 17 22  2  0  0  0  0
M  END
> <IDNUMBER>
F6440-2354

> <Chemical_Name>
2-methoxy-N-[(1-methyl-4,5,6,7-tetrahydro-1H-indazol-3-yl)methyl]benzamide

> <CAS>
1448063-19-1

> <PriceCoeff>
1.50

> <MW>
299.37

> <Description>
solid

> <FSP3>
0.41

> <clogP>
2.19

> <TPSA>
56.15

> <Acceptor>
3

> <Donor>
1

> <RotBonds>
4

> <HAC>
22

> <Collection>
Advanced

> <Reference_compound>
CHEMBL2269988

> <Similarity>
0.8110

$$$$
F6451-2156
  -ISIS-  06222321152D

 23 24  0  0  0  0  0  0  0  0999 V2000
   -5.2833    2.5708    0.0000 N   0  0  3  0  0  0  0  0  0  0  0  0
   -5.3708    1.7458    0.0000 C   0  0  0  0  0  0  0  0  0  0  0  0
   -6.0292    2.9000    0.0000 C   0  0  0  0  0  0  0  0  0  0  0  0
   -4.5833    2.9875    0.0000 C   0  0  0  0  0  0  0  0  0  0  0  0
   -4.5833    3.8000    0.0000 C   0  0  0  0  0  0  0  0  0  0  0  0
   -3.1083    6.2667    0.0000 C   0  0  0  0  0  0  0  0  0  0  0  0
   -3.8625    4.2125    0.0000 N   0  0  0  0  0  0  0  0  0  0  0  0
   -6.1667    1.5708    0.0000 C   0  0  0  0  0  0  0  0  0  0  0  0
   -6.5792    2.2833    0.0000 C   0  0  0  0  0  0  0  0  0  0  0  0
   -4.7500    1.1833    0.0000 O   0  0  0  0  0  0  0  0  0  0  0  0
   -6.2042    3.7083    0.0000 O   0  0  0  0  0  0  0  0  0  0  0  0
   -2.3833    6.6500    0.0000 C   0  0  0  0  0  0  0  0  0  0  0  0
   -5.2958    4.2125    0.0000 O   0  0  0  0  0  0  0  0  0  0  0  0
   -3.8625    5.0292    0.0000 C   0  0  0  0  0  0  0  0  0  0  0  0
   -3.1333    5.4292    0.0000 C   0  0  3  0  0  0  0  0  0  0  0  0
   -2.3708    7.4792    0.0000 C   0  0  0  0  0  0  0  0  0  0  0  0
   -2.4333    5.0000    0.0000 O   0  0  0  0  0  0  0  0  0  0  0  0
   -1.6250    7.8750    0.0000 O   0  0  0  0  0  0  0  0  0  0  0  0
   -3.8083    6.6917    0.0000 C   0  0  0  0  0  0  0  0  0  0  0  0
   -3.7833    7.5042    0.0000 C   0  0  0  0  0  0  0  0  0  0  0  0
   -3.0583    7.9042    0.0000 C   0  0  0  0  0  0  0  0  0  0  0  0
   -1.7083    5.4167    0.0000 C   0  0  0  0  0  0  0  0  0  0  0  0
   -1.6125    8.7125    0.0000 C   0  0  0  0  0  0  0  0  0  0  0  0
  2  1  1  0  0  0  0
  3  1  1  0  0  0  0
  4  1  1  0  0  0  0
  5  4  1  0  0  0  0
  6 15  1  0  0  0  0
  7  5  1  0  0  0  0
  8  2  1  0  0  0  0
  9  3  1  0  0  0  0
 10  2  2  0  0  0  0
 11  3  2  0  0  0  0
 12  6  2  0  0  0  0
 13  5  2  0  0  0  0
 14  7  1  0  0  0  0
 15 14  1  0  0  0  0
 16 12  1  0  0  0  0
 17 15  1  0  0  0  0
 18 16  1  0  0  0  0
 19  6  1  0  0  0  0
 20 19  2  0  0  0  0
 21 20  1  0  0  0  0
 22 17  1  0  0  0  0
 23 18  1  0  0  0  0
  8  9  1  0  0  0  0
 21 16  2  0  0  0  0
M  END
> <IDNUMBER>
F6451-2156

> <Chemical_Name>
2-(2,5-dioxopyrrolidin-1-yl)-N-[2-methoxy-2-(3-methoxyphenyl)ethyl]acetamide

> <CAS>
1797159-98-8

> <PriceCoeff>
1.00

> <MW>
320.34

> <Description>
solid

> <FSP3>
0.44

> <clogP>
0.77

> <TPSA>
84.94

> <Acceptor>
5

> <Donor>
1

> <RotBonds>
7

> <HAC>
23

> <Collection>
General

$$$$
F6473-3623
  -ISIS-  06222321152D

 24 27  0  0  0  0  0  0  0  0999 V2000
   -1.3083    5.1042    0.0000 N   0  0  3  0  0  0  0  0  0  0  0  0
   -3.0333    4.1042    0.0000 N   0  0  3  0  0  0  0  0  0  0  0  0
   -2.0333    4.6875    0.0000 C   0  0  3  0  0  0  0  0  0  0  0  0
   -3.7458    3.6958    0.0000 C   0  0  0  0  0  0  0  0  0  0  0  0
   -1.2250    5.9167    0.0000 C   0  0  0  0  0  0  0  0  0  0  0  0
   -0.5583    4.7667    0.0000 C   0  0  0  0  0  0  0  0  0  0  0  0
   -2.2458    3.8958    0.0000 C   0  0  0  0  0  0  0  0  0  0  0  0
   -2.8208    4.9000    0.0000 C   0  0  0  0  0  0  0  0  0  0  0  0
   -3.7958    0.4083    0.0000 C   0  0  0  0  0  0  0  0  0  0  0  0
   -4.1958   -0.8542    0.0000 S   0  0  0  0  0  0  0  0  0  0  0  0
   -3.7500    2.8583    0.0000 C   0  0  0  0  0  0  0  0  0  0  0  0
   -3.7708    1.2208    0.0000 C   0  0  0  0  0  0  0  0  0  0  0  0
   -4.4583   -0.0667    0.0000 C   0  0  0  0  0  0  0  0  0  0  0  0
   -4.4542    4.0917    0.0000 O   0  0  0  0  0  0  0  0  0  0  0  0
   -0.0083    5.3792    0.0000 C   0  0  0  0  0  0  0  0  0  0  0  0
   -0.4208    6.0917    0.0000 C   0  0  0  0  0  0  0  0  0  0  0  0
   -3.1125   -0.0792    0.0000 C   0  0  0  0  0  0  0  0  0  0  0  0
   -1.8417    6.4708    0.0000 O   0  0  0  0  0  0  0  0  0  0  0  0
   -0.3875    3.9625    0.0000 O   0  0  0  0  0  0  0  0  0  0  0  0
   -3.3583   -0.8625    0.0000 C   0  0  0  0  0  0  0  0  0  0  0  0
   -4.4750    2.4583    0.0000 C   0  0  0  0  0  0  0  0  0  0  0  0
   -3.0458    2.4458    0.0000 C   0  0  0  0  0  0  0  0  0  0  0  0
   -4.4750    1.6208    0.0000 C   0  0  0  0  0  0  0  0  0  0  0  0
   -3.0583    1.6250    0.0000 C   0  0  0  0  0  0  0  0  0  0  0  0
  2  8  1  0  0  0  0
  3  1  1  0  0  0  0
  4  2  1  0  0  0  0
  5  1  1  0  0  0  0
  6  1  1  0  0  0  0
  7  3  1  0  0  0  0
  8  3  1  0  0  0  0
  9 12  1  0  0  0  0
 10 13  1  0  0  0  0
 11  4  1  0  0  0  0
 12 24  1  0  0  0  0
 13  9  2  0  0  0  0
 14  4  2  0  0  0  0
 15  6  1  0  0  0  0
 16  5  1  0  0  0  0
 17  9  1  0  0  0  0
 18  5  2  0  0  0  0
 19  6  2  0  0  0  0
 20 17  2  0  0  0  0
 21 11  2  0  0  0  0
 22 11  1  0  0  0  0
 23 21  1  0  0  0  0
 24 22  2  0  0  0  0
 16 15  1  0  0  0  0
  7  2  1  0  0  0  0
 12 23  2  0  0  0  0
 10 20  1  0  0  0  0
M  END
> <IDNUMBER>
F6473-3623

> <Chemical_Name>
1-{1-[4-(thiophen-3-yl)benzoyl]azetidin-3-yl}pyrrolidine-2,5-dione

> <CAS>
1798490-73-9

> <PriceCoeff>
1.00

> <MW>
340.40

> <Description>
solid

> <FSP3>
0.28

> <clogP>
1.82

> <TPSA>
85.93

> <Acceptor>
3

> <Donor>
0

> <RotBonds>
4

> <HAC>
24

> <Collection>
General

$$$$
F6170-0105
  -ISIS-  06222321462D

 12 13  0  0  0  0  0  0  0  0999 V2000
    6.3417   -5.9417    0.0000 C   0  0  0  0  0  0  0  0  0  0  0  0
    6.3458   -5.1167    0.0000 C   0  0  0  0  0  0  0  0  0  0  0  0
    7.0583   -6.3583    0.0000 C   0  0  0  0  0  0  0  0  0  0  0  0
    5.6292   -4.7042    0.0000 C   0  0  0  0  0  0  0  0  0  0  0  0
    7.7750   -5.9458    0.0000 C   0  0  0  0  0  0  0  0  0  0  0  0
    7.0583   -4.7000    0.0000 O   0  0  0  0  0  0  0  0  0  0  0  0
    5.6292   -6.3583    0.0000 C   0  0  0  0  0  0  0  0  0  0  0  0
    7.7750   -5.1167    0.0000 C   0  0  0  0  0  0  0  0  0  0  0  0
    7.0542   -7.1833    0.0000 O   0  0  0  0  0  0  0  0  0  0  0  0
    4.9167   -5.1167    0.0000 C   0  0  0  0  0  0  0  0  0  0  0  0
    4.9167   -5.9458    0.0000 C   0  0  0  0  0  0  0  0  0  0  0  0
    4.2042   -4.7083    0.0000 O   0  0  0  0  0  0  0  0  0  0  0  0
  2  1  1  0  0  0  0
  3  1  1  0  0  0  0
  4  2  2  0  0  0  0
  5  3  1  0  0  0  0
  6  2  1  0  0  0  0
  7  1  2  0  0  0  0
  8  6  1  0  0  0  0
  9  3  2  0  0  0  0
 10  4  1  0  0  0  0
 11  7  1  0  0  0  0
 12 10  1  0  0  0  0
 11 10  2  0  0  0  0
  8  5  2  0  0  0  0
M  END
> <IDNUMBER>
F6170-0105

> <Chemical_Name>
7-hydroxy-4H-chromen-4-one

> <CAS>
59887-89-7

> <PriceCoeff>
1.00

> <MW>
162.14

> <Description>
solid

> <FSP3>
0.00

> <clogP>
1.11

> <TPSA>
46.53

> <Acceptor>
3

> <Donor>
1

> <RotBonds>
0

> <HAC>
12

> <Collection>
General

> <Reference_compound>
CHEMBL13311

> <Similarity>
0.9440

$$$$
F6473-3880
  -ISIS-  06222321442D

 25 27  0  0  0  0  0  0  0  0999 V2000
   -1.3083    5.1042    0.0000 N   0  0  3  0  0  0  0  0  0  0  0  0
   -3.0333    4.1042    0.0000 N   0  0  3  0  0  0  0  0  0  0  0  0
   -2.0333    4.6875    0.0000 C   0  0  3  0  0  0  0  0  0  0  0  0
   -3.7458    3.6958    0.0000 C   0  0  0  0  0  0  0  0  0  0  0  0
   -1.2250    5.9167    0.0000 C   0  0  0  0  0  0  0  0  0  0  0  0
   -0.5583    4.7667    0.0000 C   0  0  0  0  0  0  0  0  0  0  0  0
   -2.2458    3.8958    0.0000 C   0  0  0  0  0  0  0  0  0  0  0  0
   -2.8208    4.9000    0.0000 C   0  0  0  0  0  0  0  0  0  0  0  0
   -4.4583    4.1042    0.0000 N   0  0  0  0  0  0  0  0  0  0  0  0
   -5.8833    1.6458    0.0000 C   0  0  0  0  0  0  0  0  0  0  0  0
   -3.7458    2.8750    0.0000 O   0  0  0  0  0  0  0  0  0  0  0  0
   -5.1750    1.2333    0.0000 C   0  0  0  0  0  0  0  0  0  0  0  0
   -0.0083    5.3792    0.0000 C   0  0  0  0  0  0  0  0  0  0  0  0
   -0.4208    6.0917    0.0000 C   0  0  0  0  0  0  0  0  0  0  0  0
   -0.3875    3.9625    0.0000 O   0  0  0  0  0  0  0  0  0  0  0  0
   -1.8417    6.4708    0.0000 O   0  0  0  0  0  0  0  0  0  0  0  0
   -5.8917    2.4708    0.0000 C   0  0  0  0  0  0  0  0  0  0  0  0
   -4.4583    1.6458    0.0000 C   0  0  0  0  0  0  0  0  0  0  0  0
   -5.1708    2.8833    0.0000 C   0  0  0  0  0  0  0  0  0  0  0  0
   -5.1708    3.7042    0.0000 C   0  0  0  0  0  0  0  0  0  0  0  0
   -4.4583    2.4708    0.0000 C   0  0  0  0  0  0  0  0  0  0  0  0
   -6.5958    1.2250    0.0000 O   0  0  0  0  0  0  0  0  0  0  0  0
   -5.1708    0.4000    0.0000 O   0  0  0  0  0  0  0  0  0  0  0  0
   -6.5917    0.3958    0.0000 C   0  0  0  0  0  0  0  0  0  0  0  0
   -5.8833   -0.0042    0.0000 C   0  0  0  0  0  0  0  0  0  0  0  0
  2  8  1  0  0  0  0
  3  1  1  0  0  0  0
  4  2  1  0  0  0  0
  5  1  1  0  0  0  0
  6  1  1  0  0  0  0
  7  3  1  0  0  0  0
  8  3  1  0  0  0  0
  9  4  1  0  0  0  0
 10 17  1  0  0  0  0
 11  4  2  0  0  0  0
 12 18  1  0  0  0  0
 13  6  1  0  0  0  0
 14  5  1  0  0  0  0
 15  6  2  0  0  0  0
 16  5  2  0  0  0  0
 17 19  2  0  0  0  0
 18 21  2  0  0  0  0
 19 20  1  0  0  0  0
 20  9  1  0  0  0  0
 21 19  1  0  0  0  0
 22 10  1  0  0  0  0
 23 12  1  0  0  0  0
 24 22  1  0  0  0  0
 25 23  1  0  0  0  0
 14 13  1  0  0  0  0
  7  2  1  0  0  0  0
 10 12  2  0  0  0  0
M  END
> <IDNUMBER>
F6473-3880

> <Chemical_Name>
N-[(3,4-dimethoxyphenyl)methyl]-3-(2,5-dioxopyrrolidin-1-yl)azetidine-1-carboxamide

> <CAS>
1795422-60-4

> <PriceCoeff>
1.50

> <MW>
347.37

> <Description>
solid

> <FSP3>
0.47

> <clogP>
0.52

> <TPSA>
88.18

> <Acceptor>
5

> <Donor>
1

> <RotBonds>
6

> <HAC>
25

> <Collection>
Advanced

$$$$
F1918-0023
  -ISIS-  06222321452D

 14 14  0  0  0  0  0  0  0  0999 V2000
   10.1417   -5.1750    0.0000 C   0  0  0  0  0  0  0  0  0  0  0  0
   10.8542   -5.5875    0.0000 N   0  0  0  0  0  0  0  0  0  0  0  0
    9.4292   -5.5917    0.0000 C   0  0  0  0  0  0  0  0  0  0  0  0
   12.2792   -5.5792    0.0000 C   0  0  0  0  0  0  0  0  0  0  0  0
   10.1417   -4.3500    0.0000 O   0  0  0  0  0  0  0  0  0  0  0  0
   12.9917   -5.1667    0.0000 O   0  0  0  0  0  0  0  0  0  0  0  0
   11.5667   -5.1667    0.0000 C   0  0  0  0  0  0  0  0  0  0  0  0
    9.0292   -4.8667    0.0000 C   0  0  0  0  0  0  0  0  0  0  0  0
    9.0167   -6.3042    0.0000 C   0  0  0  0  0  0  0  0  0  0  0  0
    7.7792   -5.5792    0.0000 C   0  0  0  0  0  0  0  0  0  0  0  0
   12.6917   -6.2917    0.0000 O   0  0  0  0  0  0  0  0  0  0  0  0
    8.2042   -4.8667    0.0000 C   0  0  0  0  0  0  0  0  0  0  0  0
    8.1917   -6.3000    0.0000 C   0  0  0  0  0  0  0  0  0  0  0  0
    6.9542   -5.5792    0.0000 O   0  0  0  0  0  0  0  0  0  0  0  0
  2  1  1  0  0  0  0
  3  1  1  0  0  0  0
  4  7  1  0  0  0  0
  5  1  2  0  0  0  0
  6  4  2  0  0  0  0
  7  2  1  0  0  0  0
  8  3  2  0  0  0  0
  9  3  1  0  0  0  0
 10 13  1  0  0  0  0
 11  4  1  0  0  0  0
 12  8  1  0  0  0  0
 13  9  2  0  0  0  0
 14 10  1  0  0  0  0
 10 12  2  0  0  0  0
M  END
> <IDNUMBER>
F1918-0023

> <Chemical_Name>
2-[(4-hydroxyphenyl)formamido]acetic acid

> <CAS>
2482-25-9

> <PriceCoeff>
1.00

> <MW>
195.17

> <Description>
solid

> <FSP3>
0.11

> <clogP>
0.33

> <TPSA>
86.63

> <Acceptor>
4

> <Donor>
2

> <RotBonds>
3

> <HAC>
14

> <Collection>
General

> <Reference_compound>
CHEMBL274877

> <Similarity>
0.8500

$$$$
F6440-2328
  -ISIS-  06222321462D

 21 23  0  0  0  0  0  0  0  0999 V2000
   -3.0750    6.2750    0.0000 N   0  0  0  0  0  0  0  0  0  0  0  0
   -2.2708    6.4500    0.0000 N   0  0  3  0  0  0  0  0  0  0  0  0
   -2.4083    5.1167    0.0000 C   0  0  0  0  0  0  0  0  0  0  0  0
   -3.1583    5.4500    0.0000 C   0  0  0  0  0  0  0  0  0  0  0  0
   -1.8500    5.7292    0.0000 C   0  0  0  0  0  0  0  0  0  0  0  0
   -4.5833    3.8000    0.0000 C   0  0  0  0  0  0  0  0  0  0  0  0
   -3.8625    4.2042    0.0000 N   0  0  0  0  0  0  0  0  0  0  0  0
   -4.5833    2.9833    0.0000 C   0  0  0  0  0  0  0  0  0  0  0  0
   -3.8625    5.0417    0.0000 C   0  0  0  0  0  0  0  0  0  0  0  0
   -5.3000    4.2042    0.0000 O   0  0  0  0  0  0  0  0  0  0  0  0
   -5.3000    2.5833    0.0000 C   0  0  0  0  0  0  0  0  0  0  0  0
   -2.1500    4.3292    0.0000 C   0  0  0  0  0  0  0  0  0  0  0  0
   -1.9375    7.2042    0.0000 C   0  0  0  0  0  0  0  0  0  0  0  0
   -1.0375    5.5750    0.0000 C   0  0  0  0  0  0  0  0  0  0  0  0
   -3.8750    2.5708    0.0000 C   0  0  0  0  0  0  0  0  0  0  0  0
   -6.0000    3.0000    0.0000 C   0  0  0  0  0  0  0  0  0  0  0  0
   -5.3083    1.7375    0.0000 C   0  0  0  0  0  0  0  0  0  0  0  0
   -1.3375    4.1667    0.0000 C   0  0  0  0  0  0  0  0  0  0  0  0
   -0.7833    4.7792    0.0000 C   0  0  0  0  0  0  0  0  0  0  0  0
   -3.8833    1.7375    0.0000 C   0  0  0  0  0  0  0  0  0  0  0  0
   -4.5958    1.3250    0.0000 C   0  0  0  0  0  0  0  0  0  0  0  0
  2  1  1  0  0  0  0
  3  4  1  0  0  0  0
  4  1  2  0  0  0  0
  5  2  1  0  0  0  0
  6  7  1  0  0  0  0
  7  9  1  0  0  0  0
  8  6  1  0  0  0  0
  9  4  1  0  0  0  0
 10  6  2  0  0  0  0
 11  8  2  0  0  0  0
 12  3  1  0  0  0  0
 13  2  1  0  0  0  0
 14  5  1  0  0  0  0
 15  8  1  0  0  0  0
 16 11  1  0  0  0  0
 17 11  1  0  0  0  0
 18 12  1  0  0  0  0
 19 14  1  0  0  0  0
 20 15  2  0  0  0  0
 21 20  1  0  0  0  0
  5  3  2  0  0  0  0
 18 19  1  0  0  0  0
 17 21  2  0  0  0  0
M  END
> <IDNUMBER>
F6440-2328

> <Chemical_Name>
2-methyl-N-[(1-methyl-4,5,6,7-tetrahydro-1H-indazol-3-yl)methyl]benzamide

> <CAS>
1448076-76-3

> <PriceCoeff>
1.50

> <MW>
283.37

> <Description>
solid

> <FSP3>
0.41

> <clogP>
2.22

> <TPSA>
46.92

> <Acceptor>
2

> <Donor>
1

> <RotBonds>
3

> <HAC>
21

> <Collection>
Advanced

> <Reference_compound>
CHEMBL2287577

> <Similarity>
0.8090

$$$$
F3234-0943
  -ISIS-  06222321442D

 18 20  0  0  0  0  0  0  0  0999 V2000
    5.3750   -2.1875    0.0000 C   0  0  0  0  0  0  0  0  0  0  0  0
    5.3667   -1.4167    0.0000 C   0  0  0  0  0  0  0  0  0  0  0  0
    6.0667   -2.5792    0.0000 N   0  0  0  0  0  0  0  0  0  0  0  0
    6.7500   -1.4000    0.0000 N   0  0  3  0  0  0  0  0  0  0  0  0
    6.7542   -2.1875    0.0000 C   0  0  0  0  0  0  0  0  0  0  0  0
    4.7042   -2.5875    0.0000 N   0  0  3  0  0  0  0  0  0  0  0  0
    4.0125   -1.3750    0.0000 N   0  0  3  0  0  0  0  0  0  0  0  0
    4.0125   -2.1875    0.0000 C   0  0  0  0  0  0  0  0  0  0  0  0
    4.7042   -0.9917    0.0000 C   0  0  0  0  0  0  0  0  0  0  0  0
    7.4417   -2.5750    0.0000 N   0  0  0  0  0  0  0  0  0  0  0  0
    8.1167   -1.3917    0.0000 C   0  0  0  0  0  0  0  0  0  0  0  0
    8.1167   -2.1792    0.0000 C   0  0  0  0  0  0  0  0  0  0  0  0
    3.3167   -2.6250    0.0000 O   0  0  0  0  0  0  0  0  0  0  0  0
    4.7042   -0.2042    0.0000 O   0  0  0  0  0  0  0  0  0  0  0  0
    3.2167   -1.1625    0.0000 C   0  0  0  0  0  0  0  0  0  0  0  0
    4.7042   -3.3750    0.0000 C   0  0  0  0  0  0  0  0  0  0  0  0
    8.8375   -2.5875    0.0000 C   0  0  0  0  0  0  0  0  0  0  0  0
    3.0042   -0.3667    0.0000 C   0  0  0  0  0  0  0  0  0  0  0  0
  2  1  2  0  0  0  0
  3  1  1  0  0  0  0
  4  2  1  0  0  0  0
  5  3  2  0  0  0  0
  6  1  1  0  0  0  0
  7  8  1  0  0  0  0
  8  6  1  0  0  0  0
  9  2  1  0  0  0  0
 10  5  1  0  0  0  0
 11  4  1  0  0  0  0
 12 10  1  0  0  0  0
 13  8  2  0  0  0  0
 14  9  2  0  0  0  0
 15  7  1  0  0  0  0
 16  6  1  0  0  0  0
 17 12  1  0  0  0  0
 18 15  1  0  0  0  0
  4  5  1  0  0  0  0
  9  7  1  0  0  0  0
 11 12  2  0  0  0  0
M  END
> <IDNUMBER>
F3234-0943

> <Chemical_Name>
3-ethyl-1,7-dimethyl-1H,2H,3H,4H,8H-imidazo[1,2-g]purine-2,4-dione

> <CAS>
923504-10-3

> <PriceCoeff>
1.50

> <MW>
247.25

> <Description>
solid

> <FSP3>
0.36

> <clogP>
1.30

> <TPSA>
73.71

> <Acceptor>
3

> <Donor>
1

> <RotBonds>
1

> <HAC>
18

> <Collection>
Advanced

> <Reference_compound>
CHEMBL190

> <Similarity>
0.8150

$$$$
F6440-2355
  -ISIS-  06222321462D

 22 24  0  0  0  0  0  0  0  0999 V2000
   -3.0750    6.2750    0.0000 N   0  0  0  0  0  0  0  0  0  0  0  0
   -2.2708    6.4500    0.0000 N   0  0  3  0  0  0  0  0  0  0  0  0
   -2.4083    5.1167    0.0000 C   0  0  0  0  0  0  0  0  0  0  0  0
   -3.1583    5.4500    0.0000 C   0  0  0  0  0  0  0  0  0  0  0  0
   -1.8500    5.7292    0.0000 C   0  0  0  0  0  0  0  0  0  0  0  0
   -4.5833    3.8000    0.0000 C   0  0  0  0  0  0  0  0  0  0  0  0
   -3.8625    4.2042    0.0000 N   0  0  0  0  0  0  0  0  0  0  0  0
   -4.5958    2.9833    0.0000 C   0  0  0  0  0  0  0  0  0  0  0  0
   -3.8625    5.0417    0.0000 C   0  0  0  0  0  0  0  0  0  0  0  0
   -5.3208    4.2042    0.0000 O   0  0  0  0  0  0  0  0  0  0  0  0
   -5.2833    2.5625    0.0000 C   0  0  0  0  0  0  0  0  0  0  0  0
   -2.1500    4.3292    0.0000 C   0  0  0  0  0  0  0  0  0  0  0  0
   -1.9375    7.2042    0.0000 C   0  0  0  0  0  0  0  0  0  0  0  0
   -5.2708    1.7375    0.0000 C   0  0  0  0  0  0  0  0  0  0  0  0
   -1.0375    5.5750    0.0000 C   0  0  0  0  0  0  0  0  0  0  0  0
   -5.9833    1.3125    0.0000 O   0  0  0  0  0  0  0  0  0  0  0  0
   -3.8708    2.5833    0.0000 C   0  0  0  0  0  0  0  0  0  0  0  0
   -3.8500    1.7708    0.0000 C   0  0  0  0  0  0  0  0  0  0  0  0
   -4.5583    1.3333    0.0000 C   0  0  0  0  0  0  0  0  0  0  0  0
   -5.9583    0.4750    0.0000 C   0  0  0  0  0  0  0  0  0  0  0  0
   -1.3375    4.1667    0.0000 C   0  0  0  0  0  0  0  0  0  0  0  0
   -0.7833    4.7792    0.0000 C   0  0  0  0  0  0  0  0  0  0  0  0
  2  1  1  0  0  0  0
  3  4  1  0  0  0  0
  4  1  2  0  0  0  0
  5  2  1  0  0  0  0
  6  7  1  0  0  0  0
  7  9  1  0  0  0  0
  8  6  1  0  0  0  0
  9  4  1  0  0  0  0
 10  6  2  0  0  0  0
 11  8  2  0  0  0  0
 12  3  1  0  0  0  0
 13  2  1  0  0  0  0
 14 11  1  0  0  0  0
 15  5  1  0  0  0  0
 16 14  1  0  0  0  0
 17  8  1  0  0  0  0
 18 17  2  0  0  0  0
 19 18  1  0  0  0  0
 20 16  1  0  0  0  0
 21 12  1  0  0  0  0
 22 15  1  0  0  0  0
  5  3  2  0  0  0  0
 21 22  1  0  0  0  0
 14 19  2  0  0  0  0
M  END
> <IDNUMBER>
F6440-2355

> <Chemical_Name>
3-methoxy-N-[(1-methyl-4,5,6,7-tetrahydro-1H-indazol-3-yl)methyl]benzamide

> <CAS>
1448125-33-4

> <PriceCoeff>
1.50

> <MW>
299.37

> <Description>
solid

> <FSP3>
0.41

> <clogP>
2.26

> <TPSA>
56.15

> <Acceptor>
3

> <Donor>
1

> <RotBonds>
4

> <HAC>
22

> <Collection>
Advanced

> <Reference_compound>
CHEMBL2269988

> <Similarity>
0.8330

$$$$
F6469-0994
  -ISIS-  06222321152D

 23 25  0  0  0  0  0  0  0  0999 V2000
    3.4042   -4.0917    0.0000 N   0  0  3  0  0  0  0  0  0  0  0  0
    6.8042   -2.4542    0.0000 C   0  0  0  0  0  0  0  0  0  0  0  0
    6.7167   -3.2542    0.0000 N   0  0  0  0  0  0  0  0  0  0  0  0
    2.7167   -3.6417    0.0000 C   0  0  0  0  0  0  0  0  0  0  0  0
    3.1875   -4.8875    0.0000 C   0  0  0  0  0  0  0  0  0  0  0  0
    6.2292   -1.8667    0.0000 C   0  0  0  0  0  0  0  0  0  0  0  0
    7.6042   -2.2875    0.0000 C   0  0  0  0  0  0  0  0  0  0  0  0
    7.4667   -3.5917    0.0000 C   0  0  0  0  0  0  0  0  0  0  0  0
    8.0125   -3.0042    0.0000 S   0  0  0  0  0  0  0  0  0  0  0  0
    5.4292   -2.0792    0.0000 C   0  0  0  0  0  0  0  0  0  0  0  0
    4.4167   -3.0917    0.0000 C   0  0  0  0  0  0  0  0  0  0  0  0
    5.2167   -2.8792    0.0000 N   0  0  0  0  0  0  0  0  0  0  0  0
    4.2042   -3.8792    0.0000 C   0  0  0  0  0  0  0  0  0  0  0  0
    2.0708   -4.1625    0.0000 C   0  0  0  0  0  0  0  0  0  0  0  0
    2.3667   -4.9292    0.0000 C   0  0  0  0  0  0  0  0  0  0  0  0
    2.6750   -2.8167    0.0000 O   0  0  0  0  0  0  0  0  0  0  0  0
    3.7000   -5.5375    0.0000 O   0  0  0  0  0  0  0  0  0  0  0  0
    3.8292   -2.5042    0.0000 O   0  0  0  0  0  0  0  0  0  0  0  0
    6.4417   -1.0750    0.0000 C   0  0  0  0  0  0  0  0  0  0  0  0
    4.8500   -1.4917    0.0000 C   0  0  0  0  0  0  0  0  0  0  0  0
    7.6417   -4.4000    0.0000 C   0  0  0  0  0  0  0  0  0  0  0  0
    5.8667   -0.4917    0.0000 C   0  0  0  0  0  0  0  0  0  0  0  0
    5.0625   -0.7125    0.0000 C   0  0  0  0  0  0  0  0  0  0  0  0
  2  6  1  0  0  0  0
  3  2  1  0  0  0  0
  4  1  1  0  0  0  0
  5  1  1  0  0  0  0
  6 10  1  0  0  0  0
  7  2  2  0  0  0  0
  8  3  2  0  0  0  0
  9  7  1  0  0  0  0
 10 12  1  0  0  0  0
 11 13  1  0  0  0  0
 12 11  1  0  0  0  0
 13  1  1  0  0  0  0
 14  4  1  0  0  0  0
 15  5  1  0  0  0  0
 16  4  2  0  0  0  0
 17  5  2  0  0  0  0
 18 11  2  0  0  0  0
 19  6  2  0  0  0  0
 20 10  2  0  0  0  0
 21  8  1  0  0  0  0
 22 23  2  0  0  0  0
 23 20  1  0  0  0  0
 14 15  1  0  0  0  0
 19 22  1  0  0  0  0
  8  9  1  0  0  0  0
M  END
> <IDNUMBER>
F6469-0994

> <Chemical_Name>
2-(2,5-dioxopyrrolidin-1-yl)-N-[2-(2-methyl-1,3-thiazol-4-yl)phenyl]acetamide

> <CAS>
1797160-81-6

> <PriceCoeff>
1.00

> <MW>
329.37

> <Description>
solid

> <FSP3>
0.25

> <clogP>
0.70

> <TPSA>
107.61

> <Acceptor>
4

> <Donor>
1

> <RotBonds>
4

> <HAC>
23

> <Collection>
General

$$$$
F5027-0654
  -ISIS-  06222321462D

 26 28  0  0  0  0  0  0  0  0999 V2000
   -5.2833    2.5708    0.0000 N   0  0  3  0  0  0  0  0  0  0  0  0
   -3.8583    4.2125    0.0000 N   0  0  3  0  0  0  0  0  0  0  0  0
   -4.5708    3.8000    0.0000 C   0  0  0  0  0  0  0  0  0  0  0  0
   -4.5708    2.9875    0.0000 C   0  0  0  0  0  0  0  0  0  0  0  0
   -5.3625    1.7458    0.0000 C   0  0  0  0  0  0  0  0  0  0  0  0
   -6.0292    2.9000    0.0000 C   0  0  0  0  0  0  0  0  0  0  0  0
    0.4417    2.5875    0.0000 C   0  0  3  0  0  0  0  0  0  0  0  0
   -3.1458    3.8083    0.0000 C   0  0  0  0  0  0  0  0  0  0  0  0
   -2.4208    4.2167    0.0000 C   0  0  3  0  0  0  0  0  0  0  0  0
   -0.2750    2.9958    0.0000 C   0  0  0  0  0  0  0  0  0  0  0  0
   -1.7083    3.8125    0.0000 C   0  0  0  0  0  0  0  0  0  0  0  0
   -2.4333    5.0417    0.0000 O   0  0  0  0  0  0  0  0  0  0  0  0
   -5.2958    4.2125    0.0000 O   0  0  0  0  0  0  0  0  0  0  0  0
   -6.5750    2.2833    0.0000 C   0  0  0  0  0  0  0  0  0  0  0  0
   -6.1667    1.5708    0.0000 C   0  0  0  0  0  0  0  0  0  0  0  0
   -6.2042    3.7083    0.0000 O   0  0  0  0  0  0  0  0  0  0  0  0
   -4.7458    1.1833    0.0000 O   0  0  0  0  0  0  0  0  0  0  0  0
   -0.9875    2.5833    0.0000 C   0  0  0  0  0  0  0  0  0  0  0  0
   -0.2833    3.8333    0.0000 C   0  0  0  0  0  0  0  0  0  0  0  0
    0.8542    3.2958    0.0000 F   0  0  0  0  0  0  0  0  0  0  0  0
    1.1667    2.1708    0.0000 F   0  0  0  0  0  0  0  0  0  0  0  0
    0.0375    1.8625    0.0000 F   0  0  0  0  0  0  0  0  0  0  0  0
   -0.9958    4.2208    0.0000 C   0  0  0  0  0  0  0  0  0  0  0  0
   -1.7083    2.9958    0.0000 C   0  0  0  0  0  0  0  0  0  0  0  0
   -3.8583    5.0417    0.0000 C   0  0  0  0  0  0  0  0  0  0  0  0
   -3.1458    5.4542    0.0000 C   0  0  0  0  0  0  0  0  0  0  0  0
  2  3  1  0  0  0  0
  3  4  1  0  0  0  0
  4  1  1  0  0  0  0
  5  1  1  0  0  0  0
  6  1  1  0  0  0  0
  7 10  1  0  0  0  0
  8  2  1  0  0  0  0
  9  8  1  0  0  0  0
 10 18  2  0  0  0  0
 11  9  1  0  0  0  0
 12 26  1  0  0  0  0
 13  3  2  0  0  0  0
 14  6  1  0  0  0  0
 15  5  1  0  0  0  0
 16  6  2  0  0  0  0
 17  5  2  0  0  0  0
 18 24  1  0  0  0  0
 19 23  2  0  0  0  0
 20  7  1  0  0  0  0
 21  7  1  0  0  0  0
 22  7  1  0  0  0  0
 23 11  1  0  0  0  0
 24 11  2  0  0  0  0
 25  2  1  0  0  0  0
 26 25  1  0  0  0  0
 15 14  1  0  0  0  0
  9 12  1  0  0  0  0
 19 10  1  0  0  0  0
M  END
> <IDNUMBER>
F5027-0654

> <Chemical_Name>
1-(2-oxo-2-{2-[4-(trifluoromethyl)phenyl]morpholin-4-yl}ethyl)pyrrolidine-2,5-dione

> <CAS>
1351589-20-2

> <PriceCoeff>
1.50

> <MW>
370.32

> <Description>
solid

> <FSP3>
0.47

> <clogP>
1.75

> <TPSA>
66.92

> <Acceptor>
4

> <Donor>
0

> <RotBonds>
4

> <HAC>
26

> <Collection>
Advanced

$$$$
F6287-0440
  -ISIS-  06222321442D

 24 26  0  0  0  0  0  0  0  0999 V2000
   -5.2833    2.5708    0.0000 N   0  0  3  0  0  0  0  0  0  0  0  0
   -3.5583    7.5542    0.0000 C   0  0  0  0  0  0  0  0  0  0  0  0
   -3.8125    6.7625    0.0000 N   0  0  0  0  0  0  0  0  0  0  0  0
   -3.1458    6.2750    0.0000 C   0  0  0  0  0  0  0  0  0  0  0  0
   -2.4750    6.7667    0.0000 N   0  0  3  0  0  0  0  0  0  0  0  0
   -2.7333    7.5500    0.0000 C   0  0  0  0  0  0  0  0  0  0  0  0
   -5.3708    1.7458    0.0000 C   0  0  0  0  0  0  0  0  0  0  0  0
   -6.0292    2.9000    0.0000 C   0  0  0  0  0  0  0  0  0  0  0  0
   -4.0375    8.2167    0.0000 C   0  0  0  0  0  0  0  0  0  0  0  0
   -4.5792    2.9875    0.0000 C   0  0  0  0  0  0  0  0  0  0  0  0
   -3.7833    9.0083    0.0000 S   0  0  0  0  0  0  0  0  0  0  0  0
   -4.5833    3.8000    0.0000 C   0  0  0  0  0  0  0  0  0  0  0  0
   -3.1458    5.4417    0.0000 C   0  0  0  0  0  0  0  0  0  0  0  0
   -4.8708    8.2167    0.0000 C   0  0  0  0  0  0  0  0  0  0  0  0
   -6.1667    1.5708    0.0000 C   0  0  0  0  0  0  0  0  0  0  0  0
   -6.5792    2.2833    0.0000 C   0  0  0  0  0  0  0  0  0  0  0  0
   -4.7500    1.1833    0.0000 O   0  0  0  0  0  0  0  0  0  0  0  0
   -6.2042    3.7083    0.0000 O   0  0  0  0  0  0  0  0  0  0  0  0
   -4.4583    9.4917    0.0000 C   0  0  0  0  0  0  0  0  0  0  0  0
   -5.1333    9.0042    0.0000 C   0  0  0  0  0  0  0  0  0  0  0  0
   -5.2958    4.2125    0.0000 O   0  0  0  0  0  0  0  0  0  0  0  0
   -3.8625    4.2125    0.0000 N   0  0  0  0  0  0  0  0  0  0  0  0
   -3.8625    5.0333    0.0000 C   0  0  0  0  0  0  0  0  0  0  0  0
   -1.6958    6.5167    0.0000 C   0  0  0  0  0  0  0  0  0  0  0  0
  2  3  1  0  0  0  0
  3  4  2  0  0  0  0
  4 13  1  0  0  0  0
  5  4  1  0  0  0  0
  6  5  1  0  0  0  0
  7  1  1  0  0  0  0
  8  1  1  0  0  0  0
  9  2  1  0  0  0  0
 10  1  1  0  0  0  0
 11  9  1  0  0  0  0
 12 10  1  0  0  0  0
 13 23  1  0  0  0  0
 14  9  2  0  0  0  0
 15  7  1  0  0  0  0
 16  8  1  0  0  0  0
 17  7  2  0  0  0  0
 18  8  2  0  0  0  0
 19 11  1  0  0  0  0
 20 14  1  0  0  0  0
 21 12  2  0  0  0  0
 22 12  1  0  0  0  0
 23 22  1  0  0  0  0
 24  5  1  0  0  0  0
 16 15  1  0  0  0  0
  2  6  2  0  0  0  0
 20 19  2  0  0  0  0
M  END
> <IDNUMBER>
F6287-0440

> <Chemical_Name>
2-(2,5-dioxopyrrolidin-1-yl)-N-{2-[1-methyl-4-(thiophen-2-yl)-1H-imidazol-2-yl]ethyl}acetamide

> <CAS>
1396871-64-9

> <PriceCoeff>
1.00

> <MW>
346.40

> <Description>
oil

> <FSP3>
0.38

> <clogP>
0.69

> <TPSA>
112.54

> <Acceptor>
4

> <Donor>
2

> <RotBonds>
6

> <HAC>
24

> <Collection>
General

$$$$
F2185-0115
  -ISIS-  06222304352D

 17 17  0  0  0  0  0  0  0  0999 V2000
    2.8708    0.3000    0.0000 N   0  0  0  0  0  0  0  0  0  0  0  0
    2.1208    0.6333    0.0000 C   0  0  0  0  0  0  0  0  0  0  0  0
    2.2000    1.4542    0.0000 N   0  0  0  0  0  0  0  0  0  0  0  0
    3.4208    0.9125    0.0000 C   0  0  0  0  0  0  0  0  0  0  0  0
    3.0083    1.6292    0.0000 O   0  0  0  0  0  0  0  0  0  0  0  0
    1.4083    0.2167    0.0000 C   0  0  0  0  0  0  0  0  0  0  0  0
    0.6917    0.6292    0.0000 C   0  0  0  0  0  0  0  0  0  0  0  0
    1.4083   -0.6125    0.0000 C   0  0  0  0  0  0  0  0  0  0  0  0
   -0.0208   -0.6125    0.0000 C   0  0  0  0  0  0  0  0  0  0  0  0
   -0.0208    0.2125    0.0000 C   0  0  0  0  0  0  0  0  0  0  0  0
    0.6917   -1.0250    0.0000 C   0  0  0  0  0  0  0  0  0  0  0  0
   -0.7375   -1.0250    0.0000 Cl  0  0  0  0  0  0  0  0  0  0  0  0
    6.2042    1.7958    0.0000 N   0  0  0  0  0  0  0  0  0  0  0  0
    4.2417    0.8292    0.0000 C   0  0  0  0  0  0  0  0  0  0  0  0
    5.6167    1.2083    0.0000 C   0  0  0  0  0  0  0  0  0  0  0  0
    4.8250    1.4208    0.0000 C   0  0  0  0  0  0  0  0  0  0  0  0
    7.6917    0.3833    0.0000 Cl  0  0  0  0  0  0  0  0  0  0  0  0
  3  2  2  0  0  0  0
  4  1  2  0  0  0  0
  5  4  1  0  0  0  0
  6  2  1  0  0  0  0
  7  6  2  0  0  0  0
  8  6  1  0  0  0  0
  9 10  2  0  0  0  0
 10  7  1  0  0  0  0
 11  8  2  0  0  0  0
 12  9  1  0  0  0  0
 13 15  1  0  0  0  0
 14  4  1  0  0  0  0
 15 16  1  0  0  0  0
 16 14  1  0  0  0  0
  3  5  1  0  0  0  0
 11  9  1  0  0  0  0
  2  1  1  0  0  0  0
M  END
> <IDNUMBER>
F2185-0115

> <Chemical_Name>
3-[3-(4-chlorophenyl)-1,2,4-oxadiazol-5-yl]propan-1-amine hydrochloride

> <CAS>
1374407-72-3

> <PriceCoeff>
1.50

> <MW>
237.69

> <Description>
solid

> <FSP3>
0.27

> <clogP>
1.75

> <TPSA>
64.94

> <Acceptor>
3

> <Donor>
1

> <RotBonds>
4

> <HAC>
16

> <Collection>
Advanced

> <Reference_compound>
CHEMBL4781421

> <Similarity>
0.8150

$$$$
F2185-0117
  -ISIS-  06222304352D

 17 17  0  0  0  0  0  0  0  0999 V2000
    1.8125    0.4375    0.0000 C   0  0  0  0  0  0  0  0  0  0  0  0
    2.5667    0.1000    0.0000 N   0  0  0  0  0  0  0  0  0  0  0  0
    1.8958    1.2542    0.0000 N   0  0  0  0  0  0  0  0  0  0  0  0
    1.1000    0.0208    0.0000 C   0  0  0  0  0  0  0  0  0  0  0  0
    3.1167    0.7167    0.0000 C   0  0  0  0  0  0  0  0  0  0  0  0
    2.7042    1.4292    0.0000 O   0  0  0  0  0  0  0  0  0  0  0  0
    0.3833    0.4333    0.0000 C   0  0  0  0  0  0  0  0  0  0  0  0
    0.3792    1.2583    0.0000 Cl  0  0  0  0  0  0  0  0  0  0  0  0
    1.1000   -0.8083    0.0000 C   0  0  0  0  0  0  0  0  0  0  0  0
    5.5500    1.8583    0.0000 N   0  0  0  0  0  0  0  0  0  0  0  0
    3.9375    0.6333    0.0000 C   0  0  0  0  0  0  0  0  0  0  0  0
   -0.3292    0.0208    0.0000 C   0  0  0  0  0  0  0  0  0  0  0  0
    5.1417    1.1375    0.0000 C   0  0  0  0  0  0  0  0  0  0  0  0
    4.3417    1.3500    0.0000 C   0  0  0  0  0  0  0  0  0  0  0  0
    0.3833   -1.2208    0.0000 C   0  0  0  0  0  0  0  0  0  0  0  0
   -0.3292   -0.8083    0.0000 C   0  0  0  0  0  0  0  0  0  0  0  0
    7.0375    0.4708    0.0000 Cl  0  0  0  0  0  0  0  0  0  0  0  0
  3  1  2  0  0  0  0
  4  1  1  0  0  0  0
  5  2  2  0  0  0  0
  6  3  1  0  0  0  0
  7  4  2  0  0  0  0
  8  7  1  0  0  0  0
  9  4  1  0  0  0  0
 10 13  1  0  0  0  0
 11  5  1  0  0  0  0
 12  7  1  0  0  0  0
 13 14  1  0  0  0  0
 14 11  1  0  0  0  0
 15  9  2  0  0  0  0
 16 12  2  0  0  0  0
  6  5  1  0  0  0  0
 15 16  1  0  0  0  0
  2  1  1  0  0  0  0
M  END
> <IDNUMBER>
F2185-0117

> <Chemical_Name>
3-[3-(2-chlorophenyl)-1,2,4-oxadiazol-5-yl]propan-1-amine hydrochloride

> <CAS>
1374407-84-7

> <PriceCoeff>
1.50

> <MW>
237.69

> <Description>
solid

> <FSP3>
0.27

> <clogP>
1.50

> <TPSA>
64.94

> <Acceptor>
3

> <Donor>
1

> <RotBonds>
4

> <HAC>
16

> <Collection>
Advanced

> <Reference_compound>
CHEMBL4742930

> <Similarity>
0.8240

$$$$
F6395-3665
  -ISIS-  06222321462D

 23 25  0  0  0  0  0  0  0  0999 V2000
   -5.2833    2.5708    0.0000 N   0  0  3  0  0  0  0  0  0  0  0  0
   -4.5833    3.8000    0.0000 C   0  0  0  0  0  0  0  0  0  0  0  0
   -3.8625    4.2125    0.0000 N   0  0  3  0  0  0  0  0  0  0  0  0
   -4.5792    2.9875    0.0000 C   0  0  0  0  0  0  0  0  0  0  0  0
   -5.3708    1.7458    0.0000 C   0  0  0  0  0  0  0  0  0  0  0  0
   -6.0292    2.9000    0.0000 C   0  0  0  0  0  0  0  0  0  0  0  0
   -3.8625    5.0417    0.0000 C   0  0  0  0  0  0  0  0  0  0  0  0
   -5.2958    4.2125    0.0000 O   0  0  0  0  0  0  0  0  0  0  0  0
   -6.5792    2.2833    0.0000 C   0  0  0  0  0  0  0  0  0  0  0  0
   -6.1667    1.5708    0.0000 C   0  0  0  0  0  0  0  0  0  0  0  0
   -6.2042    3.7083    0.0000 O   0  0  0  0  0  0  0  0  0  0  0  0
   -4.7500    1.1833    0.0000 O   0  0  0  0  0  0  0  0  0  0  0  0
   -2.4333    5.0292    0.0000 O   0  0  0  0  0  0  0  0  0  0  0  0
   -3.1458    5.4542    0.0000 C   0  0  3  0  0  0  0  0  0  0  0  0
   -3.1375    6.2792    0.0000 C   0  0  0  0  0  0  0  0  0  0  0  0
   -3.1500    3.8000    0.0000 C   0  0  0  0  0  0  0  0  0  0  0  0
   -2.4333    4.2125    0.0000 C   0  0  0  0  0  0  0  0  0  0  0  0
   -3.8583    6.7042    0.0000 C   0  0  0  0  0  0  0  0  0  0  0  0
   -3.8500    7.5292    0.0000 C   0  0  0  0  0  0  0  0  0  0  0  0
   -4.5708    6.2917    0.0000 C   0  0  0  0  0  0  0  0  0  0  0  0
   -4.5625    7.9417    0.0000 C   0  0  0  0  0  0  0  0  0  0  0  0
   -5.2833    6.7042    0.0000 C   0  0  0  0  0  0  0  0  0  0  0  0
   -5.2833    7.5417    0.0000 C   0  0  0  0  0  0  0  0  0  0  0  0
  2  4  1  0  0  0  0
  3  2  1  0  0  0  0
  4  1  1  0  0  0  0
  5  1  1  0  0  0  0
  6  1  1  0  0  0  0
  7  3  1  0  0  0  0
  8  2  2  0  0  0  0
  9  6  1  0  0  0  0
 10  5  1  0  0  0  0
 11  6  2  0  0  0  0
 12  5  2  0  0  0  0
 13 17  1  0  0  0  0
 14  7  1  0  0  0  0
 15 14  1  0  0  0  0
 16  3  1  0  0  0  0
 17 16  1  0  0  0  0
 18 15  1  0  0  0  0
 19 18  2  0  0  0  0
 20 18  1  0  0  0  0
 21 19  1  0  0  0  0
 22 20  2  0  0  0  0
 23 22  1  0  0  0  0
  9 10  1  0  0  0  0
 13 14  1  0  0  0  0
 21 23  2  0  0  0  0
M  END
> <IDNUMBER>
F6395-3665

> <Chemical_Name>
1-[2-(2-benzylmorpholin-4-yl)-2-oxoethyl]pyrrolidine-2,5-dione

> <CAS>
1421524-66-4

> <PriceCoeff>
1.50

> <MW>
316.35

> <Description>
oil

> <FSP3>
0.47

> <clogP>
1.39

> <TPSA>
66.92

> <Acceptor>
4

> <Donor>
0

> <RotBonds>
5

> <HAC>
23

> <Collection>
Advanced

$$$$
F3260-0895
  -ISIS-  06222321152D

 21 22  0  0  0  0  0  0  0  0999 V2000
    3.5792   -0.8417    0.0000 C   0  0  0  0  0  0  0  0  0  0  0  0
    3.8875   -1.8042    0.0000 C   0  0  0  0  0  0  0  0  0  0  0  0
    4.3875   -0.2625    0.0000 N   0  0  0  0  0  0  0  0  0  0  0  0
    2.6042   -0.6375    0.0000 N   0  0  3  0  0  0  0  0  0  0  0  0
    2.2292   -2.3292    0.0000 N   0  0  3  0  0  0  0  0  0  0  0  0
    1.9292   -1.3667    0.0000 C   0  0  0  0  0  0  0  0  0  0  0  0
    3.2125   -2.5417    0.0000 C   0  0  0  0  0  0  0  0  0  0  0  0
    5.1917   -0.8417    0.0000 C   0  0  0  0  0  0  0  0  0  0  0  0
    4.8875   -1.8042    0.0000 N   0  0  3  0  0  0  0  0  0  0  0  0
    0.9542   -1.1542    0.0000 O   0  0  0  0  0  0  0  0  0  0  0  0
    3.5125   -3.4917    0.0000 O   0  0  0  0  0  0  0  0  0  0  0  0
    6.1417   -0.5292    0.0000 N   0  0  0  0  0  0  0  0  0  0  0  0
    1.5625   -3.0667    0.0000 C   0  0  0  0  0  0  0  0  0  0  0  0
    2.2917    0.3208    0.0000 C   0  0  0  0  0  0  0  0  0  0  0  0
    5.4750   -2.6125    0.0000 C   0  0  0  0  0  0  0  0  0  0  0  0
    6.3500    0.4583    0.0000 C   0  0  0  0  0  0  0  0  0  0  0  0
    0.5792   -2.8542    0.0000 C   0  0  0  0  0  0  0  0  0  0  0  0
    7.2917    0.7625    0.0000 C   0  0  0  0  0  0  0  0  0  0  0  0
    8.4417    2.0583    0.0000 C   0  0  0  0  0  0  0  0  0  0  0  0
    7.5000    1.7458    0.0000 C   0  0  0  0  0  0  0  0  0  0  0  0
    8.6500    3.0458    0.0000 C   0  0  0  0  0  0  0  0  0  0  0  0
  2  1  2  0  0  0  0
  3  1  1  0  0  0  0
  4  1  1  0  0  0  0
  5  6  1  0  0  0  0
  6  4  1  0  0  0  0
  7  2  1  0  0  0  0
  8  3  2  0  0  0  0
  9  2  1  0  0  0  0
 10  6  2  0  0  0  0
 11  7  2  0  0  0  0
 12  8  1  0  0  0  0
 13  5  1  0  0  0  0
 14  4  1  0  0  0  0
 15  9  1  0  0  0  0
 16 12  1  0  0  0  0
 17 13  1  0  0  0  0
 18 16  1  0  0  0  0
 19 20  1  0  0  0  0
 20 18  1  0  0  0  0
 21 19  1  0  0  0  0
  8  9  1  0  0  0  0
  5  7  1  0  0  0  0
M  END
> <IDNUMBER>
F3260-0895

> <Chemical_Name>
1-ethyl-3,7-dimethyl-8-(pentylamino)-2,3,6,7-tetrahydro-1H-purine-2,6-dione

> <CAS>
1202988-50-8

> <PriceCoeff>
1.00

> <MW>
293.36

> <Description>
solid

> <FSP3>
0.64

> <clogP>
3.16

> <TPSA>
70.47

> <Acceptor>
3

> <Donor>
2

> <RotBonds>
6

> <HAC>
21

> <Collection>
General

> <Reference_compound>
CHEMBL113

> <Similarity>
0.8210

$$$$
F6110-1934
  -ISIS-  06222321462D

 26 28  0  0  0  0  0  0  0  0999 V2000
   -1.7333    6.2917    0.0000 N   0  0  3  0  0  0  0  0  0  0  0  0
   -3.8625    4.2125    0.0000 N   0  0  3  0  0  0  0  0  0  0  0  0
   -4.5833    3.8000    0.0000 C   0  0  0  0  0  0  0  0  0  0  0  0
   -1.7458    7.9542    0.0000 N   0  0  3  0  0  0  0  0  0  0  0  0
   -1.0208    6.7208    0.0000 C   0  0  3  0  0  0  0  0  0  0  0  0
   -1.7250    5.4667    0.0000 C   0  0  0  0  0  0  0  0  0  0  0  0
   -1.0250    7.5542    0.0000 C   0  0  0  0  0  0  0  0  0  0  0  0
   -2.4500    6.7125    0.0000 C   0  0  0  0  0  0  0  0  0  0  0  0
   -3.1458    3.8000    0.0000 C   0  0  0  0  0  0  0  0  0  0  0  0
   -3.8625    5.0417    0.0000 C   0  0  0  0  0  0  0  0  0  0  0  0
   -4.5792    2.9833    0.0000 C   0  0  0  0  0  0  0  0  0  0  0  0
   -5.2875    4.2042    0.0000 O   0  0  0  0  0  0  0  0  0  0  0  0
   -5.3000    2.5708    0.0000 O   0  0  0  0  0  0  0  0  0  0  0  0
   -2.4583    7.5417    0.0000 C   0  0  0  0  0  0  0  0  0  0  0  0
   -5.3083    1.7500    0.0000 C   0  0  0  0  0  0  0  0  0  0  0  0
   -2.4458    5.0333    0.0000 C   0  0  3  0  0  0  0  0  0  0  0  0
   -2.4250    4.2167    0.0000 C   0  0  0  0  0  0  0  0  0  0  0  0
   -3.1583    5.4542    0.0000 C   0  0  0  0  0  0  0  0  0  0  0  0
   -5.3625    0.1000    0.0000 C   0  0  0  0  0  0  0  0  0  0  0  0
   -4.6208    1.3250    0.0000 C   0  0  0  0  0  0  0  0  0  0  0  0
   -6.0417    1.3583    0.0000 C   0  0  0  0  0  0  0  0  0  0  0  0
   -4.6333    0.4958    0.0000 C   0  0  0  0  0  0  0  0  0  0  0  0
   -6.0542    0.5333    0.0000 C   0  0  0  0  0  0  0  0  0  0  0  0
   -1.7583    8.7792    0.0000 C   0  0  0  0  0  0  0  0  0  0  0  0
   -0.2958    6.3167    0.0000 C   0  0  0  0  0  0  0  0  0  0  0  0
   -5.3917   -0.7292    0.0000 C   0  0  0  0  0  0  0  0  0  0  0  0
  2 10  1  0  0  0  0
  3  2  1  0  0  0  0
  4 14  1  0  0  0  0
  5  1  1  0  0  0  0
  6  1  1  0  0  0  0
  7  5  1  0  0  0  0
  8  1  1  0  0  0  0
  9 17  1  0  0  0  0
 10 18  1  0  0  0  0
 11  3  1  0  0  0  0
 12  3  2  0  0  0  0
 13 11  1  0  0  0  0
 14  8  1  0  0  0  0
 15 13  1  0  0  0  0
 16  6  1  0  0  0  0
 17 16  1  0  0  0  0
 18 16  1  0  0  0  0
 19 23  2  0  0  0  0
 20 15  1  0  0  0  0
 21 15  2  0  0  0  0
 22 20  2  0  0  0  0
 23 21  1  0  0  0  0
 24  4  1  0  0  0  0
 25  5  1  0  0  0  0
 26 19  1  0  0  0  0
  7  4  1  0  0  0  0
  2  9  1  0  0  0  0
 22 19  1  0  0  0  0
M  END
> <IDNUMBER>
F6110-1934

> <Chemical_Name>
1-{4-[(2,4-dimethylpiperazin-1-yl)methyl]piperidin-1-yl}-2-(4-methylphenoxy)ethan-1-one

> <CAS>
1421461-79-1

> <PriceCoeff>
1.50

> <MW>
359.51

> <Description>
oil

> <FSP3>
0.67

> <clogP>
1.55

> <TPSA>
36.02

> <Acceptor>
4

> <Donor>
2

> <RotBonds>
6

> <HAC>
26

> <Collection>
Advanced

> <Reference_compound>
CHEMBL3965046

> <Similarity>
0.8270

$$$$
F6403-1733
  -ISIS-  06222321442D

 25 27  0  0  0  0  0  0  0  0999 V2000
    7.7000   -1.9625    0.0000 N   0  0  3  0  0  0  0  0  0  0  0  0
    6.9875   -2.3792    0.0000 C   0  0  0  0  0  0  0  0  0  0  0  0
    2.5792   -4.5917    0.0000 N   0  0  3  0  0  0  0  0  0  0  0  0
    7.7458   -1.1375    0.0000 N   0  0  0  0  0  0  0  0  0  0  0  0
    6.9417   -3.2042    0.0000 N   0  0  0  0  0  0  0  0  0  0  0  0
    8.4708   -2.2542    0.0000 C   0  0  0  0  0  0  0  0  0  0  0  0
    6.2167   -2.0875    0.0000 S   0  0  0  0  0  0  0  0  0  0  0  0
    1.9583   -4.0542    0.0000 C   0  0  0  0  0  0  0  0  0  0  0  0
    2.2583   -5.3500    0.0000 C   0  0  0  0  0  0  0  0  0  0  0  0
    8.9875   -1.6167    0.0000 C   0  0  0  0  0  0  0  0  0  0  0  0
    8.5417   -0.9250    0.0000 C   0  0  0  0  0  0  0  0  0  0  0  0
    6.1458   -3.4125    0.0000 C   0  0  0  0  0  0  0  0  0  0  0  0
    3.3958   -4.4917    0.0000 C   0  0  0  0  0  0  0  0  0  0  0  0
    5.7000   -2.7250    0.0000 C   0  0  0  0  0  0  0  0  0  0  0  0
    3.8875   -5.1458    0.0000 C   0  0  0  0  0  0  0  0  0  0  0  0
    1.2500   -4.4833    0.0000 C   0  0  0  0  0  0  0  0  0  0  0  0
    1.4417   -5.2750    0.0000 C   0  0  0  0  0  0  0  0  0  0  0  0
    2.0333   -3.2208    0.0000 O   0  0  0  0  0  0  0  0  0  0  0  0
    2.6875   -6.0625    0.0000 O   0  0  0  0  0  0  0  0  0  0  0  0
    3.5708   -5.9083    0.0000 O   0  0  0  0  0  0  0  0  0  0  0  0
    4.7042   -5.0458    0.0000 N   0  0  0  0  0  0  0  0  0  0  0  0
    5.8333   -4.1875    0.0000 C   0  0  0  0  0  0  0  0  0  0  0  0
    5.0167   -4.2958    0.0000 C   0  0  0  0  0  0  0  0  0  0  0  0
    8.6833   -3.0542    0.0000 C   0  0  0  0  0  0  0  0  0  0  0  0
    8.8542   -0.1542    0.0000 C   0  0  0  0  0  0  0  0  0  0  0  0
  2  1  1  0  0  0  0
  3 13  1  0  0  0  0
  4  1  1  0  0  0  0
  5  2  2  0  0  0  0
  6  1  1  0  0  0  0
  7  2  1  0  0  0  0
  8  3  1  0  0  0  0
  9  3  1  0  0  0  0
 10  6  2  0  0  0  0
 11  4  2  0  0  0  0
 12  5  1  0  0  0  0
 13 15  1  0  0  0  0
 14  7  1  0  0  0  0
 15 21  1  0  0  0  0
 16  8  1  0  0  0  0
 17  9  1  0  0  0  0
 18  8  2  0  0  0  0
 19  9  2  0  0  0  0
 20 15  2  0  0  0  0
 21 23  1  0  0  0  0
 22 12  1  0  0  0  0
 23 22  1  0  0  0  0
 24  6  1  0  0  0  0
 25 11  1  0  0  0  0
 10 11  1  0  0  0  0
 14 12  2  0  0  0  0
 16 17  1  0  0  0  0
M  END
> <IDNUMBER>
F6403-1733

> <Chemical_Name>
N-{2-[2-(3,5-dimethyl-1H-pyrazol-1-yl)-1,3-thiazol-4-yl]ethyl}-2-(2,5-dioxopyrrolidin-1-yl)acetamide

> <CAS>
1421450-85-2

> <PriceCoeff>
1.00

> <MW>
361.42

> <Description>
solid

> <FSP3>
0.44

> <clogP>
0.64

> <TPSA>
125.43

> <Acceptor>
5

> <Donor>
1

> <RotBonds>
6

> <HAC>
25

> <Collection>
General

$$$$
F2185-0121
  -ISIS-  06222304352D

 18 18  0  0  0  0  0  0  0  0999 V2000
    3.1042    0.3000    0.0000 N   0  0  0  0  0  0  0  0  0  0  0  0
    2.3542    0.6333    0.0000 C   0  0  0  0  0  0  0  0  0  0  0  0
    2.4333    1.4542    0.0000 N   0  0  0  0  0  0  0  0  0  0  0  0
    3.6542    0.9125    0.0000 C   0  0  0  0  0  0  0  0  0  0  0  0
    3.2417    1.6292    0.0000 O   0  0  0  0  0  0  0  0  0  0  0  0
    1.6417    0.2167    0.0000 C   0  0  0  0  0  0  0  0  0  0  0  0
    0.9250    0.6292    0.0000 C   0  0  0  0  0  0  0  0  0  0  0  0
    1.6417   -0.6125    0.0000 C   0  0  0  0  0  0  0  0  0  0  0  0
    0.2125   -0.6125    0.0000 C   0  0  0  0  0  0  0  0  0  0  0  0
    0.2125    0.2125    0.0000 C   0  0  0  0  0  0  0  0  0  0  0  0
    0.9250   -1.0250    0.0000 C   0  0  0  0  0  0  0  0  0  0  0  0
    6.4375    1.7958    0.0000 N   0  0  0  0  0  0  0  0  0  0  0  0
   -0.5042   -1.0250    0.0000 O   0  0  0  0  0  0  0  0  0  0  0  0
    4.4750    0.8292    0.0000 C   0  0  0  0  0  0  0  0  0  0  0  0
    5.8542    1.2083    0.0000 C   0  0  0  0  0  0  0  0  0  0  0  0
   -1.2167   -0.6125    0.0000 C   0  0  0  0  0  0  0  0  0  0  0  0
    5.0542    1.4208    0.0000 C   0  0  0  0  0  0  0  0  0  0  0  0
    7.9250    0.3833    0.0000 Cl  0  0  0  0  0  0  0  0  0  0  0  0
  3  2  2  0  0  0  0
  4  1  2  0  0  0  0
  5  4  1  0  0  0  0
  6  2  1  0  0  0  0
  7  6  2  0  0  0  0
  8  6  1  0  0  0  0
  9 10  2  0  0  0  0
 10  7  1  0  0  0  0
 11  8  2  0  0  0  0
 12 15  1  0  0  0  0
 13  9  1  0  0  0  0
 14  4  1  0  0  0  0
 15 17  1  0  0  0  0
 16 13  1  0  0  0  0
 17 14  1  0  0  0  0
  3  5  1  0  0  0  0
 11  9  1  0  0  0  0
  2  1  1  0  0  0  0
M  END
> <IDNUMBER>
F2185-0121

> <Chemical_Name>
3-[3-(4-methoxyphenyl)-1,2,4-oxadiazol-5-yl]propan-1-amine hydrochloride

> <CAS>
1374408-25-9

> <PriceCoeff>
1.50

> <MW>
233.27

> <Description>
solid

> <FSP3>
0.33

> <clogP>
1.07

> <TPSA>
74.17

> <Acceptor>
4

> <Donor>
1

> <RotBonds>
5

> <HAC>
17

> <Collection>
Advanced

> <Reference_compound>
CHEMBL4764062

> <Similarity>
0.8240

$$$$
F1468-0043
  -ISIS-  06222321452D

 20 22  0  0  0  0  0  0  0  0999 V2000
    1.7250   -1.1000    0.0000 C   0  0  0  0  0  0  0  0  0  0  0  0
    1.7250   -0.2917    0.0000 C   0  0  0  0  0  0  0  0  0  0  0  0
    1.0042   -1.4875    0.0000 N   0  0  3  0  0  0  0  0  0  0  0  0
    0.2667   -0.2917    0.0000 N   0  0  3  0  0  0  0  0  0  0  0  0
    0.2667   -1.1000    0.0000 C   0  0  0  0  0  0  0  0  0  0  0  0
    1.0042    0.1125    0.0000 C   0  0  0  0  0  0  0  0  0  0  0  0
    2.5042   -1.3417    0.0000 N   0  0  0  0  0  0  0  0  0  0  0  0
    2.5667    0.0208    0.0000 N   0  0  0  0  0  0  0  0  0  0  0  0
    2.9917   -0.6875    0.0000 C   0  0  0  0  0  0  0  0  0  0  0  0
   -0.4708   -1.4875    0.0000 O   0  0  0  0  0  0  0  0  0  0  0  0
    4.2375   -1.4042    0.0000 N   0  0  3  0  0  0  0  0  0  0  0  0
    1.0042    0.9208    0.0000 O   0  0  0  0  0  0  0  0  0  0  0  0
    3.8250   -0.6875    0.0000 C   0  0  0  0  0  0  0  0  0  0  0  0
    1.0042   -2.2917    0.0000 C   0  0  0  0  0  0  0  0  0  0  0  0
   -0.4500    0.1250    0.0000 C   0  0  0  0  0  0  0  0  0  0  0  0
    5.0542   -2.8500    0.0000 O   0  0  0  0  0  0  0  0  0  0  0  0
    3.8167   -2.1250    0.0000 C   0  0  0  0  0  0  0  0  0  0  0  0
    5.0625   -1.4042    0.0000 C   0  0  0  0  0  0  0  0  0  0  0  0
    5.4750   -2.1292    0.0000 C   0  0  0  0  0  0  0  0  0  0  0  0
    4.2250   -2.8417    0.0000 C   0  0  0  0  0  0  0  0  0  0  0  0
  2  1  2  0  0  0  0
  3  1  1  0  0  0  0
  4  5  1  0  0  0  0
  5  3  1  0  0  0  0
  6  2  1  0  0  0  0
  7  1  1  0  0  0  0
  8  2  1  0  0  0  0
  9  7  2  0  0  0  0
 10  5  2  0  0  0  0
 11 13  1  0  0  0  0
 12  6  2  0  0  0  0
 13  9  1  0  0  0  0
 14  3  1  0  0  0  0
 15  4  1  0  0  0  0
 16 19  1  0  0  0  0
 17 11  1  0  0  0  0
 18 11  1  0  0  0  0
 19 18  1  0  0  0  0
 20 17  1  0  0  0  0
  8  9  1  0  0  0  0
  6  4  1  0  0  0  0
 16 20  1  0  0  0  0
M  END
> <IDNUMBER>
F1468-0043

> <Chemical_Name>
1,3-dimethyl-8-[(morpholin-4-yl)methyl]-2,3,6,7-tetrahydro-1H-purine-2,6-dione

> <CAS>
108871-83-6

> <PriceCoeff>
1.50

> <MW>
279.30

> <Description>
solid

> <FSP3>
0.58

> <clogP>
-0.29

> <TPSA>
71.33

> <Acceptor>
5

> <Donor>
3

> <RotBonds>
2

> <HAC>
20

> <Collection>
Advanced

> <Reference_compound>
CHEMBL190

> <Similarity>
0.8120

$$$$
F2582-0313
  -ISIS-  06222321462D

 17 19  0  0  0  0  0  0  0  0999 V2000
    5.4917   -3.9667    0.0000 C   0  0  0  0  0  0  0  0  0  0  0  0
    5.4792   -3.1417    0.0000 C   0  0  0  0  0  0  0  0  0  0  0  0
    6.2750   -4.2250    0.0000 N   0  0  0  0  0  0  0  0  0  0  0  0
    6.2750   -2.8792    0.0000 N   0  0  3  0  0  0  0  0  0  0  0  0
    6.7625   -3.5375    0.0000 C   0  0  0  0  0  0  0  0  0  0  0  0
    4.7667   -4.4000    0.0000 N   0  0  3  0  0  0  0  0  0  0  0  0
    4.0625   -3.1417    0.0000 N   0  0  3  0  0  0  0  0  0  0  0  0
    4.0500   -3.9667    0.0000 C   0  0  0  0  0  0  0  0  0  0  0  0
    4.7917   -2.7292    0.0000 C   0  0  0  0  0  0  0  0  0  0  0  0
    7.5417   -3.2792    0.0000 N   0  0  0  0  0  0  0  0  0  0  0  0
    6.7542   -2.2125    0.0000 C   0  0  0  0  0  0  0  0  0  0  0  0
    7.5375   -2.4542    0.0000 C   0  0  0  0  0  0  0  0  0  0  0  0
    3.3042   -4.3625    0.0000 O   0  0  0  0  0  0  0  0  0  0  0  0
    4.7667   -1.9250    0.0000 O   0  0  0  0  0  0  0  0  0  0  0  0
    4.7667   -5.2167    0.0000 C   0  0  0  0  0  0  0  0  0  0  0  0
    3.3500   -2.7167    0.0000 C   0  0  0  0  0  0  0  0  0  0  0  0
    8.1917   -1.9750    0.0000 C   0  0  0  0  0  0  0  0  0  0  0  0
  2  1  2  0  0  0  0
  3  1  1  0  0  0  0
  4  2  1  0  0  0  0
  5  3  2  0  0  0  0
  6  1  1  0  0  0  0
  7  8  1  0  0  0  0
  8  6  1  0  0  0  0
  9  2  1  0  0  0  0
 10  5  1  0  0  0  0
 11  4  1  0  0  0  0
 12 10  1  0  0  0  0
 13  8  2  0  0  0  0
 14  9  2  0  0  0  0
 15  6  1  0  0  0  0
 16  7  1  0  0  0  0
 17 12  1  0  0  0  0
  5  4  1  0  0  0  0
  9  7  1  0  0  0  0
 11 12  2  0  0  0  0
M  END
> <IDNUMBER>
F2582-0313

> <Chemical_Name>
1,3,7-trimethyl-1H,2H,3H,4H,8H-imidazo[1,2-g]purine-2,4-dione

> <CAS>
19977-26-5

> <PriceCoeff>
1.50

> <MW>
233.23

> <Description>
solid

> <FSP3>
0.30

> <clogP>
0.77

> <TPSA>
73.71

> <Acceptor>
3

> <Donor>
1

> <RotBonds>
0

> <HAC>
17

> <Collection>
Advanced

> <Reference_compound>
CHEMBL190

> <Similarity>
0.8330

$$$$
F6401-0065
  -ISIS-  06222321462D

 23 25  0  0  0  0  0  0  0  0999 V2000
    5.0375   -1.6667    0.0000 N   0  0  3  0  0  0  0  0  0  0  0  0
    4.8292   -2.6417    0.0000 C   0  0  0  0  0  0  0  0  0  0  0  0
    4.2917   -1.0042    0.0000 C   0  0  0  0  0  0  0  0  0  0  0  0
    7.5375    0.9750    0.0000 C   0  0  0  0  0  0  0  0  0  0  0  0
    8.4542    1.3958    0.0000 N   0  0  0  0  0  0  0  0  0  0  0  0
    6.8667    1.7208    0.0000 C   0  0  0  0  0  0  0  0  0  0  0  0
    3.1375   -2.2917    0.0000 C   0  0  3  0  0  0  0  0  0  0  0  0
    7.3292   -0.0042    0.0000 N   0  0  0  0  0  0  0  0  0  0  0  0
    2.1875   -2.6042    0.0000 C   0  0  0  0  0  0  0  0  0  0  0  0
    6.3792   -0.3125    0.0000 C   0  0  0  0  0  0  0  0  0  0  0  0
    8.3417    2.3833    0.0000 O   0  0  0  0  0  0  0  0  0  0  0  0
    3.8875   -2.9625    0.0000 C   0  0  0  0  0  0  0  0  0  0  0  0
    3.3417   -1.3125    0.0000 C   0  0  0  0  0  0  0  0  0  0  0  0
    6.1750   -1.2917    0.0000 C   0  0  0  0  0  0  0  0  0  0  0  0
    7.3750    2.5958    0.0000 C   0  0  0  0  0  0  0  0  0  0  0  0
    1.8792   -3.5667    0.0000 S   0  0  0  0  0  0  0  0  0  0  0  0
    4.4167   -0.4167    0.0000 O   0  0  0  0  0  0  0  0  0  0  0  0
    5.5792   -3.3125    0.0000 O   0  0  0  0  0  0  0  0  0  0  0  0
    1.3792   -2.0250    0.0000 C   0  0  0  0  0  0  0  0  0  0  0  0
    0.8792   -3.5667    0.0000 C   0  0  0  0  0  0  0  0  0  0  0  0
    5.6417    0.3500    0.0000 O   0  0  0  0  0  0  0  0  0  0  0  0
    0.5667   -2.6042    0.0000 C   0  0  0  0  0  0  0  0  0  0  0  0
    6.9667    3.5083    0.0000 C   0  0  0  0  0  0  0  0  0  0  0  0
  2  1  1  0  0  0  0
  3  1  1  0  0  0  0
  4  8  1  0  0  0  0
  5  4  2  0  0  0  0
  6  4  1  0  0  0  0
  7 13  1  0  0  0  0
  8 10  1  0  0  0  0
  9  7  1  0  0  0  0
 10 14  1  0  0  0  0
 11  5  1  0  0  0  0
 12  2  1  0  0  0  0
 13  3  1  0  0  0  0
 14  1  1  0  0  0  0
 15  6  2  0  0  0  0
 16  9  1  0  0  0  0
 17  3  2  0  0  0  0
 18  2  2  0  0  0  0
 19  9  2  0  0  0  0
 20 16  1  0  0  0  0
 21 10  2  0  0  0  0
 22 19  1  0  0  0  0
 23 15  1  0  0  0  0
  7 12  1  0  0  0  0
 11 15  1  0  0  0  0
 22 20  2  0  0  0  0
M  END
> <IDNUMBER>
F6401-0065

> <Chemical_Name>
2-[2,6-dioxo-4-(thiophen-2-yl)piperidin-1-yl]-N-(5-methyl-1,2-oxazol-3-yl)acetamide

> <CAS>
1396845-74-1

> <PriceCoeff>
1.00

> <MW>
333.36

> <Description>
solid

> <FSP3>
0.33

> <clogP>
1.66

> <TPSA>
120.75

> <Acceptor>
5

> <Donor>
1

> <RotBonds>
4

> <HAC>
23

> <Collection>
General

$$$$
F3205-0055
  -ISIS-  06222321442D

 20 22  0  0  0  0  0  0  0  0999 V2000
   -1.5125    0.1208    0.0000 N   0  0  3  0  0  0  0  0  0  0  0  0
   -0.9958   -0.5250    0.0000 C   0  0  0  0  0  0  0  0  0  0  0  0
   -1.0625    0.8208    0.0000 C   0  0  0  0  0  0  0  0  0  0  0  0
   -0.2208   -0.2292    0.0000 C   0  0  3  0  0  0  0  0  0  0  0  0
   -0.2625    0.6000    0.0000 C   0  0  0  0  0  0  0  0  0  0  0  0
    0.4667   -0.6792    0.0000 N   0  0  3  0  0  0  0  0  0  0  0  0
    1.8417   -1.5875    0.0000 N   0  0  3  0  0  0  0  0  0  0  0  0
   -1.2083   -1.3167    0.0000 O   0  0  0  0  0  0  0  0  0  0  0  0
   -1.3583    1.5875    0.0000 O   0  0  0  0  0  0  0  0  0  0  0  0
    0.4167   -1.5042    0.0000 C   0  0  0  0  0  0  0  0  0  0  0  0
    1.2042   -0.3042    0.0000 C   0  0  0  0  0  0  0  0  0  0  0  0
    1.8917   -0.7625    0.0000 C   0  0  0  0  0  0  0  0  0  0  0  0
    1.1042   -1.9542    0.0000 C   0  0  0  0  0  0  0  0  0  0  0  0
    2.5292   -2.0417    0.0000 C   0  0  0  0  0  0  0  0  0  0  0  0
   -2.3375    0.0833    0.0000 C   0  0  0  0  0  0  0  0  0  0  0  0
    2.4792   -2.8625    0.0000 C   0  0  0  0  0  0  0  0  0  0  0  0
    3.2667   -1.6667    0.0000 C   0  0  0  0  0  0  0  0  0  0  0  0
    3.9542   -2.1167    0.0000 C   0  0  0  0  0  0  0  0  0  0  0  0
    3.1667   -3.3167    0.0000 C   0  0  0  0  0  0  0  0  0  0  0  0
    3.9125   -2.9500    0.0000 C   0  0  0  0  0  0  0  0  0  0  0  0
  2  1  1  0  0  0  0
  3  1  1  0  0  0  0
  4  2  1  0  0  0  0
  5  3  1  0  0  0  0
  6  4  1  0  0  0  0
  7 12  1  0  0  0  0
  8  2  2  0  0  0  0
  9  3  2  0  0  0  0
 10  6  1  0  0  0  0
 11  6  1  0  0  0  0
 12 11  1  0  0  0  0
 13 10  1  0  0  0  0
 14  7  1  0  0  0  0
 15  1  1  0  0  0  0
 16 14  2  0  0  0  0
 17 14  1  0  0  0  0
 18 17  2  0  0  0  0
 19 16  1  0  0  0  0
 20 18  1  0  0  0  0
  5  4  1  0  0  0  0
  7 13  1  0  0  0  0
 20 19  2  0  0  0  0
M  END
> <IDNUMBER>
F3205-0055

> <Chemical_Name>
1-methyl-3-(4-phenylpiperazin-1-yl)pyrrolidine-2,5-dione

> <CAS>
313378-65-3

> <PriceCoeff>
1.50

> <MW>
273.33

> <Description>
solid

> <FSP3>
0.47

> <clogP>
2.35

> <TPSA>
43.86

> <Acceptor>
3

> <Donor>
2

> <RotBonds>
2

> <HAC>
20

> <Collection>
Advanced

$$$$
F6419-0068
  -ISIS-  06222321462D

 24 26  0  0  0  0  0  0  0  0999 V2000
   -5.2833    2.5708    0.0000 N   0  0  3  0  0  0  0  0  0  0  0  0
   -3.8625    4.2125    0.0000 N   0  0  3  0  0  0  0  0  0  0  0  0
   -4.5833    3.8000    0.0000 C   0  0  0  0  0  0  0  0  0  0  0  0
   -4.5792    2.9875    0.0000 C   0  0  0  0  0  0  0  0  0  0  0  0
   -5.3708    1.7458    0.0000 C   0  0  0  0  0  0  0  0  0  0  0  0
   -6.0292    2.9000    0.0000 C   0  0  0  0  0  0  0  0  0  0  0  0
   -3.1500    6.2750    0.0000 C   0  0  0  0  0  0  0  0  0  0  0  0
   -3.8625    5.0417    0.0000 C   0  0  0  0  0  0  0  0  0  0  0  0
   -3.1500    5.4500    0.0000 C   0  0  3  0  0  0  0  0  0  0  0  0
   -2.4458    6.6917    0.0000 C   0  0  0  0  0  0  0  0  0  0  0  0
   -3.8750    6.6917    0.0000 C   0  0  0  0  0  0  0  0  0  0  0  0
   -2.4333    5.0333    0.0000 O   0  0  0  0  0  0  0  0  0  0  0  0
   -5.2958    4.2125    0.0000 O   0  0  0  0  0  0  0  0  0  0  0  0
   -2.4375    7.5167    0.0000 C   0  0  0  0  0  0  0  0  0  0  0  0
   -3.8750    7.5167    0.0000 C   0  0  0  0  0  0  0  0  0  0  0  0
   -6.5792    2.2833    0.0000 C   0  0  0  0  0  0  0  0  0  0  0  0
   -6.1667    1.5708    0.0000 C   0  0  0  0  0  0  0  0  0  0  0  0
   -6.2042    3.7083    0.0000 O   0  0  0  0  0  0  0  0  0  0  0  0
   -4.7500    1.1833    0.0000 O   0  0  0  0  0  0  0  0  0  0  0  0
   -3.1625    7.9292    0.0000 C   0  0  0  0  0  0  0  0  0  0  0  0
   -3.1458    3.8000    0.0000 C   0  0  0  0  0  0  0  0  0  0  0  0
   -1.7250    7.9375    0.0000 Cl  0  0  0  0  0  0  0  0  0  0  0  0
   -4.5958    7.9375    0.0000 Cl  0  0  0  0  0  0  0  0  0  0  0  0
   -2.4333    4.2167    0.0000 C   0  0  0  0  0  0  0  0  0  0  0  0
  2  3  1  0  0  0  0
  3  4  1  0  0  0  0
  4  1  1  0  0  0  0
  5  1  1  0  0  0  0
  6  1  1  0  0  0  0
  7  9  1  0  0  0  0
  8  2  1  0  0  0  0
  9  8  1  0  0  0  0
 10  7  2  0  0  0  0
 11  7  1  0  0  0  0
 12 24  1  0  0  0  0
 13  3  2  0  0  0  0
 14 10  1  0  0  0  0
 15 11  2  0  0  0  0
 16  6  1  0  0  0  0
 17  5  1  0  0  0  0
 18  6  2  0  0  0  0
 19  5  2  0  0  0  0
 20 15  1  0  0  0  0
 21  2  1  0  0  0  0
 22 14  1  0  0  0  0
 23 15  1  0  0  0  0
 24 21  1  0  0  0  0
 16 17  1  0  0  0  0
 12  9  1  0  0  0  0
 14 20  2  0  0  0  0
M  END
> <IDNUMBER>
F6419-0068

> <Chemical_Name>
1-{2-[2-(3,5-dichlorophenyl)morpholin-4-yl]-2-oxoethyl}pyrrolidine-2,5-dione

> <CAS>
1421517-75-0

> <PriceCoeff>
1.50

> <MW>
371.22

> <Description>
oil

> <FSP3>
0.44

> <clogP>
2.29

> <TPSA>
66.92

> <Acceptor>
4

> <Donor>
0

> <RotBonds>
4

> <HAC>
24

> <Collection>
Advanced

$$$$
F6473-3923
  -ISIS-  06222321462D

 23 25  0  0  0  0  0  0  0  0999 V2000
   -3.7458    3.6958    0.0000 S   0  0  3  0  0  0  0  0  0  0  0  0
   -3.0333    4.1042    0.0000 N   0  0  3  0  0  0  0  0  0  0  0  0
   -1.3083    5.1042    0.0000 N   0  0  3  0  0  0  0  0  0  0  0  0
   -4.4583    3.2917    0.0000 C   0  0  0  0  0  0  0  0  0  0  0  0
   -2.0333    4.6875    0.0000 C   0  0  3  0  0  0  0  0  0  0  0  0
   -2.8208    4.9000    0.0000 C   0  0  0  0  0  0  0  0  0  0  0  0
   -2.2458    3.8958    0.0000 C   0  0  0  0  0  0  0  0  0  0  0  0
   -0.5583    4.7667    0.0000 C   0  0  0  0  0  0  0  0  0  0  0  0
   -1.2250    5.9167    0.0000 C   0  0  0  0  0  0  0  0  0  0  0  0
   -3.3375    2.9833    0.0000 O   0  0  0  0  0  0  0  0  0  0  0  0
   -4.1583    4.4042    0.0000 O   0  0  0  0  0  0  0  0  0  0  0  0
   -5.1708    3.7083    0.0000 C   0  0  0  0  0  0  0  0  0  0  0  0
   -0.0083    5.3792    0.0000 C   0  0  0  0  0  0  0  0  0  0  0  0
   -0.4208    6.0917    0.0000 C   0  0  0  0  0  0  0  0  0  0  0  0
   -0.3875    3.9625    0.0000 O   0  0  0  0  0  0  0  0  0  0  0  0
   -1.8417    6.4708    0.0000 O   0  0  0  0  0  0  0  0  0  0  0  0
   -4.4667    2.4583    0.0000 C   0  0  0  0  0  0  0  0  0  0  0  0
   -5.1625    4.5250    0.0000 O   0  0  0  0  0  0  0  0  0  0  0  0
   -5.8833    3.3000    0.0000 C   0  0  0  0  0  0  0  0  0  0  0  0
   -5.8750    4.9417    0.0000 C   0  0  0  0  0  0  0  0  0  0  0  0
   -5.1833    2.0500    0.0000 C   0  0  0  0  0  0  0  0  0  0  0  0
   -6.5875    4.5333    0.0000 C   0  0  0  0  0  0  0  0  0  0  0  0
   -5.8917    2.4708    0.0000 C   0  0  0  0  0  0  0  0  0  0  0  0
  2  1  1  0  0  0  0
  3  5  1  0  0  0  0
  4  1  1  0  0  0  0
  5  7  1  0  0  0  0
  6  2  1  0  0  0  0
  7  2  1  0  0  0  0
  8  3  1  0  0  0  0
  9  3  1  0  0  0  0
 10  1  2  0  0  0  0
 11  1  2  0  0  0  0
 12  4  2  0  0  0  0
 13  8  1  0  0  0  0
 14  9  1  0  0  0  0
 15  8  2  0  0  0  0
 16  9  2  0  0  0  0
 17  4  1  0  0  0  0
 18 12  1  0  0  0  0
 19 12  1  0  0  0  0
 20 18  1  0  0  0  0
 21 17  2  0  0  0  0
 22 20  1  0  0  0  0
 23 21  1  0  0  0  0
  6  5  1  0  0  0  0
 19 23  2  0  0  0  0
 14 13  1  0  0  0  0
M  END
> <IDNUMBER>
F6473-3923

> <Chemical_Name>
1-[1-(2-ethoxybenzenesulfonyl)azetidin-3-yl]pyrrolidine-2,5-dione

> <CAS>
1795085-73-2

> <PriceCoeff>
1.00

> <MW>
338.38

> <Description>
solid

> <FSP3>
0.47

> <clogP>
0.98

> <TPSA>
92.37

> <Acceptor>
5

> <Donor>
0

> <RotBonds>
5

> <HAC>
23

> <Collection>
General

$$$$
F6439-2365
  -ISIS-  06222321462D

 27 30  0  0  0  0  0  0  0  0999 V2000
   -5.2833    2.5708    0.0000 N   0  0  3  0  0  0  0  0  0  0  0  0
   -3.1500    6.2792    0.0000 N   0  0  3  0  0  0  0  0  0  0  0  0
   -2.4833    6.7667    0.0000 N   0  0  0  0  0  0  0  0  0  0  0  0
   -3.8250    6.7667    0.0000 C   0  0  0  0  0  0  0  0  0  0  0  0
   -3.5708    7.5500    0.0000 C   0  0  0  0  0  0  0  0  0  0  0  0
   -2.7375    7.5542    0.0000 C   0  0  0  0  0  0  0  0  0  0  0  0
   -6.0292    2.9000    0.0000 C   0  0  0  0  0  0  0  0  0  0  0  0
   -5.3708    1.7458    0.0000 C   0  0  0  0  0  0  0  0  0  0  0  0
   -4.6083    6.5000    0.0000 C   0  0  3  0  0  0  0  0  0  0  0  0
   -5.1583    5.8792    0.0000 C   0  0  0  0  0  0  0  0  0  0  0  0
   -5.4125    6.6750    0.0000 C   0  0  0  0  0  0  0  0  0  0  0  0
   -4.5833    2.9875    0.0000 C   0  0  0  0  0  0  0  0  0  0  0  0
   -4.5833    3.8000    0.0000 C   0  0  0  0  0  0  0  0  0  0  0  0
   -6.5750    2.2833    0.0000 C   0  0  0  0  0  0  0  0  0  0  0  0
   -6.1667    1.5708    0.0000 C   0  0  0  0  0  0  0  0  0  0  0  0
   -2.2583    8.2167    0.0000 C   0  0  0  0  0  0  0  0  0  0  0  0
   -4.7500    1.1833    0.0000 O   0  0  0  0  0  0  0  0  0  0  0  0
   -6.2042    3.7083    0.0000 O   0  0  0  0  0  0  0  0  0  0  0  0
   -3.1500    5.4500    0.0000 C   0  0  0  0  0  0  0  0  0  0  0  0
   -1.2958    9.5667    0.0000 N   0  0  0  0  0  0  0  0  0  0  0  0
   -5.3000    4.2042    0.0000 O   0  0  0  0  0  0  0  0  0  0  0  0
   -3.8625    4.2042    0.0000 N   0  0  0  0  0  0  0  0  0  0  0  0
   -3.8625    5.0292    0.0000 C   0  0  0  0  0  0  0  0  0  0  0  0
   -0.9583    8.8167    0.0000 C   0  0  0  0  0  0  0  0  0  0  0  0
   -2.1208    9.6500    0.0000 C   0  0  0  0  0  0  0  0  0  0  0  0
   -1.4333    8.1417    0.0000 C   0  0  0  0  0  0  0  0  0  0  0  0
   -2.6083    8.9750    0.0000 C   0  0  0  0  0  0  0  0  0  0  0  0
  2 19  1  0  0  0  0
  3  2  1  0  0  0  0
  4  2  1  0  0  0  0
  5  4  2  0  0  0  0
  6  3  2  0  0  0  0
  7  1  1  0  0  0  0
  8  1  1  0  0  0  0
  9  4  1  0  0  0  0
 10  9  1  0  0  0  0
 11  9  1  0  0  0  0
 12  1  1  0  0  0  0
 13 12  1  0  0  0  0
 14  7  1  0  0  0  0
 15  8  1  0  0  0  0
 16  6  1  0  0  0  0
 17  8  2  0  0  0  0
 18  7  2  0  0  0  0
 19 23  1  0  0  0  0
 20 25  1  0  0  0  0
 21 13  2  0  0  0  0
 22 13  1  0  0  0  0
 23 22  1  0  0  0  0
 24 26  1  0  0  0  0
 25 27  2  0  0  0  0
 26 16  2  0  0  0  0
 27 16  1  0  0  0  0
 14 15  1  0  0  0  0
  5  6  1  0  0  0  0
 11 10  1  0  0  0  0
 20 24  2  0  0  0  0
M  END
> <IDNUMBER>
F6439-2365

> <Chemical_Name>
N-{2-[5-cyclopropyl-3-(pyridin-4-yl)-1H-pyrazol-1-yl]ethyl}-2-(2,5-dioxopyrrolidin-1-yl)acetamide

> <CAS>
1797673-05-2

> <PriceCoeff>
1.00

> <MW>
367.40

> <Description>
solid

> <FSP3>
0.42

> <clogP>
0.75

> <TPSA>
97.19

> <Acceptor>
5

> <Donor>
2

> <RotBonds>
7

> <HAC>
27

> <Collection>
General

$$$$
F1468-0044
  -ISIS-  06222321452D

 22 24  0  0  0  0  0  0  0  0999 V2000
    1.7250   -1.1000    0.0000 C   0  0  0  0  0  0  0  0  0  0  0  0
    1.7250   -0.2917    0.0000 C   0  0  0  0  0  0  0  0  0  0  0  0
    1.0042   -1.4875    0.0000 N   0  0  3  0  0  0  0  0  0  0  0  0
    0.2667   -0.2917    0.0000 N   0  0  3  0  0  0  0  0  0  0  0  0
    0.2667   -1.1000    0.0000 C   0  0  0  0  0  0  0  0  0  0  0  0
    1.0042    0.1125    0.0000 C   0  0  0  0  0  0  0  0  0  0  0  0
    2.5042   -1.3417    0.0000 N   0  0  0  0  0  0  0  0  0  0  0  0
    2.5667    0.0208    0.0000 N   0  0  0  0  0  0  0  0  0  0  0  0
    2.9917   -0.6875    0.0000 C   0  0  0  0  0  0  0  0  0  0  0  0
    4.2375   -1.4042    0.0000 N   0  0  3  0  0  0  0  0  0  0  0  0
   -0.4708   -1.4875    0.0000 O   0  0  0  0  0  0  0  0  0  0  0  0
    5.0542   -2.8500    0.0000 N   0  0  3  0  0  0  0  0  0  0  0  0
    1.0042    0.9208    0.0000 O   0  0  0  0  0  0  0  0  0  0  0  0
    3.8250   -0.6875    0.0000 C   0  0  0  0  0  0  0  0  0  0  0  0
    1.0042   -2.2917    0.0000 C   0  0  0  0  0  0  0  0  0  0  0  0
   -0.4500    0.1250    0.0000 C   0  0  0  0  0  0  0  0  0  0  0  0
    3.8167   -2.1250    0.0000 C   0  0  0  0  0  0  0  0  0  0  0  0
    5.0625   -1.4042    0.0000 C   0  0  0  0  0  0  0  0  0  0  0  0
    5.4750   -2.1292    0.0000 C   0  0  0  0  0  0  0  0  0  0  0  0
    4.2250   -2.8417    0.0000 C   0  0  0  0  0  0  0  0  0  0  0  0
    5.4625   -3.5667    0.0000 C   0  0  0  0  0  0  0  0  0  0  0  0
    6.2875   -3.5667    0.0000 C   0  0  0  0  0  0  0  0  0  0  0  0
  2  1  2  0  0  0  0
  3  1  1  0  0  0  0
  4  5  1  0  0  0  0
  5  3  1  0  0  0  0
  6  2  1  0  0  0  0
  7  1  1  0  0  0  0
  8  2  1  0  0  0  0
  9  7  2  0  0  0  0
 10 14  1  0  0  0  0
 11  5  2  0  0  0  0
 12 19  1  0  0  0  0
 13  6  2  0  0  0  0
 14  9  1  0  0  0  0
 15  3  1  0  0  0  0
 16  4  1  0  0  0  0
 17 10  1  0  0  0  0
 18 10  1  0  0  0  0
 19 18  1  0  0  0  0
 20 17  1  0  0  0  0
 21 12  1  0  0  0  0
 22 21  1  0  0  0  0
  8  9  1  0  0  0  0
  6  4  1  0  0  0  0
 12 20  1  0  0  0  0
M  END
> <IDNUMBER>
F1468-0044

> <Chemical_Name>
8-[(4-ethylpiperazin-1-yl)methyl]-1,3-dimethyl-2,3,6,7-tetrahydro-1H-purine-2,6-dione

> <CAS>
585562-22-7

> <PriceCoeff>
1.50

> <MW>
306.36

> <Description>
solid

> <FSP3>
0.64

> <clogP>
0.80

> <TPSA>
75.78

> <Acceptor>
6

> <Donor>
4

> <RotBonds>
3

> <HAC>
22

> <Collection>
Advanced

> <Reference_compound>
CHEMBL190

> <Similarity>
0.8350

$$$$
F6110-1933
  -ISIS-  06222321462D

 26 28  0  0  0  0  0  0  0  0999 V2000
   -1.7333    6.2917    0.0000 N   0  0  3  0  0  0  0  0  0  0  0  0
   -3.8625    4.2125    0.0000 N   0  0  3  0  0  0  0  0  0  0  0  0
   -4.5833    3.8000    0.0000 C   0  0  0  0  0  0  0  0  0  0  0  0
   -1.7458    7.9542    0.0000 N   0  0  3  0  0  0  0  0  0  0  0  0
   -1.0208    6.7208    0.0000 C   0  0  3  0  0  0  0  0  0  0  0  0
   -1.7250    5.4667    0.0000 C   0  0  0  0  0  0  0  0  0  0  0  0
   -1.0250    7.5542    0.0000 C   0  0  0  0  0  0  0  0  0  0  0  0
   -2.4500    6.7125    0.0000 C   0  0  0  0  0  0  0  0  0  0  0  0
   -3.1458    3.8000    0.0000 C   0  0  0  0  0  0  0  0  0  0  0  0
   -3.8625    5.0417    0.0000 C   0  0  0  0  0  0  0  0  0  0  0  0
   -4.5833    2.9792    0.0000 C   0  0  0  0  0  0  0  0  0  0  0  0
   -5.2875    4.2042    0.0000 O   0  0  0  0  0  0  0  0  0  0  0  0
   -5.2958    2.5583    0.0000 O   0  0  0  0  0  0  0  0  0  0  0  0
   -2.4583    7.5417    0.0000 C   0  0  0  0  0  0  0  0  0  0  0  0
   -5.3000    1.7208    0.0000 C   0  0  0  0  0  0  0  0  0  0  0  0
   -2.4458    5.0333    0.0000 C   0  0  3  0  0  0  0  0  0  0  0  0
   -6.0125    1.3333    0.0000 C   0  0  0  0  0  0  0  0  0  0  0  0
   -3.1583    5.4542    0.0000 C   0  0  0  0  0  0  0  0  0  0  0  0
   -2.4250    4.2167    0.0000 C   0  0  0  0  0  0  0  0  0  0  0  0
   -6.0042    0.4958    0.0000 C   0  0  0  0  0  0  0  0  0  0  0  0
   -1.7583    8.7792    0.0000 C   0  0  0  0  0  0  0  0  0  0  0  0
   -4.5833    0.4958    0.0000 C   0  0  0  0  0  0  0  0  0  0  0  0
   -0.2958    6.3167    0.0000 C   0  0  0  0  0  0  0  0  0  0  0  0
   -4.5917    1.3125    0.0000 C   0  0  0  0  0  0  0  0  0  0  0  0
   -5.3125    0.0833    0.0000 C   0  0  0  0  0  0  0  0  0  0  0  0
   -6.7292    0.0958    0.0000 C   0  0  0  0  0  0  0  0  0  0  0  0
  2  9  1  0  0  0  0
  3  2  1  0  0  0  0
  4 14  1  0  0  0  0
  5  1  1  0  0  0  0
  6  1  1  0  0  0  0
  7  5  1  0  0  0  0
  8  1  1  0  0  0  0
  9 19  1  0  0  0  0
 10 18  1  0  0  0  0
 11  3  1  0  0  0  0
 12  3  2  0  0  0  0
 13 11  1  0  0  0  0
 14  8  1  0  0  0  0
 15 13  1  0  0  0  0
 16  6  1  0  0  0  0
 17 15  2  0  0  0  0
 18 16  1  0  0  0  0
 19 16  1  0  0  0  0
 20 17  1  0  0  0  0
 21  4  1  0  0  0  0
 22 24  2  0  0  0  0
 23  5  1  0  0  0  0
 24 15  1  0  0  0  0
 25 22  1  0  0  0  0
 26 20  1  0  0  0  0
  7  4  1  0  0  0  0
 10  2  1  0  0  0  0
 25 20  2  0  0  0  0
M  END
> <IDNUMBER>
F6110-1933

> <Chemical_Name>
1-{4-[(2,4-dimethylpiperazin-1-yl)methyl]piperidin-1-yl}-2-(3-methylphenoxy)ethan-1-one

> <CAS>
1421472-39-0

> <PriceCoeff>
1.50

> <MW>
359.51

> <Description>
oil

> <FSP3>
0.67

> <clogP>
1.55

> <TPSA>
36.02

> <Acceptor>
4

> <Donor>
2

> <RotBonds>
6

> <HAC>
26

> <Collection>
Advanced

> <Reference_compound>
CHEMBL3965046

> <Similarity>
0.8100

$$$$
F6442-2664
  -ISIS-  06222321462D

 24 26  0  0  0  0  0  0  0  0999 V2000
   -1.4458    5.2042    0.0000 S   0  0  3  0  0  0  0  0  0  0  0  0
   -4.5833    2.5708    0.0000 N   0  0  3  0  0  0  0  0  0  0  0  0
   -2.1583    4.7917    0.0000 C   0  0  3  0  0  0  0  0  0  0  0  0
   -3.1583    4.2042    0.0000 N   0  0  3  0  0  0  0  0  0  0  0  0
   -3.8708    3.8000    0.0000 C   0  0  0  0  0  0  0  0  0  0  0  0
   -3.8708    2.9833    0.0000 C   0  0  0  0  0  0  0  0  0  0  0  0
   -4.6708    1.7458    0.0000 C   0  0  0  0  0  0  0  0  0  0  0  0
   -5.3208    2.9000    0.0000 C   0  0  0  0  0  0  0  0  0  0  0  0
   -2.3708    4.0000    0.0000 C   0  0  0  0  0  0  0  0  0  0  0  0
   -2.9458    5.0000    0.0000 C   0  0  0  0  0  0  0  0  0  0  0  0
   -0.7333    5.6167    0.0000 C   0  0  0  0  0  0  0  0  0  0  0  0
   -1.8583    5.9167    0.0000 O   0  0  0  0  0  0  0  0  0  0  0  0
   -1.0333    4.4833    0.0000 O   0  0  0  0  0  0  0  0  0  0  0  0
   -4.5833    4.2042    0.0000 O   0  0  0  0  0  0  0  0  0  0  0  0
   -5.4583    1.5833    0.0000 C   0  0  0  0  0  0  0  0  0  0  0  0
   -5.8708    2.2958    0.0000 C   0  0  0  0  0  0  0  0  0  0  0  0
   -4.0458    1.1833    0.0000 O   0  0  0  0  0  0  0  0  0  0  0  0
   -5.4875    3.7083    0.0000 O   0  0  0  0  0  0  0  0  0  0  0  0
   -0.0125    5.2042    0.0000 C   0  0  0  0  0  0  0  0  0  0  0  0
   -0.7375    6.4417    0.0000 C   0  0  0  0  0  0  0  0  0  0  0  0
    0.7000    6.4500    0.0000 C   0  0  0  0  0  0  0  0  0  0  0  0
   -0.0208    6.8542    0.0000 C   0  0  0  0  0  0  0  0  0  0  0  0
    0.7000    5.6167    0.0000 C   0  0  0  0  0  0  0  0  0  0  0  0
    1.4042    6.8542    0.0000 Cl  0  0  0  0  0  0  0  0  0  0  0  0
  2  6  1  0  0  0  0
  3  1  1  0  0  0  0
  4 10  1  0  0  0  0
  5  4  1  0  0  0  0
  6  5  1  0  0  0  0
  7  2  1  0  0  0  0
  8  2  1  0  0  0  0
  9  3  1  0  0  0  0
 10  3  1  0  0  0  0
 11  1  1  0  0  0  0
 12  1  2  0  0  0  0
 13  1  2  0  0  0  0
 14  5  2  0  0  0  0
 15  7  1  0  0  0  0
 16  8  1  0  0  0  0
 17  7  2  0  0  0  0
 18  8  2  0  0  0  0
 19 11  2  0  0  0  0
 20 11  1  0  0  0  0
 21 22  1  0  0  0  0
 22 20  2  0  0  0  0
 23 19  1  0  0  0  0
 24 21  1  0  0  0  0
  4  9  1  0  0  0  0
 21 23  2  0  0  0  0
 15 16  1  0  0  0  0
M  END
> <IDNUMBER>
F6442-2664

> <Chemical_Name>
1-{2-[3-(4-chlorobenzenesulfonyl)azetidin-1-yl]-2-oxoethyl}pyrrolidine-2,5-dione

> <CAS>
1797848-68-0

> <PriceCoeff>
1.50

> <MW>
370.81

> <Description>
solid

> <FSP3>
0.40

> <clogP>
1.65

> <TPSA>
100.21

> <Acceptor>
5

> <Donor>
0

> <RotBonds>
5

> <HAC>
24

> <Collection>
Advanced

$$$$
F1902-0099
  -ISIS-  06222321442D

 12 13  0  0  0  0  0  0  0  0999 V2000
    6.6917   -3.5250    0.0000 C   0  0  0  0  0  0  0  0  0  0  0  0
    6.7000   -2.6917    0.0000 C   0  0  0  0  0  0  0  0  0  0  0  0
    7.4125   -3.9375    0.0000 C   0  0  0  0  0  0  0  0  0  0  0  0
    5.9792   -2.2792    0.0000 C   0  0  0  0  0  0  0  0  0  0  0  0
    8.1375   -3.5250    0.0000 C   0  0  0  0  0  0  0  0  0  0  0  0
    7.4167   -2.2667    0.0000 O   0  0  0  0  0  0  0  0  0  0  0  0
    5.9792   -3.9292    0.0000 C   0  0  0  0  0  0  0  0  0  0  0  0
    8.1375   -2.6917    0.0000 C   0  0  0  0  0  0  0  0  0  0  0  0
    7.4125   -4.7625    0.0000 O   0  0  0  0  0  0  0  0  0  0  0  0
    5.2667   -2.6917    0.0000 C   0  0  0  0  0  0  0  0  0  0  0  0
    5.2667   -3.5167    0.0000 C   0  0  0  0  0  0  0  0  0  0  0  0
    4.5542   -2.2792    0.0000 Br  0  0  0  0  0  0  0  0  0  0  0  0
  2  1  1  0  0  0  0
  3  1  1  0  0  0  0
  4  2  2  0  0  0  0
  5  3  1  0  0  0  0
  6  2  1  0  0  0  0
  7  1  2  0  0  0  0
  8  5  2  0  0  0  0
  9  3  2  0  0  0  0
 10 11  2  0  0  0  0
 11  7  1  0  0  0  0
 12 10  1  0  0  0  0
  4 10  1  0  0  0  0
  6  8  1  0  0  0  0
M  END
> <IDNUMBER>
F1902-0099

> <Chemical_Name>
7-bromo-4H-chromen-4-one

> <CAS>
168759-60-2

> <PriceCoeff>
1.50

> <MW>
225.04

> <Description>
solid

> <FSP3>
0.00

> <clogP>
2.25

> <TPSA>
26.30

> <Acceptor>
2

> <Donor>
0

> <RotBonds>
0

> <HAC>
12

> <Collection>
Advanced

> <Reference_compound>
CHEMBL13311

> <Similarity>
0.8690

$$$$
F0902-3042
  -ISIS-  06222321452D

 21 23  0  0  0  0  0  0  0  0999 V2000
   -1.9500   -0.6792    0.0000 N   0  0  3  0  0  0  0  0  0  0  0  0
   -1.5708   -1.3292    0.0000 C   0  0  0  0  0  0  0  0  0  0  0  0
   -1.5625   -0.0292    0.0000 C   0  0  0  0  0  0  0  0  0  0  0  0
   -0.4458   -0.6792    0.0000 C   0  0  3  0  0  0  0  0  0  0  0  0
   -0.8208   -0.0292    0.0000 C   0  0  0  0  0  0  0  0  0  0  0  0
    0.3000   -0.6792    0.0000 N   0  0  3  0  0  0  0  0  0  0  0  0
    1.8292   -0.6792    0.0000 N   0  0  3  0  0  0  0  0  0  0  0  0
   -1.9500   -2.0000    0.0000 O   0  0  0  0  0  0  0  0  0  0  0  0
   -1.9125    0.6458    0.0000 O   0  0  0  0  0  0  0  0  0  0  0  0
    0.6875   -0.0042    0.0000 C   0  0  0  0  0  0  0  0  0  0  0  0
    0.6875   -1.3292    0.0000 C   0  0  0  0  0  0  0  0  0  0  0  0
    2.6000   -0.6792    0.0000 C   0  0  0  0  0  0  0  0  0  0  0  0
    1.4375   -0.0042    0.0000 C   0  0  0  0  0  0  0  0  0  0  0  0
    1.4375   -1.3292    0.0000 C   0  0  0  0  0  0  0  0  0  0  0  0
   -2.6625   -0.6792    0.0000 C   0  0  0  0  0  0  0  0  0  0  0  0
    2.9500   -0.0167    0.0000 C   0  0  0  0  0  0  0  0  0  0  0  0
    2.5500    0.6500    0.0000 C   0  0  0  0  0  0  0  0  0  0  0  0
    3.7000   -0.0167    0.0000 C   0  0  0  0  0  0  0  0  0  0  0  0
    2.9500    1.3125    0.0000 C   0  0  0  0  0  0  0  0  0  0  0  0
    4.0667    0.6500    0.0000 C   0  0  0  0  0  0  0  0  0  0  0  0
    3.7000    1.3125    0.0000 C   0  0  0  0  0  0  0  0  0  0  0  0
  2  1  1  0  0  0  0
  3  1  1  0  0  0  0
  4  2  1  0  0  0  0
  5  3  1  0  0  0  0
  6  4  1  0  0  0  0
  7 14  1  0  0  0  0
  8  2  2  0  0  0  0
  9  3  2  0  0  0  0
 10  6  1  0  0  0  0
 11  6  1  0  0  0  0
 12  7  1  0  0  0  0
 13 10  1  0  0  0  0
 14 11  1  0  0  0  0
 15  1  1  0  0  0  0
 16 12  1  0  0  0  0
 17 16  2  0  0  0  0
 18 16  1  0  0  0  0
 19 17  1  0  0  0  0
 20 18  2  0  0  0  0
 21 20  1  0  0  0  0
  4  5  1  0  0  0  0
  7 13  1  0  0  0  0
 19 21  2  0  0  0  0
M  END
> <IDNUMBER>
F0902-3042

> <Chemical_Name>
3-(4-benzylpiperazin-1-yl)-1-methylpyrrolidine-2,5-dione

> <CAS>
313378-64-2

> <PriceCoeff>
1.50

> <MW>
287.36

> <Description>
solid

> <FSP3>
0.50

> <clogP>
2.64

> <TPSA>
43.86

> <Acceptor>
4

> <Donor>
2

> <RotBonds>
3

> <HAC>
21

> <Collection>
Advanced

$$$$
F3164-0800
  -ISIS-  06222321152D

 21 22  0  0  0  0  0  0  0  0999 V2000
    3.9333   -4.7083    0.0000 C   0  0  0  0  0  0  0  0  0  0  0  0
    3.9333   -3.8833    0.0000 C   0  0  0  0  0  0  0  0  0  0  0  0
    3.2208   -5.1167    0.0000 N   0  0  3  0  0  0  0  0  0  0  0  0
    2.5042   -4.7083    0.0000 C   0  0  0  0  0  0  0  0  0  0  0  0
    2.5042   -3.8833    0.0000 N   0  0  0  0  0  0  0  0  0  0  0  0
    4.7167   -4.9625    0.0000 N   0  0  0  0  0  0  0  0  0  0  0  0
    3.2208   -3.4667    0.0000 C   0  0  0  0  0  0  0  0  0  0  0  0
    4.7167   -3.6292    0.0000 N   0  0  3  0  0  0  0  0  0  0  0  0
    5.2000   -4.2917    0.0000 C   0  0  0  0  0  0  0  0  0  0  0  0
    1.7833   -5.1167    0.0000 O   0  0  0  0  0  0  0  0  0  0  0  0
    3.2208   -2.6458    0.0000 O   0  0  0  0  0  0  0  0  0  0  0  0
    3.2208   -5.9458    0.0000 C   0  0  0  0  0  0  0  0  0  0  0  0
    4.9708   -2.8417    0.0000 C   0  0  0  0  0  0  0  0  0  0  0  0
    4.4167   -2.2292    0.0000 C   0  0  0  0  0  0  0  0  0  0  0  0
    3.4792    1.9250    0.0000 C   0  0  0  0  0  0  0  0  0  0  0  0
    4.0417    1.3208    0.0000 C   0  0  0  0  0  0  0  0  0  0  0  0
    3.8000    0.5375    0.0000 C   0  0  0  0  0  0  0  0  0  0  0  0
    4.3542   -0.0667    0.0000 C   0  0  0  0  0  0  0  0  0  0  0  0
    4.1125   -0.8458    0.0000 C   0  0  0  0  0  0  0  0  0  0  0  0
    4.6667   -1.4500    0.0000 C   0  0  0  0  0  0  0  0  0  0  0  0
    3.7167    2.7083    0.0000 C   0  0  0  0  0  0  0  0  0  0  0  0
  2  1  2  0  0  0  0
  3  1  1  0  0  0  0
  4  3  1  0  0  0  0
  5  4  1  0  0  0  0
  6  1  1  0  0  0  0
  7  2  1  0  0  0  0
  8  2  1  0  0  0  0
  9  6  2  0  0  0  0
 10  4  2  0  0  0  0
 11  7  2  0  0  0  0
 12  3  1  0  0  0  0
 13  8  1  0  0  0  0
 14 13  1  0  0  0  0
 15 16  1  0  0  0  0
 16 17  1  0  0  0  0
 17 18  1  0  0  0  0
 18 19  1  0  0  0  0
 19 20  1  0  0  0  0
 20 14  1  0  0  0  0
 21 15  1  0  0  0  0
  9  8  1  0  0  0  0
  5  7  1  0  0  0  0
M  END
> <IDNUMBER>
F3164-0800

> <Chemical_Name>
3-methyl-7-nonyl-2,3,6,7-tetrahydro-1H-purine-2,6-dione

> <CAS>
374916-80-0

> <PriceCoeff>
1.00

> <MW>
292.38

> <Description>
solid

> <FSP3>
0.67

> <clogP>
3.56

> <TPSA>
67.23

> <Acceptor>
3

> <Donor>
2

> <RotBonds>
8

> <HAC>
21

> <Collection>
General

> <Reference_compound>
CHEMBL113

> <Similarity>
0.8730

$$$$
F2191-0121
  -ISIS-  06222321442D

  8  7  0  0  0  0  0  0  0  0999 V2000
    0.3792    0.2958    0.0000 C   0  0  0  0  0  0  0  0  0  0  0  0
    0.3792    1.1208    0.0000 O   0  0  0  0  0  0  0  0  0  0  0  0
   -0.3333   -0.1250    0.0000 C   0  0  0  0  0  0  0  0  0  0  0  0
    1.0917   -0.1167    0.0000 O   0  0  0  0  0  0  0  0  0  0  0  0
   -1.0458    0.2875    0.0000 C   0  0  3  0  0  0  0  0  0  0  0  0
   -1.7583   -0.1292    0.0000 C   0  0  0  0  0  0  0  0  0  0  0  0
   -1.0458    1.1125    0.0000 C   0  0  0  0  0  0  0  0  0  0  0  0
   -2.4708    0.2833    0.0000 C   0  0  0  0  0  0  0  0  0  0  0  0
  2  1  2  0  0  0  0
  3  1  1  0  0  0  0
  4  1  1  0  0  0  0
  5  3  1  0  0  0  0
  6  5  1  0  0  0  0
  7  5  1  0  0  0  0
  8  6  1  0  0  0  0
M  END
> <IDNUMBER>
F2191-0121

> <Chemical_Name>
3-methylpentanoic acid

> <CAS>
105-43-1

> <PriceCoeff>
1.00

> <MW>
116.16

> <Description>
liquid

> <FSP3>
0.83

> <clogP>
1.79

> <TPSA>
37.30

> <Acceptor>
2

> <Donor>
0

> <RotBonds>
3

> <HAC>
8

> <Collection>
General

> <Reference_compound>
PRI6382

> <Similarity>
0.8330

$$$$
F5610-0162
  -ISIS-  06222321442D

 24 26  0  0  0  0  0  0  0  0999 V2000
    1.7250   -0.1542    0.0000 C   0  0  0  0  0  0  0  0  0  0  0  0
    0.7917   -1.7542    0.0000 N   0  0  0  0  0  0  0  0  0  0  0  0
    2.3208   -0.7167    0.0000 N   0  0  0  0  0  0  0  0  0  0  0  0
    0.9042   -0.2750    0.0000 C   0  0  0  0  0  0  0  0  0  0  0  0
    1.5792   -2.0000    0.0000 C   0  0  0  0  0  0  0  0  0  0  0  0
    0.4917   -0.9875    0.0000 C   0  0  0  0  0  0  0  0  0  0  0  0
    2.2542   -1.5292    0.0000 C   0  0  3  0  0  0  0  0  0  0  0  0
    4.4125   -2.7792    0.0000 N   0  0  3  0  0  0  0  0  0  0  0  0
    3.7000   -3.1917    0.0000 C   0  0  0  0  0  0  0  0  0  0  0  0
    1.9792    0.6458    0.0000 O   0  0  0  0  0  0  0  0  0  0  0  0
    1.7167   -2.8250    0.0000 O   0  0  0  0  0  0  0  0  0  0  0  0
    2.9875   -2.7792    0.0000 C   0  0  0  0  0  0  0  0  0  0  0  0
    3.7000   -4.0250    0.0000 O   0  0  0  0  0  0  0  0  0  0  0  0
    2.9792   -1.9500    0.0000 C   0  0  0  0  0  0  0  0  0  0  0  0
    0.4917    0.4458    0.0000 C   0  0  0  0  0  0  0  0  0  0  0  0
    5.0542   -3.2917    0.0000 C   0  0  0  0  0  0  0  0  0  0  0  0
    4.4125   -1.9542    0.0000 C   0  0  0  0  0  0  0  0  0  0  0  0
   -0.3375   -0.9875    0.0000 C   0  0  0  0  0  0  0  0  0  0  0  0
   -0.3375    0.4458    0.0000 C   0  0  0  0  0  0  0  0  0  0  0  0
    5.0542   -1.4417    0.0000 C   0  0  0  0  0  0  0  0  0  0  0  0
    5.8542   -3.1125    0.0000 C   0  0  0  0  0  0  0  0  0  0  0  0
   -0.7500   -0.2750    0.0000 C   0  0  0  0  0  0  0  0  0  0  0  0
    6.2125   -2.3750    0.0000 C   0  0  0  0  0  0  0  0  0  0  0  0
    5.8542   -1.6250    0.0000 C   0  0  0  0  0  0  0  0  0  0  0  0
  2  6  1  0  0  0  0
  3  1  1  0  0  0  0
  4  1  1  0  0  0  0
  5  7  1  0  0  0  0
  6  4  1  0  0  0  0
  7  3  1  0  0  0  0
  8  9  1  0  0  0  0
  9 12  1  0  0  0  0
 10  1  2  0  0  0  0
 11  5  2  0  0  0  0
 12 14  1  0  0  0  0
 13  9  2  0  0  0  0
 14  7  1  0  0  0  0
 15  4  2  0  0  0  0
 16  8  1  0  0  0  0
 17  8  1  0  0  0  0
 18  6  2  0  0  0  0
 19 15  1  0  0  0  0
 20 17  1  0  0  0  0
 21 16  1  0  0  0  0
 22 19  2  0  0  0  0
 23 21  1  0  0  0  0
 24 20  1  0  0  0  0
  2  5  1  0  0  0  0
 22 18  1  0  0  0  0
 23 24  1  0  0  0  0
M  END
> <IDNUMBER>
F5610-0162

> <Chemical_Name>
3-[3-(azepan-1-yl)-3-oxopropyl]-2,3,4,5-tetrahydro-1H-1,4-benzodiazepine-2,5-dione

> <CAS>
1190758-47-4

> <PriceCoeff>
1.50

> <MW>
329.39

> <Description>
solid

> <FSP3>
0.50

> <clogP>
0.56

> <TPSA>
78.51

> <Acceptor>
3

> <Donor>
2

> <RotBonds>
4

> <HAC>
24

> <Collection>
Advanced

> <Reference_compound>
CHEMBL510253

> <Similarity>
0.8150

$$$$
F5610-0202
  -ISIS-  06222321462D

 24 26  0  0  0  0  0  0  0  0999 V2000
    2.5792   -0.6875    0.0000 C   0  0  0  0  0  0  0  0  0  0  0  0
    1.6500   -2.2917    0.0000 N   0  0  0  0  0  0  0  0  0  0  0  0
    3.1792   -1.2542    0.0000 N   0  0  0  0  0  0  0  0  0  0  0  0
    1.7542   -0.8042    0.0000 C   0  0  0  0  0  0  0  0  0  0  0  0
    2.4375   -2.5292    0.0000 C   0  0  0  0  0  0  0  0  0  0  0  0
    5.2667   -3.3167    0.0000 N   0  0  3  0  0  0  0  0  0  0  0  0
    1.3417   -1.5167    0.0000 C   0  0  0  0  0  0  0  0  0  0  0  0
    4.5542   -3.7292    0.0000 C   0  0  0  0  0  0  0  0  0  0  0  0
    3.1125   -2.0667    0.0000 C   0  0  3  0  0  0  0  0  0  0  0  0
    5.9792   -3.7292    0.0000 C   0  0  0  0  0  0  0  0  0  0  0  0
    2.8375    0.1083    0.0000 O   0  0  0  0  0  0  0  0  0  0  0  0
    2.5667   -3.3542    0.0000 O   0  0  0  0  0  0  0  0  0  0  0  0
    3.8417   -3.3167    0.0000 C   0  0  0  0  0  0  0  0  0  0  0  0
    4.5542   -4.5542    0.0000 O   0  0  0  0  0  0  0  0  0  0  0  0
    3.8375   -2.4792    0.0000 C   0  0  0  0  0  0  0  0  0  0  0  0
    5.2667   -2.4875    0.0000 C   0  0  0  0  0  0  0  0  0  0  0  0
    1.3417   -0.0917    0.0000 C   0  0  0  0  0  0  0  0  0  0  0  0
    6.7000   -3.3167    0.0000 C   0  0  3  0  0  0  0  0  0  0  0  0
    0.5167   -1.5167    0.0000 C   0  0  0  0  0  0  0  0  0  0  0  0
    5.9792   -2.0750    0.0000 C   0  0  0  0  0  0  0  0  0  0  0  0
    6.7000   -2.4875    0.0000 C   0  0  0  0  0  0  0  0  0  0  0  0
    7.4125   -3.7292    0.0000 C   0  0  0  0  0  0  0  0  0  0  0  0
    0.5167   -0.0917    0.0000 C   0  0  0  0  0  0  0  0  0  0  0  0
    0.1042   -0.8125    0.0000 C   0  0  0  0  0  0  0  0  0  0  0  0
  2  7  1  0  0  0  0
  3  1  1  0  0  0  0
  4  1  1  0  0  0  0
  5  9  1  0  0  0  0
  6  8  1  0  0  0  0
  7  4  1  0  0  0  0
  8 13  1  0  0  0  0
  9  3  1  0  0  0  0
 10  6  1  0  0  0  0
 11  1  2  0  0  0  0
 12  5  2  0  0  0  0
 13 15  1  0  0  0  0
 14  8  2  0  0  0  0
 15  9  1  0  0  0  0
 16  6  1  0  0  0  0
 17  4  2  0  0  0  0
 18 10  1  0  0  0  0
 19  7  2  0  0  0  0
 20 16  1  0  0  0  0
 21 20  1  0  0  0  0
 22 18  1  0  0  0  0
 23 17  1  0  0  0  0
 24 23  2  0  0  0  0
  2  5  1  0  0  0  0
 19 24  1  0  0  0  0
 18 21  1  0  0  0  0
M  END
> <IDNUMBER>
F5610-0202

> <Chemical_Name>
3-[3-(3-methylpiperidin-1-yl)-3-oxopropyl]-2,3,4,5-tetrahydro-1H-1,4-benzodiazepine-2,5-dione

> <CAS>
1192279-84-7

> <PriceCoeff>
1.50

> <MW>
329.39

> <Description>
solid

> <FSP3>
0.50

> <clogP>
0.52

> <TPSA>
78.51

> <Acceptor>
3

> <Donor>
2

> <RotBonds>
4

> <HAC>
24

> <Collection>
Advanced

> <Reference_compound>
CHEMBL510253

> <Similarity>
0.8350

$$$$
F6442-6647
  -ISIS-  06222321462D

 25 27  0  0  0  0  0  0  0  0999 V2000
   -3.8708    3.8000    0.0000 C   0  0  0  0  0  0  0  0  0  0  0  0
   -3.1583    4.2042    0.0000 N   0  0  3  0  0  0  0  0  0  0  0  0
   -1.0208    5.4500    0.0000 N   0  0  3  0  0  0  0  0  0  0  0  0
   -4.5833    4.2042    0.0000 N   0  0  0  0  0  0  0  0  0  0  0  0
   -6.7000    3.8125    0.0000 C   0  0  0  0  0  0  0  0  0  0  0  0
   -6.0000    4.2125    0.0000 C   0  0  0  0  0  0  0  0  0  0  0  0
   -1.7333    5.0292    0.0000 C   0  0  3  0  0  0  0  0  0  0  0  0
   -5.2833    3.8083    0.0000 C   0  0  0  0  0  0  0  0  0  0  0  0
   -1.7333    4.2042    0.0000 C   0  0  0  0  0  0  0  0  0  0  0  0
   -2.4458    5.4417    0.0000 C   0  0  0  0  0  0  0  0  0  0  0  0
   -2.4458    3.8000    0.0000 C   0  0  0  0  0  0  0  0  0  0  0  0
   -3.1583    5.0292    0.0000 C   0  0  0  0  0  0  0  0  0  0  0  0
   -3.8708    2.9833    0.0000 O   0  0  0  0  0  0  0  0  0  0  0  0
   -6.7042    2.9875    0.0000 C   0  0  0  0  0  0  0  0  0  0  0  0
   -0.3083    5.0417    0.0000 C   0  0  0  0  0  0  0  0  0  0  0  0
   -1.0250    6.2750    0.0000 C   0  0  0  0  0  0  0  0  0  0  0  0
   -0.3208    6.6875    0.0000 C   0  0  0  0  0  0  0  0  0  0  0  0
    0.4042    5.4542    0.0000 C   0  0  0  0  0  0  0  0  0  0  0  0
   -6.0042    2.5708    0.0000 C   0  0  0  0  0  0  0  0  0  0  0  0
   -7.4042    4.2167    0.0000 Cl  0  0  0  0  0  0  0  0  0  0  0  0
    0.4000    6.2792    0.0000 C   0  0  3  0  0  0  0  0  0  0  0  0
   -5.2833    2.9833    0.0000 C   0  0  0  0  0  0  0  0  0  0  0  0
   -7.4167    2.5833    0.0000 Cl  0  0  0  0  0  0  0  0  0  0  0  0
    1.1125    6.7000    0.0000 O   0  0  0  0  0  0  0  0  0  0  0  0
    1.8292    6.2917    0.0000 C   0  0  0  0  0  0  0  0  0  0  0  0
  2  1  1  0  0  0  0
  3  7  1  0  0  0  0
  4  1  1  0  0  0  0
  5  6  1  0  0  0  0
  6  8  2  0  0  0  0
  7 10  1  0  0  0  0
  8  4  1  0  0  0  0
  9 11  1  0  0  0  0
 10 12  1  0  0  0  0
 11  2  1  0  0  0  0
 12  2  1  0  0  0  0
 13  1  2  0  0  0  0
 14 19  1  0  0  0  0
 15  3  1  0  0  0  0
 16  3  1  0  0  0  0
 17 16  1  0  0  0  0
 18 15  1  0  0  0  0
 19 22  2  0  0  0  0
 20  5  1  0  0  0  0
 21 17  1  0  0  0  0
 22  8  1  0  0  0  0
 23 14  1  0  0  0  0
 24 21  1  0  0  0  0
 25 24  1  0  0  0  0
  9  7  1  0  0  0  0
 14  5  2  0  0  0  0
 18 21  1  0  0  0  0
M  END
> <IDNUMBER>
F6442-6647

> <Chemical_Name>
N-(3,4-dichlorophenyl)-4-methoxy-[1,4'-bipiperidine]-1'-carboxamide

> <CAS>
1795358-66-5

> <PriceCoeff>
1.50

> <MW>
386.32

> <Description>
solid

> <FSP3>
0.61

> <clogP>
1.99

> <TPSA>
44.81

> <Acceptor>
2

> <Donor>
2

> <RotBonds>
4

> <HAC>
25

> <Collection>
Advanced

$$$$
F1905-7074
  -ISIS-  06222321442D

 11 12  0  0  0  0  0  0  0  0999 V2000
    0.7125   -1.2375    0.0000 C   0  0  0  0  0  0  0  0  0  0  0  0
    0.0417   -1.7167    0.0000 N   0  0  0  0  0  0  0  0  0  0  0  0
    1.3792   -1.7167    0.0000 N   0  0  0  0  0  0  0  0  0  0  0  0
    0.7125   -0.4125    0.0000 C   0  0  0  0  0  0  0  0  0  0  0  0
    0.3000   -2.5042    0.0000 C   0  0  0  0  0  0  0  0  0  0  0  0
    1.4250   -0.0000    0.0000 N   0  0  0  0  0  0  0  0  0  0  0  0
    1.1250   -2.5042    0.0000 C   0  0  0  0  0  0  0  0  0  0  0  0
    1.4250    0.8333    0.0000 C   0  0  0  0  0  0  0  0  0  0  0  0
    0.0000   -0.0000    0.0000 C   0  0  0  0  0  0  0  0  0  0  0  0
    0.7125    1.2458    0.0000 C   0  0  0  0  0  0  0  0  0  0  0  0
    0.0000    0.8333    0.0000 C   0  0  0  0  0  0  0  0  0  0  0  0
  2  1  2  0  0  0  0
  3  1  1  0  0  0  0
  4  1  1  0  0  0  0
  5  2  1  0  0  0  0
  6  4  1  0  0  0  0
  7  3  1  0  0  0  0
  8  6  2  0  0  0  0
  9  4  2  0  0  0  0
 10 11  2  0  0  0  0
 11  9  1  0  0  0  0
  7  5  2  0  0  0  0
  8 10  1  0  0  0  0
M  END
> <IDNUMBER>
F1905-7074

> <Chemical_Name>
2-(1H-imidazol-2-yl)pyridine

> <CAS>
18653-75-3

> <PriceCoeff>
1.50

> <MW>
145.16

> <Description>
solid

> <FSP3>
0.00

> <clogP>
0.94

> <TPSA>
41.57

> <Acceptor>
3

> <Donor>
3

> <RotBonds>
1

> <HAC>
11

> <Collection>
Advanced

> <Reference_compound>
CHEMBL72683

> <Similarity>
0.8200

$$$$
F5033-0010
  -ISIS-  06222321442D

 19 20  0  0  0  0  0  0  0  0999 V2000
   -0.8833    6.2792    0.0000 N   0  0  3  0  0  0  0  0  0  0  0  0
   -3.7583    3.8000    0.0000 C   0  0  0  0  0  0  0  0  0  0  0  0
   -3.0458    4.2125    0.0000 N   0  0  0  0  0  0  0  0  0  0  0  0
   -4.4708    4.2125    0.0000 O   0  0  0  0  0  0  0  0  0  0  0  0
   -4.4583    2.5458    0.0000 O   0  0  0  0  0  0  0  0  0  0  0  0
   -3.7583    2.9833    0.0000 C   0  0  0  0  0  0  0  0  0  0  0  0
   -1.6000    6.6917    0.0000 C   0  0  0  0  0  0  0  0  0  0  0  0
   -0.8875    5.4625    0.0000 C   0  0  0  0  0  0  0  0  0  0  0  0
   -3.0458    5.0292    0.0000 C   0  0  0  0  0  0  0  0  0  0  0  0
   -4.4375    1.7250    0.0000 C   0  0  0  0  0  0  0  0  0  0  0  0
   -2.3250    5.4500    0.0000 C   0  0  3  0  0  0  0  0  0  0  0  0
   -1.6083    5.0417    0.0000 C   0  0  0  0  0  0  0  0  0  0  0  0
   -2.3208    6.2792    0.0000 C   0  0  0  0  0  0  0  0  0  0  0  0
   -0.1625    6.7000    0.0000 C   0  0  0  0  0  0  0  0  0  0  0  0
   -5.1458    1.3000    0.0000 C   0  0  0  0  0  0  0  0  0  0  0  0
   -3.7333    1.3208    0.0000 C   0  0  0  0  0  0  0  0  0  0  0  0
   -3.7083    0.4875    0.0000 C   0  0  0  0  0  0  0  0  0  0  0  0
   -5.1583    0.4708    0.0000 C   0  0  0  0  0  0  0  0  0  0  0  0
   -4.4333    0.0583    0.0000 C   0  0  0  0  0  0  0  0  0  0  0  0
  2  3  1  0  0  0  0
  3  9  1  0  0  0  0
  4  2  2  0  0  0  0
  5  6  1  0  0  0  0
  6  2  1  0  0  0  0
  7  1  1  0  0  0  0
  8  1  1  0  0  0  0
  9 11  1  0  0  0  0
 10  5  1  0  0  0  0
 11 12  1  0  0  0  0
 12  8  1  0  0  0  0
 13  7  1  0  0  0  0
 14  1  1  0  0  0  0
 15 10  2  0  0  0  0
 16 10  1  0  0  0  0
 17 16  2  0  0  0  0
 18 15  1  0  0  0  0
 19 17  1  0  0  0  0
 13 11  1  0  0  0  0
 19 18  2  0  0  0  0
M  END
> <IDNUMBER>
F5033-0010

> <Chemical_Name>
N-[(1-methylpiperidin-4-yl)methyl]-2-phenoxyacetamide

> <CAS>
953960-03-7

> <PriceCoeff>
1.50

> <MW>
262.35

> <Description>
solid

> <FSP3>
0.53

> <clogP>
1.50

> <TPSA>
41.57

> <Acceptor>
2

> <Donor>
2

> <RotBonds>
5

> <HAC>
19

> <Collection>
Advanced

> <Reference_compound>
CHEMBL4289086

> <Similarity>
0.8050

$$$$
F6439-0450
  -ISIS-  06222321152D

 28 31  0  0  0  0  0  0  0  0999 V2000
   -2.4833    6.7750    0.0000 N   0  0  0  0  0  0  0  0  0  0  0  0
   -5.2833    2.5708    0.0000 N   0  0  3  0  0  0  0  0  0  0  0  0
   -3.5750    7.5542    0.0000 C   0  0  0  0  0  0  0  0  0  0  0  0
   -3.1583    6.2792    0.0000 N   0  0  3  0  0  0  0  0  0  0  0  0
   -2.7375    7.5667    0.0000 C   0  0  0  0  0  0  0  0  0  0  0  0
   -3.8250    6.7667    0.0000 C   0  0  0  0  0  0  0  0  0  0  0  0
   -5.3708    1.7458    0.0000 C   0  0  0  0  0  0  0  0  0  0  0  0
   -6.0292    2.9000    0.0000 C   0  0  0  0  0  0  0  0  0  0  0  0
   -4.5833    2.9875    0.0000 C   0  0  0  0  0  0  0  0  0  0  0  0
   -4.5833    3.8000    0.0000 C   0  0  0  0  0  0  0  0  0  0  0  0
   -2.2625    8.2292    0.0000 C   0  0  0  0  0  0  0  0  0  0  0  0
   -6.5750    2.2833    0.0000 C   0  0  0  0  0  0  0  0  0  0  0  0
   -6.1667    1.5708    0.0000 C   0  0  0  0  0  0  0  0  0  0  0  0
   -6.2042    3.7083    0.0000 O   0  0  0  0  0  0  0  0  0  0  0  0
   -4.7500    1.1833    0.0000 O   0  0  0  0  0  0  0  0  0  0  0  0
   -3.1583    5.4500    0.0000 C   0  0  0  0  0  0  0  0  0  0  0  0
   -1.3000    9.5667    0.0000 N   0  0  0  0  0  0  0  0  0  0  0  0
   -5.3000    4.2042    0.0000 O   0  0  0  0  0  0  0  0  0  0  0  0
   -3.8625    4.2042    0.0000 N   0  0  0  0  0  0  0  0  0  0  0  0
   -4.1250    8.1667    0.0000 C   0  0  0  0  0  0  0  0  0  0  0  0
   -3.8625    5.0417    0.0000 C   0  0  0  0  0  0  0  0  0  0  0  0
   -4.6250    6.5917    0.0000 C   0  0  0  0  0  0  0  0  0  0  0  0
   -2.1333    9.6542    0.0000 C   0  0  0  0  0  0  0  0  0  0  0  0
   -0.9583    8.8167    0.0000 C   0  0  0  0  0  0  0  0  0  0  0  0
   -2.6083    8.9750    0.0000 C   0  0  0  0  0  0  0  0  0  0  0  0
   -1.4375    8.1542    0.0000 C   0  0  0  0  0  0  0  0  0  0  0  0
   -4.9333    8.0000    0.0000 C   0  0  0  0  0  0  0  0  0  0  0  0
   -5.1833    7.2042    0.0000 C   0  0  0  0  0  0  0  0  0  0  0  0
  2  9  1  0  0  0  0
  3  5  1  0  0  0  0
  4  1  1  0  0  0  0
  5  1  2  0  0  0  0
  6  4  1  0  0  0  0
  7  2  1  0  0  0  0
  8  2  1  0  0  0  0
  9 10  1  0  0  0  0
 10 19  1  0  0  0  0
 11  5  1  0  0  0  0
 12  8  1  0  0  0  0
 13  7  1  0  0  0  0
 14  8  2  0  0  0  0
 15  7  2  0  0  0  0
 16  4  1  0  0  0  0
 17 24  2  0  0  0  0
 18 10  2  0  0  0  0
 19 21  1  0  0  0  0
 20  3  1  0  0  0  0
 21 16  1  0  0  0  0
 22  6  1  0  0  0  0
 23 25  2  0  0  0  0
 24 26  1  0  0  0  0
 25 11  1  0  0  0  0
 26 11  2  0  0  0  0
 27 20  1  0  0  0  0
 28 22  1  0  0  0  0
  3  6  2  0  0  0  0
 17 23  1  0  0  0  0
 28 27  1  0  0  0  0
 12 13  1  0  0  0  0
M  END
> <IDNUMBER>
F6439-0450

> <Chemical_Name>
2-(2,5-dioxopyrrolidin-1-yl)-N-{2-[3-(pyridin-4-yl)-4,5,6,7-tetrahydro-1H-indazol-1-yl]ethyl}acetamide

> <CAS>
1797293-51-6

> <PriceCoeff>
1.00

> <MW>
381.43

> <Description>
solid

> <FSP3>
0.45

> <clogP>
1.14

> <TPSA>
97.19

> <Acceptor>
5

> <Donor>
2

> <RotBonds>
6

> <HAC>
28

> <Collection>
General

$$$$
F6473-3924
  -ISIS-  06222321442D

 23 25  0  0  0  0  0  0  0  0999 V2000
   -3.7458    3.6958    0.0000 S   0  0  3  0  0  0  0  0  0  0  0  0
   -3.0333    4.1042    0.0000 N   0  0  3  0  0  0  0  0  0  0  0  0
   -1.3083    5.1042    0.0000 N   0  0  3  0  0  0  0  0  0  0  0  0
   -2.0333    4.6875    0.0000 C   0  0  3  0  0  0  0  0  0  0  0  0
   -2.2458    3.8958    0.0000 C   0  0  0  0  0  0  0  0  0  0  0  0
   -2.8208    4.9000    0.0000 C   0  0  0  0  0  0  0  0  0  0  0  0
   -4.4708    3.2958    0.0000 C   0  0  0  0  0  0  0  0  0  0  0  0
   -0.5583    4.7667    0.0000 C   0  0  0  0  0  0  0  0  0  0  0  0
   -1.2250    5.9167    0.0000 C   0  0  0  0  0  0  0  0  0  0  0  0
   -3.3458    2.9708    0.0000 O   0  0  0  0  0  0  0  0  0  0  0  0
   -4.1583    4.4042    0.0000 O   0  0  0  0  0  0  0  0  0  0  0  0
   -4.4875    2.4625    0.0000 C   0  0  0  0  0  0  0  0  0  0  0  0
   -5.2042    2.0708    0.0000 C   0  0  0  0  0  0  0  0  0  0  0  0
   -5.9083    2.4958    0.0000 C   0  0  0  0  0  0  0  0  0  0  0  0
   -0.0083    5.3792    0.0000 C   0  0  0  0  0  0  0  0  0  0  0  0
   -0.4208    6.0917    0.0000 C   0  0  0  0  0  0  0  0  0  0  0  0
   -0.3875    3.9625    0.0000 O   0  0  0  0  0  0  0  0  0  0  0  0
   -1.8417    6.4708    0.0000 O   0  0  0  0  0  0  0  0  0  0  0  0
   -5.1708    3.7125    0.0000 C   0  0  0  0  0  0  0  0  0  0  0  0
   -5.8917    3.3208    0.0000 C   0  0  0  0  0  0  0  0  0  0  0  0
   -6.6167    2.0958    0.0000 O   0  0  0  0  0  0  0  0  0  0  0  0
   -5.2208    1.2583    0.0000 C   0  0  0  0  0  0  0  0  0  0  0  0
   -7.3292    2.5208    0.0000 C   0  0  0  0  0  0  0  0  0  0  0  0
  2  1  1  0  0  0  0
  3  4  1  0  0  0  0
  4  6  1  0  0  0  0
  5  2  1  0  0  0  0
  6  2  1  0  0  0  0
  7  1  1  0  0  0  0
  8  3  1  0  0  0  0
  9  3  1  0  0  0  0
 10  1  2  0  0  0  0
 11  1  2  0  0  0  0
 12  7  1  0  0  0  0
 13 12  2  0  0  0  0
 14 20  2  0  0  0  0
 15  8  1  0  0  0  0
 16  9  1  0  0  0  0
 17  8  2  0  0  0  0
 18  9  2  0  0  0  0
 19  7  2  0  0  0  0
 20 19  1  0  0  0  0
 21 14  1  0  0  0  0
 22 13  1  0  0  0  0
 23 21  1  0  0  0  0
  4  5  1  0  0  0  0
 13 14  1  0  0  0  0
 16 15  1  0  0  0  0
M  END
> <IDNUMBER>
F6473-3924

> <Chemical_Name>
1-[1-(4-methoxy-3-methylbenzenesulfonyl)azetidin-3-yl]pyrrolidine-2,5-dione

> <CAS>
1795191-47-7

> <PriceCoeff>
1.00

> <MW>
338.38

> <Description>
solid

> <FSP3>
0.47

> <clogP>
1.43

> <TPSA>
92.37

> <Acceptor>
5

> <Donor>
0

> <RotBonds>
4

> <HAC>
23

> <Collection>
General

$$$$
F6440-2434
  -ISIS-  06222321462D

 24 26  0  0  0  0  0  0  0  0999 V2000
   -3.0750    6.2750    0.0000 N   0  0  0  0  0  0  0  0  0  0  0  0
   -2.2708    6.4500    0.0000 N   0  0  3  0  0  0  0  0  0  0  0  0
   -2.4083    5.1167    0.0000 C   0  0  0  0  0  0  0  0  0  0  0  0
   -3.1583    5.4500    0.0000 C   0  0  0  0  0  0  0  0  0  0  0  0
   -1.8500    5.7292    0.0000 C   0  0  0  0  0  0  0  0  0  0  0  0
   -6.0250    1.3333    0.0000 C   0  0  3  0  0  0  0  0  0  0  0  0
   -4.5833    3.8000    0.0000 C   0  0  0  0  0  0  0  0  0  0  0  0
   -5.3125    1.7458    0.0000 C   0  0  0  0  0  0  0  0  0  0  0  0
   -3.8625    4.2042    0.0000 N   0  0  0  0  0  0  0  0  0  0  0  0
   -4.5833    2.9833    0.0000 C   0  0  0  0  0  0  0  0  0  0  0  0
   -5.3083    2.5708    0.0000 C   0  0  0  0  0  0  0  0  0  0  0  0
   -3.8625    5.0417    0.0000 C   0  0  0  0  0  0  0  0  0  0  0  0
   -5.3000    4.2042    0.0000 O   0  0  0  0  0  0  0  0  0  0  0  0
   -6.0250    0.5208    0.0000 F   0  0  0  0  0  0  0  0  0  0  0  0
   -6.7292    0.9333    0.0000 F   0  0  0  0  0  0  0  0  0  0  0  0
   -6.7292    1.7458    0.0000 F   0  0  0  0  0  0  0  0  0  0  0  0
   -2.1500    4.3292    0.0000 C   0  0  0  0  0  0  0  0  0  0  0  0
   -1.9375    7.2042    0.0000 C   0  0  0  0  0  0  0  0  0  0  0  0
   -1.0375    5.5750    0.0000 C   0  0  0  0  0  0  0  0  0  0  0  0
   -4.5958    1.3208    0.0000 C   0  0  0  0  0  0  0  0  0  0  0  0
   -3.8625    2.5583    0.0000 C   0  0  0  0  0  0  0  0  0  0  0  0
   -3.8750    1.7250    0.0000 C   0  0  0  0  0  0  0  0  0  0  0  0
   -1.3375    4.1667    0.0000 C   0  0  0  0  0  0  0  0  0  0  0  0
   -0.7833    4.7792    0.0000 C   0  0  0  0  0  0  0  0  0  0  0  0
  2  1  1  0  0  0  0
  3  4  1  0  0  0  0
  4  1  2  0  0  0  0
  5  2  1  0  0  0  0
  6  8  1  0  0  0  0
  7  9  1  0  0  0  0
  8 11  1  0  0  0  0
  9 12  1  0  0  0  0
 10  7  1  0  0  0  0
 11 10  2  0  0  0  0
 12  4  1  0  0  0  0
 13  7  2  0  0  0  0
 14  6  1  0  0  0  0
 15  6  1  0  0  0  0
 16  6  1  0  0  0  0
 17  3  1  0  0  0  0
 18  2  1  0  0  0  0
 19  5  1  0  0  0  0
 20 22  1  0  0  0  0
 21 10  1  0  0  0  0
 22 21  2  0  0  0  0
 23 17  1  0  0  0  0
 24 19  1  0  0  0  0
  5  3  2  0  0  0  0
 23 24  1  0  0  0  0
  8 20  2  0  0  0  0
M  END
> <IDNUMBER>
F6440-2434

> <Chemical_Name>
N-[(1-methyl-4,5,6,7-tetrahydro-1H-indazol-3-yl)methyl]-3-(trifluoromethyl)benzamide

> <CAS>
1448063-28-2

> <PriceCoeff>
1.50

> <MW>
337.34

> <Description>
solid

> <FSP3>
0.41

> <clogP>
3.29

> <TPSA>
46.92

> <Acceptor>
2

> <Donor>
1

> <RotBonds>
3

> <HAC>
24

> <Collection>
Advanced

> <Reference_compound>
CHEMBL2289356

> <Similarity>
0.8120

$$$$
F5658-0167
  -ISIS-  06222321462D

 23 25  0  0  0  0  0  0  0  0999 V2000
    1.6667   -8.0417    0.0000 N   0  0  3  0  0  0  0  0  0  0  0  0
    5.9625   -8.0375    0.0000 C   0  0  0  0  0  0  0  0  0  0  0  0
    2.3792   -7.6292    0.0000 C   0  0  0  0  0  0  0  0  0  0  0  0
   -0.4958   -9.2917    0.0000 C   0  0  0  0  0  0  0  0  0  0  0  0
    6.7417   -7.7792    0.0000 C   0  0  0  0  0  0  0  0  0  0  0  0
    5.9625   -8.8625    0.0000 C   0  0  0  0  0  0  0  0  0  0  0  0
    5.2500   -7.6250    0.0000 C   0  0  0  0  0  0  0  0  0  0  0  0
    0.2292   -8.8750    0.0000 C   0  0  3  0  0  0  0  0  0  0  0  0
    1.6667   -8.8750    0.0000 C   0  0  0  0  0  0  0  0  0  0  0  0
    0.9500   -7.6292    0.0000 C   0  0  0  0  0  0  0  0  0  0  0  0
    3.1000   -8.0417    0.0000 C   0  0  0  0  0  0  0  0  0  0  0  0
    2.3667   -6.8042    0.0000 O   0  0  0  0  0  0  0  0  0  0  0  0
   -1.2125   -8.8750    0.0000 O   0  0  0  0  0  0  0  0  0  0  0  0
    7.2292   -8.4542    0.0000 C   0  0  0  0  0  0  0  0  0  0  0  0
    7.0000   -6.9917    0.0000 O   0  0  0  0  0  0  0  0  0  0  0  0
    6.7417   -9.1167    0.0000 C   0  0  0  0  0  0  0  0  0  0  0  0
    0.2292   -8.0417    0.0000 C   0  0  0  0  0  0  0  0  0  0  0  0
    0.9542   -9.2875    0.0000 C   0  0  0  0  0  0  0  0  0  0  0  0
    5.2500   -9.2750    0.0000 C   0  0  0  0  0  0  0  0  0  0  0  0
    3.8125   -7.6250    0.0000 O   0  0  0  0  0  0  0  0  0  0  0  0
   -0.4958  -10.1167    0.0000 N   0  0  0  0  0  0  0  0  0  0  0  0
    4.5292   -8.0375    0.0000 C   0  0  0  0  0  0  0  0  0  0  0  0
    4.5292   -8.8625    0.0000 C   0  0  0  0  0  0  0  0  0  0  0  0
  2  7  2  0  0  0  0
  3  1  1  0  0  0  0
  4  8  1  0  0  0  0
  5  2  1  0  0  0  0
  6 19  2  0  0  0  0
  7 22  1  0  0  0  0
  8 17  1  0  0  0  0
  9  1  1  0  0  0  0
 10  1  1  0  0  0  0
 11  3  1  0  0  0  0
 12  3  2  0  0  0  0
 13  4  2  0  0  0  0
 14  5  1  0  0  0  0
 15  5  2  0  0  0  0
 16  6  1  0  0  0  0
 17 10  1  0  0  0  0
 18  9  1  0  0  0  0
 19 23  1  0  0  0  0
 20 11  1  0  0  0  0
 21  4  1  0  0  0  0
 22 20  1  0  0  0  0
 23 22  2  0  0  0  0
  8 18  1  0  0  0  0
  6  2  1  0  0  0  0
 14 16  1  0  0  0  0
M  END
> <IDNUMBER>
F5658-0167

> <Chemical_Name>
1-{2-[(3-oxo-2,3-dihydro-1H-inden-5-yl)oxy]acetyl}piperidine-4-carboxamide

> <CAS>
1203355-66-1

> <PriceCoeff>
1.50

> <MW>
316.35

> <Description>
solid

> <FSP3>
0.47

> <clogP>
-0.40

> <TPSA>
89.70

> <Acceptor>
4

> <Donor>
1

> <RotBonds>
5

> <HAC>
23

> <Collection>
Advanced

> <Reference_compound>
CHEMBL4287340

> <Similarity>
0.8320

$$$$
F6442-0568
  -ISIS-  06222321462D

 25 27  0  0  0  0  0  0  0  0999 V2000
   -1.4458    5.2042    0.0000 S   0  0  3  0  0  0  0  0  0  0  0  0
   -4.5833    2.5708    0.0000 N   0  0  3  0  0  0  0  0  0  0  0  0
   -2.1583    4.7917    0.0000 C   0  0  3  0  0  0  0  0  0  0  0  0
   -3.1583    4.2042    0.0000 N   0  0  3  0  0  0  0  0  0  0  0  0
   -3.8708    3.8000    0.0000 C   0  0  0  0  0  0  0  0  0  0  0  0
   -3.8708    2.9833    0.0000 C   0  0  0  0  0  0  0  0  0  0  0  0
   -4.6708    1.7458    0.0000 C   0  0  0  0  0  0  0  0  0  0  0  0
   -5.3208    2.9000    0.0000 C   0  0  0  0  0  0  0  0  0  0  0  0
   -2.3708    4.0000    0.0000 C   0  0  0  0  0  0  0  0  0  0  0  0
   -2.9458    5.0042    0.0000 C   0  0  0  0  0  0  0  0  0  0  0  0
   -0.7333    5.6167    0.0000 C   0  0  0  0  0  0  0  0  0  0  0  0
   -1.8583    5.9167    0.0000 O   0  0  0  0  0  0  0  0  0  0  0  0
   -1.0333    4.4917    0.0000 O   0  0  0  0  0  0  0  0  0  0  0  0
   -4.5833    4.2042    0.0000 O   0  0  0  0  0  0  0  0  0  0  0  0
   -5.4583    1.5833    0.0000 C   0  0  0  0  0  0  0  0  0  0  0  0
   -5.8708    2.2958    0.0000 C   0  0  0  0  0  0  0  0  0  0  0  0
   -4.0458    1.1833    0.0000 O   0  0  0  0  0  0  0  0  0  0  0  0
   -5.4875    3.7083    0.0000 O   0  0  0  0  0  0  0  0  0  0  0  0
   -0.0125    5.2042    0.0000 C   0  0  0  0  0  0  0  0  0  0  0  0
   -0.7375    6.4417    0.0000 C   0  0  0  0  0  0  0  0  0  0  0  0
    0.7000    6.4500    0.0000 C   0  0  0  0  0  0  0  0  0  0  0  0
   -0.0208    6.8625    0.0000 C   0  0  0  0  0  0  0  0  0  0  0  0
    0.7000    5.6167    0.0000 C   0  0  0  0  0  0  0  0  0  0  0  0
    1.4042    6.8625    0.0000 O   0  0  0  0  0  0  0  0  0  0  0  0
    2.1167    6.4542    0.0000 C   0  0  0  0  0  0  0  0  0  0  0  0
  2  6  1  0  0  0  0
  3  1  1  0  0  0  0
  4 10  1  0  0  0  0
  5  4  1  0  0  0  0
  6  5  1  0  0  0  0
  7  2  1  0  0  0  0
  8  2  1  0  0  0  0
  9  3  1  0  0  0  0
 10  3  1  0  0  0  0
 11  1  1  0  0  0  0
 12  1  2  0  0  0  0
 13  1  2  0  0  0  0
 14  5  2  0  0  0  0
 15  7  1  0  0  0  0
 16  8  1  0  0  0  0
 17  7  2  0  0  0  0
 18  8  2  0  0  0  0
 19 11  2  0  0  0  0
 20 11  1  0  0  0  0
 21 22  1  0  0  0  0
 22 20  2  0  0  0  0
 23 19  1  0  0  0  0
 24 21  1  0  0  0  0
 25 24  1  0  0  0  0
  9  4  1  0  0  0  0
 21 23  2  0  0  0  0
 15 16  1  0  0  0  0
M  END
> <IDNUMBER>
F6442-0568

> <Chemical_Name>
1-{2-[3-(4-methoxybenzenesulfonyl)azetidin-1-yl]-2-oxoethyl}pyrrolidine-2,5-dione

> <CAS>
1798034-34-0

> <PriceCoeff>
1.50

> <MW>
366.39

> <Description>
solid

> <FSP3>
0.44

> <clogP>
1.16

> <TPSA>
109.44

> <Acceptor>
6

> <Donor>
0

> <RotBonds>
6

> <HAC>
25

> <Collection>
Advanced

$$$$
F2147-1322
  -ISIS-  06222321442D

 14 16  0  0  0  0  0  0  0  0999 V2000
    4.4042   -0.3583    0.0000 C   0  0  0  0  0  0  0  0  0  0  0  0
    4.6583   -1.1458    0.0000 C   0  0  0  0  0  0  0  0  0  0  0  0
    3.9917   -1.6250    0.0000 N   0  0  0  0  0  0  0  0  0  0  0  0
    3.5792   -0.3583    0.0000 C   0  0  0  0  0  0  0  0  0  0  0  0
    3.3208   -1.1458    0.0000 C   0  0  0  0  0  0  0  0  0  0  0  0
    5.9625    1.0958    0.0000 N   0  0  0  0  0  0  0  0  0  0  0  0
    4.8833    0.3083    0.0000 C   0  0  3  0  0  0  0  0  0  0  0  0
    5.7083    0.3125    0.0000 C   0  0  0  0  0  0  0  0  0  0  0  0
    3.0292    0.2542    0.0000 C   0  0  0  0  0  0  0  0  0  0  0  0
    5.2958    1.5792    0.0000 C   0  0  0  0  0  0  0  0  0  0  0  0
    2.5167   -1.3167    0.0000 C   0  0  0  0  0  0  0  0  0  0  0  0
    4.6292    1.0958    0.0000 C   0  0  0  0  0  0  0  0  0  0  0  0
    2.2208    0.0875    0.0000 C   0  0  0  0  0  0  0  0  0  0  0  0
    1.9625   -0.7042    0.0000 C   0  0  0  0  0  0  0  0  0  0  0  0
  2  1  2  0  0  0  0
  3  2  1  0  0  0  0
  4  1  1  0  0  0  0
  5  4  2  0  0  0  0
  6  8  1  0  0  0  0
  7  1  1  0  0  0  0
  8  7  1  0  0  0  0
  9  4  1  0  0  0  0
 10 12  1  0  0  0  0
 11  5  1  0  0  0  0
 12  7  1  0  0  0  0
 13  9  2  0  0  0  0
 14 13  1  0  0  0  0
  3  5  1  0  0  0  0
 10  6  1  0  0  0  0
 11 14  2  0  0  0  0
M  END
> <IDNUMBER>
F2147-1322

> <Chemical_Name>
3-(pyrrolidin-3-yl)-1H-indole

> <CAS>
3766-02-7

> <PriceCoeff>
1.50

> <MW>
186.25

> <Description>
solid

> <FSP3>
0.33

> <clogP>
1.92

> <TPSA>
27.82

> <Acceptor>
0

> <Donor>
2

> <RotBonds>
1

> <HAC>
14

> <Collection>
Advanced

> <Reference_compound>
CHEMBL2229708

> <Similarity>
0.8130

$$$$
F0908-3954
  -ISIS-  06222321452D

 11 11  0  0  0  0  0  0  0  0999 V2000
   -4.5083    6.5875    0.0000 C   0  0  0  0  0  0  0  0  0  0  0  0
   -7.3542    1.6125    0.0000 S   0  0  0  0  0  0  0  0  0  0  0  0
   -4.5083    9.9542    0.0000 O   0  0  0  0  0  0  0  0  0  0  0  0
   -7.3542    4.9792    0.0000 C   0  0  0  0  0  0  0  0  0  0  0  0
   -1.6500    4.9792    0.0000 O   0  0  0  0  0  0  0  0  0  0  0  0
  -10.2875   -0.1417    0.0000 C   0  0  0  0  0  0  0  0  0  0  0  0
  -10.2875   -3.5125    0.0000 C   0  0  0  0  0  0  0  0  0  0  0  0
  -13.1417    1.5458    0.0000 C   0  0  0  0  0  0  0  0  0  0  0  0
  -16.0000   -0.1417    0.0000 C   0  0  0  0  0  0  0  0  0  0  0  0
  -13.1417   -5.1250    0.0000 C   0  0  0  0  0  0  0  0  0  0  0  0
  -16.0000   -3.5125    0.0000 C   0  0  0  0  0  0  0  0  0  0  0  0
  2  4  1  0  0  0  0
  3  1  2  0  0  0  0
  4  1  1  0  0  0  0
  5  1  1  0  0  0  0
  6  2  1  0  0  0  0
  7  6  2  0  0  0  0
  8  6  1  0  0  0  0
  9  8  2  0  0  0  0
 10  7  1  0  0  0  0
 11  9  1  0  0  0  0
 10 11  2  0  0  0  0
M  END
> <IDNUMBER>
F0908-3954

> <Chemical_Name>
2-(phenylsulfanyl)acetic acid

> <CAS>
103-04-8

> <PriceCoeff>
1.00

> <MW>
168.21

> <Description>
solid

> <FSP3>
0.12

> <clogP>
1.88

> <TPSA>
62.60

> <Acceptor>
2

> <Donor>
0

> <RotBonds>
3

> <HAC>
11

> <Collection>
General

> <Reference_compound>
CHEMBL459548

> <Similarity>
1.0000

$$$$
F6395-4299
  -ISIS-  06222321462D

 22 24  0  0  0  0  0  0  0  0999 V2000
   -4.5833    3.8000    0.0000 C   0  0  0  0  0  0  0  0  0  0  0  0
   -3.8625    4.2125    0.0000 N   0  0  3  0  0  0  0  0  0  0  0  0
   -4.5833    2.9792    0.0000 N   0  0  0  0  0  0  0  0  0  0  0  0
   -6.0042    1.3375    0.0000 C   0  0  0  0  0  0  0  0  0  0  0  0
   -3.1583    5.4500    0.0000 C   0  0  3  0  0  0  0  0  0  0  0  0
   -5.3083    1.7458    0.0000 C   0  0  0  0  0  0  0  0  0  0  0  0
   -3.8708    5.0417    0.0000 C   0  0  0  0  0  0  0  0  0  0  0  0
   -5.3000    2.5792    0.0000 C   0  0  0  0  0  0  0  0  0  0  0  0
   -5.3000    4.2125    0.0000 O   0  0  0  0  0  0  0  0  0  0  0  0
   -6.7167    1.7458    0.0000 C   0  0  0  0  0  0  0  0  0  0  0  0
   -2.4458    5.0417    0.0000 O   0  0  0  0  0  0  0  0  0  0  0  0
   -3.1625    7.1042    0.0000 O   0  0  0  0  0  0  0  0  0  0  0  0
   -6.7208    2.5708    0.0000 C   0  0  0  0  0  0  0  0  0  0  0  0
   -6.0042    0.5083    0.0000 Cl  0  0  0  0  0  0  0  0  0  0  0  0
   -6.0042    2.9833    0.0000 C   0  0  0  0  0  0  0  0  0  0  0  0
   -2.4458    5.8750    0.0000 C   0  0  0  0  0  0  0  0  0  0  0  0
   -3.8708    5.8667    0.0000 C   0  0  0  0  0  0  0  0  0  0  0  0
   -3.1500    3.7958    0.0000 C   0  0  0  0  0  0  0  0  0  0  0  0
   -7.4417    1.3250    0.0000 Cl  0  0  0  0  0  0  0  0  0  0  0  0
   -2.4375    4.2167    0.0000 C   0  0  0  0  0  0  0  0  0  0  0  0
   -2.4500    6.7042    0.0000 C   0  0  0  0  0  0  0  0  0  0  0  0
   -3.8750    6.7000    0.0000 C   0  0  0  0  0  0  0  0  0  0  0  0
  2  1  1  0  0  0  0
  3  1  1  0  0  0  0
  4  6  1  0  0  0  0
  5  7  1  0  0  0  0
  6  8  2  0  0  0  0
  7  2  1  0  0  0  0
  8  3  1  0  0  0  0
  9  1  2  0  0  0  0
 10 13  1  0  0  0  0
 11 20  1  0  0  0  0
 12 22  1  0  0  0  0
 13 15  2  0  0  0  0
 14  4  1  0  0  0  0
 15  8  1  0  0  0  0
 16  5  1  0  0  0  0
 17  5  1  0  0  0  0
 18  2  1  0  0  0  0
 19 10  1  0  0  0  0
 20 18  1  0  0  0  0
 21 16  1  0  0  0  0
 22 17  1  0  0  0  0
 11  5  1  0  0  0  0
 10  4  2  0  0  0  0
 21 12  1  0  0  0  0
M  END
> <IDNUMBER>
F6395-4299

> <Chemical_Name>
N-(3,4-dichlorophenyl)-1,9-dioxa-4-azaspiro[5.5]undecane-4-carboxamide

> <CAS>
1421480-64-9

> <PriceCoeff>
1.50

> <MW>
345.22

> <Description>
solid

> <FSP3>
0.53

> <clogP>
2.11

> <TPSA>
50.80

> <Acceptor>
3

> <Donor>
1

> <RotBonds>
2

> <HAC>
22

> <Collection>
Advanced

$$$$
F6473-3906
  -ISIS-  06222321152D

 22 24  0  0  0  0  0  0  0  0999 V2000
   -3.7458    3.6958    0.0000 S   0  0  3  0  0  0  0  0  0  0  0  0
   -3.0333    4.1042    0.0000 N   0  0  3  0  0  0  0  0  0  0  0  0
   -1.3083    5.1042    0.0000 N   0  0  3  0  0  0  0  0  0  0  0  0
   -2.0333    4.6875    0.0000 C   0  0  3  0  0  0  0  0  0  0  0  0
   -2.2458    3.8958    0.0000 C   0  0  0  0  0  0  0  0  0  0  0  0
   -2.8208    4.9000    0.0000 C   0  0  0  0  0  0  0  0  0  0  0  0
   -4.4708    3.2917    0.0000 C   0  0  0  0  0  0  0  0  0  0  0  0
   -0.5583    4.7667    0.0000 C   0  0  0  0  0  0  0  0  0  0  0  0
   -1.2250    5.9167    0.0000 C   0  0  0  0  0  0  0  0  0  0  0  0
   -3.3458    2.9833    0.0000 O   0  0  0  0  0  0  0  0  0  0  0  0
   -4.1458    4.4042    0.0000 O   0  0  0  0  0  0  0  0  0  0  0  0
   -5.1708    3.7125    0.0000 C   0  0  0  0  0  0  0  0  0  0  0  0
   -0.0083    5.3792    0.0000 C   0  0  0  0  0  0  0  0  0  0  0  0
   -0.4208    6.0917    0.0000 C   0  0  0  0  0  0  0  0  0  0  0  0
   -0.3875    3.9625    0.0000 O   0  0  0  0  0  0  0  0  0  0  0  0
   -1.8417    6.4708    0.0000 O   0  0  0  0  0  0  0  0  0  0  0  0
   -5.8917    3.3125    0.0000 C   0  0  0  0  0  0  0  0  0  0  0  0
   -4.4833    2.4583    0.0000 C   0  0  0  0  0  0  0  0  0  0  0  0
   -6.5875    3.7333    0.0000 O   0  0  0  0  0  0  0  0  0  0  0  0
   -5.2042    2.0583    0.0000 C   0  0  0  0  0  0  0  0  0  0  0  0
   -5.9042    2.4833    0.0000 C   0  0  0  0  0  0  0  0  0  0  0  0
   -7.3167    3.3333    0.0000 C   0  0  0  0  0  0  0  0  0  0  0  0
  2  1  1  0  0  0  0
  3  4  1  0  0  0  0
  4  6  1  0  0  0  0
  5  2  1  0  0  0  0
  6  2  1  0  0  0  0
  7  1  1  0  0  0  0
  8  3  1  0  0  0  0
  9  3  1  0  0  0  0
 10  1  2  0  0  0  0
 11  1  2  0  0  0  0
 12  7  2  0  0  0  0
 13  8  1  0  0  0  0
 14  9  1  0  0  0  0
 15  8  2  0  0  0  0
 16  9  2  0  0  0  0
 17 12  1  0  0  0  0
 18  7  1  0  0  0  0
 19 17  1  0  0  0  0
 20 18  2  0  0  0  0
 21 20  1  0  0  0  0
 22 19  1  0  0  0  0
  4  5  1  0  0  0  0
 21 17  2  0  0  0  0
 14 13  1  0  0  0  0
M  END
> <IDNUMBER>
F6473-3906

> <Chemical_Name>
1-[1-(3-methoxybenzenesulfonyl)azetidin-3-yl]pyrrolidine-2,5-dione

> <CAS>
1798639-05-0

> <PriceCoeff>
1.00

> <MW>
324.35

> <Description>
solid

> <FSP3>
0.43

> <clogP>
0.94

> <TPSA>
92.37

> <Acceptor>
5

> <Donor>
0

> <RotBonds>
4

> <HAC>
22

> <Collection>
General

$$$$
F3115-0062
  -ISIS-  06222321462D

 27 30  0  0  0  0  0  0  0  0999 V2000
    5.7292   -2.2375    0.0000 N   0  0  3  0  0  0  0  0  0  0  0  0
    6.2167   -2.9042    0.0000 C   0  0  0  0  0  0  0  0  0  0  0  0
    6.2125   -1.5667    0.0000 C   0  0  0  0  0  0  0  0  0  0  0  0
    7.0042   -2.6417    0.0000 C   0  0  3  0  0  0  0  0  0  0  0  0
    8.4167   -2.7792    0.0000 C   0  0  0  0  0  0  0  0  0  0  0  0
    7.6667   -3.1250    0.0000 C   0  0  3  0  0  0  0  0  0  0  0  0
    7.0000   -1.8167    0.0000 C   0  0  0  0  0  0  0  0  0  0  0  0
    8.5000   -1.9625    0.0000 N   0  0  3  0  0  0  0  0  0  0  0  0
    4.9042   -2.2417    0.0000 C   0  0  0  0  0  0  0  0  0  0  0  0
    5.9667   -3.6875    0.0000 O   0  0  0  0  0  0  0  0  0  0  0  0
    5.9542   -0.7792    0.0000 O   0  0  0  0  0  0  0  0  0  0  0  0
    9.0875   -3.2667    0.0000 C   0  0  0  0  0  0  0  0  0  0  0  0
    8.6667   -0.3167    0.0000 O   0  0  0  0  0  0  0  0  0  0  0  0
    4.5000   -2.9542    0.0000 C   0  0  0  0  0  0  0  0  0  0  0  0
    4.4917   -1.5292    0.0000 C   0  0  0  0  0  0  0  0  0  0  0  0
    3.6667   -1.5292    0.0000 C   0  0  0  0  0  0  0  0  0  0  0  0
    3.6792   -2.9625    0.0000 C   0  0  0  0  0  0  0  0  0  0  0  0
    3.2542   -2.2500    0.0000 C   0  0  0  0  0  0  0  0  0  0  0  0
    9.2542   -1.6250    0.0000 C   0  0  0  0  0  0  0  0  0  0  0  0
    7.8292   -1.4792    0.0000 C   0  0  0  0  0  0  0  0  0  0  0  0
    7.5792   -3.9417    0.0000 C   0  0  0  0  0  0  0  0  0  0  0  0
    7.9167   -0.6625    0.0000 C   0  0  0  0  0  0  0  0  0  0  0  0
    9.3375   -0.8042    0.0000 C   0  0  0  0  0  0  0  0  0  0  0  0
    9.0042   -4.0875    0.0000 C   0  0  0  0  0  0  0  0  0  0  0  0
    2.4292   -2.2542    0.0000 C   0  0  0  0  0  0  0  0  0  0  0  0
    8.2500   -4.4250    0.0000 C   0  0  0  0  0  0  0  0  0  0  0  0
    2.0167   -1.5417    0.0000 C   0  0  0  0  0  0  0  0  0  0  0  0
  2  1  1  0  0  0  0
  3  1  1  0  0  0  0
  4  2  1  0  0  0  0
  5  6  1  0  0  0  0
  6  4  1  0  0  0  0
  7  3  1  0  0  0  0
  8  5  1  0  0  0  0
  9  1  1  0  0  0  0
 10  2  2  0  0  0  0
 11  3  2  0  0  0  0
 12  5  2  0  0  0  0
 13 22  1  0  0  0  0
 14  9  1  0  0  0  0
 15  9  2  0  0  0  0
 16 15  1  0  0  0  0
 17 14  2  0  0  0  0
 18 16  2  0  0  0  0
 19  8  1  0  0  0  0
 20  8  1  0  0  0  0
 21  6  1  0  0  0  0
 22 20  1  0  0  0  0
 23 19  1  0  0  0  0
 24 26  1  0  0  0  0
 25 18  1  0  0  0  0
 26 21  1  0  0  0  0
 27 25  1  0  0  0  0
  7  4  1  0  0  0  0
 17 18  1  0  0  0  0
 24 12  1  0  0  0  0
 13 23  1  0  0  0  0
M  END
> <IDNUMBER>
F3115-0062

> <Chemical_Name>
1-(4-ethylphenyl)-3-[2-(morpholin-4-yl)cyclohex-2-en-1-yl]pyrrolidine-2,5-dione

> <CAS>
857494-34-9

> <PriceCoeff>
1.50

> <MW>
368.47

> <Description>
solid

> <FSP3>
0.55

> <clogP>
2.48

> <TPSA>
49.85

> <Acceptor>
3

> <Donor>
1

> <RotBonds>
4

> <HAC>
27

> <Collection>
Advanced

$$$$
F1191-0074
  -ISIS-  06222321452D

 16 17  0  0  0  0  0  0  0  0999 V2000
   -0.7000    0.0625    0.0000 C   0  0  0  0  0  0  0  0  0  0  0  0
   -0.7000    0.8875    0.0000 C   0  0  0  0  0  0  0  0  0  0  0  0
   -1.4208   -0.3417    0.0000 N   0  0  3  0  0  0  0  0  0  0  0  0
    0.0750   -0.1917    0.0000 N   0  0  0  0  0  0  0  0  0  0  0  0
   -2.1500    0.0625    0.0000 C   0  0  0  0  0  0  0  0  0  0  0  0
   -2.1500    0.8875    0.0000 N   0  0  0  0  0  0  0  0  0  0  0  0
   -1.4208    1.3083    0.0000 C   0  0  0  0  0  0  0  0  0  0  0  0
    0.5500    0.4875    0.0000 C   0  0  0  0  0  0  0  0  0  0  0  0
    0.1292    1.2083    0.0000 N   0  0  0  0  0  0  0  0  0  0  0  0
   -2.8833   -0.3417    0.0000 O   0  0  0  0  0  0  0  0  0  0  0  0
   -1.4208    2.1333    0.0000 O   0  0  0  0  0  0  0  0  0  0  0  0
    1.3667    0.4875    0.0000 N   0  0  0  0  0  0  0  0  0  0  0  0
   -1.4208   -1.1667    0.0000 C   0  0  0  0  0  0  0  0  0  0  0  0
    3.0042    0.4833    0.0000 O   0  0  0  0  0  0  0  0  0  0  0  0
    1.7792   -0.2167    0.0000 C   0  0  0  0  0  0  0  0  0  0  0  0
    2.5917   -0.2167    0.0000 C   0  0  0  0  0  0  0  0  0  0  0  0
  2  1  2  0  0  0  0
  3  1  1  0  0  0  0
  4  1  1  0  0  0  0
  5  3  1  0  0  0  0
  6  5  1  0  0  0  0
  7  2  1  0  0  0  0
  8  4  2  0  0  0  0
  9  2  1  0  0  0  0
 10  5  2  0  0  0  0
 11  7  2  0  0  0  0
 12  8  1  0  0  0  0
 13  3  1  0  0  0  0
 14 16  1  0  0  0  0
 15 12  1  0  0  0  0
 16 15  1  0  0  0  0
  9  8  1  0  0  0  0
  7  6  1  0  0  0  0
M  END
> <IDNUMBER>
F1191-0074

> <Chemical_Name>
8-[(2-hydroxyethyl)amino]-3-methyl-2,3,6,7-tetrahydro-1H-purine-2,6-dione

> <CAS>
625822-51-7

> <PriceCoeff>
1.00

> <MW>
225.21

> <Description>
solid

> <FSP3>
0.38

> <clogP>
-0.86

> <TPSA>
110.35

> <Acceptor>
5

> <Donor>
5

> <RotBonds>
3

> <HAC>
16

> <Collection>
General

> <Reference_compound>
CHEMBL190

> <Similarity>
0.8110

$$$$
F5857-3071
  -ISIS-  06222321462D

 24 26  0  0  0  0  0  0  0  0999 V2000
   -5.2833    2.5708    0.0000 N   0  0  3  0  0  0  0  0  0  0  0  0
   -5.3625    1.7458    0.0000 C   0  0  0  0  0  0  0  0  0  0  0  0
   -6.0292    2.9000    0.0000 C   0  0  0  0  0  0  0  0  0  0  0  0
   -4.5708    2.9875    0.0000 C   0  0  0  0  0  0  0  0  0  0  0  0
   -1.7208    7.1125    0.0000 C   0  0  0  0  0  0  0  0  0  0  0  0
   -2.4333    5.8542    0.0000 C   0  0  0  0  0  0  0  0  0  0  0  0
   -4.5708    3.8000    0.0000 C   0  0  0  0  0  0  0  0  0  0  0  0
   -3.1458    5.4417    0.0000 C   0  0  3  0  0  0  0  0  0  0  0  0
   -2.4333    6.6875    0.0000 C   0  0  0  0  0  0  0  0  0  0  0  0
   -1.0083    6.7042    0.0000 C   0  0  0  0  0  0  0  0  0  0  0  0
   -1.5458    7.9042    0.0000 O   0  0  0  0  0  0  0  0  0  0  0  0
   -0.3958    7.2542    0.0000 O   0  0  0  0  0  0  0  0  0  0  0  0
   -3.8583    4.2125    0.0000 N   0  0  0  0  0  0  0  0  0  0  0  0
   -0.7333    8.0042    0.0000 C   0  0  0  0  0  0  0  0  0  0  0  0
   -6.1667    1.5708    0.0000 C   0  0  0  0  0  0  0  0  0  0  0  0
   -6.5750    2.2833    0.0000 C   0  0  0  0  0  0  0  0  0  0  0  0
   -4.7458    1.1833    0.0000 O   0  0  0  0  0  0  0  0  0  0  0  0
   -6.2042    3.7083    0.0000 O   0  0  0  0  0  0  0  0  0  0  0  0
   -3.8583    5.0292    0.0000 C   0  0  0  0  0  0  0  0  0  0  0  0
   -1.7125    5.4542    0.0000 C   0  0  0  0  0  0  0  0  0  0  0  0
   -5.2958    4.2125    0.0000 O   0  0  0  0  0  0  0  0  0  0  0  0
   -0.9958    5.8750    0.0000 C   0  0  0  0  0  0  0  0  0  0  0  0
   -3.5583    6.1542    0.0000 O   0  0  0  0  0  0  0  0  0  0  0  0
   -2.7333    4.7292    0.0000 C   0  0  0  0  0  0  0  0  0  0  0  0
  2  1  1  0  0  0  0
  3  1  1  0  0  0  0
  4  1  1  0  0  0  0
  5  9  1  0  0  0  0
  6  8  1  0  0  0  0
  7  4  1  0  0  0  0
  8 19  1  0  0  0  0
  9  6  2  0  0  0  0
 10 22  1  0  0  0  0
 11  5  1  0  0  0  0
 12 10  1  0  0  0  0
 13  7  1  0  0  0  0
 14 11  1  0  0  0  0
 15  2  1  0  0  0  0
 16  3  1  0  0  0  0
 17  2  2  0  0  0  0
 18  3  2  0  0  0  0
 19 13  1  0  0  0  0
 20  6  1  0  0  0  0
 21  7  2  0  0  0  0
 22 20  2  0  0  0  0
 23  8  1  0  0  0  0
 24  8  1  0  0  0  0
 15 16  1  0  0  0  0
  5 10  2  0  0  0  0
 14 12  1  0  0  0  0
M  END
> <IDNUMBER>
F5857-3071

> <Chemical_Name>
N-[2-(2H-1,3-benzodioxol-5-yl)-2-hydroxypropyl]-2-(2,5-dioxopyrrolidin-1-yl)acetamide

> <CAS>
1396711-55-9

> <PriceCoeff>
1.00

> <MW>
334.32

> <Description>
solid

> <FSP3>
0.44

> <clogP>
0.36

> <TPSA>
105.17

> <Acceptor>
6

> <Donor>
2

> <RotBonds>
5

> <HAC>
24

> <Collection>
General

$$$$
F9995-0012
  -ISIS-  06222321162D

  8  8  0  0  0  0  0  0  0  0999 V2000
    1.0542    1.1458    0.0000 C   0  0  3  0  0  0  0  0  0  0  0  0
    0.3792    0.6583    0.0000 C   0  0  0  0  0  0  0  0  0  0  0  0
    0.3792   -0.1667    0.0000 O   0  0  0  0  0  0  0  0  0  0  0  0
    0.8000    1.9333    0.0000 C   0  0  0  0  0  0  0  0  0  0  0  0
   -0.2750    1.1458    0.0000 C   0  0  0  0  0  0  0  0  0  0  0  0
   -0.0208    1.9333    0.0000 C   0  0  0  0  0  0  0  0  0  0  0  0
    1.6917    1.6708    0.0000 C   0  0  0  0  0  0  0  0  0  0  0  0
    1.8250    0.8583    0.0000 C   0  0  0  0  0  0  0  0  0  0  0  0
  2  1  1  0  0  0  0
  3  2  2  0  0  0  0
  4  1  1  0  0  0  0
  5  2  1  0  0  0  0
  6  4  1  0  0  0  0
  7  1  1  0  0  0  0
  8  1  1  0  0  0  0
  5  6  1  0  0  0  0
M  END
> <IDNUMBER>
F9995-0012

> <Chemical_Name>
2,2-dimethylcyclopentan-1-one

> <CAS>
4541-32-6

> <PriceCoeff>
1.00

> <MW>
112.17

> <Description>
liquid

> <FSP3>
0.86

> <clogP>
1.34

> <TPSA>
17.07

> <Acceptor>
1

> <Donor>
0

> <RotBonds>
0

> <HAC>
8

> <Collection>
General

> <Reference_compound>
CHEMBL2288243

> <Similarity>
0.8670

$$$$
F5967-0071
  -ISIS-  06222321152D

 28 31  0  0  0  0  0  0  0  0999 V2000
   -5.3708    6.4917    0.0000 C   0  0  0  0  0  0  0  0  0  0  0  0
   -5.2958    2.5583    0.0000 N   0  0  3  0  0  0  0  0  0  0  0  0
   -4.5833    6.2792    0.0000 C   0  0  0  0  0  0  0  0  0  0  0  0
   -5.7833    7.2042    0.0000 N   0  0  3  0  0  0  0  0  0  0  0  0
   -5.3708    1.7333    0.0000 C   0  0  0  0  0  0  0  0  0  0  0  0
   -6.0292    2.8958    0.0000 C   0  0  0  0  0  0  0  0  0  0  0  0
   -4.5833    3.8000    0.0000 C   0  0  0  0  0  0  0  0  0  0  0  0
   -4.5833    2.9833    0.0000 C   0  0  0  0  0  0  0  0  0  0  0  0
   -3.8583    6.6917    0.0000 C   0  0  0  0  0  0  0  0  0  0  0  0
   -4.5833    5.4542    0.0000 C   0  0  0  0  0  0  0  0  0  0  0  0
   -3.8625    4.2125    0.0000 N   0  0  0  0  0  0  0  0  0  0  0  0
   -5.8958    5.8375    0.0000 O   0  0  0  0  0  0  0  0  0  0  0  0
   -5.5708    8.0000    0.0000 C   0  0  3  0  0  0  0  0  0  0  0  0
   -3.8625    5.0292    0.0000 C   0  0  0  0  0  0  0  0  0  0  0  0
   -3.6458    7.4917    0.0000 O   0  0  0  0  0  0  0  0  0  0  0  0
   -6.1667    1.5583    0.0000 C   0  0  0  0  0  0  0  0  0  0  0  0
   -6.5875    2.2750    0.0000 C   0  0  0  0  0  0  0  0  0  0  0  0
   -4.7583    1.1708    0.0000 O   0  0  0  0  0  0  0  0  0  0  0  0
   -6.2125    3.7083    0.0000 O   0  0  0  0  0  0  0  0  0  0  0  0
   -5.3000    4.2125    0.0000 O   0  0  0  0  0  0  0  0  0  0  0  0
   -3.1458    6.2792    0.0000 C   0  0  0  0  0  0  0  0  0  0  0  0
   -6.5667    6.9917    0.0000 C   0  0  0  0  0  0  0  0  0  0  0  0
   -3.1458    5.4500    0.0000 C   0  0  0  0  0  0  0  0  0  0  0  0
   -4.8458    8.4042    0.0000 C   0  0  0  0  0  0  0  0  0  0  0  0
   -4.0583    8.1917    0.0000 C   0  0  0  0  0  0  0  0  0  0  0  0
   -6.1417    8.5792    0.0000 C   0  0  0  0  0  0  0  0  0  0  0  0
   -7.1542    7.5875    0.0000 C   0  0  0  0  0  0  0  0  0  0  0  0
   -6.9417    8.3667    0.0000 C   0  0  0  0  0  0  0  0  0  0  0  0
  2  8  1  0  0  0  0
  3  1  1  0  0  0  0
  4  1  1  0  0  0  0
  5  2  1  0  0  0  0
  6  2  1  0  0  0  0
  7 11  1  0  0  0  0
  8  7  1  0  0  0  0
  9  3  1  0  0  0  0
 10  3  2  0  0  0  0
 11 14  1  0  0  0  0
 12  1  2  0  0  0  0
 13  4  1  0  0  0  0
 14 10  1  0  0  0  0
 15  9  1  0  0  0  0
 16  5  1  0  0  0  0
 17  6  1  0  0  0  0
 18  5  2  0  0  0  0
 19  6  2  0  0  0  0
 20  7  2  0  0  0  0
 21  9  2  0  0  0  0
 22  4  1  0  0  0  0
 23 14  2  0  0  0  0
 24 13  1  0  0  0  0
 25 24  1  0  0  0  0
 26 13  1  0  0  0  0
 27 22  1  0  0  0  0
 28 27  1  0  0  0  0
 28 26  1  0  0  0  0
 25 15  1  0  0  0  0
 21 23  1  0  0  0  0
 17 16  1  0  0  0  0
M  END
> <IDNUMBER>
F5967-0071

> <Chemical_Name>
2-(2,5-dioxopyrrolidin-1-yl)-N-{2-oxo-9-oxa-1-azatricyclo[10.4.0.0^{3,8}]hexadeca-3,5,7-trien-5-yl}acetamide

> <CAS>
1226438-93-2

> <PriceCoeff>
1.00

> <MW>
385.41

> <Description>
solid

> <FSP3>
0.50

> <clogP>
0.72

> <TPSA>
96.02

> <Acceptor>
5

> <Donor>
1

> <RotBonds>
3

> <HAC>
28

> <Collection>
General

$$$$
F6473-3944
  -ISIS-  06222321152D

 23 25  0  0  0  0  0  0  0  0999 V2000
   -3.7458    3.6958    0.0000 S   0  0  3  0  0  0  0  0  0  0  0  0
   -3.0333    4.1042    0.0000 N   0  0  3  0  0  0  0  0  0  0  0  0
   -1.3083    5.1042    0.0000 N   0  0  3  0  0  0  0  0  0  0  0  0
   -2.0333    4.6875    0.0000 C   0  0  3  0  0  0  0  0  0  0  0  0
   -4.4667    3.2958    0.0000 C   0  0  0  0  0  0  0  0  0  0  0  0
   -2.8208    4.9000    0.0000 C   0  0  0  0  0  0  0  0  0  0  0  0
   -2.2458    3.8958    0.0000 C   0  0  0  0  0  0  0  0  0  0  0  0
   -0.5583    4.7667    0.0000 C   0  0  0  0  0  0  0  0  0  0  0  0
   -1.2250    5.9167    0.0000 C   0  0  0  0  0  0  0  0  0  0  0  0
   -4.4708    2.4583    0.0000 C   0  0  0  0  0  0  0  0  0  0  0  0
   -3.3333    2.9833    0.0000 O   0  0  0  0  0  0  0  0  0  0  0  0
   -4.1542    4.4042    0.0000 O   0  0  0  0  0  0  0  0  0  0  0  0
   -5.1833    2.0583    0.0000 C   0  0  0  0  0  0  0  0  0  0  0  0
   -5.8958    2.4750    0.0000 C   0  0  0  0  0  0  0  0  0  0  0  0
   -0.0083    5.3792    0.0000 C   0  0  0  0  0  0  0  0  0  0  0  0
   -0.4208    6.0917    0.0000 C   0  0  0  0  0  0  0  0  0  0  0  0
   -0.3875    3.9625    0.0000 O   0  0  0  0  0  0  0  0  0  0  0  0
   -1.8417    6.4708    0.0000 O   0  0  0  0  0  0  0  0  0  0  0  0
   -5.1708    3.7125    0.0000 C   0  0  0  0  0  0  0  0  0  0  0  0
   -5.8833    3.3000    0.0000 C   0  0  0  0  0  0  0  0  0  0  0  0
   -5.1958    1.2333    0.0000 Cl  0  0  0  0  0  0  0  0  0  0  0  0
   -6.6042    2.0792    0.0000 O   0  0  0  0  0  0  0  0  0  0  0  0
   -7.3167    2.4958    0.0000 C   0  0  0  0  0  0  0  0  0  0  0  0
  2  1  1  0  0  0  0
  3  4  1  0  0  0  0
  4  7  1  0  0  0  0
  5  1  1  0  0  0  0
  6  2  1  0  0  0  0
  7  2  1  0  0  0  0
  8  3  1  0  0  0  0
  9  3  1  0  0  0  0
 10  5  1  0  0  0  0
 11  1  2  0  0  0  0
 12  1  2  0  0  0  0
 13 10  2  0  0  0  0
 14 20  2  0  0  0  0
 15  8  1  0  0  0  0
 16  9  1  0  0  0  0
 17  8  2  0  0  0  0
 18  9  2  0  0  0  0
 19  5  2  0  0  0  0
 20 19  1  0  0  0  0
 21 13  1  0  0  0  0
 22 14  1  0  0  0  0
 23 22  1  0  0  0  0
  6  4  1  0  0  0  0
 14 13  1  0  0  0  0
 16 15  1  0  0  0  0
M  END
> <IDNUMBER>
F6473-3944

> <Chemical_Name>
1-[1-(3-chloro-4-methoxybenzenesulfonyl)azetidin-3-yl]pyrrolidine-2,5-dione

> <CAS>
1795471-65-6

> <PriceCoeff>
1.00

> <MW>
358.80

> <Description>
solid

> <FSP3>
0.43

> <clogP>
1.47

> <TPSA>
92.37

> <Acceptor>
5

> <Donor>
0

> <RotBonds>
4

> <HAC>
23

> <Collection>
General

$$$$
F3229-0039
  -ISIS-  06222321462D

 19 20  0  0  0  0  0  0  0  0999 V2000
   -0.2125    0.6625    0.0000 N   0  0  3  0  0  0  0  0  0  0  0  0
   -0.4000   -0.1542    0.0000 C   0  0  0  0  0  0  0  0  0  0  0  0
   -0.8125    1.1125    0.0000 C   0  0  0  0  0  0  0  0  0  0  0  0
    1.2542    0.3333    0.0000 C   0  0  0  0  0  0  0  0  0  0  0  0
    0.6417    0.8833    0.0000 C   0  0  0  0  0  0  0  0  0  0  0  0
    2.0542    0.5958    0.0000 N   0  0  0  0  0  0  0  0  0  0  0  0
    4.0417   -0.2625    0.0000 C   0  0  0  0  0  0  0  0  0  0  0  0
    2.6542    0.0333    0.0000 C   0  0  0  0  0  0  0  0  0  0  0  0
   -1.4750    0.6333    0.0000 C   0  0  0  0  0  0  0  0  0  0  0  0
   -1.2250   -0.1542    0.0000 C   0  0  0  0  0  0  0  0  0  0  0  0
    3.4292    0.2875    0.0000 C   0  0  0  0  0  0  0  0  0  0  0  0
   -0.8208    1.9708    0.0000 O   0  0  0  0  0  0  0  0  0  0  0  0
    0.0792   -0.7917    0.0000 O   0  0  0  0  0  0  0  0  0  0  0  0
    3.8750   -1.0750    0.0000 C   0  0  0  0  0  0  0  0  0  0  0  0
    1.0792   -0.4792    0.0000 O   0  0  0  0  0  0  0  0  0  0  0  0
    3.0875   -1.3292    0.0000 C   0  0  0  0  0  0  0  0  0  0  0  0
    2.4750   -0.7750    0.0000 C   0  0  0  0  0  0  0  0  0  0  0  0
    4.8292   -0.0042    0.0000 C   0  0  0  0  0  0  0  0  0  0  0  0
    4.4875   -1.6250    0.0000 C   0  0  0  0  0  0  0  0  0  0  0  0
  2  1  1  0  0  0  0
  3  1  1  0  0  0  0
  4  5  1  0  0  0  0
  5  1  1  0  0  0  0
  6  4  1  0  0  0  0
  7 11  2  0  0  0  0
  8  6  1  0  0  0  0
  9  3  1  0  0  0  0
 10  2  1  0  0  0  0
 11  8  1  0  0  0  0
 12  3  2  0  0  0  0
 13  2  2  0  0  0  0
 14 16  2  0  0  0  0
 15  4  2  0  0  0  0
 16 17  1  0  0  0  0
 17  8  2  0  0  0  0
 18  7  1  0  0  0  0
 19 14  1  0  0  0  0
 10  9  1  0  0  0  0
 14  7  1  0  0  0  0
M  END
> <IDNUMBER>
F3229-0039

> <Chemical_Name>
N-(3,4-dimethylphenyl)-2-(2,5-dioxopyrrolidin-1-yl)acetamide

> <CAS>
923113-53-5

> <PriceCoeff>
1.50

> <MW>
260.29

> <Description>
solid

> <FSP3>
0.36

> <clogP>
1.56

> <TPSA>
66.48

> <Acceptor>
3

> <Donor>
1

> <RotBonds>
3

> <HAC>
19

> <Collection>
Advanced

$$$$
F6464-0017
  -ISIS-  06222321442D

 24 25  0  0  0  0  0  0  0  0999 V2000
   -3.1583    4.2042    0.0000 N   0  0  3  0  0  0  0  0  0  0  0  0
   -3.8708    3.8083    0.0000 C   0  0  0  0  0  0  0  0  0  0  0  0
   -3.8708    2.9833    0.0000 C   0  0  3  0  0  0  0  0  0  0  0  0
   -2.4750    3.7500    0.0000 C   0  0  0  0  0  0  0  0  0  0  0  0
   -3.1583    2.5708    0.0000 N   0  0  0  0  0  0  0  0  0  0  0  0
   -3.1500    1.7458    0.0000 C   0  0  0  0  0  0  0  0  0  0  0  0
   -1.6958    3.9958    0.0000 C   0  0  3  0  0  0  0  0  0  0  0  0
   -4.5833    4.2042    0.0000 O   0  0  0  0  0  0  0  0  0  0  0  0
   -3.8708    1.3333    0.0000 O   0  0  0  0  0  0  0  0  0  0  0  0
   -1.1333    3.3958    0.0000 C   0  0  0  0  0  0  0  0  0  0  0  0
   -4.5833    2.5708    0.0000 C   0  0  0  0  0  0  0  0  0  0  0  0
   -3.2208    5.0292    0.0000 C   0  0  0  0  0  0  0  0  0  0  0  0
   -5.2875    1.3333    0.0000 S   0  0  0  0  0  0  0  0  0  0  0  0
   -2.4458    1.3375    0.0000 C   0  0  0  0  0  0  0  0  0  0  0  0
   -4.5833    1.7458    0.0000 C   0  0  0  0  0  0  0  0  0  0  0  0
   -1.3958    4.7542    0.0000 C   0  0  0  0  0  0  0  0  0  0  0  0
   -1.3750    2.6083    0.0000 C   0  0  0  0  0  0  0  0  0  0  0  0
   -0.3333    3.5833    0.0000 C   0  0  0  0  0  0  0  0  0  0  0  0
   -5.2958    0.5083    0.0000 C   0  0  0  0  0  0  0  0  0  0  0  0
   -2.6208    5.5917    0.0000 C   0  0  0  0  0  0  0  0  0  0  0  0
   -1.7958    5.4667    0.0000 C   0  0  0  0  0  0  0  0  0  0  0  0
   -0.8125    2.0000    0.0000 C   0  0  0  0  0  0  0  0  0  0  0  0
    0.2292    2.9833    0.0000 C   0  0  0  0  0  0  0  0  0  0  0  0
   -0.0083    2.1875    0.0000 C   0  0  0  0  0  0  0  0  0  0  0  0
  2  1  1  0  0  0  0
  3  2  1  0  0  0  0
  4  1  1  0  0  0  0
  5  3  1  0  0  0  0
  6  5  1  0  0  0  0
  7  4  1  0  0  0  0
  8  2  2  0  0  0  0
  9  6  2  0  0  0  0
 10  7  1  0  0  0  0
 11  3  1  0  0  0  0
 12  1  1  0  0  0  0
 13 15  1  0  0  0  0
 14  6  1  0  0  0  0
 15 11  1  0  0  0  0
 16  7  1  0  0  0  0
 17 10  2  0  0  0  0
 18 10  1  0  0  0  0
 19 13  1  0  0  0  0
 20 12  1  0  0  0  0
 21 20  1  0  0  0  0
 22 17  1  0  0  0  0
 23 18  2  0  0  0  0
 24 23  1  0  0  0  0
 21 16  1  0  0  0  0
 22 24  2  0  0  0  0
M  END
> <IDNUMBER>
F6464-0017

> <Chemical_Name>
N-[4-(methylsulfanyl)-1-oxo-1-(3-phenylazepan-1-yl)butan-2-yl]acetamide

> <CAS>
2034209-99-7

> <PriceCoeff>
1.50

> <MW>
348.50

> <Description>
oil

> <FSP3>
0.58

> <clogP>
2.27

> <TPSA>
74.71

> <Acceptor>
2

> <Donor>
1

> <RotBonds>
7

> <HAC>
24

> <Collection>
Advanced

> <Reference_compound>
CHEMBL486084

> <Similarity>
0.8120

$$$$
F6412-2278
  -ISIS-  06222321442D

 25 27  0  0  0  0  0  0  0  0999 V2000
   -4.6750    2.5833    0.0000 N   0  0  3  0  0  0  0  0  0  0  0  0
   -5.4208    2.9833    0.0000 C   0  0  0  0  0  0  0  0  0  0  0  0
   -4.8125    1.7625    0.0000 C   0  0  0  0  0  0  0  0  0  0  0  0
   -3.9250    2.9583    0.0000 C   0  0  0  0  0  0  0  0  0  0  0  0
   -6.6917    8.7583    0.0000 C   0  0  0  0  0  0  0  0  0  0  0  0
   -3.8625    5.4500    0.0000 C   0  0  0  0  0  0  0  0  0  0  0  0
   -4.5708    5.8583    0.0000 C   0  0  0  0  0  0  0  0  0  0  0  0
   -3.8708    3.8000    0.0000 C   0  0  0  0  0  0  0  0  0  0  0  0
   -5.9750    8.3417    0.0000 C   0  0  0  0  0  0  0  0  0  0  0  0
   -7.4042    8.3500    0.0000 C   0  0  0  0  0  0  0  0  0  0  0  0
   -6.8583    9.5667    0.0000 O   0  0  0  0  0  0  0  0  0  0  0  0
   -8.0083    8.9042    0.0000 O   0  0  0  0  0  0  0  0  0  0  0  0
   -7.6792    9.6542    0.0000 C   0  0  0  0  0  0  0  0  0  0  0  0
   -6.0167    2.3917    0.0000 C   0  0  0  0  0  0  0  0  0  0  0  0
   -5.6458    1.6333    0.0000 C   0  0  0  0  0  0  0  0  0  0  0  0
   -5.5458    3.8083    0.0000 O   0  0  0  0  0  0  0  0  0  0  0  0
   -4.2250    1.1708    0.0000 O   0  0  0  0  0  0  0  0  0  0  0  0
   -4.4667    4.0875    0.0000 O   0  0  0  0  0  0  0  0  0  0  0  0
   -7.4042    7.5167    0.0000 C   0  0  0  0  0  0  0  0  0  0  0  0
   -3.1583    4.2042    0.0000 N   0  0  0  0  0  0  0  0  0  0  0  0
   -5.9958    7.5167    0.0000 C   0  0  0  0  0  0  0  0  0  0  0  0
   -6.6917    7.1167    0.0000 C   0  0  0  0  0  0  0  0  0  0  0  0
   -3.1583    5.0292    0.0000 C   0  0  0  0  0  0  0  0  0  0  0  0
   -5.2875    6.2792    0.0000 C   0  0  0  0  0  0  0  0  0  0  0  0
   -5.2833    7.1042    0.0000 O   0  0  0  0  0  0  0  0  0  0  0  0
  2  1  1  0  0  0  0
  3  1  1  0  0  0  0
  4  1  1  0  0  0  0
  5  9  1  0  0  0  0
  6 23  1  0  0  0  0
  7  6  3  0  0  0  0
  8  4  1  0  0  0  0
  9 21  2  0  0  0  0
 10 19  1  0  0  0  0
 11  5  1  0  0  0  0
 12 10  1  0  0  0  0
 13 11  1  0  0  0  0
 14  2  1  0  0  0  0
 15  3  1  0  0  0  0
 16  2  2  0  0  0  0
 17  3  2  0  0  0  0
 18  8  2  0  0  0  0
 19 22  2  0  0  0  0
 20  8  1  0  0  0  0
 21 25  1  0  0  0  0
 22 21  1  0  0  0  0
 23 20  1  0  0  0  0
 24  7  1  0  0  0  0
 25 24  1  0  0  0  0
 14 15  1  0  0  0  0
  5 10  2  0  0  0  0
 13 12  1  0  0  0  0
M  END
> <IDNUMBER>
F6412-2278

> <Chemical_Name>
N-[4-(2H-1,3-benzodioxol-5-yloxy)but-2-yn-1-yl]-2-(2,5-dioxopyrrolidin-1-yl)acetamide

> <CAS>
1448132-46-4

> <PriceCoeff>
1.00

> <MW>
344.32

> <Description>
solid

> <FSP3>
0.35

> <clogP>
1.66

> <TPSA>
94.17

> <Acceptor>
6

> <Donor>
1

> <RotBonds>
6

> <HAC>
25

> <Collection>
General

$$$$
F6412-6777
  -ISIS-  06222321442D

 25 26  0  0  0  0  0  0  0  0999 V2000
   -4.6750    2.5833    0.0000 N   0  0  3  0  0  0  0  0  0  0  0  0
   -5.4208    2.9833    0.0000 C   0  0  0  0  0  0  0  0  0  0  0  0
   -4.8125    1.7625    0.0000 C   0  0  0  0  0  0  0  0  0  0  0  0
   -5.9875    8.3542    0.0000 C   0  0  0  0  0  0  0  0  0  0  0  0
   -5.2708    8.7542    0.0000 C   0  0  0  0  0  0  0  0  0  0  0  0
   -3.9250    2.9583    0.0000 C   0  0  0  0  0  0  0  0  0  0  0  0
   -3.8708    5.4542    0.0000 C   0  0  0  0  0  0  0  0  0  0  0  0
   -4.5708    5.8667    0.0000 C   0  0  0  0  0  0  0  0  0  0  0  0
   -3.8708    3.8000    0.0000 C   0  0  0  0  0  0  0  0  0  0  0  0
   -5.9958    7.5250    0.0000 C   0  0  0  0  0  0  0  0  0  0  0  0
   -6.0167    2.3917    0.0000 C   0  0  0  0  0  0  0  0  0  0  0  0
   -5.6458    1.6333    0.0000 C   0  0  0  0  0  0  0  0  0  0  0  0
   -5.5458    3.8083    0.0000 O   0  0  0  0  0  0  0  0  0  0  0  0
   -4.2250    1.1708    0.0000 O   0  0  0  0  0  0  0  0  0  0  0  0
   -4.5708    8.3417    0.0000 O   0  0  0  0  0  0  0  0  0  0  0  0
   -4.4667    4.0875    0.0000 O   0  0  0  0  0  0  0  0  0  0  0  0
   -5.2708    9.5792    0.0000 N   0  0  0  0  0  0  0  0  0  0  0  0
   -3.1583    4.2042    0.0000 N   0  0  0  0  0  0  0  0  0  0  0  0
   -3.1583    5.0417    0.0000 C   0  0  0  0  0  0  0  0  0  0  0  0
   -5.2833    7.1125    0.0000 O   0  0  0  0  0  0  0  0  0  0  0  0
   -6.6917    8.7667    0.0000 C   0  0  0  0  0  0  0  0  0  0  0  0
   -5.2958    6.2917    0.0000 C   0  0  0  0  0  0  0  0  0  0  0  0
   -6.6917    7.1167    0.0000 C   0  0  0  0  0  0  0  0  0  0  0  0
   -7.4042    8.3667    0.0000 C   0  0  0  0  0  0  0  0  0  0  0  0
   -7.4042    7.5333    0.0000 C   0  0  0  0  0  0  0  0  0  0  0  0
  2  1  1  0  0  0  0
  3  1  1  0  0  0  0
  4 10  2  0  0  0  0
  5  4  1  0  0  0  0
  6  1  1  0  0  0  0
  7 19  1  0  0  0  0
  8  7  3  0  0  0  0
  9  6  1  0  0  0  0
 10 20  1  0  0  0  0
 11  2  1  0  0  0  0
 12  3  1  0  0  0  0
 13  2  2  0  0  0  0
 14  3  2  0  0  0  0
 15  5  2  0  0  0  0
 16  9  2  0  0  0  0
 17  5  1  0  0  0  0
 18  9  1  0  0  0  0
 19 18  1  0  0  0  0
 20 22  1  0  0  0  0
 21  4  1  0  0  0  0
 22  8  1  0  0  0  0
 23 10  1  0  0  0  0
 24 25  1  0  0  0  0
 25 23  2  0  0  0  0
 11 12  1  0  0  0  0
 21 24  2  0  0  0  0
M  END
> <IDNUMBER>
F6412-6777

> <Chemical_Name>
2-({4-[2-(2,5-dioxopyrrolidin-1-yl)acetamido]but-2-yn-1-yl}oxy)benzamide

> <CAS>
1421506-50-4

> <PriceCoeff>
1.00

> <MW>
343.33

> <Description>
solid

> <FSP3>
0.29

> <clogP>
0.33

> <TPSA>
118.80

> <Acceptor>
5

> <Donor>
2

> <RotBonds>
7

> <HAC>
25

> <Collection>
General

$$$$
F5857-3829
  -ISIS-  06222321152D

 24 25  0  0  0  0  0  0  0  0999 V2000
   -5.2833    2.5708    0.0000 N   0  0  3  0  0  0  0  0  0  0  0  0
   -5.3625    1.7458    0.0000 C   0  0  0  0  0  0  0  0  0  0  0  0
   -6.0292    2.9000    0.0000 C   0  0  0  0  0  0  0  0  0  0  0  0
   -4.5708    2.9875    0.0000 C   0  0  0  0  0  0  0  0  0  0  0  0
   -4.5708    3.8000    0.0000 C   0  0  0  0  0  0  0  0  0  0  0  0
   -3.8583    4.2125    0.0000 N   0  0  0  0  0  0  0  0  0  0  0  0
   -6.1667    1.5708    0.0000 C   0  0  0  0  0  0  0  0  0  0  0  0
   -6.5750    2.2833    0.0000 C   0  0  0  0  0  0  0  0  0  0  0  0
   -4.7458    1.1833    0.0000 O   0  0  0  0  0  0  0  0  0  0  0  0
   -6.2042    3.7083    0.0000 O   0  0  0  0  0  0  0  0  0  0  0  0
   -3.1458    5.4500    0.0000 C   0  0  3  0  0  0  0  0  0  0  0  0
   -5.2958    4.2125    0.0000 O   0  0  0  0  0  0  0  0  0  0  0  0
   -3.8583    5.0292    0.0000 C   0  0  0  0  0  0  0  0  0  0  0  0
   -2.4125    5.8542    0.0000 C   0  0  0  0  0  0  0  0  0  0  0  0
   -2.4083    6.6917    0.0000 C   0  0  0  0  0  0  0  0  0  0  0  0
   -2.4083    8.3292    0.0000 C   0  0  0  0  0  0  0  0  0  0  0  0
   -3.5625    6.1750    0.0000 O   0  0  0  0  0  0  0  0  0  0  0  0
   -3.1250    7.1042    0.0000 C   0  0  0  0  0  0  0  0  0  0  0  0
   -1.7000    7.0917    0.0000 C   0  0  0  0  0  0  0  0  0  0  0  0
   -1.6958    7.9042    0.0000 C   0  0  0  0  0  0  0  0  0  0  0  0
   -3.1208    7.9250    0.0000 C   0  0  0  0  0  0  0  0  0  0  0  0
   -2.4083    9.1625    0.0000 O   0  0  0  0  0  0  0  0  0  0  0  0
   -2.7250    4.7292    0.0000 C   0  0  0  0  0  0  0  0  0  0  0  0
   -1.6833    9.5667    0.0000 C   0  0  0  0  0  0  0  0  0  0  0  0
  2  1  1  0  0  0  0
  3  1  1  0  0  0  0
  4  1  1  0  0  0  0
  5  4  1  0  0  0  0
  6  5  1  0  0  0  0
  7  2  1  0  0  0  0
  8  3  1  0  0  0  0
  9  2  2  0  0  0  0
 10  3  2  0  0  0  0
 11 13  1  0  0  0  0
 12  5  2  0  0  0  0
 13  6  1  0  0  0  0
 14 11  1  0  0  0  0
 15 14  1  0  0  0  0
 16 20  1  0  0  0  0
 17 11  1  0  0  0  0
 18 15  2  0  0  0  0
 19 15  1  0  0  0  0
 20 19  2  0  0  0  0
 21 18  1  0  0  0  0
 22 16  1  0  0  0  0
 23 11  1  0  0  0  0
 24 22  1  0  0  0  0
  7  8  1  0  0  0  0
 21 16  2  0  0  0  0
M  END
> <IDNUMBER>
F5857-3829

> <Chemical_Name>
2-(2,5-dioxopyrrolidin-1-yl)-N-[2-hydroxy-3-(4-methoxyphenyl)-2-methylpropyl]acetamide

> <CAS>
1396853-26-1

> <PriceCoeff>
1.00

> <MW>
334.37

> <Description>
solid

> <FSP3>
0.47

> <clogP>
0.62

> <TPSA>
95.94

> <Acceptor>
5

> <Donor>
2

> <RotBonds>
7

> <HAC>
24

> <Collection>
General

$$$$
F6440-2409
  -ISIS-  06222321462D

 24 26  0  0  0  0  0  0  0  0999 V2000
   -3.0750    6.2750    0.0000 N   0  0  0  0  0  0  0  0  0  0  0  0
   -2.2708    6.4500    0.0000 N   0  0  3  0  0  0  0  0  0  0  0  0
   -2.4083    5.1167    0.0000 C   0  0  0  0  0  0  0  0  0  0  0  0
   -3.1583    5.4500    0.0000 C   0  0  0  0  0  0  0  0  0  0  0  0
   -1.8500    5.7292    0.0000 C   0  0  0  0  0  0  0  0  0  0  0  0
   -4.5833    3.8000    0.0000 C   0  0  0  0  0  0  0  0  0  0  0  0
   -3.8625    5.0417    0.0000 C   0  0  0  0  0  0  0  0  0  0  0  0
   -3.8625    4.2042    0.0000 N   0  0  0  0  0  0  0  0  0  0  0  0
   -5.2833    4.2000    0.0000 O   0  0  0  0  0  0  0  0  0  0  0  0
   -4.5833    2.9833    0.0000 C   0  0  0  0  0  0  0  0  0  0  0  0
   -2.1500    4.3292    0.0000 C   0  0  0  0  0  0  0  0  0  0  0  0
   -1.9375    7.2042    0.0000 C   0  0  0  0  0  0  0  0  0  0  0  0
   -5.3083    1.7500    0.0000 C   0  0  0  0  0  0  0  0  0  0  0  0
   -5.3208    0.0875    0.0000 C   0  0  0  0  0  0  0  0  0  0  0  0
   -1.0375    5.5750    0.0000 C   0  0  0  0  0  0  0  0  0  0  0  0
   -5.2958    2.5833    0.0000 C   0  0  0  0  0  0  0  0  0  0  0  0
   -4.5833    1.3250    0.0000 C   0  0  0  0  0  0  0  0  0  0  0  0
   -6.0167    1.3500    0.0000 C   0  0  0  0  0  0  0  0  0  0  0  0
   -6.0250    0.5250    0.0000 C   0  0  0  0  0  0  0  0  0  0  0  0
   -4.5958    0.5000    0.0000 C   0  0  0  0  0  0  0  0  0  0  0  0
   -5.3333   -0.7292    0.0000 O   0  0  0  0  0  0  0  0  0  0  0  0
   -6.0292   -1.1292    0.0000 C   0  0  0  0  0  0  0  0  0  0  0  0
   -1.3375    4.1667    0.0000 C   0  0  0  0  0  0  0  0  0  0  0  0
   -0.7833    4.7792    0.0000 C   0  0  0  0  0  0  0  0  0  0  0  0
  2  1  1  0  0  0  0
  3  4  1  0  0  0  0
  4  1  2  0  0  0  0
  5  2  1  0  0  0  0
  6  8  1  0  0  0  0
  7  4  1  0  0  0  0
  8  7  1  0  0  0  0
  9  6  2  0  0  0  0
 10  6  1  0  0  0  0
 11  3  1  0  0  0  0
 12  2  1  0  0  0  0
 13 16  1  0  0  0  0
 14 19  2  0  0  0  0
 15  5  1  0  0  0  0
 16 10  1  0  0  0  0
 17 13  1  0  0  0  0
 18 13  2  0  0  0  0
 19 18  1  0  0  0  0
 20 17  2  0  0  0  0
 21 14  1  0  0  0  0
 22 21  1  0  0  0  0
 23 11  1  0  0  0  0
 24 15  1  0  0  0  0
  5  3  2  0  0  0  0
 23 24  1  0  0  0  0
 20 14  1  0  0  0  0
M  END
> <IDNUMBER>
F6440-2409

> <Chemical_Name>
3-(4-methoxyphenyl)-N-[(1-methyl-4,5,6,7-tetrahydro-1H-indazol-3-yl)methyl]propanamide

> <CAS>
1448122-77-7

> <PriceCoeff>
1.50

> <MW>
327.42

> <Description>
solid

> <FSP3>
0.47

> <clogP>
2.19

> <TPSA>
56.15

> <Acceptor>
3

> <Donor>
1

> <RotBonds>
6

> <HAC>
24

> <Collection>
Advanced

> <Reference_compound>
CHEMBL2269988

> <Similarity>
0.8000

$$$$
F6200-3035
  -ISIS-  06222321152D

 24 26  0  0  0  0  0  0  0  0999 V2000
   -5.2833    2.5708    0.0000 N   0  0  3  0  0  0  0  0  0  0  0  0
   -3.1458    6.2792    0.0000 C   0  0  0  0  0  0  0  0  0  0  0  0
   -3.8208    6.7542    0.0000 C   0  0  0  0  0  0  0  0  0  0  0  0
   -3.5708    7.5542    0.0000 N   0  0  3  0  0  0  0  0  0  0  0  0
   -2.4833    6.7667    0.0000 C   0  0  0  0  0  0  0  0  0  0  0  0
   -2.7375    7.5542    0.0000 C   0  0  0  0  0  0  0  0  0  0  0  0
   -5.3625    1.7458    0.0000 C   0  0  0  0  0  0  0  0  0  0  0  0
   -6.0292    2.9000    0.0000 C   0  0  0  0  0  0  0  0  0  0  0  0
   -4.5708    2.9875    0.0000 C   0  0  0  0  0  0  0  0  0  0  0  0
   -4.5708    3.8000    0.0000 C   0  0  0  0  0  0  0  0  0  0  0  0
   -3.1500    5.4542    0.0000 C   0  0  3  0  0  0  0  0  0  0  0  0
   -3.8583    4.2125    0.0000 N   0  0  0  0  0  0  0  0  0  0  0  0
   -6.1667    1.5708    0.0000 C   0  0  0  0  0  0  0  0  0  0  0  0
   -6.5750    2.2833    0.0000 C   0  0  0  0  0  0  0  0  0  0  0  0
   -4.7458    1.1833    0.0000 O   0  0  0  0  0  0  0  0  0  0  0  0
   -6.2042    3.7083    0.0000 O   0  0  0  0  0  0  0  0  0  0  0  0
   -5.2958    4.2125    0.0000 O   0  0  0  0  0  0  0  0  0  0  0  0
   -3.8583    5.0292    0.0000 C   0  0  0  0  0  0  0  0  0  0  0  0
   -4.0625    8.2167    0.0000 C   0  0  0  0  0  0  0  0  0  0  0  0
   -1.6750    6.5917    0.0000 C   0  0  0  0  0  0  0  0  0  0  0  0
   -2.4333    5.0417    0.0000 O   0  0  0  0  0  0  0  0  0  0  0  0
   -2.1958    8.1667    0.0000 C   0  0  0  0  0  0  0  0  0  0  0  0
   -1.1333    7.2167    0.0000 C   0  0  0  0  0  0  0  0  0  0  0  0
   -1.3833    8.0042    0.0000 C   0  0  0  0  0  0  0  0  0  0  0  0
  2 11  1  0  0  0  0
  3  2  2  0  0  0  0
  4  3  1  0  0  0  0
  5  2  1  0  0  0  0
  6  5  1  0  0  0  0
  7  1  1  0  0  0  0
  8  1  1  0  0  0  0
  9  1  1  0  0  0  0
 10  9  1  0  0  0  0
 11 18  1  0  0  0  0
 12 10  1  0  0  0  0
 13  7  1  0  0  0  0
 14  8  1  0  0  0  0
 15  7  2  0  0  0  0
 16  8  2  0  0  0  0
 17 10  2  0  0  0  0
 18 12  1  0  0  0  0
 19  4  1  0  0  0  0
 20  5  2  0  0  0  0
 21 11  1  0  0  0  0
 22  6  2  0  0  0  0
 23 20  1  0  0  0  0
 24 23  2  0  0  0  0
 13 14  1  0  0  0  0
  4  6  1  0  0  0  0
 24 22  1  0  0  0  0
M  END
> <IDNUMBER>
F6200-3035

> <Chemical_Name>
2-(2,5-dioxopyrrolidin-1-yl)-N-[2-hydroxy-2-(1-methyl-1H-indol-3-yl)ethyl]acetamide

> <CAS>
1448063-83-9

> <PriceCoeff>
1.00

> <MW>
329.35

> <Description>
solid

> <FSP3>
0.35

> <clogP>
0.46

> <TPSA>
91.64

> <Acceptor>
4

> <Donor>
2

> <RotBonds>
5

> <HAC>
24

> <Collection>
General

$$$$
F6349-1297
  -ISIS-  06222321462D

 25 28  0  0  0  0  0  0  0  0999 V2000
   -5.2833    2.5708    0.0000 N   0  0  3  0  0  0  0  0  0  0  0  0
   -4.6875    7.9667    0.0000 N   0  0  3  0  0  0  0  0  0  0  0  0
   -4.0000    7.5167    0.0000 C   0  0  0  0  0  0  0  0  0  0  0  0
   -3.6583    8.8167    0.0000 N   0  0  0  0  0  0  0  0  0  0  0  0
   -3.3583    8.0417    0.0000 C   0  0  0  0  0  0  0  0  0  0  0  0
   -4.4833    8.7667    0.0000 C   0  0  0  0  0  0  0  0  0  0  0  0
   -5.3708    1.7458    0.0000 C   0  0  0  0  0  0  0  0  0  0  0  0
   -6.0292    2.9000    0.0000 C   0  0  0  0  0  0  0  0  0  0  0  0
   -4.5833    3.8000    0.0000 C   0  0  0  0  0  0  0  0  0  0  0  0
   -4.5833    2.9875    0.0000 C   0  0  0  0  0  0  0  0  0  0  0  0
   -3.9583    6.6917    0.0000 C   0  0  0  0  0  0  0  0  0  0  0  0
   -3.8625    4.2125    0.0000 N   0  0  0  0  0  0  0  0  0  0  0  0
   -6.1667    1.5708    0.0000 C   0  0  0  0  0  0  0  0  0  0  0  0
   -6.5792    2.2833    0.0000 C   0  0  0  0  0  0  0  0  0  0  0  0
   -4.7500    1.1833    0.0000 O   0  0  0  0  0  0  0  0  0  0  0  0
   -6.2042    3.7083    0.0000 O   0  0  0  0  0  0  0  0  0  0  0  0
   -5.2958    4.2125    0.0000 O   0  0  0  0  0  0  0  0  0  0  0  0
   -3.2125    6.3250    0.0000 C   0  0  0  0  0  0  0  0  0  0  0  0
   -4.6458    6.2417    0.0000 C   0  0  0  0  0  0  0  0  0  0  0  0
   -3.8625    5.0417    0.0000 C   0  0  0  0  0  0  0  0  0  0  0  0
   -5.5208    7.9167    0.0000 C   0  0  0  0  0  0  0  0  0  0  0  0
   -3.1625    5.5000    0.0000 C   0  0  0  0  0  0  0  0  0  0  0  0
   -4.6000    5.4167    0.0000 C   0  0  0  0  0  0  0  0  0  0  0  0
   -5.1750    9.2125    0.0000 C   0  0  0  0  0  0  0  0  0  0  0  0
   -5.8125    8.6875    0.0000 C   0  0  0  0  0  0  0  0  0  0  0  0
  2  3  1  0  0  0  0
  3 11  1  0  0  0  0
  4  5  1  0  0  0  0
  5  3  2  0  0  0  0
  6  2  1  0  0  0  0
  7  1  1  0  0  0  0
  8  1  1  0  0  0  0
  9 10  1  0  0  0  0
 10  1  1  0  0  0  0
 11 19  2  0  0  0  0
 12  9  1  0  0  0  0
 13  7  1  0  0  0  0
 14  8  1  0  0  0  0
 15  7  2  0  0  0  0
 16  8  2  0  0  0  0
 17  9  2  0  0  0  0
 18 22  2  0  0  0  0
 19 23  1  0  0  0  0
 20 12  1  0  0  0  0
 21  2  1  0  0  0  0
 22 20  1  0  0  0  0
 23 20  2  0  0  0  0
 24  6  1  0  0  0  0
 25 21  1  0  0  0  0
 13 14  1  0  0  0  0
 11 18  1  0  0  0  0
  6  4  2  0  0  0  0
 25 24  1  0  0  0  0
M  END
> <IDNUMBER>
F6349-1297

> <Chemical_Name>
2-(2,5-dioxopyrrolidin-1-yl)-N-(4-{5H,6H,7H-pyrrolo[1,2-a]imidazol-3-yl}phenyl)acetamide

> <CAS>
1421528-35-9

> <PriceCoeff>
1.00

> <MW>
338.36

> <Description>
solid

> <FSP3>
0.33

> <clogP>
1.01

> <TPSA>
84.30

> <Acceptor>
4

> <Donor>
2

> <RotBonds>
4

> <HAC>
25

> <Collection>
General

$$$$
F3023-0916
  -ISIS-  06222321442D

 23 25  0  0  0  0  0  0  0  0999 V2000
    4.2292   -0.0917    0.0000 N   0  0  3  0  0  0  0  0  0  0  0  0
    4.6500   -0.6625    0.0000 C   0  0  0  0  0  0  0  0  0  0  0  0
    4.6417    0.4833    0.0000 C   0  0  0  0  0  0  0  0  0  0  0  0
    5.3250   -0.4417    0.0000 C   0  0  3  0  0  0  0  0  0  0  0  0
    5.3167    0.2708    0.0000 C   0  0  0  0  0  0  0  0  0  0  0  0
    5.8917   -0.8542    0.0000 N   0  0  3  0  0  0  0  0  0  0  0  0
    7.0417   -1.6875    0.0000 N   0  0  3  0  0  0  0  0  0  0  0  0
    4.4375   -1.3375    0.0000 O   0  0  0  0  0  0  0  0  0  0  0  0
    7.6125   -2.1042    0.0000 C   0  0  0  0  0  0  0  0  0  0  0  0
    4.4167    1.1583    0.0000 O   0  0  0  0  0  0  0  0  0  0  0  0
    6.5417   -0.5625    0.0000 C   0  0  0  0  0  0  0  0  0  0  0  0
    5.8167   -1.5542    0.0000 C   0  0  0  0  0  0  0  0  0  0  0  0
    6.3917   -1.9750    0.0000 C   0  0  0  0  0  0  0  0  0  0  0  0
    7.1167   -0.9792    0.0000 C   0  0  0  0  0  0  0  0  0  0  0  0
    3.5167   -0.0917    0.0000 C   0  0  3  0  0  0  0  0  0  0  0  0
    8.2542   -1.8125    0.0000 C   0  0  0  0  0  0  0  0  0  0  0  0
    7.5375   -2.8042    0.0000 C   0  0  0  0  0  0  0  0  0  0  0  0
    8.7542   -2.9292    0.0000 C   0  0  0  0  0  0  0  0  0  0  0  0
    8.1125   -3.2167    0.0000 C   0  0  0  0  0  0  0  0  0  0  0  0
    8.8292   -2.2250    0.0000 C   0  0  0  0  0  0  0  0  0  0  0  0
    9.3292   -3.3417    0.0000 F   0  0  0  0  0  0  0  0  0  0  0  0
    3.1625    0.5208    0.0000 C   0  0  0  0  0  0  0  0  0  0  0  0
    3.1667   -0.7125    0.0000 C   0  0  0  0  0  0  0  0  0  0  0  0
  2  1  1  0  0  0  0
  3  1  1  0  0  0  0
  4  2  1  0  0  0  0
  5  3  1  0  0  0  0
  6  4  1  0  0  0  0
  7 13  1  0  0  0  0
  8  2  2  0  0  0  0
  9  7  1  0  0  0  0
 10  3  2  0  0  0  0
 11  6  1  0  0  0  0
 12  6  1  0  0  0  0
 13 12  1  0  0  0  0
 14 11  1  0  0  0  0
 15  1  1  0  0  0  0
 16  9  1  0  0  0  0
 17  9  2  0  0  0  0
 18 19  2  0  0  0  0
 19 17  1  0  0  0  0
 20 16  2  0  0  0  0
 21 18  1  0  0  0  0
 22 15  1  0  0  0  0
 23 15  1  0  0  0  0
  5  4  1  0  0  0  0
 14  7  1  0  0  0  0
 18 20  1  0  0  0  0
M  END
> <IDNUMBER>
F3023-0916

> <Chemical_Name>
3-[4-(4-fluorophenyl)piperazin-1-yl]-1-(propan-2-yl)pyrrolidine-2,5-dione

> <CAS>
857494-24-7

> <PriceCoeff>
1.50

> <MW>
319.37

> <Description>
solid

> <FSP3>
0.53

> <clogP>
3.50

> <TPSA>
43.86

> <Acceptor>
3

> <Donor>
2

> <RotBonds>
3

> <HAC>
23

> <Collection>
Advanced

$$$$
F3259-0498
  -ISIS-  06222321152D

 23 25  0  0  0  0  0  0  0  0999 V2000
    1.0500   -1.3625    0.0000 C   0  0  0  0  0  0  0  0  0  0  0  0
    1.0500   -0.5667    0.0000 C   0  0  0  0  0  0  0  0  0  0  0  0
    0.3500   -1.7625    0.0000 N   0  0  3  0  0  0  0  0  0  0  0  0
   -0.3250   -0.5667    0.0000 N   0  0  3  0  0  0  0  0  0  0  0  0
   -0.3250   -1.3667    0.0000 C   0  0  0  0  0  0  0  0  0  0  0  0
    0.3500   -0.1750    0.0000 C   0  0  0  0  0  0  0  0  0  0  0  0
    2.4167   -0.5792    0.0000 N   0  0  3  0  0  0  0  0  0  0  0  0
    1.7250   -1.7667    0.0000 N   0  0  0  0  0  0  0  0  0  0  0  0
    2.4042   -1.3792    0.0000 C   0  0  0  0  0  0  0  0  0  0  0  0
    2.9917   -0.0125    0.0000 C   0  0  0  0  0  0  0  0  0  0  0  0
    3.7750   -0.2292    0.0000 N   0  0  3  0  0  0  0  0  0  0  0  0
   -1.0083   -1.7667    0.0000 O   0  0  0  0  0  0  0  0  0  0  0  0
    5.3292   -0.6542    0.0000 N   0  0  3  0  0  0  0  0  0  0  0  0
    0.3500    0.6208    0.0000 O   0  0  0  0  0  0  0  0  0  0  0  0
    0.3500   -2.5542    0.0000 C   0  0  0  0  0  0  0  0  0  0  0  0
   -1.0583   -0.1542    0.0000 C   0  0  0  0  0  0  0  0  0  0  0  0
    3.9792   -1.0042    0.0000 C   0  0  0  0  0  0  0  0  0  0  0  0
    4.3417    0.3458    0.0000 C   0  0  0  0  0  0  0  0  0  0  0  0
    5.1250    0.1250    0.0000 C   0  0  0  0  0  0  0  0  0  0  0  0
    4.7542   -1.2250    0.0000 C   0  0  0  0  0  0  0  0  0  0  0  0
    6.1292   -0.4417    0.0000 C   0  0  0  0  0  0  0  0  0  0  0  0
    7.5042   -0.8125    0.0000 O   0  0  0  0  0  0  0  0  0  0  0  0
    6.7125   -1.0250    0.0000 C   0  0  0  0  0  0  0  0  0  0  0  0
  2  1  2  0  0  0  0
  3  1  1  0  0  0  0
  4  5  1  0  0  0  0
  5  3  1  0  0  0  0
  6  2  1  0  0  0  0
  7  2  1  0  0  0  0
  8  1  1  0  0  0  0
  9  8  2  0  0  0  0
 10  7  1  0  0  0  0
 11 10  1  0  0  0  0
 12  5  2  0  0  0  0
 13 19  1  0  0  0  0
 14  6  2  0  0  0  0
 15  3  1  0  0  0  0
 16  4  1  0  0  0  0
 17 11  1  0  0  0  0
 18 11  1  0  0  0  0
 19 18  1  0  0  0  0
 20 17  1  0  0  0  0
 21 13  1  0  0  0  0
 22 23  1  0  0  0  0
 23 21  1  0  0  0  0
  9  7  1  0  0  0  0
  6  4  1  0  0  0  0
 13 20  1  0  0  0  0
M  END
> <IDNUMBER>
F3259-0498

> <Chemical_Name>
7-{[4-(2-hydroxyethyl)piperazin-1-yl]methyl}-1,3-dimethyl-2,3,6,7-tetrahydro-1H-purine-2,6-dione

> <CAS>
14340-40-0

> <PriceCoeff>
1.00

> <MW>
322.36

> <Description>
solid

> <FSP3>
0.64

> <clogP>
-1.51

> <TPSA>
85.15

> <Acceptor>
6

> <Donor>
4

> <RotBonds>
4

> <HAC>
23

> <Collection>
General

> <Reference_compound>
CHEMBL113

> <Similarity>
0.8450

$$$$
F3205-0008
  -ISIS-  06222321442D

 26 29  0  0  0  0  0  0  0  0999 V2000
    4.4250   -6.3375    0.0000 N   0  0  3  0  0  0  0  0  0  0  0  0
    4.9167   -7.0042    0.0000 C   0  0  0  0  0  0  0  0  0  0  0  0
    4.9042   -5.6667    0.0000 C   0  0  0  0  0  0  0  0  0  0  0  0
    5.7000   -6.7417    0.0000 C   0  0  3  0  0  0  0  0  0  0  0  0
    7.1125   -6.8875    0.0000 C   0  0  0  0  0  0  0  0  0  0  0  0
    6.3667   -7.2250    0.0000 C   0  0  3  0  0  0  0  0  0  0  0  0
    5.6917   -5.9167    0.0000 C   0  0  0  0  0  0  0  0  0  0  0  0
    7.2000   -6.0667    0.0000 N   0  0  3  0  0  0  0  0  0  0  0  0
    3.6042   -6.3417    0.0000 C   0  0  0  0  0  0  0  0  0  0  0  0
    4.6625   -7.7875    0.0000 O   0  0  0  0  0  0  0  0  0  0  0  0
    4.6500   -4.8792    0.0000 O   0  0  0  0  0  0  0  0  0  0  0  0
    7.7792   -7.3667    0.0000 C   0  0  0  0  0  0  0  0  0  0  0  0
    3.1917   -5.6292    0.0000 C   0  0  0  0  0  0  0  0  0  0  0  0
    3.2042   -7.0542    0.0000 C   0  0  0  0  0  0  0  0  0  0  0  0
    2.3792   -7.0667    0.0000 C   0  0  0  0  0  0  0  0  0  0  0  0
    2.3667   -5.6375    0.0000 C   0  0  0  0  0  0  0  0  0  0  0  0
    1.9542   -6.3542    0.0000 C   0  0  0  0  0  0  0  0  0  0  0  0
    6.5292   -5.5875    0.0000 C   0  0  0  0  0  0  0  0  0  0  0  0
    7.9542   -5.7292    0.0000 C   0  0  0  0  0  0  0  0  0  0  0  0
    6.2792   -8.0500    0.0000 C   0  0  0  0  0  0  0  0  0  0  0  0
    7.7000   -8.1917    0.0000 C   0  0  0  0  0  0  0  0  0  0  0  0
    1.1292   -6.3625    0.0000 C   0  0  0  0  0  0  0  0  0  0  0  0
    6.9417   -8.5292    0.0000 C   0  0  0  0  0  0  0  0  0  0  0  0
    6.6167   -4.7625    0.0000 C   0  0  0  0  0  0  0  0  0  0  0  0
    8.0417   -4.9125    0.0000 C   0  0  0  0  0  0  0  0  0  0  0  0
    7.3750   -4.4292    0.0000 C   0  0  0  0  0  0  0  0  0  0  0  0
  2  1  1  0  0  0  0
  3  1  1  0  0  0  0
  4  2  1  0  0  0  0
  5  6  1  0  0  0  0
  6  4  1  0  0  0  0
  7  3  1  0  0  0  0
  8  5  1  0  0  0  0
  9  1  1  0  0  0  0
 10  2  2  0  0  0  0
 11  3  2  0  0  0  0
 12  5  2  0  0  0  0
 13  9  2  0  0  0  0
 14  9  1  0  0  0  0
 15 14  2  0  0  0  0
 16 13  1  0  0  0  0
 17 15  1  0  0  0  0
 18  8  1  0  0  0  0
 19  8  1  0  0  0  0
 20  6  1  0  0  0  0
 21 23  1  0  0  0  0
 22 17  1  0  0  0  0
 23 20  1  0  0  0  0
 24 18  1  0  0  0  0
 25 19  1  0  0  0  0
 26 25  1  0  0  0  0
  7  4  1  0  0  0  0
 17 16  2  0  0  0  0
 21 12  1  0  0  0  0
 26 24  1  0  0  0  0
M  END
> <IDNUMBER>
F3205-0008

> <Chemical_Name>
1-(4-methylphenyl)-3-[2-(piperidin-1-yl)cyclohex-2-en-1-yl]pyrrolidine-2,5-dione

> <CAS>
881482-85-5

> <PriceCoeff>
1.50

> <MW>
352.47

> <Description>
solid

> <FSP3>
0.55

> <clogP>
3.46

> <TPSA>
40.62

> <Acceptor>
2

> <Donor>
1

> <RotBonds>
3

> <HAC>
26

> <Collection>
Advanced

$$$$
F5882-3200
  -ISIS-  06222321442D

 23 25  0  0  0  0  0  0  0  0999 V2000
    7.6042   -6.4625    0.0000 C   0  0  0  0  0  0  0  0  0  0  0  0
   10.4917   -8.0750    0.0000 N   0  0  3  0  0  0  0  0  0  0  0  0
    8.3167   -6.8667    0.0000 N   0  0  3  0  0  0  0  0  0  0  0  0
   10.5792   -8.8917    0.0000 C   0  0  0  0  0  0  0  0  0  0  0  0
    6.8917   -6.8792    0.0000 N   0  0  0  0  0  0  0  0  0  0  0  0
    9.7667   -7.6750    0.0000 C   0  0  3  0  0  0  0  0  0  0  0  0
    5.4500   -5.2500    0.0000 C   0  0  0  0  0  0  0  0  0  0  0  0
    6.1667   -5.6542    0.0000 C   0  0  0  0  0  0  0  0  0  0  0  0
    6.1750   -6.4792    0.0000 C   0  0  0  0  0  0  0  0  0  0  0  0
    9.0417   -8.0917    0.0000 C   0  0  0  0  0  0  0  0  0  0  0  0
    9.7375   -6.8542    0.0000 C   0  0  0  0  0  0  0  0  0  0  0  0
    8.3292   -7.7000    0.0000 C   0  0  0  0  0  0  0  0  0  0  0  0
    9.0167   -6.4542    0.0000 C   0  0  0  0  0  0  0  0  0  0  0  0
    7.5917   -5.6375    0.0000 O   0  0  0  0  0  0  0  0  0  0  0  0
    4.7375   -5.6667    0.0000 C   0  0  0  0  0  0  0  0  0  0  0  0
    9.9750   -9.4625    0.0000 O   0  0  0  0  0  0  0  0  0  0  0  0
    4.7417   -6.4917    0.0000 C   0  0  0  0  0  0  0  0  0  0  0  0
    5.4417   -4.4250    0.0000 Cl  0  0  0  0  0  0  0  0  0  0  0  0
    5.4625   -6.9000    0.0000 C   0  0  0  0  0  0  0  0  0  0  0  0
   11.2292   -7.7250    0.0000 C   0  0  0  0  0  0  0  0  0  0  0  0
    4.0167   -5.2625    0.0000 Cl  0  0  0  0  0  0  0  0  0  0  0  0
   11.3917   -9.0542    0.0000 C   0  0  0  0  0  0  0  0  0  0  0  0
   11.7917   -8.3375    0.0000 C   0  0  0  0  0  0  0  0  0  0  0  0
  2  6  1  0  0  0  0
  3  1  1  0  0  0  0
  4  2  1  0  0  0  0
  5  1  1  0  0  0  0
  6 11  1  0  0  0  0
  7  8  1  0  0  0  0
  8  9  2  0  0  0  0
  9  5  1  0  0  0  0
 10 12  1  0  0  0  0
 11 13  1  0  0  0  0
 12  3  1  0  0  0  0
 13  3  1  0  0  0  0
 14  1  2  0  0  0  0
 15 17  1  0  0  0  0
 16  4  2  0  0  0  0
 17 19  2  0  0  0  0
 18  7  1  0  0  0  0
 19  9  1  0  0  0  0
 20  2  1  0  0  0  0
 21 15  1  0  0  0  0
 22  4  1  0  0  0  0
 23 20  1  0  0  0  0
 10  6  1  0  0  0  0
  7 15  2  0  0  0  0
 22 23  1  0  0  0  0
M  END
> <IDNUMBER>
F5882-3200

> <Chemical_Name>
N-(3,4-dichlorophenyl)-4-(2-oxopyrrolidin-1-yl)piperidine-1-carboxamide

> <CAS>
1421481-77-7

> <PriceCoeff>
1.50

> <MW>
356.25

> <Description>
solid

> <FSP3>
0.50

> <clogP>
1.75

> <TPSA>
52.65

> <Acceptor>
2

> <Donor>
1

> <RotBonds>
3

> <HAC>
23

> <Collection>
Advanced

$$$$
F3228-0187
  -ISIS-  06222321152D

 13 13  0  0  0  0  0  0  0  0999 V2000
    3.1042   -0.6250    0.0000 C   0  0  0  0  0  0  0  0  0  0  0  0
    2.6000   -0.3292    0.0000 C   0  0  0  0  0  0  0  0  0  0  0  0
    4.6417   -1.5125    0.0000 C   0  0  0  0  0  0  0  0  0  0  0  0
    3.1042   -1.2167    0.0000 C   0  0  0  0  0  0  0  0  0  0  0  0
    5.1500   -1.2167    0.0000 O   0  0  0  0  0  0  0  0  0  0  0  0
    3.6167   -1.5125    0.0000 C   0  0  0  0  0  0  0  0  0  0  0  0
    2.6000   -1.5042    0.0000 C   0  0  0  0  0  0  0  0  0  0  0  0
    2.0917   -0.6250    0.0000 C   0  0  0  0  0  0  0  0  0  0  0  0
    4.1292   -1.2167    0.0000 C   0  0  0  0  0  0  0  0  0  0  0  0
    3.6167   -0.3250    0.0000 O   0  0  0  0  0  0  0  0  0  0  0  0
    4.6417   -2.0917    0.0000 O   0  0  0  0  0  0  0  0  0  0  0  0
    2.0917   -1.2167    0.0000 C   0  0  0  0  0  0  0  0  0  0  0  0
    1.5875   -0.3292    0.0000 O   0  0  0  0  0  0  0  0  0  0  0  0
  2  1  2  0  0  0  0
  3  9  1  0  0  0  0
  4  1  1  0  0  0  0
  5  3  2  0  0  0  0
  6  4  1  0  0  0  0
  7  4  2  0  0  0  0
  8  2  1  0  0  0  0
  9  6  1  0  0  0  0
 10  1  1  0  0  0  0
 11  3  1  0  0  0  0
 12  7  1  0  0  0  0
 13  8  1  0  0  0  0
 12  8  2  0  0  0  0
M  END
> <IDNUMBER>
F3228-0187

> <Chemical_Name>
3-(2,4-dihydroxyphenyl)propanoic acid

> <CAS>
5631-68-5

> <PriceCoeff>
1.00

> <MW>
182.17

> <Description>
solid

> <FSP3>
0.22

> <clogP>
0.52

> <TPSA>
77.76

> <Acceptor>
4

> <Donor>
2

> <RotBonds>
3

> <HAC>
13

> <Collection>
General

> <Reference_compound>
CHEMBL1172560

> <Similarity>
0.8480

$$$$
F1130-0019
  -ISIS-  06222321452D

 15 15  0  0  0  0  0  0  0  0999 V2000
    2.1792   -1.3125    0.0000 C   0  0  0  0  0  0  0  0  0  0  0  0
    2.8667   -0.8500    0.0000 N   0  0  0  0  0  0  0  0  0  0  0  0
    4.2917   -0.7625    0.0000 C   0  0  0  0  0  0  0  0  0  0  0  0
    3.6042   -1.2167    0.0000 C   0  0  3  0  0  0  0  0  0  0  0  0
    1.4292   -0.9375    0.0000 C   0  0  0  0  0  0  0  0  0  0  0  0
    2.2292   -2.1417    0.0000 O   0  0  0  0  0  0  0  0  0  0  0  0
    5.0292   -1.1375    0.0000 O   0  0  0  0  0  0  0  0  0  0  0  0
    1.3875   -0.1167    0.0000 C   0  0  0  0  0  0  0  0  0  0  0  0
    0.7292   -1.3875    0.0000 C   0  0  0  0  0  0  0  0  0  0  0  0
    4.2417    0.0625    0.0000 O   0  0  0  0  0  0  0  0  0  0  0  0
   -0.0458   -0.1917    0.0000 C   0  0  0  0  0  0  0  0  0  0  0  0
    0.0000   -1.0167    0.0000 C   0  0  0  0  0  0  0  0  0  0  0  0
    0.6500    0.2583    0.0000 C   0  0  0  0  0  0  0  0  0  0  0  0
   -0.7833    0.1833    0.0000 F   0  0  0  0  0  0  0  0  0  0  0  0
    3.6500   -2.0417    0.0000 C   0  0  0  0  0  0  0  0  0  0  0  0
  2  1  1  0  0  0  0
  3  4  1  0  0  0  0
  4  2  1  0  0  0  0
  5  1  1  0  0  0  0
  6  1  2  0  0  0  0
  7  3  2  0  0  0  0
  8  5  2  0  0  0  0
  9  5  1  0  0  0  0
 10  3  1  0  0  0  0
 11 12  1  0  0  0  0
 12  9  2  0  0  0  0
 13  8  1  0  0  0  0
 14 11  1  0  0  0  0
 15  4  1  0  0  0  0
 11 13  2  0  0  0  0
M  END
> <IDNUMBER>
F1130-0019

> <Chemical_Name>
2-[(4-fluorophenyl)formamido]propanoic acid

> <CAS>
451-28-5

> <PriceCoeff>
1.00

> <MW>
211.19

> <Description>
solid

> <FSP3>
0.20

> <clogP>
1.31

> <TPSA>
66.40

> <Acceptor>
3

> <Donor>
1

> <RotBonds>
3

> <HAC>
15

> <Collection>
General

> <Reference_compound>
CHEMBL55771

> <Similarity>
0.8790

$$$$
F1799-0234
  -ISIS-  06222321452D

 20 22  0  0  0  0  0  0  0  0999 V2000
    1.0292   -0.6667    0.0000 N   0  0  3  0  0  0  0  0  0  0  0  0
    0.4500   -0.0292    0.0000 C   0  0  0  0  0  0  0  0  0  0  0  0
    0.6042   -1.4042    0.0000 C   0  0  0  0  0  0  0  0  0  0  0  0
   -0.3500   -0.3875    0.0000 C   0  0  3  0  0  0  0  0  0  0  0  0
   -0.2500   -1.2500    0.0000 C   0  0  0  0  0  0  0  0  0  0  0  0
   -1.0958    0.0125    0.0000 N   0  0  3  0  0  0  0  0  0  0  0  0
    1.8667   -0.4292    0.0000 C   0  0  0  0  0  0  0  0  0  0  0  0
    0.6292    0.8333    0.0000 O   0  0  0  0  0  0  0  0  0  0  0  0
    0.9667   -2.2042    0.0000 O   0  0  0  0  0  0  0  0  0  0  0  0
    2.0667    0.3958    0.0000 C   0  0  0  0  0  0  0  0  0  0  0  0
    2.4667   -1.0292    0.0000 C   0  0  0  0  0  0  0  0  0  0  0  0
    3.5042   -0.0042    0.0000 C   0  0  0  0  0  0  0  0  0  0  0  0
    3.2667   -0.8292    0.0000 C   0  0  0  0  0  0  0  0  0  0  0  0
    2.8875    0.6125    0.0000 C   0  0  0  0  0  0  0  0  0  0  0  0
    4.3667    0.1708    0.0000 Br  0  0  0  0  0  0  0  0  0  0  0  0
   -1.9333    0.2125    0.0000 C   0  0  0  0  0  0  0  0  0  0  0  0
   -0.8333   -0.8042    0.0000 C   0  0  0  0  0  0  0  0  0  0  0  0
   -2.5125   -0.4292    0.0000 C   0  0  0  0  0  0  0  0  0  0  0  0
   -1.4125   -1.4292    0.0000 C   0  0  0  0  0  0  0  0  0  0  0  0
   -2.2500   -1.2500    0.0000 C   0  0  0  0  0  0  0  0  0  0  0  0
  2  1  1  0  0  0  0
  3  1  1  0  0  0  0
  4  2  1  0  0  0  0
  5  3  1  0  0  0  0
  6  4  1  0  0  0  0
  7  1  1  0  0  0  0
  8  2  2  0  0  0  0
  9  3  2  0  0  0  0
 10  7  1  0  0  0  0
 11  7  2  0  0  0  0
 12 13  2  0  0  0  0
 13 11  1  0  0  0  0
 14 10  2  0  0  0  0
 15 12  1  0  0  0  0
 16  6  1  0  0  0  0
 17  6  1  0  0  0  0
 18 16  1  0  0  0  0
 19 17  1  0  0  0  0
 20 19  1  0  0  0  0
  4  5  1  0  0  0  0
 12 14  1  0  0  0  0
 18 20  1  0  0  0  0
M  END
> <IDNUMBER>
F1799-0234

> <Chemical_Name>
1-(4-bromophenyl)-3-(piperidin-1-yl)pyrrolidine-2,5-dione

> <CAS>
195452-35-8

> <PriceCoeff>
1.50

> <MW>
337.21

> <Description>
solid

> <FSP3>
0.47

> <clogP>
3.51

> <TPSA>
40.62

> <Acceptor>
2

> <Donor>
1

> <RotBonds>
2

> <HAC>
20

> <Collection>
Advanced

$$$$
F6212-0243
  -ISIS-  06222321442D

 20 22  0  0  0  0  0  0  0  0999 V2000
   -3.2583    2.3750    0.0000 C   0  0  0  0  0  0  0  0  0  0  0  0
   -3.5083    1.5958    0.0000 C   0  0  0  0  0  0  0  0  0  0  0  0
   -3.7458    3.0458    0.0000 C   0  0  0  0  0  0  0  0  0  0  0  0
   -2.1750    1.5875    0.0000 N   0  0  0  0  0  0  0  0  0  0  0  0
   -2.8458    1.1083    0.0000 N   0  0  3  0  0  0  0  0  0  0  0  0
   -2.4333    2.3750    0.0000 C   0  0  0  0  0  0  0  0  0  0  0  0
   -3.4083    3.8000    0.0000 N   0  0  0  0  0  0  0  0  0  0  0  0
   -3.0708    4.5458    0.0000 C   0  0  0  0  0  0  0  0  0  0  0  0
   -4.2667    1.2583    0.0000 O   0  0  0  0  0  0  0  0  0  0  0  0
   -2.2583    4.6292    0.0000 C   0  0  0  0  0  0  0  0  0  0  0  0
   -3.5583    5.2167    0.0000 C   0  0  0  0  0  0  0  0  0  0  0  0
   -4.5625    2.9583    0.0000 O   0  0  0  0  0  0  0  0  0  0  0  0
   -3.2208    5.9667    0.0000 C   0  0  0  0  0  0  0  0  0  0  0  0
   -1.9125    5.3792    0.0000 C   0  0  0  0  0  0  0  0  0  0  0  0
   -2.9208    0.2875    0.0000 C   0  0  0  0  0  0  0  0  0  0  0  0
   -2.3958    6.0542    0.0000 C   0  0  0  0  0  0  0  0  0  0  0  0
   -1.0958    5.4667    0.0000 Cl  0  0  0  0  0  0  0  0  0  0  0  0
   -4.3750    5.1375    0.0000 O   0  0  0  0  0  0  0  0  0  0  0  0
   -3.6833   -0.0500    0.0000 C   0  0  0  0  0  0  0  0  0  0  0  0
   -4.3458    0.4333    0.0000 C   0  0  0  0  0  0  0  0  0  0  0  0
  2  1  2  0  0  0  0
  3  1  1  0  0  0  0
  4  6  2  0  0  0  0
  5  2  1  0  0  0  0
  6  1  1  0  0  0  0
  7  3  1  0  0  0  0
  8  7  1  0  0  0  0
  9  2  1  0  0  0  0
 10  8  2  0  0  0  0
 11  8  1  0  0  0  0
 12  3  2  0  0  0  0
 13 11  2  0  0  0  0
 14 10  1  0  0  0  0
 15  5  1  0  0  0  0
 16 13  1  0  0  0  0
 17 14  1  0  0  0  0
 18 11  1  0  0  0  0
 19 20  1  0  0  0  0
 20  9  1  0  0  0  0
  5  4  1  0  0  0  0
 15 19  1  0  0  0  0
 16 14  2  0  0  0  0
M  END
> <IDNUMBER>
F6212-0243

> <Chemical_Name>
N-(5-chloro-2-hydroxyphenyl)-5H,6H,7H-pyrazolo[3,2-b][1,3]oxazine-3-carboxamide

> <CAS>
1421457-90-0

> <PriceCoeff>
1.50

> <MW>
293.71

> <Description>
solid

> <FSP3>
0.23

> <clogP>
1.71

> <TPSA>
76.38

> <Acceptor>
4

> <Donor>
2

> <RotBonds>
2

> <HAC>
20

> <Collection>
Advanced

$$$$
F5860-4145
  -ISIS-  06222321152D

 25 28  0  0  0  0  0  0  0  0999 V2000
    3.8292   -5.5375    0.0000 N   0  0  3  0  0  0  0  0  0  0  0  0
    7.3167   -4.1917    0.0000 C   0  0  3  0  0  0  0  0  0  0  0  0
    3.0667   -5.8625    0.0000 C   0  0  0  0  0  0  0  0  0  0  0  0
    3.7500   -4.7125    0.0000 C   0  0  0  0  0  0  0  0  0  0  0  0
    6.6875   -5.5542    0.0000 C   0  0  3  0  0  0  0  0  0  0  0  0
    7.0792   -3.4125    0.0000 C   0  0  0  0  0  0  0  0  0  0  0  0
    5.2667   -5.5417    0.0000 C   0  0  0  0  0  0  0  0  0  0  0  0
    6.6417   -4.7292    0.0000 C   0  0  0  0  0  0  0  0  0  0  0  0
    4.5417   -5.9542    0.0000 C   0  0  0  0  0  0  0  0  0  0  0  0
    5.9792   -5.9542    0.0000 N   0  0  0  0  0  0  0  0  0  0  0  0
    7.8542   -4.8167    0.0000 C   0  0  0  0  0  0  0  0  0  0  0  0
    8.1167   -4.3792    0.0000 C   0  0  0  0  0  0  0  0  0  0  0  0
    8.0042   -5.6292    0.0000 C   0  0  3  0  0  0  0  0  0  0  0  0
    8.3625   -5.1667    0.0000 C   0  0  3  0  0  0  0  0  0  0  0  0
    2.5250   -5.2375    0.0000 C   0  0  0  0  0  0  0  0  0  0  0  0
    2.9417   -4.5292    0.0000 C   0  0  0  0  0  0  0  0  0  0  0  0
    7.4750   -5.7667    0.0000 C   0  0  0  0  0  0  0  0  0  0  0  0
    7.3167   -6.0667    0.0000 C   0  0  0  0  0  0  0  0  0  0  0  0
    2.8917   -6.6792    0.0000 O   0  0  0  0  0  0  0  0  0  0  0  0
    4.3667   -4.1542    0.0000 O   0  0  0  0  0  0  0  0  0  0  0  0
    6.2792   -3.2292    0.0000 O   0  0  0  0  0  0  0  0  0  0  0  0
    5.2667   -4.7125    0.0000 O   0  0  0  0  0  0  0  0  0  0  0  0
    8.8292   -5.7250    0.0000 C   0  0  0  0  0  0  0  0  0  0  0  0
    7.6292   -2.8167    0.0000 O   0  0  0  0  0  0  0  0  0  0  0  0
    8.4292   -2.9917    0.0000 C   0  0  0  0  0  0  0  0  0  0  0  0
  2  8  1  0  0  0  0
  3  1  1  0  0  0  0
  4  1  1  0  0  0  0
  5 10  1  0  0  0  0
  6  2  1  0  0  0  0
  7  9  1  0  0  0  0
  8  5  1  0  0  0  0
  9  1  1  0  0  0  0
 10  7  1  0  0  0  0
 11 13  1  0  0  0  0
 12 14  1  0  0  0  0
 13 18  1  0  0  0  0
 14 17  1  0  0  0  0
 15  3  1  0  0  0  0
 16  4  1  0  0  0  0
 17  5  1  0  0  0  0
 18  5  1  0  0  0  0
 19  3  2  0  0  0  0
 20  4  2  0  0  0  0
 21  6  2  0  0  0  0
 22  7  2  0  0  0  0
 23 13  1  0  0  0  0
 24  6  1  0  0  0  0
 25 24  1  0  0  0  0
 16 15  1  0  0  0  0
 14 23  1  0  0  0  0
 11  2  1  0  0  0  0
 12  2  1  0  0  0  0
M  END
> <IDNUMBER>
F5860-4145

> <Chemical_Name>
methyl 3-[2-(2,5-dioxopyrrolidin-1-yl)acetamido]adamantane-1-carboxylate

> <CAS>
1207023-16-2

> <PriceCoeff>
1.00

> <MW>
348.39

> <Description>
solid

> <FSP3>
0.78

> <clogP>
1.11

> <TPSA>
92.78

> <Acceptor>
5

> <Donor>
1

> <RotBonds>
5

> <HAC>
25

> <Collection>
General

$$$$
F6211-0243
  -ISIS-  06222321442D

 20 22  0  0  0  0  0  0  0  0999 V2000
   -2.6625    2.3708    0.0000 C   0  0  0  0  0  0  0  0  0  0  0  0
   -2.4083    1.5833    0.0000 N   0  0  0  0  0  0  0  0  0  0  0  0
   -3.4875    2.3708    0.0000 C   0  0  0  0  0  0  0  0  0  0  0  0
   -3.7458    1.5875    0.0000 C   0  0  0  0  0  0  0  0  0  0  0  0
   -3.0750    1.1083    0.0000 N   0  0  3  0  0  0  0  0  0  0  0  0
   -2.1833    3.0458    0.0000 C   0  0  0  0  0  0  0  0  0  0  0  0
   -1.3583    2.9583    0.0000 N   0  0  0  0  0  0  0  0  0  0  0  0
   -0.5375    2.8833    0.0000 C   0  0  0  0  0  0  0  0  0  0  0  0
   -0.2000    2.1250    0.0000 C   0  0  0  0  0  0  0  0  0  0  0  0
   -4.4958    1.2583    0.0000 O   0  0  0  0  0  0  0  0  0  0  0  0
   -0.0583    3.5458    0.0000 C   0  0  0  0  0  0  0  0  0  0  0  0
   -2.5208    3.8000    0.0000 O   0  0  0  0  0  0  0  0  0  0  0  0
    0.7667    3.4708    0.0000 C   0  0  0  0  0  0  0  0  0  0  0  0
    0.6167    2.0458    0.0000 C   0  0  0  0  0  0  0  0  0  0  0  0
   -3.1583    0.2833    0.0000 C   0  0  0  0  0  0  0  0  0  0  0  0
    1.1042    2.7083    0.0000 C   0  0  0  0  0  0  0  0  0  0  0  0
    0.9542    1.2875    0.0000 Cl  0  0  0  0  0  0  0  0  0  0  0  0
   -0.3875    4.2917    0.0000 O   0  0  0  0  0  0  0  0  0  0  0  0
   -3.9125   -0.0542    0.0000 C   0  0  0  0  0  0  0  0  0  0  0  0
   -4.5833    0.4333    0.0000 C   0  0  0  0  0  0  0  0  0  0  0  0
  2  1  2  0  0  0  0
  3  1  1  0  0  0  0
  4  3  2  0  0  0  0
  5  2  1  0  0  0  0
  6  1  1  0  0  0  0
  7  6  1  0  0  0  0
  8  7  1  0  0  0  0
  9  8  2  0  0  0  0
 10  4  1  0  0  0  0
 11  8  1  0  0  0  0
 12  6  2  0  0  0  0
 13 11  2  0  0  0  0
 14  9  1  0  0  0  0
 15  5  1  0  0  0  0
 16 13  1  0  0  0  0
 17 14  1  0  0  0  0
 18 11  1  0  0  0  0
 19 15  1  0  0  0  0
 20 10  1  0  0  0  0
  5  4  1  0  0  0  0
 20 19  1  0  0  0  0
 16 14  2  0  0  0  0
M  END
> <IDNUMBER>
F6211-0243

> <Chemical_Name>
N-(5-chloro-2-hydroxyphenyl)-5H,6H,7H-pyrazolo[3,2-b][1,3]oxazine-2-carboxamide

> <CAS>
1421472-30-1

> <PriceCoeff>
1.50

> <MW>
293.71

> <Description>
solid

> <FSP3>
0.23

> <clogP>
1.71

> <TPSA>
76.38

> <Acceptor>
4

> <Donor>
2

> <RotBonds>
2

> <HAC>
20

> <Collection>
Advanced

$$$$
F5857-4208
  -ISIS-  06222321152D

 23 24  0  0  0  0  0  0  0  0999 V2000
   -5.2833    2.5708    0.0000 N   0  0  3  0  0  0  0  0  0  0  0  0
   -5.3625    1.7458    0.0000 C   0  0  0  0  0  0  0  0  0  0  0  0
   -6.0292    2.9000    0.0000 C   0  0  0  0  0  0  0  0  0  0  0  0
   -4.5708    2.9875    0.0000 C   0  0  0  0  0  0  0  0  0  0  0  0
   -4.5708    3.8000    0.0000 C   0  0  0  0  0  0  0  0  0  0  0  0
   -3.8583    4.2125    0.0000 N   0  0  0  0  0  0  0  0  0  0  0  0
   -6.1667    1.5708    0.0000 C   0  0  0  0  0  0  0  0  0  0  0  0
   -6.5750    2.2833    0.0000 C   0  0  0  0  0  0  0  0  0  0  0  0
   -4.7458    1.1833    0.0000 O   0  0  0  0  0  0  0  0  0  0  0  0
   -6.2042    3.7083    0.0000 O   0  0  0  0  0  0  0  0  0  0  0  0
   -5.2958    4.2125    0.0000 O   0  0  0  0  0  0  0  0  0  0  0  0
   -3.1500    5.4542    0.0000 C   0  0  3  0  0  0  0  0  0  0  0  0
   -3.8583    5.0292    0.0000 C   0  0  0  0  0  0  0  0  0  0  0  0
   -2.4250    5.8750    0.0000 C   0  0  0  0  0  0  0  0  0  0  0  0
   -3.5750    6.1667    0.0000 O   0  0  0  0  0  0  0  0  0  0  0  0
   -2.4333    6.6917    0.0000 C   0  0  0  0  0  0  0  0  0  0  0  0
   -1.7333    7.1125    0.0000 C   0  0  0  0  0  0  0  0  0  0  0  0
   -2.7333    4.7292    0.0000 C   0  0  0  0  0  0  0  0  0  0  0  0
   -1.7458    7.9417    0.0000 C   0  0  0  0  0  0  0  0  0  0  0  0
   -1.0125    6.7167    0.0000 C   0  0  0  0  0  0  0  0  0  0  0  0
   -0.3083    7.1542    0.0000 C   0  0  0  0  0  0  0  0  0  0  0  0
   -1.0333    8.3750    0.0000 C   0  0  0  0  0  0  0  0  0  0  0  0
   -0.3125    7.9792    0.0000 C   0  0  0  0  0  0  0  0  0  0  0  0
  2  1  1  0  0  0  0
  3  1  1  0  0  0  0
  4  1  1  0  0  0  0
  5  4  1  0  0  0  0
  6  5  1  0  0  0  0
  7  2  1  0  0  0  0
  8  3  1  0  0  0  0
  9  2  2  0  0  0  0
 10  3  2  0  0  0  0
 11  5  2  0  0  0  0
 12 13  1  0  0  0  0
 13  6  1  0  0  0  0
 14 12  1  0  0  0  0
 15 12  1  0  0  0  0
 16 14  1  0  0  0  0
 17 16  1  0  0  0  0
 18 12  1  0  0  0  0
 19 17  2  0  0  0  0
 20 17  1  0  0  0  0
 21 20  2  0  0  0  0
 22 19  1  0  0  0  0
 23 21  1  0  0  0  0
  7  8  1  0  0  0  0
 23 22  2  0  0  0  0
M  END
> <IDNUMBER>
F5857-4208

> <Chemical_Name>
2-(2,5-dioxopyrrolidin-1-yl)-N-(2-hydroxy-2-methyl-4-phenylbutyl)acetamide

> <CAS>
1286714-31-5

> <PriceCoeff>
1.00

> <MW>
318.37

> <Description>
solid

> <FSP3>
0.47

> <clogP>
1.08

> <TPSA>
86.71

> <Acceptor>
4

> <Donor>
2

> <RotBonds>
7

> <HAC>
23

> <Collection>
General

$$$$
F0327-0304
  -ISIS-  06222321452D

 26 29  0  0  0  0  0  0  0  0999 V2000
   -1.8958    0.4208    0.0000 C   0  0  0  0  0  0  0  0  0  0  0  0
    2.9042   -0.3167    0.0000 N   0  0  3  0  0  0  0  0  0  0  0  0
   -2.4125   -0.2792    0.0000 N   0  0  0  0  0  0  0  0  0  0  0  0
   -1.0333    0.4208    0.0000 N   0  0  0  0  0  0  0  0  0  0  0  0
   -3.2333    0.8625    0.0000 C   0  0  0  0  0  0  0  0  0  0  0  0
   -2.3958    1.1208    0.0000 S   0  0  0  0  0  0  0  0  0  0  0  0
   -3.2333   -0.0292    0.0000 C   0  0  0  0  0  0  0  0  0  0  0  0
   -0.6125   -0.3167    0.0000 C   0  0  0  0  0  0  0  0  0  0  0  0
    3.4000   -1.0375    0.0000 C   0  0  0  0  0  0  0  0  0  0  0  0
    3.4042    0.3208    0.0000 C   0  0  0  0  0  0  0  0  0  0  0  0
    2.0292   -0.3167    0.0000 C   0  0  0  0  0  0  0  0  0  0  0  0
    0.2667   -0.3167    0.0000 C   0  0  0  0  0  0  0  0  0  0  0  0
   -3.9958    1.3000    0.0000 C   0  0  0  0  0  0  0  0  0  0  0  0
   -1.0333   -1.0792    0.0000 O   0  0  0  0  0  0  0  0  0  0  0  0
    4.2375   -0.8000    0.0000 C   0  0  0  0  0  0  0  0  0  0  0  0
    4.2375    0.0625    0.0000 C   0  0  0  0  0  0  0  0  0  0  0  0
    3.0875   -1.8542    0.0000 O   0  0  0  0  0  0  0  0  0  0  0  0
    3.1167    1.1708    0.0000 O   0  0  0  0  0  0  0  0  0  0  0  0
   -3.9958   -0.4375    0.0000 C   0  0  0  0  0  0  0  0  0  0  0  0
    1.5875    0.4208    0.0000 C   0  0  0  0  0  0  0  0  0  0  0  0
    1.5875   -1.0792    0.0000 C   0  0  0  0  0  0  0  0  0  0  0  0
    0.7042    0.4208    0.0000 C   0  0  0  0  0  0  0  0  0  0  0  0
    0.7042   -1.0792    0.0000 C   0  0  0  0  0  0  0  0  0  0  0  0
   -4.7500   -0.0500    0.0000 C   0  0  0  0  0  0  0  0  0  0  0  0
   -4.7500    0.8500    0.0000 C   0  0  3  0  0  0  0  0  0  0  0  0
   -5.5000    1.2958    0.0000 C   0  0  0  0  0  0  0  0  0  0  0  0
  2 11  1  0  0  0  0
  3  1  2  0  0  0  0
  4  1  1  0  0  0  0
  5  6  1  0  0  0  0
  6  1  1  0  0  0  0
  7  3  1  0  0  0  0
  8  4  1  0  0  0  0
  9  2  1  0  0  0  0
 10  2  1  0  0  0  0
 11 21  2  0  0  0  0
 12  8  1  0  0  0  0
 13  5  1  0  0  0  0
 14  8  2  0  0  0  0
 15  9  1  0  0  0  0
 16 10  1  0  0  0  0
 17  9  2  0  0  0  0
 18 10  2  0  0  0  0
 19  7  1  0  0  0  0
 20 22  2  0  0  0  0
 21 23  1  0  0  0  0
 22 12  1  0  0  0  0
 23 12  2  0  0  0  0
 24 19  1  0  0  0  0
 25 13  1  0  0  0  0
 26 25  1  0  0  0  0
  5  7  2  0  0  0  0
 24 25  1  0  0  0  0
 20 11  1  0  0  0  0
 15 16  1  0  0  0  0
M  END
> <IDNUMBER>
F0327-0304

> <Chemical_Name>
4-(2,5-dioxopyrrolidin-1-yl)-N-(6-methyl-4,5,6,7-tetrahydro-1,3-benzothiazol-2-yl)benzamide

> <CAS>
330200-74-3

> <PriceCoeff>
1.50

> <MW>
369.44

> <Description>
solid

> <FSP3>
0.37

> <clogP>
2.12

> <TPSA>
107.61

> <Acceptor>
4

> <Donor>
1

> <RotBonds>
3

> <HAC>
26

> <Collection>
Advanced

$$$$
F6374-1736
  -ISIS-  06222321462D

 26 28  0  0  0  0  0  0  0  0999 V2000
   -4.4708    4.9500    0.0000 N   0  0  3  0  0  0  0  0  0  0  0  0
   -3.8083    3.8333    0.0000 C   0  0  0  0  0  0  0  0  0  0  0  0
   -4.4667    4.1917    0.0000 C   0  0  0  0  0  0  0  0  0  0  0  0
   -3.9125    5.4542    0.0000 C   0  0  0  0  0  0  0  0  0  0  0  0
   -5.1208    5.3250    0.0000 C   0  0  0  0  0  0  0  0  0  0  0  0
   -3.1583    4.2042    0.0000 N   0  0  3  0  0  0  0  0  0  0  0  0
   -3.8000    3.0708    0.0000 O   0  0  0  0  0  0  0  0  0  0  0  0
   -4.9583    6.0625    0.0000 C   0  0  0  0  0  0  0  0  0  0  0  0
   -4.2208    6.1375    0.0000 C   0  0  0  0  0  0  0  0  0  0  0  0
   -5.8083    5.0167    0.0000 O   0  0  0  0  0  0  0  0  0  0  0  0
   -3.1708    5.3042    0.0000 O   0  0  0  0  0  0  0  0  0  0  0  0
   -2.5083    3.8333    0.0000 C   0  0  0  0  0  0  0  0  0  0  0  0
   -3.1583    4.9542    0.0000 C   0  0  0  0  0  0  0  0  0  0  0  0
   -0.5583    4.9625    0.0000 S   0  0  0  0  0  0  0  0  0  0  0  0
    0.0917    5.3375    0.0000 C   0  0  0  0  0  0  0  0  0  0  0  0
   -1.2083    5.3375    0.0000 C   0  0  0  0  0  0  0  0  0  0  0  0
    1.3917    6.0875    0.0000 C   0  0  0  0  0  0  0  0  0  0  0  0
   -2.5083    5.3292    0.0000 C   0  0  0  0  0  0  0  0  0  0  0  0
   -1.8583    4.2042    0.0000 C   0  0  0  0  0  0  0  0  0  0  0  0
   -1.8583    4.9542    0.0000 C   0  0  3  0  0  0  0  0  0  0  0  0
    0.7417    4.9625    0.0000 C   0  0  0  0  0  0  0  0  0  0  0  0
    0.0917    6.0875    0.0000 C   0  0  0  0  0  0  0  0  0  0  0  0
    1.3917    5.3375    0.0000 C   0  0  0  0  0  0  0  0  0  0  0  0
    0.7417    6.4625    0.0000 C   0  0  0  0  0  0  0  0  0  0  0  0
    2.0542    6.4625    0.0000 O   0  0  0  0  0  0  0  0  0  0  0  0
    2.7042    6.0792    0.0000 C   0  0  0  0  0  0  0  0  0  0  0  0
  2  3  1  0  0  0  0
  3  1  1  0  0  0  0
  4  1  1  0  0  0  0
  5  1  1  0  0  0  0
  6  2  1  0  0  0  0
  7  2  2  0  0  0  0
  8  5  1  0  0  0  0
  9  4  1  0  0  0  0
 10  5  2  0  0  0  0
 11  4  2  0  0  0  0
 12  6  1  0  0  0  0
 13  6  1  0  0  0  0
 14 16  1  0  0  0  0
 15 14  1  0  0  0  0
 16 20  1  0  0  0  0
 17 24  2  0  0  0  0
 18 13  1  0  0  0  0
 19 12  1  0  0  0  0
 20 18  1  0  0  0  0
 21 15  1  0  0  0  0
 22 15  2  0  0  0  0
 23 21  2  0  0  0  0
 24 22  1  0  0  0  0
 25 17  1  0  0  0  0
 26 25  1  0  0  0  0
  8  9  1  0  0  0  0
 20 19  1  0  0  0  0
 23 17  1  0  0  0  0
M  END
> <IDNUMBER>
F6374-1736

> <Chemical_Name>
1-[2-(4-{[(4-methoxyphenyl)sulfanyl]methyl}piperidin-1-yl)-2-oxoethyl]pyrrolidine-2,5-dione

> <CAS>
1421507-15-4

> <PriceCoeff>
1.50

> <MW>
376.47

> <Description>
oil

> <FSP3>
0.53

> <clogP>
2.05

> <TPSA>
92.22

> <Acceptor>
4

> <Donor>
0

> <RotBonds>
7

> <HAC>
26

> <Collection>
Advanced

$$$$
F3298-0060
  -ISIS-  06222321462D

 22 23  0  0  0  0  0  0  0  0999 V2000
   -1.0458    0.6333    0.0000 N   0  0  3  0  0  0  0  0  0  0  0  0
    3.8042    2.0000    0.0000 C   0  0  3  0  0  0  0  0  0  0  0  0
   -1.6500    1.0500    0.0000 C   0  0  0  0  0  0  0  0  0  0  0  0
   -1.2375   -0.2167    0.0000 C   0  0  0  0  0  0  0  0  0  0  0  0
   -0.1958    0.8208    0.0000 C   0  0  0  0  0  0  0  0  0  0  0  0
    3.6042    1.2000    0.0000 C   0  0  0  0  0  0  0  0  0  0  0  0
    1.2000    0.5208    0.0000 C   0  0  0  0  0  0  0  0  0  0  0  0
    0.4125    0.2708    0.0000 C   0  0  0  0  0  0  0  0  0  0  0  0
    1.7667    0.0625    0.0000 N   0  0  0  0  0  0  0  0  0  0  0  0
    2.8125    0.9833    0.0000 C   0  0  0  0  0  0  0  0  0  0  0  0
   -2.3208    0.5708    0.0000 C   0  0  0  0  0  0  0  0  0  0  0  0
   -2.0625   -0.2167    0.0000 C   0  0  0  0  0  0  0  0  0  0  0  0
   -0.8875   -0.8875    0.0000 O   0  0  0  0  0  0  0  0  0  0  0  0
   -1.7875    1.8750    0.0000 O   0  0  0  0  0  0  0  0  0  0  0  0
    2.5417    0.2458    0.0000 C   0  0  0  0  0  0  0  0  0  0  0  0
    1.3667    1.3250    0.0000 O   0  0  0  0  0  0  0  0  0  0  0  0
    3.9917    2.7250    0.0000 F   0  0  0  0  0  0  0  0  0  0  0  0
    4.5875    2.3583    0.0000 F   0  0  0  0  0  0  0  0  0  0  0  0
    3.2917    2.6958    0.0000 F   0  0  0  0  0  0  0  0  0  0  0  0
    4.1917    0.6208    0.0000 C   0  0  0  0  0  0  0  0  0  0  0  0
    3.9792   -0.1792    0.0000 C   0  0  0  0  0  0  0  0  0  0  0  0
    3.1917   -0.3917    0.0000 C   0  0  0  0  0  0  0  0  0  0  0  0
  2  6  1  0  0  0  0
  3  1  1  0  0  0  0
  4  1  1  0  0  0  0
  5  1  1  0  0  0  0
  6 10  2  0  0  0  0
  7  8  1  0  0  0  0
  8  5  1  0  0  0  0
  9  7  1  0  0  0  0
 10 15  1  0  0  0  0
 11  3  1  0  0  0  0
 12  4  1  0  0  0  0
 13  4  2  0  0  0  0
 14  3  2  0  0  0  0
 15  9  1  0  0  0  0
 16  7  2  0  0  0  0
 17  2  1  0  0  0  0
 18  2  1  0  0  0  0
 19  2  1  0  0  0  0
 20 21  2  0  0  0  0
 21 22  1  0  0  0  0
 22 15  2  0  0  0  0
 11 12  1  0  0  0  0
  6 20  1  0  0  0  0
M  END
> <IDNUMBER>
F3298-0060

> <Chemical_Name>
3-(2,5-dioxopyrrolidin-1-yl)-N-[3-(trifluoromethyl)phenyl]propanamide

> <CAS>
940850-41-9

> <PriceCoeff>
1.50

> <MW>
314.26

> <Description>
solid

> <FSP3>
0.36

> <clogP>
2.11

> <TPSA>
66.48

> <Acceptor>
3

> <Donor>
1

> <RotBonds>
4

> <HAC>
22

> <Collection>
Advanced

$$$$
F3325-0016
  -ISIS-  06222321462D

 21 23  0  0  0  0  0  0  0  0999 V2000
    3.8375   -2.3792    0.0000 N   0  0  3  0  0  0  0  0  0  0  0  0
    4.2917   -3.0667    0.0000 C   0  0  0  0  0  0  0  0  0  0  0  0
    4.3542   -1.7375    0.0000 C   0  0  0  0  0  0  0  0  0  0  0  0
    5.0875   -2.8542    0.0000 C   0  0  3  0  0  0  0  0  0  0  0  0
    5.1250   -2.0292    0.0000 C   0  0  0  0  0  0  0  0  0  0  0  0
    5.7292   -3.3667    0.0000 N   0  0  3  0  0  0  0  0  0  0  0  0
    3.0125   -2.3417    0.0000 C   0  0  0  0  0  0  0  0  0  0  0  0
    3.9917   -3.8417    0.0000 O   0  0  0  0  0  0  0  0  0  0  0  0
    4.1375   -0.9417    0.0000 O   0  0  0  0  0  0  0  0  0  0  0  0
    2.6375   -1.6042    0.0000 C   0  0  0  0  0  0  0  0  0  0  0  0
    1.8792   -0.1417    0.0000 C   0  0  0  0  0  0  0  0  0  0  0  0
    3.0875   -0.9167    0.0000 C   0  0  0  0  0  0  0  0  0  0  0  0
    1.8167   -1.5750    0.0000 C   0  0  0  0  0  0  0  0  0  0  0  0
    1.4375   -0.8417    0.0000 C   0  0  0  0  0  0  0  0  0  0  0  0
    2.7042   -0.1792    0.0000 C   0  0  0  0  0  0  0  0  0  0  0  0
    5.6000   -4.1792    0.0000 C   0  0  0  0  0  0  0  0  0  0  0  0
    6.4917   -3.0667    0.0000 C   0  0  0  0  0  0  0  0  0  0  0  0
    1.5042    0.5875    0.0000 C   0  0  0  0  0  0  0  0  0  0  0  0
    6.2375   -4.7000    0.0000 C   0  0  0  0  0  0  0  0  0  0  0  0
    7.1375   -3.5875    0.0000 C   0  0  0  0  0  0  0  0  0  0  0  0
    7.0042   -4.4042    0.0000 C   0  0  0  0  0  0  0  0  0  0  0  0
  2  1  1  0  0  0  0
  3  1  1  0  0  0  0
  4  2  1  0  0  0  0
  5  3  1  0  0  0  0
  6  4  1  0  0  0  0
  7  1  1  0  0  0  0
  8  2  2  0  0  0  0
  9  3  2  0  0  0  0
 10  7  1  0  0  0  0
 11 14  1  0  0  0  0
 12 10  2  0  0  0  0
 13 10  1  0  0  0  0
 14 13  2  0  0  0  0
 15 12  1  0  0  0  0
 16  6  1  0  0  0  0
 17  6  1  0  0  0  0
 18 11  1  0  0  0  0
 19 16  1  0  0  0  0
 20 17  1  0  0  0  0
 21 20  1  0  0  0  0
  4  5  1  0  0  0  0
 15 11  2  0  0  0  0
 19 21  1  0  0  0  0
M  END
> <IDNUMBER>
F3325-0016

> <Chemical_Name>
1-[(4-methylphenyl)methyl]-3-(piperidin-1-yl)pyrrolidine-2,5-dione

> <CAS>
881484-01-1

> <PriceCoeff>
1.50

> <MW>
286.37

> <Description>
solid

> <FSP3>
0.53

> <clogP>
3.65

> <TPSA>
40.62

> <Acceptor>
2

> <Donor>
1

> <RotBonds>
3

> <HAC>
21

> <Collection>
Advanced

$$$$
F3023-0921
  -ISIS-  06222321462D

 24 26  0  0  0  0  0  0  0  0999 V2000
    3.6250   -5.4042    0.0000 N   0  0  3  0  0  0  0  0  0  0  0  0
    4.0417   -5.9750    0.0000 C   0  0  0  0  0  0  0  0  0  0  0  0
    4.0417   -4.8292    0.0000 C   0  0  0  0  0  0  0  0  0  0  0  0
    4.7167   -5.7542    0.0000 C   0  0  3  0  0  0  0  0  0  0  0  0
    4.7167   -5.0417    0.0000 C   0  0  0  0  0  0  0  0  0  0  0  0
    5.2917   -6.1667    0.0000 N   0  0  3  0  0  0  0  0  0  0  0  0
    6.4375   -7.0000    0.0000 N   0  0  3  0  0  0  0  0  0  0  0  0
    7.0042   -7.4167    0.0000 C   0  0  0  0  0  0  0  0  0  0  0  0
    3.8292   -6.6500    0.0000 O   0  0  0  0  0  0  0  0  0  0  0  0
    3.8167   -4.1542    0.0000 O   0  0  0  0  0  0  0  0  0  0  0  0
    5.9375   -5.8750    0.0000 C   0  0  0  0  0  0  0  0  0  0  0  0
    5.2167   -6.8667    0.0000 C   0  0  0  0  0  0  0  0  0  0  0  0
    5.7875   -7.2875    0.0000 C   0  0  0  0  0  0  0  0  0  0  0  0
    6.5125   -6.2917    0.0000 C   0  0  0  0  0  0  0  0  0  0  0  0
    6.9292   -8.1167    0.0000 C   0  0  0  0  0  0  0  0  0  0  0  0
    7.6500   -7.1250    0.0000 C   0  0  0  0  0  0  0  0  0  0  0  0
    2.9167   -5.4042    0.0000 C   0  0  0  0  0  0  0  0  0  0  0  0
    8.1542   -8.2417    0.0000 C   0  0  0  0  0  0  0  0  0  0  0  0
    7.5042   -8.5292    0.0000 C   0  0  0  0  0  0  0  0  0  0  0  0
    8.2250   -7.5375    0.0000 C   0  0  0  0  0  0  0  0  0  0  0  0
    8.7292   -8.6542    0.0000 F   0  0  0  0  0  0  0  0  0  0  0  0
    1.8500   -4.8000    0.0000 O   0  0  0  0  0  0  0  0  0  0  0  0
    2.5625   -4.7917    0.0000 C   0  0  0  0  0  0  0  0  0  0  0  0
    1.4917   -4.1917    0.0000 C   0  0  0  0  0  0  0  0  0  0  0  0
  2  1  1  0  0  0  0
  3  1  1  0  0  0  0
  4  2  1  0  0  0  0
  5  3  1  0  0  0  0
  6  4  1  0  0  0  0
  7 13  1  0  0  0  0
  8  7  1  0  0  0  0
  9  2  2  0  0  0  0
 10  3  2  0  0  0  0
 11  6  1  0  0  0  0
 12  6  1  0  0  0  0
 13 12  1  0  0  0  0
 14 11  1  0  0  0  0
 15  8  2  0  0  0  0
 16  8  1  0  0  0  0
 17  1  1  0  0  0  0
 18 20  1  0  0  0  0
 19 15  1  0  0  0  0
 20 16  2  0  0  0  0
 21 18  1  0  0  0  0
 22 23  1  0  0  0  0
 23 17  1  0  0  0  0
 24 22  1  0  0  0  0
  5  4  1  0  0  0  0
  7 14  1  0  0  0  0
 18 19  2  0  0  0  0
M  END
> <IDNUMBER>
F3023-0921

> <Chemical_Name>
3-[4-(4-fluorophenyl)piperazin-1-yl]-1-(2-methoxyethyl)pyrrolidine-2,5-dione

> <CAS>
857494-28-1

> <PriceCoeff>
1.50

> <MW>
335.37

> <Description>
solid

> <FSP3>
0.53

> <clogP>
2.92

> <TPSA>
53.09

> <Acceptor>
4

> <Donor>
2

> <RotBonds>
5

> <HAC>
24

> <Collection>
Advanced

$$$$
F6473-3989
  -ISIS-  06222321152D

 24 27  0  0  0  0  0  0  0  0999 V2000
   -3.7458    3.6958    0.0000 S   0  0  3  0  0  0  0  0  0  0  0  0
   -3.0333    4.1042    0.0000 N   0  0  3  0  0  0  0  0  0  0  0  0
   -4.4667    3.2958    0.0000 C   0  0  0  0  0  0  0  0  0  0  0  0
   -1.3083    5.1042    0.0000 N   0  0  3  0  0  0  0  0  0  0  0  0
   -2.0333    4.6875    0.0000 C   0  0  3  0  0  0  0  0  0  0  0  0
   -2.8208    4.9000    0.0000 C   0  0  0  0  0  0  0  0  0  0  0  0
   -2.2458    3.8958    0.0000 C   0  0  0  0  0  0  0  0  0  0  0  0
   -0.5583    4.7667    0.0000 C   0  0  0  0  0  0  0  0  0  0  0  0
   -1.2250    5.9167    0.0000 C   0  0  0  0  0  0  0  0  0  0  0  0
   -5.1750    3.7083    0.0000 C   0  0  0  0  0  0  0  0  0  0  0  0
   -3.3333    2.9833    0.0000 O   0  0  0  0  0  0  0  0  0  0  0  0
   -4.1583    4.4042    0.0000 O   0  0  0  0  0  0  0  0  0  0  0  0
   -5.1708    4.5250    0.0000 N   0  0  0  0  0  0  0  0  0  0  0  0
   -0.4208    6.0917    0.0000 C   0  0  0  0  0  0  0  0  0  0  0  0
   -0.0083    5.3792    0.0000 C   0  0  0  0  0  0  0  0  0  0  0  0
   -1.8417    6.4708    0.0000 O   0  0  0  0  0  0  0  0  0  0  0  0
   -0.3875    3.9625    0.0000 O   0  0  0  0  0  0  0  0  0  0  0  0
   -5.8958    3.2958    0.0000 C   0  0  0  0  0  0  0  0  0  0  0  0
   -4.4667    2.4708    0.0000 C   0  0  0  0  0  0  0  0  0  0  0  0
   -5.1833    2.0583    0.0000 C   0  0  0  0  0  0  0  0  0  0  0  0
   -5.8833    4.9417    0.0000 C   0  0  0  0  0  0  0  0  0  0  0  0
   -5.8958    2.4750    0.0000 C   0  0  0  0  0  0  0  0  0  0  0  0
   -6.5917    3.7083    0.0000 C   0  0  0  0  0  0  0  0  0  0  0  0
   -6.5958    4.5250    0.0000 C   0  0  0  0  0  0  0  0  0  0  0  0
  2  1  1  0  0  0  0
  3  1  1  0  0  0  0
  4  5  1  0  0  0  0
  5  7  1  0  0  0  0
  6  2  1  0  0  0  0
  7  2  1  0  0  0  0
  8  4  1  0  0  0  0
  9  4  1  0  0  0  0
 10  3  2  0  0  0  0
 11  1  2  0  0  0  0
 12  1  2  0  0  0  0
 13 10  1  0  0  0  0
 14  9  1  0  0  0  0
 15  8  1  0  0  0  0
 16  9  2  0  0  0  0
 17  8  2  0  0  0  0
 18 10  1  0  0  0  0
 19  3  1  0  0  0  0
 20 19  2  0  0  0  0
 21 13  2  0  0  0  0
 22 20  1  0  0  0  0
 23 18  1  0  0  0  0
 24 23  2  0  0  0  0
  6  5  1  0  0  0  0
 22 18  2  0  0  0  0
 24 21  1  0  0  0  0
 14 15  1  0  0  0  0
M  END
> <IDNUMBER>
F6473-3989

> <Chemical_Name>
1-[1-(quinoline-8-sulfonyl)azetidin-3-yl]pyrrolidine-2,5-dione

> <CAS>
1795191-56-8

> <PriceCoeff>
1.00

> <MW>
345.37

> <Description>
solid

> <FSP3>
0.31

> <clogP>
0.77

> <TPSA>
96.03

> <Acceptor>
5

> <Donor>
1

> <RotBonds>
3

> <HAC>
24

> <Collection>
General

$$$$
F3393-0524
  -ISIS-  06222321442D

 16 17  0  0  0  0  0  0  0  0999 V2000
    0.9542    0.4000    0.0000 N   0  0  0  0  0  0  0  0  0  0  0  0
    0.2000    0.7333    0.0000 C   0  0  0  0  0  0  0  0  0  0  0  0
    0.2833    1.5542    0.0000 N   0  0  0  0  0  0  0  0  0  0  0  0
    1.5042    1.0125    0.0000 C   0  0  0  0  0  0  0  0  0  0  0  0
    1.0875    1.7292    0.0000 O   0  0  0  0  0  0  0  0  0  0  0  0
    3.4833    0.0958    0.0000 C   0  0  0  0  0  0  0  0  0  0  0  0
   -0.5125    0.3125    0.0000 C   0  0  0  0  0  0  0  0  0  0  0  0
    3.8208   -0.6583    0.0000 O   0  0  0  0  0  0  0  0  0  0  0  0
    2.3250    0.9292    0.0000 C   0  0  0  0  0  0  0  0  0  0  0  0
    2.6625    0.1792    0.0000 C   0  0  0  0  0  0  0  0  0  0  0  0
    3.9667    0.7667    0.0000 O   0  0  0  0  0  0  0  0  0  0  0  0
   -0.5125   -0.5167    0.0000 C   0  0  0  0  0  0  0  0  0  0  0  0
   -1.2292    0.7250    0.0000 C   0  0  0  0  0  0  0  0  0  0  0  0
   -1.2292   -0.9292    0.0000 C   0  0  0  0  0  0  0  0  0  0  0  0
   -1.9417    0.3125    0.0000 C   0  0  0  0  0  0  0  0  0  0  0  0
   -1.9417   -0.5167    0.0000 C   0  0  0  0  0  0  0  0  0  0  0  0
  2  1  1  0  0  0  0
  3  2  2  0  0  0  0
  4  1  2  0  0  0  0
  5  4  1  0  0  0  0
  6 10  1  0  0  0  0
  7  2  1  0  0  0  0
  8  6  2  0  0  0  0
  9  4  1  0  0  0  0
 10  9  1  0  0  0  0
 11  6  1  0  0  0  0
 12  7  1  0  0  0  0
 13  7  2  0  0  0  0
 14 12  2  0  0  0  0
 15 13  1  0  0  0  0
 16 15  2  0  0  0  0
  3  5  1  0  0  0  0
 14 16  1  0  0  0  0
M  END
> <IDNUMBER>
F3393-0524

> <Chemical_Name>
3-(3-phenyl-1,2,4-oxadiazol-5-yl)propanoic acid

> <CAS>
24088-59-3

> <PriceCoeff>
1.50

> <MW>
218.21

> <Description>
solid

> <FSP3>
0.18

> <clogP>
1.12

> <TPSA>
76.22

> <Acceptor>
5

> <Donor>
0

> <RotBonds>
4

> <HAC>
16

> <Collection>
Advanced

> <Reference_compound>
CHEMBL4744771

> <Similarity>
0.9940

$$$$
F1699-0026
  -ISIS-  06222321452D

 16 17  0  0  0  0  0  0  0  0999 V2000
    5.0292   -3.1292    0.0000 C   0  0  0  0  0  0  0  0  0  0  0  0
    5.0292   -2.3042    0.0000 C   0  0  0  0  0  0  0  0  0  0  0  0
    4.3167   -3.5417    0.0000 N   0  0  3  0  0  0  0  0  0  0  0  0
    3.5750   -3.1292    0.0000 C   0  0  0  0  0  0  0  0  0  0  0  0
    3.5750   -2.3042    0.0000 N   0  0  0  0  0  0  0  0  0  0  0  0
    5.8167   -3.3917    0.0000 N   0  0  0  0  0  0  0  0  0  0  0  0
    4.3167   -1.8917    0.0000 C   0  0  0  0  0  0  0  0  0  0  0  0
    5.8792   -1.9917    0.0000 N   0  0  0  0  0  0  0  0  0  0  0  0
    6.2917   -2.7042    0.0000 C   0  0  0  0  0  0  0  0  0  0  0  0
    2.8417   -3.5417    0.0000 O   0  0  0  0  0  0  0  0  0  0  0  0
    4.3167   -1.0667    0.0000 O   0  0  0  0  0  0  0  0  0  0  0  0
    7.1167   -2.7042    0.0000 C   0  0  0  0  0  0  0  0  0  0  0  0
    4.3167   -4.3667    0.0000 C   0  0  0  0  0  0  0  0  0  0  0  0
    7.5292   -3.4125    0.0000 N   0  0  3  0  0  0  0  0  0  0  0  0
    7.1167   -4.1167    0.0000 C   0  0  0  0  0  0  0  0  0  0  0  0
    8.3417   -3.4042    0.0000 C   0  0  0  0  0  0  0  0  0  0  0  0
  2  1  2  0  0  0  0
  3  1  1  0  0  0  0
  4  3  1  0  0  0  0
  5  4  1  0  0  0  0
  6  1  1  0  0  0  0
  7  2  1  0  0  0  0
  8  2  1  0  0  0  0
  9  6  2  0  0  0  0
 10  4  2  0  0  0  0
 11  7  2  0  0  0  0
 12  9  1  0  0  0  0
 13  3  1  0  0  0  0
 14 12  1  0  0  0  0
 15 14  1  0  0  0  0
 16 14  1  0  0  0  0
  8  9  1  0  0  0  0
  5  7  1  0  0  0  0
M  END
> <IDNUMBER>
F1699-0026

> <Chemical_Name>
8-[(dimethylamino)methyl]-3-methyl-2,3,6,7-tetrahydro-1H-purine-2,6-dione

> <CAS>
868143-58-2

> <PriceCoeff>
1.00

> <MW>
223.23

> <Description>
solid

> <FSP3>
0.44

> <clogP>
-0.83

> <TPSA>
117.33

> <Acceptor>
4

> <Donor>
4

> <RotBonds>
2

> <HAC>
16

> <Collection>
General

> <Reference_compound>
CHEMBL190

> <Similarity>
0.8550

$$$$
F3157-0003
  -ISIS-  06222321462D

 13 13  0  0  0  0  0  0  0  0999 V2000
    2.9792   -2.8500    0.0000 C   0  0  0  0  0  0  0  0  0  0  0  0
    3.7000   -2.4417    0.0000 O   0  0  0  0  0  0  0  0  0  0  0  0
    2.2667   -2.4417    0.0000 C   0  0  0  0  0  0  0  0  0  0  0  0
    1.5500   -1.2042    0.0000 C   0  0  0  0  0  0  0  0  0  0  0  0
    0.1167   -0.3750    0.0000 C   0  0  0  0  0  0  0  0  0  0  0  0
    2.9875   -3.6792    0.0000 O   0  0  0  0  0  0  0  0  0  0  0  0
    2.2667   -1.6167    0.0000 C   0  0  0  0  0  0  0  0  0  0  0  0
    1.5500   -0.3750    0.0000 C   0  0  0  0  0  0  0  0  0  0  0  0
    0.8292   -1.6167    0.0000 C   0  0  0  0  0  0  0  0  0  0  0  0
    0.8292    0.0375    0.0000 C   0  0  0  0  0  0  0  0  0  0  0  0
    0.1167   -1.2042    0.0000 C   0  0  0  0  0  0  0  0  0  0  0  0
   -0.5958    0.0375    0.0000 O   0  0  0  0  0  0  0  0  0  0  0  0
   -1.3083   -0.3792    0.0000 C   0  0  0  0  0  0  0  0  0  0  0  0
  2  1  2  0  0  0  0
  3  1  1  0  0  0  0
  4  7  1  0  0  0  0
  5 11  2  0  0  0  0
  6  1  1  0  0  0  0
  7  3  1  0  0  0  0
  8  4  1  0  0  0  0
  9  4  2  0  0  0  0
 10  8  2  0  0  0  0
 11  9  1  0  0  0  0
 12  5  1  0  0  0  0
 13 12  1  0  0  0  0
 10  5  1  0  0  0  0
M  END
> <IDNUMBER>
F3157-0003

> <Chemical_Name>
3-(4-methoxyphenyl)propanoic acid

> <CAS>
1929-29-9

> <PriceCoeff>
1.00

> <MW>
180.20

> <Description>
solid

> <FSP3>
0.30

> <clogP>
1.82

> <TPSA>
46.53

> <Acceptor>
3

> <Donor>
0

> <RotBonds>
4

> <HAC>
13

> <Collection>
General

> <Reference_compound>
CHEMBL1172560

> <Similarity>
0.8750

$$$$
F0373-0586
  -ISIS-  06222321142D

 17 18  0  0  0  0  0  0  0  0999 V2000
    5.4500   -4.1917    0.0000 C   0  0  0  0  0  0  0  0  0  0  0  0
    6.1000   -4.5667    0.0000 N   0  0  0  0  0  0  0  0  0  0  0  0
    5.4500   -3.4500    0.0000 C   0  0  0  0  0  0  0  0  0  0  0  0
    4.8000   -4.5667    0.0000 N   0  0  3  0  0  0  0  0  0  0  0  0
    4.1500   -4.1917    0.0000 C   0  0  0  0  0  0  0  0  0  0  0  0
    4.1500   -3.4500    0.0000 N   0  0  0  0  0  0  0  0  0  0  0  0
    6.7500   -4.1917    0.0000 C   0  0  0  0  0  0  0  0  0  0  0  0
    4.8000   -3.0542    0.0000 C   0  0  0  0  0  0  0  0  0  0  0  0
    6.7500   -3.4500    0.0000 N   0  0  3  0  0  0  0  0  0  0  0  0
    3.5000   -4.5667    0.0000 O   0  0  0  0  0  0  0  0  0  0  0  0
    4.8000   -2.3042    0.0000 O   0  0  0  0  0  0  0  0  0  0  0  0
    7.4000   -4.5667    0.0000 N   0  0  0  0  0  0  0  0  0  0  0  0
    4.8000   -5.3167    0.0000 C   0  0  0  0  0  0  0  0  0  0  0  0
    7.2792   -2.9042    0.0000 C   0  0  0  0  0  0  0  0  0  0  0  0
    6.7500   -6.4500    0.0000 O   0  0  0  0  0  0  0  0  0  0  0  0
    7.4000   -5.3167    0.0000 C   0  0  0  0  0  0  0  0  0  0  0  0
    6.7500   -5.7000    0.0000 C   0  0  0  0  0  0  0  0  0  0  0  0
  2  1  1  0  0  0  0
  3  1  2  0  0  0  0
  4  1  1  0  0  0  0
  5  4  1  0  0  0  0
  6  5  1  0  0  0  0
  7  2  2  0  0  0  0
  8  3  1  0  0  0  0
  9  3  1  0  0  0  0
 10  5  2  0  0  0  0
 11  8  2  0  0  0  0
 12  7  1  0  0  0  0
 13  4  1  0  0  0  0
 14  9  1  0  0  0  0
 15 17  1  0  0  0  0
 16 12  1  0  0  0  0
 17 16  1  0  0  0  0
  9  7  1  0  0  0  0
  6  8  1  0  0  0  0
M  END
> <IDNUMBER>
F0373-0586

> <Chemical_Name>
8-[(2-hydroxyethyl)amino]-3,7-dimethyl-2,3,6,7-tetrahydro-1H-purine-2,6-dione

> <CAS>
331675-08-2

> <PriceCoeff>
1.00

> <MW>
239.23

> <Description>
solid

> <FSP3>
0.44

> <clogP>
-0.87

> <TPSA>
99.49

> <Acceptor>
4

> <Donor>
4

> <RotBonds>
3

> <HAC>
17

> <Collection>
General

> <Reference_compound>
CHEMBL113

> <Similarity>
0.8180

$$$$
F0347-2366
  -ISIS-  06222321452D

 14 14  0  0  0  0  0  0  0  0999 V2000
   -2.8333    0.9000    0.0000 C   0  0  0  0  0  0  0  0  0  0  0  0
   -2.0333    1.3833    0.0000 C   0  0  0  0  0  0  0  0  0  0  0  0
   -1.2333    0.9208    0.0000 N   0  0  0  0  0  0  0  0  0  0  0  0
   -0.4500   -0.4500    0.0000 C   0  0  0  0  0  0  0  0  0  0  0  0
   -3.6333    1.3625    0.0000 C   0  0  0  0  0  0  0  0  0  0  0  0
   -2.0333    2.3000    0.0000 O   0  0  0  0  0  0  0  0  0  0  0  0
    0.3542   -0.0000    0.0000 O   0  0  0  0  0  0  0  0  0  0  0  0
   -1.2333   -0.0000    0.0000 C   0  0  0  0  0  0  0  0  0  0  0  0
   -3.6333    2.2833    0.0000 F   0  0  0  0  0  0  0  0  0  0  0  0
   -0.4500   -1.3667    0.0000 O   0  0  0  0  0  0  0  0  0  0  0  0
   -2.8333   -0.0042    0.0000 C   0  0  0  0  0  0  0  0  0  0  0  0
   -4.4333    0.9000    0.0000 C   0  0  0  0  0  0  0  0  0  0  0  0
   -3.6333   -0.4667    0.0000 C   0  0  0  0  0  0  0  0  0  0  0  0
   -4.4333   -0.0042    0.0000 C   0  0  0  0  0  0  0  0  0  0  0  0
  2  1  1  0  0  0  0
  3  2  1  0  0  0  0
  4  8  1  0  0  0  0
  5  1  1  0  0  0  0
  6  2  2  0  0  0  0
  7  4  2  0  0  0  0
  8  3  1  0  0  0  0
  9  5  1  0  0  0  0
 10  4  1  0  0  0  0
 11  1  2  0  0  0  0
 12  5  2  0  0  0  0
 13 11  1  0  0  0  0
 14 13  2  0  0  0  0
 14 12  1  0  0  0  0
M  END
> <IDNUMBER>
F0347-2366

> <Chemical_Name>
2-[(2-fluorophenyl)formamido]acetic acid

> <CAS>
363-34-8

> <PriceCoeff>
1.00

> <MW>
197.16

> <Description>
solid

> <FSP3>
0.11

> <clogP>
0.59

> <TPSA>
66.40

> <Acceptor>
3

> <Donor>
1

> <RotBonds>
3

> <HAC>
14

> <Collection>
General

> <Reference_compound>
CHEMBL459228

> <Similarity>
0.9600

$$$$
F2119-0005
  -ISIS-  06222321462D

 12 12  0  0  0  0  0  0  0  0999 V2000
    2.2542    1.7875    0.0000 C   0  0  0  0  0  0  0  0  0  0  0  0
    1.5417    2.2083    0.0000 O   0  0  0  0  0  0  0  0  0  0  0  0
    2.2542    0.9625    0.0000 C   0  0  0  0  0  0  0  0  0  0  0  0
    0.8375   -0.6875    0.0000 C   0  0  0  0  0  0  0  0  0  0  0  0
    2.9667    2.2083    0.0000 O   0  0  0  0  0  0  0  0  0  0  0  0
    0.8375   -1.5167    0.0000 C   0  0  0  0  0  0  0  0  0  0  0  0
    1.5500   -0.2750    0.0000 C   0  0  0  0  0  0  0  0  0  0  0  0
    1.5417    0.5500    0.0000 C   0  0  0  0  0  0  0  0  0  0  0  0
    0.1167   -1.9292    0.0000 O   0  0  0  0  0  0  0  0  0  0  0  0
    2.2667   -1.5167    0.0000 C   0  0  0  0  0  0  0  0  0  0  0  0
    1.5500   -1.9292    0.0000 C   0  0  0  0  0  0  0  0  0  0  0  0
    2.2667   -0.6875    0.0000 C   0  0  0  0  0  0  0  0  0  0  0  0
  2  1  2  0  0  0  0
  3  1  1  0  0  0  0
  4  7  1  0  0  0  0
  5  1  1  0  0  0  0
  6  4  2  0  0  0  0
  7  8  1  0  0  0  0
  8  3  1  0  0  0  0
  9  6  1  0  0  0  0
 10 12  1  0  0  0  0
 11 10  2  0  0  0  0
 12  7  2  0  0  0  0
  6 11  1  0  0  0  0
M  END
> <IDNUMBER>
F2119-0005

> <Chemical_Name>
3-(3-hydroxyphenyl)propanoic acid

> <CAS>
621-54-5

> <PriceCoeff>
1.50

> <MW>
166.17

> <Description>
solid

> <FSP3>
0.22

> <clogP>
1.24

> <TPSA>
57.53

> <Acceptor>
3

> <Donor>
1

> <RotBonds>
3

> <HAC>
12

> <Collection>
Advanced

> <Reference_compound>
CHEMBL1172560

> <Similarity>
0.9390

$$$$
F2182-0140
  -ISIS-  06222321462D

 12 12  0  0  0  0  0  0  0  0999 V2000
    1.4875   -2.7292    0.0000 C   0  0  0  0  0  0  0  0  0  0  0  0
    0.7792   -3.9667    0.0000 S   0  0  0  0  0  0  0  0  0  0  0  0
    1.4875   -1.9000    0.0000 O   0  0  0  0  0  0  0  0  0  0  0  0
    0.7750   -3.1417    0.0000 C   0  0  0  0  0  0  0  0  0  0  0  0
    0.0542   -4.3917    0.0000 C   0  0  0  0  0  0  0  0  0  0  0  0
    2.2042   -3.1417    0.0000 O   0  0  0  0  0  0  0  0  0  0  0  0
   -1.3708   -5.2167    0.0000 C   0  0  0  0  0  0  0  0  0  0  0  0
   -0.6583   -3.9792    0.0000 C   0  0  0  0  0  0  0  0  0  0  0  0
    0.0542   -5.2167    0.0000 C   0  0  0  0  0  0  0  0  0  0  0  0
   -1.3708   -4.3917    0.0000 C   0  0  0  0  0  0  0  0  0  0  0  0
   -0.6583   -5.6292    0.0000 C   0  0  0  0  0  0  0  0  0  0  0  0
   -2.0958   -5.6417    0.0000 C   0  0  0  0  0  0  0  0  0  0  0  0
  2  4  1  0  0  0  0
  3  1  2  0  0  0  0
  4  1  1  0  0  0  0
  5  2  1  0  0  0  0
  6  1  1  0  0  0  0
  7 11  1  0  0  0  0
  8  5  2  0  0  0  0
  9  5  1  0  0  0  0
 10  8  1  0  0  0  0
 11  9  2  0  0  0  0
 12  7  1  0  0  0  0
 10  7  2  0  0  0  0
M  END
> <IDNUMBER>
F2182-0140

> <Chemical_Name>
2-[(4-methylphenyl)sulfanyl]acetic acid

> <CAS>
3996-29-0

> <PriceCoeff>
1.00

> <MW>
182.24

> <Description>
solid

> <FSP3>
0.22

> <clogP>
2.38

> <TPSA>
62.60

> <Acceptor>
2

> <Donor>
0

> <RotBonds>
3

> <HAC>
12

> <Collection>
General

> <Reference_compound>
CHEMBL459548

> <Similarity>
0.8520

$$$$
F6245-4960
  -ISIS-  06222321462D

 29 32  0  0  0  0  0  0  0  0999 V2000
   -1.7792    6.7417    0.0000 N   0  0  3  0  0  0  0  0  0  0  0  0
   -2.4375    6.2625    0.0000 C   0  0  0  0  0  0  0  0  0  0  0  0
   -3.1000    6.7417    0.0000 N   0  0  0  0  0  0  0  0  0  0  0  0
   -2.0208    7.5292    0.0000 C   0  0  0  0  0  0  0  0  0  0  0  0
   -4.5958    5.0333    0.0000 N   0  0  3  0  0  0  0  0  0  0  0  0
   -2.8458    7.5292    0.0000 N   0  0  3  0  0  0  0  0  0  0  0  0
   -2.4458    5.4375    0.0000 C   0  0  3  0  0  0  0  0  0  0  0  0
   -3.1583    4.2042    0.0000 N   0  0  3  0  0  0  0  0  0  0  0  0
   -3.8708    3.8000    0.0000 C   0  0  0  0  0  0  0  0  0  0  0  0
   -4.5833    4.2125    0.0000 C   0  0  0  0  0  0  0  0  0  0  0  0
   -3.9208    5.5167    0.0000 C   0  0  0  0  0  0  0  0  0  0  0  0
   -5.2583    5.5042    0.0000 C   0  0  0  0  0  0  0  0  0  0  0  0
   -3.1583    5.0292    0.0000 C   0  0  0  0  0  0  0  0  0  0  0  0
   -0.9875    6.4792    0.0000 C   0  0  0  0  0  0  0  0  0  0  0  0
   -1.5333    8.1917    0.0000 O   0  0  0  0  0  0  0  0  0  0  0  0
   -3.8708    2.9833    0.0000 O   0  0  0  0  0  0  0  0  0  0  0  0
   -5.0167    6.2917    0.0000 C   0  0  0  0  0  0  0  0  0  0  0  0
   -4.1875    6.3042    0.0000 C   0  0  0  0  0  0  0  0  0  0  0  0
   -6.0292    5.2417    0.0000 O   0  0  0  0  0  0  0  0  0  0  0  0
   -3.1458    5.2667    0.0000 O   0  0  0  0  0  0  0  0  0  0  0  0
   -3.3250    8.1917    0.0000 C   0  0  0  0  0  0  0  0  0  0  0  0
   -2.4458    3.8000    0.0000 C   0  0  0  0  0  0  0  0  0  0  0  0
   -1.7333    5.0250    0.0000 C   0  0  0  0  0  0  0  0  0  0  0  0
   -1.7333    4.2042    0.0000 C   0  0  0  0  0  0  0  0  0  0  0  0
   -0.3833    7.0292    0.0000 C   0  0  0  0  0  0  0  0  0  0  0  0
   -0.8250    5.6708    0.0000 C   0  0  0  0  0  0  0  0  0  0  0  0
    0.4042    6.7750    0.0000 C   0  0  0  0  0  0  0  0  0  0  0  0
   -0.0458    5.4083    0.0000 C   0  0  0  0  0  0  0  0  0  0  0  0
    0.5792    5.9625    0.0000 C   0  0  0  0  0  0  0  0  0  0  0  0
  2  1  1  0  0  0  0
  3  2  2  0  0  0  0
  4  1  1  0  0  0  0
  5 10  1  0  0  0  0
  6  4  1  0  0  0  0
  7  2  1  0  0  0  0
  8 13  1  0  0  0  0
  9  8  1  0  0  0  0
 10  9  1  0  0  0  0
 11  5  1  0  0  0  0
 12  5  1  0  0  0  0
 13  7  1  0  0  0  0
 14  1  1  0  0  0  0
 15  4  2  0  0  0  0
 16  9  2  0  0  0  0
 17 12  1  0  0  0  0
 18 11  1  0  0  0  0
 19 12  2  0  0  0  0
 20 11  2  0  0  0  0
 21  6  1  0  0  0  0
 22 24  1  0  0  0  0
 23  7  1  0  0  0  0
 24 23  1  0  0  0  0
 25 14  1  0  0  0  0
 26 14  2  0  0  0  0
 27 25  2  0  0  0  0
 28 26  1  0  0  0  0
 29 28  2  0  0  0  0
  3  6  1  0  0  0  0
 27 29  1  0  0  0  0
 22  8  1  0  0  0  0
 17 18  1  0  0  0  0
M  END
> <IDNUMBER>
F6245-4960

> <Chemical_Name>
1-{2-[3-(1-methyl-5-oxo-4-phenyl-4,5-dihydro-1H-1,2,4-triazol-3-yl)piperidin-1-yl]-2-oxoethyl}pyrrolidine-2,5-dione

> <CAS>
1396853-18-1

> <PriceCoeff>
1.50

> <MW>
397.43

> <Description>
oil

> <FSP3>
0.45

> <clogP>
0.64

> <TPSA>
93.60

> <Acceptor>
5

> <Donor>
0

> <RotBonds>
5

> <HAC>
29

> <Collection>
Advanced

$$$$
F6782-8295
  -ISIS-  06222321472D

 23 26  0  0  0  0  0  0  0  0999 V2000
    6.0875   -6.5917    0.0000 C   0  0  0  0  0  0  0  0  0  0  0  0
    6.1042   -7.4292    0.0000 N   0  0  3  0  0  0  0  0  0  0  0  0
    5.3542   -6.1917    0.0000 C   0  0  0  0  0  0  0  0  0  0  0  0
    6.8917   -7.6667    0.0000 N   0  0  0  0  0  0  0  0  0  0  0  0
    6.8542   -6.3292    0.0000 C   0  0  0  0  0  0  0  0  0  0  0  0
    4.6542   -6.6292    0.0000 N   0  0  3  0  0  0  0  0  0  0  0  0
    7.3667   -6.9792    0.0000 C   0  0  0  0  0  0  0  0  0  0  0  0
    5.3917   -7.8542    0.0000 C   0  0  0  0  0  0  0  0  0  0  0  0
    4.6750   -7.4667    0.0000 C   0  0  0  0  0  0  0  0  0  0  0  0
    3.9250   -6.2417    0.0000 C   0  0  0  0  0  0  0  0  0  0  0  0
    5.3417   -5.3667    0.0000 O   0  0  0  0  0  0  0  0  0  0  0  0
    3.9000   -5.4167    0.0000 C   0  0  0  0  0  0  0  0  0  0  0  0
    7.1792   -5.5667    0.0000 C   0  0  0  0  0  0  0  0  0  0  0  0
    3.8500   -3.7667    0.0000 C   0  0  0  0  0  0  0  0  0  0  0  0
    4.6042   -4.9792    0.0000 C   0  0  0  0  0  0  0  0  0  0  0  0
    3.1750   -5.0292    0.0000 C   0  0  0  0  0  0  0  0  0  0  0  0
    3.1417   -4.2042    0.0000 C   0  0  0  0  0  0  0  0  0  0  0  0
    4.5792   -4.1542    0.0000 C   0  0  0  0  0  0  0  0  0  0  0  0
    8.1792   -6.8792    0.0000 C   0  0  0  0  0  0  0  0  0  0  0  0
    3.8292   -2.9500    0.0000 O   0  0  0  0  0  0  0  0  0  0  0  0
    3.1000   -2.5542    0.0000 C   0  0  0  0  0  0  0  0  0  0  0  0
    7.9917   -5.4542    0.0000 C   0  0  0  0  0  0  0  0  0  0  0  0
    8.5042   -6.1167    0.0000 C   0  0  0  0  0  0  0  0  0  0  0  0
  2  1  1  0  0  0  0
  3  1  1  0  0  0  0
  4  2  1  0  0  0  0
  5  1  2  0  0  0  0
  6  3  1  0  0  0  0
  7  5  1  0  0  0  0
  8  2  1  0  0  0  0
  9  6  1  0  0  0  0
 10  6  1  0  0  0  0
 11  3  2  0  0  0  0
 12 10  1  0  0  0  0
 13  5  1  0  0  0  0
 14 17  1  0  0  0  0
 15 12  2  0  0  0  0
 16 12  1  0  0  0  0
 17 16  2  0  0  0  0
 18 15  1  0  0  0  0
 19  7  1  0  0  0  0
 20 14  1  0  0  0  0
 21 20  1  0  0  0  0
 22 13  1  0  0  0  0
 23 22  1  0  0  0  0
  4  7  2  0  0  0  0
  8  9  2  0  0  0  0
 23 19  1  0  0  0  0
 18 14  2  0  0  0  0
M  END
> <IDNUMBER>
F6782-8295

> <Chemical_Name>
2-[(4-methoxyphenyl)methyl]-1H,2H,7H,8H,9H,10H-pyrazino[1,2-b]indazol-1-one

> <CAS>
2770629-62-2

> <PriceCoeff>
1.00

> <MW>
309.37

> <Description>
oil

> <FSP3>
0.33

> <clogP>
2.39

> <TPSA>
47.36

> <Acceptor>
3

> <Donor>
0

> <RotBonds>
3

> <HAC>
23

> <Collection>
General

> <Reference_compound>
CHEMBL2269988

> <Similarity>
0.8170

$$$$
F6782-8294
  -ISIS-  06222321162D

 23 26  0  0  0  0  0  0  0  0999 V2000
    6.0875   -6.5917    0.0000 C   0  0  0  0  0  0  0  0  0  0  0  0
    6.1042   -7.4292    0.0000 N   0  0  3  0  0  0  0  0  0  0  0  0
    5.3542   -6.1917    0.0000 C   0  0  0  0  0  0  0  0  0  0  0  0
    6.8917   -7.6667    0.0000 N   0  0  0  0  0  0  0  0  0  0  0  0
    6.8542   -6.3292    0.0000 C   0  0  0  0  0  0  0  0  0  0  0  0
    4.6542   -6.6292    0.0000 N   0  0  3  0  0  0  0  0  0  0  0  0
    7.3667   -6.9792    0.0000 C   0  0  0  0  0  0  0  0  0  0  0  0
    5.3917   -7.8542    0.0000 C   0  0  0  0  0  0  0  0  0  0  0  0
    4.6750   -7.4667    0.0000 C   0  0  0  0  0  0  0  0  0  0  0  0
    3.9250   -6.2417    0.0000 C   0  0  0  0  0  0  0  0  0  0  0  0
    5.3417   -5.3667    0.0000 O   0  0  0  0  0  0  0  0  0  0  0  0
    3.9000   -5.4167    0.0000 C   0  0  0  0  0  0  0  0  0  0  0  0
    3.1750   -5.0292    0.0000 C   0  0  0  0  0  0  0  0  0  0  0  0
    7.1792   -5.5667    0.0000 C   0  0  0  0  0  0  0  0  0  0  0  0
    3.1417   -4.2042    0.0000 C   0  0  0  0  0  0  0  0  0  0  0  0
    8.1792   -6.8792    0.0000 C   0  0  0  0  0  0  0  0  0  0  0  0
    2.4250   -3.8167    0.0000 O   0  0  0  0  0  0  0  0  0  0  0  0
    4.5792   -4.1542    0.0000 C   0  0  0  0  0  0  0  0  0  0  0  0
    4.6042   -4.9792    0.0000 C   0  0  0  0  0  0  0  0  0  0  0  0
    3.8500   -3.7667    0.0000 C   0  0  0  0  0  0  0  0  0  0  0  0
    1.7167   -4.2542    0.0000 C   0  0  0  0  0  0  0  0  0  0  0  0
    7.9917   -5.4542    0.0000 C   0  0  0  0  0  0  0  0  0  0  0  0
    8.5042   -6.1167    0.0000 C   0  0  0  0  0  0  0  0  0  0  0  0
  2  1  1  0  0  0  0
  3  1  1  0  0  0  0
  4  2  1  0  0  0  0
  5  1  2  0  0  0  0
  6  3  1  0  0  0  0
  7  5  1  0  0  0  0
  8  2  1  0  0  0  0
  9  6  1  0  0  0  0
 10  6  1  0  0  0  0
 11  3  2  0  0  0  0
 12 10  1  0  0  0  0
 13 12  1  0  0  0  0
 14  5  1  0  0  0  0
 15 13  2  0  0  0  0
 16  7  1  0  0  0  0
 17 15  1  0  0  0  0
 18 19  1  0  0  0  0
 19 12  2  0  0  0  0
 20 18  2  0  0  0  0
 21 17  1  0  0  0  0
 22 14  1  0  0  0  0
 23 22  1  0  0  0  0
  4  7  2  0  0  0  0
  8  9  2  0  0  0  0
 23 16  1  0  0  0  0
 15 20  1  0  0  0  0
M  END
> <IDNUMBER>
F6782-8294

> <Chemical_Name>
2-[(3-methoxyphenyl)methyl]-1H,2H,7H,8H,9H,10H-pyrazino[1,2-b]indazol-1-one

> <CAS>
1775377-50-8

> <PriceCoeff>
1.00

> <MW>
309.37

> <Description>
solid

> <FSP3>
0.33

> <clogP>
2.39

> <TPSA>
47.36

> <Acceptor>
3

> <Donor>
0

> <RotBonds>
3

> <HAC>
23

> <Collection>
General

> <Reference_compound>
CHEMBL2269988

> <Similarity>
0.8050

$$$$
F6790-0118
  -ISIS-  06222321472D

 14 15  0  0  0  0  0  0  0  0999 V2000
   -3.7583    3.7208    0.0000 C   0  0  0  0  0  0  0  0  0  0  0  0
   -4.4708    4.1167    0.0000 N   0  0  0  0  0  0  0  0  0  0  0  0
   -3.7583    2.8958    0.0000 N   0  0  0  0  0  0  0  0  0  0  0  0
   -3.0458    4.1167    0.0000 N   0  0  0  0  0  0  0  0  0  0  0  0
   -5.1833    3.7125    0.0000 C   0  0  0  0  0  0  0  0  0  0  0  0
   -4.4708    2.4833    0.0000 C   0  0  0  0  0  0  0  0  0  0  0  0
   -3.0458    4.9417    0.0000 C   0  0  0  0  0  0  0  0  0  0  0  0
   -5.1833    2.8958    0.0000 C   0  0  0  0  0  0  0  0  0  0  0  0
   -5.9083    4.1042    0.0000 C   0  0  0  0  0  0  0  0  0  0  0  0
   -2.3333    5.3542    0.0000 C   0  0  0  0  0  0  0  0  0  0  0  0
   -3.7583    5.3542    0.0000 C   0  0  0  0  0  0  0  0  0  0  0  0
   -3.7583    6.1792    0.0000 C   0  0  0  0  0  0  0  0  0  0  0  0
   -2.3333    6.1792    0.0000 C   0  0  0  0  0  0  0  0  0  0  0  0
   -3.0458    6.5917    0.0000 C   0  0  0  0  0  0  0  0  0  0  0  0
  2  1  2  0  0  0  0
  3  1  1  0  0  0  0
  4  1  1  0  0  0  0
  5  2  1  0  0  0  0
  6  3  2  0  0  0  0
  7  4  1  0  0  0  0
  8  6  1  0  0  0  0
  9  5  1  0  0  0  0
 10  7  2  0  0  0  0
 11  7  1  0  0  0  0
 12 11  2  0  0  0  0
 13 10  1  0  0  0  0
 14 12  1  0  0  0  0
  5  8  2  0  0  0  0
 13 14  2  0  0  0  0
M  END
> <IDNUMBER>
F6790-0118

> <Chemical_Name>
4-methyl-N-phenylpyrimidin-2-amine

> <CAS>
53112-26-8

> <PriceCoeff>
1.50

> <MW>
185.23

> <Description>
solid

> <FSP3>
0.09

> <clogP>
2.98

> <TPSA>
37.81

> <Acceptor>
3

> <Donor>
1

> <RotBonds>
2

> <HAC>
14

> <Collection>
Advanced

> <Reference_compound>
CHEMBL540677

> <Similarity>
0.9620

$$$$
F3325-0115
  -ISIS-  06222321462D

 23 25  0  0  0  0  0  0  0  0999 V2000
    4.8792   -1.3250    0.0000 N   0  0  3  0  0  0  0  0  0  0  0  0
    5.3667   -1.9917    0.0000 C   0  0  0  0  0  0  0  0  0  0  0  0
    5.3625   -0.6542    0.0000 C   0  0  0  0  0  0  0  0  0  0  0  0
    6.1542   -1.7292    0.0000 C   0  0  3  0  0  0  0  0  0  0  0  0
    6.1417   -0.9042    0.0000 C   0  0  0  0  0  0  0  0  0  0  0  0
    6.8167   -2.2125    0.0000 N   0  0  3  0  0  0  0  0  0  0  0  0
    8.1542   -3.1750    0.0000 N   0  0  3  0  0  0  0  0  0  0  0  0
    5.1167   -2.7750    0.0000 O   0  0  0  0  0  0  0  0  0  0  0  0
    5.1042    0.1333    0.0000 O   0  0  0  0  0  0  0  0  0  0  0  0
    4.0542   -1.3292    0.0000 C   0  0  3  0  0  0  0  0  0  0  0  0
    7.5667   -1.8667    0.0000 C   0  0  0  0  0  0  0  0  0  0  0  0
    6.7292   -3.0292    0.0000 C   0  0  0  0  0  0  0  0  0  0  0  0
    8.8250   -3.6542    0.0000 C   0  0  0  0  0  0  0  0  0  0  0  0
    8.2375   -2.3542    0.0000 C   0  0  0  0  0  0  0  0  0  0  0  0
    7.4000   -3.5125    0.0000 C   0  0  0  0  0  0  0  0  0  0  0  0
    9.5750   -3.3250    0.0000 C   0  0  0  0  0  0  0  0  0  0  0  0
    3.6375   -0.6167    0.0000 C   0  0  0  0  0  0  0  0  0  0  0  0
    3.6417   -2.0417    0.0000 C   0  0  0  0  0  0  0  0  0  0  0  0
   10.2417   -3.8042    0.0000 C   0  0  0  0  0  0  0  0  0  0  0  0
    9.6542   -2.5042    0.0000 C   0  0  0  0  0  0  0  0  0  0  0  0
   10.4042   -2.1667    0.0000 C   0  0  0  0  0  0  0  0  0  0  0  0
   10.9917   -3.4667    0.0000 C   0  0  0  0  0  0  0  0  0  0  0  0
   11.0792   -2.6500    0.0000 C   0  0  0  0  0  0  0  0  0  0  0  0
  2  1  1  0  0  0  0
  3  1  1  0  0  0  0
  4  2  1  0  0  0  0
  5  3  1  0  0  0  0
  6  4  1  0  0  0  0
  7 15  1  0  0  0  0
  8  2  2  0  0  0  0
  9  3  2  0  0  0  0
 10  1  1  0  0  0  0
 11  6  1  0  0  0  0
 12  6  1  0  0  0  0
 13  7  1  0  0  0  0
 14 11  1  0  0  0  0
 15 12  1  0  0  0  0
 16 13  1  0  0  0  0
 17 10  1  0  0  0  0
 18 10  1  0  0  0  0
 19 16  2  0  0  0  0
 20 16  1  0  0  0  0
 21 20  2  0  0  0  0
 22 19  1  0  0  0  0
 23 21  1  0  0  0  0
  4  5  1  0  0  0  0
  7 14  1  0  0  0  0
 22 23  2  0  0  0  0
M  END
> <IDNUMBER>
F3325-0115

> <Chemical_Name>
3-(4-benzylpiperazin-1-yl)-1-(propan-2-yl)pyrrolidine-2,5-dione

> <CAS>
924873-69-8

> <PriceCoeff>
1.50

> <MW>
315.41

> <Description>
solid

> <FSP3>
0.56

> <clogP>
3.48

> <TPSA>
43.86

> <Acceptor>
4

> <Donor>
2

> <RotBonds>
4

> <HAC>
23

> <Collection>
Advanced

$$$$
F5658-0165
  -ISIS-  06222321462D

 20 21  0  0  0  0  0  0  0  0999 V2000
    7.7542   -7.8417    0.0000 C   0  0  0  0  0  0  0  0  0  0  0  0
    8.5375   -7.5917    0.0000 C   0  0  0  0  0  0  0  0  0  0  0  0
    7.7542   -8.6667    0.0000 C   0  0  0  0  0  0  0  0  0  0  0  0
    4.1667   -7.4417    0.0000 C   0  0  0  0  0  0  0  0  0  0  0  0
    7.0417   -7.4292    0.0000 C   0  0  0  0  0  0  0  0  0  0  0  0
    9.0167   -8.2625    0.0000 C   0  0  0  0  0  0  0  0  0  0  0  0
    8.7917   -6.8042    0.0000 O   0  0  0  0  0  0  0  0  0  0  0  0
    4.1625   -6.6125    0.0000 O   0  0  0  0  0  0  0  0  0  0  0  0
    8.5375   -8.9250    0.0000 C   0  0  0  0  0  0  0  0  0  0  0  0
    7.0417   -9.0792    0.0000 C   0  0  0  0  0  0  0  0  0  0  0  0
    3.4542   -7.8542    0.0000 N   0  0  0  0  0  0  0  0  0  0  0  0
    6.3250   -7.8417    0.0000 C   0  0  0  0  0  0  0  0  0  0  0  0
    5.6042   -7.4292    0.0000 O   0  0  0  0  0  0  0  0  0  0  0  0
    4.8917   -7.8500    0.0000 C   0  0  0  0  0  0  0  0  0  0  0  0
    6.3250   -8.6667    0.0000 C   0  0  0  0  0  0  0  0  0  0  0  0
    2.7417   -7.4417    0.0000 C   0  0  0  0  0  0  0  0  0  0  0  0
    2.0250   -7.8542    0.0000 C   0  0  0  0  0  0  0  0  0  0  0  0
    1.3042   -7.4417    0.0000 C   0  0  3  0  0  0  0  0  0  0  0  0
    1.3042   -6.6125    0.0000 C   0  0  0  0  0  0  0  0  0  0  0  0
    0.5917   -7.8542    0.0000 C   0  0  0  0  0  0  0  0  0  0  0  0
  2  1  1  0  0  0  0
  3  1  1  0  0  0  0
  4 14  1  0  0  0  0
  5  1  2  0  0  0  0
  6  2  1  0  0  0  0
  7  2  2  0  0  0  0
  8  4  2  0  0  0  0
  9  3  1  0  0  0  0
 10  3  2  0  0  0  0
 11  4  1  0  0  0  0
 12  5  1  0  0  0  0
 13 12  1  0  0  0  0
 14 13  1  0  0  0  0
 15 12  2  0  0  0  0
 16 11  1  0  0  0  0
 17 16  1  0  0  0  0
 18 17  1  0  0  0  0
 19 18  1  0  0  0  0
 20 18  1  0  0  0  0
  9  6  1  0  0  0  0
 10 15  1  0  0  0  0
M  END
> <IDNUMBER>
F5658-0165

> <Chemical_Name>
N-(3-methylbutyl)-2-[(3-oxo-2,3-dihydro-1H-inden-5-yl)oxy]acetamide

> <CAS>
1203357-26-9

> <PriceCoeff>
1.50

> <MW>
275.34

> <Description>
solid

> <FSP3>
0.50

> <clogP>
2.68

> <TPSA>
55.40

> <Acceptor>
3

> <Donor>
1

> <RotBonds>
6

> <HAC>
20

> <Collection>
Advanced

> <Reference_compound>
CHEMBL4287340

> <Similarity>
0.8010

$$$$
F6359-0356
  -ISIS-  06222321152D

 26 28  0  0  0  0  0  0  0  0999 V2000
   -4.5833    3.8000    0.0000 S   0  0  3  0  0  0  0  0  0  0  0  0
   -6.7125    3.3583    0.0000 N   0  0  3  0  0  0  0  0  0  0  0  0
   -3.8625    4.2125    0.0000 N   0  0  3  0  0  0  0  0  0  0  0  0
   -5.2833    3.3833    0.0000 C   0  0  0  0  0  0  0  0  0  0  0  0
   -6.6917    2.5333    0.0000 C   0  0  0  0  0  0  0  0  0  0  0  0
   -7.4292    3.7583    0.0000 C   0  0  0  0  0  0  0  0  0  0  0  0
   -6.0000    3.7833    0.0000 C   0  0  0  0  0  0  0  0  0  0  0  0
   -4.1542    3.1083    0.0000 O   0  0  0  0  0  0  0  0  0  0  0  0
   -5.0000    4.5042    0.0000 O   0  0  0  0  0  0  0  0  0  0  0  0
   -1.0083    5.0542    0.0000 C   0  0  0  0  0  0  0  0  0  0  0  0
   -0.2958    5.4667    0.0000 N   0  0  0  0  0  0  0  0  0  0  0  0
   -3.1458    3.8083    0.0000 C   0  0  0  0  0  0  0  0  0  0  0  0
   -3.8583    5.0292    0.0000 C   0  0  0  0  0  0  0  0  0  0  0  0
   -7.4542    4.5750    0.0000 O   0  0  0  0  0  0  0  0  0  0  0  0
   -5.9708    2.1333    0.0000 O   0  0  0  0  0  0  0  0  0  0  0  0
   -1.7333    5.4625    0.0000 O   0  0  0  0  0  0  0  0  0  0  0  0
   -3.1583    5.4542    0.0000 C   0  0  0  0  0  0  0  0  0  0  0  0
   -2.4250    4.2167    0.0000 C   0  0  0  0  0  0  0  0  0  0  0  0
   -2.4458    5.0333    0.0000 C   0  0  3  0  0  0  0  0  0  0  0  0
   -7.4000    2.1000    0.0000 C   0  0  0  0  0  0  0  0  0  0  0  0
   -8.1333    3.3333    0.0000 C   0  0  0  0  0  0  0  0  0  0  0  0
   -8.1167    2.5000    0.0000 C   0  0  0  0  0  0  0  0  0  0  0  0
    0.4292    5.0625    0.0000 C   0  0  0  0  0  0  0  0  0  0  0  0
   -1.0083    4.2167    0.0000 C   0  0  0  0  0  0  0  0  0  0  0  0
    0.4292    4.2292    0.0000 C   0  0  0  0  0  0  0  0  0  0  0  0
   -0.2833    3.8208    0.0000 C   0  0  0  0  0  0  0  0  0  0  0  0
  2  7  1  0  0  0  0
  3  1  1  0  0  0  0
  4  1  1  0  0  0  0
  5  2  1  0  0  0  0
  6  2  1  0  0  0  0
  7  4  1  0  0  0  0
  8  1  2  0  0  0  0
  9  1  2  0  0  0  0
 10 16  1  0  0  0  0
 11 10  2  0  0  0  0
 12  3  1  0  0  0  0
 13  3  1  0  0  0  0
 14  6  2  0  0  0  0
 15  5  2  0  0  0  0
 16 19  1  0  0  0  0
 17 13  1  0  0  0  0
 18 12  1  0  0  0  0
 19 17  1  0  0  0  0
 20  5  1  0  0  0  0
 21  6  1  0  0  0  0
 22 21  1  0  0  0  0
 23 11  1  0  0  0  0
 24 10  1  0  0  0  0
 25 26  1  0  0  0  0
 26 24  2  0  0  0  0
 18 19  1  0  0  0  0
 20 22  1  0  0  0  0
 23 25  2  0  0  0  0
M  END
> <IDNUMBER>
F6359-0356

> <Chemical_Name>
1-(2-{[4-(pyridin-2-yloxy)piperidin-1-yl]sulfonyl}ethyl)piperidine-2,6-dione

> <CAS>
1448078-16-7

> <PriceCoeff>
1.00

> <MW>
381.45

> <Description>
solid

> <FSP3>
0.59

> <clogP>
1.24

> <TPSA>
105.26

> <Acceptor>
6

> <Donor>
1

> <RotBonds>
6

> <HAC>
26

> <Collection>
General

$$$$
F1929-2096
  -ISIS-  06222304352D

 15 15  0  0  0  0  0  0  0  0999 V2000
    4.2500   -1.8417    0.0000 C   0  0  0  0  0  0  0  0  0  0  0  0
    5.0750   -1.8500    0.0000 N   0  0  3  0  0  0  0  0  0  0  0  0
    3.8417   -1.1125    0.0000 O   0  0  0  0  0  0  0  0  0  0  0  0
    3.8292   -2.5417    0.0000 C   0  0  0  0  0  0  0  0  0  0  0  0
    6.7167   -1.7917    0.0000 N   0  0  0  0  0  0  0  0  0  0  0  0
    5.5125   -2.5417    0.0000 C   0  0  0  0  0  0  0  0  0  0  0  0
    5.4667   -1.1125    0.0000 C   0  0  0  0  0  0  0  0  0  0  0  0
    6.3167   -2.5167    0.0000 C   0  0  0  0  0  0  0  0  0  0  0  0
    6.2917   -1.0917    0.0000 C   0  0  0  0  0  0  0  0  0  0  0  0
    3.0125   -2.5417    0.0000 C   0  0  0  0  0  0  0  0  0  0  0  0
    4.2417   -3.2792    0.0000 C   0  0  0  0  0  0  0  0  0  0  0  0
    2.5792   -3.2417    0.0000 C   0  0  0  0  0  0  0  0  0  0  0  0
    3.8250   -3.9792    0.0000 C   0  0  0  0  0  0  0  0  0  0  0  0
    2.9792   -3.9792    0.0000 C   0  0  0  0  0  0  0  0  0  0  0  0
    8.2042   -2.3917    0.0000 Cl  0  0  0  0  0  0  0  0  0  0  0  0
  3  1  2  0  0  0  0
  4  1  1  0  0  0  0
  5  9  1  0  0  0  0
  6  2  1  0  0  0  0
  7  2  1  0  0  0  0
  8  6  1  0  0  0  0
  9  7  1  0  0  0  0
 10  4  2  0  0  0  0
 11  4  1  0  0  0  0
 12 10  1  0  0  0  0
 13 11  2  0  0  0  0
 14 13  1  0  0  0  0
  5  8  1  0  0  0  0
 14 12  2  0  0  0  0
  2  1  1  0  0  0  0
M  END
> <IDNUMBER>
F1929-2096

> <Chemical_Name>
1-benzoylpiperazine hydrochloride

> <CAS>
56227-55-5

> <PriceCoeff>
1.50

> <MW>
190.24

> <Description>
solid

> <FSP3>
0.36

> <clogP>
0.76

> <TPSA>
32.34

> <Acceptor>
1

> <Donor>
1

> <RotBonds>
2

> <HAC>
14

> <Collection>
Advanced

> <Reference_compound>
CHEMBL1453317

> <Similarity>
0.8040

$$$$
F6210-1170
  -ISIS-  06222321462D

 23 25  0  0  0  0  0  0  0  0999 V2000
   -1.1458    2.7125    0.0000 S   0  0  3  0  0  0  0  0  0  0  0  0
   -0.4708    0.6375    0.0000 N   0  0  3  0  0  0  0  0  0  0  0  0
   -3.6708    2.6208    0.0000 N   0  0  3  0  0  0  0  0  0  0  0  0
   -3.8125    3.4333    0.0000 C   0  0  0  0  0  0  0  0  0  0  0  0
   -3.0833    3.8208    0.0000 C   0  0  0  0  0  0  0  0  0  0  0  0
   -4.2458    2.0250    0.0000 C   0  0  3  0  0  0  0  0  0  0  0  0
   -0.7958   -0.1250    0.0000 C   0  0  0  0  0  0  0  0  0  0  0  0
    0.3500    0.7375    0.0000 C   0  0  0  0  0  0  0  0  0  0  0  0
   -2.4833    3.2333    0.0000 C   0  0  3  0  0  0  0  0  0  0  0  0
   -0.6458    2.0583    0.0000 C   0  0  0  0  0  0  0  0  0  0  0  0
   -1.6625    3.3583    0.0000 N   0  0  0  0  0  0  0  0  0  0  0  0
   -0.9708    1.3000    0.0000 C   0  0  0  0  0  0  0  0  0  0  0  0
   -5.0375    1.7958    0.0000 C   0  0  0  0  0  0  0  0  0  0  0  0
   -4.4458    1.2208    0.0000 C   0  0  0  0  0  0  0  0  0  0  0  0
   -2.8500    2.5000    0.0000 C   0  0  0  0  0  0  0  0  0  0  0  0
   -0.4958    3.2125    0.0000 O   0  0  0  0  0  0  0  0  0  0  0  0
   -1.9208    2.3958    0.0000 O   0  0  0  0  0  0  0  0  0  0  0  0
   -4.5625    3.8000    0.0000 O   0  0  0  0  0  0  0  0  0  0  0  0
    0.6750    1.5083    0.0000 O   0  0  0  0  0  0  0  0  0  0  0  0
   -1.6125   -0.2292    0.0000 O   0  0  0  0  0  0  0  0  0  0  0  0
    0.8500    0.0833    0.0000 C   0  0  0  0  0  0  0  0  0  0  0  0
   -0.2875   -0.7750    0.0000 C   0  0  0  0  0  0  0  0  0  0  0  0
    0.5292   -0.6667    0.0000 C   0  0  0  0  0  0  0  0  0  0  0  0
  2 12  1  0  0  0  0
  3 15  1  0  0  0  0
  4  5  1  0  0  0  0
  5  9  1  0  0  0  0
  6  3  1  0  0  0  0
  7  2  1  0  0  0  0
  8  2  1  0  0  0  0
  9 11  1  0  0  0  0
 10  1  1  0  0  0  0
 11  1  1  0  0  0  0
 12 10  1  0  0  0  0
 13  6  1  0  0  0  0
 14  6  1  0  0  0  0
 15  9  1  0  0  0  0
 16  1  2  0  0  0  0
 17  1  2  0  0  0  0
 18  4  2  0  0  0  0
 19  8  2  0  0  0  0
 20  7  2  0  0  0  0
 21  8  1  0  0  0  0
 22  7  1  0  0  0  0
 23 21  1  0  0  0  0
  4  3  1  0  0  0  0
 13 14  1  0  0  0  0
 23 22  1  0  0  0  0
M  END
> <IDNUMBER>
F6210-1170

> <Chemical_Name>
N-(1-cyclopropyl-5-oxopyrrolidin-3-yl)-2-(2,6-dioxopiperidin-1-yl)ethane-1-sulfonamide

> <CAS>
1396888-61-1

> <PriceCoeff>
1.50

> <MW>
343.40

> <Description>
solid

> <FSP3>
0.79

> <clogP>
0.60

> <TPSA>
112.24

> <Acceptor>
5

> <Donor>
1

> <RotBonds>
6

> <HAC>
23

> <Collection>
Advanced

$$$$
F6415-1241
  -ISIS-  06222321152D

 24 26  0  0  0  0  0  0  0  0999 V2000
   -5.2833    2.5708    0.0000 N   0  0  3  0  0  0  0  0  0  0  0  0
   -4.5833    2.9875    0.0000 C   0  0  0  0  0  0  0  0  0  0  0  0
   -6.0292    2.9000    0.0000 C   0  0  0  0  0  0  0  0  0  0  0  0
   -5.3708    1.7458    0.0000 C   0  0  0  0  0  0  0  0  0  0  0  0
   -4.5833    3.8000    0.0000 C   0  0  0  0  0  0  0  0  0  0  0  0
   -3.8625    4.2125    0.0000 N   0  0  3  0  0  0  0  0  0  0  0  0
   -2.4333    4.2042    0.0000 C   0  0  0  0  0  0  0  0  0  0  0  0
   -4.5833    6.2750    0.0000 C   0  0  0  0  0  0  0  0  0  0  0  0
   -5.2458    6.7542    0.0000 S   0  0  0  0  0  0  0  0  0  0  0  0
   -3.1458    3.8000    0.0000 C   0  0  0  0  0  0  0  0  0  0  0  0
   -1.1250    4.4917    0.0000 O   0  0  0  0  0  0  0  0  0  0  0  0
   -1.6750    3.8750    0.0000 C   0  0  0  0  0  0  0  0  0  0  0  0
   -5.2958    4.2125    0.0000 O   0  0  0  0  0  0  0  0  0  0  0  0
   -6.5792    2.2833    0.0000 C   0  0  0  0  0  0  0  0  0  0  0  0
   -6.1667    1.5708    0.0000 C   0  0  0  0  0  0  0  0  0  0  0  0
   -2.3458    5.0250    0.0000 C   0  0  0  0  0  0  0  0  0  0  0  0
   -6.2042    3.7083    0.0000 O   0  0  0  0  0  0  0  0  0  0  0  0
   -4.7500    1.1833    0.0000 O   0  0  0  0  0  0  0  0  0  0  0  0
   -3.8625    5.0292    0.0000 C   0  0  0  0  0  0  0  0  0  0  0  0
   -4.9958    7.5417    0.0000 C   0  0  0  0  0  0  0  0  0  0  0  0
   -4.5833    5.4417    0.0000 C   0  0  0  0  0  0  0  0  0  0  0  0
   -3.9125    6.7542    0.0000 C   0  0  0  0  0  0  0  0  0  0  0  0
   -1.5375    5.2042    0.0000 C   0  0  0  0  0  0  0  0  0  0  0  0
   -4.1625    7.5417    0.0000 C   0  0  0  0  0  0  0  0  0  0  0  0
  2  1  1  0  0  0  0
  3  1  1  0  0  0  0
  4  1  1  0  0  0  0
  5  2  1  0  0  0  0
  6  5  1  0  0  0  0
  7 10  1  0  0  0  0
  8 21  1  0  0  0  0
  9  8  1  0  0  0  0
 10  6  1  0  0  0  0
 11 12  1  0  0  0  0
 12  7  2  0  0  0  0
 13  5  2  0  0  0  0
 14  3  1  0  0  0  0
 15  4  1  0  0  0  0
 16  7  1  0  0  0  0
 17  3  2  0  0  0  0
 18  4  2  0  0  0  0
 19  6  1  0  0  0  0
 20  9  1  0  0  0  0
 21 19  1  0  0  0  0
 22  8  2  0  0  0  0
 23 16  2  0  0  0  0
 24 22  1  0  0  0  0
 14 15  1  0  0  0  0
 23 11  1  0  0  0  0
 20 24  2  0  0  0  0
M  END
> <IDNUMBER>
F6415-1241

> <Chemical_Name>
2-(2,5-dioxopyrrolidin-1-yl)-N-[(furan-3-yl)methyl]-N-[2-(thiophen-2-yl)ethyl]acetamide

> <CAS>
1428380-55-5

> <PriceCoeff>
1.00

> <MW>
346.40

> <Description>
oil

> <FSP3>
0.35

> <clogP>
1.81

> <TPSA>
99.07

> <Acceptor>
4

> <Donor>
0

> <RotBonds>
8

> <HAC>
24

> <Collection>
General

$$$$
F0346-1855
  -ISIS-  06222321452D

 13 14  0  0  0  0  0  0  0  0999 V2000
    3.2500    0.9958    0.0000 C   0  0  0  0  0  0  0  0  0  0  0  0
    1.5500   -0.0000    0.0000 C   0  0  0  0  0  0  0  0  0  0  0  0
   -1.8500   -0.0000    0.0000 C   0  0  0  0  0  0  0  0  0  0  0  0
   -0.1500    0.9958    0.0000 C   0  0  0  0  0  0  0  0  0  0  0  0
   -1.8500   -1.9667    0.0000 C   0  0  0  0  0  0  0  0  0  0  0  0
   -3.5625    0.9958    0.0000 O   0  0  0  0  0  0  0  0  0  0  0  0
   -3.5625   -2.9500    0.0000 O   0  0  0  0  0  0  0  0  0  0  0  0
    5.0167    0.1333    0.0000 O   0  0  0  0  0  0  0  0  0  0  0  0
    1.5500   -1.9667    0.0000 C   0  0  0  0  0  0  0  0  0  0  0  0
   -0.1500   -2.9500    0.0000 C   0  0  0  0  0  0  0  0  0  0  0  0
    3.3542    2.9625    0.0000 O   0  0  0  0  0  0  0  0  0  0  0  0
   -5.2708   -0.0000    0.0000 C   0  0  0  0  0  0  0  0  0  0  0  0
   -5.2708   -1.9667    0.0000 C   0  0  0  0  0  0  0  0  0  0  0  0
  2  1  1  0  0  0  0
  3  4  2  0  0  0  0
  4  2  1  0  0  0  0
  5 10  2  0  0  0  0
  6  3  1  0  0  0  0
  7  5  1  0  0  0  0
  8  1  2  0  0  0  0
  9  2  2  0  0  0  0
 10  9  1  0  0  0  0
 11  1  1  0  0  0  0
 12  6  1  0  0  0  0
 13  7  1  0  0  0  0
  3  5  1  0  0  0  0
 12 13  1  0  0  0  0
M  END
> <IDNUMBER>
F0346-1855

> <Chemical_Name>
2,3-dihydro-1,4-benzodioxine-6-carboxylic acid

> <CAS>
4442-54-0

> <PriceCoeff>
1.50

> <MW>
180.16

> <Description>
solid

> <FSP3>
0.22

> <clogP>
1.93

> <TPSA>
55.76

> <Acceptor>
4

> <Donor>
0

> <RotBonds>
1

> <HAC>
13

> <Collection>
Advanced

> <Reference_compound>
CHEMBL88700

> <Similarity>
0.8020

$$$$
F2257-0292
  -ISIS-  06222321462D

 14 15  0  0  0  0  0  0  0  0999 V2000
   -2.8583    7.4917    0.0000 N   0  0  0  0  0  0  0  0  0  0  0  0
   -2.0333    7.5792    0.0000 C   0  0  0  0  0  0  0  0  0  0  0  0
   -3.0375    6.6875    0.0000 C   0  0  0  0  0  0  0  0  0  0  0  0
   -2.3208    6.2667    0.0000 C   0  0  0  0  0  0  0  0  0  0  0  0
   -1.7083    6.8167    0.0000 C   0  0  0  0  0  0  0  0  0  0  0  0
   -3.7500    3.8000    0.0000 C   0  0  0  0  0  0  0  0  0  0  0  0
   -3.0375    4.2125    0.0000 N   0  0  0  0  0  0  0  0  0  0  0  0
   -2.3250    5.4417    0.0000 C   0  0  0  0  0  0  0  0  0  0  0  0
   -3.0375    5.0292    0.0000 C   0  0  0  0  0  0  0  0  0  0  0  0
   -1.6208    8.2917    0.0000 O   0  0  0  0  0  0  0  0  0  0  0  0
   -4.4708    4.2167    0.0000 O   0  0  0  0  0  0  0  0  0  0  0  0
   -3.7583    6.2792    0.0000 C   0  0  0  0  0  0  0  0  0  0  0  0
   -3.7583    5.4500    0.0000 C   0  0  0  0  0  0  0  0  0  0  0  0
   -3.7500    2.9833    0.0000 C   0  0  0  0  0  0  0  0  0  0  0  0
  2  1  1  0  0  0  0
  3  1  1  0  0  0  0
  4  3  2  0  0  0  0
  5  2  1  0  0  0  0
  6  7  1  0  0  0  0
  7  9  1  0  0  0  0
  8  4  1  0  0  0  0
  9 13  1  0  0  0  0
 10  2  2  0  0  0  0
 11  6  2  0  0  0  0
 12  3  1  0  0  0  0
 13 12  2  0  0  0  0
 14  6  1  0  0  0  0
  4  5  1  0  0  0  0
  9  8  2  0  0  0  0
M  END
> <IDNUMBER>
F2257-0292

> <Chemical_Name>
N-(2-oxo-2,3-dihydro-1H-indol-5-yl)acetamide

> <CAS>
114741-27-4

> <PriceCoeff>
1.50

> <MW>
190.20

> <Description>
solid

> <FSP3>
0.20

> <clogP>
-0.27

> <TPSA>
58.20

> <Acceptor>
2

> <Donor>
2

> <RotBonds>
1

> <HAC>
14

> <Collection>
Advanced

> <Reference_compound>
CHEMBL40823

> <Similarity>
0.9110

$$$$
F3191-0224
  -ISIS-  06222321462D

 14 14  0  0  0  0  0  0  0  0999 V2000
    7.4542   -2.9667    0.0000 C   0  0  0  0  0  0  0  0  0  0  0  0
    6.7292   -3.3875    0.0000 C   0  0  0  0  0  0  0  0  0  0  0  0
    7.4500   -2.1417    0.0000 O   0  0  0  0  0  0  0  0  0  0  0  0
    6.7292   -4.2167    0.0000 C   0  0  0  0  0  0  0  0  0  0  0  0
    6.0167   -2.9750    0.0000 C   0  0  0  0  0  0  0  0  0  0  0  0
    8.1750   -3.3792    0.0000 O   0  0  0  0  0  0  0  0  0  0  0  0
    5.3042   -4.2167    0.0000 C   0  0  0  0  0  0  0  0  0  0  0  0
    5.3042   -3.3875    0.0000 C   0  0  0  0  0  0  0  0  0  0  0  0
    6.0167   -4.6292    0.0000 C   0  0  0  0  0  0  0  0  0  0  0  0
    4.5792   -4.6417    0.0000 O   0  0  0  0  0  0  0  0  0  0  0  0
    2.4292   -4.2417    0.0000 O   0  0  0  0  0  0  0  0  0  0  0  0
    3.8542   -4.2292    0.0000 C   0  0  0  0  0  0  0  0  0  0  0  0
    3.1417   -4.6542    0.0000 C   0  0  0  0  0  0  0  0  0  0  0  0
    1.7167   -4.6667    0.0000 C   0  0  0  0  0  0  0  0  0  0  0  0
  2  1  1  0  0  0  0
  3  1  2  0  0  0  0
  4  2  1  0  0  0  0
  5  2  2  0  0  0  0
  6  1  1  0  0  0  0
  7  8  2  0  0  0  0
  8  5  1  0  0  0  0
  9  4  2  0  0  0  0
 10  7  1  0  0  0  0
 11 13  1  0  0  0  0
 12 10  1  0  0  0  0
 13 12  1  0  0  0  0
 14 11  1  0  0  0  0
  9  7  1  0  0  0  0
M  END
> <IDNUMBER>
F3191-0224

> <Chemical_Name>
4-(2-methoxyethoxy)benzoic acid

> <CAS>
27890-92-2

> <PriceCoeff>
1.00

> <MW>
196.20

> <Description>
solid

> <FSP3>
0.30

> <clogP>
1.91

> <TPSA>
55.76

> <Acceptor>
4

> <Donor>
0

> <RotBonds>
5

> <HAC>
14

> <Collection>
General

> <Reference_compound>
CHEMBL21932

> <Similarity>
0.8180

$$$$
F6266-0370
  -ISIS-  06222321462D

 19 21  0  0  0  0  0  0  0  0999 V2000
   -4.5833    3.8000    0.0000 C   0  0  0  0  0  0  0  0  0  0  0  0
   -3.8625    4.2125    0.0000 N   0  0  3  0  0  0  0  0  0  0  0  0
   -4.5833    2.9792    0.0000 N   0  0  0  0  0  0  0  0  0  0  0  0
   -6.0042    1.3375    0.0000 C   0  0  0  0  0  0  0  0  0  0  0  0
   -5.3083    1.7458    0.0000 C   0  0  0  0  0  0  0  0  0  0  0  0
   -5.3000    4.2125    0.0000 O   0  0  0  0  0  0  0  0  0  0  0  0
   -5.3000    2.5792    0.0000 C   0  0  0  0  0  0  0  0  0  0  0  0
   -3.0375    4.3792    0.0000 C   0  0  3  0  0  0  0  0  0  0  0  0
   -3.2750    4.8667    0.0000 C   0  0  3  0  0  0  0  0  0  0  0  0
   -6.7167    1.7458    0.0000 C   0  0  0  0  0  0  0  0  0  0  0  0
   -2.1375    5.7292    0.0000 O   0  0  0  0  0  0  0  0  0  0  0  0
   -2.5833    4.3917    0.0000 C   0  0  0  0  0  0  0  0  0  0  0  0
   -2.4875    3.7500    0.0000 C   0  0  0  0  0  0  0  0  0  0  0  0
   -6.7208    2.5708    0.0000 C   0  0  0  0  0  0  0  0  0  0  0  0
   -6.0042    0.5083    0.0000 Cl  0  0  0  0  0  0  0  0  0  0  0  0
   -6.0042    2.9833    0.0000 C   0  0  0  0  0  0  0  0  0  0  0  0
   -7.4417    1.3250    0.0000 Cl  0  0  0  0  0  0  0  0  0  0  0  0
   -2.7708    5.1792    0.0000 C   0  0  0  0  0  0  0  0  0  0  0  0
   -3.0083    5.6583    0.0000 C   0  0  0  0  0  0  0  0  0  0  0  0
  2  1  1  0  0  0  0
  3  1  1  0  0  0  0
  4  5  1  0  0  0  0
  5  7  2  0  0  0  0
  6  1  2  0  0  0  0
  7  3  1  0  0  0  0
  8  2  1  0  0  0  0
  9  2  1  0  0  0  0
 10 14  1  0  0  0  0
 11 19  1  0  0  0  0
 12  9  1  0  0  0  0
 13  8  1  0  0  0  0
 14 16  2  0  0  0  0
 15  4  1  0  0  0  0
 16  7  1  0  0  0  0
 17 10  1  0  0  0  0
 18  8  1  0  0  0  0
 19  9  1  0  0  0  0
 18 11  1  0  0  0  0
 13 12  1  0  0  0  0
  4 10  2  0  0  0  0
M  END
> <IDNUMBER>
F6266-0370

> <Chemical_Name>
N-(3,4-dichlorophenyl)-3-oxa-8-azabicyclo[3.2.1]octane-8-carboxamide

> <CAS>
1421471-77-3

> <PriceCoeff>
1.50

> <MW>
301.17

> <Description>
solid

> <FSP3>
0.46

> <clogP>
2.84

> <TPSA>
41.57

> <Acceptor>
2

> <Donor>
1

> <RotBonds>
2

> <HAC>
19

> <Collection>
Advanced

$$$$
F6441-3577
  -ISIS-  06222321462D

 24 25  0  0  0  0  0  0  0  0999 V2000
   -1.0208    5.4417    0.0000 S   0  0  3  0  0  0  0  0  0  0  0  0
   -3.8708    3.8000    0.0000 C   0  0  0  0  0  0  0  0  0  0  0  0
   -3.1583    4.2042    0.0000 N   0  0  3  0  0  0  0  0  0  0  0  0
   -4.5792    4.2042    0.0000 N   0  0  0  0  0  0  0  0  0  0  0  0
   -1.7333    5.0167    0.0000 C   0  0  3  0  0  0  0  0  0  0  0  0
   -6.7000    3.8125    0.0000 C   0  0  0  0  0  0  0  0  0  0  0  0
   -6.0000    4.2125    0.0000 C   0  0  0  0  0  0  0  0  0  0  0  0
   -0.2958    5.8583    0.0000 C   0  0  0  0  0  0  0  0  0  0  0  0
   -1.4375    6.1583    0.0000 O   0  0  0  0  0  0  0  0  0  0  0  0
   -0.5958    4.7208    0.0000 O   0  0  0  0  0  0  0  0  0  0  0  0
   -5.2833    3.8083    0.0000 C   0  0  0  0  0  0  0  0  0  0  0  0
   -2.4375    5.4375    0.0000 C   0  0  0  0  0  0  0  0  0  0  0  0
   -1.7333    4.2042    0.0000 C   0  0  0  0  0  0  0  0  0  0  0  0
   -2.4458    3.8000    0.0000 C   0  0  0  0  0  0  0  0  0  0  0  0
   -3.1583    5.0250    0.0000 C   0  0  0  0  0  0  0  0  0  0  0  0
   -3.8708    2.9833    0.0000 O   0  0  0  0  0  0  0  0  0  0  0  0
   -6.7042    2.9875    0.0000 C   0  0  0  0  0  0  0  0  0  0  0  0
   -6.0042    2.5708    0.0000 C   0  0  0  0  0  0  0  0  0  0  0  0
   -7.4042    4.2167    0.0000 Cl  0  0  0  0  0  0  0  0  0  0  0  0
   -5.2833    2.9833    0.0000 C   0  0  0  0  0  0  0  0  0  0  0  0
   -7.4208    2.5833    0.0000 Cl  0  0  0  0  0  0  0  0  0  0  0  0
   -0.3083    6.6917    0.0000 C   0  0  3  0  0  0  0  0  0  0  0  0
   -1.0125    7.0917    0.0000 C   0  0  0  0  0  0  0  0  0  0  0  0
    0.4000    7.1042    0.0000 C   0  0  0  0  0  0  0  0  0  0  0  0
  2  3  1  0  0  0  0
  3 14  1  0  0  0  0
  4  2  1  0  0  0  0
  5  1  1  0  0  0  0
  6  7  1  0  0  0  0
  7 11  2  0  0  0  0
  8  1  1  0  0  0  0
  9  1  2  0  0  0  0
 10  1  2  0  0  0  0
 11  4  1  0  0  0  0
 12  5  1  0  0  0  0
 13  5  1  0  0  0  0
 14 13  1  0  0  0  0
 15 12  1  0  0  0  0
 16  2  2  0  0  0  0
 17 18  1  0  0  0  0
 18 20  2  0  0  0  0
 19  6  1  0  0  0  0
 20 11  1  0  0  0  0
 21 17  1  0  0  0  0
 22  8  1  0  0  0  0
 23 22  1  0  0  0  0
 24 22  1  0  0  0  0
  3 15  1  0  0  0  0
  6 17  2  0  0  0  0
M  END
> <IDNUMBER>
F6441-3577

> <Chemical_Name>
N-(3,4-dichlorophenyl)-4-(2-methylpropanesulfonyl)piperidine-1-carboxamide

> <CAS>
1797980-96-1

> <PriceCoeff>
1.50

> <MW>
393.33

> <Description>
solid

> <FSP3>
0.56

> <clogP>
2.20

> <TPSA>
74.86

> <Acceptor>
3

> <Donor>
1

> <RotBonds>
5

> <HAC>
24

> <Collection>
Advanced

$$$$
F5831-7582
  -ISIS-  06222321152D

 20 21  0  0  0  0  0  0  0  0999 V2000
   -4.5833    3.8000    0.0000 S   0  0  3  0  0  0  0  0  0  0  0  0
   -6.7167    3.3583    0.0000 N   0  0  3  0  0  0  0  0  0  0  0  0
   -7.4417    3.7583    0.0000 C   0  0  0  0  0  0  0  0  0  0  0  0
   -6.7042    2.5208    0.0000 C   0  0  0  0  0  0  0  0  0  0  0  0
   -5.2875    3.3833    0.0000 C   0  0  0  0  0  0  0  0  0  0  0  0
   -6.0042    3.7833    0.0000 C   0  0  0  0  0  0  0  0  0  0  0  0
   -3.1458    5.4500    0.0000 C   0  0  0  0  0  0  0  0  0  0  0  0
   -3.8625    4.2125    0.0000 N   0  0  0  0  0  0  0  0  0  0  0  0
   -2.2500    6.4292    0.0000 S   0  0  0  0  0  0  0  0  0  0  0  0
   -4.1583    3.1083    0.0000 O   0  0  0  0  0  0  0  0  0  0  0  0
   -5.0083    4.5042    0.0000 O   0  0  0  0  0  0  0  0  0  0  0  0
   -3.0583    6.2750    0.0000 C   0  0  0  0  0  0  0  0  0  0  0  0
   -2.3958    5.1042    0.0000 C   0  0  0  0  0  0  0  0  0  0  0  0
   -5.9833    2.1208    0.0000 O   0  0  0  0  0  0  0  0  0  0  0  0
   -7.4667    4.5792    0.0000 O   0  0  0  0  0  0  0  0  0  0  0  0
   -1.8458    5.7292    0.0000 C   0  0  0  0  0  0  0  0  0  0  0  0
   -3.8625    5.0292    0.0000 C   0  0  0  0  0  0  0  0  0  0  0  0
   -7.4042    2.0958    0.0000 C   0  0  0  0  0  0  0  0  0  0  0  0
   -8.1542    3.3208    0.0000 C   0  0  0  0  0  0  0  0  0  0  0  0
   -8.1292    2.4875    0.0000 C   0  0  0  0  0  0  0  0  0  0  0  0
  2  6  1  0  0  0  0
  3  2  1  0  0  0  0
  4  2  1  0  0  0  0
  5  1  1  0  0  0  0
  6  5  1  0  0  0  0
  7 17  1  0  0  0  0
  8  1  1  0  0  0  0
  9 12  1  0  0  0  0
 10  1  2  0  0  0  0
 11  1  2  0  0  0  0
 12  7  2  0  0  0  0
 13  7  1  0  0  0  0
 14  4  2  0  0  0  0
 15  3  2  0  0  0  0
 16 13  2  0  0  0  0
 17  8  1  0  0  0  0
 18  4  1  0  0  0  0
 19  3  1  0  0  0  0
 20 18  1  0  0  0  0
  9 16  1  0  0  0  0
 19 20  1  0  0  0  0
M  END
> <IDNUMBER>
F5831-7582

> <Chemical_Name>
2-(2,6-dioxopiperidin-1-yl)-N-[(thiophen-3-yl)methyl]ethane-1-sulfonamide

> <CAS>
1207001-25-9

> <PriceCoeff>
1.00

> <MW>
316.40

> <Description>
solid

> <FSP3>
0.50

> <clogP>
0.83

> <TPSA>
120.17

> <Acceptor>
4

> <Donor>
1

> <RotBonds>
6

> <HAC>
20

> <Collection>
General

$$$$
F1371-0197
  -ISIS-  06222321452D

 18 20  0  0  0  0  0  0  0  0999 V2000
    3.6542   -2.7917    0.0000 C   0  0  0  0  0  0  0  0  0  0  0  0
    3.1667   -2.1167    0.0000 C   0  0  0  0  0  0  0  0  0  0  0  0
    3.1792   -3.4542    0.0000 N   0  0  0  0  0  0  0  0  0  0  0  0
    4.4875   -2.7000    0.0000 C   0  0  3  0  0  0  0  0  0  0  0  0
    4.8250   -1.9375    0.0000 N   0  0  0  0  0  0  0  0  0  0  0  0
    2.3917   -2.3750    0.0000 C   0  0  0  0  0  0  0  0  0  0  0  0
    3.5000   -1.3542    0.0000 C   0  0  0  0  0  0  0  0  0  0  0  0
    4.3292   -1.2667    0.0000 C   0  0  3  0  0  0  0  0  0  0  0  0
    2.3917   -3.2000    0.0000 C   0  0  0  0  0  0  0  0  0  0  0  0
    4.6625   -0.5125    0.0000 C   0  0  0  0  0  0  0  0  0  0  0  0
    5.4792   -0.4167    0.0000 O   0  0  0  0  0  0  0  0  0  0  0  0
    4.1750    0.1583    0.0000 O   0  0  0  0  0  0  0  0  0  0  0  0
    4.9750   -3.3667    0.0000 C   0  0  0  0  0  0  0  0  0  0  0  0
    5.2542   -2.4042    0.0000 C   0  0  0  0  0  0  0  0  0  0  0  0
    1.6792   -1.9667    0.0000 C   0  0  0  0  0  0  0  0  0  0  0  0
    1.6875   -3.6125    0.0000 C   0  0  0  0  0  0  0  0  0  0  0  0
    0.9667   -2.3792    0.0000 C   0  0  0  0  0  0  0  0  0  0  0  0
    0.9667   -3.2000    0.0000 C   0  0  0  0  0  0  0  0  0  0  0  0
  2  1  2  0  0  0  0
  3  1  1  0  0  0  0
  4  1  1  0  0  0  0
  5  4  1  0  0  0  0
  6  2  1  0  0  0  0
  7  2  1  0  0  0  0
  8  5  1  0  0  0  0
  9  3  1  0  0  0  0
 10  8  1  0  0  0  0
 11 10  2  0  0  0  0
 12 10  1  0  0  0  0
 13  4  1  0  0  0  0
 14  4  1  0  0  0  0
 15  6  1  0  0  0  0
 16  9  1  0  0  0  0
 17 15  2  0  0  0  0
 18 16  2  0  0  0  0
  6  9  2  0  0  0  0
  8  7  1  0  0  0  0
 17 18  1  0  0  0  0
M  END
> <IDNUMBER>
F1371-0197

> <Chemical_Name>
1,1-dimethyl-1H,2H,3H,4H,9H-pyrido[3,4-b]indole-3-carboxylic acid

> <CAS>
73198-03-5

> <PriceCoeff>
1.50

> <MW>
244.29

> <Description>
solid

> <FSP3>
0.36

> <clogP>
-0.17

> <TPSA>
65.12

> <Acceptor>
2

> <Donor>
2

> <RotBonds>
1

> <HAC>
18

> <Collection>
Advanced

> <Reference_compound>
CHEMBL149177

> <Similarity>
0.8860

$$$$
F6440-2510
  -ISIS-  06222321462D

 25 27  0  0  0  0  0  0  0  0999 V2000
   -3.0750    6.2750    0.0000 N   0  0  0  0  0  0  0  0  0  0  0  0
   -2.2708    6.4500    0.0000 N   0  0  3  0  0  0  0  0  0  0  0  0
   -2.4083    5.1167    0.0000 C   0  0  0  0  0  0  0  0  0  0  0  0
   -3.1583    5.4500    0.0000 C   0  0  0  0  0  0  0  0  0  0  0  0
   -1.8500    5.7292    0.0000 C   0  0  0  0  0  0  0  0  0  0  0  0
   -3.8750    0.1000    0.0000 C   0  0  3  0  0  0  0  0  0  0  0  0
   -4.5833    3.8000    0.0000 C   0  0  0  0  0  0  0  0  0  0  0  0
   -3.8625    4.2042    0.0000 N   0  0  0  0  0  0  0  0  0  0  0  0
   -3.8625    5.0417    0.0000 C   0  0  0  0  0  0  0  0  0  0  0  0
   -4.5833    2.9833    0.0000 C   0  0  0  0  0  0  0  0  0  0  0  0
   -4.5833    0.5083    0.0000 O   0  0  0  0  0  0  0  0  0  0  0  0
   -5.2958    4.2042    0.0000 O   0  0  0  0  0  0  0  0  0  0  0  0
   -5.2875    2.5708    0.0000 C   0  0  0  0  0  0  0  0  0  0  0  0
   -3.8708    2.5583    0.0000 C   0  0  0  0  0  0  0  0  0  0  0  0
   -3.1500   -0.3292    0.0000 F   0  0  0  0  0  0  0  0  0  0  0  0
   -4.2875   -0.6250    0.0000 F   0  0  0  0  0  0  0  0  0  0  0  0
   -3.4583    0.8083    0.0000 F   0  0  0  0  0  0  0  0  0  0  0  0
   -4.5833    1.3333    0.0000 C   0  0  0  0  0  0  0  0  0  0  0  0
   -2.1500    4.3292    0.0000 C   0  0  0  0  0  0  0  0  0  0  0  0
   -1.9375    7.2042    0.0000 C   0  0  0  0  0  0  0  0  0  0  0  0
   -1.0375    5.5750    0.0000 C   0  0  0  0  0  0  0  0  0  0  0  0
   -5.2958    1.7375    0.0000 C   0  0  0  0  0  0  0  0  0  0  0  0
   -3.8750    1.7458    0.0000 C   0  0  0  0  0  0  0  0  0  0  0  0
   -1.3375    4.1667    0.0000 C   0  0  0  0  0  0  0  0  0  0  0  0
   -0.7833    4.7792    0.0000 C   0  0  0  0  0  0  0  0  0  0  0  0
  2  1  1  0  0  0  0
  3  4  1  0  0  0  0
  4  1  2  0  0  0  0
  5  2  1  0  0  0  0
  6 11  1  0  0  0  0
  7  8  1  0  0  0  0
  8  9  1  0  0  0  0
  9  4  1  0  0  0  0
 10  7  1  0  0  0  0
 11 18  1  0  0  0  0
 12  7  2  0  0  0  0
 13 10  1  0  0  0  0
 14 10  2  0  0  0  0
 15  6  1  0  0  0  0
 16  6  1  0  0  0  0
 17  6  1  0  0  0  0
 18 23  2  0  0  0  0
 19  3  1  0  0  0  0
 20  2  1  0  0  0  0
 21  5  1  0  0  0  0
 22 13  2  0  0  0  0
 23 14  1  0  0  0  0
 24 19  1  0  0  0  0
 25 21  1  0  0  0  0
  5  3  2  0  0  0  0
 24 25  1  0  0  0  0
 22 18  1  0  0  0  0
M  END
> <IDNUMBER>
F6440-2510

> <Chemical_Name>
N-[(1-methyl-4,5,6,7-tetrahydro-1H-indazol-3-yl)methyl]-4-(trifluoromethoxy)benzamide

> <CAS>
1448076-96-7

> <PriceCoeff>
1.50

> <MW>
353.34

> <Description>
solid

> <FSP3>
0.41

> <clogP>
3.37

> <TPSA>
56.15

> <Acceptor>
3

> <Donor>
1

> <RotBonds>
4

> <HAC>
25

> <Collection>
Advanced

> <Reference_compound>
CHEMBL2269988

> <Similarity>
0.8120

$$$$
F0887-0187
  -ISIS-  06222304352D

 30 32  0  0  0  0  0  0  0  0999 V2000
   -0.6208   -1.4792    0.0000 C   0  0  0  0  0  0  0  0  0  0  0  0
   -0.6208   -0.7125    0.0000 C   0  0  0  0  0  0  0  0  0  0  0  0
    0.0417   -1.8792    0.0000 N   0  0  0  0  0  0  0  0  0  0  0  0
    0.7167   -1.5042    0.0000 C   0  0  0  0  0  0  0  0  0  0  0  0
    0.7292   -0.7125    0.0000 N   0  0  3  0  0  0  0  0  0  0  0  0
   -1.3125   -1.8667    0.0000 N   0  0  3  0  0  0  0  0  0  0  0  0
   -1.9833   -1.4917    0.0000 C   0  0  0  0  0  0  0  0  0  0  0  0
   -1.9833   -0.7125    0.0000 N   0  0  0  0  0  0  0  0  0  0  0  0
   -1.3125   -0.3250    0.0000 C   0  0  0  0  0  0  0  0  0  0  0  0
    1.3792   -1.8917    0.0000 N   0  0  3  0  0  0  0  0  0  0  0  0
   -2.6708   -1.8792    0.0000 O   0  0  0  0  0  0  0  0  0  0  0  0
   -1.3125    0.4583    0.0000 O   0  0  0  0  0  0  0  0  0  0  0  0
    2.7167   -2.6625    0.0000 N   0  0  0  0  0  0  0  0  0  0  0  0
    1.4292   -0.0292    0.0000 C   0  0  0  0  0  0  0  0  0  0  0  0
   -1.3125   -2.6375    0.0000 C   0  0  0  0  0  0  0  0  0  0  0  0
    1.3792   -2.6625    0.0000 C   0  0  0  0  0  0  0  0  0  0  0  0
    2.0542   -1.4917    0.0000 C   0  0  0  0  0  0  0  0  0  0  0  0
    2.8542    0.5583    0.0000 O   0  0  0  0  0  0  0  0  0  0  0  0
    2.0417   -3.0417    0.0000 C   0  0  0  0  0  0  0  0  0  0  0  0
    2.7167   -1.8917    0.0000 C   0  0  0  0  0  0  0  0  0  0  0  0
    2.3750   -0.2917    0.0000 C   0  0  0  0  0  0  0  0  0  0  0  0
    6.4083   -0.6709    0.0000 C   0  0  0  0  0  0  0  0  0  0  0  0
    5.7000   -1.0959    0.0000 C   0  0  0  0  0  0  0  0  0  0  0  0
    6.3875    0.1541    0.0000 O   0  0  0  0  0  0  0  0  0  0  0  0
    4.9875   -2.3334    0.0000 N   0  0  0  0  0  0  0  0  0  0  0  0
    7.1250   -1.0584    0.0000 O   0  0  0  0  0  0  0  0  0  0  0  0
    5.7000   -1.9209    0.0000 C   0  0  0  0  0  0  0  0  0  0  0  0
    4.9875   -0.6834    0.0000 C   0  0  0  0  0  0  0  0  0  0  0  0
    4.2750   -1.9209    0.0000 C   0  0  0  0  0  0  0  0  0  0  0  0
    4.2750   -1.0959    0.0000 C   0  0  0  0  0  0  0  0  0  0  0  0
 11  7  2  0  0  0  0
 12  9  2  0  0  0  0
 13 20  1  0  0  0  0
 14  5  1  0  0  0  0
 15  6  1  0  0  0  0
 16 10  1  0  0  0  0
 17 10  1  0  0  0  0
 18 21  1  0  0  0  0
 19 16  1  0  0  0  0
 20 17  1  0  0  0  0
 21 14  1  0  0  0  0
  9  8  1  0  0  0  0
  4  5  1  0  0  0  0
 13 19  1  0  0  0  0
  2  1  2  0  0  0  0
  3  1  1  0  0  0  0
  4  3  2  0  0  0  0
  5  2  1  0  0  0  0
  6  1  1  0  0  0  0
  7  6  1  0  0  0  0
  8  7  1  0  0  0  0
  9  2  1  0  0  0  0
 10  4  1  0  0  0  0
 23 22  1  0  0  0  0
 24 22  2  0  0  0  0
 25 27  2  0  0  0  0
 26 22  1  0  0  0  0
 27 23  1  0  0  0  0
 28 23  2  0  0  0  0
 29 30  2  0  0  0  0
 30 28  1  0  0  0  0
 25 29  1  0  0  0  0
M  END
> <IDNUMBER>
F0887-0187

> <Chemical_Name>
7-(2-hydroxyethyl)-3-methyl-8-(piperazin-1-yl)-2,3,6,7-tetrahydro-1H-purine-2,6-dione; pyridine-3-carboxylic acid

> <CAS>
459783-97-2

> <PriceCoeff>
1.50

> <MW>
294.31

> <Description>
solid

> <FSP3>
0.58

> <clogP>
-1.52

> <TPSA>
102.73

> <Acceptor>
5

> <Donor>
5

> <RotBonds>
3

> <HAC>
21

> <Collection>
Advanced

> <Reference_compound>
CHEMBL573

> <Similarity>
1.0000

$$$$
F1243-0099
  -ISIS-  06222321452D

 14 14  0  0  0  0  0  0  0  0999 V2000
    2.9042   -8.8042    0.0000 N   0  0  3  0  0  0  0  0  0  0  0  0
    3.1875   -9.5667    0.0000 S   0  0  3  0  0  0  0  0  0  0  0  0
    3.3667   -8.1167    0.0000 C   0  0  0  0  0  0  0  0  0  0  0  0
    2.1042   -8.5667    0.0000 N   0  0  0  0  0  0  0  0  0  0  0  0
    2.8625   -7.4667    0.0000 C   0  0  0  0  0  0  0  0  0  0  0  0
    2.0917   -7.7417    0.0000 C   0  0  0  0  0  0  0  0  0  0  0  0
    3.4000  -10.3667    0.0000 N   0  0  3  0  0  0  0  0  0  0  0  0
    4.0125   -9.5667    0.0000 O   0  0  0  0  0  0  0  0  0  0  0  0
    2.4667   -9.9792    0.0000 O   0  0  0  0  0  0  0  0  0  0  0  0
    3.0667   -6.6750    0.0000 Br  0  0  0  0  0  0  0  0  0  0  0  0
    4.1875   -8.1167    0.0000 C   0  0  0  0  0  0  0  0  0  0  0  0
    1.3667   -7.3167    0.0000 C   0  0  0  0  0  0  0  0  0  0  0  0
    2.8125  -10.9417    0.0000 C   0  0  0  0  0  0  0  0  0  0  0  0
    4.1917  -10.5792    0.0000 C   0  0  0  0  0  0  0  0  0  0  0  0
  2  1  1  0  0  0  0
  3  1  1  0  0  0  0
  4  1  1  0  0  0  0
  5  3  2  0  0  0  0
  6  4  2  0  0  0  0
  7  2  1  0  0  0  0
  8  2  2  0  0  0  0
  9  2  2  0  0  0  0
 10  5  1  0  0  0  0
 11  3  1  0  0  0  0
 12  6  1  0  0  0  0
 13  7  1  0  0  0  0
 14  7  1  0  0  0  0
  6  5  1  0  0  0  0
M  END
> <IDNUMBER>
F1243-0099

> <Chemical_Name>
4-bromo-N,N,3,5-tetramethyl-1H-pyrazole-1-sulfonamide

> <CAS>
700350-63-6

> <PriceCoeff>
1.50

> <MW>
282.16

> <Description>
solid

> <FSP3>
0.57

> <clogP>
0.93

> <TPSA>
63.58

> <Acceptor>
3

> <Donor>
0

> <RotBonds>
2

> <HAC>
14

> <Collection>
Advanced

$$$$
F6541-2777
  -ISIS-  06222321472D

 16 18  0  0  0  0  0  0  0  0999 V2000
    3.0417   -0.7042    0.0000 C   0  0  0  0  0  0  0  0  0  0  0  0
    3.5417   -2.2500    0.0000 N   0  0  0  0  0  0  0  0  0  0  0  0
    3.8542   -1.3000    0.0000 C   0  0  0  0  0  0  0  0  0  0  0  0
    3.9125    0.8000    0.0000 C   0  0  0  0  0  0  0  0  0  0  0  0
    2.2375   -1.2917    0.0000 C   0  0  0  0  0  0  0  0  0  0  0  0
    3.0417    0.2958    0.0000 C   0  0  0  0  0  0  0  0  0  0  0  0
    3.0500    2.3000    0.0000 C   0  0  3  0  0  0  0  0  0  0  0  0
    3.9125    1.8000    0.0000 N   0  0  0  0  0  0  0  0  0  0  0  0
    2.5292   -2.2417    0.0000 C   0  0  0  0  0  0  0  0  0  0  0  0
    2.5500    3.1708    0.0000 C   0  0  0  0  0  0  0  0  0  0  0  0
    2.0500    2.3000    0.0000 C   0  0  0  0  0  0  0  0  0  0  0  0
    4.7750    0.3000    0.0000 O   0  0  0  0  0  0  0  0  0  0  0  0
    1.2542   -1.0667    0.0000 C   0  0  0  0  0  0  0  0  0  0  0  0
    1.8542   -2.9792    0.0000 C   0  0  0  0  0  0  0  0  0  0  0  0
    0.5792   -1.8042    0.0000 C   0  0  0  0  0  0  0  0  0  0  0  0
    0.8875   -2.7667    0.0000 C   0  0  0  0  0  0  0  0  0  0  0  0
  2  3  1  0  0  0  0
  3  1  2  0  0  0  0
  4  6  1  0  0  0  0
  5  1  1  0  0  0  0
  6  1  1  0  0  0  0
  7  8  1  0  0  0  0
  8  4  1  0  0  0  0
  9  5  2  0  0  0  0
 10  7  1  0  0  0  0
 11  7  1  0  0  0  0
 12  4  2  0  0  0  0
 13  5  1  0  0  0  0
 14  9  1  0  0  0  0
 15 13  2  0  0  0  0
 16 15  1  0  0  0  0
  2  9  1  0  0  0  0
 16 14  2  0  0  0  0
 10 11  1  0  0  0  0
M  END
> <IDNUMBER>
F6541-2777

> <Chemical_Name>
N-cyclopropyl-2-(1H-indol-3-yl)acetamide

> <CAS>
1090398-82-5

> <PriceCoeff>
1.50

> <MW>
214.26

> <Description>
solid

> <FSP3>
0.31

> <clogP>
1.26

> <TPSA>
44.89

> <Acceptor>
1

> <Donor>
2

> <RotBonds>
3

> <HAC>
16

> <Collection>
Advanced

> <Reference_compound>
CHEMBL33171

> <Similarity>
0.8610

$$$$
F5940-0534
  -ISIS-  06222321462D

 25 27  0  0  0  0  0  0  0  0999 V2000
    3.8292   -5.5375    0.0000 N   0  0  3  0  0  0  0  0  0  0  0  0
    5.2667   -5.5417    0.0000 C   0  0  0  0  0  0  0  0  0  0  0  0
    4.5417   -5.9542    0.0000 C   0  0  0  0  0  0  0  0  0  0  0  0
    3.7500   -4.7125    0.0000 C   0  0  0  0  0  0  0  0  0  0  0  0
    3.0667   -5.8625    0.0000 C   0  0  0  0  0  0  0  0  0  0  0  0
    5.9792   -5.9542    0.0000 N   0  0  3  0  0  0  0  0  0  0  0  0
    5.2667   -4.7125    0.0000 O   0  0  0  0  0  0  0  0  0  0  0  0
    2.9417   -4.5292    0.0000 C   0  0  0  0  0  0  0  0  0  0  0  0
    2.5250   -5.2375    0.0000 C   0  0  0  0  0  0  0  0  0  0  0  0
    4.3667   -4.1542    0.0000 O   0  0  0  0  0  0  0  0  0  0  0  0
    2.8917   -6.6792    0.0000 O   0  0  0  0  0  0  0  0  0  0  0  0
    6.7042   -5.5417    0.0000 C   0  0  0  0  0  0  0  0  0  0  0  0
    5.9792   -6.7917    0.0000 C   0  0  0  0  0  0  0  0  0  0  0  0
    8.1292   -8.0417    0.0000 O   0  0  0  0  0  0  0  0  0  0  0  0
    7.4292   -5.9542    0.0000 C   0  0  0  0  0  0  0  0  0  0  0  0
    6.6917   -7.2042    0.0000 C   0  0  0  0  0  0  0  0  0  0  0  0
    7.4167   -6.7917    0.0000 C   0  0  3  0  0  0  0  0  0  0  0  0
    8.8417   -9.2917    0.0000 C   0  0  0  0  0  0  0  0  0  0  0  0
    8.8500   -8.4542    0.0000 C   0  0  0  0  0  0  0  0  0  0  0  0
    8.1375   -7.2042    0.0000 C   0  0  0  0  0  0  0  0  0  0  0  0
    8.1250   -9.7000    0.0000 C   0  0  0  0  0  0  0  0  0  0  0  0
    9.5625   -9.7042    0.0000 C   0  0  0  0  0  0  0  0  0  0  0  0
    9.5625  -10.5292    0.0000 C   0  0  0  0  0  0  0  0  0  0  0  0
    8.1167  -10.5292    0.0000 C   0  0  0  0  0  0  0  0  0  0  0  0
    8.8375  -10.9500    0.0000 C   0  0  0  0  0  0  0  0  0  0  0  0
  2  3  1  0  0  0  0
  3  1  1  0  0  0  0
  4  1  1  0  0  0  0
  5  1  1  0  0  0  0
  6  2  1  0  0  0  0
  7  2  2  0  0  0  0
  8  4  1  0  0  0  0
  9  5  1  0  0  0  0
 10  4  2  0  0  0  0
 11  5  2  0  0  0  0
 12  6  1  0  0  0  0
 13  6  1  0  0  0  0
 14 20  1  0  0  0  0
 15 12  1  0  0  0  0
 16 13  1  0  0  0  0
 17 16  1  0  0  0  0
 18 19  1  0  0  0  0
 19 14  1  0  0  0  0
 20 17  1  0  0  0  0
 21 18  2  0  0  0  0
 22 18  1  0  0  0  0
 23 22  2  0  0  0  0
 24 21  1  0  0  0  0
 25 23  1  0  0  0  0
  9  8  1  0  0  0  0
 15 17  1  0  0  0  0
 25 24  2  0  0  0  0
M  END
> <IDNUMBER>
F5940-0534

> <Chemical_Name>
1-(2-{4-[(benzyloxy)methyl]piperidin-1-yl}-2-oxoethyl)pyrrolidine-2,5-dione

> <CAS>
1226429-28-2

> <PriceCoeff>
1.50

> <MW>
344.40

> <Description>
oil

> <FSP3>
0.53

> <clogP>
1.20

> <TPSA>
66.92

> <Acceptor>
4

> <Donor>
0

> <RotBonds>
7

> <HAC>
25

> <Collection>
Advanced

$$$$
F6276-0549
  -ISIS-  06222321152D

 24 27  0  0  0  0  0  0  0  0999 V2000
    3.8292   -5.5375    0.0000 N   0  0  3  0  0  0  0  0  0  0  0  0
    7.7125   -7.7792    0.0000 C   0  0  0  0  0  0  0  0  0  0  0  0
    7.0417   -8.2750    0.0000 N   0  0  0  0  0  0  0  0  0  0  0  0
    5.9792   -5.9542    0.0000 N   0  0  3  0  0  0  0  0  0  0  0  0
    5.2667   -5.5417    0.0000 C   0  0  0  0  0  0  0  0  0  0  0  0
    8.3875   -8.2750    0.0000 S   0  0  0  0  0  0  0  0  0  0  0  0
    4.5417   -5.9542    0.0000 C   0  0  0  0  0  0  0  0  0  0  0  0
    3.7500   -4.7125    0.0000 C   0  0  0  0  0  0  0  0  0  0  0  0
    3.0667   -5.8625    0.0000 C   0  0  0  0  0  0  0  0  0  0  0  0
    7.3000   -9.0667    0.0000 C   0  0  0  0  0  0  0  0  0  0  0  0
    6.9917   -6.5417    0.0000 C   0  0  3  0  0  0  0  0  0  0  0  0
    8.1375   -9.0750    0.0000 C   0  0  0  0  0  0  0  0  0  0  0  0
    7.7167   -6.9542    0.0000 O   0  0  0  0  0  0  0  0  0  0  0  0
    6.7875   -5.7417    0.0000 C   0  0  0  0  0  0  0  0  0  0  0  0
    6.1917   -6.7625    0.0000 C   0  0  0  0  0  0  0  0  0  0  0  0
    5.2667   -4.7125    0.0000 O   0  0  0  0  0  0  0  0  0  0  0  0
    2.5250   -5.2375    0.0000 C   0  0  0  0  0  0  0  0  0  0  0  0
    2.9417   -4.5292    0.0000 C   0  0  0  0  0  0  0  0  0  0  0  0
    2.8917   -6.6792    0.0000 O   0  0  0  0  0  0  0  0  0  0  0  0
    4.3667   -4.1542    0.0000 O   0  0  0  0  0  0  0  0  0  0  0  0
    6.8792   -9.7875    0.0000 C   0  0  0  0  0  0  0  0  0  0  0  0
    8.5417   -9.7917    0.0000 C   0  0  0  0  0  0  0  0  0  0  0  0
    7.2917  -10.5042    0.0000 C   0  0  0  0  0  0  0  0  0  0  0  0
    8.1292  -10.5167    0.0000 C   0  0  0  0  0  0  0  0  0  0  0  0
  2 13  1  0  0  0  0
  3  2  2  0  0  0  0
  4  5  1  0  0  0  0
  5  7  1  0  0  0  0
  6  2  1  0  0  0  0
  7  1  1  0  0  0  0
  8  1  1  0  0  0  0
  9  1  1  0  0  0  0
 10  3  1  0  0  0  0
 11 15  1  0  0  0  0
 12  6  1  0  0  0  0
 13 11  1  0  0  0  0
 14  4  1  0  0  0  0
 15  4  1  0  0  0  0
 16  5  2  0  0  0  0
 17  9  1  0  0  0  0
 18  8  1  0  0  0  0
 19  9  2  0  0  0  0
 20  8  2  0  0  0  0
 21 10  2  0  0  0  0
 22 12  2  0  0  0  0
 23 21  1  0  0  0  0
 24 22  1  0  0  0  0
 18 17  1  0  0  0  0
 14 11  1  0  0  0  0
 12 10  1  0  0  0  0
 24 23  2  0  0  0  0
M  END
> <IDNUMBER>
F6276-0549

> <Chemical_Name>
1-{2-[3-(1,3-benzothiazol-2-yloxy)azetidin-1-yl]-2-oxoethyl}pyrrolidine-2,5-dione

> <CAS>
1798023-71-8

> <PriceCoeff>
1.00

> <MW>
345.37

> <Description>
solid

> <FSP3>
0.38

> <clogP>
2.50

> <TPSA>
108.05

> <Acceptor>
5

> <Donor>
0

> <RotBonds>
5

> <HAC>
24

> <Collection>
General

$$$$
F0914-3327
  -ISIS-  06222321142D

 13 14  0  0  0  0  0  0  0  0999 V2000
   10.1417   -3.5750    0.0000 C   0  0  0  0  0  0  0  0  0  0  0  0
    8.3417   -4.6250    0.0000 N   0  0  0  0  0  0  0  0  0  0  0  0
   10.1417   -1.4750    0.0000 C   0  0  0  0  0  0  0  0  0  0  0  0
   12.0917   -4.7000    0.0000 C   0  0  0  0  0  0  0  0  0  0  0  0
    6.5042   -3.5750    0.0000 C   0  0  0  0  0  0  0  0  0  0  0  0
    6.5042   -1.4750    0.0000 C   0  0  0  0  0  0  0  0  0  0  0  0
   12.1542   -6.8667    0.0000 O   0  0  0  0  0  0  0  0  0  0  0  0
   14.0417   -3.5750    0.0000 N   0  0  0  0  0  0  0  0  0  0  0  0
    4.7000   -4.6250    0.0000 C   0  0  0  0  0  0  0  0  0  0  0  0
    4.7000   -0.4500    0.0000 C   0  0  0  0  0  0  0  0  0  0  0  0
   16.0000   -4.7250    0.0000 C   0  0  0  0  0  0  0  0  0  0  0  0
    2.9000   -3.5750    0.0000 C   0  0  0  0  0  0  0  0  0  0  0  0
    2.9000   -1.4750    0.0000 C   0  0  0  0  0  0  0  0  0  0  0  0
  2  1  1  0  0  0  0
  3  1  2  0  0  0  0
  4  1  1  0  0  0  0
  5  2  1  0  0  0  0
  6  3  1  0  0  0  0
  7  4  2  0  0  0  0
  8  4  1  0  0  0  0
  9  5  1  0  0  0  0
 10  6  1  0  0  0  0
 11  8  1  0  0  0  0
 12  9  2  0  0  0  0
 13 10  2  0  0  0  0
  6  5  2  0  0  0  0
 13 12  1  0  0  0  0
M  END
> <IDNUMBER>
F0914-3327

> <Chemical_Name>
N-methyl-1H-indole-2-carboxamide

> <CAS>
69808-71-5

> <PriceCoeff>
1.00

> <MW>
174.20

> <Description>
solid

> <FSP3>
0.10

> <clogP>
1.45

> <TPSA>
44.89

> <Acceptor>
1

> <Donor>
2

> <RotBonds>
1

> <HAC>
13

> <Collection>
General

> <Reference_compound>
CHEMBL2229817

> <Similarity>
0.8060

$$$$
F2644-0507
  -ISIS-  06222321152D

 18 20  0  0  0  0  0  0  0  0999 V2000
    1.2042   -3.3042    0.0000 N   0  0  3  0  0  0  0  0  0  0  0  0
    1.9167   -2.8917    0.0000 C   0  0  0  0  0  0  0  0  0  0  0  0
    1.9167   -2.0667    0.0000 C   0  0  0  0  0  0  0  0  0  0  0  0
    0.4917   -2.8917    0.0000 C   0  0  0  0  0  0  0  0  0  0  0  0
    0.4917   -2.0667    0.0000 N   0  0  0  0  0  0  0  0  0  0  0  0
    1.2042   -1.6500    0.0000 C   0  0  0  0  0  0  0  0  0  0  0  0
    2.6292   -3.3125    0.0000 N   0  0  0  0  0  0  0  0  0  0  0  0
    3.3542   -2.0667    0.0000 N   0  0  0  0  0  0  0  0  0  0  0  0
    3.3500   -2.9000    0.0000 C   0  0  0  0  0  0  0  0  0  0  0  0
    1.4125   -4.1000    0.0000 C   0  0  0  0  0  0  0  0  0  0  0  0
   -0.2250   -3.3042    0.0000 O   0  0  0  0  0  0  0  0  0  0  0  0
    1.2042   -0.8167    0.0000 O   0  0  0  0  0  0  0  0  0  0  0  0
    0.8250   -4.6792    0.0000 C   0  0  0  0  0  0  0  0  0  0  0  0
    1.0375   -5.4750    0.0000 C   0  0  0  0  0  0  0  0  0  0  0  0
    0.0292   -4.4625    0.0000 C   0  0  0  0  0  0  0  0  0  0  0  0
   -0.5583   -5.0417    0.0000 C   0  0  0  0  0  0  0  0  0  0  0  0
    0.4542   -6.0542    0.0000 C   0  0  0  0  0  0  0  0  0  0  0  0
   -0.3458   -5.8417    0.0000 C   0  0  0  0  0  0  0  0  0  0  0  0
  2  1  1  0  0  0  0
  3  2  2  0  0  0  0
  4  1  1  0  0  0  0
  5  4  1  0  0  0  0
  6  5  1  0  0  0  0
  7  2  1  0  0  0  0
  8  3  1  0  0  0  0
  9  7  2  0  0  0  0
 10  1  1  0  0  0  0
 11  4  2  0  0  0  0
 12  6  2  0  0  0  0
 13 10  1  0  0  0  0
 14 13  1  0  0  0  0
 15 13  2  0  0  0  0
 16 15  1  0  0  0  0
 17 14  2  0  0  0  0
 18 16  2  0  0  0  0
  6  3  1  0  0  0  0
  9  8  1  0  0  0  0
 18 17  1  0  0  0  0
M  END
> <IDNUMBER>
F2644-0507

> <Chemical_Name>
3-benzyl-2,3,6,7-tetrahydro-1H-purine-2,6-dione

> <CAS>
19844-93-0

> <PriceCoeff>
1.00

> <MW>
242.23

> <Description>
solid

> <FSP3>
0.08

> <clogP>
1.11

> <TPSA>
120.56

> <Acceptor>
4

> <Donor>
3

> <RotBonds>
2

> <HAC>
18

> <Collection>
General

> <Reference_compound>
CHEMBL190

> <Similarity>
0.8430

$$$$
F5614-0448
  -ISIS-  06222321442D

 27 30  0  0  0  0  0  0  0  0999 V2000
   -2.4458    2.9833    0.0000 N   0  0  3  0  0  0  0  0  0  0  0  0
   -7.4167    1.7458    0.0000 C   0  0  0  0  0  0  0  0  0  0  0  0
   -7.5042    2.5625    0.0000 N   0  0  0  0  0  0  0  0  0  0  0  0
   -8.1667    1.4083    0.0000 N   0  0  3  0  0  0  0  0  0  0  0  0
   -3.8625    2.9833    0.0000 C   0  0  0  0  0  0  0  0  0  0  0  0
   -3.1500    2.5708    0.0000 C   0  0  0  0  0  0  0  0  0  0  0  0
   -2.3500    3.7958    0.0000 C   0  0  0  0  0  0  0  0  0  0  0  0
   -1.6875    2.6458    0.0000 C   0  0  0  0  0  0  0  0  0  0  0  0
   -8.7167    2.0208    0.0000 C   0  0  0  0  0  0  0  0  0  0  0  0
   -4.5833    2.5708    0.0000 N   0  0  3  0  0  0  0  0  0  0  0  0
   -8.3042    2.7333    0.0000 C   0  0  0  0  0  0  0  0  0  0  0  0
   -6.0000    1.7375    0.0000 N   0  0  3  0  0  0  0  0  0  0  0  0
   -6.7042    1.3250    0.0000 C   0  0  0  0  0  0  0  0  0  0  0  0
   -3.8625    3.8000    0.0000 O   0  0  0  0  0  0  0  0  0  0  0  0
   -1.1375    3.2458    0.0000 C   0  0  0  0  0  0  0  0  0  0  0  0
   -1.5458    3.9583    0.0000 C   0  0  0  0  0  0  0  0  0  0  0  0
   -1.5208    1.8208    0.0000 O   0  0  0  0  0  0  0  0  0  0  0  0
   -2.9583    4.3375    0.0000 O   0  0  0  0  0  0  0  0  0  0  0  0
   -4.5833    1.7375    0.0000 C   0  0  0  0  0  0  0  0  0  0  0  0
   -5.2875    2.9833    0.0000 C   0  0  0  0  0  0  0  0  0  0  0  0
   -5.2875    1.3333    0.0000 C   0  0  0  0  0  0  0  0  0  0  0  0
   -6.0000    2.5625    0.0000 C   0  0  0  0  0  0  0  0  0  0  0  0
   -8.3375    0.6000    0.0000 C   0  0  0  0  0  0  0  0  0  0  0  0
   -9.5292    2.0208    0.0000 C   0  0  0  0  0  0  0  0  0  0  0  0
   -8.7167    3.4458    0.0000 C   0  0  0  0  0  0  0  0  0  0  0  0
   -9.9542    2.7333    0.0000 C   0  0  0  0  0  0  0  0  0  0  0  0
   -9.5417    3.4458    0.0000 C   0  0  0  0  0  0  0  0  0  0  0  0
  2 13  1  0  0  0  0
  3  2  2  0  0  0  0
  4  2  1  0  0  0  0
  5  6  1  0  0  0  0
  6  1  1  0  0  0  0
  7  1  1  0  0  0  0
  8  1  1  0  0  0  0
  9  4  1  0  0  0  0
 10  5  1  0  0  0  0
 11  3  1  0  0  0  0
 12 22  1  0  0  0  0
 13 12  1  0  0  0  0
 14  5  2  0  0  0  0
 15  8  1  0  0  0  0
 16  7  1  0  0  0  0
 17  8  2  0  0  0  0
 18  7  2  0  0  0  0
 19 10  1  0  0  0  0
 20 10  1  0  0  0  0
 21 19  1  0  0  0  0
 22 20  1  0  0  0  0
 23  4  1  0  0  0  0
 24  9  1  0  0  0  0
 25 11  1  0  0  0  0
 26 24  2  0  0  0  0
 27 25  2  0  0  0  0
 16 15  1  0  0  0  0
 21 12  1  0  0  0  0
  9 11  2  0  0  0  0
 26 27  1  0  0  0  0
M  END
> <IDNUMBER>
F5614-0448

> <Chemical_Name>
1-(2-{4-[(1-methyl-1H-1,3-benzodiazol-2-yl)methyl]piperazin-1-yl}-2-oxoethyl)pyrrolidine-2,5-dione

> <CAS>
1172379-56-4

> <PriceCoeff>
1.50

> <MW>
369.42

> <Description>
solid

> <FSP3>
0.47

> <clogP>
1.03

> <TPSA>
78.75

> <Acceptor>
4

> <Donor>
1

> <RotBonds>
5

> <HAC>
27

> <Collection>
Advanced

$$$$
F5792-0435
  -ISIS-  06222304352D

 29 31  0  0  0  0  0  0  0  0999 V2000
    3.8292   -5.5375    0.0000 N   0  0  3  0  0  0  0  0  0  0  0  0
    8.1375   -7.2125    0.0000 C   0  0  0  0  0  0  0  0  0  0  0  0
    8.1250   -8.0417    0.0000 N   0  0  0  0  0  0  0  0  0  0  0  0
    8.8417   -8.4667    0.0000 N   0  0  0  0  0  0  0  0  0  0  0  0
    5.2667   -5.5417    0.0000 C   0  0  0  0  0  0  0  0  0  0  0  0
    4.5417   -5.9542    0.0000 C   0  0  0  0  0  0  0  0  0  0  0  0
    7.4167   -6.7917    0.0000 N   0  0  3  0  0  0  0  0  0  0  0  0
    3.7500   -4.7125    0.0000 C   0  0  0  0  0  0  0  0  0  0  0  0
    3.0667   -5.8625    0.0000 C   0  0  0  0  0  0  0  0  0  0  0  0
    5.9792   -5.9542    0.0000 N   0  0  3  0  0  0  0  0  0  0  0  0
    8.8542   -6.7917    0.0000 S   0  0  0  0  0  0  0  0  0  0  0  0
    9.5667   -8.0542    0.0000 C   0  0  0  0  0  0  0  0  0  0  0  0
    9.5750   -7.2167    0.0000 C   0  0  0  0  0  0  0  0  0  0  0  0
    6.6917   -7.2042    0.0000 C   0  0  0  0  0  0  0  0  0  0  0  0
    7.4250   -5.9542    0.0000 C   0  0  0  0  0  0  0  0  0  0  0  0
    5.9792   -6.7875    0.0000 C   0  0  0  0  0  0  0  0  0  0  0  0
    6.7042   -5.5417    0.0000 C   0  0  0  0  0  0  0  0  0  0  0  0
    5.2667   -4.7125    0.0000 O   0  0  0  0  0  0  0  0  0  0  0  0
    2.5250   -5.2375    0.0000 C   0  0  0  0  0  0  0  0  0  0  0  0
    2.9417   -4.5292    0.0000 C   0  0  0  0  0  0  0  0  0  0  0  0
    2.8917   -6.6792    0.0000 O   0  0  0  0  0  0  0  0  0  0  0  0
    4.3667   -4.1542    0.0000 O   0  0  0  0  0  0  0  0  0  0  0  0
   10.2792   -8.4750    0.0000 C   0  0  0  0  0  0  0  0  0  0  0  0
   10.2667   -9.3042    0.0000 C   0  0  0  0  0  0  0  0  0  0  0  0
   11.0042   -8.0667    0.0000 C   0  0  0  0  0  0  0  0  0  0  0  0
   11.7167   -8.4875    0.0000 C   0  0  0  0  0  0  0  0  0  0  0  0
   10.9875   -9.7292    0.0000 C   0  0  0  0  0  0  0  0  0  0  0  0
   11.7125   -9.3167    0.0000 C   0  0  0  0  0  0  0  0  0  0  0  0
   13.1042   -6.7875    0.0000 Cl  0  0  0  0  0  0  0  0  0  0  0  0
  3  2  2  0  0  0  0
  4  3  1  0  0  0  0
  5  6  1  0  0  0  0
  6  1  1  0  0  0  0
  7 15  1  0  0  0  0
  8  1  1  0  0  0  0
  9  1  1  0  0  0  0
 10  5  1  0  0  0  0
 11  2  1  0  0  0  0
 12 13  1  0  0  0  0
 13 11  1  0  0  0  0
 14 16  1  0  0  0  0
 15 17  1  0  0  0  0
 16 10  1  0  0  0  0
 17 10  1  0  0  0  0
 18  5  2  0  0  0  0
 19  9  1  0  0  0  0
 20  8  1  0  0  0  0
 21  9  2  0  0  0  0
 22  8  2  0  0  0  0
 23 12  1  0  0  0  0
 24 23  2  0  0  0  0
 25 23  1  0  0  0  0
 26 25  2  0  0  0  0
 27 24  1  0  0  0  0
 28 26  1  0  0  0  0
 20 19  1  0  0  0  0
 14  7  1  0  0  0  0
  4 12  2  0  0  0  0
 27 28  2  0  0  0  0
  2  7  1  0  0  0  0
M  END
> <IDNUMBER>
F5792-0435

> <Chemical_Name>
1-{2-oxo-2-[4-(5-phenyl-6H-1,3,4-thiadiazin-2-yl)piperazin-1-yl]ethyl}pyrrolidine-2,5-dione hydrochloride

> <CAS>
1351654-69-7

> <PriceCoeff>
1.50

> <MW>
399.47

> <Description>
solid

> <FSP3>
0.42

> <clogP>
1.95

> <TPSA>
110.95

> <Acceptor>
4

> <Donor>
2

> <RotBonds>
5

> <HAC>
28

> <Collection>
Advanced

$$$$
F3325-0107
  -ISIS-  06222321462D

 25 27  0  0  0  0  0  0  0  0999 V2000
    4.8792   -1.3250    0.0000 N   0  0  3  0  0  0  0  0  0  0  0  0
    5.3667   -1.9917    0.0000 C   0  0  0  0  0  0  0  0  0  0  0  0
    5.3625   -0.6542    0.0000 C   0  0  0  0  0  0  0  0  0  0  0  0
    6.1542   -1.7292    0.0000 C   0  0  3  0  0  0  0  0  0  0  0  0
    6.1417   -0.9042    0.0000 C   0  0  0  0  0  0  0  0  0  0  0  0
    6.8167   -2.2125    0.0000 N   0  0  3  0  0  0  0  0  0  0  0  0
    8.1542   -3.1750    0.0000 N   0  0  3  0  0  0  0  0  0  0  0  0
    8.8250   -3.6542    0.0000 C   0  0  0  0  0  0  0  0  0  0  0  0
    5.1167   -2.7750    0.0000 O   0  0  0  0  0  0  0  0  0  0  0  0
    5.1042    0.1333    0.0000 O   0  0  0  0  0  0  0  0  0  0  0  0
    7.5667   -1.8667    0.0000 C   0  0  0  0  0  0  0  0  0  0  0  0
    6.7292   -3.0292    0.0000 C   0  0  0  0  0  0  0  0  0  0  0  0
    7.4000   -3.5125    0.0000 C   0  0  0  0  0  0  0  0  0  0  0  0
    8.2375   -2.3542    0.0000 C   0  0  0  0  0  0  0  0  0  0  0  0
    4.0542   -1.3292    0.0000 C   0  0  0  0  0  0  0  0  0  0  0  0
    9.5667   -3.3167    0.0000 C   0  0  0  0  0  0  0  0  0  0  0  0
    8.7375   -4.4792    0.0000 C   0  0  0  0  0  0  0  0  0  0  0  0
   10.1542   -4.6250    0.0000 C   0  0  0  0  0  0  0  0  0  0  0  0
    9.4042   -4.9625    0.0000 C   0  0  0  0  0  0  0  0  0  0  0  0
   10.2417   -3.8000    0.0000 C   0  0  0  0  0  0  0  0  0  0  0  0
   10.8250   -5.1042    0.0000 F   0  0  0  0  0  0  0  0  0  0  0  0
    3.6375   -0.6167    0.0000 C   0  0  0  0  0  0  0  0  0  0  0  0
    2.3917    0.0875    0.0000 O   0  0  0  0  0  0  0  0  0  0  0  0
    2.8125   -0.6167    0.0000 C   0  0  0  0  0  0  0  0  0  0  0  0
    1.5667    0.0833    0.0000 C   0  0  0  0  0  0  0  0  0  0  0  0
  2  1  1  0  0  0  0
  3  1  1  0  0  0  0
  4  2  1  0  0  0  0
  5  3  1  0  0  0  0
  6  4  1  0  0  0  0
  7 13  1  0  0  0  0
  8  7  1  0  0  0  0
  9  2  2  0  0  0  0
 10  3  2  0  0  0  0
 11  6  1  0  0  0  0
 12  6  1  0  0  0  0
 13 12  1  0  0  0  0
 14 11  1  0  0  0  0
 15  1  1  0  0  0  0
 16  8  1  0  0  0  0
 17  8  2  0  0  0  0
 18 19  2  0  0  0  0
 19 17  1  0  0  0  0
 20 16  2  0  0  0  0
 21 18  1  0  0  0  0
 22 15  1  0  0  0  0
 23 24  1  0  0  0  0
 24 22  1  0  0  0  0
 25 23  1  0  0  0  0
  4  5  1  0  0  0  0
 14  7  1  0  0  0  0
 20 18  1  0  0  0  0
M  END
> <IDNUMBER>
F3325-0107

> <Chemical_Name>
3-[4-(4-fluorophenyl)piperazin-1-yl]-1-(3-methoxypropyl)pyrrolidine-2,5-dione

> <CAS>
924865-49-6

> <PriceCoeff>
1.50

> <MW>
349.40

> <Description>
solid

> <FSP3>
0.56

> <clogP>
3.10

> <TPSA>
53.09

> <Acceptor>
4

> <Donor>
2

> <RotBonds>
6

> <HAC>
25

> <Collection>
Advanced

$$$$
F5854-2642
  -ISIS-  06222321462D

 24 26  0  0  0  0  0  0  0  0999 V2000
   -5.2833    2.5708    0.0000 N   0  0  3  0  0  0  0  0  0  0  0  0
   -4.5708    2.9875    0.0000 C   0  0  0  0  0  0  0  0  0  0  0  0
   -6.0292    2.9000    0.0000 C   0  0  0  0  0  0  0  0  0  0  0  0
   -5.3625    1.7458    0.0000 C   0  0  0  0  0  0  0  0  0  0  0  0
   -4.5708    3.8000    0.0000 C   0  0  0  0  0  0  0  0  0  0  0  0
   -3.8583    4.2125    0.0000 N   0  0  3  0  0  0  0  0  0  0  0  0
   -1.7083    3.8000    0.0000 C   0  0  0  0  0  0  0  0  0  0  0  0
   -4.5625    5.4292    0.0000 C   0  0  0  0  0  0  0  0  0  0  0  0
   -0.9458    4.1042    0.0000 S   0  0  0  0  0  0  0  0  0  0  0  0
   -3.8583    5.0292    0.0000 C   0  0  0  0  0  0  0  0  0  0  0  0
   -5.3333    5.0917    0.0000 O   0  0  0  0  0  0  0  0  0  0  0  0
   -5.2958    4.2125    0.0000 O   0  0  0  0  0  0  0  0  0  0  0  0
   -6.5750    2.2833    0.0000 C   0  0  0  0  0  0  0  0  0  0  0  0
   -6.1667    1.5708    0.0000 C   0  0  0  0  0  0  0  0  0  0  0  0
   -6.2042    3.7083    0.0000 O   0  0  0  0  0  0  0  0  0  0  0  0
   -4.7458    1.1833    0.0000 O   0  0  0  0  0  0  0  0  0  0  0  0
   -3.1458    3.8083    0.0000 C   0  0  0  0  0  0  0  0  0  0  0  0
   -0.4000    3.4958    0.0000 C   0  0  0  0  0  0  0  0  0  0  0  0
   -2.4250    4.2042    0.0000 C   0  0  0  0  0  0  0  0  0  0  0  0
   -1.6250    2.9708    0.0000 C   0  0  0  0  0  0  0  0  0  0  0  0
   -4.6833    6.2500    0.0000 C   0  0  0  0  0  0  0  0  0  0  0  0
   -5.9083    5.7042    0.0000 C   0  0  0  0  0  0  0  0  0  0  0  0
   -0.8208    2.7958    0.0000 C   0  0  0  0  0  0  0  0  0  0  0  0
   -5.4958    6.4167    0.0000 C   0  0  0  0  0  0  0  0  0  0  0  0
  2  1  1  0  0  0  0
  3  1  1  0  0  0  0
  4  1  1  0  0  0  0
  5  2  1  0  0  0  0
  6  5  1  0  0  0  0
  7 19  1  0  0  0  0
  8 10  1  0  0  0  0
  9  7  1  0  0  0  0
 10  6  1  0  0  0  0
 11  8  1  0  0  0  0
 12  5  2  0  0  0  0
 13  3  1  0  0  0  0
 14  4  1  0  0  0  0
 15  3  2  0  0  0  0
 16  4  2  0  0  0  0
 17  6  1  0  0  0  0
 18  9  1  0  0  0  0
 19 17  1  0  0  0  0
 20  7  2  0  0  0  0
 21  8  2  0  0  0  0
 22 11  1  0  0  0  0
 23 20  1  0  0  0  0
 24 21  1  0  0  0  0
 14 13  1  0  0  0  0
 24 22  2  0  0  0  0
 23 18  2  0  0  0  0
M  END
> <IDNUMBER>
F5854-2642

> <Chemical_Name>
2-(2,5-dioxopyrrolidin-1-yl)-N-[(furan-2-yl)methyl]-N-[2-(thiophen-2-yl)ethyl]acetamide

> <CAS>
1396852-57-5

> <PriceCoeff>
1.00

> <MW>
346.40

> <Description>
oil

> <FSP3>
0.35

> <clogP>
1.81

> <TPSA>
99.07

> <Acceptor>
4

> <Donor>
0

> <RotBonds>
8

> <HAC>
24

> <Collection>
General

$$$$
F0307-0311
  -ISIS-  06222321442D

 15 15  0  0  0  0  0  0  0  0999 V2000
   -0.2833    0.5500    0.0000 C   0  0  0  0  0  0  0  0  0  0  0  0
    0.0792   -0.0917    0.0000 N   0  0  0  0  0  0  0  0  0  0  0  0
   -1.0458    0.5708    0.0000 C   0  0  0  0  0  0  0  0  0  0  0  0
    1.2167   -0.8000    0.0000 C   0  0  0  0  0  0  0  0  0  0  0  0
    0.1000    1.1958    0.0000 O   0  0  0  0  0  0  0  0  0  0  0  0
   -1.4208   -0.0792    0.0000 C   0  0  0  0  0  0  0  0  0  0  0  0
    1.9792   -0.8167    0.0000 O   0  0  0  0  0  0  0  0  0  0  0  0
    0.8375   -0.1167    0.0000 C   0  0  0  0  0  0  0  0  0  0  0  0
   -2.1833   -0.0792    0.0000 C   0  0  0  0  0  0  0  0  0  0  0  0
    0.8375   -1.4542    0.0000 O   0  0  0  0  0  0  0  0  0  0  0  0
   -2.5833   -0.7542    0.0000 O   0  0  0  0  0  0  0  0  0  0  0  0
   -1.4208    1.2500    0.0000 C   0  0  0  0  0  0  0  0  0  0  0  0
   -2.1833    1.2333    0.0000 C   0  0  0  0  0  0  0  0  0  0  0  0
   -2.5625    0.5708    0.0000 C   0  0  0  0  0  0  0  0  0  0  0  0
   -3.3458   -0.7542    0.0000 C   0  0  0  0  0  0  0  0  0  0  0  0
  2  1  1  0  0  0  0
  3  1  1  0  0  0  0
  4  8  1  0  0  0  0
  5  1  2  0  0  0  0
  6  3  1  0  0  0  0
  7  4  2  0  0  0  0
  8  2  1  0  0  0  0
  9  6  2  0  0  0  0
 10  4  1  0  0  0  0
 11  9  1  0  0  0  0
 12  3  2  0  0  0  0
 13 12  1  0  0  0  0
 14 13  2  0  0  0  0
 15 11  1  0  0  0  0
 14  9  1  0  0  0  0
M  END
> <IDNUMBER>
F0307-0311

> <Chemical_Name>
2-[(3-methoxyphenyl)formamido]acetic acid

> <CAS>
57728-61-7

> <PriceCoeff>
1.00

> <MW>
209.20

> <Description>
solid

> <FSP3>
0.20

> <clogP>
0.86

> <TPSA>
75.63

> <Acceptor>
4

> <Donor>
1

> <RotBonds>
4

> <HAC>
15

> <Collection>
General

> <Reference_compound>
CHEMBL500596

> <Similarity>
0.8500

$$$$
F1130-0072
  -ISIS-  06222321442D

 15 15  0  0  0  0  0  0  0  0999 V2000
    2.9042   -1.6375    0.0000 C   0  0  0  0  0  0  0  0  0  0  0  0
    3.5917   -1.1750    0.0000 N   0  0  0  0  0  0  0  0  0  0  0  0
    2.1542   -1.2625    0.0000 C   0  0  0  0  0  0  0  0  0  0  0  0
    5.0167   -1.0875    0.0000 C   0  0  0  0  0  0  0  0  0  0  0  0
    2.9542   -2.4667    0.0000 O   0  0  0  0  0  0  0  0  0  0  0  0
    5.7542   -1.4625    0.0000 O   0  0  0  0  0  0  0  0  0  0  0  0
    4.3292   -1.5417    0.0000 C   0  0  0  0  0  0  0  0  0  0  0  0
    2.1125   -0.4417    0.0000 C   0  0  0  0  0  0  0  0  0  0  0  0
    1.4542   -1.7125    0.0000 C   0  0  0  0  0  0  0  0  0  0  0  0
    0.6792   -0.5167    0.0000 C   0  0  0  0  0  0  0  0  0  0  0  0
    4.9667   -0.2625    0.0000 O   0  0  0  0  0  0  0  0  0  0  0  0
    0.7250   -1.3417    0.0000 C   0  0  0  0  0  0  0  0  0  0  0  0
    1.3750   -0.0667    0.0000 C   0  0  0  0  0  0  0  0  0  0  0  0
   -0.0583   -0.1417    0.0000 O   0  0  0  0  0  0  0  0  0  0  0  0
   -0.7458   -0.5917    0.0000 C   0  0  0  0  0  0  0  0  0  0  0  0
  2  1  1  0  0  0  0
  3  1  1  0  0  0  0
  4  7  1  0  0  0  0
  5  1  2  0  0  0  0
  6  4  2  0  0  0  0
  7  2  1  0  0  0  0
  8  3  2  0  0  0  0
  9  3  1  0  0  0  0
 10 12  1  0  0  0  0
 11  4  1  0  0  0  0
 12  9  2  0  0  0  0
 13  8  1  0  0  0  0
 14 10  1  0  0  0  0
 15 14  1  0  0  0  0
 10 13  2  0  0  0  0
M  END
> <IDNUMBER>
F1130-0072

> <Chemical_Name>
2-[(4-methoxyphenyl)formamido]acetic acid

> <CAS>
13214-64-7

> <PriceCoeff>
1.00

> <MW>
209.20

> <Description>
solid

> <FSP3>
0.20

> <clogP>
0.86

> <TPSA>
75.63

> <Acceptor>
4

> <Donor>
1

> <RotBonds>
4

> <HAC>
15

> <Collection>
General

> <Reference_compound>
CHEMBL274877

> <Similarity>
0.8000

$$$$
F1468-0013
  -ISIS-  06222321142D

 21 23  0  0  0  0  0  0  0  0999 V2000
   -1.0083    1.1333    0.0000 C   0  0  0  0  0  0  0  0  0  0  0  0
   -1.0083    1.9375    0.0000 C   0  0  0  0  0  0  0  0  0  0  0  0
   -1.7250    0.7208    0.0000 N   0  0  3  0  0  0  0  0  0  0  0  0
   -2.4208    1.9375    0.0000 N   0  0  3  0  0  0  0  0  0  0  0  0
   -2.4208    1.1208    0.0000 C   0  0  0  0  0  0  0  0  0  0  0  0
   -1.7250    2.3458    0.0000 C   0  0  0  0  0  0  0  0  0  0  0  0
   -0.3208    0.7125    0.0000 N   0  0  0  0  0  0  0  0  0  0  0  0
    0.3917    1.9333    0.0000 N   0  0  0  0  0  0  0  0  0  0  0  0
    0.3792    1.1083    0.0000 C   0  0  0  0  0  0  0  0  0  0  0  0
    1.7292    0.5458    0.0000 N   0  0  3  0  0  0  0  0  0  0  0  0
   -3.1208    0.7125    0.0000 O   0  0  0  0  0  0  0  0  0  0  0  0
    3.3125    0.5375    0.0000 N   0  0  3  0  0  0  0  0  0  0  0  0
   -1.7250    3.1708    0.0000 O   0  0  0  0  0  0  0  0  0  0  0  0
    0.9417    0.5458    0.0000 C   0  0  0  0  0  0  0  0  0  0  0  0
   -1.7250   -0.0917    0.0000 C   0  0  0  0  0  0  0  0  0  0  0  0
   -3.1708    2.3625    0.0000 C   0  0  0  0  0  0  0  0  0  0  0  0
    2.1250   -0.1417    0.0000 C   0  0  0  0  0  0  0  0  0  0  0  0
    2.1250    1.2333    0.0000 C   0  0  0  0  0  0  0  0  0  0  0  0
    2.9167    1.2250    0.0000 C   0  0  0  0  0  0  0  0  0  0  0  0
    2.9125   -0.1417    0.0000 C   0  0  0  0  0  0  0  0  0  0  0  0
    4.1375    0.5375    0.0000 C   0  0  0  0  0  0  0  0  0  0  0  0
  2  1  2  0  0  0  0
  3  1  1  0  0  0  0
  4  5  1  0  0  0  0
  5  3  1  0  0  0  0
  6  2  1  0  0  0  0
  7  1  1  0  0  0  0
  8  2  1  0  0  0  0
  9  7  2  0  0  0  0
 10 14  1  0  0  0  0
 11  5  2  0  0  0  0
 12 19  1  0  0  0  0
 13  6  2  0  0  0  0
 14  9  1  0  0  0  0
 15  3  1  0  0  0  0
 16  4  1  0  0  0  0
 17 10  1  0  0  0  0
 18 10  1  0  0  0  0
 19 18  1  0  0  0  0
 20 17  1  0  0  0  0
 21 12  1  0  0  0  0
  9  8  1  0  0  0  0
  6  4  1  0  0  0  0
 12 20  1  0  0  0  0
M  END
> <IDNUMBER>
F1468-0013

> <Chemical_Name>
1,3-dimethyl-8-[(4-methylpiperazin-1-yl)methyl]-2,3,6,7-tetrahydro-1H-purine-2,6-dione

> <CAS>
71527-03-2

> <PriceCoeff>
1.00

> <MW>
292.34

> <Description>
solid

> <FSP3>
0.62

> <clogP>
0.27

> <TPSA>
75.78

> <Acceptor>
6

> <Donor>
4

> <RotBonds>
2

> <HAC>
21

> <Collection>
General

> <Reference_compound>
CHEMBL190

> <Similarity>
0.8350

$$$$
F2147-1049
  -ISIS-  06222321142D

 13 13  0  0  0  0  0  0  0  0999 V2000
    3.1417   -2.9708    0.0000 C   0  0  0  0  0  0  0  0  0  0  0  0
    3.1417   -3.8000    0.0000 C   0  0  0  0  0  0  0  0  0  0  0  0
    3.8542   -2.5542    0.0000 C   0  0  0  0  0  0  0  0  0  0  0  0
    3.8583   -4.2125    0.0000 C   0  0  0  0  0  0  0  0  0  0  0  0
    2.4250   -2.5583    0.0000 C   0  0  0  0  0  0  0  0  0  0  0  0
    3.8500   -1.7292    0.0000 O   0  0  0  0  0  0  0  0  0  0  0  0
    3.8583   -5.0375    0.0000 O   0  0  0  0  0  0  0  0  0  0  0  0
    4.5708   -2.9625    0.0000 O   0  0  0  0  0  0  0  0  0  0  0  0
    4.5708   -3.7958    0.0000 O   0  0  0  0  0  0  0  0  0  0  0  0
    2.4208   -1.7333    0.0000 O   0  0  0  0  0  0  0  0  0  0  0  0
    2.4250   -4.2125    0.0000 C   0  0  0  0  0  0  0  0  0  0  0  0
    1.7125   -3.8000    0.0000 C   0  0  0  0  0  0  0  0  0  0  0  0
    1.7125   -2.9750    0.0000 C   0  0  0  0  0  0  0  0  0  0  0  0
  2  1  1  0  0  0  0
  3  1  1  0  0  0  0
  4  2  1  0  0  0  0
  5  1  2  0  0  0  0
  6  3  2  0  0  0  0
  7  4  2  0  0  0  0
  8  3  1  0  0  0  0
  9  4  1  0  0  0  0
 10  5  1  0  0  0  0
 11  2  2  0  0  0  0
 12 13  2  0  0  0  0
 13  5  1  0  0  0  0
 11 12  1  0  0  0  0
M  END
> <IDNUMBER>
F2147-1049

> <Chemical_Name>
3-hydroxybenzene-1,2-dicarboxylic acid

> <CAS>
601-97-8

> <PriceCoeff>
1.00

> <MW>
182.13

> <Description>
solid

> <FSP3>
0.00

> <clogP>
1.00

> <TPSA>
94.83

> <Acceptor>
5

> <Donor>
1

> <RotBonds>
2

> <HAC>
13

> <Collection>
General

> <Reference_compound>
CHEMBL1461

> <Similarity>
0.8280

$$$$
F5033-0277
  -ISIS-  06222321152D

 23 24  0  0  0  0  0  0  0  0999 V2000
   -0.8833    6.2792    0.0000 N   0  0  3  0  0  0  0  0  0  0  0  0
   -3.7583    3.8000    0.0000 C   0  0  0  0  0  0  0  0  0  0  0  0
   -3.0458    4.2125    0.0000 N   0  0  0  0  0  0  0  0  0  0  0  0
   -4.4708    4.2042    0.0000 O   0  0  0  0  0  0  0  0  0  0  0  0
   -4.4833    2.5708    0.0000 O   0  0  0  0  0  0  0  0  0  0  0  0
   -3.7583    2.9833    0.0000 C   0  0  0  0  0  0  0  0  0  0  0  0
   -1.6000    6.6917    0.0000 C   0  0  0  0  0  0  0  0  0  0  0  0
   -0.8875    5.4625    0.0000 C   0  0  0  0  0  0  0  0  0  0  0  0
   -4.4875    1.7458    0.0000 C   0  0  0  0  0  0  0  0  0  0  0  0
   -3.0458    5.0292    0.0000 C   0  0  0  0  0  0  0  0  0  0  0  0
   -4.5333    0.0875    0.0000 C   0  0  0  0  0  0  0  0  0  0  0  0
   -2.3250    5.4500    0.0000 C   0  0  3  0  0  0  0  0  0  0  0  0
   -5.2208    1.3500    0.0000 C   0  0  0  0  0  0  0  0  0  0  0  0
   -3.7875    1.3125    0.0000 C   0  0  0  0  0  0  0  0  0  0  0  0
   -5.2375    0.5208    0.0000 C   0  0  0  0  0  0  0  0  0  0  0  0
   -3.8083    0.4833    0.0000 C   0  0  0  0  0  0  0  0  0  0  0  0
   -2.3208    6.2792    0.0000 C   0  0  0  0  0  0  0  0  0  0  0  0
   -1.6083    5.0417    0.0000 C   0  0  0  0  0  0  0  0  0  0  0  0
   -0.1708    6.6917    0.0000 C   0  0  0  0  0  0  0  0  0  0  0  0
    1.2667    6.7042    0.0000 O   0  0  0  0  0  0  0  0  0  0  0  0
    0.5500    6.2917    0.0000 C   0  0  0  0  0  0  0  0  0  0  0  0
   -4.5583   -0.7417    0.0000 C   0  0  0  0  0  0  0  0  0  0  0  0
    1.9917    6.2792    0.0000 C   0  0  0  0  0  0  0  0  0  0  0  0
  2  3  1  0  0  0  0
  3 10  1  0  0  0  0
  4  2  2  0  0  0  0
  5  6  1  0  0  0  0
  6  2  1  0  0  0  0
  7  1  1  0  0  0  0
  8  1  1  0  0  0  0
  9  5  1  0  0  0  0
 10 12  1  0  0  0  0
 11 16  1  0  0  0  0
 12 18  1  0  0  0  0
 13  9  2  0  0  0  0
 14  9  1  0  0  0  0
 15 13  1  0  0  0  0
 16 14  2  0  0  0  0
 17  7  1  0  0  0  0
 18  8  1  0  0  0  0
 19  1  1  0  0  0  0
 20 21  1  0  0  0  0
 21 19  1  0  0  0  0
 22 11  1  0  0  0  0
 23 20  1  0  0  0  0
 17 12  1  0  0  0  0
 11 15  2  0  0  0  0
M  END
> <IDNUMBER>
F5033-0277

> <Chemical_Name>
N-{[1-(2-methoxyethyl)piperidin-4-yl]methyl}-2-(4-methylphenoxy)acetamide

> <CAS>
954078-00-3

> <PriceCoeff>
1.00

> <MW>
320.43

> <Description>
oil

> <FSP3>
0.61

> <clogP>
2.18

> <TPSA>
50.80

> <Acceptor>
3

> <Donor>
2

> <RotBonds>
8

> <HAC>
23

> <Collection>
General

> <Reference_compound>
CHEMBL4277357

> <Similarity>
0.8130

$$$$
F3393-0004
  -ISIS-  06222321462D

 16 17  0  0  0  0  0  0  0  0999 V2000
    1.9792   -4.4875    0.0000 N   0  0  0  0  0  0  0  0  0  0  0  0
    1.4250   -3.8792    0.0000 C   0  0  0  0  0  0  0  0  0  0  0  0
    1.8375   -3.1542    0.0000 N   0  0  0  0  0  0  0  0  0  0  0  0
    2.7375   -4.1500    0.0000 C   0  0  0  0  0  0  0  0  0  0  0  0
    2.6500   -3.3250    0.0000 O   0  0  0  0  0  0  0  0  0  0  0  0
    3.4625   -4.5625    0.0000 C   0  0  0  0  0  0  0  0  0  0  0  0
    0.6042   -3.9667    0.0000 C   0  0  0  0  0  0  0  0  0  0  0  0
    3.4625   -5.3917    0.0000 C   0  0  0  0  0  0  0  0  0  0  0  0
    4.1750   -5.8000    0.0000 O   0  0  0  0  0  0  0  0  0  0  0  0
    0.2667   -4.7167    0.0000 C   0  0  0  0  0  0  0  0  0  0  0  0
    0.1167   -3.2917    0.0000 C   0  0  0  0  0  0  0  0  0  0  0  0
   -0.7083   -3.3792    0.0000 C   0  0  0  0  0  0  0  0  0  0  0  0
   -0.5500   -4.8125    0.0000 C   0  0  0  0  0  0  0  0  0  0  0  0
   -1.0458   -4.1417    0.0000 C   0  0  0  0  0  0  0  0  0  0  0  0
    2.7417   -5.8042    0.0000 C   0  0  0  0  0  0  0  0  0  0  0  0
   -1.8708   -4.2292    0.0000 C   0  0  0  0  0  0  0  0  0  0  0  0
  2  1  1  0  0  0  0
  3  2  2  0  0  0  0
  4  1  2  0  0  0  0
  5  4  1  0  0  0  0
  6  4  1  0  0  0  0
  7  2  1  0  0  0  0
  8  6  1  0  0  0  0
  9  8  2  0  0  0  0
 10  7  1  0  0  0  0
 11  7  2  0  0  0  0
 12 11  1  0  0  0  0
 13 10  2  0  0  0  0
 14 12  2  0  0  0  0
 15  8  1  0  0  0  0
 16 14  1  0  0  0  0
  5  3  1  0  0  0  0
 13 14  1  0  0  0  0
M  END
> <IDNUMBER>
F3393-0004

> <Chemical_Name>
1-[3-(4-methylphenyl)-1,2,4-oxadiazol-5-yl]propan-2-one

> <CAS>
110449-27-9

> <PriceCoeff>
1.50

> <MW>
216.24

> <Description>
solid

> <FSP3>
0.25

> <clogP>
1.38

> <TPSA>
55.99

> <Acceptor>
4

> <Donor>
0

> <RotBonds>
3

> <HAC>
16

> <Collection>
Advanced

> <Reference_compound>
CHEMBL4744771

> <Similarity>
0.8510

$$$$
F6265-0370
  -ISIS-  06222321462D

 20 22  0  0  0  0  0  0  0  0999 V2000
   -4.5833    3.8000    0.0000 C   0  0  0  0  0  0  0  0  0  0  0  0
   -3.8625    4.2125    0.0000 N   0  0  3  0  0  0  0  0  0  0  0  0
   -4.5833    2.9792    0.0000 N   0  0  0  0  0  0  0  0  0  0  0  0
   -6.0042    1.3375    0.0000 C   0  0  0  0  0  0  0  0  0  0  0  0
   -5.3083    1.7458    0.0000 C   0  0  0  0  0  0  0  0  0  0  0  0
   -5.3000    4.2125    0.0000 O   0  0  0  0  0  0  0  0  0  0  0  0
   -5.3000    2.5792    0.0000 C   0  0  0  0  0  0  0  0  0  0  0  0
   -6.7167    1.7458    0.0000 C   0  0  0  0  0  0  0  0  0  0  0  0
   -3.1083    4.4208    0.0000 C   0  0  3  0  0  0  0  0  0  0  0  0
   -3.1250    4.9208    0.0000 C   0  0  3  0  0  0  0  0  0  0  0  0
   -3.3833    6.2000    0.0000 O   0  0  0  0  0  0  0  0  0  0  0  0
   -6.7208    2.5708    0.0000 C   0  0  0  0  0  0  0  0  0  0  0  0
   -6.0042    0.5083    0.0000 Cl  0  0  0  0  0  0  0  0  0  0  0  0
   -6.0042    2.9833    0.0000 C   0  0  0  0  0  0  0  0  0  0  0  0
   -7.4417    1.3250    0.0000 Cl  0  0  0  0  0  0  0  0  0  0  0  0
   -3.3958    5.4417    0.0000 C   0  0  0  0  0  0  0  0  0  0  0  0
   -3.7333    5.1667    0.0000 C   0  0  0  0  0  0  0  0  0  0  0  0
   -1.7583    4.5000    0.0000 C   0  0  0  0  0  0  0  0  0  0  0  0
   -2.5708    4.5333    0.0000 C   0  0  0  0  0  0  0  0  0  0  0  0
   -2.5208    4.0667    0.0000 C   0  0  0  0  0  0  0  0  0  0  0  0
  2  1  1  0  0  0  0
  3  1  1  0  0  0  0
  4  5  1  0  0  0  0
  5  7  2  0  0  0  0
  6  1  2  0  0  0  0
  7  3  1  0  0  0  0
  8 12  1  0  0  0  0
  9  2  1  0  0  0  0
 10  2  1  0  0  0  0
 11 16  1  0  0  0  0
 12 14  2  0  0  0  0
 13  4  1  0  0  0  0
 14  7  1  0  0  0  0
 15  8  1  0  0  0  0
 16 10  1  0  0  0  0
 17  9  1  0  0  0  0
 18 19  1  0  0  0  0
 19 10  1  0  0  0  0
 20  9  1  0  0  0  0
 20 18  1  0  0  0  0
 17 11  1  0  0  0  0
  4  8  2  0  0  0  0
M  END
> <IDNUMBER>
F6265-0370

> <Chemical_Name>
N-(3,4-dichlorophenyl)-3-oxa-9-azabicyclo[3.3.1]nonane-9-carboxamide

> <CAS>
1421466-04-7

> <PriceCoeff>
1.50

> <MW>
315.20

> <Description>
solid

> <FSP3>
0.50

> <clogP>
3.39

> <TPSA>
41.57

> <Acceptor>
2

> <Donor>
1

> <RotBonds>
2

> <HAC>
20

> <Collection>
Advanced

$$$$
F6525-0205
  -ISIS-  06222321472D

 27 30  0  0  0  0  0  0  0  0999 V2000
   -4.7792    4.8250    0.0000 C   0  0  0  0  0  0  0  0  0  0  0  0
   -2.5708    5.9667    0.0000 C   0  0  0  0  0  0  0  0  0  0  0  0
   -4.0833    4.3750    0.0000 N   0  0  3  0  0  0  0  0  0  0  0  0
   -5.4125    4.2917    0.0000 C   0  0  0  0  0  0  0  0  0  0  0  0
   -4.2958    3.5833    0.0000 N   0  0  0  0  0  0  0  0  0  0  0  0
   -2.4458    6.7917    0.0000 N   0  0  3  0  0  0  0  0  0  0  0  0
   -1.6375    6.9000    0.0000 N   0  0  0  0  0  0  0  0  0  0  0  0
   -1.8500    5.6042    0.0000 C   0  0  0  0  0  0  0  0  0  0  0  0
   -5.1125    3.5333    0.0000 C   0  0  0  0  0  0  0  0  0  0  0  0
   -1.2708    6.1792    0.0000 C   0  0  0  0  0  0  0  0  0  0  0  0
   -4.7333    5.6500    0.0000 C   0  0  0  0  0  0  0  0  0  0  0  0
   -3.3083    5.5875    0.0000 C   0  0  0  0  0  0  0  0  0  0  0  0
   -4.0000    6.0292    0.0000 N   0  0  0  0  0  0  0  0  0  0  0  0
   -5.5917    2.8625    0.0000 C   0  0  0  0  0  0  0  0  0  0  0  0
   -5.4250    6.0958    0.0000 O   0  0  0  0  0  0  0  0  0  0  0  0
   -6.4042    2.9458    0.0000 C   0  0  0  0  0  0  0  0  0  0  0  0
   -1.4833    4.8792    0.0000 C   0  0  0  0  0  0  0  0  0  0  0  0
   -3.3083    4.6917    0.0000 C   0  0  0  0  0  0  0  0  0  0  0  0
   -3.0083    7.3917    0.0000 C   0  0  0  0  0  0  0  0  0  0  0  0
   -6.8875    2.2708    0.0000 C   0  0  0  0  0  0  0  0  0  0  0  0
   -0.5500    5.8125    0.0000 C   0  0  0  0  0  0  0  0  0  0  0  0
   -7.7125    2.3500    0.0000 O   0  0  0  0  0  0  0  0  0  0  0  0
   -5.2375    2.1083    0.0000 C   0  0  0  0  0  0  0  0  0  0  0  0
   -0.6583    5.0042    0.0000 C   0  0  0  0  0  0  0  0  0  0  0  0
   -5.7208    1.4375    0.0000 C   0  0  0  0  0  0  0  0  0  0  0  0
   -6.5333    1.5125    0.0000 C   0  0  0  0  0  0  0  0  0  0  0  0
   -8.1917    1.6833    0.0000 C   0  0  0  0  0  0  0  0  0  0  0  0
  2 12  1  0  0  0  0
  3  1  1  0  0  0  0
  4  1  2  0  0  0  0
  5  3  1  0  0  0  0
  6  2  1  0  0  0  0
  7  6  1  0  0  0  0
  8  2  2  0  0  0  0
  9  4  1  0  0  0  0
 10  8  1  0  0  0  0
 11  1  1  0  0  0  0
 12 13  1  0  0  0  0
 13 11  1  0  0  0  0
 14  9  1  0  0  0  0
 15 11  2  0  0  0  0
 16 14  2  0  0  0  0
 17  8  1  0  0  0  0
 18  3  1  0  0  0  0
 19  6  1  0  0  0  0
 20 16  1  0  0  0  0
 21 10  1  0  0  0  0
 22 20  1  0  0  0  0
 23 14  1  0  0  0  0
 24 17  1  0  0  0  0
 25 23  2  0  0  0  0
 26 25  1  0  0  0  0
 27 22  1  0  0  0  0
  5  9  2  0  0  0  0
 10  7  2  0  0  0  0
 26 20  2  0  0  0  0
 24 21  1  0  0  0  0
M  END
> <IDNUMBER>
F6525-0205

> <Chemical_Name>
3-(3-methoxyphenyl)-1-methyl-N-({2-methyl-2H,4H,5H,6H-cyclopenta[c]pyrazol-3-yl}methyl)-1H-pyrazole-5-carboxamide

> <CAS>
2034552-15-1

> <PriceCoeff>
1.00

> <MW>
365.43

> <Description>
solid

> <FSP3>
0.35

> <clogP>
2.06

> <TPSA>
73.97

> <Acceptor>
4

> <Donor>
1

> <RotBonds>
5

> <HAC>
27

> <Collection>
General

> <Reference_compound>
CHEMBL2269988

> <Similarity>
0.8420

$$$$
F2111-0036
  -ISIS-  06222321142D

 13 13  0  0  0  0  0  0  0  0999 V2000
    5.2917   -2.5542    0.0000 C   0  0  0  0  0  0  0  0  0  0  0  0
    6.0042   -2.9625    0.0000 N   0  0  0  0  0  0  0  0  0  0  0  0
    7.4375   -2.9542    0.0000 C   0  0  0  0  0  0  0  0  0  0  0  0
    5.2875   -1.7292    0.0000 O   0  0  0  0  0  0  0  0  0  0  0  0
    4.5792   -2.9667    0.0000 C   0  0  0  0  0  0  0  0  0  0  0  0
    7.4375   -3.7792    0.0000 O   0  0  0  0  0  0  0  0  0  0  0  0
    6.7167   -2.5500    0.0000 C   0  0  0  0  0  0  0  0  0  0  0  0
    8.1500   -2.5417    0.0000 O   0  0  0  0  0  0  0  0  0  0  0  0
    3.8625   -2.5542    0.0000 C   0  0  0  0  0  0  0  0  0  0  0  0
    4.5792   -3.8000    0.0000 C   0  0  0  0  0  0  0  0  0  0  0  0
    3.1500   -2.9750    0.0000 C   0  0  0  0  0  0  0  0  0  0  0  0
    3.8625   -4.2125    0.0000 C   0  0  0  0  0  0  0  0  0  0  0  0
    3.1500   -3.8000    0.0000 C   0  0  0  0  0  0  0  0  0  0  0  0
  2  1  1  0  0  0  0
  3  7  1  0  0  0  0
  4  1  2  0  0  0  0
  5  1  1  0  0  0  0
  6  3  2  0  0  0  0
  7  2  1  0  0  0  0
  8  3  1  0  0  0  0
  9  5  2  0  0  0  0
 10  5  1  0  0  0  0
 11  9  1  0  0  0  0
 12 10  2  0  0  0  0
 13 12  1  0  0  0  0
 11 13  2  0  0  0  0
M  END
> <IDNUMBER>
F2111-0036

> <Chemical_Name>
2-(phenylformamido)acetic acid

> <CAS>
495-69-2

> <PriceCoeff>
1.00

> <MW>
179.17

> <Description>
solid

> <FSP3>
0.11

> <clogP>
0.65

> <TPSA>
66.40

> <Acceptor>
3

> <Donor>
1

> <RotBonds>
3

> <HAC>
13

> <Collection>
General

> <Reference_compound>
CHEMBL274877

> <Similarity>
0.9680

$$$$
F3325-0124
  -ISIS-  06222321462D

 23 25  0  0  0  0  0  0  0  0999 V2000
    4.8792   -1.3250    0.0000 N   0  0  3  0  0  0  0  0  0  0  0  0
    5.3667   -1.9917    0.0000 C   0  0  0  0  0  0  0  0  0  0  0  0
    5.3625   -0.6542    0.0000 C   0  0  0  0  0  0  0  0  0  0  0  0
    6.1542   -1.7292    0.0000 C   0  0  3  0  0  0  0  0  0  0  0  0
    6.1417   -0.9042    0.0000 C   0  0  0  0  0  0  0  0  0  0  0  0
    6.8167   -2.2125    0.0000 N   0  0  3  0  0  0  0  0  0  0  0  0
    8.1542   -3.1750    0.0000 N   0  0  3  0  0  0  0  0  0  0  0  0
    5.1167   -2.7750    0.0000 O   0  0  0  0  0  0  0  0  0  0  0  0
    5.1042    0.1333    0.0000 O   0  0  0  0  0  0  0  0  0  0  0  0
    6.7292   -3.0292    0.0000 C   0  0  0  0  0  0  0  0  0  0  0  0
    7.5667   -1.8667    0.0000 C   0  0  0  0  0  0  0  0  0  0  0  0
    4.0542   -1.3292    0.0000 C   0  0  0  0  0  0  0  0  0  0  0  0
    8.8250   -3.6542    0.0000 C   0  0  0  0  0  0  0  0  0  0  0  0
    3.6375   -0.6167    0.0000 C   0  0  0  0  0  0  0  0  0  0  0  0
    7.4000   -3.5125    0.0000 C   0  0  0  0  0  0  0  0  0  0  0  0
    8.2375   -2.3542    0.0000 C   0  0  0  0  0  0  0  0  0  0  0  0
    2.8125   -0.6167    0.0000 C   0  0  0  0  0  0  0  0  0  0  0  0
    9.5750   -3.3250    0.0000 C   0  0  0  0  0  0  0  0  0  0  0  0
   10.2417   -3.8042    0.0000 C   0  0  0  0  0  0  0  0  0  0  0  0
    9.6542   -2.5042    0.0000 C   0  0  0  0  0  0  0  0  0  0  0  0
   10.4042   -2.1667    0.0000 C   0  0  0  0  0  0  0  0  0  0  0  0
   10.9917   -3.4667    0.0000 C   0  0  0  0  0  0  0  0  0  0  0  0
   11.0792   -2.6500    0.0000 C   0  0  0  0  0  0  0  0  0  0  0  0
  2  1  1  0  0  0  0
  3  1  1  0  0  0  0
  4  2  1  0  0  0  0
  5  3  1  0  0  0  0
  6  4  1  0  0  0  0
  7 16  1  0  0  0  0
  8  2  2  0  0  0  0
  9  3  2  0  0  0  0
 10  6  1  0  0  0  0
 11  6  1  0  0  0  0
 12  1  1  0  0  0  0
 13  7  1  0  0  0  0
 14 12  1  0  0  0  0
 15 10  1  0  0  0  0
 16 11  1  0  0  0  0
 17 14  2  0  0  0  0
 18 13  1  0  0  0  0
 19 18  2  0  0  0  0
 20 18  1  0  0  0  0
 21 20  2  0  0  0  0
 22 19  1  0  0  0  0
 23 21  1  0  0  0  0
  4  5  1  0  0  0  0
 15  7  1  0  0  0  0
 22 23  2  0  0  0  0
M  END
> <IDNUMBER>
F3325-0124

> <Chemical_Name>
3-(4-benzylpiperazin-1-yl)-1-(prop-2-en-1-yl)pyrrolidine-2,5-dione

> <CAS>
924861-20-1

> <PriceCoeff>
1.50

> <MW>
313.39

> <Description>
solid

> <FSP3>
0.44

> <clogP>
3.41

> <TPSA>
43.86

> <Acceptor>
4

> <Donor>
2

> <RotBonds>
5

> <HAC>
23

> <Collection>
Advanced

$$$$
F6374-1528
  -ISIS-  06222321462D

 27 29  0  0  0  0  0  0  0  0999 V2000
   -3.8708    3.8000    0.0000 S   0  0  3  0  0  0  0  0  0  0  0  0
   -6.0042    3.4458    0.0000 N   0  0  3  0  0  0  0  0  0  0  0  0
   -0.2875    6.6792    0.0000 C   0  0  0  0  0  0  0  0  0  0  0  0
   -3.1583    4.2042    0.0000 N   0  0  3  0  0  0  0  0  0  0  0  0
   -4.5917    3.4083    0.0000 C   0  0  0  0  0  0  0  0  0  0  0  0
   -0.2708    7.5125    0.0000 N   0  0  3  0  0  0  0  0  0  0  0  0
    0.5000    6.4167    0.0000 N   0  0  0  0  0  0  0  0  0  0  0  0
   -6.0250    2.6208    0.0000 C   0  0  0  0  0  0  0  0  0  0  0  0
   -6.7042    3.8750    0.0000 C   0  0  0  0  0  0  0  0  0  0  0  0
   -5.2833    3.8333    0.0000 C   0  0  0  0  0  0  0  0  0  0  0  0
   -1.0083    6.2750    0.0000 S   0  0  0  0  0  0  0  0  0  0  0  0
    0.9792    7.0792    0.0000 C   0  0  0  0  0  0  0  0  0  0  0  0
   -3.4750    3.0833    0.0000 O   0  0  0  0  0  0  0  0  0  0  0  0
   -4.0708    4.6042    0.0000 O   0  0  0  0  0  0  0  0  0  0  0  0
    0.5125    7.7500    0.0000 C   0  0  0  0  0  0  0  0  0  0  0  0
   -2.4458    3.8083    0.0000 C   0  0  0  0  0  0  0  0  0  0  0  0
   -3.1583    5.0292    0.0000 C   0  0  0  0  0  0  0  0  0  0  0  0
   -5.3208    2.1875    0.0000 O   0  0  0  0  0  0  0  0  0  0  0  0
   -6.6875    4.6917    0.0000 O   0  0  0  0  0  0  0  0  0  0  0  0
   -1.0083    5.4417    0.0000 C   0  0  0  0  0  0  0  0  0  0  0  0
   -1.7333    4.2167    0.0000 C   0  0  0  0  0  0  0  0  0  0  0  0
   -2.4500    5.4417    0.0000 C   0  0  0  0  0  0  0  0  0  0  0  0
   -1.7375    5.0292    0.0000 C   0  0  3  0  0  0  0  0  0  0  0  0
   -6.7417    2.2250    0.0000 C   0  0  0  0  0  0  0  0  0  0  0  0
   -7.4167    3.4792    0.0000 C   0  0  0  0  0  0  0  0  0  0  0  0
   -0.9333    8.0042    0.0000 C   0  0  0  0  0  0  0  0  0  0  0  0
   -7.4417    2.6583    0.0000 C   0  0  0  0  0  0  0  0  0  0  0  0
  2 10  1  0  0  0  0
  3 11  1  0  0  0  0
  4  1  1  0  0  0  0
  5  1  1  0  0  0  0
  6  3  1  0  0  0  0
  7  3  2  0  0  0  0
  8  2  1  0  0  0  0
  9  2  1  0  0  0  0
 10  5  1  0  0  0  0
 11 20  1  0  0  0  0
 12  7  1  0  0  0  0
 13  1  2  0  0  0  0
 14  1  2  0  0  0  0
 15  6  1  0  0  0  0
 16  4  1  0  0  0  0
 17  4  1  0  0  0  0
 18  8  2  0  0  0  0
 19  9  2  0  0  0  0
 20 23  1  0  0  0  0
 21 16  1  0  0  0  0
 22 17  1  0  0  0  0
 23 22  1  0  0  0  0
 24  8  1  0  0  0  0
 25  9  1  0  0  0  0
 26  6  1  0  0  0  0
 27 25  1  0  0  0  0
 21 23  1  0  0  0  0
 24 27  1  0  0  0  0
 15 12  2  0  0  0  0
M  END
> <IDNUMBER>
F6374-1528

> <Chemical_Name>
1-{2-[(4-{[(1-methyl-1H-imidazol-2-yl)sulfanyl]methyl}piperidin-1-yl)sulfonyl]ethyl}piperidine-2,6-dione

> <CAS>
1428375-84-1

> <PriceCoeff>
1.00

> <MW>
414.54

> <Description>
oil

> <FSP3>
0.71

> <clogP>
1.53

> <TPSA>
126.26

> <Acceptor>
5

> <Donor>
1

> <RotBonds>
7

> <HAC>
27

> <Collection>
General

$$$$
F3259-0267
  -ISIS-  06222321442D

 21 23  0  0  0  0  0  0  0  0999 V2000
    5.0917    2.0250    0.0000 C   0  0  0  0  0  0  0  0  0  0  0  0
    4.4417    1.6500    0.0000 C   0  0  0  0  0  0  0  0  0  0  0  0
    5.7417    1.6500    0.0000 N   0  0  3  0  0  0  0  0  0  0  0  0
    5.0917    0.5250    0.0000 N   0  0  3  0  0  0  0  0  0  0  0  0
    5.7417    0.9000    0.0000 C   0  0  0  0  0  0  0  0  0  0  0  0
    4.4417    0.9000    0.0000 C   0  0  0  0  0  0  0  0  0  0  0  0
    4.9417    2.7583    0.0000 N   0  0  0  0  0  0  0  0  0  0  0  0
    3.8875    2.1583    0.0000 N   0  0  3  0  0  0  0  0  0  0  0  0
    4.1917    2.8375    0.0000 C   0  0  0  0  0  0  0  0  0  0  0  0
    6.3917    0.5250    0.0000 O   0  0  0  0  0  0  0  0  0  0  0  0
    3.7917    0.5250    0.0000 O   0  0  0  0  0  0  0  0  0  0  0  0
    3.1542    1.9958    0.0000 C   0  0  0  0  0  0  0  0  0  0  0  0
    6.3917    2.0250    0.0000 C   0  0  0  0  0  0  0  0  0  0  0  0
    5.0917   -0.2167    0.0000 C   0  0  0  0  0  0  0  0  0  0  0  0
    2.6542    2.5583    0.0000 C   0  0  0  0  0  0  0  0  0  0  0  0
    1.9167    2.3958    0.0000 C   0  0  0  0  0  0  0  0  0  0  0  0
    1.4167    2.9583    0.0000 C   0  0  0  0  0  0  0  0  0  0  0  0
    1.6875    1.6833    0.0000 C   0  0  0  0  0  0  0  0  0  0  0  0
    0.9542    1.5333    0.0000 C   0  0  0  0  0  0  0  0  0  0  0  0
    0.6792    2.8000    0.0000 C   0  0  0  0  0  0  0  0  0  0  0  0
    0.4542    2.0875    0.0000 C   0  0  0  0  0  0  0  0  0  0  0  0
  2  1  2  0  0  0  0
  3  1  1  0  0  0  0
  4  5  1  0  0  0  0
  5  3  1  0  0  0  0
  6  2  1  0  0  0  0
  7  1  1  0  0  0  0
  8  2  1  0  0  0  0
  9  7  2  0  0  0  0
 10  5  2  0  0  0  0
 11  6  2  0  0  0  0
 12  8  1  0  0  0  0
 13  3  1  0  0  0  0
 14  4  1  0  0  0  0
 15 12  1  0  0  0  0
 16 15  1  0  0  0  0
 17 16  2  0  0  0  0
 18 16  1  0  0  0  0
 19 18  2  0  0  0  0
 20 17  1  0  0  0  0
 21 19  1  0  0  0  0
  8  9  1  0  0  0  0
  4  6  1  0  0  0  0
 20 21  2  0  0  0  0
M  END
> <IDNUMBER>
F3259-0267

> <Chemical_Name>
1,3-dimethyl-7-(2-phenylethyl)-2,3,6,7-tetrahydro-1H-purine-2,6-dione

> <CAS>
374545-12-7

> <PriceCoeff>
1.50

> <MW>
284.31

> <Description>
oil

> <FSP3>
0.27

> <clogP>
2.06

> <TPSA>
58.44

> <Acceptor>
3

> <Donor>
1

> <RotBonds>
3

> <HAC>
21

> <Collection>
Advanced

> <Reference_compound>
CHEMBL113

> <Similarity>
0.8320

$$$$
F6401-0058
  -ISIS-  06222321462D

 24 26  0  0  0  0  0  0  0  0999 V2000
    5.0375   -1.2167    0.0000 N   0  0  3  0  0  0  0  0  0  0  0  0
    4.8292   -2.2000    0.0000 C   0  0  0  0  0  0  0  0  0  0  0  0
    4.2917   -0.5542    0.0000 C   0  0  0  0  0  0  0  0  0  0  0  0
    3.1375   -1.8417    0.0000 C   0  0  3  0  0  0  0  0  0  0  0  0
    2.1875   -2.1542    0.0000 C   0  0  0  0  0  0  0  0  0  0  0  0
    3.8875   -2.5125    0.0000 C   0  0  0  0  0  0  0  0  0  0  0  0
    3.3417   -0.8667    0.0000 C   0  0  0  0  0  0  0  0  0  0  0  0
    6.1750   -0.8500    0.0000 C   0  0  0  0  0  0  0  0  0  0  0  0
    1.8792   -3.1167    0.0000 S   0  0  0  0  0  0  0  0  0  0  0  0
    6.3792    0.1333    0.0000 C   0  0  0  0  0  0  0  0  0  0  0  0
    4.4167    0.0333    0.0000 O   0  0  0  0  0  0  0  0  0  0  0  0
    5.5792   -2.8667    0.0000 O   0  0  0  0  0  0  0  0  0  0  0  0
    7.3292    0.4458    0.0000 N   0  0  0  0  0  0  0  0  0  0  0  0
    1.3792   -1.5792    0.0000 C   0  0  0  0  0  0  0  0  0  0  0  0
    0.8792   -3.1167    0.0000 C   0  0  0  0  0  0  0  0  0  0  0  0
    0.5667   -2.1542    0.0000 C   0  0  0  0  0  0  0  0  0  0  0  0
    5.6375    0.8000    0.0000 O   0  0  0  0  0  0  0  0  0  0  0  0
    7.5375    1.4250    0.0000 C   0  0  0  0  0  0  0  0  0  0  0  0
    8.4875    1.7333    0.0000 C   0  0  0  0  0  0  0  0  0  0  0  0
    8.6917    2.7125    0.0000 C   0  0  0  0  0  0  0  0  0  0  0  0
    9.2292    1.0708    0.0000 C   0  0  0  0  0  0  0  0  0  0  0  0
   10.1792    1.3750    0.0000 C   0  0  0  0  0  0  0  0  0  0  0  0
    9.6417    3.0208    0.0000 C   0  0  0  0  0  0  0  0  0  0  0  0
   10.3875    2.3583    0.0000 C   0  0  0  0  0  0  0  0  0  0  0  0
  2  1  1  0  0  0  0
  3  1  1  0  0  0  0
  4  7  1  0  0  0  0
  5  4  1  0  0  0  0
  6  2  1  0  0  0  0
  7  3  1  0  0  0  0
  8  1  1  0  0  0  0
  9  5  1  0  0  0  0
 10  8  1  0  0  0  0
 11  3  2  0  0  0  0
 12  2  2  0  0  0  0
 13 10  1  0  0  0  0
 14  5  2  0  0  0  0
 15  9  1  0  0  0  0
 16 14  1  0  0  0  0
 17 10  2  0  0  0  0
 18 13  1  0  0  0  0
 19 18  1  0  0  0  0
 20 19  1  0  0  0  0
 21 19  2  0  0  0  0
 22 21  1  0  0  0  0
 23 20  2  0  0  0  0
 24 22  2  0  0  0  0
  4  6  1  0  0  0  0
 16 15  2  0  0  0  0
 23 24  1  0  0  0  0
M  END
> <IDNUMBER>
F6401-0058

> <Chemical_Name>
N-benzyl-2-[2,6-dioxo-4-(thiophen-2-yl)piperidin-1-yl]acetamide

> <CAS>
1396768-54-9

> <PriceCoeff>
1.00

> <MW>
342.41

> <Description>
solid

> <FSP3>
0.28

> <clogP>
2.40

> <TPSA>
94.72

> <Acceptor>
3

> <Donor>
1

> <RotBonds>
5

> <HAC>
24

> <Collection>
General

$$$$
F1085-0016
  -ISIS-  06222321452D

 15 15  0  0  0  0  0  0  0  0999 V2000
   -0.2958   -0.5000    0.0000 C   0  0  0  0  0  0  0  0  0  0  0  0
    0.1500   -0.3375    0.0000 C   0  0  0  0  0  0  0  0  0  0  0  0
   -0.3500   -0.9375    0.0000 C   0  0  0  0  0  0  0  0  0  0  0  0
   -0.6333   -0.2167    0.0000 C   0  0  0  0  0  0  0  0  0  0  0  0
    0.4875   -0.6167    0.0000 N   0  0  0  0  0  0  0  0  0  0  0  0
   -0.7708   -1.1000    0.0000 C   0  0  0  0  0  0  0  0  0  0  0  0
    1.2500   -0.7375    0.0000 C   0  0  0  0  0  0  0  0  0  0  0  0
    0.2292    0.1208    0.0000 O   0  0  0  0  0  0  0  0  0  0  0  0
    1.6667   -0.5792    0.0000 O   0  0  0  0  0  0  0  0  0  0  0  0
    0.9042   -0.4542    0.0000 C   0  0  0  0  0  0  0  0  0  0  0  0
   -1.1125   -0.8167    0.0000 C   0  0  0  0  0  0  0  0  0  0  0  0
    0.0042   -1.2375    0.0000 Cl  0  0  0  0  0  0  0  0  0  0  0  0
   -1.0500   -0.3792    0.0000 C   0  0  0  0  0  0  0  0  0  0  0  0
    1.1667   -1.1792    0.0000 O   0  0  0  0  0  0  0  0  0  0  0  0
   -1.5333   -0.9792    0.0000 Cl  0  0  0  0  0  0  0  0  0  0  0  0
  2  1  1  0  0  0  0
  3  1  2  0  0  0  0
  4  1  1  0  0  0  0
  5  2  1  0  0  0  0
  6  3  1  0  0  0  0
  7 10  1  0  0  0  0
  8  2  2  0  0  0  0
  9  7  2  0  0  0  0
 10  5  1  0  0  0  0
 11 13  1  0  0  0  0
 12  3  1  0  0  0  0
 13  4  2  0  0  0  0
 14  7  1  0  0  0  0
 15 11  1  0  0  0  0
 11  6  2  0  0  0  0
M  END
> <IDNUMBER>
F1085-0016

> <Chemical_Name>
2-[(2,4-dichlorophenyl)formamido]acetic acid

> <CAS>
7554-79-2

> <PriceCoeff>
1.00

> <MW>
248.06

> <Description>
solid

> <FSP3>
0.11

> <clogP>
1.52

> <TPSA>
66.40

> <Acceptor>
3

> <Donor>
1

> <RotBonds>
3

> <HAC>
15

> <Collection>
General

> <Reference_compound>
CHEMBL462

> <Similarity>
0.8540

$$$$
F3176-0007
  -ISIS-  06222321462D

 22 24  0  0  0  0  0  0  0  0999 V2000
    3.6375    2.1083    0.0000 C   0  0  0  0  0  0  0  0  0  0  0  0
    3.6375    3.5083    0.0000 C   0  0  0  0  0  0  0  0  0  0  0  0
    4.9667    1.6708    0.0000 N   0  0  0  0  0  0  0  0  0  0  0  0
    2.4250    1.4000    0.0000 N   0  0  3  0  0  0  0  0  0  0  0  0
    1.2125    3.5000    0.0000 N   0  0  3  0  0  0  0  0  0  0  0  0
    1.2125    2.1083    0.0000 C   0  0  0  0  0  0  0  0  0  0  0  0
    2.4167    4.2000    0.0000 C   0  0  0  0  0  0  0  0  0  0  0  0
    5.7917    2.8083    0.0000 C   0  0  0  0  0  0  0  0  0  0  0  0
    4.9667    3.9375    0.0000 N   0  0  0  0  0  0  0  0  0  0  0  0
    7.1917    2.8083    0.0000 N   0  0  3  0  0  0  0  0  0  0  0  0
    0.0000    1.4083    0.0000 O   0  0  0  0  0  0  0  0  0  0  0  0
    2.4167    5.5917    0.0000 O   0  0  0  0  0  0  0  0  0  0  0  0
    7.8917    1.5958    0.0000 C   0  0  0  0  0  0  0  0  0  0  0  0
    2.4167   -0.0000    0.0000 C   0  0  0  0  0  0  0  0  0  0  0  0
    0.0000    4.2000    0.0000 C   0  0  0  0  0  0  0  0  0  0  0  0
    9.2917    1.5958    0.0000 C   0  0  0  0  0  0  0  0  0  0  0  0
    7.8917    4.0125    0.0000 C   0  0  0  0  0  0  0  0  0  0  0  0
    9.9917    0.3833    0.0000 C   0  0  0  0  0  0  0  0  0  0  0  0
    9.9917    2.8083    0.0000 C   0  0  0  0  0  0  0  0  0  0  0  0
   11.3917    2.8083    0.0000 C   0  0  0  0  0  0  0  0  0  0  0  0
   11.3917    0.3833    0.0000 C   0  0  0  0  0  0  0  0  0  0  0  0
   12.0917    1.5958    0.0000 C   0  0  0  0  0  0  0  0  0  0  0  0
  2  1  2  0  0  0  0
  3  1  1  0  0  0  0
  4  1  1  0  0  0  0
  5  6  1  0  0  0  0
  6  4  1  0  0  0  0
  7  2  1  0  0  0  0
  8  3  2  0  0  0  0
  9  2  1  0  0  0  0
 10  8  1  0  0  0  0
 11  6  2  0  0  0  0
 12  7  2  0  0  0  0
 13 10  1  0  0  0  0
 14  4  1  0  0  0  0
 15  5  1  0  0  0  0
 16 13  1  0  0  0  0
 17 10  1  0  0  0  0
 18 16  2  0  0  0  0
 19 16  1  0  0  0  0
 20 19  2  0  0  0  0
 21 18  1  0  0  0  0
 22 20  1  0  0  0  0
  9  8  1  0  0  0  0
  5  7  1  0  0  0  0
 22 21  2  0  0  0  0
M  END
> <IDNUMBER>
F3176-0007

> <Chemical_Name>
8-[benzyl(methyl)amino]-1,3-dimethyl-2,3,6,7-tetrahydro-1H-purine-2,6-dione

> <CAS>
40799-92-6

> <PriceCoeff>
1.50

> <MW>
299.33

> <Description>
solid

> <FSP3>
0.27

> <clogP>
2.45

> <TPSA>
72.54

> <Acceptor>
4

> <Donor>
3

> <RotBonds>
3

> <HAC>
22

> <Collection>
Advanced

> <Reference_compound>
CHEMBL190

> <Similarity>
0.8050

$$$$
F3316-0245
  -ISIS-  06222321462D

 18 19  0  0  0  0  0  0  0  0999 V2000
    2.1792   -1.6542    0.0000 N   0  0  3  0  0  0  0  0  0  0  0  0
    1.3625   -1.6042    0.0000 N   0  0  0  0  0  0  0  0  0  0  0  0
    1.8375   -0.3667    0.0000 C   0  0  0  0  0  0  0  0  0  0  0  0
    2.4792   -0.8792    0.0000 C   0  0  0  0  0  0  0  0  0  0  0  0
    1.1500   -0.8167    0.0000 C   0  0  0  0  0  0  0  0  0  0  0  0
    5.0542   -2.3542    0.0000 C   0  0  0  0  0  0  0  0  0  0  0  0
    4.6500   -3.0792    0.0000 C   0  0  0  0  0  0  0  0  0  0  0  0
    4.8042   -1.5792    0.0000 S   0  0  0  0  0  0  0  0  0  0  0  0
    5.8792   -2.3542    0.0000 C   0  0  0  0  0  0  0  0  0  0  0  0
    5.4625   -1.0917    0.0000 C   0  0  0  0  0  0  0  0  0  0  0  0
    2.5917   -2.3667    0.0000 C   0  0  0  0  0  0  0  0  0  0  0  0
    1.8292    0.4583    0.0000 Cl  0  0  0  0  0  0  0  0  0  0  0  0
    5.0542   -3.7917    0.0000 O   0  0  0  0  0  0  0  0  0  0  0  0
    6.1292   -1.5667    0.0000 C   0  0  0  0  0  0  0  0  0  0  0  0
    3.8250   -3.0792    0.0000 N   0  0  0  0  0  0  0  0  0  0  0  0
    3.2750   -0.6667    0.0000 C   0  0  0  0  0  0  0  0  0  0  0  0
    3.4167   -2.3667    0.0000 C   0  0  0  0  0  0  0  0  0  0  0  0
    0.3500   -0.6000    0.0000 C   0  0  0  0  0  0  0  0  0  0  0  0
  2  1  1  0  0  0  0
  3  4  2  0  0  0  0
  4  1  1  0  0  0  0
  5  2  2  0  0  0  0
  6  7  1  0  0  0  0
  7 15  1  0  0  0  0
  8  6  1  0  0  0  0
  9  6  2  0  0  0  0
 10  8  1  0  0  0  0
 11  1  1  0  0  0  0
 12  3  1  0  0  0  0
 13  7  2  0  0  0  0
 14  9  1  0  0  0  0
 15 17  1  0  0  0  0
 16  4  1  0  0  0  0
 17 11  1  0  0  0  0
 18  5  1  0  0  0  0
  3  5  1  0  0  0  0
 14 10  2  0  0  0  0
M  END
> <IDNUMBER>
F3316-0245

> <Chemical_Name>
N-[2-(4-chloro-3,5-dimethyl-1H-pyrazol-1-yl)ethyl]thiophene-2-carboxamide

> <CAS>
957502-09-9

> <PriceCoeff>
1.50

> <MW>
283.78

> <Description>
solid

> <FSP3>
0.33

> <clogP>
2.87

> <TPSA>
75.16

> <Acceptor>
2

> <Donor>
1

> <RotBonds>
4

> <HAC>
18

> <Collection>
Advanced

$$$$
F5032-0055
  -ISIS-  06222321462D

 21 23  0  0  0  0  0  0  0  0999 V2000
    3.1042    2.0375    0.0000 C   0  0  0  0  0  0  0  0  0  0  0  0
    3.4167    1.0833    0.0000 C   0  0  0  0  0  0  0  0  0  0  0  0
    1.7625    0.5583    0.0000 N   0  0  3  0  0  0  0  0  0  0  0  0
    3.9167    2.6208    0.0000 N   0  0  0  0  0  0  0  0  0  0  0  0
    2.1292    2.2458    0.0000 N   0  0  3  0  0  0  0  0  0  0  0  0
    1.4625    1.5083    0.0000 C   0  0  0  0  0  0  0  0  0  0  0  0
    2.7417    0.3458    0.0000 C   0  0  0  0  0  0  0  0  0  0  0  0
    4.7250    2.0375    0.0000 C   0  0  0  0  0  0  0  0  0  0  0  0
    4.4167    1.0833    0.0000 N   0  0  3  0  0  0  0  0  0  0  0  0
    0.9542   -0.3292    0.0000 C   0  0  0  0  0  0  0  0  0  0  0  0
    0.4792    1.7250    0.0000 O   0  0  0  0  0  0  0  0  0  0  0  0
    2.9167   -0.2292    0.0000 O   0  0  0  0  0  0  0  0  0  0  0  0
    5.6750    2.3500    0.0000 O   0  0  0  0  0  0  0  0  0  0  0  0
    1.8250    3.1958    0.0000 C   0  0  0  0  0  0  0  0  0  0  0  0
    5.0042    0.2708    0.0000 C   0  0  0  0  0  0  0  0  0  0  0  0
    1.2542   -1.2875    0.0000 C   0  0  0  0  0  0  0  0  0  0  0  0
    2.2375   -1.5000    0.0000 C   0  0  0  0  0  0  0  0  0  0  0  0
    0.5792   -2.0292    0.0000 C   0  0  0  0  0  0  0  0  0  0  0  0
    0.8875   -2.9750    0.0000 C   0  0  0  0  0  0  0  0  0  0  0  0
    2.5375   -2.4542    0.0000 C   0  0  0  0  0  0  0  0  0  0  0  0
    1.8667   -3.1917    0.0000 C   0  0  0  0  0  0  0  0  0  0  0  0
  2  1  2  0  0  0  0
  3  6  1  0  0  0  0
  4  1  1  0  0  0  0
  5  1  1  0  0  0  0
  6  5  1  0  0  0  0
  7  2  1  0  0  0  0
  8  4  2  0  0  0  0
  9  2  1  0  0  0  0
 10  3  1  0  0  0  0
 11  6  2  0  0  0  0
 12  7  2  0  0  0  0
 13  8  1  0  0  0  0
 14  5  1  0  0  0  0
 15  9  1  0  0  0  0
 16 10  1  0  0  0  0
 17 16  1  0  0  0  0
 18 16  2  0  0  0  0
 19 18  1  0  0  0  0
 20 17  2  0  0  0  0
 21 19  2  0  0  0  0
  8  9  1  0  0  0  0
  3  7  1  0  0  0  0
 21 20  1  0  0  0  0
M  END
> <IDNUMBER>
F5032-0055

> <Chemical_Name>
1-benzyl-8-hydroxy-3,7-dimethyl-2,3,6,7-tetrahydro-1H-purine-2,6-dione

> <CAS>
223444-18-6

> <PriceCoeff>
1.50

> <MW>
286.29

> <Description>
solid

> <FSP3>
0.21

> <clogP>
2.09

> <TPSA>
78.67

> <Acceptor>
4

> <Donor>
2

> <RotBonds>
2

> <HAC>
21

> <Collection>
Advanced

> <Reference_compound>
CHEMBL113

> <Similarity>
0.8030

$$$$
F2135-0535
  -ISIS-  06222321442D

 15 16  0  0  0  0  0  0  0  0999 V2000
    6.1000   -3.5250    0.0000 C   0  0  0  0  0  0  0  0  0  0  0  0
    7.4375   -3.5250    0.0000 N   0  0  0  0  0  0  0  0  0  0  0  0
    6.3542   -2.7375    0.0000 C   0  0  0  0  0  0  0  0  0  0  0  0
    6.7667   -4.0042    0.0000 O   0  0  0  0  0  0  0  0  0  0  0  0
    7.1792   -2.7375    0.0000 C   0  0  0  0  0  0  0  0  0  0  0  0
    5.3167   -3.7792    0.0000 C   0  0  0  0  0  0  0  0  0  0  0  0
    4.7042   -3.2292    0.0000 C   0  0  0  0  0  0  0  0  0  0  0  0
    5.1500   -4.5792    0.0000 C   0  0  0  0  0  0  0  0  0  0  0  0
    3.7500   -4.2917    0.0000 C   0  0  0  0  0  0  0  0  0  0  0  0
    4.3667   -4.8417    0.0000 C   0  0  0  0  0  0  0  0  0  0  0  0
    3.9167   -3.4792    0.0000 C   0  0  0  0  0  0  0  0  0  0  0  0
    7.6667   -2.0667    0.0000 C   0  0  0  0  0  0  0  0  0  0  0  0
    2.9667   -4.5500    0.0000 O   0  0  0  0  0  0  0  0  0  0  0  0
    8.4875   -2.1542    0.0000 O   0  0  0  0  0  0  0  0  0  0  0  0
    2.3500   -3.9917    0.0000 C   0  0  0  0  0  0  0  0  0  0  0  0
  2  4  1  0  0  0  0
  3  1  2  0  0  0  0
  4  1  1  0  0  0  0
  5  3  1  0  0  0  0
  6  1  1  0  0  0  0
  7  6  2  0  0  0  0
  8  6  1  0  0  0  0
  9 10  1  0  0  0  0
 10  8  2  0  0  0  0
 11  7  1  0  0  0  0
 12  5  1  0  0  0  0
 13  9  1  0  0  0  0
 14 12  1  0  0  0  0
 15 13  1  0  0  0  0
  2  5  2  0  0  0  0
 11  9  2  0  0  0  0
M  END
> <IDNUMBER>
F2135-0535

> <Chemical_Name>
[5-(4-methoxyphenyl)-1,2-oxazol-3-yl]methanol

> <CAS>
58492-77-6

> <PriceCoeff>
1.50

> <MW>
205.21

> <Description>
solid

> <FSP3>
0.18

> <clogP>
1.21

> <TPSA>
55.49

> <Acceptor>
4

> <Donor>
1

> <RotBonds>
3

> <HAC>
15

> <Collection>
Advanced

> <Reference_compound>
CHEMBL1481861

> <Similarity>
0.8050

$$$$
F8889-8011
  -ISIS-  06222321442D

 12 12  0  0  0  0  0  0  0  0999 V2000
    0.7125    2.0958    0.0000 C   0  0  0  0  0  0  0  0  0  0  0  0
    0.7125    1.2708    0.0000 C   0  0  3  0  0  0  0  0  0  0  0  0
    0.0000    0.8583    0.0000 C   0  0  0  0  0  0  0  0  0  0  0  0
    1.4250    2.5083    0.0000 O   0  0  0  0  0  0  0  0  0  0  0  0
    0.0000   -0.0000    0.0000 C   0  0  0  0  0  0  0  0  0  0  0  0
   -0.7500   -0.4125    0.0000 O   0  0  0  0  0  0  0  0  0  0  0  0
    0.0000    2.5083    0.0000 O   0  0  0  0  0  0  0  0  0  0  0  0
    1.4250    0.8583    0.0000 C   0  0  0  0  0  0  0  0  0  0  0  0
    1.4250   -0.0000    0.0000 C   0  0  0  0  0  0  0  0  0  0  0  0
    0.7125   -0.4125    0.0000 C   0  0  0  0  0  0  0  0  0  0  0  0
    0.0000    3.3333    0.0000 C   0  0  0  0  0  0  0  0  0  0  0  0
   -0.7500    3.7458    0.0000 C   0  0  0  0  0  0  0  0  0  0  0  0
  2  1  1  0  0  0  0
  3  2  1  0  0  0  0
  4  1  2  0  0  0  0
  5  3  1  0  0  0  0
  6  5  2  0  0  0  0
  7  1  1  0  0  0  0
  8  2  1  0  0  0  0
  9  8  1  0  0  0  0
 10  9  1  0  0  0  0
 11  7  1  0  0  0  0
 12 11  1  0  0  0  0
 10  5  1  0  0  0  0
M  END
> <IDNUMBER>
F8889-8011

> <Chemical_Name>
ethyl 3-oxocyclohexane-1-carboxylate

> <CAS>
33668-25-6

> <PriceCoeff>
1.00

> <MW>
170.21

> <Description>
liquid

> <FSP3>
0.78

> <clogP>
1.01

> <TPSA>
43.37

> <Acceptor>
3

> <Donor>
0

> <RotBonds>
3

> <HAC>
12

> <Collection>
General

> <Reference_compound>
CHEMBL2268562

> <Similarity>
0.8270

$$$$
F2130-0143
  -ISIS-  06222321462D

 16 17  0  0  0  0  0  0  0  0999 V2000
   -2.6625    2.9958    0.0000 C   0  0  0  0  0  0  0  0  0  0  0  0
   -2.9208    3.7833    0.0000 C   0  0  0  0  0  0  0  0  0  0  0  0
   -3.9958    2.9958    0.0000 N   0  0  0  0  0  0  0  0  0  0  0  0
   -3.7375    3.7833    0.0000 C   0  0  0  0  0  0  0  0  0  0  0  0
   -3.3333    2.5208    0.0000 N   0  0  0  0  0  0  0  0  0  0  0  0
   -1.8833    2.7458    0.0000 C   0  0  0  0  0  0  0  0  0  0  0  0
   -4.2208    4.4417    0.0000 C   0  0  0  0  0  0  0  0  0  0  0  0
   -2.4333    4.4417    0.0000 Br  0  0  0  0  0  0  0  0  0  0  0  0
   -1.7125    1.9458    0.0000 O   0  0  0  0  0  0  0  0  0  0  0  0
   -5.0375    4.3542    0.0000 C   0  0  0  0  0  0  0  0  0  0  0  0
   -3.8958    5.1917    0.0000 C   0  0  0  0  0  0  0  0  0  0  0  0
   -1.2708    3.2958    0.0000 O   0  0  0  0  0  0  0  0  0  0  0  0
   -5.1833    5.7667    0.0000 C   0  0  0  0  0  0  0  0  0  0  0  0
   -5.5208    5.0167    0.0000 C   0  0  0  0  0  0  0  0  0  0  0  0
   -4.3708    5.8542    0.0000 C   0  0  0  0  0  0  0  0  0  0  0  0
   -5.6625    6.4292    0.0000 F   0  0  0  0  0  0  0  0  0  0  0  0
  2  1  2  0  0  0  0
  3  5  1  0  0  0  0
  4  2  1  0  0  0  0
  5  1  1  0  0  0  0
  6  1  1  0  0  0  0
  7  4  1  0  0  0  0
  8  2  1  0  0  0  0
  9  6  2  0  0  0  0
 10  7  2  0  0  0  0
 11  7  1  0  0  0  0
 12  6  1  0  0  0  0
 13 15  1  0  0  0  0
 14 10  1  0  0  0  0
 15 11  2  0  0  0  0
 16 13  1  0  0  0  0
  3  4  2  0  0  0  0
 14 13  2  0  0  0  0
M  END
> <IDNUMBER>
F2130-0143

> <Chemical_Name>
4-bromo-3-(4-fluorophenyl)-1H-pyrazole-5-carboxylic acid

> <CAS>
1350443-31-0

> <PriceCoeff>
1.50

> <MW>
285.07

> <Description>
solid

> <FSP3>
0.00

> <clogP>
2.79

> <TPSA>
65.98

> <Acceptor>
4

> <Donor>
2

> <RotBonds>
2

> <HAC>
16

> <Collection>
Advanced

$$$$
F2609-0840
  -ISIS-  06222321462D

 26 29  0  0  0  0  0  0  0  0999 V2000
   -4.5583    1.3333    0.0000 C   0  0  0  0  0  0  0  0  0  0  0  0
   -0.2833    2.9833    0.0000 N   0  0  3  0  0  0  0  0  0  0  0  0
   -4.6458    0.5208    0.0000 N   0  0  0  0  0  0  0  0  0  0  0  0
   -5.3083    1.6583    0.0000 S   0  0  0  0  0  0  0  0  0  0  0  0
   -3.8458    1.7375    0.0000 N   0  0  3  0  0  0  0  0  0  0  0  0
   -1.7083    2.9833    0.0000 C   0  0  0  0  0  0  0  0  0  0  0  0
   -1.0000    2.5625    0.0000 C   0  0  0  0  0  0  0  0  0  0  0  0
   -0.1958    3.7958    0.0000 C   0  0  0  0  0  0  0  0  0  0  0  0
    0.4625    2.6333    0.0000 C   0  0  0  0  0  0  0  0  0  0  0  0
   -5.8458    1.0500    0.0000 C   0  0  0  0  0  0  0  0  0  0  0  0
   -2.4250    2.5625    0.0000 N   0  0  3  0  0  0  0  0  0  0  0  0
   -5.4375    0.3458    0.0000 C   0  0  0  0  0  0  0  0  0  0  0  0
   -6.6542    1.0500    0.0000 C   0  0  0  0  0  0  0  0  0  0  0  0
   -3.8458    2.5625    0.0000 C   0  0  0  0  0  0  0  0  0  0  0  0
   -3.1375    1.3333    0.0000 C   0  0  0  0  0  0  0  0  0  0  0  0
   -3.1375    2.9833    0.0000 C   0  0  0  0  0  0  0  0  0  0  0  0
   -2.4250    1.7375    0.0000 C   0  0  0  0  0  0  0  0  0  0  0  0
   -1.7083    3.8000    0.0000 O   0  0  0  0  0  0  0  0  0  0  0  0
    0.6042    3.9583    0.0000 C   0  0  0  0  0  0  0  0  0  0  0  0
    1.0167    3.2458    0.0000 C   0  0  0  0  0  0  0  0  0  0  0  0
   -0.7958    4.3417    0.0000 O   0  0  0  0  0  0  0  0  0  0  0  0
    0.6292    1.8250    0.0000 O   0  0  0  0  0  0  0  0  0  0  0  0
   -5.8458   -0.3625    0.0000 C   0  0  0  0  0  0  0  0  0  0  0  0
   -7.0667    0.3458    0.0000 C   0  0  0  0  0  0  0  0  0  0  0  0
   -6.6542   -0.3667    0.0000 C   0  0  0  0  0  0  0  0  0  0  0  0
   -7.9000    0.1208    0.0000 F   0  0  0  0  0  0  0  0  0  0  0  0
  2  7  1  0  0  0  0
  3  1  2  0  0  0  0
  4  1  1  0  0  0  0
  5  1  1  0  0  0  0
  6 11  1  0  0  0  0
  7  6  1  0  0  0  0
  8  2  1  0  0  0  0
  9  2  1  0  0  0  0
 10  4  1  0  0  0  0
 11 17  1  0  0  0  0
 12  3  1  0  0  0  0
 13 10  1  0  0  0  0
 14  5  1  0  0  0  0
 15  5  1  0  0  0  0
 16 14  1  0  0  0  0
 17 15  1  0  0  0  0
 18  6  2  0  0  0  0
 19  8  1  0  0  0  0
 20  9  1  0  0  0  0
 21  8  2  0  0  0  0
 22  9  2  0  0  0  0
 23 12  1  0  0  0  0
 24 13  2  0  0  0  0
 25 23  2  0  0  0  0
 26 24  1  0  0  0  0
 10 12  2  0  0  0  0
 16 11  1  0  0  0  0
 25 24  1  0  0  0  0
 19 20  1  0  0  0  0
M  END
> <IDNUMBER>
F2609-0840

> <Chemical_Name>
1-{2-[4-(6-fluoro-1,3-benzothiazol-2-yl)piperazin-1-yl]-2-oxoethyl}pyrrolidine-2,5-dione

> <CAS>
897472-30-9

> <PriceCoeff>
1.50

> <MW>
376.41

> <Description>
solid

> <FSP3>
0.41

> <clogP>
1.97

> <TPSA>
102.06

> <Acceptor>
4

> <Donor>
1

> <RotBonds>
4

> <HAC>
26

> <Collection>
Advanced

$$$$
F0917-0657
  -ISIS-  06222321142D

 12 12  0  0  0  0  0  0  0  0999 V2000
   14.4542   -8.3542    0.0000 C   0  0  0  0  0  0  0  0  0  0  0  0
   11.3667   -8.3542    0.0000 S   0  0  0  0  0  0  0  0  0  0  0  0
   14.4417   -6.5542    0.0000 O   0  0  0  0  0  0  0  0  0  0  0  0
   12.9125   -9.2500    0.0000 C   0  0  0  0  0  0  0  0  0  0  0  0
    9.8292   -9.2500    0.0000 C   0  0  0  0  0  0  0  0  0  0  0  0
    6.7375  -11.0417    0.0000 C   0  0  0  0  0  0  0  0  0  0  0  0
   16.0000   -9.2292    0.0000 O   0  0  0  0  0  0  0  0  0  0  0  0
    5.1750  -11.9292    0.0000 F   0  0  0  0  0  0  0  0  0  0  0  0
    9.8292  -11.0417    0.0000 C   0  0  0  0  0  0  0  0  0  0  0  0
    8.2792   -8.3542    0.0000 C   0  0  0  0  0  0  0  0  0  0  0  0
    8.2792  -11.9375    0.0000 C   0  0  0  0  0  0  0  0  0  0  0  0
    6.7375   -9.2500    0.0000 C   0  0  0  0  0  0  0  0  0  0  0  0
  2  4  1  0  0  0  0
  3  1  2  0  0  0  0
  4  1  1  0  0  0  0
  5  2  1  0  0  0  0
  6 12  2  0  0  0  0
  7  1  1  0  0  0  0
  8  6  1  0  0  0  0
  9  5  1  0  0  0  0
 10  5  2  0  0  0  0
 11  9  2  0  0  0  0
 12 10  1  0  0  0  0
 11  6  1  0  0  0  0
M  END
> <IDNUMBER>
F0917-0657

> <Chemical_Name>
2-[(4-fluorophenyl)sulfanyl]acetic acid

> <CAS>
332-51-4

> <PriceCoeff>
1.00

> <MW>
186.20

> <Description>
solid

> <FSP3>
0.12

> <clogP>
2.08

> <TPSA>
62.60

> <Acceptor>
2

> <Donor>
0

> <RotBonds>
3

> <HAC>
12

> <Collection>
General

> <Reference_compound>
CHEMBL459548

> <Similarity>
0.8210

$$$$
F5033-0182
  -ISIS-  06222321462D

 22 23  0  0  0  0  0  0  0  0999 V2000
   -0.8958    6.2750    0.0000 N   0  0  3  0  0  0  0  0  0  0  0  0
   -3.7583    3.8000    0.0000 C   0  0  0  0  0  0  0  0  0  0  0  0
   -3.0458    4.2125    0.0000 N   0  0  0  0  0  0  0  0  0  0  0  0
   -0.8958    5.4542    0.0000 C   0  0  0  0  0  0  0  0  0  0  0  0
   -1.6083    6.6917    0.0000 C   0  0  0  0  0  0  0  0  0  0  0  0
   -4.4708    4.2042    0.0000 O   0  0  0  0  0  0  0  0  0  0  0  0
   -0.1833    6.6917    0.0000 C   0  0  3  0  0  0  0  0  0  0  0  0
   -4.4833    2.5708    0.0000 O   0  0  0  0  0  0  0  0  0  0  0  0
   -3.7583    2.9833    0.0000 C   0  0  0  0  0  0  0  0  0  0  0  0
   -4.4875    1.7458    0.0000 C   0  0  0  0  0  0  0  0  0  0  0  0
   -3.0458    5.0292    0.0000 C   0  0  0  0  0  0  0  0  0  0  0  0
   -1.6083    5.0417    0.0000 C   0  0  0  0  0  0  0  0  0  0  0  0
   -2.3208    6.2792    0.0000 C   0  0  0  0  0  0  0  0  0  0  0  0
   -4.5333    0.0875    0.0000 C   0  0  0  0  0  0  0  0  0  0  0  0
   -2.3250    5.4500    0.0000 C   0  0  3  0  0  0  0  0  0  0  0  0
   -5.2208    1.3500    0.0000 C   0  0  0  0  0  0  0  0  0  0  0  0
   -3.7875    1.3125    0.0000 C   0  0  0  0  0  0  0  0  0  0  0  0
   -5.2375    0.5208    0.0000 C   0  0  0  0  0  0  0  0  0  0  0  0
   -3.8083    0.4833    0.0000 C   0  0  0  0  0  0  0  0  0  0  0  0
   -0.1833    7.5167    0.0000 C   0  0  0  0  0  0  0  0  0  0  0  0
    0.5292    6.2792    0.0000 C   0  0  0  0  0  0  0  0  0  0  0  0
   -4.5583   -0.7417    0.0000 C   0  0  0  0  0  0  0  0  0  0  0  0
  2  3  1  0  0  0  0
  3 11  1  0  0  0  0
  4  1  1  0  0  0  0
  5  1  1  0  0  0  0
  6  2  2  0  0  0  0
  7  1  1  0  0  0  0
  8  9  1  0  0  0  0
  9  2  1  0  0  0  0
 10  8  1  0  0  0  0
 11 15  1  0  0  0  0
 12  4  1  0  0  0  0
 13  5  1  0  0  0  0
 14 19  1  0  0  0  0
 15 13  1  0  0  0  0
 16 10  2  0  0  0  0
 17 10  1  0  0  0  0
 18 16  1  0  0  0  0
 19 17  2  0  0  0  0
 20  7  1  0  0  0  0
 21  7  1  0  0  0  0
 22 14  1  0  0  0  0
 12 15  1  0  0  0  0
 14 18  2  0  0  0  0
M  END
> <IDNUMBER>
F5033-0182

> <Chemical_Name>
2-(4-methylphenoxy)-N-{[1-(propan-2-yl)piperidin-4-yl]methyl}acetamide

> <CAS>
946270-97-9

> <PriceCoeff>
1.50

> <MW>
304.43

> <Description>
solid

> <FSP3>
0.61

> <clogP>
2.84

> <TPSA>
41.57

> <Acceptor>
2

> <Donor>
2

> <RotBonds>
6

> <HAC>
22

> <Collection>
Advanced

> <Reference_compound>
CHEMBL4277357

> <Similarity>
0.8070

$$$$
F1342-0052
  -ISIS-  06222321142D

 17 18  0  0  0  0  0  0  0  0999 V2000
    1.2125   -2.7792    0.0000 C   0  0  0  0  0  0  0  0  0  0  0  0
    1.2125   -1.9667    0.0000 C   0  0  0  0  0  0  0  0  0  0  0  0
    0.4917   -3.1792    0.0000 N   0  0  3  0  0  0  0  0  0  0  0  0
    2.0042   -3.0292    0.0000 N   0  0  0  0  0  0  0  0  0  0  0  0
   -0.2625   -2.7792    0.0000 C   0  0  0  0  0  0  0  0  0  0  0  0
   -0.2625   -1.9667    0.0000 N   0  0  0  0  0  0  0  0  0  0  0  0
    0.4917   -1.5542    0.0000 C   0  0  0  0  0  0  0  0  0  0  0  0
    2.4875   -2.3667    0.0000 C   0  0  0  0  0  0  0  0  0  0  0  0
    2.0625   -1.6542    0.0000 N   0  0  0  0  0  0  0  0  0  0  0  0
   -0.9958   -3.1792    0.0000 O   0  0  0  0  0  0  0  0  0  0  0  0
    0.4917   -0.7417    0.0000 O   0  0  0  0  0  0  0  0  0  0  0  0
    3.3000   -2.3667    0.0000 N   0  0  0  0  0  0  0  0  0  0  0  0
    0.4917   -3.9917    0.0000 C   0  0  0  0  0  0  0  0  0  0  0  0
    5.3167   -3.2417    0.0000 O   0  0  0  0  0  0  0  0  0  0  0  0
    3.8750   -2.9375    0.0000 C   0  0  0  0  0  0  0  0  0  0  0  0
    4.6667   -2.7292    0.0000 C   0  0  0  0  0  0  0  0  0  0  0  0
    6.0042   -2.7792    0.0000 C   0  0  0  0  0  0  0  0  0  0  0  0
  2  1  2  0  0  0  0
  3  1  1  0  0  0  0
  4  1  1  0  0  0  0
  5  3  1  0  0  0  0
  6  5  1  0  0  0  0
  7  2  1  0  0  0  0
  8  4  2  0  0  0  0
  9  2  1  0  0  0  0
 10  5  2  0  0  0  0
 11  7  2  0  0  0  0
 12  8  1  0  0  0  0
 13  3  1  0  0  0  0
 14 16  1  0  0  0  0
 15 12  1  0  0  0  0
 16 15  1  0  0  0  0
 17 14  1  0  0  0  0
  9  8  1  0  0  0  0
  7  6  1  0  0  0  0
M  END
> <IDNUMBER>
F1342-0052

> <Chemical_Name>
8-[(2-methoxyethyl)amino]-3-methyl-2,3,6,7-tetrahydro-1H-purine-2,6-dione

> <CAS>
476482-14-1

> <PriceCoeff>
1.00

> <MW>
239.23

> <Description>
solid

> <FSP3>
0.44

> <clogP>
-0.09

> <TPSA>
99.35

> <Acceptor>
5

> <Donor>
4

> <RotBonds>
4

> <HAC>
17

> <Collection>
General

> <Reference_compound>
CHEMBL190

> <Similarity>
0.8050

$$$$
F0327-0305
  -ISIS-  06222321452D

 25 28  0  0  0  0  0  0  0  0999 V2000
   -1.8958    0.4208    0.0000 C   0  0  0  0  0  0  0  0  0  0  0  0
    2.9042   -0.3167    0.0000 N   0  0  3  0  0  0  0  0  0  0  0  0
   -2.4125   -0.2792    0.0000 N   0  0  0  0  0  0  0  0  0  0  0  0
   -1.0333    0.4208    0.0000 N   0  0  0  0  0  0  0  0  0  0  0  0
   -2.3958    1.1208    0.0000 S   0  0  0  0  0  0  0  0  0  0  0  0
   -3.2333   -0.0292    0.0000 C   0  0  0  0  0  0  0  0  0  0  0  0
   -3.2333    0.8625    0.0000 C   0  0  0  0  0  0  0  0  0  0  0  0
   -0.6125   -0.3167    0.0000 C   0  0  0  0  0  0  0  0  0  0  0  0
    3.4000   -1.0375    0.0000 C   0  0  0  0  0  0  0  0  0  0  0  0
    3.4042    0.3208    0.0000 C   0  0  0  0  0  0  0  0  0  0  0  0
    2.0292   -0.3167    0.0000 C   0  0  0  0  0  0  0  0  0  0  0  0
    0.2667   -0.3167    0.0000 C   0  0  0  0  0  0  0  0  0  0  0  0
   -1.0333   -1.0792    0.0000 O   0  0  0  0  0  0  0  0  0  0  0  0
    4.2375   -0.8000    0.0000 C   0  0  0  0  0  0  0  0  0  0  0  0
    4.2375    0.0625    0.0000 C   0  0  0  0  0  0  0  0  0  0  0  0
    3.0875   -1.8542    0.0000 O   0  0  0  0  0  0  0  0  0  0  0  0
    3.1167    1.1708    0.0000 O   0  0  0  0  0  0  0  0  0  0  0  0
    1.5875    0.4208    0.0000 C   0  0  0  0  0  0  0  0  0  0  0  0
    1.5875   -1.0792    0.0000 C   0  0  0  0  0  0  0  0  0  0  0  0
    0.7042    0.4208    0.0000 C   0  0  0  0  0  0  0  0  0  0  0  0
    0.7042   -1.0792    0.0000 C   0  0  0  0  0  0  0  0  0  0  0  0
   -3.9958   -0.4375    0.0000 C   0  0  0  0  0  0  0  0  0  0  0  0
   -3.9958    1.3000    0.0000 C   0  0  0  0  0  0  0  0  0  0  0  0
   -4.7500   -0.0500    0.0000 C   0  0  0  0  0  0  0  0  0  0  0  0
   -4.7500    0.8500    0.0000 C   0  0  0  0  0  0  0  0  0  0  0  0
  2 11  1  0  0  0  0
  3  1  2  0  0  0  0
  4  1  1  0  0  0  0
  5  1  1  0  0  0  0
  6  3  1  0  0  0  0
  7  5  1  0  0  0  0
  8  4  1  0  0  0  0
  9  2  1  0  0  0  0
 10  2  1  0  0  0  0
 11 19  2  0  0  0  0
 12  8  1  0  0  0  0
 13  8  2  0  0  0  0
 14  9  1  0  0  0  0
 15 10  1  0  0  0  0
 16  9  2  0  0  0  0
 17 10  2  0  0  0  0
 18 20  2  0  0  0  0
 19 21  1  0  0  0  0
 20 12  1  0  0  0  0
 21 12  2  0  0  0  0
 22  6  1  0  0  0  0
 23  7  1  0  0  0  0
 24 22  1  0  0  0  0
 25 23  1  0  0  0  0
  6  7  2  0  0  0  0
 25 24  1  0  0  0  0
 11 18  1  0  0  0  0
 15 14  1  0  0  0  0
M  END
> <IDNUMBER>
F0327-0305

> <Chemical_Name>
4-(2,5-dioxopyrrolidin-1-yl)-N-(4,5,6,7-tetrahydro-1,3-benzothiazol-2-yl)benzamide

> <CAS>
392246-31-0

> <PriceCoeff>
1.50

> <MW>
355.41

> <Description>
solid

> <FSP3>
0.33

> <clogP>
1.60

> <TPSA>
107.61

> <Acceptor>
4

> <Donor>
1

> <RotBonds>
3

> <HAC>
25

> <Collection>
Advanced

$$$$
F2978-0030
  -ISIS-  06222321462D

 23 25  0  0  0  0  0  0  0  0999 V2000
   -2.4708    3.3208    0.0000 C   0  0  0  0  0  0  0  0  0  0  0  0
    2.0667    4.0000    0.0000 N   0  0  3  0  0  0  0  0  0  0  0  0
   -2.7250    2.5333    0.0000 N   0  0  0  0  0  0  0  0  0  0  0  0
   -1.6833    3.5708    0.0000 N   0  0  0  0  0  0  0  0  0  0  0  0
   -3.1250    3.8000    0.0000 S   0  0  0  0  0  0  0  0  0  0  0  0
   -3.5458    2.5333    0.0000 C   0  0  0  0  0  0  0  0  0  0  0  0
   -1.0750    3.0208    0.0000 C   0  0  0  0  0  0  0  0  0  0  0  0
   -3.8000    3.3208    0.0000 C   0  0  0  0  0  0  0  0  0  0  0  0
    2.2917    4.7917    0.0000 C   0  0  0  0  0  0  0  0  0  0  0  0
    2.7417    3.5500    0.0000 C   0  0  0  0  0  0  0  0  0  0  0  0
    1.2792    3.7583    0.0000 C   0  0  0  0  0  0  0  0  0  0  0  0
   -0.2958    3.2708    0.0000 C   0  0  0  0  0  0  0  0  0  0  0  0
   -1.2500    2.2208    0.0000 O   0  0  0  0  0  0  0  0  0  0  0  0
    3.1250    4.8167    0.0000 C   0  0  0  0  0  0  0  0  0  0  0  0
    3.3917    4.0417    0.0000 C   0  0  0  0  0  0  0  0  0  0  0  0
    1.7875    5.4625    0.0000 O   0  0  0  0  0  0  0  0  0  0  0  0
    2.7750    2.7250    0.0000 O   0  0  0  0  0  0  0  0  0  0  0  0
    0.6667    4.3167    0.0000 C   0  0  0  0  0  0  0  0  0  0  0  0
    1.0917    2.9625    0.0000 C   0  0  0  0  0  0  0  0  0  0  0  0
    0.3125    2.7208    0.0000 C   0  0  0  0  0  0  0  0  0  0  0  0
   -0.1125    4.0750    0.0000 C   0  0  0  0  0  0  0  0  0  0  0  0
   -4.0333    1.8625    0.0000 C   0  0  0  0  0  0  0  0  0  0  0  0
   -4.5833    3.5708    0.0000 C   0  0  0  0  0  0  0  0  0  0  0  0
  2 11  1  0  0  0  0
  3  1  2  0  0  0  0
  4  1  1  0  0  0  0
  5  1  1  0  0  0  0
  6  3  1  0  0  0  0
  7  4  1  0  0  0  0
  8  5  1  0  0  0  0
  9  2  1  0  0  0  0
 10  2  1  0  0  0  0
 11 18  1  0  0  0  0
 12  7  1  0  0  0  0
 13  7  2  0  0  0  0
 14  9  1  0  0  0  0
 15 10  1  0  0  0  0
 16  9  2  0  0  0  0
 17 10  2  0  0  0  0
 18 21  2  0  0  0  0
 19 20  1  0  0  0  0
 20 12  2  0  0  0  0
 21 12  1  0  0  0  0
 22  6  1  0  0  0  0
 23  8  1  0  0  0  0
  8  6  2  0  0  0  0
 19 11  2  0  0  0  0
 14 15  1  0  0  0  0
M  END
> <IDNUMBER>
F2978-0030

> <Chemical_Name>
N-(4,5-dimethyl-1,3-thiazol-2-yl)-4-(2,5-dioxopyrrolidin-1-yl)benzamide

> <CAS>
923443-96-3

> <PriceCoeff>
1.50

> <MW>
329.37

> <Description>
solid

> <FSP3>
0.25

> <clogP>
0.98

> <TPSA>
107.61

> <Acceptor>
4

> <Donor>
1

> <RotBonds>
3

> <HAC>
23

> <Collection>
Advanced

$$$$
F8880-7458
  -ISIS-  06222304352D

 19 19  0  0  0  0  0  0  0  0999 V2000
    6.3792   -7.6250    0.0000 N   0  0  0  0  0  0  0  0  0  0  0  0
    6.3792   -6.8125    0.0000 C   0  0  0  0  0  0  0  0  0  0  0  0
    7.0917   -4.7500    0.0000 N   0  0  0  0  0  0  0  0  0  0  0  0
    6.3792   -5.9875    0.0000 C   0  0  3  0  0  0  0  0  0  0  0  0
    5.6625   -5.5667    0.0000 O   0  0  0  0  0  0  0  0  0  0  0  0
    7.0917   -5.5667    0.0000 C   0  0  0  0  0  0  0  0  0  0  0  0
    6.3792   -4.3375    0.0000 C   0  0  0  0  0  0  0  0  0  0  0  0
    5.6625   -4.7500    0.0000 C   0  0  0  0  0  0  0  0  0  0  0  0
   10.1265   -5.1204    0.0000 S   0  0  3  0  0  0  0  0  0  0  0  0
    9.7237   -5.8302    0.0000 C   0  0  0  0  0  0  0  0  0  0  0  0
    9.4156   -4.6991    0.0000 O   0  0  0  0  0  0  0  0  0  0  0  0
   10.5323   -4.3993    0.0000 O   0  0  0  0  0  0  0  0  0  0  0  0
   10.8477   -5.5262    0.0000 O   0  0  0  0  0  0  0  0  0  0  0  0
   10.1391   -6.5478    0.0000 C   0  0  0  0  0  0  0  0  0  0  0  0
    8.8932   -5.8344    0.0000 C   0  0  0  0  0  0  0  0  0  0  0  0
    9.7220   -7.2660    0.0000 C   0  0  0  0  0  0  0  0  0  0  0  0
    8.4853   -6.5519    0.0000 C   0  0  0  0  0  0  0  0  0  0  0  0
    8.8987   -7.2659    0.0000 C   0  0  0  0  0  0  0  0  0  0  0  0
    8.4851   -7.9820    0.0000 C   0  0  0  0  0  0  0  0  0  0  0  0
  5  4  1  0  0  0  0
  6  4  1  0  0  0  0
  7  3  1  0  0  0  0
  8  5  1  0  0  0  0
  7  8  1  0  0  0  0
  2  1  3  0  0  0  0
  3  6  1  0  0  0  0
  4  2  1  0  0  0  0
 10  9  1  0  0  0  0
 11  9  2  0  0  0  0
 12  9  2  0  0  0  0
 13  9  1  0  0  0  0
 14 10  1  0  0  0  0
 15 10  2  0  0  0  0
 16 14  2  0  0  0  0
 17 15  1  0  0  0  0
 18 17  2  0  0  0  0
 19 18  1  0  0  0  0
 16 18  1  0  0  0  0
M  END
> <IDNUMBER>
F8880-7458

> <Chemical_Name>
4-methylbenzene-1-sulfonic acid; morpholine-2-carbonitrile

> <CAS>
1820717-22-3

> <PriceCoeff>
1.00

> <MW>
112.13

> <Description>
solid

> <FSP3>
0.80

> <clogP>
-1.07

> <TPSA>
45.05

> <Acceptor>
2

> <Donor>
1

> <RotBonds>
0

> <HAC>
8

> <Collection>
General

> <Reference_compound>
PRI5904

> <Similarity>
0.8060

$$$$
F5958-0082
  -ISIS-  06222321462D

 23 24  0  0  0  0  0  0  0  0999 V2000
   -6.7167    3.3583    0.0000 N   0  0  3  0  0  0  0  0  0  0  0  0
   -4.5833    3.8000    0.0000 S   0  0  3  0  0  0  0  0  0  0  0  0
   -3.1458    6.2667    0.0000 N   0  0  3  0  0  0  0  0  0  0  0  0
   -2.4833    6.7667    0.0000 N   0  0  0  0  0  0  0  0  0  0  0  0
   -3.8125    6.7625    0.0000 C   0  0  0  0  0  0  0  0  0  0  0  0
   -3.5625    7.5542    0.0000 C   0  0  0  0  0  0  0  0  0  0  0  0
   -7.4417    3.7583    0.0000 C   0  0  0  0  0  0  0  0  0  0  0  0
   -6.7042    2.5208    0.0000 C   0  0  0  0  0  0  0  0  0  0  0  0
   -5.2875    3.3833    0.0000 C   0  0  0  0  0  0  0  0  0  0  0  0
   -2.7250    7.5542    0.0000 C   0  0  0  0  0  0  0  0  0  0  0  0
   -6.0042    3.7833    0.0000 C   0  0  0  0  0  0  0  0  0  0  0  0
   -4.1583    3.1083    0.0000 O   0  0  0  0  0  0  0  0  0  0  0  0
   -5.0083    4.5042    0.0000 O   0  0  0  0  0  0  0  0  0  0  0  0
   -3.8625    4.2125    0.0000 N   0  0  0  0  0  0  0  0  0  0  0  0
   -7.4667    4.5792    0.0000 O   0  0  0  0  0  0  0  0  0  0  0  0
   -5.9833    2.1208    0.0000 O   0  0  0  0  0  0  0  0  0  0  0  0
   -3.1458    5.4417    0.0000 C   0  0  0  0  0  0  0  0  0  0  0  0
   -3.8625    5.0292    0.0000 C   0  0  0  0  0  0  0  0  0  0  0  0
   -7.4042    2.0958    0.0000 C   0  0  0  0  0  0  0  0  0  0  0  0
   -8.1542    3.3208    0.0000 C   0  0  0  0  0  0  0  0  0  0  0  0
   -4.6000    6.5042    0.0000 C   0  0  0  0  0  0  0  0  0  0  0  0
   -8.1292    2.4875    0.0000 C   0  0  0  0  0  0  0  0  0  0  0  0
   -2.2458    8.2167    0.0000 C   0  0  0  0  0  0  0  0  0  0  0  0
  2  9  1  0  0  0  0
  3 17  1  0  0  0  0
  4  3  1  0  0  0  0
  5  3  1  0  0  0  0
  6  5  2  0  0  0  0
  7  1  1  0  0  0  0
  8  1  1  0  0  0  0
  9 11  1  0  0  0  0
 10  4  2  0  0  0  0
 11  1  1  0  0  0  0
 12  2  2  0  0  0  0
 13  2  2  0  0  0  0
 14  2  1  0  0  0  0
 15  7  2  0  0  0  0
 16  8  2  0  0  0  0
 17 18  1  0  0  0  0
 18 14  1  0  0  0  0
 19  8  1  0  0  0  0
 20  7  1  0  0  0  0
 21  5  1  0  0  0  0
 22 19  1  0  0  0  0
 23 10  1  0  0  0  0
 20 22  1  0  0  0  0
  6 10  1  0  0  0  0
M  END
> <IDNUMBER>
F5958-0082

> <Chemical_Name>
N-[2-(3,5-dimethyl-1H-pyrazol-1-yl)ethyl]-2-(2,6-dioxopiperidin-1-yl)ethane-1-sulfonamide

> <CAS>
1226442-04-1

> <PriceCoeff>
1.50

> <MW>
342.41

> <Description>
solid

> <FSP3>
0.64

> <clogP>
0.60

> <TPSA>
109.75

> <Acceptor>
5

> <Donor>
1

> <RotBonds>
7

> <HAC>
23

> <Collection>
Advanced

$$$$
F6545-0067
  -ISIS-  06222321472D

 15 16  0  0  0  0  0  0  0  0999 V2000
    1.8792   -0.7917    0.0000 N   0  0  3  0  0  0  0  0  0  0  0  0
    2.4667   -1.6000    0.0000 C   0  0  0  0  0  0  0  0  0  0  0  0
    2.1875    0.1708    0.0000 C   0  0  0  0  0  0  0  0  0  0  0  0
    1.3792    0.7500    0.0000 C   0  0  3  0  0  0  0  0  0  0  0  0
    0.8792   -0.7917    0.0000 C   0  0  0  0  0  0  0  0  0  0  0  0
    1.3792    1.7500    0.0000 C   0  0  0  0  0  0  0  0  0  0  0  0
    2.0625   -2.5125    0.0000 O   0  0  0  0  0  0  0  0  0  0  0  0
    0.5667    0.1708    0.0000 C   0  0  0  0  0  0  0  0  0  0  0  0
    3.4625   -1.4917    0.0000 C   0  0  3  0  0  0  0  0  0  0  0  0
    2.2417    2.2500    0.0000 O   0  0  0  0  0  0  0  0  0  0  0  0
    0.5167    2.2458    0.0000 C   0  0  0  0  0  0  0  0  0  0  0  0
    4.1375   -2.2417    0.0000 C   0  0  0  0  0  0  0  0  0  0  0  0
    3.9625   -0.6292    0.0000 C   0  0  0  0  0  0  0  0  0  0  0  0
    4.9500   -0.8417    0.0000 C   0  0  0  0  0  0  0  0  0  0  0  0
    5.0417   -1.8292    0.0000 C   0  0  0  0  0  0  0  0  0  0  0  0
  2  1  1  0  0  0  0
  3  1  1  0  0  0  0
  4  3  1  0  0  0  0
  5  1  1  0  0  0  0
  6  4  1  0  0  0  0
  7  2  2  0  0  0  0
  8  5  1  0  0  0  0
  9  2  1  0  0  0  0
 10  6  2  0  0  0  0
 11  6  1  0  0  0  0
 12  9  1  0  0  0  0
 13  9  1  0  0  0  0
 14 13  1  0  0  0  0
 15 12  1  0  0  0  0
  4  8  1  0  0  0  0
 15 14  1  0  0  0  0
M  END
> <IDNUMBER>
F6545-0067

> <Chemical_Name>
1-(1-cyclopentanecarbonylpyrrolidin-3-yl)ethan-1-one

> <CAS>
2034355-25-2

> <PriceCoeff>
1.50

> <MW>
209.28

> <Description>
liquid

> <FSP3>
0.83

> <clogP>
0.61

> <TPSA>
37.38

> <Acceptor>
2

> <Donor>
0

> <RotBonds>
3

> <HAC>
15

> <Collection>
Advanced

> <Reference_compound>
CHEMBL2269838

> <Similarity>
0.8370

$$$$
F1913-0574
  -ISIS-  06222321452D

 11 11  0  0  0  0  0  0  0  0999 V2000
    8.4792   -5.8542    0.0000 C   0  0  0  0  0  0  0  0  0  0  0  0
    7.8750   -5.3000    0.0000 C   0  0  3  0  0  0  0  0  0  0  0  0
    8.3125   -6.6625    0.0000 O   0  0  0  0  0  0  0  0  0  0  0  0
    6.0042   -6.3417    0.0000 O   0  0  0  0  0  0  0  0  0  0  0  0
    7.0875   -5.5542    0.0000 C   0  0  3  0  0  0  0  0  0  0  0  0
    9.2667   -5.6000    0.0000 O   0  0  0  0  0  0  0  0  0  0  0  0
    6.8292   -6.3417    0.0000 C   0  0  0  0  0  0  0  0  0  0  0  0
    8.0417   -4.4917    0.0000 C   0  0  0  0  0  0  0  0  0  0  0  0
    5.7542   -5.5542    0.0000 C   0  0  0  0  0  0  0  0  0  0  0  0
    6.4167   -5.0667    0.0000 C   0  0  0  0  0  0  0  0  0  0  0  0
    9.8792   -6.1542    0.0000 C   0  0  0  0  0  0  0  0  0  0  0  0
  2  1  1  0  0  0  0
  3  1  2  0  0  0  0
  4  7  1  0  0  0  0
  5  2  1  0  0  0  0
  6  1  1  0  0  0  0
  7  5  1  0  0  0  0
  8  2  1  0  0  0  0
  9 10  1  0  0  0  0
 10  5  1  0  0  0  0
 11  6  1  0  0  0  0
  9  4  1  0  0  0  0
M  END
> <IDNUMBER>
F1913-0574

> <Chemical_Name>
methyl 2-(oxolan-3-yl)propanoate

> <CAS>
2106731-62-6

> <PriceCoeff>
1.50

> <MW>
158.20

> <Description>
liquid

> <FSP3>
0.88

> <clogP>
0.31

> <TPSA>
35.53

> <Acceptor>
3

> <Donor>
0

> <RotBonds>
3

> <HAC>
11

> <Collection>
Advanced

> <Reference_compound>
CHEMBL2268562

> <Similarity>
0.8080

$$$$
F1929-1777
  -ISIS-  06222321442D

 17 18  0  0  0  0  0  0  0  0999 V2000
    0.1875   -0.2417    0.0000 N   0  0  0  0  0  0  0  0  0  0  0  0
   -0.3125    0.6083    0.0000 C   0  0  0  0  0  0  0  0  0  0  0  0
    0.6750    0.0458    0.0000 C   0  0  0  0  0  0  0  0  0  0  0  0
    0.6667    0.6083    0.0000 C   0  0  0  0  0  0  0  0  0  0  0  0
   -0.3125    0.0375    0.0000 C   0  0  0  0  0  0  0  0  0  0  0  0
    2.3167    0.1750    0.0000 C   0  0  0  0  0  0  0  0  0  0  0  0
   -0.7958    0.8833    0.0000 C   0  0  0  0  0  0  0  0  0  0  0  0
    2.7292    0.5958    0.0000 O   0  0  0  0  0  0  0  0  0  0  0  0
   -0.7958   -0.2375    0.0000 C   0  0  0  0  0  0  0  0  0  0  0  0
    1.7542    0.3250    0.0000 N   0  0  0  0  0  0  0  0  0  0  0  0
   -1.2833    0.6000    0.0000 C   0  0  0  0  0  0  0  0  0  0  0  0
   -1.2833    0.0375    0.0000 C   0  0  0  0  0  0  0  0  0  0  0  0
    1.6042    0.8625    0.0000 C   0  0  0  0  0  0  0  0  0  0  0  0
    1.0625    1.0083    0.0000 C   0  0  0  0  0  0  0  0  0  0  0  0
   -1.7625    0.8833    0.0000 O   0  0  0  0  0  0  0  0  0  0  0  0
    2.4750   -0.3917    0.0000 C   0  0  0  0  0  0  0  0  0  0  0  0
   -2.2458    0.6083    0.0000 C   0  0  0  0  0  0  0  0  0  0  0  0
  2  5  1  0  0  0  0
  3  1  1  0  0  0  0
  4  3  2  0  0  0  0
  5  1  1  0  0  0  0
  6 10  1  0  0  0  0
  7  2  2  0  0  0  0
  8  6  2  0  0  0  0
  9  5  2  0  0  0  0
 10 13  1  0  0  0  0
 11 12  2  0  0  0  0
 12  9  1  0  0  0  0
 13 14  1  0  0  0  0
 14  4  1  0  0  0  0
 15 11  1  0  0  0  0
 16  6  1  0  0  0  0
 17 15  1  0  0  0  0
  4  2  1  0  0  0  0
 11  7  1  0  0  0  0
M  END
> <IDNUMBER>
F1929-1777

> <Chemical_Name>
N-[2-(5-methoxy-1H-indol-3-yl)ethyl]acetamide

> <CAS>
73-31-4

> <PriceCoeff>
1.50

> <MW>
232.28

> <Description>
solid

> <FSP3>
0.31

> <clogP>
1.03

> <TPSA>
54.12

> <Acceptor>
2

> <Donor>
2

> <RotBonds>
4

> <HAC>
17

> <Collection>
Advanced

> <Reference_compound>
CHEMBL33171

> <Similarity>
0.8630

$$$$
F5854-2345
  -ISIS-  06222321442D

 23 25  0  0  0  0  0  0  0  0999 V2000
   -5.2833    2.5708    0.0000 N   0  0  3  0  0  0  0  0  0  0  0  0
   -4.5708    2.9875    0.0000 C   0  0  0  0  0  0  0  0  0  0  0  0
   -4.5708    3.8000    0.0000 C   0  0  0  0  0  0  0  0  0  0  0  0
   -5.3625    1.7458    0.0000 C   0  0  0  0  0  0  0  0  0  0  0  0
   -6.0292    2.9000    0.0000 C   0  0  0  0  0  0  0  0  0  0  0  0
   -3.8583    4.2125    0.0000 N   0  0  3  0  0  0  0  0  0  0  0  0
   -2.4208    4.2125    0.0000 C   0  0  0  0  0  0  0  0  0  0  0  0
   -4.5708    5.4292    0.0000 C   0  0  0  0  0  0  0  0  0  0  0  0
   -3.1458    3.8083    0.0000 C   0  0  0  0  0  0  0  0  0  0  0  0
   -1.1125    4.4792    0.0000 S   0  0  0  0  0  0  0  0  0  0  0  0
   -3.8583    5.0292    0.0000 C   0  0  0  0  0  0  0  0  0  0  0  0
   -5.3458    5.0875    0.0000 O   0  0  0  0  0  0  0  0  0  0  0  0
   -1.6708    3.8958    0.0000 C   0  0  0  0  0  0  0  0  0  0  0  0
   -5.2958    4.2125    0.0000 O   0  0  0  0  0  0  0  0  0  0  0  0
   -2.3333    5.0292    0.0000 C   0  0  0  0  0  0  0  0  0  0  0  0
   -6.5750    2.2833    0.0000 C   0  0  0  0  0  0  0  0  0  0  0  0
   -6.1667    1.5708    0.0000 C   0  0  0  0  0  0  0  0  0  0  0  0
   -6.2042    3.7083    0.0000 O   0  0  0  0  0  0  0  0  0  0  0  0
   -4.7458    1.1833    0.0000 O   0  0  0  0  0  0  0  0  0  0  0  0
   -1.5250    5.2042    0.0000 C   0  0  0  0  0  0  0  0  0  0  0  0
   -4.6875    6.2417    0.0000 C   0  0  0  0  0  0  0  0  0  0  0  0
   -5.9125    5.7000    0.0000 C   0  0  0  0  0  0  0  0  0  0  0  0
   -5.5000    6.4042    0.0000 C   0  0  0  0  0  0  0  0  0  0  0  0
  2  1  1  0  0  0  0
  3  2  1  0  0  0  0
  4  1  1  0  0  0  0
  5  1  1  0  0  0  0
  6  3  1  0  0  0  0
  7  9  1  0  0  0  0
  8 11  1  0  0  0  0
  9  6  1  0  0  0  0
 10 13  1  0  0  0  0
 11  6  1  0  0  0  0
 12  8  1  0  0  0  0
 13  7  2  0  0  0  0
 14  3  2  0  0  0  0
 15  7  1  0  0  0  0
 16  5  1  0  0  0  0
 17  4  1  0  0  0  0
 18  5  2  0  0  0  0
 19  4  2  0  0  0  0
 20 15  2  0  0  0  0
 21  8  2  0  0  0  0
 22 12  1  0  0  0  0
 23 21  1  0  0  0  0
 17 16  1  0  0  0  0
 23 22  2  0  0  0  0
 20 10  1  0  0  0  0
M  END
> <IDNUMBER>
F5854-2345

> <Chemical_Name>
2-(2,5-dioxopyrrolidin-1-yl)-N-[(furan-2-yl)methyl]-N-[(thiophen-3-yl)methyl]acetamide

> <CAS>
1219845-16-5

> <PriceCoeff>
1.00

> <MW>
332.37

> <Description>
solid

> <FSP3>
0.31

> <clogP>
1.35

> <TPSA>
99.07

> <Acceptor>
4

> <Donor>
0

> <RotBonds>
7

> <HAC>
23

> <Collection>
General

$$$$
F3259-0257
  -ISIS-  06222321462D

 21 23  0  0  0  0  0  0  0  0999 V2000
    4.6542   -4.0042    0.0000 C   0  0  0  0  0  0  0  0  0  0  0  0
    4.6542   -3.2292    0.0000 C   0  0  0  0  0  0  0  0  0  0  0  0
    3.9667   -4.4000    0.0000 N   0  0  3  0  0  0  0  0  0  0  0  0
    3.3000   -3.2292    0.0000 N   0  0  3  0  0  0  0  0  0  0  0  0
    3.3000   -4.0167    0.0000 C   0  0  0  0  0  0  0  0  0  0  0  0
    3.9667   -2.8375    0.0000 C   0  0  0  0  0  0  0  0  0  0  0  0
    6.0000   -3.2375    0.0000 N   0  0  3  0  0  0  0  0  0  0  0  0
    5.3167   -4.4042    0.0000 N   0  0  0  0  0  0  0  0  0  0  0  0
    5.9875   -4.0250    0.0000 C   0  0  0  0  0  0  0  0  0  0  0  0
    6.5875   -2.6625    0.0000 C   0  0  0  0  0  0  0  0  0  0  0  0
    7.3792   -2.8792    0.0000 C   0  0  0  0  0  0  0  0  0  0  0  0
    2.6250   -4.4042    0.0000 O   0  0  0  0  0  0  0  0  0  0  0  0
    3.9667   -2.0542    0.0000 O   0  0  0  0  0  0  0  0  0  0  0  0
    7.9542   -2.3000    0.0000 C   0  0  0  0  0  0  0  0  0  0  0  0
    3.9667   -5.1792    0.0000 C   0  0  0  0  0  0  0  0  0  0  0  0
    2.5417   -3.0292    0.0000 C   0  0  0  0  0  0  0  0  0  0  0  0
    7.7375   -1.5000    0.0000 Cl  0  0  0  0  0  0  0  0  0  0  0  0
    7.5792   -3.6667    0.0000 C   0  0  0  0  0  0  0  0  0  0  0  0
    8.7417   -2.5167    0.0000 C   0  0  0  0  0  0  0  0  0  0  0  0
    8.3750   -3.8875    0.0000 C   0  0  0  0  0  0  0  0  0  0  0  0
    8.9542   -3.3125    0.0000 C   0  0  0  0  0  0  0  0  0  0  0  0
  2  1  2  0  0  0  0
  3  1  1  0  0  0  0
  4  5  1  0  0  0  0
  5  3  1  0  0  0  0
  6  2  1  0  0  0  0
  7  2  1  0  0  0  0
  8  1  1  0  0  0  0
  9  8  2  0  0  0  0
 10  7  1  0  0  0  0
 11 10  1  0  0  0  0
 12  5  2  0  0  0  0
 13  6  2  0  0  0  0
 14 11  1  0  0  0  0
 15  3  1  0  0  0  0
 16  4  1  0  0  0  0
 17 14  1  0  0  0  0
 18 11  2  0  0  0  0
 19 14  2  0  0  0  0
 20 18  1  0  0  0  0
 21 20  2  0  0  0  0
  9  7  1  0  0  0  0
  6  4  1  0  0  0  0
 21 19  1  0  0  0  0
M  END
> <IDNUMBER>
F3259-0257

> <Chemical_Name>
7-[(2-chlorophenyl)methyl]-1,3-dimethyl-2,3,6,7-tetrahydro-1H-purine-2,6-dione

> <CAS>
343347-87-5

> <PriceCoeff>
1.00

> <MW>
304.73

> <Description>
solid

> <FSP3>
0.21

> <clogP>
2.19

> <TPSA>
58.44

> <Acceptor>
3

> <Donor>
1

> <RotBonds>
2

> <HAC>
21

> <Collection>
General

> <Reference_compound>
CHEMBL113

> <Similarity>
0.8020

$$$$
F1345-0583
  -ISIS-  06222304352D

 29 30  0  0  0  0  0  0  0  0999 V2000
    2.5250   -0.0917    0.0000 N   0  0  3  0  0  0  0  0  0  0  0  0
    1.1000   -0.0917    0.0000 O   0  0  0  0  0  0  0  0  0  0  0  0
    0.3875   -0.5167    0.0000 C   0  0  0  0  0  0  0  0  0  0  0  0
    2.5250    0.7333    0.0000 C   0  0  0  0  0  0  0  0  0  0  0  0
    0.3875   -1.3667    0.0000 C   0  0  0  0  0  0  0  0  0  0  0  0
    1.1292   -2.6250    0.0000 C   0  0  0  0  0  0  0  0  0  0  0  0
    1.8417   -3.0375    0.0000 C   0  0  0  0  0  0  0  0  0  0  0  0
    1.8125    1.1333    0.0000 C   0  0  3  0  0  0  0  0  0  0  0  0
    1.1000    0.7333    0.0000 C   0  0  0  0  0  0  0  0  0  0  0  0
    1.8125    1.9833    0.0000 O   0  0  0  0  0  0  0  0  0  0  0  0
    1.1167   -1.7917    0.0000 C   0  0  0  0  0  0  0  0  0  0  0  0
    1.8125   -0.5042    0.0000 C   0  0  0  0  0  0  0  0  0  0  0  0
    3.2417   -0.5167    0.0000 C   0  0  0  0  0  0  0  0  0  0  0  0
   -0.3250   -0.1167    0.0000 C   0  0  0  0  0  0  0  0  0  0  0  0
   -0.3250   -1.7667    0.0000 C   0  0  0  0  0  0  0  0  0  0  0  0
    1.8125   -1.3417    0.0000 C   0  0  0  0  0  0  0  0  0  0  0  0
    3.2417   -1.3667    0.0000 C   0  0  0  0  0  0  0  0  0  0  0  0
   -1.0458   -0.5417    0.0000 C   0  0  0  0  0  0  0  0  0  0  0  0
   -1.0458   -1.3667    0.0000 C   0  0  0  0  0  0  0  0  0  0  0  0
    2.5250   -1.7542    0.0000 C   0  0  0  0  0  0  0  0  0  0  0  0
    6.3954    0.1176    0.0000 C   0  0  0  0  0  0  0  0  0  0  0  0
    6.0936    0.8899    0.0000 O   0  0  0  0  0  0  0  0  0  0  0  0
    5.8762   -0.5287    0.0000 C   0  0  0  0  0  0  0  0  0  0  0  0
    7.2094   -0.0022    0.0000 O   0  0  0  0  0  0  0  0  0  0  0  0
    5.0553   -0.4026    0.0000 C   0  0  0  0  0  0  0  0  0  0  0  0
    6.1740   -1.3025    0.0000 C   0  0  0  0  0  0  0  0  0  0  0  0
    4.5346   -1.0450    0.0000 C   0  0  0  0  0  0  0  0  0  0  0  0
    5.6510   -1.9503    0.0000 C   0  0  0  0  0  0  0  0  0  0  0  0
    4.8325   -1.8189    0.0000 C   0  0  0  0  0  0  0  0  0  0  0  0
 11  5  1  0  0  0  0
 12  1  1  0  0  0  0
 13  1  1  0  0  0  0
 14  3  1  0  0  0  0
 15  5  1  0  0  0  0
 16 12  1  0  0  0  0
 17 13  1  0  0  0  0
 18 14  2  0  0  0  0
 19 18  1  0  0  0  0
 20 17  1  0  0  0  0
 16 20  1  0  0  0  0
 15 19  2  0  0  0  0
  2  9  1  0  0  0  0
  3  2  1  0  0  0  0
  4  1  1  0  0  0  0
  5  3  2  0  0  0  0
  6 11  1  0  0  0  0
  7  6  2  0  0  0  0
  8  4  1  0  0  0  0
  9  8  1  0  0  0  0
 10  8  1  0  0  0  0
 22 21  2  0  0  0  0
 23 21  1  0  0  0  0
 24 21  1  0  0  0  0
 25 23  2  0  0  0  0
 26 23  1  0  0  0  0
 27 25  1  0  0  0  0
 28 26  2  0  0  0  0
 29 28  1  0  0  0  0
 29 27  2  0  0  0  0
M  END
> <IDNUMBER>
F1345-0583

> <Chemical_Name>
1-(piperidin-1-yl)-3-[2-(prop-2-en-1-yl)phenoxy]propan-2-ol; benzoic acid

> <CAS>
483966-93-4

> <PriceCoeff>
1.50

> <MW>
275.39

> <Description>
solid

> <FSP3>
0.53

> <clogP>
3.61

> <TPSA>
32.70

> <Acceptor>
2

> <Donor>
2

> <RotBonds>
7

> <HAC>
20

> <Collection>
Advanced

> <Reference_compound>
PRI1826

> <Similarity>
0.8570

$$$$
F2135-1140
  -ISIS-  06222321462D

 17 18  0  0  0  0  0  0  0  0999 V2000
    0.7000   -0.8333    0.0000 C   0  0  0  0  0  0  0  0  0  0  0  0
    1.5250   -0.8292    0.0000 C   0  0  0  0  0  0  0  0  0  0  0  0
    1.7792   -1.6167    0.0000 C   0  0  0  0  0  0  0  0  0  0  0  0
    1.1167   -2.1042    0.0000 N   0  0  3  0  0  0  0  0  0  0  0  0
    0.4458   -1.6208    0.0000 N   0  0  0  0  0  0  0  0  0  0  0  0
    0.2125   -0.1667    0.0000 C   0  0  3  0  0  0  0  0  0  0  0  0
    1.1208   -2.9292    0.0000 C   0  0  0  0  0  0  0  0  0  0  0  0
    2.0042   -0.1625    0.0000 Cl  0  0  0  0  0  0  0  0  0  0  0  0
    2.5667   -1.8667    0.0000 O   0  0  0  0  0  0  0  0  0  0  0  0
    0.9792    0.1292    0.0000 F   0  0  0  0  0  0  0  0  0  0  0  0
    0.5458    0.5875    0.0000 F   0  0  0  0  0  0  0  0  0  0  0  0
   -0.6083   -0.2542    0.0000 F   0  0  0  0  0  0  0  0  0  0  0  0
    0.4083   -3.3417    0.0000 C   0  0  0  0  0  0  0  0  0  0  0  0
    1.8375   -3.3417    0.0000 C   0  0  0  0  0  0  0  0  0  0  0  0
    1.8375   -4.1708    0.0000 C   0  0  0  0  0  0  0  0  0  0  0  0
    0.4083   -4.1708    0.0000 C   0  0  0  0  0  0  0  0  0  0  0  0
    1.1208   -4.5833    0.0000 C   0  0  0  0  0  0  0  0  0  0  0  0
  2  1  1  0  0  0  0
  3  2  2  0  0  0  0
  4  5  1  0  0  0  0
  5  1  2  0  0  0  0
  6  1  1  0  0  0  0
  7  4  1  0  0  0  0
  8  2  1  0  0  0  0
  9  3  1  0  0  0  0
 10  6  1  0  0  0  0
 11  6  1  0  0  0  0
 12  6  1  0  0  0  0
 13  7  1  0  0  0  0
 14  7  2  0  0  0  0
 15 14  1  0  0  0  0
 16 13  2  0  0  0  0
 17 16  1  0  0  0  0
  3  4  1  0  0  0  0
 15 17  2  0  0  0  0
M  END
> <IDNUMBER>
F2135-1140

> <Chemical_Name>
4-chloro-1-phenyl-3-(trifluoromethyl)-1H-pyrazol-5-ol

> <CAS>
122431-44-1

> <PriceCoeff>
1.50

> <MW>
262.62

> <Description>
solid

> <FSP3>
0.10

> <clogP>
3.34

> <TPSA>
38.05

> <Acceptor>
2

> <Donor>
2

> <RotBonds>
1

> <HAC>
17

> <Collection>
Advanced

$$$$
F6401-0070
  -ISIS-  06222321462D

 24 26  0  0  0  0  0  0  0  0999 V2000
    3.6417   -1.1667    0.0000 N   0  0  3  0  0  0  0  0  0  0  0  0
    4.0500   -0.2500    0.0000 C   0  0  0  0  0  0  0  0  0  0  0  0
    2.6500   -1.2792    0.0000 C   0  0  0  0  0  0  0  0  0  0  0  0
    7.1500   -0.0917    0.0000 C   0  0  3  0  0  0  0  0  0  0  0  0
    2.4667    0.4458    0.0000 C   0  0  3  0  0  0  0  0  0  0  0  0
    1.8792    1.2500    0.0000 C   0  0  0  0  0  0  0  0  0  0  0  0
    3.4625    0.5500    0.0000 C   0  0  0  0  0  0  0  0  0  0  0  0
    2.0625   -0.4667    0.0000 C   0  0  0  0  0  0  0  0  0  0  0  0
    6.7417   -1.0125    0.0000 C   0  0  0  0  0  0  0  0  0  0  0  0
    4.3542   -2.1375    0.0000 C   0  0  0  0  0  0  0  0  0  0  0  0
    2.1875    2.2125    0.0000 S   0  0  0  0  0  0  0  0  0  0  0  0
    2.2417   -2.1917    0.0000 O   0  0  0  0  0  0  0  0  0  0  0  0
    4.6417   -0.1875    0.0000 O   0  0  0  0  0  0  0  0  0  0  0  0
    5.7500   -1.1167    0.0000 C   0  0  0  0  0  0  0  0  0  0  0  0
    0.8792    1.2500    0.0000 C   0  0  0  0  0  0  0  0  0  0  0  0
    1.3792    2.7958    0.0000 C   0  0  0  0  0  0  0  0  0  0  0  0
    5.3500   -2.0292    0.0000 C   0  0  0  0  0  0  0  0  0  0  0  0
    0.5667    2.2125    0.0000 C   0  0  0  0  0  0  0  0  0  0  0  0
    6.2375    0.3083    0.0000 F   0  0  0  0  0  0  0  0  0  0  0  0
    7.5542    0.8208    0.0000 F   0  0  0  0  0  0  0  0  0  0  0  0
    8.0667   -0.5000    0.0000 F   0  0  0  0  0  0  0  0  0  0  0  0
    7.3292   -1.8167    0.0000 C   0  0  0  0  0  0  0  0  0  0  0  0
    6.9292   -2.7375    0.0000 C   0  0  0  0  0  0  0  0  0  0  0  0
    5.9375   -2.8375    0.0000 C   0  0  0  0  0  0  0  0  0  0  0  0
  2  1  1  0  0  0  0
  3  1  1  0  0  0  0
  4  9  1  0  0  0  0
  5  8  1  0  0  0  0
  6  5  1  0  0  0  0
  7  2  1  0  0  0  0
  8  3  1  0  0  0  0
  9 14  2  0  0  0  0
 10  1  1  0  0  0  0
 11  6  1  0  0  0  0
 12  3  2  0  0  0  0
 13  2  2  0  0  0  0
 14 17  1  0  0  0  0
 15  6  2  0  0  0  0
 16 11  1  0  0  0  0
 17 10  1  0  0  0  0
 18 15  1  0  0  0  0
 19  4  1  0  0  0  0
 20  4  1  0  0  0  0
 21  4  1  0  0  0  0
 22 23  2  0  0  0  0
 23 24  1  0  0  0  0
 24 17  2  0  0  0  0
  7  5  1  0  0  0  0
 22  9  1  0  0  0  0
 16 18  2  0  0  0  0
M  END
> <IDNUMBER>
F6401-0070

> <Chemical_Name>
4-(thiophen-2-yl)-1-{[3-(trifluoromethyl)phenyl]methyl}piperidine-2,6-dione

> <CAS>
1396868-99-7

> <PriceCoeff>
1.50

> <MW>
353.36

> <Description>
solid

> <FSP3>
0.29

> <clogP>
3.62

> <TPSA>
65.62

> <Acceptor>
2

> <Donor>
0

> <RotBonds>
3

> <HAC>
24

> <Collection>
Advanced

$$$$
F2609-2014
  -ISIS-  06222321442D

 26 29  0  0  0  0  0  0  0  0999 V2000
   -4.5583    1.3333    0.0000 C   0  0  0  0  0  0  0  0  0  0  0  0
   -4.6458    0.5125    0.0000 N   0  0  0  0  0  0  0  0  0  0  0  0
   -0.2833    2.9833    0.0000 N   0  0  3  0  0  0  0  0  0  0  0  0
   -5.3208    1.6625    0.0000 S   0  0  0  0  0  0  0  0  0  0  0  0
   -5.4458    0.3375    0.0000 C   0  0  0  0  0  0  0  0  0  0  0  0
   -3.8458    1.7375    0.0000 N   0  0  3  0  0  0  0  0  0  0  0  0
   -1.7083    2.9833    0.0000 C   0  0  0  0  0  0  0  0  0  0  0  0
   -1.0000    2.5625    0.0000 C   0  0  0  0  0  0  0  0  0  0  0  0
   -0.1958    3.7958    0.0000 C   0  0  0  0  0  0  0  0  0  0  0  0
    0.4625    2.6333    0.0000 C   0  0  0  0  0  0  0  0  0  0  0  0
   -2.4250    2.5625    0.0000 N   0  0  3  0  0  0  0  0  0  0  0  0
   -5.8583    1.0500    0.0000 C   0  0  0  0  0  0  0  0  0  0  0  0
   -5.8500   -0.3667    0.0000 C   0  0  0  0  0  0  0  0  0  0  0  0
   -3.8458    2.5625    0.0000 C   0  0  0  0  0  0  0  0  0  0  0  0
   -3.1375    1.3333    0.0000 C   0  0  0  0  0  0  0  0  0  0  0  0
   -3.1375    2.9833    0.0000 C   0  0  0  0  0  0  0  0  0  0  0  0
   -2.4250    1.7375    0.0000 C   0  0  0  0  0  0  0  0  0  0  0  0
   -1.7083    3.8000    0.0000 O   0  0  0  0  0  0  0  0  0  0  0  0
    0.6042    3.9583    0.0000 C   0  0  0  0  0  0  0  0  0  0  0  0
    1.0167    3.2458    0.0000 C   0  0  0  0  0  0  0  0  0  0  0  0
   -0.7958    4.3417    0.0000 O   0  0  0  0  0  0  0  0  0  0  0  0
    0.6292    1.8250    0.0000 O   0  0  0  0  0  0  0  0  0  0  0  0
   -5.4375   -1.0792    0.0000 F   0  0  0  0  0  0  0  0  0  0  0  0
   -6.6667    1.0500    0.0000 C   0  0  0  0  0  0  0  0  0  0  0  0
   -7.0792    0.3375    0.0000 C   0  0  0  0  0  0  0  0  0  0  0  0
   -6.6667   -0.3750    0.0000 C   0  0  0  0  0  0  0  0  0  0  0  0
  2  1  2  0  0  0  0
  3  8  1  0  0  0  0
  4  1  1  0  0  0  0
  5  2  1  0  0  0  0
  6  1  1  0  0  0  0
  7 11  1  0  0  0  0
  8  7  1  0  0  0  0
  9  3  1  0  0  0  0
 10  3  1  0  0  0  0
 11 17  1  0  0  0  0
 12  4  1  0  0  0  0
 13  5  1  0  0  0  0
 14  6  1  0  0  0  0
 15  6  1  0  0  0  0
 16 14  1  0  0  0  0
 17 15  1  0  0  0  0
 18  7  2  0  0  0  0
 19  9  1  0  0  0  0
 20 10  1  0  0  0  0
 21  9  2  0  0  0  0
 22 10  2  0  0  0  0
 23 13  1  0  0  0  0
 24 12  1  0  0  0  0
 25 24  2  0  0  0  0
 26 13  2  0  0  0  0
 12  5  2  0  0  0  0
 11 16  1  0  0  0  0
 26 25  1  0  0  0  0
 19 20  1  0  0  0  0
M  END
> <IDNUMBER>
F2609-2014

> <Chemical_Name>
1-{2-[4-(4-fluoro-1,3-benzothiazol-2-yl)piperazin-1-yl]-2-oxoethyl}pyrrolidine-2,5-dione

> <CAS>
897481-17-3

> <PriceCoeff>
1.50

> <MW>
376.41

> <Description>
solid

> <FSP3>
0.41

> <clogP>
1.97

> <TPSA>
102.06

> <Acceptor>
4

> <Donor>
1

> <RotBonds>
4

> <HAC>
26

> <Collection>
Advanced

$$$$
F3325-0080
  -ISIS-  06222321462D

 27 29  0  0  0  0  0  0  0  0999 V2000
    3.4500   -1.1292    0.0000 N   0  0  3  0  0  0  0  0  0  0  0  0
    3.9667   -1.7750    0.0000 C   0  0  0  0  0  0  0  0  0  0  0  0
    3.9000   -0.4292    0.0000 C   0  0  0  0  0  0  0  0  0  0  0  0
    4.7417   -1.4792    0.0000 C   0  0  3  0  0  0  0  0  0  0  0  0
    4.7000   -0.6500    0.0000 C   0  0  0  0  0  0  0  0  0  0  0  0
    7.4917   -3.2875    0.0000 C   0  0  0  0  0  0  0  0  0  0  0  0
    6.8042   -2.8292    0.0000 N   0  0  3  0  0  0  0  0  0  0  0  0
    5.4292   -1.9250    0.0000 N   0  0  3  0  0  0  0  0  0  0  0  0
    2.6292   -1.1667    0.0000 C   0  0  0  0  0  0  0  0  0  0  0  0
    8.2292   -2.9167    0.0000 O   0  0  0  0  0  0  0  0  0  0  0  0
    3.7542   -2.5667    0.0000 O   0  0  0  0  0  0  0  0  0  0  0  0
    3.6042    0.3375    0.0000 O   0  0  0  0  0  0  0  0  0  0  0  0
    7.4500   -4.1125    0.0000 O   0  0  0  0  0  0  0  0  0  0  0  0
    6.8542   -2.0042    0.0000 C   0  0  0  0  0  0  0  0  0  0  0  0
    6.0667   -3.2042    0.0000 C   0  0  0  0  0  0  0  0  0  0  0  0
    6.1667   -1.5542    0.0000 C   0  0  0  0  0  0  0  0  0  0  0  0
    5.3792   -2.7500    0.0000 C   0  0  0  0  0  0  0  0  0  0  0  0
    8.9250   -3.3667    0.0000 C   0  0  3  0  0  0  0  0  0  0  0  0
    2.1792   -0.4667    0.0000 C   0  0  0  0  0  0  0  0  0  0  0  0
    2.2542   -1.9000    0.0000 C   0  0  0  0  0  0  0  0  0  0  0  0
    1.4292   -1.9417    0.0000 C   0  0  0  0  0  0  0  0  0  0  0  0
    1.3542   -0.5125    0.0000 C   0  0  0  0  0  0  0  0  0  0  0  0
    0.9792   -1.2500    0.0000 C   0  0  0  0  0  0  0  0  0  0  0  0
    9.6625   -3.0000    0.0000 C   0  0  0  0  0  0  0  0  0  0  0  0
    8.8750   -4.1917    0.0000 C   0  0  0  0  0  0  0  0  0  0  0  0
    9.6375   -3.7792    0.0000 C   0  0  0  0  0  0  0  0  0  0  0  0
    0.1542   -1.2917    0.0000 C   0  0  0  0  0  0  0  0  0  0  0  0
  2  1  1  0  0  0  0
  3  1  1  0  0  0  0
  4  2  1  0  0  0  0
  5  3  1  0  0  0  0
  6  7  1  0  0  0  0
  7 15  1  0  0  0  0
  8  4  1  0  0  0  0
  9  1  1  0  0  0  0
 10  6  1  0  0  0  0
 11  2  2  0  0  0  0
 12  3  2  0  0  0  0
 13  6  2  0  0  0  0
 14 16  1  0  0  0  0
 15 17  1  0  0  0  0
 16  8  1  0  0  0  0
 17  8  1  0  0  0  0
 18 10  1  0  0  0  0
 19  9  2  0  0  0  0
 20  9  1  0  0  0  0
 21 20  2  0  0  0  0
 22 19  1  0  0  0  0
 23 21  1  0  0  0  0
 24 18  1  0  0  0  0
 25 18  1  0  0  0  0
 26 18  1  0  0  0  0
 27 23  1  0  0  0  0
  4  5  1  0  0  0  0
 22 23  2  0  0  0  0
 14  7  1  0  0  0  0
M  END
> <IDNUMBER>
F3325-0080

> <Chemical_Name>
tert-butyl 4-[1-(4-methylphenyl)-2,5-dioxopyrrolidin-3-yl]piperazine-1-carboxylate

> <CAS>
893762-46-4

> <PriceCoeff>
1.00

> <MW>
373.45

> <Description>
solid

> <FSP3>
0.55

> <clogP>
3.62

> <TPSA>
70.16

> <Acceptor>
4

> <Donor>
1

> <RotBonds>
4

> <HAC>
27

> <Collection>
General

$$$$
F6240-0033
  -ISIS-  06222321462D

 29 32  0  0  0  0  0  0  0  0999 V2000
    7.8917    1.1833    0.0000 C   0  0  0  0  0  0  0  0  0  0  0  0
    8.7125    1.7708    0.0000 C   0  0  0  0  0  0  0  0  0  0  0  0
    9.5167    1.1708    0.0000 N   0  0  3  0  0  0  0  0  0  0  0  0
    8.2000    0.2333    0.0000 N   0  0  0  0  0  0  0  0  0  0  0  0
    9.1917    0.2208    0.0000 N   0  0  0  0  0  0  0  0  0  0  0  0
    8.8292    2.7667    0.0000 C   0  0  0  0  0  0  0  0  0  0  0  0
    6.2000    0.8250    0.0000 N   0  0  3  0  0  0  0  0  0  0  0  0
    6.9417    1.4958    0.0000 C   0  0  0  0  0  0  0  0  0  0  0  0
    4.7042   -0.5042    0.0000 N   0  0  3  0  0  0  0  0  0  0  0  0
    4.5042    0.4750    0.0000 C   0  0  0  0  0  0  0  0  0  0  0  0
    5.6500   -0.8167    0.0000 C   0  0  0  0  0  0  0  0  0  0  0  0
    9.7500    3.1583    0.0000 N   0  0  0  0  0  0  0  0  0  0  0  0
   10.4292    1.5708    0.0000 C   0  0  0  0  0  0  0  0  0  0  0  0
    5.2417    1.1375    0.0000 C   0  0  0  0  0  0  0  0  0  0  0  0
    6.4000   -0.1542    0.0000 C   0  0  0  0  0  0  0  0  0  0  0  0
   10.5542    2.5583    0.0000 C   0  0  0  0  0  0  0  0  0  0  0  0
    3.9542   -1.1667    0.0000 C   0  0  0  0  0  0  0  0  0  0  0  0
    8.0292    3.3583    0.0000 O   0  0  0  0  0  0  0  0  0  0  0  0
    6.7417    2.4708    0.0000 O   0  0  0  0  0  0  0  0  0  0  0  0
    5.8500   -1.8000    0.0000 O   0  0  0  0  0  0  0  0  0  0  0  0
    3.5542    0.7875    0.0000 O   0  0  0  0  0  0  0  0  0  0  0  0
    3.0042   -0.8542    0.0000 C   0  0  0  0  0  0  0  0  0  0  0  0
    2.2583   -1.5167    0.0000 C   0  0  0  0  0  0  0  0  0  0  0  0
   11.4667    2.9542    0.0000 C   0  0  0  0  0  0  0  0  0  0  0  0
    2.4625   -2.4917    0.0000 C   0  0  0  0  0  0  0  0  0  0  0  0
    1.3042   -1.2000    0.0000 C   0  0  0  0  0  0  0  0  0  0  0  0
    0.5667   -1.8625    0.0000 C   0  0  0  0  0  0  0  0  0  0  0  0
    1.7042   -3.1625    0.0000 C   0  0  0  0  0  0  0  0  0  0  0  0
    0.7667   -2.8417    0.0000 C   0  0  0  0  0  0  0  0  0  0  0  0
  2  1  2  0  0  0  0
  3  2  1  0  0  0  0
  4  1  1  0  0  0  0
  5  4  2  0  0  0  0
  6  2  1  0  0  0  0
  7  8  1  0  0  0  0
  8  1  1  0  0  0  0
  9 11  1  0  0  0  0
 10 14  1  0  0  0  0
 11 15  1  0  0  0  0
 12  6  1  0  0  0  0
 13  3  1  0  0  0  0
 14  7  1  0  0  0  0
 15  7  1  0  0  0  0
 16 12  1  0  0  0  0
 17  9  1  0  0  0  0
 18  6  2  0  0  0  0
 19  8  2  0  0  0  0
 20 11  2  0  0  0  0
 21 10  2  0  0  0  0
 22 17  1  0  0  0  0
 23 22  1  0  0  0  0
 24 16  1  0  0  0  0
 25 23  1  0  0  0  0
 26 23  2  0  0  0  0
 27 26  1  0  0  0  0
 28 25  2  0  0  0  0
 29 27  2  0  0  0  0
  5  3  1  0  0  0  0
  9 10  1  0  0  0  0
 13 16  2  0  0  0  0
 29 28  1  0  0  0  0
M  END
> <IDNUMBER>
F6240-0033

> <Chemical_Name>
4-{6-methyl-4-oxo-4H,5H-[1,2,3]triazolo[1,5-a]pyrazine-3-carbonyl}-1-(2-phenylethyl)piperazine-2,6-dione

> <CAS>
1795299-47-6

> <PriceCoeff>
1.00

> <MW>
394.38

> <Description>
solid

> <FSP3>
0.26

> <clogP>
0.36

> <TPSA>
117.50

> <Acceptor>
6

> <Donor>
1

> <RotBonds>
5

> <HAC>
29

> <Collection>
General

$$$$
F6246-3077
  -ISIS-  06222321462D

 27 28  0  0  0  0  0  0  0  0999 V2000
   -2.0750    7.5500    0.0000 C   0  0  0  0  0  0  0  0  0  0  0  0
   -2.8958    7.5167    0.0000 N   0  0  3  0  0  0  0  0  0  0  0  0
   -1.7958    6.7792    0.0000 N   0  0  0  0  0  0  0  0  0  0  0  0
   -3.1208    6.7208    0.0000 C   0  0  0  0  0  0  0  0  0  0  0  0
   -2.4333    6.2667    0.0000 N   0  0  3  0  0  0  0  0  0  0  0  0
   -6.0042    3.4458    0.0000 N   0  0  3  0  0  0  0  0  0  0  0  0
   -3.8708    3.8000    0.0000 S   0  0  3  0  0  0  0  0  0  0  0  0
   -1.6208    8.2375    0.0000 C   0  0  3  0  0  0  0  0  0  0  0  0
   -6.7042    3.8750    0.0000 C   0  0  0  0  0  0  0  0  0  0  0  0
   -6.0250    2.6208    0.0000 C   0  0  0  0  0  0  0  0  0  0  0  0
   -4.5917    3.4083    0.0000 C   0  0  0  0  0  0  0  0  0  0  0  0
   -5.2833    3.8333    0.0000 C   0  0  0  0  0  0  0  0  0  0  0  0
   -3.8958    6.4417    0.0000 O   0  0  0  0  0  0  0  0  0  0  0  0
   -3.4750    3.0833    0.0000 O   0  0  0  0  0  0  0  0  0  0  0  0
   -4.0708    4.6042    0.0000 O   0  0  0  0  0  0  0  0  0  0  0  0
   -3.1583    4.2042    0.0000 N   0  0  0  0  0  0  0  0  0  0  0  0
   -2.4458    5.4500    0.0000 C   0  0  0  0  0  0  0  0  0  0  0  0
   -5.3208    2.1875    0.0000 O   0  0  0  0  0  0  0  0  0  0  0  0
   -6.6875    4.6917    0.0000 O   0  0  0  0  0  0  0  0  0  0  0  0
   -1.0750    7.6167    0.0000 F   0  0  0  0  0  0  0  0  0  0  0  0
   -0.8000    8.1875    0.0000 F   0  0  0  0  0  0  0  0  0  0  0  0
   -1.9833    8.9750    0.0000 F   0  0  0  0  0  0  0  0  0  0  0  0
   -3.1583    5.0333    0.0000 C   0  0  0  0  0  0  0  0  0  0  0  0
   -3.4708    8.1125    0.0000 C   0  0  0  0  0  0  0  0  0  0  0  0
   -6.7417    2.2250    0.0000 C   0  0  0  0  0  0  0  0  0  0  0  0
   -7.4167    3.4792    0.0000 C   0  0  0  0  0  0  0  0  0  0  0  0
   -7.4417    2.6583    0.0000 C   0  0  0  0  0  0  0  0  0  0  0  0
  2  1  1  0  0  0  0
  3  1  2  0  0  0  0
  4  2  1  0  0  0  0
  5  3  1  0  0  0  0
  6 12  1  0  0  0  0
  7 16  1  0  0  0  0
  8  1  1  0  0  0  0
  9  6  1  0  0  0  0
 10  6  1  0  0  0  0
 11  7  1  0  0  0  0
 12 11  1  0  0  0  0
 13  4  2  0  0  0  0
 14  7  2  0  0  0  0
 15  7  2  0  0  0  0
 16 23  1  0  0  0  0
 17  5  1  0  0  0  0
 18 10  2  0  0  0  0
 19  9  2  0  0  0  0
 20  8  1  0  0  0  0
 21  8  1  0  0  0  0
 22  8  1  0  0  0  0
 23 17  1  0  0  0  0
 24  2  1  0  0  0  0
 25 10  1  0  0  0  0
 26  9  1  0  0  0  0
 27 25  1  0  0  0  0
  5  4  1  0  0  0  0
 26 27  1  0  0  0  0
M  END
> <IDNUMBER>
F6246-3077

> <Chemical_Name>
2-(2,6-dioxopiperidin-1-yl)-N-{2-[4-methyl-5-oxo-3-(trifluoromethyl)-4,5-dihydro-1H-1,2,4-triazol-1-yl]ethyl}ethane-1-sulfonamide

> <CAS>
1421491-29-3

> <PriceCoeff>
1.50

> <MW>
413.37

> <Description>
oil

> <FSP3>
0.69

> <clogP>
0.55

> <TPSA>
127.84

> <Acceptor>
6

> <Donor>
1

> <RotBonds>
7

> <HAC>
27

> <Collection>
Advanced

$$$$
F6401-0077
  -ISIS-  06222321462D

 24 26  0  0  0  0  0  0  0  0999 V2000
    5.0375   -0.8917    0.0000 N   0  0  3  0  0  0  0  0  0  0  0  0
    4.8292   -1.8667    0.0000 C   0  0  0  0  0  0  0  0  0  0  0  0
    4.2917   -0.2208    0.0000 C   0  0  0  0  0  0  0  0  0  0  0  0
    6.1750   -0.5167    0.0000 C   0  0  0  0  0  0  0  0  0  0  0  0
    3.1375   -1.5167    0.0000 C   0  0  3  0  0  0  0  0  0  0  0  0
    2.1875   -1.8292    0.0000 C   0  0  0  0  0  0  0  0  0  0  0  0
    6.3792    0.4625    0.0000 C   0  0  0  0  0  0  0  0  0  0  0  0
    3.8875   -2.1792    0.0000 C   0  0  0  0  0  0  0  0  0  0  0  0
    3.3417   -0.5375    0.0000 C   0  0  0  0  0  0  0  0  0  0  0  0
    1.8792   -2.7875    0.0000 S   0  0  0  0  0  0  0  0  0  0  0  0
    4.4167    0.3625    0.0000 O   0  0  0  0  0  0  0  0  0  0  0  0
    5.5792   -2.5292    0.0000 O   0  0  0  0  0  0  0  0  0  0  0  0
    7.3292    0.7750    0.0000 C   0  0  0  0  0  0  0  0  0  0  0  0
    1.3792   -1.2500    0.0000 C   0  0  0  0  0  0  0  0  0  0  0  0
    0.8792   -2.7875    0.0000 C   0  0  0  0  0  0  0  0  0  0  0  0
    5.6417    1.1333    0.0000 O   0  0  0  0  0  0  0  0  0  0  0  0
    0.5667   -1.8292    0.0000 C   0  0  0  0  0  0  0  0  0  0  0  0
    8.0792    0.1083    0.0000 C   0  0  0  0  0  0  0  0  0  0  0  0
    7.5417    1.7583    0.0000 C   0  0  0  0  0  0  0  0  0  0  0  0
    9.2292    1.4000    0.0000 C   0  0  0  0  0  0  0  0  0  0  0  0
    8.4875    2.0625    0.0000 C   0  0  0  0  0  0  0  0  0  0  0  0
    9.0292    0.4250    0.0000 C   0  0  0  0  0  0  0  0  0  0  0  0
   10.1792    1.7125    0.0000 O   0  0  0  0  0  0  0  0  0  0  0  0
   10.3792    2.6958    0.0000 C   0  0  0  0  0  0  0  0  0  0  0  0
  2  1  1  0  0  0  0
  3  1  1  0  0  0  0
  4  1  1  0  0  0  0
  5  9  1  0  0  0  0
  6  5  1  0  0  0  0
  7  4  1  0  0  0  0
  8  2  1  0  0  0  0
  9  3  1  0  0  0  0
 10  6  1  0  0  0  0
 11  3  2  0  0  0  0
 12  2  2  0  0  0  0
 13  7  1  0  0  0  0
 14  6  2  0  0  0  0
 15 10  1  0  0  0  0
 16  7  2  0  0  0  0
 17 14  1  0  0  0  0
 18 13  1  0  0  0  0
 19 13  2  0  0  0  0
 20 21  2  0  0  0  0
 21 19  1  0  0  0  0
 22 18  2  0  0  0  0
 23 20  1  0  0  0  0
 24 23  1  0  0  0  0
  5  8  1  0  0  0  0
 22 20  1  0  0  0  0
 17 15  2  0  0  0  0
M  END
> <IDNUMBER>
F6401-0077

> <Chemical_Name>
1-[2-(4-methoxyphenyl)-2-oxoethyl]-4-(thiophen-2-yl)piperidine-2,6-dione

> <CAS>
1396861-71-4

> <PriceCoeff>
1.50

> <MW>
343.40

> <Description>
solid

> <FSP3>
0.28

> <clogP>
2.88

> <TPSA>
91.92

> <Acceptor>
4

> <Donor>
0

> <RotBonds>
5

> <HAC>
24

> <Collection>
Advanced

$$$$
F2148-2605
  -ISIS-  06222321142D

 18 20  0  0  0  0  0  0  0  0999 V2000
    9.6292  -11.0667    0.0000 N   0  0  3  0  0  0  0  0  0  0  0  0
    8.9250  -12.3125    0.0000 C   0  0  0  0  0  0  0  0  0  0  0  0
    7.4917  -12.3167    0.0000 C   0  0  0  0  0  0  0  0  0  0  0  0
    8.2042  -11.9000    0.0000 C   0  0  0  0  0  0  0  0  0  0  0  0
    9.6375  -11.8917    0.0000 C   0  0  3  0  0  0  0  0  0  0  0  0
    7.4917  -13.1417    0.0000 C   0  0  0  0  0  0  0  0  0  0  0  0
    6.7125  -12.0625    0.0000 O   0  0  0  0  0  0  0  0  0  0  0  0
    6.7125  -13.3917    0.0000 O   0  0  0  0  0  0  0  0  0  0  0  0
    6.2292  -12.7292    0.0000 C   0  0  0  0  0  0  0  0  0  0  0  0
    8.9250  -13.1417    0.0000 C   0  0  0  0  0  0  0  0  0  0  0  0
    8.2042  -13.5542    0.0000 C   0  0  0  0  0  0  0  0  0  0  0  0
    9.6292   -9.4250    0.0000 O   0  0  0  0  0  0  0  0  0  0  0  0
   11.0667  -11.8917    0.0000 N   0  0  0  0  0  0  0  0  0  0  0  0
   10.3417  -10.6542    0.0000 C   0  0  0  0  0  0  0  0  0  0  0  0
    8.9167  -10.6667    0.0000 C   0  0  0  0  0  0  0  0  0  0  0  0
   10.3542  -12.3042    0.0000 C   0  0  0  0  0  0  0  0  0  0  0  0
    8.9167   -9.8375    0.0000 C   0  0  0  0  0  0  0  0  0  0  0  0
   10.3417   -9.8375    0.0000 C   0  0  0  0  0  0  0  0  0  0  0  0
  2  5  1  0  0  0  0
  3  4  1  0  0  0  0
  4  2  2  0  0  0  0
  5  1  1  0  0  0  0
  6 11  1  0  0  0  0
  7  3  1  0  0  0  0
  8  6  1  0  0  0  0
  9  7  1  0  0  0  0
 10  2  1  0  0  0  0
 11 10  2  0  0  0  0
 12 17  1  0  0  0  0
 13 16  1  0  0  0  0
 14  1  1  0  0  0  0
 15  1  1  0  0  0  0
 16  5  1  0  0  0  0
 17 15  1  0  0  0  0
 18 14  1  0  0  0  0
 18 12  1  0  0  0  0
  3  6  2  0  0  0  0
  9  8  1  0  0  0  0
M  END
> <IDNUMBER>
F2148-2605

> <Chemical_Name>
2-(2H-1,3-benzodioxol-5-yl)-2-(morpholin-4-yl)ethan-1-amine

> <CAS>
951919-47-4

> <PriceCoeff>
1.00

> <MW>
250.29

> <Description>
solid

> <FSP3>
0.54

> <clogP>
1.09

> <TPSA>
49.02

> <Acceptor>
5

> <Donor>
2

> <RotBonds>
3

> <HAC>
18

> <Collection>
General

> <Reference_compound>
CHEMBL1191355

> <Similarity>
0.8450

$$$$
F6660-6276
  -ISIS-  06222321162D

 17 19  0  0  0  0  0  0  0  0999 V2000
   14.4125   -3.1292    0.0000 N   0  0  0  0  0  0  0  0  0  0  0  0
   15.0750   -2.6292    0.0000 C   0  0  0  0  0  0  0  0  0  0  0  0
   13.7417   -2.6500    0.0000 C   0  0  0  0  0  0  0  0  0  0  0  0
   14.8042   -1.8500    0.0000 N   0  0  0  0  0  0  0  0  0  0  0  0
   13.9792   -1.8625    0.0000 O   0  0  0  0  0  0  0  0  0  0  0  0
   15.8792   -2.7917    0.0000 C   0  0  0  0  0  0  0  0  0  0  0  0
   12.9375   -2.8292    0.0000 C   0  0  0  0  0  0  0  0  0  0  0  0
   11.3250   -3.1917    0.0000 N   0  0  0  0  0  0  0  0  0  0  0  0
   11.5750   -2.4042    0.0000 C   0  0  0  0  0  0  0  0  0  0  0  0
   11.8917   -3.8000    0.0000 C   0  0  0  0  0  0  0  0  0  0  0  0
   12.3792   -2.2167    0.0000 C   0  0  0  0  0  0  0  0  0  0  0  0
   12.6917   -3.6167    0.0000 C   0  0  0  0  0  0  0  0  0  0  0  0
   16.1417   -3.5792    0.0000 C   0  0  0  0  0  0  0  0  0  0  0  0
   16.4167   -2.1750    0.0000 C   0  0  0  0  0  0  0  0  0  0  0  0
   17.2375   -2.3375    0.0000 C   0  0  0  0  0  0  0  0  0  0  0  0
   16.9542   -3.7417    0.0000 C   0  0  0  0  0  0  0  0  0  0  0  0
   17.5000   -3.1167    0.0000 C   0  0  0  0  0  0  0  0  0  0  0  0
  2  1  1  0  0  0  0
  3  1  2  0  0  0  0
  4  2  2  0  0  0  0
  5  3  1  0  0  0  0
  6  2  1  0  0  0  0
  7  3  1  0  0  0  0
  8 10  1  0  0  0  0
  9 11  1  0  0  0  0
 10 12  2  0  0  0  0
 11  7  2  0  0  0  0
 12  7  1  0  0  0  0
 13  6  1  0  0  0  0
 14  6  2  0  0  0  0
 15 14  1  0  0  0  0
 16 13  2  0  0  0  0
 17 15  2  0  0  0  0
  4  5  1  0  0  0  0
  9  8  2  0  0  0  0
 16 17  1  0  0  0  0
M  END
> <IDNUMBER>
F6660-6276

> <Chemical_Name>
4-(3-phenyl-1,2,4-oxadiazol-5-yl)pyridine

> <CAS>
4969-62-4

> <PriceCoeff>
1.00

> <MW>
223.23

> <Description>
solid

> <FSP3>
0.00

> <clogP>
2.29

> <TPSA>
51.81

> <Acceptor>
4

> <Donor>
1

> <RotBonds>
2

> <HAC>
17

> <Collection>
General

> <Reference_compound>
CHEMBL2272947

> <Similarity>
0.8600

$$$$
F5729-1016
  -ISIS-  06222304352D

 33 35  0  0  0  0  0  0  0  0999 V2000
    0.5417    8.4292    0.0000 N   0  0  3  0  0  0  0  0  0  0  0  0
   -0.2500    5.0625    0.0000 N   0  0  3  0  0  0  0  0  0  0  0  0
    0.5000    4.1167    0.0000 N   0  0  0  0  0  0  0  0  0  0  0  0
   -0.2208    4.3167    0.0000 C   0  0  0  0  0  0  0  0  0  0  0  0
   -0.7500    8.4792    0.0000 C   0  0  0  0  0  0  0  0  0  0  0  0
   -0.0875    8.8292    0.0000 C   0  0  0  0  0  0  0  0  0  0  0  0
    0.4500    5.3292    0.0000 C   0  0  0  0  0  0  0  0  0  0  0  0
    0.6667    7.6875    0.0000 C   0  0  0  0  0  0  0  0  0  0  0  0
    1.2125    8.7792    0.0000 C   0  0  0  0  0  0  0  0  0  0  0  0
   -0.7833    7.7292    0.0000 N   0  0  3  0  0  0  0  0  0  0  0  0
    0.9167    4.7417    0.0000 C   0  0  0  0  0  0  0  0  0  0  0  0
   -0.8875    5.4667    0.0000 C   0  0  0  0  0  0  0  0  0  0  0  0
   -1.3833    8.8792    0.0000 O   0  0  0  0  0  0  0  0  0  0  0  0
    1.7417    8.2417    0.0000 C   0  0  0  0  0  0  0  0  0  0  0  0
    1.4125    7.5750    0.0000 C   0  0  0  0  0  0  0  0  0  0  0  0
    1.3167    9.5167    0.0000 O   0  0  0  0  0  0  0  0  0  0  0  0
    0.1500    7.1542    0.0000 O   0  0  0  0  0  0  0  0  0  0  0  0
   -1.4500    7.3792    0.0000 C   0  0  0  0  0  0  0  0  0  0  0  0
   -0.1583    7.3292    0.0000 C   0  0  0  0  0  0  0  0  0  0  0  0
   -0.8500    6.2292    0.0000 C   0  0  3  0  0  0  0  0  0  0  0  0
   -0.8083    3.8458    0.0000 C   0  0  0  0  0  0  0  0  0  0  0  0
   -1.4833    6.6292    0.0000 C   0  0  0  0  0  0  0  0  0  0  0  0
   -0.1875    6.5792    0.0000 C   0  0  0  0  0  0  0  0  0  0  0  0
    0.7250    6.0250    0.0000 C   0  0  0  0  0  0  0  0  0  0  0  0
    1.6625    4.8542    0.0000 C   0  0  0  0  0  0  0  0  0  0  0  0
    1.4667    6.1375    0.0000 C   0  0  0  0  0  0  0  0  0  0  0  0
    1.9292    5.5542    0.0000 C   0  0  0  0  0  0  0  0  0  0  0  0
    4.1555    6.4172    0.0000 C   0  0  0  0  0  0  0  0  0  0  0  0
    4.3773    7.2160    0.0000 C   0  0  0  0  0  0  0  0  0  0  0  0
    4.7346    5.8273    0.0000 O   0  0  0  0  0  0  0  0  0  0  0  0
    3.7982    7.8060    0.0000 O   0  0  0  0  0  0  0  0  0  0  0  0
    5.1783    7.4191    0.0000 O   0  0  0  0  0  0  0  0  0  0  0  0
    3.3515    6.2087    0.0000 O   0  0  0  0  0  0  0  0  0  0  0  0
  8  1  1  0  0  0  0
  9  1  1  0  0  0  0
 10  5  1  0  0  0  0
 11  7  2  0  0  0  0
 12 20  1  0  0  0  0
 13  5  2  0  0  0  0
 14  9  1  0  0  0  0
 15  8  1  0  0  0  0
 16  9  2  0  0  0  0
 17  8  2  0  0  0  0
 18 10  1  0  0  0  0
 19 10  1  0  0  0  0
 20 23  1  0  0  0  0
 21  4  1  0  0  0  0
 22 18  1  0  0  0  0
 23 19  1  0  0  0  0
 24  7  1  0  0  0  0
 25 11  1  0  0  0  0
 26 24  2  0  0  0  0
 27 26  1  0  0  0  0
 14 15  1  0  0  0  0
 20 22  1  0  0  0  0
  3 11  1  0  0  0  0
 25 27  2  0  0  0  0
  2 12  1  0  0  0  0
  3  4  2  0  0  0  0
  4  2  1  0  0  0  0
  5  6  1  0  0  0  0
  6  1  1  0  0  0  0
  7  2  1  0  0  0  0
 29 28  1  0  0  0  0
 30 28  2  0  0  0  0
 31 29  2  0  0  0  0
 32 29  1  0  0  0  0
 33 28  1  0  0  0  0
M  END
> <IDNUMBER>
F5729-1016

> <Chemical_Name>
1-(2-{4-[(2-methyl-1H-1,3-benzodiazol-1-yl)methyl]piperidin-1-yl}-2-oxoethyl)pyrrolidine-2,5-dione; oxalic acid

> <CAS>
1351599-32-0

> <PriceCoeff>
1.50

> <MW>
368.43

> <Description>
solid

> <FSP3>
0.50

> <clogP>
1.25

> <TPSA>
75.51

> <Acceptor>
4

> <Donor>
0

> <RotBonds>
5

> <HAC>
27

> <Collection>
Advanced

$$$$
F1926-0026
  -ISIS-  06222321452D

 14 15  0  0  0  0  0  0  0  0999 V2000
    2.9792   -0.8500    0.0000 C   0  0  0  0  0  0  0  0  0  0  0  0
    2.3292   -1.2250    0.0000 N   0  0  0  0  0  0  0  0  0  0  0  0
    1.6792   -0.8500    0.0000 C   0  0  0  0  0  0  0  0  0  0  0  0
    2.9792   -0.0917    0.0000 C   0  0  0  0  0  0  0  0  0  0  0  0
    3.6375   -1.2250    0.0000 C   0  0  0  0  0  0  0  0  0  0  0  0
    2.3292    0.2833    0.0000 C   0  0  0  0  0  0  0  0  0  0  0  0
    1.6792   -0.0917    0.0000 C   0  0  0  0  0  0  0  0  0  0  0  0
    1.0375   -1.2250    0.0000 N   0  0  0  0  0  0  0  0  0  0  0  0
    1.0375    0.2750    0.0000 N   0  0  0  0  0  0  0  0  0  0  0  0
    4.2875   -0.8500    0.0000 O   0  0  0  0  0  0  0  0  0  0  0  0
    3.6292    0.2833    0.0000 Br  0  0  0  0  0  0  0  0  0  0  0  0
    3.6375   -1.9750    0.0000 O   0  0  0  0  0  0  0  0  0  0  0  0
    0.3875   -0.8500    0.0000 C   0  0  0  0  0  0  0  0  0  0  0  0
    0.3875   -0.0917    0.0000 C   0  0  0  0  0  0  0  0  0  0  0  0
  2  1  2  0  0  0  0
  3  2  1  0  0  0  0
  4  1  1  0  0  0  0
  5  1  1  0  0  0  0
  6  4  2  0  0  0  0
  7  6  1  0  0  0  0
  8  3  2  0  0  0  0
  9  7  2  0  0  0  0
 10  5  2  0  0  0  0
 11  4  1  0  0  0  0
 12  5  1  0  0  0  0
 13  8  1  0  0  0  0
 14  9  1  0  0  0  0
  7  3  1  0  0  0  0
 13 14  2  0  0  0  0
M  END
> <IDNUMBER>
F1926-0026

> <Chemical_Name>
7-bromopyrido[2,3-b]pyrazine-6-carboxylic acid

> <CAS>
887206-72-6

> <PriceCoeff>
1.50

> <MW>
254.04

> <Description>
solid

> <FSP3>
0.00

> <clogP>
0.80

> <TPSA>
75.97

> <Acceptor>
5

> <Donor>
1

> <RotBonds>
1

> <HAC>
14

> <Collection>
Advanced

$$$$
F5381-0023
  -ISIS-  06222321462D

 25 27  0  0  0  0  0  0  0  0999 V2000
   -3.1375    4.2167    0.0000 S   0  0  3  0  0  0  0  0  0  0  0  0
   -0.9583    4.6375    0.0000 N   0  0  3  0  0  0  0  0  0  0  0  0
   -3.8625    3.8000    0.0000 N   0  0  3  0  0  0  0  0  0  0  0  0
   -6.0292    2.5458    0.0000 C   0  0  0  0  0  0  0  0  0  0  0  0
   -5.3125    2.9625    0.0000 N   0  0  3  0  0  0  0  0  0  0  0  0
   -2.4125    4.6417    0.0000 C   0  0  0  0  0  0  0  0  0  0  0  0
   -0.2250    4.2167    0.0000 C   0  0  0  0  0  0  0  0  0  0  0  0
   -0.9500    5.4667    0.0000 C   0  0  0  0  0  0  0  0  0  0  0  0
   -1.6875    4.2125    0.0000 C   0  0  0  0  0  0  0  0  0  0  0  0
   -3.8625    2.9583    0.0000 C   0  0  0  0  0  0  0  0  0  0  0  0
   -4.5958    4.2167    0.0000 C   0  0  0  0  0  0  0  0  0  0  0  0
   -2.7083    3.5000    0.0000 O   0  0  0  0  0  0  0  0  0  0  0  0
   -3.5500    4.9417    0.0000 O   0  0  0  0  0  0  0  0  0  0  0  0
   -6.0292    1.7000    0.0000 N   0  0  0  0  0  0  0  0  0  0  0  0
   -6.7542    2.9625    0.0000 N   0  0  0  0  0  0  0  0  0  0  0  0
   -4.5958    2.5458    0.0000 C   0  0  0  0  0  0  0  0  0  0  0  0
   -5.3208    3.8083    0.0000 C   0  0  0  0  0  0  0  0  0  0  0  0
   -0.2333    3.3833    0.0000 O   0  0  0  0  0  0  0  0  0  0  0  0
   -1.6833    5.8917    0.0000 O   0  0  0  0  0  0  0  0  0  0  0  0
   -0.2333    5.8917    0.0000 C   0  0  0  0  0  0  0  0  0  0  0  0
    0.5042    4.6375    0.0000 C   0  0  0  0  0  0  0  0  0  0  0  0
   -7.4792    1.7000    0.0000 C   0  0  0  0  0  0  0  0  0  0  0  0
   -6.7625    1.2833    0.0000 C   0  0  0  0  0  0  0  0  0  0  0  0
   -7.4792    2.5375    0.0000 C   0  0  0  0  0  0  0  0  0  0  0  0
    0.4917    5.4667    0.0000 C   0  0  0  0  0  0  0  0  0  0  0  0
  2  9  1  0  0  0  0
  3  1  1  0  0  0  0
  4  5  1  0  0  0  0
  5 17  1  0  0  0  0
  6  1  1  0  0  0  0
  7  2  1  0  0  0  0
  8  2  1  0  0  0  0
  9  6  1  0  0  0  0
 10  3  1  0  0  0  0
 11  3  1  0  0  0  0
 12  1  2  0  0  0  0
 13  1  2  0  0  0  0
 14  4  1  0  0  0  0
 15  4  2  0  0  0  0
 16 10  1  0  0  0  0
 17 11  1  0  0  0  0
 18  7  2  0  0  0  0
 19  8  2  0  0  0  0
 20  8  1  0  0  0  0
 21  7  1  0  0  0  0
 22 24  2  0  0  0  0
 23 14  2  0  0  0  0
 24 15  1  0  0  0  0
 25 20  1  0  0  0  0
 16  5  1  0  0  0  0
 25 21  1  0  0  0  0
 23 22  1  0  0  0  0
M  END
> <IDNUMBER>
F5381-0023

> <Chemical_Name>
1-(2-{[4-(pyrimidin-2-yl)piperazin-1-yl]sulfonyl}ethyl)piperidine-2,6-dione

> <CAS>
1040675-21-5

> <PriceCoeff>
1.00

> <MW>
367.42

> <Description>
solid

> <FSP3>
0.60

> <clogP>
0.40

> <TPSA>
112.16

> <Acceptor>
6

> <Donor>
1

> <RotBonds>
5

> <HAC>
25

> <Collection>
General

$$$$
F0396-0210
  -ISIS-  06222321452D

 28 31  0  0  0  0  0  0  0  0999 V2000
   -1.7958   -0.0542    0.0000 C   0  0  0  0  0  0  0  0  0  0  0  0
   -2.4208    0.2833    0.0000 N   0  0  3  0  0  0  0  0  0  0  0  0
   -3.0458   -0.0167    0.0000 N   0  0  0  0  0  0  0  0  0  0  0  0
   -2.0708   -0.7542    0.0000 C   0  0  0  0  0  0  0  0  0  0  0  0
   -1.0500    0.0458    0.0000 N   0  0  0  0  0  0  0  0  0  0  0  0
   -2.8000   -0.7000    0.0000 C   0  0  0  0  0  0  0  0  0  0  0  0
    2.3292    0.3208    0.0000 N   0  0  3  0  0  0  0  0  0  0  0  0
   -0.4625   -0.3667    0.0000 C   0  0  0  0  0  0  0  0  0  0  0  0
    2.5875    1.0458    0.0000 C   0  0  0  0  0  0  0  0  0  0  0  0
    2.9792   -0.0792    0.0000 C   0  0  0  0  0  0  0  0  0  0  0  0
   -2.3833    1.0500    0.0000 C   0  0  3  0  0  0  0  0  0  0  0  0
    1.5667    0.1208    0.0000 C   0  0  0  0  0  0  0  0  0  0  0  0
   -2.5458   -1.9167    0.0000 S   0  0  0  0  0  0  0  0  0  0  0  0
    0.0875   -0.1500    0.0000 C   0  0  0  0  0  0  0  0  0  0  0  0
   -0.6625   -1.0875    0.0000 O   0  0  0  0  0  0  0  0  0  0  0  0
    3.5792    0.2958    0.0000 C   0  0  0  0  0  0  0  0  0  0  0  0
    3.3500    1.0333    0.0000 C   0  0  0  0  0  0  0  0  0  0  0  0
    2.1292    1.7000    0.0000 O   0  0  0  0  0  0  0  0  0  0  0  0
    2.9875   -0.7542    0.0000 O   0  0  0  0  0  0  0  0  0  0  0  0
   -1.8833   -1.5000    0.0000 C   0  0  0  0  0  0  0  0  0  0  0  0
    1.4000   -0.4667    0.0000 C   0  0  0  0  0  0  0  0  0  0  0  0
    1.0042    0.6708    0.0000 C   0  0  0  0  0  0  0  0  0  0  0  0
    0.6667   -0.6875    0.0000 C   0  0  0  0  0  0  0  0  0  0  0  0
    0.2667    0.4458    0.0000 C   0  0  0  0  0  0  0  0  0  0  0  0
   -3.1000   -1.4167    0.0000 C   0  0  0  0  0  0  0  0  0  0  0  0
   -1.6125    1.0458    0.0000 C   0  0  0  0  0  0  0  0  0  0  0  0
   -2.3833    1.8708    0.0000 C   0  0  0  0  0  0  0  0  0  0  0  0
   -3.1625    1.1000    0.0000 C   0  0  0  0  0  0  0  0  0  0  0  0
  2  1  1  0  0  0  0
  3  2  1  0  0  0  0
  4  1  2  0  0  0  0
  5  1  1  0  0  0  0
  6  4  1  0  0  0  0
  7 12  1  0  0  0  0
  8  5  1  0  0  0  0
  9  7  1  0  0  0  0
 10  7  1  0  0  0  0
 11  2  1  0  0  0  0
 12 22  2  0  0  0  0
 13 20  1  0  0  0  0
 14  8  1  0  0  0  0
 15  8  2  0  0  0  0
 16 10  1  0  0  0  0
 17  9  1  0  0  0  0
 18  9  2  0  0  0  0
 19 10  2  0  0  0  0
 20  4  1  0  0  0  0
 21 23  2  0  0  0  0
 22 24  1  0  0  0  0
 23 14  1  0  0  0  0
 24 14  2  0  0  0  0
 25  6  1  0  0  0  0
 26 11  1  0  0  0  0
 27 11  1  0  0  0  0
 28 11  1  0  0  0  0
  3  6  2  0  0  0  0
 13 25  1  0  0  0  0
 12 21  1  0  0  0  0
 16 17  1  0  0  0  0
M  END
> <IDNUMBER>
F0396-0210

> <Chemical_Name>
N-{2-tert-butyl-2H,4H,6H-thieno[3,4-c]pyrazol-3-yl}-4-(2,5-dioxopyrrolidin-1-yl)benzamide

> <CAS>
361477-27-2

> <PriceCoeff>
1.50

> <MW>
398.48

> <Description>
solid

> <FSP3>
0.40

> <clogP>
0.51

> <TPSA>
109.60

> <Acceptor>
4

> <Donor>
1

> <RotBonds>
3

> <HAC>
28

> <Collection>
Advanced

$$$$
F3406-0976
  -ISIS-  06222321152D

 25 27  0  0  0  0  0  0  0  0999 V2000
    7.3250   -4.2125    0.0000 C   0  0  0  0  0  0  0  0  0  0  0  0
    9.6250   -3.9792    0.0000 C   0  0  0  0  0  0  0  0  0  0  0  0
    9.4792   -2.6417    0.0000 C   0  0  0  0  0  0  0  0  0  0  0  0
    8.5417   -4.7667    0.0000 C   0  0  0  0  0  0  0  0  0  0  0  0
    7.1792   -2.8917    0.0000 C   0  0  0  0  0  0  0  0  0  0  0  0
    8.2750   -2.1042    0.0000 N   0  0  3  0  0  0  0  0  0  0  0  0
    6.2417   -4.9792    0.0000 C   0  0  0  0  0  0  0  0  0  0  0  0
   10.5625   -1.8750    0.0000 N   0  0  0  0  0  0  0  0  0  0  0  0
    5.0250   -4.4417    0.0000 N   0  0  0  0  0  0  0  0  0  0  0  0
   10.8417   -4.5042    0.0000 C   0  0  0  0  0  0  0  0  0  0  0  0
    2.2542   -2.2875    0.0000 C   0  0  0  0  0  0  0  0  0  0  0  0
    3.5042   -2.7042    0.0000 C   0  0  0  0  0  0  0  0  0  0  0  0
    3.7625   -4.0042    0.0000 C   0  0  0  0  0  0  0  0  0  0  0  0
    8.6875   -6.0792    0.0000 O   0  0  0  0  0  0  0  0  0  0  0  0
    6.3750   -6.3042    0.0000 O   0  0  0  0  0  0  0  0  0  0  0  0
    1.2542   -3.1417    0.0000 C   0  0  0  0  0  0  0  0  0  0  0  0
   11.7667   -2.4125    0.0000 C   0  0  0  0  0  0  0  0  0  0  0  0
    1.5000   -4.4542    0.0000 C   0  0  0  0  0  0  0  0  0  0  0  0
   11.9125   -3.7250    0.0000 C   0  0  0  0  0  0  0  0  0  0  0  0
    1.9917   -0.9750    0.0000 Cl  0  0  0  0  0  0  0  0  0  0  0  0
    8.1292   -0.7792    0.0000 C   0  0  0  0  0  0  0  0  0  0  0  0
    2.7625   -4.8792    0.0000 C   0  0  0  0  0  0  0  0  0  0  0  0
    0.0000   -2.7250    0.0000 C   0  0  0  0  0  0  0  0  0  0  0  0
   12.8542   -1.6292    0.0000 C   0  0  0  0  0  0  0  0  0  0  0  0
    9.2125   -0.0000    0.0000 C   0  0  0  0  0  0  0  0  0  0  0  0
  2  4  1  0  0  0  0
  3  6  1  0  0  0  0
  4  1  1  0  0  0  0
  5  1  2  0  0  0  0
  6  5  1  0  0  0  0
  7  1  1  0  0  0  0
  8  3  2  0  0  0  0
  9  7  1  0  0  0  0
 10  2  2  0  0  0  0
 11 12  1  0  0  0  0
 12 13  2  0  0  0  0
 13  9  1  0  0  0  0
 14  4  2  0  0  0  0
 15  7  2  0  0  0  0
 16 18  1  0  0  0  0
 17  8  1  0  0  0  0
 18 22  2  0  0  0  0
 19 10  1  0  0  0  0
 20 11  1  0  0  0  0
 21  6  1  0  0  0  0
 22 13  1  0  0  0  0
 23 16  1  0  0  0  0
 24 17  1  0  0  0  0
 25 21  1  0  0  0  0
  3  2  1  0  0  0  0
 19 17  2  0  0  0  0
 16 11  2  0  0  0  0
M  END
> <IDNUMBER>
F3406-0976

> <Chemical_Name>
N-(3-chloro-4-methylphenyl)-1-ethyl-7-methyl-4-oxo-1,4-dihydro-1,8-naphthyridine-3-carboxamide

> <CAS>
23681-84-7

> <PriceCoeff>
1.00

> <MW>
355.82

> <Description>
solid

> <FSP3>
0.21

> <clogP>
2.94

> <TPSA>
62.30

> <Acceptor>
3

> <Donor>
3

> <RotBonds>
3

> <HAC>
25

> <Collection>
General

> <Reference_compound>
CHEMBL2228726

> <Similarity>
0.8110

$$$$
F2468-0237
  -ISIS-  06222321462D

 24 26  0  0  0  0  0  0  0  0999 V2000
   -3.8750    0.5083    0.0000 N   0  0  3  0  0  0  0  0  0  0  0  0
   -3.1583    5.0417    0.0000 C   0  0  0  0  0  0  0  0  0  0  0  0
   -3.1583    4.2042    0.0000 N   0  0  0  0  0  0  0  0  0  0  0  0
   -2.4875    5.5292    0.0000 N   0  0  0  0  0  0  0  0  0  0  0  0
   -3.8708    3.8000    0.0000 C   0  0  0  0  0  0  0  0  0  0  0  0
   -3.2125    0.0208    0.0000 C   0  0  0  0  0  0  0  0  0  0  0  0
   -4.5458    0.0333    0.0000 C   0  0  0  0  0  0  0  0  0  0  0  0
   -3.8208    5.5167    0.0000 S   0  0  0  0  0  0  0  0  0  0  0  0
   -2.7458    6.2917    0.0000 C   0  0  0  0  0  0  0  0  0  0  0  0
   -3.5708    6.3000    0.0000 C   0  0  0  0  0  0  0  0  0  0  0  0
   -3.8750    1.3333    0.0000 C   0  0  0  0  0  0  0  0  0  0  0  0
   -3.8708    2.9833    0.0000 C   0  0  0  0  0  0  0  0  0  0  0  0
   -4.5833    4.2042    0.0000 O   0  0  0  0  0  0  0  0  0  0  0  0
   -3.4708   -0.7625    0.0000 C   0  0  0  0  0  0  0  0  0  0  0  0
   -4.2958   -0.7542    0.0000 C   0  0  0  0  0  0  0  0  0  0  0  0
   -5.3333    0.2958    0.0000 O   0  0  0  0  0  0  0  0  0  0  0  0
   -2.4333    0.2708    0.0000 O   0  0  0  0  0  0  0  0  0  0  0  0
   -4.5958    1.7500    0.0000 C   0  0  0  0  0  0  0  0  0  0  0  0
   -3.1583    1.7375    0.0000 C   0  0  0  0  0  0  0  0  0  0  0  0
   -4.5833    2.5708    0.0000 C   0  0  0  0  0  0  0  0  0  0  0  0
   -3.1583    2.5625    0.0000 C   0  0  0  0  0  0  0  0  0  0  0  0
   -2.5708    7.7167    0.0000 S   0  0  0  0  0  0  0  0  0  0  0  0
   -2.2458    6.9542    0.0000 C   0  0  0  0  0  0  0  0  0  0  0  0
   -2.0833    8.3750    0.0000 C   0  0  0  0  0  0  0  0  0  0  0  0
  2  3  1  0  0  0  0
  3  5  1  0  0  0  0
  4  2  2  0  0  0  0
  5 12  1  0  0  0  0
  6  1  1  0  0  0  0
  7  1  1  0  0  0  0
  8  2  1  0  0  0  0
  9  4  1  0  0  0  0
 10  8  1  0  0  0  0
 11  1  1  0  0  0  0
 12 21  1  0  0  0  0
 13  5  2  0  0  0  0
 14  6  1  0  0  0  0
 15  7  1  0  0  0  0
 16  7  2  0  0  0  0
 17  6  2  0  0  0  0
 18 11  2  0  0  0  0
 19 11  1  0  0  0  0
 20 18  1  0  0  0  0
 21 19  2  0  0  0  0
 22 23  1  0  0  0  0
 23  9  1  0  0  0  0
 24 22  1  0  0  0  0
 14 15  1  0  0  0  0
 12 20  2  0  0  0  0
 10  9  2  0  0  0  0
M  END
> <IDNUMBER>
F2468-0237

> <Chemical_Name>
4-(2,5-dioxopyrrolidin-1-yl)-N-{4-[(methylsulfanyl)methyl]-1,3-thiazol-2-yl}benzamide

> <CAS>
955821-66-6

> <PriceCoeff>
1.50

> <MW>
361.44

> <Description>
solid

> <FSP3>
0.25

> <clogP>
0.78

> <TPSA>
132.91

> <Acceptor>
4

> <Donor>
1

> <RotBonds>
5

> <HAC>
24

> <Collection>
Advanced

$$$$
F6400-1510
  -ISIS-  06222321462D

 25 27  0  0  0  0  0  0  0  0999 V2000
   -3.8708    3.8000    0.0000 C   0  0  0  0  0  0  0  0  0  0  0  0
   -3.1583    4.2042    0.0000 N   0  0  3  0  0  0  0  0  0  0  0  0
   -3.2125    5.0333    0.0000 C   0  0  3  0  0  0  0  0  0  0  0  0
   -3.8208    2.9833    0.0000 N   0  0  0  0  0  0  0  0  0  0  0  0
   -3.6833    6.3458    0.0000 N   0  0  3  0  0  0  0  0  0  0  0  0
   -5.9250    2.4542    0.0000 C   0  0  0  0  0  0  0  0  0  0  0  0
   -5.2458    2.9000    0.0000 C   0  0  0  0  0  0  0  0  0  0  0  0
   -3.7958    5.5333    0.0000 C   0  0  0  0  0  0  0  0  0  0  0  0
   -4.5583    4.2542    0.0000 O   0  0  0  0  0  0  0  0  0  0  0  0
   -4.5083    2.5333    0.0000 C   0  0  0  0  0  0  0  0  0  0  0  0
   -5.8750    1.6208    0.0000 C   0  0  0  0  0  0  0  0  0  0  0  0
   -1.7958    5.4708    0.0000 S   0  0  0  0  0  0  0  0  0  0  0  0
   -3.9250    7.9708    0.0000 O   0  0  0  0  0  0  0  0  0  0  0  0
   -5.1458    1.2500    0.0000 C   0  0  0  0  0  0  0  0  0  0  0  0
   -6.6542    2.8083    0.0000 Cl  0  0  0  0  0  0  0  0  0  0  0  0
   -2.6125    5.6042    0.0000 C   0  0  0  0  0  0  0  0  0  0  0  0
   -2.4625    3.7500    0.0000 C   0  0  0  0  0  0  0  0  0  0  0  0
   -4.4583    1.7000    0.0000 C   0  0  0  0  0  0  0  0  0  0  0  0
   -6.5542    1.1708    0.0000 Cl  0  0  0  0  0  0  0  0  0  0  0  0
   -1.6708    3.9875    0.0000 C   0  0  0  0  0  0  0  0  0  0  0  0
   -1.3708    4.7542    0.0000 C   0  0  0  0  0  0  0  0  0  0  0  0
   -4.4458    6.6417    0.0000 C   0  0  0  0  0  0  0  0  0  0  0  0
   -3.0375    6.8542    0.0000 C   0  0  0  0  0  0  0  0  0  0  0  0
   -3.1583    7.6750    0.0000 C   0  0  0  0  0  0  0  0  0  0  0  0
   -4.5708    7.4625    0.0000 C   0  0  0  0  0  0  0  0  0  0  0  0
  2  1  1  0  0  0  0
  3  2  1  0  0  0  0
  4  1  1  0  0  0  0
  5  8  1  0  0  0  0
  6  7  1  0  0  0  0
  7 10  2  0  0  0  0
  8  3  1  0  0  0  0
  9  1  2  0  0  0  0
 10  4  1  0  0  0  0
 11 14  1  0  0  0  0
 12 16  1  0  0  0  0
 13 24  1  0  0  0  0
 14 18  2  0  0  0  0
 15  6  1  0  0  0  0
 16  3  1  0  0  0  0
 17  2  1  0  0  0  0
 18 10  1  0  0  0  0
 19 11  1  0  0  0  0
 20 17  1  0  0  0  0
 21 20  1  0  0  0  0
 22  5  1  0  0  0  0
 23  5  1  0  0  0  0
 24 23  1  0  0  0  0
 25 22  1  0  0  0  0
 21 12  1  0  0  0  0
 11  6  2  0  0  0  0
 13 25  1  0  0  0  0
M  END
> <IDNUMBER>
F6400-1510

> <Chemical_Name>
N-(3,4-dichlorophenyl)-3-[(morpholin-4-yl)methyl]-1,4-thiazepane-4-carboxamide

> <CAS>
1421459-30-4

> <PriceCoeff>
1.00

> <MW>
404.35

> <Description>
oil

> <FSP3>
0.59

> <clogP>
3.50

> <TPSA>
70.11

> <Acceptor>
2

> <Donor>
2

> <RotBonds>
4

> <HAC>
25

> <Collection>
General

$$$$
F6401-0076
  -ISIS-  06222321462D

 23 25  0  0  0  0  0  0  0  0999 V2000
    3.6417   -0.2375    0.0000 N   0  0  3  0  0  0  0  0  0  0  0  0
    4.0500    0.6833    0.0000 C   0  0  0  0  0  0  0  0  0  0  0  0
    2.6500   -0.3417    0.0000 C   0  0  0  0  0  0  0  0  0  0  0  0
    4.3542   -1.2042    0.0000 C   0  0  0  0  0  0  0  0  0  0  0  0
    2.4667    1.3750    0.0000 C   0  0  3  0  0  0  0  0  0  0  0  0
    1.8792    2.1833    0.0000 C   0  0  0  0  0  0  0  0  0  0  0  0
    5.3417   -1.1000    0.0000 C   0  0  0  0  0  0  0  0  0  0  0  0
    3.4625    1.4833    0.0000 C   0  0  0  0  0  0  0  0  0  0  0  0
    2.0625    0.4708    0.0000 C   0  0  0  0  0  0  0  0  0  0  0  0
    2.1875    3.1458    0.0000 S   0  0  0  0  0  0  0  0  0  0  0  0
    2.2417   -1.2542    0.0000 O   0  0  0  0  0  0  0  0  0  0  0  0
    5.0417    0.7958    0.0000 O   0  0  0  0  0  0  0  0  0  0  0  0
    5.9292   -1.9042    0.0000 C   0  0  0  0  0  0  0  0  0  0  0  0
    0.8792    2.1833    0.0000 C   0  0  0  0  0  0  0  0  0  0  0  0
    1.3792    3.7292    0.0000 C   0  0  0  0  0  0  0  0  0  0  0  0
    5.5792   -0.5500    0.0000 O   0  0  0  0  0  0  0  0  0  0  0  0
    0.5667    3.1458    0.0000 C   0  0  0  0  0  0  0  0  0  0  0  0
    6.9292   -1.7917    0.0000 C   0  0  0  0  0  0  0  0  0  0  0  0
    5.5292   -2.8167    0.0000 C   0  0  0  0  0  0  0  0  0  0  0  0
    7.1167   -3.5167    0.0000 C   0  0  0  0  0  0  0  0  0  0  0  0
    7.5167   -2.5917    0.0000 C   0  0  0  0  0  0  0  0  0  0  0  0
    6.1250   -3.6250    0.0000 C   0  0  0  0  0  0  0  0  0  0  0  0
    7.7125   -4.3167    0.0000 Cl  0  0  0  0  0  0  0  0  0  0  0  0
  2  1  1  0  0  0  0
  3  1  1  0  0  0  0
  4  1  1  0  0  0  0
  5  9  1  0  0  0  0
  6  5  1  0  0  0  0
  7  4  1  0  0  0  0
  8  2  1  0  0  0  0
  9  3  1  0  0  0  0
 10  6  1  0  0  0  0
 11  3  2  0  0  0  0
 12  2  2  0  0  0  0
 13  7  1  0  0  0  0
 14  6  2  0  0  0  0
 15 10  1  0  0  0  0
 16  7  2  0  0  0  0
 17 14  1  0  0  0  0
 18 13  2  0  0  0  0
 19 13  1  0  0  0  0
 20 22  1  0  0  0  0
 21 18  1  0  0  0  0
 22 19  2  0  0  0  0
 23 20  1  0  0  0  0
  8  5  1  0  0  0  0
 20 21  2  0  0  0  0
 15 17  2  0  0  0  0
M  END
> <IDNUMBER>
F6401-0076

> <Chemical_Name>
1-[2-(4-chlorophenyl)-2-oxoethyl]-4-(thiophen-2-yl)piperidine-2,6-dione

> <CAS>
1396865-54-5

> <PriceCoeff>
1.50

> <MW>
347.82

> <Description>
solid

> <FSP3>
0.24

> <clogP>
3.45

> <TPSA>
82.69

> <Acceptor>
3

> <Donor>
0

> <RotBonds>
4

> <HAC>
23

> <Collection>
Advanced

$$$$
F3023-0420
  -ISIS-  06222321442D

 26 28  0  0  0  0  0  0  0  0999 V2000
   11.9042   -6.1542    0.0000 N   0  0  3  0  0  0  0  0  0  0  0  0
   11.4792   -5.5750    0.0000 C   0  0  0  0  0  0  0  0  0  0  0  0
   11.4792   -6.7375    0.0000 C   0  0  0  0  0  0  0  0  0  0  0  0
   10.8000   -5.7917    0.0000 C   0  0  0  0  0  0  0  0  0  0  0  0
   10.7917   -6.5042    0.0000 C   0  0  3  0  0  0  0  0  0  0  0  0
    7.0917   -6.8792    0.0000 C   0  0  0  0  0  0  0  0  0  0  0  0
   11.7042   -4.8917    0.0000 O   0  0  0  0  0  0  0  0  0  0  0  0
   11.6917   -7.4167    0.0000 O   0  0  0  0  0  0  0  0  0  0  0  0
   12.6167   -6.1625    0.0000 C   0  0  3  0  0  0  0  0  0  0  0  0
    7.0250   -6.1667    0.0000 C   0  0  0  0  0  0  0  0  0  0  0  0
    7.7500   -7.1750    0.0000 C   0  0  0  0  0  0  0  0  0  0  0  0
   10.2167   -6.9292    0.0000 N   0  0  0  0  0  0  0  0  0  0  0  0
    7.6042   -5.7500    0.0000 C   0  0  0  0  0  0  0  0  0  0  0  0
    8.3292   -6.7542    0.0000 C   0  0  0  0  0  0  0  0  0  0  0  0
    8.2542   -6.0417    0.0000 C   0  0  0  0  0  0  0  0  0  0  0  0
    6.5167   -7.3042    0.0000 O   0  0  0  0  0  0  0  0  0  0  0  0
    6.3667   -5.8667    0.0000 O   0  0  0  0  0  0  0  0  0  0  0  0
    9.5625   -6.6292    0.0000 C   0  0  0  0  0  0  0  0  0  0  0  0
    8.9792   -7.0500    0.0000 C   0  0  0  0  0  0  0  0  0  0  0  0
   12.9667   -6.7875    0.0000 C   0  0  0  0  0  0  0  0  0  0  0  0
   12.9792   -5.5417    0.0000 C   0  0  0  0  0  0  0  0  0  0  0  0
    5.8625   -7.0042    0.0000 C   0  0  0  0  0  0  0  0  0  0  0  0
    6.3000   -5.1542    0.0000 C   0  0  0  0  0  0  0  0  0  0  0  0
   13.6917   -5.5500    0.0000 C   0  0  0  0  0  0  0  0  0  0  0  0
   13.6792   -6.7917    0.0000 C   0  0  0  0  0  0  0  0  0  0  0  0
   14.0500   -6.1750    0.0000 C   0  0  0  0  0  0  0  0  0  0  0  0
  2  1  1  0  0  0  0
  3  1  1  0  0  0  0
  4  2  1  0  0  0  0
  5  3  1  0  0  0  0
  6 11  2  0  0  0  0
  7  2  2  0  0  0  0
  8  3  2  0  0  0  0
  9  1  1  0  0  0  0
 10 13  2  0  0  0  0
 11 14  1  0  0  0  0
 12  5  1  0  0  0  0
 13 15  1  0  0  0  0
 14 19  1  0  0  0  0
 15 14  2  0  0  0  0
 16  6  1  0  0  0  0
 17 10  1  0  0  0  0
 18 12  1  0  0  0  0
 19 18  1  0  0  0  0
 20  9  1  0  0  0  0
 21  9  1  0  0  0  0
 22 16  1  0  0  0  0
 23 17  1  0  0  0  0
 24 21  1  0  0  0  0
 25 20  1  0  0  0  0
 26 24  1  0  0  0  0
  5  4  1  0  0  0  0
 26 25  1  0  0  0  0
 10  6  1  0  0  0  0
M  END
> <IDNUMBER>
F3023-0420

> <Chemical_Name>
1-cyclohexyl-3-{[2-(3,4-dimethoxyphenyl)ethyl]amino}pyrrolidine-2,5-dione

> <CAS>
1023919-61-0

> <PriceCoeff>
1.50

> <MW>
360.45

> <Description>
solid

> <FSP3>
0.60

> <clogP>
3.81

> <TPSA>
67.87

> <Acceptor>
4

> <Donor>
1

> <RotBonds>
7

> <HAC>
26

> <Collection>
Advanced

$$$$
F2135-1153
  -ISIS-  06222321462D

 12 13  0  0  0  0  0  0  0  0999 V2000
   10.8250   -2.0875    0.0000 N   0  0  0  0  0  0  0  0  0  0  0  0
   10.4125   -1.3708    0.0000 C   0  0  0  0  0  0  0  0  0  0  0  0
   11.6542   -2.0875    0.0000 C   0  0  0  0  0  0  0  0  0  0  0  0
   10.8250   -0.6583    0.0000 C   0  0  0  0  0  0  0  0  0  0  0  0
   11.6542   -0.6583    0.0000 C   0  0  0  0  0  0  0  0  0  0  0  0
   12.0667   -1.3708    0.0000 C   0  0  0  0  0  0  0  0  0  0  0  0
   12.9042   -2.8042    0.0000 N   0  0  0  0  0  0  0  0  0  0  0  0
   12.0750   -2.8083    0.0000 C   0  0  0  0  0  0  0  0  0  0  0  0
    9.5833   -1.3667    0.0000 C   0  0  0  0  0  0  0  0  0  0  0  0
   10.4125    0.0583    0.0000 C   0  0  0  0  0  0  0  0  0  0  0  0
    9.1708   -0.6583    0.0000 C   0  0  0  0  0  0  0  0  0  0  0  0
    9.5833    0.0583    0.0000 C   0  0  0  0  0  0  0  0  0  0  0  0
  2  1  1  0  0  0  0
  3  1  2  0  0  0  0
  4  2  2  0  0  0  0
  5  6  2  0  0  0  0
  6  3  1  0  0  0  0
  7  8  1  0  0  0  0
  8  3  1  0  0  0  0
  9  2  1  0  0  0  0
 10  4  1  0  0  0  0
 11  9  2  0  0  0  0
 12 11  1  0  0  0  0
  4  5  1  0  0  0  0
 10 12  2  0  0  0  0
M  END
> <IDNUMBER>
F2135-1153

> <Chemical_Name>
(quinolin-2-yl)methanamine

> <CAS>
5760-20-3

> <PriceCoeff>
1.50

> <MW>
158.20

> <Description>
oil

> <FSP3>
0.10

> <clogP>
0.98

> <TPSA>
38.91

> <Acceptor>
1

> <Donor>
2

> <RotBonds>
1

> <HAC>
12

> <Collection>
Advanced

> <Reference_compound>
CHEMBL2229816

> <Similarity>
0.8650

$$$$
F5834-1577
  -ISIS-  06222321462D

 25 28  0  0  0  0  0  0  0  0999 V2000
   -2.5583    6.8417    0.0000 N   0  0  3  0  0  0  0  0  0  0  0  0
   -5.2875    2.5625    0.0000 N   0  0  3  0  0  0  0  0  0  0  0  0
   -1.7458    6.6792    0.0000 C   0  0  0  0  0  0  0  0  0  0  0  0
   -3.1583    6.2917    0.0000 C   0  0  0  0  0  0  0  0  0  0  0  0
   -5.3708    1.7333    0.0000 C   0  0  0  0  0  0  0  0  0  0  0  0
   -6.0292    2.9000    0.0000 C   0  0  0  0  0  0  0  0  0  0  0  0
   -1.1958    7.3042    0.0000 C   0  0  3  0  0  0  0  0  0  0  0  0
   -4.5833    3.8000    0.0000 C   0  0  0  0  0  0  0  0  0  0  0  0
   -2.8958    7.5917    0.0000 C   0  0  0  0  0  0  0  0  0  0  0  0
   -4.5833    2.9833    0.0000 C   0  0  0  0  0  0  0  0  0  0  0  0
   -0.4083    7.5667    0.0000 C   0  0  0  0  0  0  0  0  0  0  0  0
   -1.0333    8.1167    0.0000 C   0  0  0  0  0  0  0  0  0  0  0  0
   -3.1500    5.4667    0.0000 C   0  0  0  0  0  0  0  0  0  0  0  0
   -3.8750    6.7000    0.0000 C   0  0  0  0  0  0  0  0  0  0  0  0
   -3.8625    4.2125    0.0000 N   0  0  0  0  0  0  0  0  0  0  0  0
   -1.4750    5.9042    0.0000 O   0  0  0  0  0  0  0  0  0  0  0  0
   -3.8625    5.0292    0.0000 C   0  0  0  0  0  0  0  0  0  0  0  0
   -6.1667    1.5583    0.0000 C   0  0  0  0  0  0  0  0  0  0  0  0
   -6.5875    2.2833    0.0000 C   0  0  0  0  0  0  0  0  0  0  0  0
   -4.7583    1.1708    0.0000 O   0  0  0  0  0  0  0  0  0  0  0  0
   -6.2125    3.7083    0.0000 O   0  0  0  0  0  0  0  0  0  0  0  0
   -3.7125    7.5042    0.0000 C   0  0  0  0  0  0  0  0  0  0  0  0
   -5.3000    4.2125    0.0000 O   0  0  0  0  0  0  0  0  0  0  0  0
   -4.6000    6.2792    0.0000 C   0  0  0  0  0  0  0  0  0  0  0  0
   -4.5958    5.4500    0.0000 C   0  0  0  0  0  0  0  0  0  0  0  0
  2 10  1  0  0  0  0
  3  1  1  0  0  0  0
  4  1  1  0  0  0  0
  5  2  1  0  0  0  0
  6  2  1  0  0  0  0
  7  3  1  0  0  0  0
  8 15  1  0  0  0  0
  9  1  1  0  0  0  0
 10  8  1  0  0  0  0
 11  7  1  0  0  0  0
 12  7  1  0  0  0  0
 13  4  1  0  0  0  0
 14  4  2  0  0  0  0
 15 17  1  0  0  0  0
 16  3  2  0  0  0  0
 17 13  2  0  0  0  0
 18  5  1  0  0  0  0
 19  6  1  0  0  0  0
 20  5  2  0  0  0  0
 21  6  2  0  0  0  0
 22  9  1  0  0  0  0
 23  8  2  0  0  0  0
 24 14  1  0  0  0  0
 25 24  2  0  0  0  0
 22 14  1  0  0  0  0
 12 11  1  0  0  0  0
 25 17  1  0  0  0  0
 19 18  1  0  0  0  0
M  END
> <IDNUMBER>
F5834-1577

> <Chemical_Name>
N-(1-cyclopropanecarbonyl-2,3-dihydro-1H-indol-6-yl)-2-(2,5-dioxopyrrolidin-1-yl)acetamide

> <CAS>
1206995-06-3

> <PriceCoeff>
1.00

> <MW>
341.36

> <Description>
solid

> <FSP3>
0.44

> <clogP>
0.42

> <TPSA>
86.79

> <Acceptor>
4

> <Donor>
1

> <RotBonds>
5

> <HAC>
25

> <Collection>
General

$$$$
F0918-7910
  -ISIS-  06222321142D

 10 11  0  0  0  0  0  0  0  0999 V2000
    1.4750   -1.1792    0.0000 N   0  0  0  0  0  0  0  0  0  0  0  0
    5.3167    4.1042    0.0000 C   0  0  0  0  0  0  0  0  0  0  0  0
   -4.7500    0.8375    0.0000 C   0  0  0  0  0  0  0  0  0  0  0  0
   -4.7583    7.3750    0.0000 C   0  0  0  0  0  0  0  0  0  0  0  0
    1.4667    9.4000    0.0000 C   0  0  0  0  0  0  0  0  0  0  0  0
   11.8167    4.1042    0.0000 O   0  0  0  0  0  0  0  0  0  0  0  0
  -10.3667   -2.4167    0.0000 C   0  0  0  0  0  0  0  0  0  0  0  0
  -10.3792   10.6000    0.0000 C   0  0  0  0  0  0  0  0  0  0  0  0
  -15.9875    7.3417    0.0000 C   0  0  0  0  0  0  0  0  0  0  0  0
  -16.0000    0.8375    0.0000 C   0  0  0  0  0  0  0  0  0  0  0  0
  2  1  1  0  0  0  0
  3  1  1  0  0  0  0
  4  3  1  0  0  0  0
  5  2  1  0  0  0  0
  6  2  2  0  0  0  0
  7  3  2  0  0  0  0
  8  4  2  0  0  0  0
  9 10  2  0  0  0  0
 10  7  1  0  0  0  0
  4  5  1  0  0  0  0
  9  8  1  0  0  0  0
M  END
> <IDNUMBER>
F0918-7910

> <Chemical_Name>
2,3-dihydro-1H-indol-2-one

> <CAS>
59-48-3

> <PriceCoeff>
1.00

> <MW>
133.15

> <Description>
solid

> <FSP3>
0.12

> <clogP>
0.71

> <TPSA>
29.10

> <Acceptor>
1

> <Donor>
1

> <RotBonds>
0

> <HAC>
10

> <Collection>
General

> <Reference_compound>
CHEMBL40823

> <Similarity>
1.0000

$$$$
F1342-0017
  -ISIS-  06222321142D

 17 18  0  0  0  0  0  0  0  0999 V2000
    4.0167   -4.9917    0.0000 C   0  0  0  0  0  0  0  0  0  0  0  0
    4.7917   -5.2417    0.0000 N   0  0  0  0  0  0  0  0  0  0  0  0
    4.0167   -4.1667    0.0000 C   0  0  0  0  0  0  0  0  0  0  0  0
    3.3042   -5.3917    0.0000 N   0  0  3  0  0  0  0  0  0  0  0  0
    5.2667   -4.5667    0.0000 C   0  0  0  0  0  0  0  0  0  0  0  0
    2.5667   -4.9917    0.0000 C   0  0  0  0  0  0  0  0  0  0  0  0
    2.5667   -4.1667    0.0000 N   0  0  0  0  0  0  0  0  0  0  0  0
    4.8542   -3.8417    0.0000 N   0  0  0  0  0  0  0  0  0  0  0  0
    3.3042   -3.7417    0.0000 C   0  0  0  0  0  0  0  0  0  0  0  0
    6.0917   -4.5667    0.0000 N   0  0  3  0  0  0  0  0  0  0  0  0
    1.8417   -5.3917    0.0000 O   0  0  0  0  0  0  0  0  0  0  0  0
    3.3042   -2.9167    0.0000 O   0  0  0  0  0  0  0  0  0  0  0  0
    3.3042   -6.2167    0.0000 C   0  0  0  0  0  0  0  0  0  0  0  0
    8.2292   -4.9667    0.0000 O   0  0  0  0  0  0  0  0  0  0  0  0
    6.8042   -4.9750    0.0000 C   0  0  0  0  0  0  0  0  0  0  0  0
    6.2917   -3.7667    0.0000 C   0  0  0  0  0  0  0  0  0  0  0  0
    7.5167   -4.5625    0.0000 C   0  0  0  0  0  0  0  0  0  0  0  0
  2  1  1  0  0  0  0
  3  1  2  0  0  0  0
  4  1  1  0  0  0  0
  5  2  2  0  0  0  0
  6  4  1  0  0  0  0
  7  6  1  0  0  0  0
  8  3  1  0  0  0  0
  9  3  1  0  0  0  0
 10  5  1  0  0  0  0
 11  6  2  0  0  0  0
 12  9  2  0  0  0  0
 13  4  1  0  0  0  0
 14 17  1  0  0  0  0
 15 10  1  0  0  0  0
 16 10  1  0  0  0  0
 17 15  1  0  0  0  0
  9  7  1  0  0  0  0
  8  5  1  0  0  0  0
M  END
> <IDNUMBER>
F1342-0017

> <Chemical_Name>
8-[(2-hydroxyethyl)(methyl)amino]-3-methyl-2,3,6,7-tetrahydro-1H-purine-2,6-dione

> <CAS>
671763-45-4

> <PriceCoeff>
1.00

> <MW>
239.24

> <Description>
solid

> <FSP3>
0.44

> <clogP>
-0.69

> <TPSA>
101.56

> <Acceptor>
5

> <Donor>
5

> <RotBonds>
3

> <HAC>
17

> <Collection>
General

> <Reference_compound>
CHEMBL190

> <Similarity>
0.8080

$$$$
F0908-3710
  -ISIS-  06222321452D

 16 17  0  0  0  0  0  0  0  0999 V2000
   -7.0750    0.4000    0.0000 C   0  0  0  0  0  0  0  0  0  0  0  0
  -10.0500    2.1458    0.0000 N   0  0  0  0  0  0  0  0  0  0  0  0
   -7.0750   -2.9750    0.0000 N   0  0  0  0  0  0  0  0  0  0  0  0
   -4.1000    2.1458    0.0000 N   0  0  0  0  0  0  0  0  0  0  0  0
  -13.0250    0.4000    0.0000 C   0  0  0  0  0  0  0  0  0  0  0  0
  -10.0500   -4.7125    0.0000 C   0  0  0  0  0  0  0  0  0  0  0  0
  -13.0250   -2.9750    0.0000 C   0  0  0  0  0  0  0  0  0  0  0  0
   -1.1250    0.5083    0.0000 C   0  0  0  0  0  0  0  0  0  0  0  0
    1.8500    2.1458    0.0000 C   0  0  0  0  0  0  0  0  0  0  0  0
    4.8250    0.5083    0.0000 C   0  0  0  0  0  0  0  0  0  0  0  0
    7.7250    2.2875    0.0000 O   0  0  0  0  0  0  0  0  0  0  0  0
    1.8500   -4.7125    0.0000 C   0  0  0  0  0  0  0  0  0  0  0  0
   -1.1250   -2.9750    0.0000 C   0  0  0  0  0  0  0  0  0  0  0  0
  -16.0000    2.1458    0.0000 C   0  0  0  0  0  0  0  0  0  0  0  0
  -10.0500   -8.1917    0.0000 C   0  0  0  0  0  0  0  0  0  0  0  0
    4.8250   -2.9750    0.0000 C   0  0  0  0  0  0  0  0  0  0  0  0
  2  1  2  0  0  0  0
  3  1  1  0  0  0  0
  4  1  1  0  0  0  0
  5  2  1  0  0  0  0
  6  3  2  0  0  0  0
  7  6  1  0  0  0  0
  8  4  1  0  0  0  0
  9  8  1  0  0  0  0
 10  9  2  0  0  0  0
 11 10  1  0  0  0  0
 12 13  1  0  0  0  0
 13  8  2  0  0  0  0
 14  5  1  0  0  0  0
 15  6  1  0  0  0  0
 16 12  2  0  0  0  0
  5  7  2  0  0  0  0
 16 10  1  0  0  0  0
M  END
> <IDNUMBER>
F0908-3710

> <Chemical_Name>
3-[(4,6-dimethylpyrimidin-2-yl)amino]phenol

> <CAS>
81261-83-8

> <PriceCoeff>
1.50

> <MW>
215.25

> <Description>
solid

> <FSP3>
0.17

> <clogP>
2.81

> <TPSA>
58.04

> <Acceptor>
4

> <Donor>
2

> <RotBonds>
2

> <HAC>
16

> <Collection>
Advanced

> <Reference_compound>
CHEMBL540677

> <Similarity>
0.8810

$$$$
F0326-0654
  -ISIS-  06222321142D

 24 26  0  0  0  0  0  0  0  0999 V2000
   -3.2500   -0.8042    0.0000 S   0  0  0  0  0  0  0  0  0  0  0  0
   -2.5208   -0.2667    0.0000 C   0  0  0  0  0  0  0  0  0  0  0  0
    2.4542   -0.4375    0.0000 N   0  0  3  0  0  0  0  0  0  0  0  0
   -3.7333    0.5625    0.0000 N   0  0  0  0  0  0  0  0  0  0  0  0
   -3.9958   -0.2792    0.0000 C   0  0  0  0  0  0  0  0  0  0  0  0
   -1.6625   -0.4375    0.0000 N   0  0  0  0  0  0  0  0  0  0  0  0
   -2.8500    0.5625    0.0000 N   0  0  0  0  0  0  0  0  0  0  0  0
   -1.0708    0.2500    0.0000 C   0  0  0  0  0  0  0  0  0  0  0  0
    3.1000    0.1833    0.0000 C   0  0  0  0  0  0  0  0  0  0  0  0
    2.8375   -1.2500    0.0000 C   0  0  0  0  0  0  0  0  0  0  0  0
    1.5792   -0.2792    0.0000 C   0  0  0  0  0  0  0  0  0  0  0  0
   -0.1958    0.0833    0.0000 C   0  0  0  0  0  0  0  0  0  0  0  0
   -1.3708    1.1208    0.0000 O   0  0  0  0  0  0  0  0  0  0  0  0
    3.7292   -1.1375    0.0000 C   0  0  0  0  0  0  0  0  0  0  0  0
    3.8875   -0.2375    0.0000 C   0  0  0  0  0  0  0  0  0  0  0  0
    2.3792   -2.0375    0.0000 O   0  0  0  0  0  0  0  0  0  0  0  0
    2.9375    1.0708    0.0000 O   0  0  0  0  0  0  0  0  0  0  0  0
    0.9792   -0.9542    0.0000 C   0  0  0  0  0  0  0  0  0  0  0  0
    1.2875    0.5708    0.0000 C   0  0  0  0  0  0  0  0  0  0  0  0
    0.0875   -0.7792    0.0000 C   0  0  0  0  0  0  0  0  0  0  0  0
    0.4042    0.7625    0.0000 C   0  0  0  0  0  0  0  0  0  0  0  0
   -4.8458   -0.5375    0.0000 C   0  0  3  0  0  0  0  0  0  0  0  0
   -5.5208    0.0625    0.0000 C   0  0  0  0  0  0  0  0  0  0  0  0
   -5.0333   -1.4042    0.0000 C   0  0  0  0  0  0  0  0  0  0  0  0
  2  1  1  0  0  0  0
  3 11  1  0  0  0  0
  4  5  2  0  0  0  0
  5  1  1  0  0  0  0
  6  2  1  0  0  0  0
  7  2  2  0  0  0  0
  8  6  1  0  0  0  0
  9  3  1  0  0  0  0
 10  3  1  0  0  0  0
 11 19  1  0  0  0  0
 12  8  1  0  0  0  0
 13  8  2  0  0  0  0
 14 10  1  0  0  0  0
 15  9  1  0  0  0  0
 16 10  2  0  0  0  0
 17  9  2  0  0  0  0
 18 20  1  0  0  0  0
 19 21  2  0  0  0  0
 20 12  2  0  0  0  0
 21 12  1  0  0  0  0
 22  5  1  0  0  0  0
 23 22  1  0  0  0  0
 24 22  1  0  0  0  0
  7  4  1  0  0  0  0
 18 11  2  0  0  0  0
 14 15  1  0  0  0  0
M  END
> <IDNUMBER>
F0326-0654

> <Chemical_Name>
4-(2,5-dioxopyrrolidin-1-yl)-N-[5-(propan-2-yl)-1,3,4-thiadiazol-2-yl]benzamide

> <CAS>
392243-28-6

> <PriceCoeff>
1.00

> <MW>
344.39

> <Description>
solid

> <FSP3>
0.31

> <clogP>
0.74

> <TPSA>
120.50

> <Acceptor>
5

> <Donor>
1

> <RotBonds>
4

> <HAC>
24

> <Collection>
General

$$$$
F5033-3623
  -ISIS-  06222321152D

 27 29  0  0  0  0  0  0  0  0999 V2000
   -5.2958    2.5583    0.0000 N   0  0  3  0  0  0  0  0  0  0  0  0
   -0.9958    6.7000    0.0000 C   0  0  0  0  0  0  0  0  0  0  0  0
   -1.7125    6.2792    0.0000 N   0  0  3  0  0  0  0  0  0  0  0  0
   -5.3708    1.7333    0.0000 C   0  0  0  0  0  0  0  0  0  0  0  0
   -6.0292    2.8958    0.0000 C   0  0  0  0  0  0  0  0  0  0  0  0
   -4.5833    2.9833    0.0000 C   0  0  0  0  0  0  0  0  0  0  0  0
   -0.2750    6.2917    0.0000 O   0  0  0  0  0  0  0  0  0  0  0  0
   -4.5833    3.8000    0.0000 C   0  0  0  0  0  0  0  0  0  0  0  0
   -1.0000    7.5250    0.0000 O   0  0  0  0  0  0  0  0  0  0  0  0
   -3.8625    4.2125    0.0000 N   0  0  0  0  0  0  0  0  0  0  0  0
   -6.1667    1.5583    0.0000 C   0  0  0  0  0  0  0  0  0  0  0  0
   -6.5875    2.2750    0.0000 C   0  0  0  0  0  0  0  0  0  0  0  0
   -4.7583    1.1708    0.0000 O   0  0  0  0  0  0  0  0  0  0  0  0
   -6.2125    3.7083    0.0000 O   0  0  0  0  0  0  0  0  0  0  0  0
   -1.7083    5.4542    0.0000 C   0  0  0  0  0  0  0  0  0  0  0  0
   -2.4208    6.6917    0.0000 C   0  0  0  0  0  0  0  0  0  0  0  0
   -5.3000    4.2125    0.0000 O   0  0  0  0  0  0  0  0  0  0  0  0
    0.4417    6.7042    0.0000 C   0  0  0  0  0  0  0  0  0  0  0  0
   -3.8625    5.0292    0.0000 C   0  0  0  0  0  0  0  0  0  0  0  0
   -2.4250    5.0417    0.0000 C   0  0  0  0  0  0  0  0  0  0  0  0
   -3.1375    6.2750    0.0000 C   0  0  0  0  0  0  0  0  0  0  0  0
   -3.1458    5.4500    0.0000 C   0  0  3  0  0  0  0  0  0  0  0  0
    1.1625    6.2917    0.0000 C   0  0  0  0  0  0  0  0  0  0  0  0
    0.4417    7.5292    0.0000 C   0  0  0  0  0  0  0  0  0  0  0  0
    1.1542    7.9500    0.0000 C   0  0  0  0  0  0  0  0  0  0  0  0
    1.8792    6.7042    0.0000 C   0  0  0  0  0  0  0  0  0  0  0  0
    1.8667    7.5292    0.0000 C   0  0  0  0  0  0  0  0  0  0  0  0
  2  3  1  0  0  0  0
  3 16  1  0  0  0  0
  4  1  1  0  0  0  0
  5  1  1  0  0  0  0
  6  1  1  0  0  0  0
  7  2  1  0  0  0  0
  8  6  1  0  0  0  0
  9  2  2  0  0  0  0
 10  8  1  0  0  0  0
 11  4  1  0  0  0  0
 12  5  1  0  0  0  0
 13  4  2  0  0  0  0
 14  5  2  0  0  0  0
 15 20  1  0  0  0  0
 16 21  1  0  0  0  0
 17  8  2  0  0  0  0
 18  7  1  0  0  0  0
 19 10  1  0  0  0  0
 20 22  1  0  0  0  0
 21 22  1  0  0  0  0
 22 19  1  0  0  0  0
 23 18  2  0  0  0  0
 24 18  1  0  0  0  0
 25 24  2  0  0  0  0
 26 23  1  0  0  0  0
 27 25  1  0  0  0  0
 11 12  1  0  0  0  0
 15  3  1  0  0  0  0
 26 27  2  0  0  0  0
M  END
> <IDNUMBER>
F5033-3623

> <Chemical_Name>
phenyl 4-{[2-(2,5-dioxopyrrolidin-1-yl)acetamido]methyl}piperidine-1-carboxylate

> <CAS>
1234986-35-6

> <PriceCoeff>
1.00

> <MW>
373.40

> <Description>
solid

> <FSP3>
0.47

> <clogP>
0.67

> <TPSA>
96.02

> <Acceptor>
5

> <Donor>
1

> <RotBonds>
7

> <HAC>
27

> <Collection>
General

$$$$
F6359-3472
  -ISIS-  06222321462D

 24 26  0  0  0  0  0  0  0  0999 V2000
   -4.5833    3.8000    0.0000 C   0  0  0  0  0  0  0  0  0  0  0  0
   -3.8625    4.2125    0.0000 N   0  0  3  0  0  0  0  0  0  0  0  0
   -4.5833    2.9792    0.0000 N   0  0  0  0  0  0  0  0  0  0  0  0
   -6.0042    1.3375    0.0000 C   0  0  0  0  0  0  0  0  0  0  0  0
   -5.3083    1.7458    0.0000 C   0  0  0  0  0  0  0  0  0  0  0  0
   -0.2958    5.4792    0.0000 N   0  0  0  0  0  0  0  0  0  0  0  0
   -5.3000    2.5792    0.0000 C   0  0  0  0  0  0  0  0  0  0  0  0
    0.4250    5.0792    0.0000 N   0  0  0  0  0  0  0  0  0  0  0  0
   -5.3000    4.2125    0.0000 O   0  0  0  0  0  0  0  0  0  0  0  0
   -1.0083    5.0667    0.0000 C   0  0  0  0  0  0  0  0  0  0  0  0
   -3.1458    3.8083    0.0000 C   0  0  0  0  0  0  0  0  0  0  0  0
   -3.8583    5.0458    0.0000 C   0  0  0  0  0  0  0  0  0  0  0  0
   -6.7167    1.7458    0.0000 C   0  0  0  0  0  0  0  0  0  0  0  0
   -1.7375    5.4667    0.0000 O   0  0  0  0  0  0  0  0  0  0  0  0
   -2.4333    4.2208    0.0000 C   0  0  0  0  0  0  0  0  0  0  0  0
   -3.1583    5.4542    0.0000 C   0  0  0  0  0  0  0  0  0  0  0  0
   -6.7208    2.5708    0.0000 C   0  0  0  0  0  0  0  0  0  0  0  0
   -2.4458    5.0542    0.0000 C   0  0  3  0  0  0  0  0  0  0  0  0
   -6.0042    0.5083    0.0000 Cl  0  0  0  0  0  0  0  0  0  0  0  0
   -6.0042    2.9833    0.0000 C   0  0  0  0  0  0  0  0  0  0  0  0
   -7.4417    1.3250    0.0000 Cl  0  0  0  0  0  0  0  0  0  0  0  0
    0.4292    4.2500    0.0000 C   0  0  0  0  0  0  0  0  0  0  0  0
   -0.9958    4.2333    0.0000 C   0  0  0  0  0  0  0  0  0  0  0  0
   -0.2833    3.8333    0.0000 C   0  0  0  0  0  0  0  0  0  0  0  0
  2  1  1  0  0  0  0
  3  1  1  0  0  0  0
  4  5  1  0  0  0  0
  5  7  2  0  0  0  0
  6 10  2  0  0  0  0
  7  3  1  0  0  0  0
  8  6  1  0  0  0  0
  9  1  2  0  0  0  0
 10 14  1  0  0  0  0
 11  2  1  0  0  0  0
 12  2  1  0  0  0  0
 13 17  1  0  0  0  0
 14 18  1  0  0  0  0
 15 11  1  0  0  0  0
 16 12  1  0  0  0  0
 17 20  2  0  0  0  0
 18 16  1  0  0  0  0
 19  4  1  0  0  0  0
 20  7  1  0  0  0  0
 21 13  1  0  0  0  0
 22 24  1  0  0  0  0
 23 10  1  0  0  0  0
 24 23  2  0  0  0  0
 15 18  1  0  0  0  0
  4 13  2  0  0  0  0
  8 22  2  0  0  0  0
M  END
> <IDNUMBER>
F6359-3472

> <Chemical_Name>
N-(3,4-dichlorophenyl)-4-(pyridazin-3-yloxy)piperidine-1-carboxamide

> <CAS>
1797755-21-5

> <PriceCoeff>
1.00

> <MW>
367.23

> <Description>
solid

> <FSP3>
0.31

> <clogP>
2.34

> <TPSA>
67.35

> <Acceptor>
4

> <Donor>
1

> <RotBonds>
4

> <HAC>
24

> <Collection>
General

$$$$
F0211-0006
  -ISIS-  06222321452D

 11 11  0  0  0  0  0  0  0  0999 V2000
   -2.2458    1.3208    0.0000 C   0  0  0  0  0  0  0  0  0  0  0  0
   -3.0833    1.4000    0.0000 C   0  0  0  0  0  0  0  0  0  0  0  0
   -1.8833    0.5458    0.0000 C   0  0  0  0  0  0  0  0  0  0  0  0
   -1.7333    2.0208    0.0000 C   0  0  0  0  0  0  0  0  0  0  0  0
   -3.5958    0.7208    0.0000 O   0  0  0  0  0  0  0  0  0  0  0  0
   -1.0458    0.4833    0.0000 C   0  0  0  0  0  0  0  0  0  0  0  0
   -0.9000    1.9125    0.0000 C   0  0  0  0  0  0  0  0  0  0  0  0
   -3.4625    2.1708    0.0000 O   0  0  0  0  0  0  0  0  0  0  0  0
   -0.5500    1.1500    0.0000 C   0  0  0  0  0  0  0  0  0  0  0  0
   -2.3833   -0.1542    0.0000 O   0  0  0  0  0  0  0  0  0  0  0  0
   -0.4000    2.6125    0.0000 Cl  0  0  0  0  0  0  0  0  0  0  0  0
  2  1  1  0  0  0  0
  3  1  2  0  0  0  0
  4  1  1  0  0  0  0
  5  2  2  0  0  0  0
  6  3  1  0  0  0  0
  7  4  2  0  0  0  0
  8  2  1  0  0  0  0
  9  7  1  0  0  0  0
 10  3  1  0  0  0  0
 11  7  1  0  0  0  0
  6  9  2  0  0  0  0
M  END
> <IDNUMBER>
F0211-0006

> <Chemical_Name>
5-chloro-2-hydroxybenzoic acid

> <CAS>
321-14-2

> <PriceCoeff>
1.50

> <MW>
172.57

> <Description>
solid

> <FSP3>
0.00

> <clogP>
3.03

> <TPSA>
57.53

> <Acceptor>
3

> <Donor>
1

> <RotBonds>
1

> <HAC>
11

> <Collection>
Advanced

> <Reference_compound>
CHEMBL2228307

> <Similarity>
0.8990

$$$$
F1699-0022
  -ISIS-  06222321452D

 20 22  0  0  0  0  0  0  0  0999 V2000
    5.0292   -3.1250    0.0000 C   0  0  0  0  0  0  0  0  0  0  0  0
    5.0292   -2.3000    0.0000 C   0  0  0  0  0  0  0  0  0  0  0  0
    4.3125   -3.5292    0.0000 N   0  0  3  0  0  0  0  0  0  0  0  0
    3.5667   -3.1250    0.0000 C   0  0  0  0  0  0  0  0  0  0  0  0
    3.5667   -2.3000    0.0000 N   0  0  0  0  0  0  0  0  0  0  0  0
    5.8125   -3.3792    0.0000 N   0  0  0  0  0  0  0  0  0  0  0  0
    4.3125   -1.8875    0.0000 C   0  0  0  0  0  0  0  0  0  0  0  0
    5.8750   -1.9792    0.0000 N   0  0  0  0  0  0  0  0  0  0  0  0
    6.2917   -2.7000    0.0000 C   0  0  0  0  0  0  0  0  0  0  0  0
    7.5250   -3.4042    0.0000 N   0  0  3  0  0  0  0  0  0  0  0  0
    8.3417   -4.8167    0.0000 N   0  0  3  0  0  0  0  0  0  0  0  0
    2.8417   -3.5292    0.0000 O   0  0  0  0  0  0  0  0  0  0  0  0
    4.3125   -1.0625    0.0000 O   0  0  0  0  0  0  0  0  0  0  0  0
    7.1125   -2.6917    0.0000 C   0  0  0  0  0  0  0  0  0  0  0  0
    4.3125   -4.3542    0.0000 C   0  0  0  0  0  0  0  0  0  0  0  0
    7.1125   -4.1125    0.0000 C   0  0  0  0  0  0  0  0  0  0  0  0
    8.3417   -3.3917    0.0000 C   0  0  0  0  0  0  0  0  0  0  0  0
    8.7500   -4.1042    0.0000 C   0  0  0  0  0  0  0  0  0  0  0  0
    7.5167   -4.8167    0.0000 C   0  0  0  0  0  0  0  0  0  0  0  0
    8.7542   -5.5292    0.0000 C   0  0  0  0  0  0  0  0  0  0  0  0
  2  1  2  0  0  0  0
  3  1  1  0  0  0  0
  4  3  1  0  0  0  0
  5  4  1  0  0  0  0
  6  1  1  0  0  0  0
  7  2  1  0  0  0  0
  8  2  1  0  0  0  0
  9  6  2  0  0  0  0
 10 14  1  0  0  0  0
 11 18  1  0  0  0  0
 12  4  2  0  0  0  0
 13  7  2  0  0  0  0
 14  9  1  0  0  0  0
 15  3  1  0  0  0  0
 16 10  1  0  0  0  0
 17 10  1  0  0  0  0
 18 17  1  0  0  0  0
 19 16  1  0  0  0  0
 20 11  1  0  0  0  0
  8  9  1  0  0  0  0
  5  7  1  0  0  0  0
 19 11  1  0  0  0  0
M  END
> <IDNUMBER>
F1699-0022

> <Chemical_Name>
3-methyl-8-[(4-methylpiperazin-1-yl)methyl]-2,3,6,7-tetrahydro-1H-purine-2,6-dione

> <CAS>
847239-76-3

> <PriceCoeff>
1.00

> <MW>
278.31

> <Description>
solid

> <FSP3>
0.58

> <clogP>
-0.35

> <TPSA>
120.08

> <Acceptor>
6

> <Donor>
5

> <RotBonds>
2

> <HAC>
20

> <Collection>
General

> <Reference_compound>
CHEMBL190

> <Similarity>
0.8110

$$$$
F6381-4336
  -ISIS-  06222321462D

 27 29  0  0  0  0  0  0  0  0999 V2000
   -4.5833    3.8000    0.0000 S   0  0  3  0  0  0  0  0  0  0  0  0
   -6.7125    3.3583    0.0000 N   0  0  3  0  0  0  0  0  0  0  0  0
   -3.8625    4.2125    0.0000 N   0  0  3  0  0  0  0  0  0  0  0  0
   -5.2833    3.3833    0.0000 C   0  0  0  0  0  0  0  0  0  0  0  0
   -6.6917    2.5333    0.0000 C   0  0  0  0  0  0  0  0  0  0  0  0
   -7.4292    3.7583    0.0000 C   0  0  0  0  0  0  0  0  0  0  0  0
   -6.0000    3.7833    0.0000 C   0  0  0  0  0  0  0  0  0  0  0  0
   -3.9333    5.0333    0.0000 C   0  0  0  0  0  0  0  0  0  0  0  0
   -4.1542    3.1083    0.0000 O   0  0  0  0  0  0  0  0  0  0  0  0
   -5.0000    4.5042    0.0000 O   0  0  0  0  0  0  0  0  0  0  0  0
   -3.3208    5.5917    0.0000 C   0  0  3  0  0  0  0  0  0  0  0  0
   -3.5583    6.3792    0.0000 C   0  0  0  0  0  0  0  0  0  0  0  0
   -7.4542    4.5750    0.0000 O   0  0  0  0  0  0  0  0  0  0  0  0
   -5.9708    2.1333    0.0000 O   0  0  0  0  0  0  0  0  0  0  0  0
   -4.3583    6.5750    0.0000 C   0  0  0  0  0  0  0  0  0  0  0  0
   -2.9875    6.9792    0.0000 C   0  0  0  0  0  0  0  0  0  0  0  0
   -4.0333    7.9667    0.0000 C   0  0  0  0  0  0  0  0  0  0  0  0
   -3.1833    3.7458    0.0000 C   0  0  0  0  0  0  0  0  0  0  0  0
   -3.2208    7.7750    0.0000 C   0  0  0  0  0  0  0  0  0  0  0  0
   -4.5958    7.3667    0.0000 C   0  0  0  0  0  0  0  0  0  0  0  0
   -4.2667    8.7583    0.0000 F   0  0  0  0  0  0  0  0  0  0  0  0
   -7.4000    2.1000    0.0000 C   0  0  0  0  0  0  0  0  0  0  0  0
   -8.1333    3.3333    0.0000 C   0  0  0  0  0  0  0  0  0  0  0  0
   -8.1167    2.5000    0.0000 C   0  0  0  0  0  0  0  0  0  0  0  0
   -2.4958    5.4667    0.0000 C   0  0  0  0  0  0  0  0  0  0  0  0
   -2.3958    3.9875    0.0000 C   0  0  0  0  0  0  0  0  0  0  0  0
   -2.0833    4.7542    0.0000 C   0  0  0  0  0  0  0  0  0  0  0  0
  2  7  1  0  0  0  0
  3  1  1  0  0  0  0
  4  1  1  0  0  0  0
  5  2  1  0  0  0  0
  6  2  1  0  0  0  0
  7  4  1  0  0  0  0
  8  3  1  0  0  0  0
  9  1  2  0  0  0  0
 10  1  2  0  0  0  0
 11  8  1  0  0  0  0
 12 11  1  0  0  0  0
 13  6  2  0  0  0  0
 14  5  2  0  0  0  0
 15 12  2  0  0  0  0
 16 12  1  0  0  0  0
 17 19  1  0  0  0  0
 18  3  1  0  0  0  0
 19 16  2  0  0  0  0
 20 15  1  0  0  0  0
 21 17  1  0  0  0  0
 22  5  1  0  0  0  0
 23  6  1  0  0  0  0
 24 23  1  0  0  0  0
 25 11  1  0  0  0  0
 26 18  1  0  0  0  0
 27 26  1  0  0  0  0
 27 25  1  0  0  0  0
 22 24  1  0  0  0  0
 20 17  2  0  0  0  0
M  END
> <IDNUMBER>
F6381-4336

> <Chemical_Name>
1-(2-{[3-(4-fluorophenyl)azepan-1-yl]sulfonyl}ethyl)piperidine-2,6-dione

> <CAS>
1797182-17-2

> <PriceCoeff>
1.00

> <MW>
396.48

> <Description>
oil

> <FSP3>
0.58

> <clogP>
3.36

> <TPSA>
83.14

> <Acceptor>
4

> <Donor>
0

> <RotBonds>
5

> <HAC>
27

> <Collection>
General

$$$$
F3325-0010
  -ISIS-  06222321152D

 28 30  0  0  0  0  0  0  0  0999 V2000
    3.7292   -1.9917    0.0000 N   0  0  3  0  0  0  0  0  0  0  0  0
    4.2125   -2.6542    0.0000 C   0  0  0  0  0  0  0  0  0  0  0  0
    4.2167   -1.3250    0.0000 C   0  0  0  0  0  0  0  0  0  0  0  0
    5.0000   -2.4042    0.0000 C   0  0  3  0  0  0  0  0  0  0  0  0
    5.0000   -1.5792    0.0000 C   0  0  0  0  0  0  0  0  0  0  0  0
    7.6542   -4.3542    0.0000 C   0  0  0  0  0  0  0  0  0  0  0  0
    6.9917   -3.8667    0.0000 N   0  0  3  0  0  0  0  0  0  0  0  0
    5.6667   -2.8875    0.0000 N   0  0  3  0  0  0  0  0  0  0  0  0
    2.9042   -1.9917    0.0000 C   0  0  0  0  0  0  0  0  0  0  0  0
    8.4042   -4.0250    0.0000 O   0  0  0  0  0  0  0  0  0  0  0  0
    3.9542   -3.4417    0.0000 O   0  0  0  0  0  0  0  0  0  0  0  0
    3.9625   -0.5375    0.0000 O   0  0  0  0  0  0  0  0  0  0  0  0
    7.5542   -5.1667    0.0000 O   0  0  0  0  0  0  0  0  0  0  0  0
    7.0792   -3.0417    0.0000 C   0  0  0  0  0  0  0  0  0  0  0  0
    6.2375   -4.1917    0.0000 C   0  0  0  0  0  0  0  0  0  0  0  0
    6.4167   -2.5542    0.0000 C   0  0  0  0  0  0  0  0  0  0  0  0
    5.5750   -3.7042    0.0000 C   0  0  0  0  0  0  0  0  0  0  0  0
    2.5042   -1.2792    0.0000 C   0  0  0  0  0  0  0  0  0  0  0  0
    9.0667   -4.5042    0.0000 C   0  0  3  0  0  0  0  0  0  0  0  0
    2.9167   -0.5667    0.0000 O   0  0  0  0  0  0  0  0  0  0  0  0
    2.5000   -2.7000    0.0000 C   0  0  0  0  0  0  0  0  0  0  0  0
    9.8250   -4.1792    0.0000 C   0  0  0  0  0  0  0  0  0  0  0  0
    9.7792   -4.9250    0.0000 C   0  0  0  0  0  0  0  0  0  0  0  0
    8.9750   -5.3292    0.0000 C   0  0  0  0  0  0  0  0  0  0  0  0
    1.6792   -1.2750    0.0000 C   0  0  0  0  0  0  0  0  0  0  0  0
    2.5042    0.1500    0.0000 C   0  0  0  0  0  0  0  0  0  0  0  0
    1.6667   -2.7000    0.0000 C   0  0  0  0  0  0  0  0  0  0  0  0
    1.2625   -1.9792    0.0000 C   0  0  0  0  0  0  0  0  0  0  0  0
  2  1  1  0  0  0  0
  3  1  1  0  0  0  0
  4  2  1  0  0  0  0
  5  3  1  0  0  0  0
  6  7  1  0  0  0  0
  7 15  1  0  0  0  0
  8  4  1  0  0  0  0
  9  1  1  0  0  0  0
 10  6  1  0  0  0  0
 11  2  2  0  0  0  0
 12  3  2  0  0  0  0
 13  6  2  0  0  0  0
 14 16  1  0  0  0  0
 15 17  1  0  0  0  0
 16  8  1  0  0  0  0
 17  8  1  0  0  0  0
 18  9  1  0  0  0  0
 19 10  1  0  0  0  0
 20 18  1  0  0  0  0
 21  9  2  0  0  0  0
 22 19  1  0  0  0  0
 23 19  1  0  0  0  0
 24 19  1  0  0  0  0
 25 18  2  0  0  0  0
 26 20  1  0  0  0  0
 27 21  1  0  0  0  0
 28 27  2  0  0  0  0
  4  5  1  0  0  0  0
 25 28  1  0  0  0  0
 14  7  1  0  0  0  0
M  END
> <IDNUMBER>
F3325-0010

> <Chemical_Name>
tert-butyl 4-[1-(2-methoxyphenyl)-2,5-dioxopyrrolidin-3-yl]piperazine-1-carboxylate

> <CAS>
881484-25-9

> <PriceCoeff>
1.00

> <MW>
389.45

> <Description>
solid

> <FSP3>
0.55

> <clogP>
3.21

> <TPSA>
79.39

> <Acceptor>
5

> <Donor>
1

> <RotBonds>
5

> <HAC>
28

> <Collection>
General

$$$$
F0326-0620
  -ISIS-  06222321442D

 23 25  0  0  0  0  0  0  0  0999 V2000
   -2.5208   -0.2667    0.0000 C   0  0  0  0  0  0  0  0  0  0  0  0
    2.4542   -0.4375    0.0000 N   0  0  3  0  0  0  0  0  0  0  0  0
   -3.2500   -0.8042    0.0000 S   0  0  0  0  0  0  0  0  0  0  0  0
   -1.6625   -0.4375    0.0000 N   0  0  0  0  0  0  0  0  0  0  0  0
   -2.8500    0.5625    0.0000 N   0  0  0  0  0  0  0  0  0  0  0  0
   -3.7333    0.5625    0.0000 N   0  0  0  0  0  0  0  0  0  0  0  0
   -1.0708    0.2500    0.0000 C   0  0  0  0  0  0  0  0  0  0  0  0
    2.8375   -1.2500    0.0000 C   0  0  0  0  0  0  0  0  0  0  0  0
    3.1000    0.1833    0.0000 C   0  0  0  0  0  0  0  0  0  0  0  0
   -3.9958   -0.2792    0.0000 C   0  0  0  0  0  0  0  0  0  0  0  0
    1.5792   -0.2792    0.0000 C   0  0  0  0  0  0  0  0  0  0  0  0
   -0.1958    0.0833    0.0000 C   0  0  0  0  0  0  0  0  0  0  0  0
   -1.3708    1.1208    0.0000 O   0  0  0  0  0  0  0  0  0  0  0  0
    3.7292   -1.1375    0.0000 C   0  0  0  0  0  0  0  0  0  0  0  0
    3.8875   -0.2375    0.0000 C   0  0  0  0  0  0  0  0  0  0  0  0
    2.3792   -2.0375    0.0000 O   0  0  0  0  0  0  0  0  0  0  0  0
    2.9375    1.0708    0.0000 O   0  0  0  0  0  0  0  0  0  0  0  0
    0.9792   -0.9542    0.0000 C   0  0  0  0  0  0  0  0  0  0  0  0
    1.2875    0.5708    0.0000 C   0  0  0  0  0  0  0  0  0  0  0  0
    0.0875   -0.7792    0.0000 C   0  0  0  0  0  0  0  0  0  0  0  0
    0.4042    0.7625    0.0000 C   0  0  0  0  0  0  0  0  0  0  0  0
   -4.8833   -0.5500    0.0000 C   0  0  0  0  0  0  0  0  0  0  0  0
   -5.5208    0.0458    0.0000 C   0  0  0  0  0  0  0  0  0  0  0  0
  2 11  1  0  0  0  0
  3  1  1  0  0  0  0
  4  1  1  0  0  0  0
  5  1  2  0  0  0  0
  6  5  1  0  0  0  0
  7  4  1  0  0  0  0
  8  2  1  0  0  0  0
  9  2  1  0  0  0  0
 10  3  1  0  0  0  0
 11 19  1  0  0  0  0
 12  7  1  0  0  0  0
 13  7  2  0  0  0  0
 14  8  1  0  0  0  0
 15  9  1  0  0  0  0
 16  8  2  0  0  0  0
 17  9  2  0  0  0  0
 18 20  1  0  0  0  0
 19 21  2  0  0  0  0
 20 12  2  0  0  0  0
 21 12  1  0  0  0  0
 22 10  1  0  0  0  0
 23 22  1  0  0  0  0
  6 10  2  0  0  0  0
 18 11  2  0  0  0  0
 14 15  1  0  0  0  0
M  END
> <IDNUMBER>
F0326-0620

> <Chemical_Name>
4-(2,5-dioxopyrrolidin-1-yl)-N-(5-ethyl-1,3,4-thiadiazol-2-yl)benzamide

> <CAS>
392243-15-1

> <PriceCoeff>
1.50

> <MW>
330.36

> <Description>
solid

> <FSP3>
0.27

> <clogP>
0.34

> <TPSA>
120.50

> <Acceptor>
5

> <Donor>
1

> <RotBonds>
4

> <HAC>
23

> <Collection>
Advanced

$$$$
F5939-1818
  -ISIS-  06222321462D

 27 30  0  0  0  0  0  0  0  0999 V2000
    3.8292   -5.5375    0.0000 N   0  0  3  0  0  0  0  0  0  0  0  0
    8.1292   -8.0417    0.0000 C   0  0  0  0  0  0  0  0  0  0  0  0
    8.8042   -8.5375    0.0000 N   0  0  0  0  0  0  0  0  0  0  0  0
    7.4625   -8.5292    0.0000 S   0  0  0  0  0  0  0  0  0  0  0  0
    5.2667   -5.5417    0.0000 C   0  0  0  0  0  0  0  0  0  0  0  0
    4.5417   -5.9542    0.0000 C   0  0  0  0  0  0  0  0  0  0  0  0
    3.0667   -5.8625    0.0000 C   0  0  0  0  0  0  0  0  0  0  0  0
    3.7500   -4.7125    0.0000 C   0  0  0  0  0  0  0  0  0  0  0  0
    5.9792   -5.9542    0.0000 N   0  0  3  0  0  0  0  0  0  0  0  0
    7.7167   -9.3167    0.0000 C   0  0  0  0  0  0  0  0  0  0  0  0
    8.5417   -9.3292    0.0000 C   0  0  0  0  0  0  0  0  0  0  0  0
    7.2917  -10.0375    0.0000 C   0  0  0  0  0  0  0  0  0  0  0  0
    8.1375   -7.2125    0.0000 O   0  0  0  0  0  0  0  0  0  0  0  0
    5.9792   -6.7917    0.0000 C   0  0  0  0  0  0  0  0  0  0  0  0
    6.7042   -5.5417    0.0000 C   0  0  0  0  0  0  0  0  0  0  0  0
    5.2667   -4.7125    0.0000 O   0  0  0  0  0  0  0  0  0  0  0  0
    2.5250   -5.2375    0.0000 C   0  0  0  0  0  0  0  0  0  0  0  0
    2.9417   -4.5292    0.0000 C   0  0  0  0  0  0  0  0  0  0  0  0
    2.8917   -6.6792    0.0000 O   0  0  0  0  0  0  0  0  0  0  0  0
    4.3667   -4.1542    0.0000 O   0  0  0  0  0  0  0  0  0  0  0  0
    8.9542  -10.0500    0.0000 C   0  0  0  0  0  0  0  0  0  0  0  0
    6.6917   -7.2042    0.0000 C   0  0  0  0  0  0  0  0  0  0  0  0
    7.4250   -5.9542    0.0000 C   0  0  0  0  0  0  0  0  0  0  0  0
    7.7042  -10.7625    0.0000 C   0  0  0  0  0  0  0  0  0  0  0  0
    7.4167   -6.7917    0.0000 C   0  0  3  0  0  0  0  0  0  0  0  0
    8.5417  -10.7625    0.0000 C   0  0  0  0  0  0  0  0  0  0  0  0
    7.2875  -11.4750    0.0000 F   0  0  0  0  0  0  0  0  0  0  0  0
  2 13  1  0  0  0  0
  3  2  2  0  0  0  0
  4  2  1  0  0  0  0
  5  6  1  0  0  0  0
  6  1  1  0  0  0  0
  7  1  1  0  0  0  0
  8  1  1  0  0  0  0
  9  5  1  0  0  0  0
 10  4  1  0  0  0  0
 11  3  1  0  0  0  0
 12 10  1  0  0  0  0
 13 25  1  0  0  0  0
 14  9  1  0  0  0  0
 15  9  1  0  0  0  0
 16  5  2  0  0  0  0
 17  7  1  0  0  0  0
 18  8  1  0  0  0  0
 19  7  2  0  0  0  0
 20  8  2  0  0  0  0
 21 11  1  0  0  0  0
 22 14  1  0  0  0  0
 23 15  1  0  0  0  0
 24 12  2  0  0  0  0
 25 23  1  0  0  0  0
 26 21  2  0  0  0  0
 27 24  1  0  0  0  0
 18 17  1  0  0  0  0
 22 25  1  0  0  0  0
 11 10  2  0  0  0  0
 24 26  1  0  0  0  0
M  END
> <IDNUMBER>
F5939-1818

> <Chemical_Name>
1-(2-{4-[(6-fluoro-1,3-benzothiazol-2-yl)oxy]piperidin-1-yl}-2-oxoethyl)pyrrolidine-2,5-dione

> <CAS>
1324171-50-7

> <PriceCoeff>
1.50

> <MW>
391.42

> <Description>
solid

> <FSP3>
0.44

> <clogP>
1.81

> <TPSA>
108.05

> <Acceptor>
5

> <Donor>
0

> <RotBonds>
5

> <HAC>
27

> <Collection>
Advanced

$$$$
F5831-7018
  -ISIS-  06222321152D

 27 29  0  0  0  0  0  0  0  0999 V2000
   -4.5833    3.8000    0.0000 S   0  0  3  0  0  0  0  0  0  0  0  0
   -6.7167    3.3583    0.0000 N   0  0  3  0  0  0  0  0  0  0  0  0
   -7.4417    3.7583    0.0000 C   0  0  0  0  0  0  0  0  0  0  0  0
   -6.7042    2.5208    0.0000 C   0  0  0  0  0  0  0  0  0  0  0  0
   -5.2875    3.3833    0.0000 C   0  0  0  0  0  0  0  0  0  0  0  0
   -6.0042    3.7833    0.0000 C   0  0  0  0  0  0  0  0  0  0  0  0
   -1.7083    6.2750    0.0000 N   0  0  3  0  0  0  0  0  0  0  0  0
   -3.8625    4.2125    0.0000 N   0  0  0  0  0  0  0  0  0  0  0  0
   -1.6000    8.0667    0.0000 S   0  0  0  0  0  0  0  0  0  0  0  0
   -0.9958    7.5167    0.0000 C   0  0  0  0  0  0  0  0  0  0  0  0
   -4.1583    3.1083    0.0000 O   0  0  0  0  0  0  0  0  0  0  0  0
   -5.0083    4.5042    0.0000 O   0  0  0  0  0  0  0  0  0  0  0  0
   -5.9833    2.1208    0.0000 O   0  0  0  0  0  0  0  0  0  0  0  0
   -7.4667    4.5792    0.0000 O   0  0  0  0  0  0  0  0  0  0  0  0
   -1.2708    8.8167    0.0000 C   0  0  0  0  0  0  0  0  0  0  0  0
   -0.2833    7.9250    0.0000 C   0  0  0  0  0  0  0  0  0  0  0  0
   -0.9958    6.6917    0.0000 C   0  0  0  0  0  0  0  0  0  0  0  0
   -0.4500    8.7292    0.0000 C   0  0  0  0  0  0  0  0  0  0  0  0
   -1.7083    5.4542    0.0000 C   0  0  0  0  0  0  0  0  0  0  0  0
   -2.4208    6.6917    0.0000 C   0  0  0  0  0  0  0  0  0  0  0  0
   -3.8625    5.0292    0.0000 C   0  0  0  0  0  0  0  0  0  0  0  0
   -3.1458    5.4500    0.0000 C   0  0  3  0  0  0  0  0  0  0  0  0
   -7.4042    2.0958    0.0000 C   0  0  0  0  0  0  0  0  0  0  0  0
   -8.1542    3.3208    0.0000 C   0  0  0  0  0  0  0  0  0  0  0  0
   -2.4333    5.0417    0.0000 C   0  0  0  0  0  0  0  0  0  0  0  0
   -3.1458    6.2792    0.0000 C   0  0  0  0  0  0  0  0  0  0  0  0
   -8.1292    2.4875    0.0000 C   0  0  0  0  0  0  0  0  0  0  0  0
  2  6  1  0  0  0  0
  3  2  1  0  0  0  0
  4  2  1  0  0  0  0
  5  1  1  0  0  0  0
  6  5  1  0  0  0  0
  7 20  1  0  0  0  0
  8  1  1  0  0  0  0
  9 10  1  0  0  0  0
 10 17  1  0  0  0  0
 11  1  2  0  0  0  0
 12  1  2  0  0  0  0
 13  4  2  0  0  0  0
 14  3  2  0  0  0  0
 15  9  1  0  0  0  0
 16 10  2  0  0  0  0
 17  7  1  0  0  0  0
 18 16  1  0  0  0  0
 19 25  1  0  0  0  0
 20 26  1  0  0  0  0
 21  8  1  0  0  0  0
 22 21  1  0  0  0  0
 23  4  1  0  0  0  0
 24  3  1  0  0  0  0
 25 22  1  0  0  0  0
 26 22  1  0  0  0  0
 27 23  1  0  0  0  0
  7 19  1  0  0  0  0
 24 27  1  0  0  0  0
 18 15  2  0  0  0  0
M  END
> <IDNUMBER>
F5831-7018

> <Chemical_Name>
2-(2,6-dioxopiperidin-1-yl)-N-({1-[(thiophen-2-yl)methyl]piperidin-4-yl}methyl)ethane-1-sulfonamide

> <CAS>
1211699-08-9

> <PriceCoeff>
1.00

> <MW>
413.55

> <Description>
solid

> <FSP3>
0.67

> <clogP>
1.65

> <TPSA>
123.41

> <Acceptor>
4

> <Donor>
2

> <RotBonds>
8

> <HAC>
27

> <Collection>
General

$$$$
F5729-1223
  -ISIS-  06222304352D

 34 36  0  0  0  0  0  0  0  0999 V2000
    0.5417    8.4542    0.0000 N   0  0  3  0  0  0  0  0  0  0  0  0
   -0.2500    5.0792    0.0000 N   0  0  3  0  0  0  0  0  0  0  0  0
    0.5000    4.1375    0.0000 N   0  0  0  0  0  0  0  0  0  0  0  0
    0.4500    5.3417    0.0000 C   0  0  0  0  0  0  0  0  0  0  0  0
   -0.7583    8.4917    0.0000 C   0  0  0  0  0  0  0  0  0  0  0  0
   -0.1000    8.8500    0.0000 C   0  0  0  0  0  0  0  0  0  0  0  0
   -0.2208    4.3292    0.0000 C   0  0  0  0  0  0  0  0  0  0  0  0
    0.9167    4.7625    0.0000 C   0  0  0  0  0  0  0  0  0  0  0  0
    0.6750    7.7167    0.0000 C   0  0  0  0  0  0  0  0  0  0  0  0
    1.2042    8.8125    0.0000 C   0  0  0  0  0  0  0  0  0  0  0  0
   -0.7833    7.7417    0.0000 N   0  0  3  0  0  0  0  0  0  0  0  0
    0.7250    6.0417    0.0000 C   0  0  0  0  0  0  0  0  0  0  0  0
    1.6542    4.8750    0.0000 C   0  0  0  0  0  0  0  0  0  0  0  0
    1.4667    6.1542    0.0000 C   0  0  0  0  0  0  0  0  0  0  0  0
    1.9292    5.5667    0.0000 C   0  0  0  0  0  0  0  0  0  0  0  0
   -0.8875    5.4917    0.0000 C   0  0  0  0  0  0  0  0  0  0  0  0
   -1.4000    8.8917    0.0000 O   0  0  0  0  0  0  0  0  0  0  0  0
    1.7417    8.2917    0.0000 C   0  0  0  0  0  0  0  0  0  0  0  0
    1.4125    7.6167    0.0000 C   0  0  0  0  0  0  0  0  0  0  0  0
    1.3042    9.5625    0.0000 O   0  0  0  0  0  0  0  0  0  0  0  0
    0.1625    7.1750    0.0000 O   0  0  0  0  0  0  0  0  0  0  0  0
   -0.1500    7.3417    0.0000 C   0  0  0  0  0  0  0  0  0  0  0  0
   -1.4458    7.3917    0.0000 C   0  0  0  0  0  0  0  0  0  0  0  0
   -0.8500    6.2417    0.0000 C   0  0  3  0  0  0  0  0  0  0  0  0
   -0.1833    6.5917    0.0000 C   0  0  0  0  0  0  0  0  0  0  0  0
   -1.4833    6.6417    0.0000 C   0  0  0  0  0  0  0  0  0  0  0  0
    1.7417    6.8542    0.0000 C   0  0  0  0  0  0  0  0  0  0  0  0
    2.6792    5.6875    0.0000 C   0  0  0  0  0  0  0  0  0  0  0  0
    4.9055    6.4505    0.0000 C   0  0  0  0  0  0  0  0  0  0  0  0
    5.1273    7.2494    0.0000 C   0  0  0  0  0  0  0  0  0  0  0  0
    5.4846    5.8607    0.0000 O   0  0  0  0  0  0  0  0  0  0  0  0
    4.5482    7.8393    0.0000 O   0  0  0  0  0  0  0  0  0  0  0  0
    5.9283    7.4524    0.0000 O   0  0  0  0  0  0  0  0  0  0  0  0
    4.1015    6.2420    0.0000 O   0  0  0  0  0  0  0  0  0  0  0  0
  8  4  2  0  0  0  0
  9  1  1  0  0  0  0
 10  1  1  0  0  0  0
 11  5  1  0  0  0  0
 12  4  1  0  0  0  0
 13  8  1  0  0  0  0
 14 12  2  0  0  0  0
 15 14  1  0  0  0  0
 16 24  1  0  0  0  0
 17  5  2  0  0  0  0
 18 10  1  0  0  0  0
 19  9  1  0  0  0  0
 20 10  2  0  0  0  0
 21  9  2  0  0  0  0
 22 11  1  0  0  0  0
 23 11  1  0  0  0  0
 24 26  1  0  0  0  0
 25 22  1  0  0  0  0
 26 23  1  0  0  0  0
 27 14  1  0  0  0  0
 28 15  1  0  0  0  0
 18 19  1  0  0  0  0
 24 25  1  0  0  0  0
  3  8  1  0  0  0  0
 13 15  2  0  0  0  0
  2 16  1  0  0  0  0
  3  7  2  0  0  0  0
  4  2  1  0  0  0  0
  5  6  1  0  0  0  0
  6  1  1  0  0  0  0
  7  2  1  0  0  0  0
 30 29  1  0  0  0  0
 31 29  2  0  0  0  0
 32 30  2  0  0  0  0
 33 30  1  0  0  0  0
 34 29  1  0  0  0  0
M  END
> <IDNUMBER>
F5729-1223

> <Chemical_Name>
1-(2-{4-[(5,6-dimethyl-1H-1,3-benzodiazol-1-yl)methyl]piperidin-1-yl}-2-oxoethyl)pyrrolidine-2,5-dione; oxalic acid

> <CAS>
1351632-39-7

> <PriceCoeff>
1.50

> <MW>
382.46

> <Description>
solid

> <FSP3>
0.52

> <clogP>
1.93

> <TPSA>
75.51

> <Acceptor>
4

> <Donor>
0

> <RotBonds>
5

> <HAC>
28

> <Collection>
Advanced

$$$$
F3316-0301
  -ISIS-  06222321462D

 20 21  0  0  0  0  0  0  0  0999 V2000
    2.5792    1.5458    0.0000 N   0  0  3  0  0  0  0  0  0  0  0  0
    2.0542    2.1958    0.0000 N   0  0  0  0  0  0  0  0  0  0  0  0
    2.1167    0.8500    0.0000 C   0  0  0  0  0  0  0  0  0  0  0  0
    1.3167    1.0750    0.0000 C   0  0  0  0  0  0  0  0  0  0  0  0
    1.2792    1.9083    0.0000 C   0  0  0  0  0  0  0  0  0  0  0  0
    3.4042    1.5750    0.0000 C   0  0  0  0  0  0  0  0  0  0  0  0
    3.8500    0.8833    0.0000 C   0  0  0  0  0  0  0  0  0  0  0  0
    4.6792    0.9125    0.0000 N   0  0  0  0  0  0  0  0  0  0  0  0
    0.6667    0.5625    0.0000 Br  0  0  0  0  0  0  0  0  0  0  0  0
    3.4667    0.1458    0.0000 O   0  0  0  0  0  0  0  0  0  0  0  0
    5.1167    0.2208    0.0000 C   0  0  0  0  0  0  0  0  0  0  0  0
    2.4000    0.0833    0.0000 C   0  0  0  0  0  0  0  0  0  0  0  0
    6.0000   -1.1750    0.0000 C   0  0  0  0  0  0  0  0  0  0  0  0
    0.5917    2.3583    0.0000 C   0  0  0  0  0  0  0  0  0  0  0  0
    4.7292   -0.5125    0.0000 C   0  0  0  0  0  0  0  0  0  0  0  0
    5.9417    0.2583    0.0000 C   0  0  0  0  0  0  0  0  0  0  0  0
    6.3792   -0.4375    0.0000 C   0  0  0  0  0  0  0  0  0  0  0  0
    5.1750   -1.2042    0.0000 C   0  0  0  0  0  0  0  0  0  0  0  0
    6.4417   -1.8667    0.0000 O   0  0  0  0  0  0  0  0  0  0  0  0
    6.0625   -2.6042    0.0000 C   0  0  0  0  0  0  0  0  0  0  0  0
  2  1  1  0  0  0  0
  3  1  1  0  0  0  0
  4  3  2  0  0  0  0
  5  2  2  0  0  0  0
  6  1  1  0  0  0  0
  7  6  1  0  0  0  0
  8  7  1  0  0  0  0
  9  4  1  0  0  0  0
 10  7  2  0  0  0  0
 11  8  1  0  0  0  0
 12  3  1  0  0  0  0
 13 17  1  0  0  0  0
 14  5  1  0  0  0  0
 15 11  2  0  0  0  0
 16 11  1  0  0  0  0
 17 16  2  0  0  0  0
 18 15  1  0  0  0  0
 19 13  1  0  0  0  0
 20 19  1  0  0  0  0
  5  4  1  0  0  0  0
 18 13  2  0  0  0  0
M  END
> <IDNUMBER>
F3316-0301

> <Chemical_Name>
2-(4-bromo-3,5-dimethyl-1H-pyrazol-1-yl)-N-(4-methoxyphenyl)acetamide

> <CAS>
957494-95-0

> <PriceCoeff>
1.00

> <MW>
338.20

> <Description>
solid

> <FSP3>
0.29

> <clogP>
2.79

> <TPSA>
56.15

> <Acceptor>
3

> <Donor>
1

> <RotBonds>
4

> <HAC>
20

> <Collection>
General

$$$$
F3406-0984
  -ISIS-  06222321152D

 28 30  0  0  0  0  0  0  0  0999 V2000
    7.0292   -4.5417    0.0000 C   0  0  0  0  0  0  0  0  0  0  0  0
    9.3125   -4.3042    0.0000 C   0  0  0  0  0  0  0  0  0  0  0  0
    9.1667   -2.9667    0.0000 C   0  0  0  0  0  0  0  0  0  0  0  0
    8.2417   -5.0875    0.0000 C   0  0  0  0  0  0  0  0  0  0  0  0
    7.9542   -2.4417    0.0000 N   0  0  3  0  0  0  0  0  0  0  0  0
    6.8792   -3.2167    0.0000 C   0  0  0  0  0  0  0  0  0  0  0  0
    5.9375   -5.3125    0.0000 C   0  0  0  0  0  0  0  0  0  0  0  0
   10.2500   -2.2042    0.0000 N   0  0  0  0  0  0  0  0  0  0  0  0
    2.8292   -3.4917    0.0000 C   0  0  0  0  0  0  0  0  0  0  0  0
   10.5167   -4.8375    0.0000 C   0  0  0  0  0  0  0  0  0  0  0  0
    4.7250   -4.7750    0.0000 N   0  0  0  0  0  0  0  0  0  0  0  0
    8.3667   -6.4042    0.0000 O   0  0  0  0  0  0  0  0  0  0  0  0
    4.1542   -3.5667    0.0000 C   0  0  0  0  0  0  0  0  0  0  0  0
    2.2292   -2.2917    0.0000 C   0  0  0  0  0  0  0  0  0  0  0  0
    2.0792   -4.5917    0.0000 C   0  0  0  0  0  0  0  0  0  0  0  0
    6.0750   -6.6292    0.0000 O   0  0  0  0  0  0  0  0  0  0  0  0
   11.4542   -2.7417    0.0000 C   0  0  0  0  0  0  0  0  0  0  0  0
    0.9000   -2.2042    0.0000 C   0  0  0  0  0  0  0  0  0  0  0  0
    0.7375   -4.4917    0.0000 C   0  0  0  0  0  0  0  0  0  0  0  0
   11.5917   -4.0542    0.0000 C   0  0  0  0  0  0  0  0  0  0  0  0
    7.8292   -1.1125    0.0000 C   0  0  0  0  0  0  0  0  0  0  0  0
    0.1500   -3.3042    0.0000 C   0  0  0  0  0  0  0  0  0  0  0  0
    2.9917   -1.1875    0.0000 O   0  0  0  0  0  0  0  0  0  0  0  0
    0.0000   -5.6000    0.0000 O   0  0  0  0  0  0  0  0  0  0  0  0
   12.5292   -1.9667    0.0000 C   0  0  0  0  0  0  0  0  0  0  0  0
    2.4042   -0.0000    0.0000 C   0  0  0  0  0  0  0  0  0  0  0  0
    0.5875   -6.7917    0.0000 C   0  0  0  0  0  0  0  0  0  0  0  0
    8.9042   -0.3375    0.0000 C   0  0  0  0  0  0  0  0  0  0  0  0
  2  4  1  0  0  0  0
  3  5  1  0  0  0  0
  4  1  1  0  0  0  0
  5  6  1  0  0  0  0
  6  1  2  0  0  0  0
  7  1  1  0  0  0  0
  8  3  2  0  0  0  0
  9 13  1  0  0  0  0
 10  2  2  0  0  0  0
 11  7  1  0  0  0  0
 12  4  2  0  0  0  0
 13 11  1  0  0  0  0
 14  9  1  0  0  0  0
 15  9  2  0  0  0  0
 16  7  2  0  0  0  0
 17  8  1  0  0  0  0
 18 14  2  0  0  0  0
 19 15  1  0  0  0  0
 20 10  1  0  0  0  0
 21  5  1  0  0  0  0
 22 19  2  0  0  0  0
 23 14  1  0  0  0  0
 24 19  1  0  0  0  0
 25 17  1  0  0  0  0
 26 23  1  0  0  0  0
 27 24  1  0  0  0  0
 28 21  1  0  0  0  0
  2  3  1  0  0  0  0
 17 20  2  0  0  0  0
 18 22  1  0  0  0  0
M  END
> <IDNUMBER>
F3406-0984

> <Chemical_Name>
N-[(2,5-dimethoxyphenyl)methyl]-1-ethyl-7-methyl-4-oxo-1,4-dihydro-1,8-naphthyridine-3-carboxamide

> <CAS>
1251569-82-0

> <PriceCoeff>
1.00

> <MW>
381.43

> <Description>
solid

> <FSP3>
0.29

> <clogP>
1.90

> <TPSA>
80.76

> <Acceptor>
5

> <Donor>
3

> <RotBonds>
6

> <HAC>
28

> <Collection>
General

> <Reference_compound>
CHEMBL2228610

> <Similarity>
0.8010

$$$$
F0901-0811
  -ISIS-  06222321452D

 18 19  0  0  0  0  0  0  0  0999 V2000
    0.1375   -0.2375    0.0000 N   0  0  0  0  0  0  0  0  0  0  0  0
   -0.7958   -0.2375    0.0000 C   0  0  0  0  0  0  0  0  0  0  0  0
   -1.0958   -1.1000    0.0000 N   0  0  0  0  0  0  0  0  0  0  0  0
    0.3875   -1.1000    0.0000 C   0  0  0  0  0  0  0  0  0  0  0  0
   -0.3208   -1.6000    0.0000 O   0  0  0  0  0  0  0  0  0  0  0  0
   -1.3208    0.4833    0.0000 C   0  0  0  0  0  0  0  0  0  0  0  0
    2.2292   -2.6000    0.0000 C   0  0  0  0  0  0  0  0  0  0  0  0
    2.9375   -2.0042    0.0000 O   0  0  0  0  0  0  0  0  0  0  0  0
   -0.9708    1.3208    0.0000 C   0  0  0  0  0  0  0  0  0  0  0  0
   -2.2125    0.3833    0.0000 C   0  0  0  0  0  0  0  0  0  0  0  0
    1.2375   -1.4000    0.0000 C   0  0  0  0  0  0  0  0  0  0  0  0
    1.3875   -2.2875    0.0000 C   0  0  0  0  0  0  0  0  0  0  0  0
   -2.4208    1.9458    0.0000 C   0  0  0  0  0  0  0  0  0  0  0  0
    2.3042   -3.4792    0.0000 O   0  0  0  0  0  0  0  0  0  0  0  0
   -2.7625    1.1000    0.0000 C   0  0  0  0  0  0  0  0  0  0  0  0
   -1.5125    2.0458    0.0000 C   0  0  0  0  0  0  0  0  0  0  0  0
   -2.9625    2.6500    0.0000 O   0  0  0  0  0  0  0  0  0  0  0  0
   -2.6208    3.4833    0.0000 C   0  0  0  0  0  0  0  0  0  0  0  0
  2  1  1  0  0  0  0
  3  2  2  0  0  0  0
  4  1  2  0  0  0  0
  5  4  1  0  0  0  0
  6  2  1  0  0  0  0
  7 12  1  0  0  0  0
  8  7  2  0  0  0  0
  9  6  2  0  0  0  0
 10  6  1  0  0  0  0
 11  4  1  0  0  0  0
 12 11  1  0  0  0  0
 13 15  1  0  0  0  0
 14  7  1  0  0  0  0
 15 10  2  0  0  0  0
 16  9  1  0  0  0  0
 17 13  1  0  0  0  0
 18 17  1  0  0  0  0
  3  5  1  0  0  0  0
 13 16  2  0  0  0  0
M  END
> <IDNUMBER>
F0901-0811

> <Chemical_Name>
3-[3-(4-methoxyphenyl)-1,2,4-oxadiazol-5-yl]propanoic acid

> <CAS>
94192-18-4

> <PriceCoeff>
1.50

> <MW>
248.23

> <Description>
solid

> <FSP3>
0.25

> <clogP>
1.17

> <TPSA>
85.45

> <Acceptor>
6

> <Donor>
0

> <RotBonds>
5

> <HAC>
18

> <Collection>
Advanced

> <Reference_compound>
CHEMBL4744771

> <Similarity>
0.8950

$$$$
F5225-0161
  -ISIS-  06222321442D

 19 20  0  0  0  0  0  0  0  0999 V2000
   -3.8208    8.4250    0.0000 C   0  0  0  0  0  0  0  0  0  0  0  0
   -3.8250    9.3500    0.0000 C   0  0  0  0  0  0  0  0  0  0  0  0
   -3.0083    7.9625    0.0000 N   0  0  0  0  0  0  0  0  0  0  0  0
   -3.8083    6.5750    0.0000 N   0  0  0  0  0  0  0  0  0  0  0  0
   -3.8083    5.6500    0.0000 N   0  0  0  0  0  0  0  0  0  0  0  0
   -3.0083    7.0292    0.0000 C   0  0  0  0  0  0  0  0  0  0  0  0
   -3.0000    5.1917    0.0000 C   0  0  0  0  0  0  0  0  0  0  0  0
   -3.0125    9.8167    0.0000 C   0  0  0  0  0  0  0  0  0  0  0  0
   -4.6208    7.9625    0.0000 O   0  0  0  0  0  0  0  0  0  0  0  0
   -3.0000    4.2625    0.0000 S   0  0  0  0  0  0  0  0  0  0  0  0
   -2.2083    6.5792    0.0000 C   0  0  0  0  0  0  0  0  0  0  0  0
   -2.2125    9.3625    0.0000 F   0  0  0  0  0  0  0  0  0  0  0  0
   -2.2000    5.6542    0.0000 C   0  0  0  0  0  0  0  0  0  0  0  0
   -4.6333    9.8167    0.0000 C   0  0  0  0  0  0  0  0  0  0  0  0
   -3.0208   10.7500    0.0000 C   0  0  0  0  0  0  0  0  0  0  0  0
   -2.2000    3.8000    0.0000 C   0  0  0  0  0  0  0  0  0  0  0  0
   -4.6333   10.7375    0.0000 C   0  0  0  0  0  0  0  0  0  0  0  0
   -1.3958    4.2625    0.0000 C   0  0  0  0  0  0  0  0  0  0  0  0
   -3.8208   11.2042    0.0000 C   0  0  0  0  0  0  0  0  0  0  0  0
  2  1  1  0  0  0  0
  3  1  1  0  0  0  0
  4  6  2  0  0  0  0
  5  4  1  0  0  0  0
  6  3  1  0  0  0  0
  7 13  1  0  0  0  0
  8  2  1  0  0  0  0
  9  1  2  0  0  0  0
 10  7  1  0  0  0  0
 11  6  1  0  0  0  0
 12  8  1  0  0  0  0
 13 11  2  0  0  0  0
 14  2  2  0  0  0  0
 15  8  2  0  0  0  0
 16 10  1  0  0  0  0
 17 14  1  0  0  0  0
 18 16  1  0  0  0  0
 19 17  2  0  0  0  0
 19 15  1  0  0  0  0
  7  5  2  0  0  0  0
M  END
> <IDNUMBER>
F5225-0161

> <Chemical_Name>
N-[6-(ethylsulfanyl)pyridazin-3-yl]-2-fluorobenzamide

> <CAS>
1021121-03-8

> <PriceCoeff>
1.50

> <MW>
277.32

> <Description>
solid

> <FSP3>
0.15

> <clogP>
2.28

> <TPSA>
80.18

> <Acceptor>
3

> <Donor>
1

> <RotBonds>
4

> <HAC>
19

> <Collection>
Advanced

> <Reference_compound>
CHEMBL2229726

> <Similarity>
0.8010

$$$$
F8880-1844
  -ISIS-  06222321472D

  9  8  0  0  0  0  0  0  0  0999 V2000
    2.6625    0.7208    0.0000 C   0  0  0  0  0  0  0  0  0  0  0  0
    3.3792    1.1333    0.0000 O   0  0  0  0  0  0  0  0  0  0  0  0
    1.9500    1.1333    0.0000 C   0  0  0  0  0  0  0  0  0  0  0  0
    2.6625   -0.1042    0.0000 O   0  0  0  0  0  0  0  0  0  0  0  0
    1.2375    0.7208    0.0000 C   0  0  3  0  0  0  0  0  0  0  0  0
    0.5167    1.1333    0.0000 C   0  0  0  0  0  0  0  0  0  0  0  0
    1.2375   -0.1042    0.0000 C   0  0  0  0  0  0  0  0  0  0  0  0
   -0.1958    0.7208    0.0000 C   0  0  0  0  0  0  0  0  0  0  0  0
    0.5167   -0.5167    0.0000 C   0  0  0  0  0  0  0  0  0  0  0  0
  2  1  2  0  0  0  0
  3  1  1  0  0  0  0
  4  1  1  0  0  0  0
  5  3  1  0  0  0  0
  6  5  1  0  0  0  0
  7  5  1  0  0  0  0
  8  6  1  0  0  0  0
  9  7  1  0  0  0  0
M  END
> <IDNUMBER>
F8880-1844

> <Chemical_Name>
3-ethylpentanoic acid

> <CAS>
58888-87-2

> <PriceCoeff>
1.00

> <MW>
130.18

> <Description>
liquid

> <FSP3>
0.86

> <clogP>
2.32

> <TPSA>
37.30

> <Acceptor>
2

> <Donor>
0

> <RotBonds>
4

> <HAC>
9

> <Collection>
General

> <Reference_compound>
PRI6382

> <Similarity>
0.8330

$$$$
F3406-0997
  -ISIS-  06222321152D

 28 30  0  0  0  0  0  0  0  0999 V2000
    3.4667   -5.9667    0.0000 C   0  0  0  0  0  0  0  0  0  0  0  0
    4.6250   -3.9875    0.0000 C   0  0  0  0  0  0  0  0  0  0  0  0
    3.4667   -3.3167    0.0000 C   0  0  0  0  0  0  0  0  0  0  0  0
    4.6250   -5.3000    0.0000 C   0  0  0  0  0  0  0  0  0  0  0  0
    2.3167   -5.3000    0.0000 C   0  0  0  0  0  0  0  0  0  0  0  0
    2.3167   -3.9667    0.0000 N   0  0  3  0  0  0  0  0  0  0  0  0
    3.4667   -7.2917    0.0000 C   0  0  0  0  0  0  0  0  0  0  0  0
    3.4667   -1.9792    0.0000 N   0  0  0  0  0  0  0  0  0  0  0  0
    2.3167   -7.9417    0.0000 N   0  0  0  0  0  0  0  0  0  0  0  0
    2.3167   -9.3042    0.0000 C   0  0  0  0  0  0  0  0  0  0  0  0
    5.7792   -3.3167    0.0000 C   0  0  0  0  0  0  0  0  0  0  0  0
    5.7792   -5.9667    0.0000 O   0  0  0  0  0  0  0  0  0  0  0  0
    4.6250   -7.9417    0.0000 O   0  0  0  0  0  0  0  0  0  0  0  0
    1.1542   -9.9667    0.0000 C   0  0  0  0  0  0  0  0  0  0  0  0
    3.4542   -9.9667    0.0000 C   0  0  0  0  0  0  0  0  0  0  0  0
    1.1542  -11.2792    0.0000 C   0  0  0  0  0  0  0  0  0  0  0  0
    3.4542  -11.2792    0.0000 C   0  0  0  0  0  0  0  0  0  0  0  0
    2.3167  -11.9500    0.0000 C   0  0  0  0  0  0  0  0  0  0  0  0
    4.6250   -1.3125    0.0000 C   0  0  0  0  0  0  0  0  0  0  0  0
    5.7792   -1.9917    0.0000 C   0  0  0  0  0  0  0  0  0  0  0  0
    1.1667   -3.3042    0.0000 C   0  0  0  0  0  0  0  0  0  0  0  0
    0.0000  -11.9500    0.0000 O   0  0  0  0  0  0  0  0  0  0  0  0
    4.6125  -11.9500    0.0000 O   0  0  0  0  0  0  0  0  0  0  0  0
    4.6250   -0.0000    0.0000 C   0  0  0  0  0  0  0  0  0  0  0  0
    4.6125  -13.2917    0.0000 C   0  0  0  0  0  0  0  0  0  0  0  0
    0.0000  -13.2917    0.0000 C   0  0  0  0  0  0  0  0  0  0  0  0
    1.1667   -1.9792    0.0000 C   0  0  0  0  0  0  0  0  0  0  0  0
    0.0250   -1.3000    0.0000 C   0  0  0  0  0  0  0  0  0  0  0  0
  2  4  1  0  0  0  0
  3  6  1  0  0  0  0
  4  1  1  0  0  0  0
  5  1  2  0  0  0  0
  6  5  1  0  0  0  0
  7  1  1  0  0  0  0
  8  3  2  0  0  0  0
  9  7  1  0  0  0  0
 10  9  1  0  0  0  0
 11  2  2  0  0  0  0
 12  4  2  0  0  0  0
 13  7  2  0  0  0  0
 14 10  2  0  0  0  0
 15 10  1  0  0  0  0
 16 14  1  0  0  0  0
 17 15  2  0  0  0  0
 18 17  1  0  0  0  0
 19  8  1  0  0  0  0
 20 11  1  0  0  0  0
 21  6  1  0  0  0  0
 22 16  1  0  0  0  0
 23 17  1  0  0  0  0
 24 19  1  0  0  0  0
 25 23  1  0  0  0  0
 26 22  1  0  0  0  0
 27 21  1  0  0  0  0
 28 27  1  0  0  0  0
  2  3  1  0  0  0  0
 19 20  2  0  0  0  0
 16 18  2  0  0  0  0
M  END
> <IDNUMBER>
F3406-0997

> <Chemical_Name>
N-(3,5-dimethoxyphenyl)-7-methyl-4-oxo-1-propyl-1,4-dihydro-1,8-naphthyridine-3-carboxamide

> <CAS>
1251585-39-3

> <PriceCoeff>
1.00

> <MW>
381.43

> <Description>
solid

> <FSP3>
0.29

> <clogP>
2.14

> <TPSA>
80.76

> <Acceptor>
5

> <Donor>
3

> <RotBonds>
6

> <HAC>
28

> <Collection>
General

> <Reference_compound>
CHEMBL2228610

> <Similarity>
0.8190

$$$$
F3316-0240
  -ISIS-  06222321152D

 22 23  0  0  0  0  0  0  0  0999 V2000
    3.7542   -3.0167    0.0000 S   0  0  3  0  0  0  0  0  0  0  0  0
    1.2875   -1.5917    0.0000 N   0  0  3  0  0  0  0  0  0  0  0  0
    0.4667   -1.5500    0.0000 N   0  0  0  0  0  0  0  0  0  0  0  0
    0.9417   -0.3042    0.0000 C   0  0  0  0  0  0  0  0  0  0  0  0
    1.5792   -0.8250    0.0000 C   0  0  0  0  0  0  0  0  0  0  0  0
    0.2542   -0.7542    0.0000 C   0  0  0  0  0  0  0  0  0  0  0  0
    4.5792   -3.0167    0.0000 C   0  0  0  0  0  0  0  0  0  0  0  0
    4.9792   -3.7292    0.0000 C   0  0  0  0  0  0  0  0  0  0  0  0
    3.7500   -2.1917    0.0000 O   0  0  0  0  0  0  0  0  0  0  0  0
    3.7500   -3.8417    0.0000 O   0  0  0  0  0  0  0  0  0  0  0  0
    2.9292   -3.0167    0.0000 N   0  0  0  0  0  0  0  0  0  0  0  0
    5.8000   -3.7292    0.0000 C   0  0  0  0  0  0  0  0  0  0  0  0
    1.6917   -2.3042    0.0000 C   0  0  0  0  0  0  0  0  0  0  0  0
    6.2125   -3.0250    0.0000 C   0  0  0  0  0  0  0  0  0  0  0  0
    0.9375    0.5208    0.0000 Cl  0  0  0  0  0  0  0  0  0  0  0  0
    4.9875   -2.3167    0.0000 C   0  0  0  0  0  0  0  0  0  0  0  0
    2.5167   -2.3042    0.0000 C   0  0  0  0  0  0  0  0  0  0  0  0
    5.8000   -2.3167    0.0000 C   0  0  0  0  0  0  0  0  0  0  0  0
    2.3792   -0.6042    0.0000 C   0  0  0  0  0  0  0  0  0  0  0  0
   -0.5458   -0.5417    0.0000 C   0  0  0  0  0  0  0  0  0  0  0  0
    6.2042   -4.4417    0.0000 C   0  0  0  0  0  0  0  0  0  0  0  0
    7.0292   -3.0250    0.0000 C   0  0  0  0  0  0  0  0  0  0  0  0
  2 13  1  0  0  0  0
  3  2  1  0  0  0  0
  4  5  2  0  0  0  0
  5  2  1  0  0  0  0
  6  3  2  0  0  0  0
  7  1  1  0  0  0  0
  8  7  2  0  0  0  0
  9  1  2  0  0  0  0
 10  1  2  0  0  0  0
 11  1  1  0  0  0  0
 12  8  1  0  0  0  0
 13 17  1  0  0  0  0
 14 18  1  0  0  0  0
 15  4  1  0  0  0  0
 16  7  1  0  0  0  0
 17 11  1  0  0  0  0
 18 16  2  0  0  0  0
 19  5  1  0  0  0  0
 20  6  1  0  0  0  0
 21 12  1  0  0  0  0
 22 14  1  0  0  0  0
 12 14  2  0  0  0  0
  4  6  1  0  0  0  0
M  END
> <IDNUMBER>
F3316-0240

> <Chemical_Name>
N-[2-(4-chloro-3,5-dimethyl-1H-pyrazol-1-yl)ethyl]-3,4-dimethylbenzene-1-sulfonamide

> <CAS>
1014072-54-8

> <PriceCoeff>
1.00

> <MW>
341.86

> <Description>
solid

> <FSP3>
0.40

> <clogP>
3.57

> <TPSA>
72.37

> <Acceptor>
3

> <Donor>
1

> <RotBonds>
5

> <HAC>
22

> <Collection>
General

$$$$
F6064-3285
  -ISIS-  06222321152D

 29 32  0  0  0  0  0  0  0  0999 V2000
   -5.2958    2.5708    0.0000 N   0  0  3  0  0  0  0  0  0  0  0  0
   -1.3750    4.8667    0.0000 N   0  0  0  0  0  0  0  0  0  0  0  0
   -2.1333    5.2042    0.0000 C   0  0  0  0  0  0  0  0  0  0  0  0
   -0.8250    5.4792    0.0000 C   0  0  0  0  0  0  0  0  0  0  0  0
   -3.8625    4.2125    0.0000 N   0  0  3  0  0  0  0  0  0  0  0  0
   -1.2333    6.2000    0.0000 N   0  0  0  0  0  0  0  0  0  0  0  0
   -2.8458    4.7917    0.0000 C   0  0  3  0  0  0  0  0  0  0  0  0
   -4.5833    3.8083    0.0000 C   0  0  0  0  0  0  0  0  0  0  0  0
   -4.5833    2.9958    0.0000 C   0  0  0  0  0  0  0  0  0  0  0  0
    1.4917    3.8000    0.0000 C   0  0  3  0  0  0  0  0  0  0  0  0
   -2.0375    6.0250    0.0000 O   0  0  0  0  0  0  0  0  0  0  0  0
   -5.3750    1.7458    0.0000 C   0  0  0  0  0  0  0  0  0  0  0  0
   -6.0292    2.9083    0.0000 C   0  0  0  0  0  0  0  0  0  0  0  0
   -3.6458    5.0125    0.0000 C   0  0  0  0  0  0  0  0  0  0  0  0
   -3.0625    4.0000    0.0000 C   0  0  0  0  0  0  0  0  0  0  0  0
    0.0042    5.3917    0.0000 C   0  0  0  0  0  0  0  0  0  0  0  0
    1.1542    4.5417    0.0000 C   0  0  0  0  0  0  0  0  0  0  0  0
    0.3292    4.6375    0.0000 C   0  0  0  0  0  0  0  0  0  0  0  0
   -5.2958    4.2167    0.0000 O   0  0  0  0  0  0  0  0  0  0  0  0
   -6.5875    2.2958    0.0000 C   0  0  0  0  0  0  0  0  0  0  0  0
   -6.1667    1.5750    0.0000 C   0  0  0  0  0  0  0  0  0  0  0  0
   -6.2042    3.7208    0.0000 O   0  0  0  0  0  0  0  0  0  0  0  0
   -4.7583    1.1875    0.0000 O   0  0  0  0  0  0  0  0  0  0  0  0
    1.1042    3.0333    0.0000 F   0  0  0  0  0  0  0  0  0  0  0  0
    2.3292    3.5708    0.0000 F   0  0  0  0  0  0  0  0  0  0  0  0
    1.7917    3.1125    0.0000 F   0  0  0  0  0  0  0  0  0  0  0  0
    1.6500    5.2167    0.0000 C   0  0  0  0  0  0  0  0  0  0  0  0
    0.4875    6.0625    0.0000 C   0  0  0  0  0  0  0  0  0  0  0  0
    1.3042    5.9792    0.0000 C   0  0  0  0  0  0  0  0  0  0  0  0
  2  3  2  0  0  0  0
  3  7  1  0  0  0  0
  4  2  1  0  0  0  0
  5  8  1  0  0  0  0
  6 11  1  0  0  0  0
  7 15  1  0  0  0  0
  8  9  1  0  0  0  0
  9  1  1  0  0  0  0
 10 17  1  0  0  0  0
 11  3  1  0  0  0  0
 12  1  1  0  0  0  0
 13  1  1  0  0  0  0
 14  5  1  0  0  0  0
 15  5  1  0  0  0  0
 16  4  1  0  0  0  0
 17 18  1  0  0  0  0
 18 16  2  0  0  0  0
 19  8  2  0  0  0  0
 20 13  1  0  0  0  0
 21 12  1  0  0  0  0
 22 13  2  0  0  0  0
 23 12  2  0  0  0  0
 24 10  1  0  0  0  0
 25 10  1  0  0  0  0
 26 10  1  0  0  0  0
 27 29  1  0  0  0  0
 28 16  1  0  0  0  0
 29 28  2  0  0  0  0
 20 21  1  0  0  0  0
  7 14  1  0  0  0  0
  4  6  2  0  0  0  0
 17 27  2  0  0  0  0
M  END
> <IDNUMBER>
F6064-3285

> <Chemical_Name>
1-[2-oxo-2-(3-{3-[3-(trifluoromethyl)phenyl]-1,2,4-oxadiazol-5-yl}azetidin-1-yl)ethyl]pyrrolidine-2,5-dione

> <CAS>
1396843-19-8

> <PriceCoeff>
1.00

> <MW>
408.33

> <Description>
solid

> <FSP3>
0.39

> <clogP>
0.65

> <TPSA>
96.61

> <Acceptor>
6

> <Donor>
0

> <RotBonds>
5

> <HAC>
29

> <Collection>
General

$$$$
F3083-0114
  -ISIS-  06222321462D

 23 24  0  0  0  0  0  0  0  0999 V2000
    2.1167  -17.1292    0.0000 N   0  0  3  0  0  0  0  0  0  0  0  0
    1.3750  -17.4917    0.0000 N   0  0  0  0  0  0  0  0  0  0  0  0
    2.0042  -16.3167    0.0000 C   0  0  0  0  0  0  0  0  0  0  0  0
    1.1917  -16.1667    0.0000 C   0  0  0  0  0  0  0  0  0  0  0  0
    0.8000  -16.8917    0.0000 C   0  0  0  0  0  0  0  0  0  0  0  0
    2.8500  -17.5292    0.0000 C   0  0  0  0  0  0  0  0  0  0  0  0
    7.1667  -20.8000    0.0000 C   0  0  0  0  0  0  0  0  0  0  0  0
    7.1750  -19.9750    0.0000 N   0  0  0  0  0  0  0  0  0  0  0  0
    0.8375  -15.4167    0.0000 Br  0  0  0  0  0  0  0  0  0  0  0  0
    6.4542  -21.2042    0.0000 O   0  0  0  0  0  0  0  0  0  0  0  0
    3.5500  -17.0917    0.0000 C   0  0  3  0  0  0  0  0  0  0  0  0
    6.4625  -19.5625    0.0000 C   0  0  0  0  0  0  0  0  0  0  0  0
    4.3125  -18.3292    0.0000 O   0  0  0  0  0  0  0  0  0  0  0  0
    5.0375  -18.7417    0.0000 C   0  0  0  0  0  0  0  0  0  0  0  0
    2.6042  -15.7417    0.0000 C   0  0  0  0  0  0  0  0  0  0  0  0
    4.2875  -17.4792    0.0000 C   0  0  0  0  0  0  0  0  0  0  0  0
   -0.0208  -17.0000    0.0000 C   0  0  0  0  0  0  0  0  0  0  0  0
    6.4625  -18.7417    0.0000 C   0  0  0  0  0  0  0  0  0  0  0  0
    5.7417  -19.9750    0.0000 C   0  0  0  0  0  0  0  0  0  0  0  0
    5.0375  -19.5625    0.0000 C   0  0  0  0  0  0  0  0  0  0  0  0
    5.7417  -18.3292    0.0000 C   0  0  0  0  0  0  0  0  0  0  0  0
    3.5250  -16.2667    0.0000 O   0  0  0  0  0  0  0  0  0  0  0  0
    7.8792  -21.2125    0.0000 C   0  0  0  0  0  0  0  0  0  0  0  0
  2  1  1  0  0  0  0
  3  1  1  0  0  0  0
  4  3  2  0  0  0  0
  5  2  2  0  0  0  0
  6  1  1  0  0  0  0
  7  8  1  0  0  0  0
  8 12  1  0  0  0  0
  9  4  1  0  0  0  0
 10  7  2  0  0  0  0
 11  6  1  0  0  0  0
 12 18  1  0  0  0  0
 13 16  1  0  0  0  0
 14 13  1  0  0  0  0
 15  3  1  0  0  0  0
 16 11  1  0  0  0  0
 17  5  1  0  0  0  0
 18 21  2  0  0  0  0
 19 20  1  0  0  0  0
 20 14  2  0  0  0  0
 21 14  1  0  0  0  0
 22 11  1  0  0  0  0
 23  7  1  0  0  0  0
  5  4  1  0  0  0  0
 12 19  2  0  0  0  0
M  END
> <IDNUMBER>
F3083-0114

> <Chemical_Name>
N-{4-[3-(4-bromo-3,5-dimethyl-1H-pyrazol-1-yl)-2-hydroxypropoxy]phenyl}acetamide

> <CAS>
890605-06-8

> <PriceCoeff>
1.00

> <MW>
382.25

> <Description>
solid

> <FSP3>
0.38

> <clogP>
1.97

> <TPSA>
76.38

> <Acceptor>
4

> <Donor>
2

> <RotBonds>
6

> <HAC>
23

> <Collection>
General

$$$$
F6064-2776
  -ISIS-  06222321462D

 26 29  0  0  0  0  0  0  0  0999 V2000
   -5.2875    2.5708    0.0000 N   0  0  3  0  0  0  0  0  0  0  0  0
   -1.3833    4.8750    0.0000 N   0  0  0  0  0  0  0  0  0  0  0  0
   -2.1375    5.2042    0.0000 C   0  0  0  0  0  0  0  0  0  0  0  0
   -0.8250    5.4917    0.0000 C   0  0  0  0  0  0  0  0  0  0  0  0
   -3.8625    4.2125    0.0000 N   0  0  3  0  0  0  0  0  0  0  0  0
   -1.2458    6.2042    0.0000 N   0  0  0  0  0  0  0  0  0  0  0  0
   -2.8500    4.7917    0.0000 C   0  0  3  0  0  0  0  0  0  0  0  0
   -4.5833    3.8083    0.0000 C   0  0  0  0  0  0  0  0  0  0  0  0
   -4.5833    2.9875    0.0000 C   0  0  0  0  0  0  0  0  0  0  0  0
   -2.0458    6.0292    0.0000 O   0  0  0  0  0  0  0  0  0  0  0  0
   -5.3708    1.7458    0.0000 C   0  0  0  0  0  0  0  0  0  0  0  0
   -6.0292    2.9000    0.0000 C   0  0  0  0  0  0  0  0  0  0  0  0
   -3.0625    4.0000    0.0000 C   0  0  0  0  0  0  0  0  0  0  0  0
   -3.6458    5.0042    0.0000 C   0  0  0  0  0  0  0  0  0  0  0  0
    0.0000    5.4042    0.0000 C   0  0  0  0  0  0  0  0  0  0  0  0
   -5.2958    4.2125    0.0000 O   0  0  0  0  0  0  0  0  0  0  0  0
   -6.5792    2.2833    0.0000 C   0  0  0  0  0  0  0  0  0  0  0  0
   -6.1667    1.5708    0.0000 C   0  0  0  0  0  0  0  0  0  0  0  0
   -6.2042    3.7083    0.0000 O   0  0  0  0  0  0  0  0  0  0  0  0
   -4.7500    1.1833    0.0000 O   0  0  0  0  0  0  0  0  0  0  0  0
    0.3375    4.6542    0.0000 C   0  0  0  0  0  0  0  0  0  0  0  0
    1.1542    4.5667    0.0000 C   0  0  0  0  0  0  0  0  0  0  0  0
    1.4917    3.8208    0.0000 Cl  0  0  0  0  0  0  0  0  0  0  0  0
    0.4792    6.0792    0.0000 C   0  0  0  0  0  0  0  0  0  0  0  0
    1.3042    5.9917    0.0000 C   0  0  0  0  0  0  0  0  0  0  0  0
    1.6417    5.2292    0.0000 C   0  0  0  0  0  0  0  0  0  0  0  0
  2  3  2  0  0  0  0
  3  7  1  0  0  0  0
  4  2  1  0  0  0  0
  5  8  1  0  0  0  0
  6 10  1  0  0  0  0
  7 14  1  0  0  0  0
  8  9  1  0  0  0  0
  9  1  1  0  0  0  0
 10  3  1  0  0  0  0
 11  1  1  0  0  0  0
 12  1  1  0  0  0  0
 13  5  1  0  0  0  0
 14  5  1  0  0  0  0
 15  4  1  0  0  0  0
 16  8  2  0  0  0  0
 17 12  1  0  0  0  0
 18 11  1  0  0  0  0
 19 12  2  0  0  0  0
 20 11  2  0  0  0  0
 21 15  2  0  0  0  0
 22 21  1  0  0  0  0
 23 22  1  0  0  0  0
 24 15  1  0  0  0  0
 25 24  2  0  0  0  0
 26 25  1  0  0  0  0
 17 18  1  0  0  0  0
 13  7  1  0  0  0  0
  4  6  2  0  0  0  0
 22 26  2  0  0  0  0
M  END
> <IDNUMBER>
F6064-2776

> <Chemical_Name>
1-(2-{3-[3-(3-chlorophenyl)-1,2,4-oxadiazol-5-yl]azetidin-1-yl}-2-oxoethyl)pyrrolidine-2,5-dione

> <CAS>
1351599-88-6

> <PriceCoeff>
1.00

> <MW>
374.78

> <Description>
solid

> <FSP3>
0.35

> <clogP>
0.48

> <TPSA>
96.61

> <Acceptor>
6

> <Donor>
0

> <RotBonds>
5

> <HAC>
26

> <Collection>
General

$$$$
F5381-0001
  -ISIS-  06222321442D

 25 27  0  0  0  0  0  0  0  0999 V2000
   -3.1375    4.2167    0.0000 S   0  0  3  0  0  0  0  0  0  0  0  0
   -0.9583    4.6375    0.0000 N   0  0  3  0  0  0  0  0  0  0  0  0
   -3.8625    3.8000    0.0000 N   0  0  3  0  0  0  0  0  0  0  0  0
   -2.4125    4.6417    0.0000 C   0  0  0  0  0  0  0  0  0  0  0  0
   -0.2250    4.2167    0.0000 C   0  0  0  0  0  0  0  0  0  0  0  0
   -0.9500    5.4667    0.0000 C   0  0  0  0  0  0  0  0  0  0  0  0
   -5.3208    2.9625    0.0000 N   0  0  3  0  0  0  0  0  0  0  0  0
   -1.6875    4.2125    0.0000 C   0  0  0  0  0  0  0  0  0  0  0  0
   -4.5958    4.2167    0.0000 C   0  0  0  0  0  0  0  0  0  0  0  0
   -3.8625    2.9708    0.0000 C   0  0  0  0  0  0  0  0  0  0  0  0
   -3.5500    4.9417    0.0000 O   0  0  0  0  0  0  0  0  0  0  0  0
   -2.7083    3.5000    0.0000 O   0  0  0  0  0  0  0  0  0  0  0  0
   -4.5958    2.5458    0.0000 C   0  0  0  0  0  0  0  0  0  0  0  0
   -5.3208    3.8125    0.0000 C   0  0  0  0  0  0  0  0  0  0  0  0
   -1.6833    5.8917    0.0000 O   0  0  0  0  0  0  0  0  0  0  0  0
   -0.2333    3.3833    0.0000 O   0  0  0  0  0  0  0  0  0  0  0  0
   -6.0417    2.5583    0.0000 C   0  0  0  0  0  0  0  0  0  0  0  0
   -0.2333    5.8917    0.0000 C   0  0  0  0  0  0  0  0  0  0  0  0
    0.5042    4.6375    0.0000 C   0  0  0  0  0  0  0  0  0  0  0  0
    0.4917    5.4667    0.0000 C   0  0  0  0  0  0  0  0  0  0  0  0
   -6.7667    2.9833    0.0000 C   0  0  0  0  0  0  0  0  0  0  0  0
   -6.0417    1.7208    0.0000 C   0  0  0  0  0  0  0  0  0  0  0  0
   -6.7667    1.3000    0.0000 C   0  0  0  0  0  0  0  0  0  0  0  0
   -7.5000    2.5625    0.0000 C   0  0  0  0  0  0  0  0  0  0  0  0
   -7.5042    1.7208    0.0000 C   0  0  0  0  0  0  0  0  0  0  0  0
  2  8  1  0  0  0  0
  3  1  1  0  0  0  0
  4  1  1  0  0  0  0
  5  2  1  0  0  0  0
  6  2  1  0  0  0  0
  7 13  1  0  0  0  0
  8  4  1  0  0  0  0
  9  3  1  0  0  0  0
 10  3  1  0  0  0  0
 11  1  2  0  0  0  0
 12  1  2  0  0  0  0
 13 10  1  0  0  0  0
 14  9  1  0  0  0  0
 15  6  2  0  0  0  0
 16  5  2  0  0  0  0
 17  7  1  0  0  0  0
 18  6  1  0  0  0  0
 19  5  1  0  0  0  0
 20 18  1  0  0  0  0
 21 17  2  0  0  0  0
 22 17  1  0  0  0  0
 23 22  2  0  0  0  0
 24 21  1  0  0  0  0
 25 23  1  0  0  0  0
  7 14  1  0  0  0  0
 20 19  1  0  0  0  0
 24 25  2  0  0  0  0
M  END
> <IDNUMBER>
F5381-0001

> <Chemical_Name>
1-{2-[(4-phenylpiperazin-1-yl)sulfonyl]ethyl}piperidine-2,6-dione

> <CAS>
1040674-39-2

> <PriceCoeff>
1.00

> <MW>
365.45

> <Description>
solid

> <FSP3>
0.53

> <clogP>
2.12

> <TPSA>
86.38

> <Acceptor>
5

> <Donor>
1

> <RotBonds>
5

> <HAC>
25

> <Collection>
General

$$$$
F6374-5610
  -ISIS-  06222321442D

 27 29  0  0  0  0  0  0  0  0999 V2000
   -3.8708    3.8000    0.0000 S   0  0  3  0  0  0  0  0  0  0  0  0
   -6.0042    3.4458    0.0000 N   0  0  3  0  0  0  0  0  0  0  0  0
   -3.1583    4.2042    0.0000 N   0  0  3  0  0  0  0  0  0  0  0  0
   -4.5917    3.4083    0.0000 C   0  0  0  0  0  0  0  0  0  0  0  0
   -6.0250    2.6208    0.0000 C   0  0  0  0  0  0  0  0  0  0  0  0
   -6.7042    3.8750    0.0000 C   0  0  0  0  0  0  0  0  0  0  0  0
   -5.2833    3.8333    0.0000 C   0  0  0  0  0  0  0  0  0  0  0  0
   -3.4750    3.0833    0.0000 O   0  0  0  0  0  0  0  0  0  0  0  0
   -4.0708    4.6042    0.0000 O   0  0  0  0  0  0  0  0  0  0  0  0
   -0.2750    7.5042    0.0000 C   0  0  0  0  0  0  0  0  0  0  0  0
   -0.8833    8.0667    0.0000 O   0  0  0  0  0  0  0  0  0  0  0  0
   -3.1583    5.0292    0.0000 C   0  0  0  0  0  0  0  0  0  0  0  0
   -2.4458    3.8083    0.0000 C   0  0  0  0  0  0  0  0  0  0  0  0
   -5.3208    2.1875    0.0000 O   0  0  0  0  0  0  0  0  0  0  0  0
   -6.6875    4.6917    0.0000 O   0  0  0  0  0  0  0  0  0  0  0  0
    0.4417    7.9083    0.0000 C   0  0  0  0  0  0  0  0  0  0  0  0
   -0.5333    8.8042    0.0000 C   0  0  0  0  0  0  0  0  0  0  0  0
    0.2792    8.7167    0.0000 C   0  0  0  0  0  0  0  0  0  0  0  0
   -1.0083    6.2750    0.0000 S   0  0  0  0  0  0  0  0  0  0  0  0
   -1.7333    4.2167    0.0000 C   0  0  0  0  0  0  0  0  0  0  0  0
   -2.4458    5.4417    0.0000 C   0  0  0  0  0  0  0  0  0  0  0  0
   -6.7417    2.2250    0.0000 C   0  0  0  0  0  0  0  0  0  0  0  0
   -7.4167    3.4792    0.0000 C   0  0  0  0  0  0  0  0  0  0  0  0
   -0.2875    6.6792    0.0000 C   0  0  0  0  0  0  0  0  0  0  0  0
   -1.7333    5.0333    0.0000 C   0  0  3  0  0  0  0  0  0  0  0  0
   -7.4417    2.6583    0.0000 C   0  0  0  0  0  0  0  0  0  0  0  0
   -1.0083    5.4417    0.0000 C   0  0  0  0  0  0  0  0  0  0  0  0
  2  7  1  0  0  0  0
  3  1  1  0  0  0  0
  4  1  1  0  0  0  0
  5  2  1  0  0  0  0
  6  2  1  0  0  0  0
  7  4  1  0  0  0  0
  8  1  2  0  0  0  0
  9  1  2  0  0  0  0
 10 24  1  0  0  0  0
 11 10  1  0  0  0  0
 12  3  1  0  0  0  0
 13  3  1  0  0  0  0
 14  5  2  0  0  0  0
 15  6  2  0  0  0  0
 16 10  2  0  0  0  0
 17 11  1  0  0  0  0
 18 16  1  0  0  0  0
 19 27  1  0  0  0  0
 20 13  1  0  0  0  0
 21 12  1  0  0  0  0
 22  5  1  0  0  0  0
 23  6  1  0  0  0  0
 24 19  1  0  0  0  0
 25 20  1  0  0  0  0
 26 23  1  0  0  0  0
 27 25  1  0  0  0  0
 21 25  1  0  0  0  0
 22 26  1  0  0  0  0
 17 18  2  0  0  0  0
M  END
> <IDNUMBER>
F6374-5610

> <Chemical_Name>
1-(2-{[4-({[(furan-2-yl)methyl]sulfanyl}methyl)piperidin-1-yl]sulfonyl}ethyl)piperidine-2,6-dione

> <CAS>
1396772-53-4

> <PriceCoeff>
1.00

> <MW>
414.54

> <Description>
oil

> <FSP3>
0.67

> <clogP>
2.46

> <TPSA>
121.58

> <Acceptor>
5

> <Donor>
0

> <RotBonds>
8

> <HAC>
27

> <Collection>
General

$$$$
F0017-0646
  -ISIS-  06222321142D

 21 23  0  0  0  0  0  0  0  0999 V2000
   -0.6125   -1.8042    0.0000 C   0  0  0  0  0  0  0  0  0  0  0  0
   -0.6125   -0.7875    0.0000 C   0  0  0  0  0  0  0  0  0  0  0  0
   -1.4708   -2.3042    0.0000 N   0  0  3  0  0  0  0  0  0  0  0  0
   -2.3500   -1.7875    0.0000 C   0  0  0  0  0  0  0  0  0  0  0  0
   -2.3500   -0.8042    0.0000 N   0  0  0  0  0  0  0  0  0  0  0  0
    0.3667   -2.1042    0.0000 N   0  0  0  0  0  0  0  0  0  0  0  0
   -1.4708   -0.2875    0.0000 C   0  0  0  0  0  0  0  0  0  0  0  0
    0.3667   -0.4875    0.0000 N   0  0  3  0  0  0  0  0  0  0  0  0
    0.9500   -1.2875    0.0000 C   0  0  0  0  0  0  0  0  0  0  0  0
   -3.2500   -2.2875    0.0000 O   0  0  0  0  0  0  0  0  0  0  0  0
   -1.4708    0.7333    0.0000 O   0  0  0  0  0  0  0  0  0  0  0  0
   -1.4708   -3.3042    0.0000 C   0  0  0  0  0  0  0  0  0  0  0  0
    2.0292    1.6500    0.0000 N   0  0  0  0  0  0  0  0  0  0  0  0
    0.6875    0.4958    0.0000 C   0  0  0  0  0  0  0  0  0  0  0  0
    3.0042    1.8458    0.0000 C   0  0  0  0  0  0  0  0  0  0  0  0
    1.6875    0.6958    0.0000 C   0  0  0  0  0  0  0  0  0  0  0  0
    3.6792    1.0958    0.0000 C   0  0  0  0  0  0  0  0  0  0  0  0
    3.3167    2.8000    0.0000 C   0  0  0  0  0  0  0  0  0  0  0  0
    4.3167    3.0208    0.0000 C   0  0  0  0  0  0  0  0  0  0  0  0
    4.6792    1.2958    0.0000 C   0  0  0  0  0  0  0  0  0  0  0  0
    5.0000    2.2500    0.0000 C   0  0  0  0  0  0  0  0  0  0  0  0
  2  1  2  0  0  0  0
  3  1  1  0  0  0  0
  4  3  1  0  0  0  0
  5  4  1  0  0  0  0
  6  1  1  0  0  0  0
  7  2  1  0  0  0  0
  8  2  1  0  0  0  0
  9  6  2  0  0  0  0
 10  4  2  0  0  0  0
 11  7  2  0  0  0  0
 12  3  1  0  0  0  0
 13 16  1  0  0  0  0
 14  8  1  0  0  0  0
 15 13  1  0  0  0  0
 16 14  1  0  0  0  0
 17 15  2  0  0  0  0
 18 15  1  0  0  0  0
 19 18  2  0  0  0  0
 20 17  1  0  0  0  0
 21 19  1  0  0  0  0
  8  9  1  0  0  0  0
  5  7  1  0  0  0  0
 20 21  2  0  0  0  0
M  END
> <IDNUMBER>
F0017-0646

> <Chemical_Name>
3-methyl-7-[2-(phenylamino)ethyl]-2,3,6,7-tetrahydro-1H-purine-2,6-dione

> <CAS>
383880-08-8

> <PriceCoeff>
1.00

> <MW>
285.30

> <Description>
solid

> <FSP3>
0.21

> <clogP>
0.76

> <TPSA>
123.02

> <Acceptor>
4

> <Donor>
3

> <RotBonds>
4

> <HAC>
21

> <Collection>
General

> <Reference_compound>
CHEMBL113

> <Similarity>
0.8050

$$$$
F3083-0108
  -ISIS-  06222321152D

 22 24  0  0  0  0  0  0  0  0999 V2000
    0.6750  -14.0417    0.0000 N   0  0  3  0  0  0  0  0  0  0  0  0
   -0.0625  -14.4000    0.0000 N   0  0  0  0  0  0  0  0  0  0  0  0
    0.5667  -13.2250    0.0000 C   0  0  0  0  0  0  0  0  0  0  0  0
   -0.2458  -13.0792    0.0000 C   0  0  0  0  0  0  0  0  0  0  0  0
   -0.6333  -13.8042    0.0000 C   0  0  0  0  0  0  0  0  0  0  0  0
    1.4042  -14.4375    0.0000 C   0  0  0  0  0  0  0  0  0  0  0  0
    4.3000  -16.8875    0.0000 C   0  0  0  0  0  0  0  0  0  0  0  0
    5.0167  -16.4750    0.0000 C   0  0  0  0  0  0  0  0  0  0  0  0
    3.5917  -16.4750    0.0000 C   0  0  0  0  0  0  0  0  0  0  0  0
   -0.6083  -12.3292    0.0000 Br  0  0  0  0  0  0  0  0  0  0  0  0
    2.1042  -14.0042    0.0000 C   0  0  3  0  0  0  0  0  0  0  0  0
    5.0167  -15.6542    0.0000 C   0  0  0  0  0  0  0  0  0  0  0  0
    3.5917  -15.6542    0.0000 C   0  0  0  0  0  0  0  0  0  0  0  0
    2.8667  -15.2375    0.0000 O   0  0  0  0  0  0  0  0  0  0  0  0
    1.1667  -12.6542    0.0000 C   0  0  0  0  0  0  0  0  0  0  0  0
    2.8417  -14.4000    0.0000 C   0  0  0  0  0  0  0  0  0  0  0  0
    4.3000  -15.2375    0.0000 C   0  0  0  0  0  0  0  0  0  0  0  0
   -1.4500  -13.9167    0.0000 C   0  0  0  0  0  0  0  0  0  0  0  0
    2.0792  -13.1750    0.0000 O   0  0  0  0  0  0  0  0  0  0  0  0
    4.4625  -17.6917    0.0000 C   0  0  0  0  0  0  0  0  0  0  0  0
    5.2875  -17.7875    0.0000 C   0  0  0  0  0  0  0  0  0  0  0  0
    5.6292  -17.0292    0.0000 C   0  0  0  0  0  0  0  0  0  0  0  0
  2  1  1  0  0  0  0
  3  1  1  0  0  0  0
  4  3  2  0  0  0  0
  5  2  2  0  0  0  0
  6  1  1  0  0  0  0
  7  9  1  0  0  0  0
  8 12  1  0  0  0  0
  9 13  2  0  0  0  0
 10  4  1  0  0  0  0
 11  6  1  0  0  0  0
 12 17  2  0  0  0  0
 13 14  1  0  0  0  0
 14 16  1  0  0  0  0
 15  3  1  0  0  0  0
 16 11  1  0  0  0  0
 17 13  1  0  0  0  0
 18  5  1  0  0  0  0
 19 11  1  0  0  0  0
 20  7  1  0  0  0  0
 21 20  1  0  0  0  0
 22  8  1  0  0  0  0
  5  4  1  0  0  0  0
  7  8  2  0  0  0  0
 22 21  1  0  0  0  0
M  END
> <IDNUMBER>
F3083-0108

> <Chemical_Name>
1-(4-bromo-3,5-dimethyl-1H-pyrazol-1-yl)-3-(2,3-dihydro-1H-inden-5-yloxy)propan-2-ol

> <CAS>
890604-88-3

> <PriceCoeff>
1.00

> <MW>
365.26

> <Description>
solid

> <FSP3>
0.47

> <clogP>
3.80

> <TPSA>
47.28

> <Acceptor>
3

> <Donor>
1

> <RotBonds>
5

> <HAC>
22

> <Collection>
General

$$$$
F6469-1740
  -ISIS-  06222321152D

 26 29  0  0  0  0  0  0  0  0999 V2000
    2.4917   -2.8042    0.0000 N   0  0  3  0  0  0  0  0  0  0  0  0
    6.2500   -2.3917    0.0000 C   0  0  0  0  0  0  0  0  0  0  0  0
    6.1375   -3.1917    0.0000 N   0  0  0  0  0  0  0  0  0  0  0  0
    7.4417   -2.9875    0.0000 N   0  0  3  0  0  0  0  0  0  0  0  0
    6.8625   -3.5667    0.0000 C   0  0  0  0  0  0  0  0  0  0  0  0
    7.0667   -2.2625    0.0000 C   0  0  0  0  0  0  0  0  0  0  0  0
    1.7917   -2.3792    0.0000 C   0  0  0  0  0  0  0  0  0  0  0  0
    2.3042   -3.6042    0.0000 C   0  0  0  0  0  0  0  0  0  0  0  0
    5.6375   -1.8375    0.0000 C   0  0  0  0  0  0  0  0  0  0  0  0
    4.8542   -2.0875    0.0000 C   0  0  0  0  0  0  0  0  0  0  0  0
    3.8792   -3.1292    0.0000 C   0  0  0  0  0  0  0  0  0  0  0  0
    4.6667   -2.8917    0.0000 N   0  0  0  0  0  0  0  0  0  0  0  0
    3.2792   -2.5667    0.0000 C   0  0  0  0  0  0  0  0  0  0  0  0
    8.2292   -3.2000    0.0000 C   0  0  0  0  0  0  0  0  0  0  0  0
    7.0750   -4.3542    0.0000 C   0  0  0  0  0  0  0  0  0  0  0  0
    1.1667   -2.9292    0.0000 C   0  0  0  0  0  0  0  0  0  0  0  0
    1.4792   -3.6750    0.0000 C   0  0  0  0  0  0  0  0  0  0  0  0
    1.7250   -1.5542    0.0000 O   0  0  0  0  0  0  0  0  0  0  0  0
    2.8417   -4.2375    0.0000 O   0  0  0  0  0  0  0  0  0  0  0  0
    3.7000   -3.9292    0.0000 O   0  0  0  0  0  0  0  0  0  0  0  0
    8.4417   -4.0000    0.0000 C   0  0  0  0  0  0  0  0  0  0  0  0
    7.8750   -4.5667    0.0000 C   0  0  0  0  0  0  0  0  0  0  0  0
    5.8167   -1.0292    0.0000 C   0  0  0  0  0  0  0  0  0  0  0  0
    4.2500   -1.5292    0.0000 C   0  0  0  0  0  0  0  0  0  0  0  0
    5.2042   -0.4792    0.0000 C   0  0  0  0  0  0  0  0  0  0  0  0
    4.4292   -0.7375    0.0000 C   0  0  0  0  0  0  0  0  0  0  0  0
  2  9  1  0  0  0  0
  3  2  1  0  0  0  0
  4  6  1  0  0  0  0
  5  3  2  0  0  0  0
  6  2  2  0  0  0  0
  7  1  1  0  0  0  0
  8  1  1  0  0  0  0
  9 10  1  0  0  0  0
 10 12  1  0  0  0  0
 11 13  1  0  0  0  0
 12 11  1  0  0  0  0
 13  1  1  0  0  0  0
 14  4  1  0  0  0  0
 15  5  1  0  0  0  0
 16  7  1  0  0  0  0
 17  8  1  0  0  0  0
 18  7  2  0  0  0  0
 19  8  2  0  0  0  0
 20 11  2  0  0  0  0
 21 14  2  0  0  0  0
 22 15  2  0  0  0  0
 23  9  2  0  0  0  0
 24 10  2  0  0  0  0
 25 26  2  0  0  0  0
 26 24  1  0  0  0  0
 16 17  1  0  0  0  0
 23 25  1  0  0  0  0
  5  4  1  0  0  0  0
 22 21  1  0  0  0  0
M  END
> <IDNUMBER>
F6469-1740

> <Chemical_Name>
2-(2,5-dioxopyrrolidin-1-yl)-N-(2-{imidazo[1,2-a]pyridin-2-yl}phenyl)acetamide

> <CAS>
1797642-67-1

> <PriceCoeff>
1.00

> <MW>
348.36

> <Description>
solid

> <FSP3>
0.16

> <clogP>
1.11

> <TPSA>
83.78

> <Acceptor>
4

> <Donor>
1

> <RotBonds>
4

> <HAC>
26

> <Collection>
General

$$$$
F6244-3126
  -ISIS-  06222321462D

 28 30  0  0  0  0  0  0  0  0999 V2000
   -1.7708    0.5125    0.0000 N   0  0  3  0  0  0  0  0  0  0  0  0
   -1.0083    2.5583    0.0000 S   0  0  3  0  0  0  0  0  0  0  0  0
   -2.5000    0.1208    0.0000 C   0  0  0  0  0  0  0  0  0  0  0  0
   -1.0625    0.0833    0.0000 C   0  0  0  0  0  0  0  0  0  0  0  0
   -1.0250    1.7333    0.0000 C   0  0  0  0  0  0  0  0  0  0  0  0
   -1.7458    1.3458    0.0000 C   0  0  0  0  0  0  0  0  0  0  0  0
   -4.5833    2.9583    0.0000 N   0  0  3  0  0  0  0  0  0  0  0  0
   -3.1500    2.9583    0.0000 C   0  0  0  0  0  0  0  0  0  0  0  0
   -2.4375    3.3750    0.0000 C   0  0  0  0  0  0  0  0  0  0  0  0
   -0.1833    2.5458    0.0000 O   0  0  0  0  0  0  0  0  0  0  0  0
   -1.8083    2.7958    0.0000 O   0  0  0  0  0  0  0  0  0  0  0  0
   -6.0125    2.9542    0.0000 C   0  0  0  0  0  0  0  0  0  0  0  0
   -5.3000    2.5458    0.0000 C   0  0  0  0  0  0  0  0  0  0  0  0
   -1.0083    3.3833    0.0000 N   0  0  0  0  0  0  0  0  0  0  0  0
   -6.0125    3.7833    0.0000 C   0  0  0  0  0  0  0  0  0  0  0  0
   -0.3333    0.4833    0.0000 O   0  0  0  0  0  0  0  0  0  0  0  0
   -3.2083    0.5500    0.0000 O   0  0  0  0  0  0  0  0  0  0  0  0
   -5.3083    4.2000    0.0000 C   0  0  0  0  0  0  0  0  0  0  0  0
   -4.5833    3.7958    0.0000 C   0  0  0  0  0  0  0  0  0  0  0  0
   -3.8625    2.5458    0.0000 C   0  0  0  0  0  0  0  0  0  0  0  0
   -1.7250    3.7958    0.0000 C   0  0  0  0  0  0  0  0  0  0  0  0
   -1.0833   -0.7375    0.0000 C   0  0  0  0  0  0  0  0  0  0  0  0
   -2.5083   -0.7000    0.0000 C   0  0  0  0  0  0  0  0  0  0  0  0
   -1.8083   -1.1292    0.0000 C   0  0  0  0  0  0  0  0  0  0  0  0
   -6.7167    2.5458    0.0000 C   0  0  0  0  0  0  0  0  0  0  0  0
   -6.7292    4.1792    0.0000 C   0  0  0  0  0  0  0  0  0  0  0  0
   -7.4292    2.9542    0.0000 C   0  0  0  0  0  0  0  0  0  0  0  0
   -7.4375    3.7750    0.0000 C   0  0  0  0  0  0  0  0  0  0  0  0
  2  5  1  0  0  0  0
  3  1  1  0  0  0  0
  4  1  1  0  0  0  0
  5  6  1  0  0  0  0
  6  1  1  0  0  0  0
  7 20  1  0  0  0  0
  8  9  3  0  0  0  0
  9 21  1  0  0  0  0
 10  2  2  0  0  0  0
 11  2  2  0  0  0  0
 12 13  1  0  0  0  0
 13  7  1  0  0  0  0
 14  2  1  0  0  0  0
 15 18  1  0  0  0  0
 16  4  2  0  0  0  0
 17  3  2  0  0  0  0
 18 19  1  0  0  0  0
 19  7  1  0  0  0  0
 20  8  1  0  0  0  0
 21 14  1  0  0  0  0
 22  4  1  0  0  0  0
 23  3  1  0  0  0  0
 24 22  1  0  0  0  0
 25 12  2  0  0  0  0
 26 15  2  0  0  0  0
 27 25  1  0  0  0  0
 28 26  1  0  0  0  0
 24 23  1  0  0  0  0
 15 12  1  0  0  0  0
 28 27  2  0  0  0  0
M  END
> <IDNUMBER>
F6244-3126

> <Chemical_Name>
2-(2,6-dioxopiperidin-1-yl)-N-[4-(1,2,3,4-tetrahydroisoquinolin-2-yl)but-2-yn-1-yl]ethane-1-sulfonamide

> <CAS>
1396803-16-9

> <PriceCoeff>
1.50

> <MW>
403.50

> <Description>
solid

> <FSP3>
0.50

> <clogP>
2.38

> <TPSA>
95.17

> <Acceptor>
4

> <Donor>
2

> <RotBonds>
7

> <HAC>
28

> <Collection>
Advanced

$$$$
F1913-9284
  -ISIS-  06222321452D

 14 14  0  0  0  0  0  0  0  0999 V2000
    6.6417    0.6333    0.0000 C   0  0  0  0  0  0  0  0  0  0  0  0
    6.6417    1.4583    0.0000 O   0  0  0  0  0  0  0  0  0  0  0  0
    5.9292    0.2208    0.0000 C   0  0  0  0  0  0  0  0  0  0  0  0
    7.3542    0.2208    0.0000 O   0  0  0  0  0  0  0  0  0  0  0  0
   10.9292    0.6333    0.0000 O   0  0  0  0  0  0  0  0  0  0  0  0
    5.2167    0.6333    0.0000 C   0  0  0  0  0  0  0  0  0  0  0  0
    5.9292   -0.6042    0.0000 C   0  0  0  0  0  0  0  0  0  0  0  0
    8.0750    0.6333    0.0000 C   0  0  0  0  0  0  0  0  0  0  0  0
   10.2167    0.2208    0.0000 C   0  0  0  0  0  0  0  0  0  0  0  0
    9.5042    0.6333    0.0000 C   0  0  0  0  0  0  0  0  0  0  0  0
    8.7917    0.2208    0.0000 C   0  0  0  0  0  0  0  0  0  0  0  0
    5.2167   -1.0167    0.0000 C   0  0  0  0  0  0  0  0  0  0  0  0
    4.5000    0.2208    0.0000 C   0  0  0  0  0  0  0  0  0  0  0  0
    4.5000   -0.6042    0.0000 C   0  0  0  0  0  0  0  0  0  0  0  0
  2  1  2  0  0  0  0
  3  1  1  0  0  0  0
  4  1  1  0  0  0  0
  5  9  1  0  0  0  0
  6  3  2  0  0  0  0
  7  3  1  0  0  0  0
  8  4  1  0  0  0  0
  9 10  1  0  0  0  0
 10 11  1  0  0  0  0
 11  8  1  0  0  0  0
 12  7  2  0  0  0  0
 13  6  1  0  0  0  0
 14 12  1  0  0  0  0
 13 14  2  0  0  0  0
M  END
> <IDNUMBER>
F1913-9284

> <Chemical_Name>
4-hydroxybutyl benzoate

> <CAS>
32651-37-9

> <PriceCoeff>
1.00

> <MW>
194.23

> <Description>
liquid

> <FSP3>
0.36

> <clogP>
1.71

> <TPSA>
46.53

> <Acceptor>
3

> <Donor>
1

> <RotBonds>
6

> <HAC>
14

> <Collection>
General

> <Reference_compound>
PRI2568

> <Similarity>
0.8040

$$$$
F5493-0462
  -ISIS-  06222321462D

 28 31  0  0  0  0  0  0  0  0999 V2000
   -4.5833    2.5708    0.0000 N   0  0  3  0  0  0  0  0  0  0  0  0
   -2.0208    7.5292    0.0000 C   0  0  0  0  0  0  0  0  0  0  0  0
   -1.7708    6.7542    0.0000 S   0  0  0  0  0  0  0  0  0  0  0  0
   -2.4375    6.2625    0.0000 C   0  0  0  0  0  0  0  0  0  0  0  0
   -2.8458    7.5292    0.0000 N   0  0  0  0  0  0  0  0  0  0  0  0
   -3.1083    6.7542    0.0000 N   0  0  0  0  0  0  0  0  0  0  0  0
   -3.1583    4.2125    0.0000 N   0  0  3  0  0  0  0  0  0  0  0  0
   -3.8708    3.8000    0.0000 C   0  0  0  0  0  0  0  0  0  0  0  0
   -1.5250    8.2125    0.0000 C   0  0  0  0  0  0  0  0  0  0  0  0
   -3.8625    2.9833    0.0000 C   0  0  0  0  0  0  0  0  0  0  0  0
   -5.3458    2.9125    0.0000 C   0  0  0  0  0  0  0  0  0  0  0  0
   -4.6750    1.7583    0.0000 C   0  0  0  0  0  0  0  0  0  0  0  0
   -2.4375    5.4417    0.0000 C   0  0  3  0  0  0  0  0  0  0  0  0
   -3.1583    5.0292    0.0000 C   0  0  0  0  0  0  0  0  0  0  0  0
   -1.8708    8.9625    0.0000 C   0  0  0  0  0  0  0  0  0  0  0  0
   -4.5708    4.2125    0.0000 O   0  0  0  0  0  0  0  0  0  0  0  0
   -5.4875    1.5958    0.0000 C   0  0  0  0  0  0  0  0  0  0  0  0
   -5.8958    2.3083    0.0000 C   0  0  0  0  0  0  0  0  0  0  0  0
   -4.0708    1.2000    0.0000 O   0  0  0  0  0  0  0  0  0  0  0  0
   -5.5083    3.7333    0.0000 O   0  0  0  0  0  0  0  0  0  0  0  0
   -2.6958    9.0500    0.0000 F   0  0  0  0  0  0  0  0  0  0  0  0
   -2.4458    3.8000    0.0000 C   0  0  0  0  0  0  0  0  0  0  0  0
   -1.7250    5.0292    0.0000 C   0  0  0  0  0  0  0  0  0  0  0  0
   -0.7000    8.1125    0.0000 C   0  0  0  0  0  0  0  0  0  0  0  0
   -1.7333    4.2042    0.0000 C   0  0  0  0  0  0  0  0  0  0  0  0
   -1.3750    9.6292    0.0000 C   0  0  0  0  0  0  0  0  0  0  0  0
   -0.2083    8.7875    0.0000 C   0  0  0  0  0  0  0  0  0  0  0  0
   -0.5500    9.5500    0.0000 C   0  0  0  0  0  0  0  0  0  0  0  0
  2  3  1  0  0  0  0
  3  4  1  0  0  0  0
  4 13  1  0  0  0  0
  5  6  1  0  0  0  0
  6  4  2  0  0  0  0
  7  8  1  0  0  0  0
  8 10  1  0  0  0  0
  9  2  1  0  0  0  0
 10  1  1  0  0  0  0
 11  1  1  0  0  0  0
 12  1  1  0  0  0  0
 13 14  1  0  0  0  0
 14  7  1  0  0  0  0
 15  9  1  0  0  0  0
 16  8  2  0  0  0  0
 17 12  1  0  0  0  0
 18 11  1  0  0  0  0
 19 12  2  0  0  0  0
 20 11  2  0  0  0  0
 21 15  1  0  0  0  0
 22  7  1  0  0  0  0
 23 25  1  0  0  0  0
 24  9  2  0  0  0  0
 25 22  1  0  0  0  0
 26 15  2  0  0  0  0
 27 24  1  0  0  0  0
 28 27  2  0  0  0  0
 17 18  1  0  0  0  0
 23 13  1  0  0  0  0
  5  2  2  0  0  0  0
 26 28  1  0  0  0  0
M  END
> <IDNUMBER>
F5493-0462

> <Chemical_Name>
1-(2-{3-[5-(2-fluorophenyl)-1,3,4-thiadiazol-2-yl]piperidin-1-yl}-2-oxoethyl)pyrrolidine-2,5-dione

> <CAS>
1219901-88-8

> <PriceCoeff>
1.50

> <MW>
402.44

> <Description>
solid

> <FSP3>
0.42

> <clogP>
1.16

> <TPSA>
111.71

> <Acceptor>
5

> <Donor>
0

> <RotBonds>
5

> <HAC>
28

> <Collection>
Advanced

$$$$
F5939-1176
  -ISIS-  06222321462D

 27 30  0  0  0  0  0  0  0  0999 V2000
    3.8292   -5.5375    0.0000 N   0  0  3  0  0  0  0  0  0  0  0  0
    8.1292   -8.0417    0.0000 C   0  0  0  0  0  0  0  0  0  0  0  0
    8.8042   -8.5375    0.0000 N   0  0  0  0  0  0  0  0  0  0  0  0
    8.5417   -9.3292    0.0000 C   0  0  0  0  0  0  0  0  0  0  0  0
    7.4625   -8.5292    0.0000 S   0  0  0  0  0  0  0  0  0  0  0  0
    5.2667   -5.5417    0.0000 C   0  0  0  0  0  0  0  0  0  0  0  0
    4.5417   -5.9542    0.0000 C   0  0  0  0  0  0  0  0  0  0  0  0
    3.7500   -4.7125    0.0000 C   0  0  0  0  0  0  0  0  0  0  0  0
    3.0667   -5.8625    0.0000 C   0  0  0  0  0  0  0  0  0  0  0  0
    5.9792   -5.9542    0.0000 N   0  0  3  0  0  0  0  0  0  0  0  0
    7.7167   -9.3167    0.0000 C   0  0  0  0  0  0  0  0  0  0  0  0
    8.1375   -7.2125    0.0000 O   0  0  0  0  0  0  0  0  0  0  0  0
    8.9542  -10.0500    0.0000 C   0  0  0  0  0  0  0  0  0  0  0  0
    5.9792   -6.7917    0.0000 C   0  0  0  0  0  0  0  0  0  0  0  0
    6.7042   -5.5417    0.0000 C   0  0  0  0  0  0  0  0  0  0  0  0
    5.2667   -4.7125    0.0000 O   0  0  0  0  0  0  0  0  0  0  0  0
    2.5250   -5.2375    0.0000 C   0  0  0  0  0  0  0  0  0  0  0  0
    2.9417   -4.5292    0.0000 C   0  0  0  0  0  0  0  0  0  0  0  0
    2.8917   -6.6792    0.0000 O   0  0  0  0  0  0  0  0  0  0  0  0
    4.3667   -4.1542    0.0000 O   0  0  0  0  0  0  0  0  0  0  0  0
    7.4250   -5.9542    0.0000 C   0  0  0  0  0  0  0  0  0  0  0  0
    6.6917   -7.2042    0.0000 C   0  0  0  0  0  0  0  0  0  0  0  0
    7.4167   -6.7917    0.0000 C   0  0  3  0  0  0  0  0  0  0  0  0
    9.7875  -10.0542    0.0000 Cl  0  0  0  0  0  0  0  0  0  0  0  0
    7.2917  -10.0375    0.0000 C   0  0  0  0  0  0  0  0  0  0  0  0
    7.7042  -10.7625    0.0000 C   0  0  0  0  0  0  0  0  0  0  0  0
    8.5417  -10.7625    0.0000 C   0  0  0  0  0  0  0  0  0  0  0  0
  2 12  1  0  0  0  0
  3  2  2  0  0  0  0
  4  3  1  0  0  0  0
  5  2  1  0  0  0  0
  6  7  1  0  0  0  0
  7  1  1  0  0  0  0
  8  1  1  0  0  0  0
  9  1  1  0  0  0  0
 10  6  1  0  0  0  0
 11  5  1  0  0  0  0
 12 23  1  0  0  0  0
 13  4  1  0  0  0  0
 14 10  1  0  0  0  0
 15 10  1  0  0  0  0
 16  6  2  0  0  0  0
 17  9  1  0  0  0  0
 18  8  1  0  0  0  0
 19  9  2  0  0  0  0
 20  8  2  0  0  0  0
 21 15  1  0  0  0  0
 22 14  1  0  0  0  0
 23 21  1  0  0  0  0
 24 13  1  0  0  0  0
 25 11  1  0  0  0  0
 26 25  2  0  0  0  0
 27 13  2  0  0  0  0
 18 17  1  0  0  0  0
 22 23  1  0  0  0  0
  4 11  2  0  0  0  0
 26 27  1  0  0  0  0
M  END
> <IDNUMBER>
F5939-1176

> <Chemical_Name>
1-(2-{4-[(4-chloro-1,3-benzothiazol-2-yl)oxy]piperidin-1-yl}-2-oxoethyl)pyrrolidine-2,5-dione

> <CAS>
1286722-53-9

> <PriceCoeff>
1.50

> <MW>
407.87

> <Description>
solid

> <FSP3>
0.44

> <clogP>
2.38

> <TPSA>
108.05

> <Acceptor>
5

> <Donor>
0

> <RotBonds>
5

> <HAC>
27

> <Collection>
Advanced

$$$$
F3230-0004
  -ISIS-  06222321152D

 21 22  0  0  0  0  0  0  0  0999 V2000
    4.0917   -3.8167    0.0000 N   0  0  3  0  0  0  0  0  0  0  0  0
    3.2667   -3.8167    0.0000 N   0  0  0  0  0  0  0  0  0  0  0  0
    4.3417   -3.0292    0.0000 C   0  0  0  0  0  0  0  0  0  0  0  0
    3.6792   -2.5500    0.0000 C   0  0  0  0  0  0  0  0  0  0  0  0
    3.0042   -3.0292    0.0000 C   0  0  0  0  0  0  0  0  0  0  0  0
    4.6750   -4.4042    0.0000 C   0  0  3  0  0  0  0  0  0  0  0  0
    5.3875   -3.9875    0.0000 C   0  0  0  0  0  0  0  0  0  0  0  0
    5.9667   -4.5667    0.0000 C   0  0  0  0  0  0  0  0  0  0  0  0
    6.7917   -4.5667    0.0000 N   0  0  0  0  0  0  0  0  0  0  0  0
    3.6750   -1.7250    0.0000 Br  0  0  0  0  0  0  0  0  0  0  0  0
    5.7542   -5.3667    0.0000 O   0  0  0  0  0  0  0  0  0  0  0  0
    7.2042   -3.8542    0.0000 C   0  0  0  0  0  0  0  0  0  0  0  0
    5.0542   -2.6167    0.0000 C   0  0  0  0  0  0  0  0  0  0  0  0
    2.2042   -2.8167    0.0000 C   0  0  0  0  0  0  0  0  0  0  0  0
    8.0292   -2.4292    0.0000 C   0  0  0  0  0  0  0  0  0  0  0  0
    6.7917   -3.1500    0.0000 C   0  0  0  0  0  0  0  0  0  0  0  0
    8.0292   -3.8542    0.0000 C   0  0  0  0  0  0  0  0  0  0  0  0
    8.4417   -3.1417    0.0000 C   0  0  0  0  0  0  0  0  0  0  0  0
    7.2042   -2.4375    0.0000 C   0  0  0  0  0  0  0  0  0  0  0  0
    4.4542   -5.2000    0.0000 C   0  0  0  0  0  0  0  0  0  0  0  0
    8.4375   -1.7167    0.0000 C   0  0  0  0  0  0  0  0  0  0  0  0
  2  1  1  0  0  0  0
  3  1  1  0  0  0  0
  4  3  2  0  0  0  0
  5  2  2  0  0  0  0
  6  1  1  0  0  0  0
  7  6  1  0  0  0  0
  8  7  1  0  0  0  0
  9  8  1  0  0  0  0
 10  4  1  0  0  0  0
 11  8  2  0  0  0  0
 12  9  1  0  0  0  0
 13  3  1  0  0  0  0
 14  5  1  0  0  0  0
 15 18  2  0  0  0  0
 16 12  1  0  0  0  0
 17 12  2  0  0  0  0
 18 17  1  0  0  0  0
 19 16  2  0  0  0  0
 20  6  1  0  0  0  0
 21 15  1  0  0  0  0
  5  4  1  0  0  0  0
 15 19  1  0  0  0  0
M  END
> <IDNUMBER>
F3230-0004

> <Chemical_Name>
3-(4-bromo-3,5-dimethyl-1H-pyrazol-1-yl)-N-(4-methylphenyl)butanamide

> <CAS>
890596-71-1

> <PriceCoeff>
1.00

> <MW>
350.25

> <Description>
solid

> <FSP3>
0.38

> <clogP>
3.76

> <TPSA>
46.92

> <Acceptor>
2

> <Donor>
1

> <RotBonds>
4

> <HAC>
21

> <Collection>
General

$$$$
F5823-0653
  -ISIS-  06222321152D

 23 25  0  0  0  0  0  0  0  0999 V2000
   -3.7583    3.7333    0.0000 C   0  0  0  0  0  0  0  0  0  0  0  0
   -3.0458    4.1375    0.0000 N   0  0  3  0  0  0  0  0  0  0  0  0
   -0.1958    4.9625    0.0000 N   0  0  3  0  0  0  0  0  0  0  0  0
    0.5625    5.3042    0.0000 N   0  0  0  0  0  0  0  0  0  0  0  0
   -3.7083    2.9125    0.0000 N   0  0  0  0  0  0  0  0  0  0  0  0
   -5.8125    2.3833    0.0000 C   0  0  0  0  0  0  0  0  0  0  0  0
   -5.1333    2.8333    0.0000 C   0  0  0  0  0  0  0  0  0  0  0  0
   -4.3958    2.4625    0.0000 C   0  0  0  0  0  0  0  0  0  0  0  0
    0.7000    3.9875    0.0000 C   0  0  0  0  0  0  0  0  0  0  0  0
   -4.4542    4.1792    0.0000 O   0  0  0  0  0  0  0  0  0  0  0  0
   -0.1000    4.1542    0.0000 C   0  0  0  0  0  0  0  0  0  0  0  0
   -5.7708    1.5458    0.0000 C   0  0  0  0  0  0  0  0  0  0  0  0
   -3.0458    4.9625    0.0000 C   0  0  0  0  0  0  0  0  0  0  0  0
   -2.3333    3.7333    0.0000 C   0  0  0  0  0  0  0  0  0  0  0  0
    1.1125    4.6917    0.0000 C   0  0  0  0  0  0  0  0  0  0  0  0
   -0.8958    5.3792    0.0000 C   0  0  0  0  0  0  0  0  0  0  0  0
   -5.0333    1.1833    0.0000 C   0  0  0  0  0  0  0  0  0  0  0  0
   -6.5417    2.7458    0.0000 Cl  0  0  0  0  0  0  0  0  0  0  0  0
   -4.3458    1.6333    0.0000 C   0  0  0  0  0  0  0  0  0  0  0  0
   -6.4417    1.0958    0.0000 Cl  0  0  0  0  0  0  0  0  0  0  0  0
   -2.3250    5.3792    0.0000 C   0  0  0  0  0  0  0  0  0  0  0  0
   -1.6208    4.1417    0.0000 C   0  0  0  0  0  0  0  0  0  0  0  0
   -1.6208    4.9625    0.0000 C   0  0  3  0  0  0  0  0  0  0  0  0
  2  1  1  0  0  0  0
  3 16  1  0  0  0  0
  4  3  1  0  0  0  0
  5  1  1  0  0  0  0
  6  7  1  0  0  0  0
  7  8  2  0  0  0  0
  8  5  1  0  0  0  0
  9 11  2  0  0  0  0
 10  1  2  0  0  0  0
 11  3  1  0  0  0  0
 12 17  1  0  0  0  0
 13  2  1  0  0  0  0
 14  2  1  0  0  0  0
 15  4  2  0  0  0  0
 16 23  1  0  0  0  0
 17 19  2  0  0  0  0
 18  6  1  0  0  0  0
 19  8  1  0  0  0  0
 20 12  1  0  0  0  0
 21 13  1  0  0  0  0
 22 14  1  0  0  0  0
 23 22  1  0  0  0  0
 21 23  1  0  0  0  0
  6 12  2  0  0  0  0
 15  9  1  0  0  0  0
M  END
> <IDNUMBER>
F5823-0653

> <Chemical_Name>
N-(3,4-dichlorophenyl)-4-[(1H-pyrazol-1-yl)methyl]piperidine-1-carboxamide

> <CAS>
1421444-23-6

> <PriceCoeff>
1.00

> <MW>
353.25

> <Description>
solid

> <FSP3>
0.38

> <clogP>
3.12

> <TPSA>
50.16

> <Acceptor>
2

> <Donor>
1

> <RotBonds>
4

> <HAC>
23

> <Collection>
General

$$$$
F1342-0085
  -ISIS-  06222321142D

 20 21  0  0  0  0  0  0  0  0999 V2000
    1.2667   -0.6375    0.0000 C   0  0  0  0  0  0  0  0  0  0  0  0
    1.6625    0.0833    0.0000 C   0  0  0  0  0  0  0  0  0  0  0  0
    0.4167   -0.6542    0.0000 N   0  0  3  0  0  0  0  0  0  0  0  0
    1.8417   -1.2250    0.0000 N   0  0  0  0  0  0  0  0  0  0  0  0
   -0.0250    0.0125    0.0000 C   0  0  0  0  0  0  0  0  0  0  0  0
    0.4042    0.7458    0.0000 N   0  0  0  0  0  0  0  0  0  0  0  0
    1.2167    0.7750    0.0000 C   0  0  0  0  0  0  0  0  0  0  0  0
    2.6167   -0.8542    0.0000 C   0  0  0  0  0  0  0  0  0  0  0  0
    2.4542   -0.0542    0.0000 N   0  0  0  0  0  0  0  0  0  0  0  0
   -0.8583   -0.0042    0.0000 O   0  0  0  0  0  0  0  0  0  0  0  0
    1.6042    1.4958    0.0000 O   0  0  0  0  0  0  0  0  0  0  0  0
    3.3792   -1.2042    0.0000 N   0  0  0  0  0  0  0  0  0  0  0  0
    0.0292   -1.3667    0.0000 C   0  0  0  0  0  0  0  0  0  0  0  0
    5.0417   -2.6417    0.0000 N   0  0  3  0  0  0  0  0  0  0  0  0
    3.8000   -1.9292    0.0000 C   0  0  0  0  0  0  0  0  0  0  0  0
    4.6250   -1.9292    0.0000 C   0  0  0  0  0  0  0  0  0  0  0  0
    5.8667   -2.6417    0.0000 C   0  0  0  0  0  0  0  0  0  0  0  0
    4.8250   -3.4250    0.0000 C   0  0  0  0  0  0  0  0  0  0  0  0
    5.2417   -4.1292    0.0000 C   0  0  0  0  0  0  0  0  0  0  0  0
    6.2792   -3.3542    0.0000 C   0  0  0  0  0  0  0  0  0  0  0  0
  2  1  2  0  0  0  0
  3  1  1  0  0  0  0
  4  1  1  0  0  0  0
  5  3  1  0  0  0  0
  6  5  1  0  0  0  0
  7  2  1  0  0  0  0
  8  4  2  0  0  0  0
  9  2  1  0  0  0  0
 10  5  2  0  0  0  0
 11  7  2  0  0  0  0
 12  8  1  0  0  0  0
 13  3  1  0  0  0  0
 14 16  1  0  0  0  0
 15 12  1  0  0  0  0
 16 15  1  0  0  0  0
 17 14  1  0  0  0  0
 18 14  1  0  0  0  0
 19 18  1  0  0  0  0
 20 17  1  0  0  0  0
  9  8  1  0  0  0  0
  7  6  1  0  0  0  0
M  END
> <IDNUMBER>
F1342-0085

> <Chemical_Name>
8-{[2-(diethylamino)ethyl]amino}-3-methyl-2,3,6,7-tetrahydro-1H-purine-2,6-dione

> <CAS>
672270-14-3

> <PriceCoeff>
1.00

> <MW>
280.33

> <Description>
solid

> <FSP3>
0.58

> <clogP>
1.17

> <TPSA>
93.36

> <Acceptor>
5

> <Donor>
5

> <RotBonds>
6

> <HAC>
20

> <Collection>
General

> <Reference_compound>
CHEMBL190

> <Similarity>
0.8110

$$$$
F3230-0069
  -ISIS-  06222321152D

 20 21  0  0  0  0  0  0  0  0999 V2000
    4.0917    0.0083    0.0000 N   0  0  3  0  0  0  0  0  0  0  0  0
    3.8417   -0.7792    0.0000 N   0  0  0  0  0  0  0  0  0  0  0  0
    2.7542    0.0083    0.0000 C   0  0  0  0  0  0  0  0  0  0  0  0
    3.4250    0.4958    0.0000 C   0  0  0  0  0  0  0  0  0  0  0  0
    3.0167   -0.7792    0.0000 C   0  0  0  0  0  0  0  0  0  0  0  0
    6.1667   -0.7042    0.0000 C   0  0  0  0  0  0  0  0  0  0  0  0
    4.9250    0.0083    0.0000 C   0  0  0  0  0  0  0  0  0  0  0  0
    5.3375   -0.7042    0.0000 C   0  0  0  0  0  0  0  0  0  0  0  0
    6.5750   -1.4250    0.0000 N   0  0  0  0  0  0  0  0  0  0  0  0
    1.9667    0.2583    0.0000 Br  0  0  0  0  0  0  0  0  0  0  0  0
    6.5750    0.0125    0.0000 O   0  0  0  0  0  0  0  0  0  0  0  0
    7.4000   -1.4292    0.0000 C   0  0  0  0  0  0  0  0  0  0  0  0
    3.4250    1.3250    0.0000 C   0  0  0  0  0  0  0  0  0  0  0  0
    9.0417   -1.4375    0.0000 C   0  0  0  0  0  0  0  0  0  0  0  0
    2.5250   -1.4542    0.0000 C   0  0  0  0  0  0  0  0  0  0  0  0
    9.8667   -1.4417    0.0000 F   0  0  0  0  0  0  0  0  0  0  0  0
    7.8042   -0.7167    0.0000 C   0  0  0  0  0  0  0  0  0  0  0  0
    7.8042   -2.1417    0.0000 C   0  0  0  0  0  0  0  0  0  0  0  0
    8.6292   -2.1500    0.0000 C   0  0  0  0  0  0  0  0  0  0  0  0
    8.6292   -0.7167    0.0000 C   0  0  0  0  0  0  0  0  0  0  0  0
  2  1  1  0  0  0  0
  3  4  2  0  0  0  0
  4  1  1  0  0  0  0
  5  2  2  0  0  0  0
  6  8  1  0  0  0  0
  7  1  1  0  0  0  0
  8  7  1  0  0  0  0
  9  6  1  0  0  0  0
 10  3  1  0  0  0  0
 11  6  2  0  0  0  0
 12  9  1  0  0  0  0
 13  4  1  0  0  0  0
 14 19  2  0  0  0  0
 15  5  1  0  0  0  0
 16 14  1  0  0  0  0
 17 12  1  0  0  0  0
 18 12  2  0  0  0  0
 19 18  1  0  0  0  0
 20 17  2  0  0  0  0
  3  5  1  0  0  0  0
 20 14  1  0  0  0  0
M  END
> <IDNUMBER>
F3230-0069

> <Chemical_Name>
3-(4-bromo-3,5-dimethyl-1H-pyrazol-1-yl)-N-(4-fluorophenyl)propanamide

> <CAS>
890598-69-3

> <PriceCoeff>
1.00

> <MW>
340.19

> <Description>
solid

> <FSP3>
0.29

> <clogP>
3.35

> <TPSA>
46.92

> <Acceptor>
2

> <Donor>
1

> <RotBonds>
4

> <HAC>
20

> <Collection>
General

$$$$
F5860-4825
  -ISIS-  06222321462D

 27 29  0  0  0  0  0  0  0  0999 V2000
    9.4167   -5.1417    0.0000 S   0  0  3  0  0  0  0  0  0  0  0  0
   13.1000   -5.9292    0.0000 C   0  0  0  0  0  0  0  0  0  0  0  0
    7.3375   -5.8167    0.0000 N   0  0  3  0  0  0  0  0  0  0  0  0
   10.2417   -5.1542    0.0000 N   0  0  3  0  0  0  0  0  0  0  0  0
   13.3500   -7.2417    0.0000 N   0  0  0  0  0  0  0  0  0  0  0  0
    8.5917   -5.1292    0.0000 C   0  0  0  0  0  0  0  0  0  0  0  0
   14.0750   -6.8500    0.0000 O   0  0  0  0  0  0  0  0  0  0  0  0
   13.9250   -6.0375    0.0000 C   0  0  0  0  0  0  0  0  0  0  0  0
    6.9375   -5.1000    0.0000 C   0  0  0  0  0  0  0  0  0  0  0  0
    6.9042   -6.5167    0.0000 C   0  0  0  0  0  0  0  0  0  0  0  0
   12.7500   -6.6750    0.0000 C   0  0  0  0  0  0  0  0  0  0  0  0
    8.1667   -5.8375    0.0000 C   0  0  0  0  0  0  0  0  0  0  0  0
   12.7042   -5.2042    0.0000 C   0  0  0  0  0  0  0  0  0  0  0  0
   11.8792   -5.1875    0.0000 N   0  0  3  0  0  0  0  0  0  0  0  0
   10.6417   -5.8667    0.0000 C   0  0  0  0  0  0  0  0  0  0  0  0
   10.6667   -4.4417    0.0000 C   0  0  0  0  0  0  0  0  0  0  0  0
    9.4042   -5.9667    0.0000 O   0  0  0  0  0  0  0  0  0  0  0  0
    9.4375   -4.3167    0.0000 O   0  0  0  0  0  0  0  0  0  0  0  0
    7.3042   -7.2417    0.0000 O   0  0  0  0  0  0  0  0  0  0  0  0
    7.3625   -4.3792    0.0000 O   0  0  0  0  0  0  0  0  0  0  0  0
   11.4542   -5.8917    0.0000 C   0  0  0  0  0  0  0  0  0  0  0  0
   11.4917   -4.4625    0.0000 C   0  0  0  0  0  0  0  0  0  0  0  0
    6.1167   -5.0792    0.0000 C   0  0  0  0  0  0  0  0  0  0  0  0
    6.0792   -6.5042    0.0000 C   0  0  0  0  0  0  0  0  0  0  0  0
   14.4875   -5.4417    0.0000 C   0  0  0  0  0  0  0  0  0  0  0  0
    5.6875   -5.7792    0.0000 C   0  0  0  0  0  0  0  0  0  0  0  0
   11.9417   -6.8250    0.0000 C   0  0  0  0  0  0  0  0  0  0  0  0
  2 13  1  0  0  0  0
  3 12  1  0  0  0  0
  4  1  1  0  0  0  0
  5 11  2  0  0  0  0
  6  1  1  0  0  0  0
  7  8  1  0  0  0  0
  8  2  2  0  0  0  0
  9  3  1  0  0  0  0
 10  3  1  0  0  0  0
 11  2  1  0  0  0  0
 12  6  1  0  0  0  0
 13 14  1  0  0  0  0
 14 22  1  0  0  0  0
 15  4  1  0  0  0  0
 16  4  1  0  0  0  0
 17  1  2  0  0  0  0
 18  1  2  0  0  0  0
 19 10  2  0  0  0  0
 20  9  2  0  0  0  0
 21 15  1  0  0  0  0
 22 16  1  0  0  0  0
 23  9  1  0  0  0  0
 24 10  1  0  0  0  0
 25  8  1  0  0  0  0
 26 24  1  0  0  0  0
 27 11  1  0  0  0  0
 21 14  1  0  0  0  0
 26 23  1  0  0  0  0
  5  7  1  0  0  0  0
M  END
> <IDNUMBER>
F5860-4825

> <Chemical_Name>
1-[2-({4-[(3,5-dimethyl-1,2-oxazol-4-yl)methyl]piperazin-1-yl}sulfonyl)ethyl]piperidine-2,6-dione

> <CAS>
1207009-02-6

> <PriceCoeff>
1.00

> <MW>
398.48

> <Description>
solid

> <FSP3>
0.71

> <clogP>
0.83

> <TPSA>
112.41

> <Acceptor>
7

> <Donor>
1

> <RotBonds>
6

> <HAC>
27

> <Collection>
General

$$$$
F3230-0014
  -ISIS-  06222321442D

 22 23  0  0  0  0  0  0  0  0999 V2000
    4.1917   -3.7542    0.0000 N   0  0  3  0  0  0  0  0  0  0  0  0
    3.3667   -3.7542    0.0000 N   0  0  0  0  0  0  0  0  0  0  0  0
    3.7792   -2.4792    0.0000 C   0  0  0  0  0  0  0  0  0  0  0  0
    4.4500   -2.9667    0.0000 C   0  0  0  0  0  0  0  0  0  0  0  0
    3.1125   -2.9667    0.0000 C   0  0  0  0  0  0  0  0  0  0  0  0
    7.7417   -3.9125    0.0000 C   0  0  0  0  0  0  0  0  0  0  0  0
    7.0292   -4.3292    0.0000 N   0  0  0  0  0  0  0  0  0  0  0  0
    6.3167   -3.9167    0.0000 C   0  0  0  0  0  0  0  0  0  0  0  0
    5.6042   -4.3375    0.0000 C   0  0  0  0  0  0  0  0  0  0  0  0
    4.7792   -4.3375    0.0000 C   0  0  0  0  0  0  0  0  0  0  0  0
    7.7417   -3.0917    0.0000 C   0  0  0  0  0  0  0  0  0  0  0  0
    8.4500   -4.3167    0.0000 C   0  0  0  0  0  0  0  0  0  0  0  0
    3.7792   -1.6542    0.0000 Cl  0  0  0  0  0  0  0  0  0  0  0  0
    6.3125   -3.0917    0.0000 O   0  0  0  0  0  0  0  0  0  0  0  0
    9.1625   -3.9167    0.0000 C   0  0  0  0  0  0  0  0  0  0  0  0
    8.4417   -2.6875    0.0000 C   0  0  0  0  0  0  0  0  0  0  0  0
    5.1625   -2.5500    0.0000 C   0  0  0  0  0  0  0  0  0  0  0  0
    9.1625   -3.0917    0.0000 C   0  0  0  0  0  0  0  0  0  0  0  0
    2.3125   -2.7500    0.0000 C   0  0  0  0  0  0  0  0  0  0  0  0
    8.4417   -1.8625    0.0000 Cl  0  0  0  0  0  0  0  0  0  0  0  0
    8.4417   -5.1500    0.0000 O   0  0  0  0  0  0  0  0  0  0  0  0
    9.1542   -5.5625    0.0000 C   0  0  0  0  0  0  0  0  0  0  0  0
  2  1  1  0  0  0  0
  3  4  2  0  0  0  0
  4  1  1  0  0  0  0
  5  2  2  0  0  0  0
  6  7  1  0  0  0  0
  7  8  1  0  0  0  0
  8  9  1  0  0  0  0
  9 10  1  0  0  0  0
 10  1  1  0  0  0  0
 11  6  1  0  0  0  0
 12  6  2  0  0  0  0
 13  3  1  0  0  0  0
 14  8  2  0  0  0  0
 15 12  1  0  0  0  0
 16 11  2  0  0  0  0
 17  4  1  0  0  0  0
 18 15  2  0  0  0  0
 19  5  1  0  0  0  0
 20 16  1  0  0  0  0
 21 12  1  0  0  0  0
 22 21  1  0  0  0  0
  5  3  1  0  0  0  0
 16 18  1  0  0  0  0
M  END
> <IDNUMBER>
F3230-0014

> <Chemical_Name>
N-(5-chloro-2-methoxyphenyl)-3-(4-chloro-3,5-dimethyl-1H-pyrazol-1-yl)propanamide

> <CAS>
890597-02-1

> <PriceCoeff>
1.50

> <MW>
342.22

> <Description>
solid

> <FSP3>
0.33

> <clogP>
3.20

> <TPSA>
56.15

> <Acceptor>
3

> <Donor>
1

> <RotBonds>
5

> <HAC>
22

> <Collection>
Advanced

$$$$
F6359-3074
  -ISIS-  06222321152D

 24 26  0  0  0  0  0  0  0  0999 V2000
   -4.5833    3.8000    0.0000 C   0  0  0  0  0  0  0  0  0  0  0  0
   -3.8625    4.2125    0.0000 N   0  0  3  0  0  0  0  0  0  0  0  0
   -4.5833    2.9792    0.0000 N   0  0  0  0  0  0  0  0  0  0  0  0
   -6.0042    1.3375    0.0000 C   0  0  0  0  0  0  0  0  0  0  0  0
   -5.3083    1.7458    0.0000 C   0  0  0  0  0  0  0  0  0  0  0  0
   -5.3000    2.5792    0.0000 C   0  0  0  0  0  0  0  0  0  0  0  0
   -5.3000    4.2125    0.0000 O   0  0  0  0  0  0  0  0  0  0  0  0
   -1.0208    5.0542    0.0000 C   0  0  0  0  0  0  0  0  0  0  0  0
   -0.2958    5.4708    0.0000 N   0  0  0  0  0  0  0  0  0  0  0  0
   -3.1458    3.8083    0.0000 C   0  0  0  0  0  0  0  0  0  0  0  0
   -3.8625    5.0417    0.0000 C   0  0  0  0  0  0  0  0  0  0  0  0
   -6.7167    1.7458    0.0000 C   0  0  0  0  0  0  0  0  0  0  0  0
   -0.2833    3.8208    0.0000 N   0  0  0  0  0  0  0  0  0  0  0  0
   -1.7333    5.4667    0.0000 O   0  0  0  0  0  0  0  0  0  0  0  0
   -2.4250    4.2167    0.0000 C   0  0  0  0  0  0  0  0  0  0  0  0
   -3.1583    5.4542    0.0000 C   0  0  0  0  0  0  0  0  0  0  0  0
   -6.7208    2.5708    0.0000 C   0  0  0  0  0  0  0  0  0  0  0  0
   -2.4458    5.0292    0.0000 C   0  0  3  0  0  0  0  0  0  0  0  0
   -6.0042    0.5083    0.0000 Cl  0  0  0  0  0  0  0  0  0  0  0  0
   -6.0042    2.9833    0.0000 C   0  0  0  0  0  0  0  0  0  0  0  0
   -7.4417    1.3250    0.0000 Cl  0  0  0  0  0  0  0  0  0  0  0  0
   -1.0083    4.2167    0.0000 C   0  0  0  0  0  0  0  0  0  0  0  0
    0.4167    5.0667    0.0000 C   0  0  0  0  0  0  0  0  0  0  0  0
    0.4292    4.2417    0.0000 C   0  0  0  0  0  0  0  0  0  0  0  0
  2  1  1  0  0  0  0
  3  1  1  0  0  0  0
  4  5  1  0  0  0  0
  5  6  2  0  0  0  0
  6  3  1  0  0  0  0
  7  1  2  0  0  0  0
  8 14  1  0  0  0  0
  9  8  2  0  0  0  0
 10  2  1  0  0  0  0
 11  2  1  0  0  0  0
 12 17  1  0  0  0  0
 13 22  2  0  0  0  0
 14 18  1  0  0  0  0
 15 10  1  0  0  0  0
 16 11  1  0  0  0  0
 17 20  2  0  0  0  0
 18 16  1  0  0  0  0
 19  4  1  0  0  0  0
 20  6  1  0  0  0  0
 21 12  1  0  0  0  0
 22  8  1  0  0  0  0
 23  9  1  0  0  0  0
 24 13  1  0  0  0  0
 15 18  1  0  0  0  0
  4 12  2  0  0  0  0
 23 24  2  0  0  0  0
M  END
> <IDNUMBER>
F6359-3074

> <Chemical_Name>
N-(3,4-dichlorophenyl)-4-(pyrazin-2-yloxy)piperidine-1-carboxamide

> <CAS>
1421446-03-8

> <PriceCoeff>
1.00

> <MW>
367.23

> <Description>
solid

> <FSP3>
0.31

> <clogP>
2.88

> <TPSA>
67.35

> <Acceptor>
4

> <Donor>
1

> <RotBonds>
4

> <HAC>
24

> <Collection>
General

$$$$
F3230-0073
  -ISIS-  06222321442D

 22 23  0  0  0  0  0  0  0  0999 V2000
    1.1667   -0.0000    0.0000 N   0  0  3  0  0  0  0  0  0  0  0  0
    0.9167   -0.7875    0.0000 N   0  0  0  0  0  0  0  0  0  0  0  0
   -0.1708   -0.0000    0.0000 C   0  0  0  0  0  0  0  0  0  0  0  0
    0.4917    0.4875    0.0000 C   0  0  0  0  0  0  0  0  0  0  0  0
    0.0875   -0.7917    0.0000 C   0  0  0  0  0  0  0  0  0  0  0  0
    3.2375   -0.7167    0.0000 C   0  0  0  0  0  0  0  0  0  0  0  0
    1.9917   -0.0000    0.0000 C   0  0  0  0  0  0  0  0  0  0  0  0
    2.4042   -0.7167    0.0000 C   0  0  0  0  0  0  0  0  0  0  0  0
    5.7042   -0.7292    0.0000 C   0  0  0  0  0  0  0  0  0  0  0  0
    3.6417   -1.4292    0.0000 N   0  0  0  0  0  0  0  0  0  0  0  0
    6.1167   -0.0125    0.0000 C   0  0  0  0  0  0  0  0  0  0  0  0
    4.8792   -0.7250    0.0000 C   0  0  0  0  0  0  0  0  0  0  0  0
    4.4667   -1.4375    0.0000 C   0  0  0  0  0  0  0  0  0  0  0  0
   -0.9625    0.2500    0.0000 Br  0  0  0  0  0  0  0  0  0  0  0  0
    3.6417    0.0083    0.0000 O   0  0  0  0  0  0  0  0  0  0  0  0
    5.7042    0.7000    0.0000 O   0  0  0  0  0  0  0  0  0  0  0  0
    0.4917    1.3208    0.0000 C   0  0  0  0  0  0  0  0  0  0  0  0
   -0.4000   -1.4625    0.0000 C   0  0  0  0  0  0  0  0  0  0  0  0
    6.1167   -1.4417    0.0000 C   0  0  0  0  0  0  0  0  0  0  0  0
    5.7000   -2.1542    0.0000 C   0  0  0  0  0  0  0  0  0  0  0  0
    4.8750   -2.1542    0.0000 C   0  0  0  0  0  0  0  0  0  0  0  0
    6.9417   -0.0167    0.0000 C   0  0  0  0  0  0  0  0  0  0  0  0
  2  1  1  0  0  0  0
  3  4  2  0  0  0  0
  4  1  1  0  0  0  0
  5  2  2  0  0  0  0
  6  8  1  0  0  0  0
  7  1  1  0  0  0  0
  8  7  1  0  0  0  0
  9 12  2  0  0  0  0
 10  6  1  0  0  0  0
 11  9  1  0  0  0  0
 12 13  1  0  0  0  0
 13 10  1  0  0  0  0
 14  3  1  0  0  0  0
 15  6  2  0  0  0  0
 16 11  2  0  0  0  0
 17  4  1  0  0  0  0
 18  5  1  0  0  0  0
 19 20  2  0  0  0  0
 20 21  1  0  0  0  0
 21 13  2  0  0  0  0
 22 11  1  0  0  0  0
  3  5  1  0  0  0  0
  9 19  1  0  0  0  0
M  END
> <IDNUMBER>
F3230-0073

> <Chemical_Name>
N-(3-acetylphenyl)-3-(4-bromo-3,5-dimethyl-1H-pyrazol-1-yl)propanamide

> <CAS>
890598-81-9

> <PriceCoeff>
1.50

> <MW>
364.24

> <Description>
solid

> <FSP3>
0.31

> <clogP>
2.86

> <TPSA>
63.99

> <Acceptor>
3

> <Donor>
1

> <RotBonds>
5

> <HAC>
22

> <Collection>
Advanced

$$$$
F3230-0020
  -ISIS-  06222321462D

 22 23  0  0  0  0  0  0  0  0999 V2000
    4.1917   -3.9542    0.0000 N   0  0  3  0  0  0  0  0  0  0  0  0
    3.3667   -3.9542    0.0000 N   0  0  0  0  0  0  0  0  0  0  0  0
    4.4500   -3.1667    0.0000 C   0  0  0  0  0  0  0  0  0  0  0  0
    3.7792   -2.6875    0.0000 C   0  0  0  0  0  0  0  0  0  0  0  0
    3.1125   -3.1667    0.0000 C   0  0  0  0  0  0  0  0  0  0  0  0
    4.7792   -4.5417    0.0000 C   0  0  3  0  0  0  0  0  0  0  0  0
    6.3167   -4.1250    0.0000 C   0  0  0  0  0  0  0  0  0  0  0  0
    5.6042   -4.5417    0.0000 C   0  0  0  0  0  0  0  0  0  0  0  0
    7.7417   -4.1167    0.0000 C   0  0  0  0  0  0  0  0  0  0  0  0
    7.0292   -4.5375    0.0000 N   0  0  0  0  0  0  0  0  0  0  0  0
    7.7417   -3.3000    0.0000 C   0  0  0  0  0  0  0  0  0  0  0  0
    8.4500   -4.5292    0.0000 C   0  0  0  0  0  0  0  0  0  0  0  0
    3.7792   -1.8625    0.0000 Cl  0  0  0  0  0  0  0  0  0  0  0  0
    6.3125   -3.3000    0.0000 O   0  0  0  0  0  0  0  0  0  0  0  0
    9.1625   -4.1167    0.0000 C   0  0  0  0  0  0  0  0  0  0  0  0
    8.4417   -2.8917    0.0000 C   0  0  0  0  0  0  0  0  0  0  0  0
    5.1625   -2.7542    0.0000 C   0  0  0  0  0  0  0  0  0  0  0  0
    2.3125   -2.9542    0.0000 C   0  0  0  0  0  0  0  0  0  0  0  0
    9.1625   -3.3000    0.0000 C   0  0  0  0  0  0  0  0  0  0  0  0
    8.4417   -2.0667    0.0000 Cl  0  0  0  0  0  0  0  0  0  0  0  0
    4.1917   -5.1250    0.0000 C   0  0  0  0  0  0  0  0  0  0  0  0
    8.4417   -5.3542    0.0000 C   0  0  0  0  0  0  0  0  0  0  0  0
  2  1  1  0  0  0  0
  3  1  1  0  0  0  0
  4  3  2  0  0  0  0
  5  2  2  0  0  0  0
  6  1  1  0  0  0  0
  7  8  1  0  0  0  0
  8  6  1  0  0  0  0
  9 10  1  0  0  0  0
 10  7  1  0  0  0  0
 11  9  1  0  0  0  0
 12  9  2  0  0  0  0
 13  4  1  0  0  0  0
 14  7  2  0  0  0  0
 15 12  1  0  0  0  0
 16 11  2  0  0  0  0
 17  3  1  0  0  0  0
 18  5  1  0  0  0  0
 19 15  2  0  0  0  0
 20 16  1  0  0  0  0
 21  6  1  0  0  0  0
 22 12  1  0  0  0  0
  5  4  1  0  0  0  0
 16 19  1  0  0  0  0
M  END
> <IDNUMBER>
F3230-0020

> <Chemical_Name>
N-(5-chloro-2-methylphenyl)-3-(4-chloro-3,5-dimethyl-1H-pyrazol-1-yl)butanamide

> <CAS>
890597-20-3

> <PriceCoeff>
1.50

> <MW>
340.25

> <Description>
solid

> <FSP3>
0.38

> <clogP>
3.93

> <TPSA>
46.92

> <Acceptor>
2

> <Donor>
1

> <RotBonds>
4

> <HAC>
22

> <Collection>
Advanced

$$$$
F6359-0288
  -ISIS-  06222321442D

 24 26  0  0  0  0  0  0  0  0999 V2000
   -4.5833    3.8000    0.0000 C   0  0  0  0  0  0  0  0  0  0  0  0
   -3.8625    4.2125    0.0000 N   0  0  3  0  0  0  0  0  0  0  0  0
   -4.5833    2.9792    0.0000 N   0  0  0  0  0  0  0  0  0  0  0  0
   -6.0042    1.3375    0.0000 C   0  0  0  0  0  0  0  0  0  0  0  0
   -5.3083    1.7458    0.0000 C   0  0  0  0  0  0  0  0  0  0  0  0
   -5.3000    2.5792    0.0000 C   0  0  0  0  0  0  0  0  0  0  0  0
   -5.3000    4.2125    0.0000 O   0  0  0  0  0  0  0  0  0  0  0  0
   -1.0083    5.0542    0.0000 C   0  0  0  0  0  0  0  0  0  0  0  0
   -0.2958    5.4667    0.0000 N   0  0  0  0  0  0  0  0  0  0  0  0
   -3.1458    3.8083    0.0000 C   0  0  0  0  0  0  0  0  0  0  0  0
   -3.8583    5.0292    0.0000 C   0  0  0  0  0  0  0  0  0  0  0  0
   -6.7167    1.7458    0.0000 C   0  0  0  0  0  0  0  0  0  0  0  0
   -1.7333    5.4625    0.0000 O   0  0  0  0  0  0  0  0  0  0  0  0
   -2.4250    4.2167    0.0000 C   0  0  0  0  0  0  0  0  0  0  0  0
   -3.1583    5.4542    0.0000 C   0  0  0  0  0  0  0  0  0  0  0  0
   -6.7208    2.5708    0.0000 C   0  0  0  0  0  0  0  0  0  0  0  0
   -2.4458    5.0333    0.0000 C   0  0  3  0  0  0  0  0  0  0  0  0
   -6.0042    0.5083    0.0000 Cl  0  0  0  0  0  0  0  0  0  0  0  0
   -6.0042    2.9833    0.0000 C   0  0  0  0  0  0  0  0  0  0  0  0
   -7.4417    1.3250    0.0000 Cl  0  0  0  0  0  0  0  0  0  0  0  0
    0.4292    5.0625    0.0000 C   0  0  0  0  0  0  0  0  0  0  0  0
   -1.0083    4.2167    0.0000 C   0  0  0  0  0  0  0  0  0  0  0  0
    0.4292    4.2292    0.0000 C   0  0  0  0  0  0  0  0  0  0  0  0
   -0.2833    3.8208    0.0000 C   0  0  0  0  0  0  0  0  0  0  0  0
  2  1  1  0  0  0  0
  3  1  1  0  0  0  0
  4  5  1  0  0  0  0
  5  6  2  0  0  0  0
  6  3  1  0  0  0  0
  7  1  2  0  0  0  0
  8 13  1  0  0  0  0
  9  8  2  0  0  0  0
 10  2  1  0  0  0  0
 11  2  1  0  0  0  0
 12 16  1  0  0  0  0
 13 17  1  0  0  0  0
 14 10  1  0  0  0  0
 15 11  1  0  0  0  0
 16 19  2  0  0  0  0
 17 15  1  0  0  0  0
 18  4  1  0  0  0  0
 19  6  1  0  0  0  0
 20 12  1  0  0  0  0
 21  9  1  0  0  0  0
 22  8  1  0  0  0  0
 23 24  1  0  0  0  0
 24 22  2  0  0  0  0
 14 17  1  0  0  0  0
  4 12  2  0  0  0  0
 21 23  2  0  0  0  0
M  END
> <IDNUMBER>
F6359-0288

> <Chemical_Name>
N-(3,4-dichlorophenyl)-4-(pyridin-2-yloxy)piperidine-1-carboxamide

> <CAS>
1448134-29-9

> <PriceCoeff>
1.00

> <MW>
366.24

> <Description>
solid

> <FSP3>
0.29

> <clogP>
3.71

> <TPSA>
54.46

> <Acceptor>
3

> <Donor>
2

> <RotBonds>
4

> <HAC>
24

> <Collection>
General

$$$$
F2143-0151
  -ISIS-  06222321462D

 12 13  0  0  0  0  0  0  0  0999 V2000
    4.9875   -4.7417    0.0000 N   0  0  0  0  0  0  0  0  0  0  0  0
    4.5750   -3.4750    0.0000 C   0  0  0  0  0  0  0  0  0  0  0  0
    5.6542   -4.2542    0.0000 C   0  0  0  0  0  0  0  0  0  0  0  0
    5.4000   -3.4750    0.0000 C   0  0  0  0  0  0  0  0  0  0  0  0
    4.3167   -4.2542    0.0000 C   0  0  0  0  0  0  0  0  0  0  0  0
    4.0250   -2.8625    0.0000 C   0  0  0  0  0  0  0  0  0  0  0  0
    3.5125   -4.4292    0.0000 C   0  0  0  0  0  0  0  0  0  0  0  0
    3.2167   -3.0292    0.0000 C   0  0  0  0  0  0  0  0  0  0  0  0
    2.9542   -3.8167    0.0000 C   0  0  0  0  0  0  0  0  0  0  0  0
    2.9167   -1.6292    0.0000 N   0  0  0  0  0  0  0  0  0  0  0  0
    6.4375   -4.5167    0.0000 C   0  0  0  0  0  0  0  0  0  0  0  0
    2.6625   -2.4167    0.0000 C   0  0  0  0  0  0  0  0  0  0  0  0
  2  5  2  0  0  0  0
  3  1  1  0  0  0  0
  4  3  2  0  0  0  0
  5  1  1  0  0  0  0
  6  2  1  0  0  0  0
  7  5  1  0  0  0  0
  8  9  1  0  0  0  0
  9  7  2  0  0  0  0
 10 12  1  0  0  0  0
 11  3  1  0  0  0  0
 12  8  1  0  0  0  0
  4  2  1  0  0  0  0
  6  8  2  0  0  0  0
M  END
> <IDNUMBER>
F2143-0151

> <Chemical_Name>
(2-methyl-1H-indol-5-yl)methanamine

> <CAS>
36798-25-1

> <PriceCoeff>
1.50

> <MW>
160.22

> <Description>
solid

> <FSP3>
0.20

> <clogP>
1.58

> <TPSA>
41.81

> <Acceptor>
0

> <Donor>
2

> <RotBonds>
1

> <HAC>
12

> <Collection>
Advanced

> <Reference_compound>
CHEMBL2229816

> <Similarity>
0.8530

$$$$
F5855-0774
  -ISIS-  06222321152D

 28 31  0  0  0  0  0  0  0  0999 V2000
    8.1375   -8.0500    0.0000 C   0  0  3  0  0  0  0  0  0  0  0  0
    3.8292   -5.5375    0.0000 N   0  0  3  0  0  0  0  0  0  0  0  0
    8.5542   -8.7667    0.0000 C   0  0  3  0  0  0  0  0  0  0  0  0
    8.1417   -7.2167    0.0000 C   0  0  0  0  0  0  0  0  0  0  0  0
    7.7167   -8.7667    0.0000 C   0  0  0  0  0  0  0  0  0  0  0  0
    5.2667   -5.5417    0.0000 C   0  0  0  0  0  0  0  0  0  0  0  0
    4.5417   -5.9542    0.0000 C   0  0  0  0  0  0  0  0  0  0  0  0
    7.4250   -6.8000    0.0000 N   0  0  3  0  0  0  0  0  0  0  0  0
    3.0667   -5.8625    0.0000 C   0  0  0  0  0  0  0  0  0  0  0  0
    3.7500   -4.7125    0.0000 C   0  0  0  0  0  0  0  0  0  0  0  0
    5.9792   -5.9542    0.0000 N   0  0  3  0  0  0  0  0  0  0  0  0
    9.2667   -9.1917    0.0000 C   0  0  0  0  0  0  0  0  0  0  0  0
    8.8625   -6.8042    0.0000 O   0  0  0  0  0  0  0  0  0  0  0  0
    7.4292   -5.9625    0.0000 C   0  0  0  0  0  0  0  0  0  0  0  0
    6.7042   -7.2042    0.0000 C   0  0  0  0  0  0  0  0  0  0  0  0
    5.9792   -6.7875    0.0000 C   0  0  0  0  0  0  0  0  0  0  0  0
    6.7042   -5.5417    0.0000 C   0  0  0  0  0  0  0  0  0  0  0  0
    5.2667   -4.7125    0.0000 O   0  0  0  0  0  0  0  0  0  0  0  0
    2.5250   -5.2375    0.0000 C   0  0  0  0  0  0  0  0  0  0  0  0
    2.9417   -4.5292    0.0000 C   0  0  0  0  0  0  0  0  0  0  0  0
    2.8917   -6.6792    0.0000 O   0  0  0  0  0  0  0  0  0  0  0  0
    4.3667   -4.1542    0.0000 O   0  0  0  0  0  0  0  0  0  0  0  0
    9.2625  -10.0167    0.0000 C   0  0  0  0  0  0  0  0  0  0  0  0
    9.9792   -8.7750    0.0000 C   0  0  0  0  0  0  0  0  0  0  0  0
   10.7000  -10.0250    0.0000 C   0  0  0  0  0  0  0  0  0  0  0  0
   10.7000   -9.1917    0.0000 C   0  0  0  0  0  0  0  0  0  0  0  0
    9.9792  -10.4375    0.0000 C   0  0  0  0  0  0  0  0  0  0  0  0
   11.4167  -10.4417    0.0000 F   0  0  0  0  0  0  0  0  0  0  0  0
  2  7  1  0  0  0  0
  3  1  1  0  0  0  0
  4  1  1  0  0  0  0
  5  1  1  0  0  0  0
  6 11  1  0  0  0  0
  7  6  1  0  0  0  0
  8  4  1  0  0  0  0
  9  2  1  0  0  0  0
 10  2  1  0  0  0  0
 11 16  1  0  0  0  0
 12  3  1  0  0  0  0
 13  4  2  0  0  0  0
 14  8  1  0  0  0  0
 15  8  1  0  0  0  0
 16 15  1  0  0  0  0
 17 14  1  0  0  0  0
 18  6  2  0  0  0  0
 19  9  1  0  0  0  0
 20 10  1  0  0  0  0
 21  9  2  0  0  0  0
 22 10  2  0  0  0  0
 23 12  2  0  0  0  0
 24 12  1  0  0  0  0
 25 26  1  0  0  0  0
 26 24  2  0  0  0  0
 27 23  1  0  0  0  0
 28 25  1  0  0  0  0
  5  3  1  0  0  0  0
 11 17  1  0  0  0  0
 25 27  2  0  0  0  0
 19 20  1  0  0  0  0
M  END
> <IDNUMBER>
F5855-0774

> <Chemical_Name>
1-(2-{4-[2-(4-fluorophenyl)cyclopropanecarbonyl]piperazin-1-yl}-2-oxoethyl)pyrrolidine-2,5-dione

> <CAS>
1208543-85-4

> <PriceCoeff>
1.00

> <MW>
387.40

> <Description>
oil

> <FSP3>
0.50

> <clogP>
1.17

> <TPSA>
78.00

> <Acceptor>
4

> <Donor>
0

> <RotBonds>
6

> <HAC>
28

> <Collection>
General

$$$$
F2582-0341
  -ISIS-  06222321462D

 18 20  0  0  0  0  0  0  0  0999 V2000
    5.4792   -3.3792    0.0000 C   0  0  0  0  0  0  0  0  0  0  0  0
    5.4917   -4.2042    0.0000 C   0  0  0  0  0  0  0  0  0  0  0  0
    6.2792   -3.1167    0.0000 N   0  0  3  0  0  0  0  0  0  0  0  0
    6.2792   -4.4542    0.0000 N   0  0  0  0  0  0  0  0  0  0  0  0
    6.7667   -3.7750    0.0000 C   0  0  0  0  0  0  0  0  0  0  0  0
    4.7750   -4.6375    0.0000 N   0  0  3  0  0  0  0  0  0  0  0  0
    4.0667   -3.3792    0.0000 N   0  0  3  0  0  0  0  0  0  0  0  0
    4.0542   -4.2042    0.0000 C   0  0  0  0  0  0  0  0  0  0  0  0
    4.8000   -2.9667    0.0000 C   0  0  0  0  0  0  0  0  0  0  0  0
    7.5417   -3.5167    0.0000 N   0  0  0  0  0  0  0  0  0  0  0  0
    6.7542   -2.4500    0.0000 C   0  0  0  0  0  0  0  0  0  0  0  0
    7.5417   -2.6917    0.0000 C   0  0  0  0  0  0  0  0  0  0  0  0
    3.3042   -4.6000    0.0000 O   0  0  0  0  0  0  0  0  0  0  0  0
    4.7750   -2.1625    0.0000 O   0  0  0  0  0  0  0  0  0  0  0  0
    4.7750   -5.4542    0.0000 C   0  0  0  0  0  0  0  0  0  0  0  0
    3.3542   -2.9542    0.0000 C   0  0  0  0  0  0  0  0  0  0  0  0
    6.4917   -1.6667    0.0000 C   0  0  0  0  0  0  0  0  0  0  0  0
    8.2000   -2.2125    0.0000 C   0  0  0  0  0  0  0  0  0  0  0  0
  2  1  2  0  0  0  0
  3  1  1  0  0  0  0
  4  2  1  0  0  0  0
  5  3  1  0  0  0  0
  6  2  1  0  0  0  0
  7  9  1  0  0  0  0
  8  7  1  0  0  0  0
  9  1  1  0  0  0  0
 10  5  1  0  0  0  0
 11  3  1  0  0  0  0
 12 11  2  0  0  0  0
 13  8  2  0  0  0  0
 14  9  2  0  0  0  0
 15  6  1  0  0  0  0
 16  7  1  0  0  0  0
 17 11  1  0  0  0  0
 18 12  1  0  0  0  0
  5  4  2  0  0  0  0
  6  8  1  0  0  0  0
 12 10  1  0  0  0  0
M  END
> <IDNUMBER>
F2582-0341

> <Chemical_Name>
1,3,6,7-tetramethyl-1H,2H,3H,4H,8H-imidazo[1,2-g]purine-2,4-dione

> <CAS>
19977-27-6

> <PriceCoeff>
1.50

> <MW>
247.25

> <Description>
solid

> <FSP3>
0.36

> <clogP>
0.99

> <TPSA>
73.71

> <Acceptor>
3

> <Donor>
1

> <RotBonds>
0

> <HAC>
18

> <Collection>
Advanced

> <Reference_compound>
CHEMBL190

> <Similarity>
0.8080

$$$$
F6660-6241
  -ISIS-  06222321472D

 20 21  0  0  0  0  0  0  0  0999 V2000
    6.9792   -5.0667    0.0000 C   0  0  0  0  0  0  0  0  0  0  0  0
    5.5500   -5.0667    0.0000 C   0  0  0  0  0  0  0  0  0  0  0  0
    5.5500   -5.8917    0.0000 C   0  0  0  0  0  0  0  0  0  0  0  0
    6.2625   -4.6542    0.0000 C   0  0  0  0  0  0  0  0  0  0  0  0
    6.2625   -6.3042    0.0000 N   0  0  3  0  0  0  0  0  0  0  0  0
    6.9792   -5.8917    0.0000 C   0  0  0  0  0  0  0  0  0  0  0  0
    4.8375   -6.3042    0.0000 N   0  0  0  0  0  0  0  0  0  0  0  0
    7.7000   -4.6542    0.0000 C   0  0  0  0  0  0  0  0  0  0  0  0
    4.8375   -4.6542    0.0000 C   0  0  0  0  0  0  0  0  0  0  0  0
    9.8292   -5.0792    0.0000 C   0  0  0  0  0  0  0  0  0  0  0  0
   10.5500   -5.5042    0.0000 C   0  0  0  0  0  0  0  0  0  0  0  0
    6.2625   -3.8292    0.0000 O   0  0  0  0  0  0  0  0  0  0  0  0
    7.7042   -3.8292    0.0000 O   0  0  0  0  0  0  0  0  0  0  0  0
    4.1167   -5.8917    0.0000 C   0  0  0  0  0  0  0  0  0  0  0  0
    8.4125   -5.0750    0.0000 N   0  0  0  0  0  0  0  0  0  0  0  0
    4.1167   -5.0667    0.0000 C   0  0  0  0  0  0  0  0  0  0  0  0
    6.2625   -7.1292    0.0000 C   0  0  0  0  0  0  0  0  0  0  0  0
    9.1292   -4.6625    0.0000 C   0  0  0  0  0  0  0  0  0  0  0  0
    3.4000   -6.3167    0.0000 C   0  0  0  0  0  0  0  0  0  0  0  0
    6.9750   -7.5417    0.0000 C   0  0  0  0  0  0  0  0  0  0  0  0
  2  4  1  0  0  0  0
  3  5  1  0  0  0  0
  4  1  1  0  0  0  0
  5  6  1  0  0  0  0
  6  1  2  0  0  0  0
  7  3  1  0  0  0  0
  8  1  1  0  0  0  0
  9  2  1  0  0  0  0
 10 18  1  0  0  0  0
 11 10  3  0  0  0  0
 12  4  2  0  0  0  0
 13  8  2  0  0  0  0
 14  7  2  0  0  0  0
 15  8  1  0  0  0  0
 16  9  2  0  0  0  0
 17  5  1  0  0  0  0
 18 15  1  0  0  0  0
 19 14  1  0  0  0  0
 20 17  1  0  0  0  0
  2  3  2  0  0  0  0
 16 14  1  0  0  0  0
M  END
> <IDNUMBER>
F6660-6241

> <Chemical_Name>
1-ethyl-7-methyl-4-oxo-N-(prop-2-yn-1-yl)-1,4-dihydro-1,8-naphthyridine-3-carboxamide

> <CAS>
2379994-46-2

> <PriceCoeff>
1.00

> <MW>
269.30

> <Description>
solid

> <FSP3>
0.27

> <clogP>
0.53

> <TPSA>
62.30

> <Acceptor>
3

> <Donor>
3

> <RotBonds>
4

> <HAC>
20

> <Collection>
General

> <Reference_compound>
CHEMBL2228609

> <Similarity>
0.8070

$$$$
F3230-0010
  -ISIS-  06222321152D

 23 24  0  0  0  0  0  0  0  0999 V2000
    3.7792   -4.3000    0.0000 N   0  0  3  0  0  0  0  0  0  0  0  0
    2.9542   -4.3000    0.0000 N   0  0  0  0  0  0  0  0  0  0  0  0
    4.0292   -3.5125    0.0000 C   0  0  0  0  0  0  0  0  0  0  0  0
    3.3667   -3.0292    0.0000 C   0  0  0  0  0  0  0  0  0  0  0  0
    2.6917   -3.5125    0.0000 C   0  0  0  0  0  0  0  0  0  0  0  0
    4.3625   -4.8792    0.0000 C   0  0  3  0  0  0  0  0  0  0  0  0
    5.9000   -4.4667    0.0000 C   0  0  0  0  0  0  0  0  0  0  0  0
    5.1875   -4.8792    0.0000 C   0  0  0  0  0  0  0  0  0  0  0  0
    7.3250   -4.4542    0.0000 C   0  0  0  0  0  0  0  0  0  0  0  0
    6.6125   -4.8792    0.0000 N   0  0  0  0  0  0  0  0  0  0  0  0
    7.3250   -3.6417    0.0000 C   0  0  0  0  0  0  0  0  0  0  0  0
    8.0292   -4.8667    0.0000 C   0  0  0  0  0  0  0  0  0  0  0  0
    3.3625   -2.2042    0.0000 Cl  0  0  0  0  0  0  0  0  0  0  0  0
    5.8917   -3.6417    0.0000 O   0  0  0  0  0  0  0  0  0  0  0  0
    8.7417   -4.4625    0.0000 C   0  0  0  0  0  0  0  0  0  0  0  0
    8.0292   -3.2292    0.0000 C   0  0  0  0  0  0  0  0  0  0  0  0
    4.7417   -3.0917    0.0000 C   0  0  0  0  0  0  0  0  0  0  0  0
    1.8917   -3.2917    0.0000 C   0  0  0  0  0  0  0  0  0  0  0  0
    8.7417   -3.6417    0.0000 C   0  0  0  0  0  0  0  0  0  0  0  0
    8.0250   -2.4042    0.0000 Cl  0  0  0  0  0  0  0  0  0  0  0  0
    8.0292   -5.6917    0.0000 O   0  0  0  0  0  0  0  0  0  0  0  0
    3.9417   -5.5917    0.0000 C   0  0  0  0  0  0  0  0  0  0  0  0
    8.7417   -6.1042    0.0000 C   0  0  0  0  0  0  0  0  0  0  0  0
  2  1  1  0  0  0  0
  3  1  1  0  0  0  0
  4  3  2  0  0  0  0
  5  2  2  0  0  0  0
  6  1  1  0  0  0  0
  7  8  1  0  0  0  0
  8  6  1  0  0  0  0
  9 10  1  0  0  0  0
 10  7  1  0  0  0  0
 11  9  1  0  0  0  0
 12  9  2  0  0  0  0
 13  4  1  0  0  0  0
 14  7  2  0  0  0  0
 15 12  1  0  0  0  0
 16 11  2  0  0  0  0
 17  3  1  0  0  0  0
 18  5  1  0  0  0  0
 19 15  2  0  0  0  0
 20 16  1  0  0  0  0
 21 12  1  0  0  0  0
 22  6  1  0  0  0  0
 23 21  1  0  0  0  0
  5  4  1  0  0  0  0
 16 19  1  0  0  0  0
M  END
> <IDNUMBER>
F3230-0010

> <Chemical_Name>
N-(5-chloro-2-methoxyphenyl)-3-(4-chloro-3,5-dimethyl-1H-pyrazol-1-yl)butanamide

> <CAS>
890596-90-4

> <PriceCoeff>
1.00

> <MW>
356.25

> <Description>
solid

> <FSP3>
0.38

> <clogP>
3.51

> <TPSA>
56.15

> <Acceptor>
3

> <Donor>
1

> <RotBonds>
5

> <HAC>
23

> <Collection>
General

$$$$
F6245-0328
  -ISIS-  06222321442D

 26 28  0  0  0  0  0  0  0  0999 V2000
    0.2875    5.7167    0.0000 C   0  0  0  0  0  0  0  0  0  0  0  0
   -0.2625    5.1042    0.0000 O   0  0  0  0  0  0  0  0  0  0  0  0
   -0.1208    6.4292    0.0000 N   0  0  0  0  0  0  0  0  0  0  0  0
   -0.9333    6.2625    0.0000 N   0  0  0  0  0  0  0  0  0  0  0  0
   -1.0208    5.4417    0.0000 C   0  0  0  0  0  0  0  0  0  0  0  0
   -3.8708    3.8000    0.0000 C   0  0  0  0  0  0  0  0  0  0  0  0
    1.1042    5.6292    0.0000 C   0  0  3  0  0  0  0  0  0  0  0  0
   -3.1583    4.2042    0.0000 N   0  0  3  0  0  0  0  0  0  0  0  0
   -3.8083    2.9958    0.0000 N   0  0  0  0  0  0  0  0  0  0  0  0
   -5.8833    2.4375    0.0000 C   0  0  0  0  0  0  0  0  0  0  0  0
   -5.2083    2.8958    0.0000 C   0  0  0  0  0  0  0  0  0  0  0  0
   -1.7250    5.0292    0.0000 C   0  0  3  0  0  0  0  0  0  0  0  0
   -4.4833    2.5375    0.0000 C   0  0  0  0  0  0  0  0  0  0  0  0
   -4.6625    4.3292    0.0000 O   0  0  0  0  0  0  0  0  0  0  0  0
   -5.8208    1.6333    0.0000 C   0  0  0  0  0  0  0  0  0  0  0  0
   -2.4458    3.8083    0.0000 C   0  0  0  0  0  0  0  0  0  0  0  0
   -3.1500    5.0292    0.0000 C   0  0  0  0  0  0  0  0  0  0  0  0
    1.5542    6.3167    0.0000 F   0  0  0  0  0  0  0  0  0  0  0  0
    1.9292    5.5875    0.0000 F   0  0  0  0  0  0  0  0  0  0  0  0
    1.2750    4.8167    0.0000 F   0  0  0  0  0  0  0  0  0  0  0  0
   -1.7333    4.2042    0.0000 C   0  0  0  0  0  0  0  0  0  0  0  0
   -2.4458    5.4417    0.0000 C   0  0  0  0  0  0  0  0  0  0  0  0
   -5.0958    1.2708    0.0000 C   0  0  0  0  0  0  0  0  0  0  0  0
   -6.5917    2.7875    0.0000 Cl  0  0  0  0  0  0  0  0  0  0  0  0
   -4.4208    1.7333    0.0000 C   0  0  0  0  0  0  0  0  0  0  0  0
   -6.4792    1.1708    0.0000 Cl  0  0  0  0  0  0  0  0  0  0  0  0
  2  1  1  0  0  0  0
  3  1  2  0  0  0  0
  4  3  1  0  0  0  0
  5  2  1  0  0  0  0
  6  8  1  0  0  0  0
  7  1  1  0  0  0  0
  8 17  1  0  0  0  0
  9  6  1  0  0  0  0
 10 11  1  0  0  0  0
 11 13  2  0  0  0  0
 12  5  1  0  0  0  0
 13  9  1  0  0  0  0
 14  6  2  0  0  0  0
 15 23  1  0  0  0  0
 16 21  1  0  0  0  0
 17 22  1  0  0  0  0
 18  7  1  0  0  0  0
 19  7  1  0  0  0  0
 20  7  1  0  0  0  0
 21 12  1  0  0  0  0
 22 12  1  0  0  0  0
 23 25  2  0  0  0  0
 24 10  1  0  0  0  0
 25 13  1  0  0  0  0
 26 15  1  0  0  0  0
  5  4  2  0  0  0  0
 16  8  1  0  0  0  0
 10 15  2  0  0  0  0
M  END
> <IDNUMBER>
F6245-0328

> <Chemical_Name>
N-(3,4-dichlorophenyl)-4-[5-(trifluoromethyl)-1,3,4-oxadiazol-2-yl]piperidine-1-carboxamide

> <CAS>
1396852-53-1

> <PriceCoeff>
1.50

> <MW>
409.19

> <Description>
solid

> <FSP3>
0.40

> <clogP>
2.34

> <TPSA>
71.26

> <Acceptor>
4

> <Donor>
1

> <RotBonds>
3

> <HAC>
26

> <Collection>
Advanced

$$$$
F5381-0007
  -ISIS-  06222321462D

 26 28  0  0  0  0  0  0  0  0999 V2000
   -3.1375    4.2167    0.0000 S   0  0  3  0  0  0  0  0  0  0  0  0
   -0.9583    4.6375    0.0000 N   0  0  3  0  0  0  0  0  0  0  0  0
   -3.8625    3.8000    0.0000 N   0  0  3  0  0  0  0  0  0  0  0  0
   -2.4125    4.6417    0.0000 C   0  0  0  0  0  0  0  0  0  0  0  0
   -5.3333    2.9583    0.0000 N   0  0  3  0  0  0  0  0  0  0  0  0
   -0.9500    5.4667    0.0000 C   0  0  0  0  0  0  0  0  0  0  0  0
   -0.2250    4.2167    0.0000 C   0  0  0  0  0  0  0  0  0  0  0  0
   -1.6875    4.2125    0.0000 C   0  0  0  0  0  0  0  0  0  0  0  0
   -6.0417    2.5458    0.0000 C   0  0  0  0  0  0  0  0  0  0  0  0
   -4.6000    4.2125    0.0000 C   0  0  0  0  0  0  0  0  0  0  0  0
   -3.8708    2.9625    0.0000 C   0  0  0  0  0  0  0  0  0  0  0  0
   -2.7083    3.5000    0.0000 O   0  0  0  0  0  0  0  0  0  0  0  0
   -3.5500    4.9417    0.0000 O   0  0  0  0  0  0  0  0  0  0  0  0
   -5.3333    3.8083    0.0000 C   0  0  0  0  0  0  0  0  0  0  0  0
   -4.5958    2.5458    0.0000 C   0  0  0  0  0  0  0  0  0  0  0  0
   -0.2333    3.3833    0.0000 O   0  0  0  0  0  0  0  0  0  0  0  0
   -1.6833    5.8917    0.0000 O   0  0  0  0  0  0  0  0  0  0  0  0
   -6.7750    2.9833    0.0000 C   0  0  0  0  0  0  0  0  0  0  0  0
   -6.7667    3.8125    0.0000 F   0  0  0  0  0  0  0  0  0  0  0  0
   -0.2333    5.8917    0.0000 C   0  0  0  0  0  0  0  0  0  0  0  0
    0.5042    4.6375    0.0000 C   0  0  0  0  0  0  0  0  0  0  0  0
    0.4917    5.4667    0.0000 C   0  0  0  0  0  0  0  0  0  0  0  0
   -6.0417    1.7125    0.0000 C   0  0  0  0  0  0  0  0  0  0  0  0
   -7.5000    2.5583    0.0000 C   0  0  0  0  0  0  0  0  0  0  0  0
   -6.7667    1.2958    0.0000 C   0  0  0  0  0  0  0  0  0  0  0  0
   -7.5042    1.7125    0.0000 C   0  0  0  0  0  0  0  0  0  0  0  0
  2  8  1  0  0  0  0
  3  1  1  0  0  0  0
  4  1  1  0  0  0  0
  5 15  1  0  0  0  0
  6  2  1  0  0  0  0
  7  2  1  0  0  0  0
  8  4  1  0  0  0  0
  9  5  1  0  0  0  0
 10  3  1  0  0  0  0
 11  3  1  0  0  0  0
 12  1  2  0  0  0  0
 13  1  2  0  0  0  0
 14 10  1  0  0  0  0
 15 11  1  0  0  0  0
 16  7  2  0  0  0  0
 17  6  2  0  0  0  0
 18  9  2  0  0  0  0
 19 18  1  0  0  0  0
 20  6  1  0  0  0  0
 21  7  1  0  0  0  0
 22 21  1  0  0  0  0
 23  9  1  0  0  0  0
 24 18  1  0  0  0  0
 25 23  2  0  0  0  0
 26 25  1  0  0  0  0
  5 14  1  0  0  0  0
 20 22  1  0  0  0  0
 24 26  2  0  0  0  0
M  END
> <IDNUMBER>
F5381-0007

> <Chemical_Name>
1-(2-{[4-(2-fluorophenyl)piperazin-1-yl]sulfonyl}ethyl)piperidine-2,6-dione

> <CAS>
1040674-63-2

> <PriceCoeff>
1.00

> <MW>
383.44

> <Description>
solid

> <FSP3>
0.53

> <clogP>
2.43

> <TPSA>
86.38

> <Acceptor>
5

> <Donor>
1

> <RotBonds>
5

> <HAC>
26

> <Collection>
General

$$$$
F3316-0246
  -ISIS-  06222321152D

 20 21  0  0  0  0  0  0  0  0999 V2000
    2.1000   -1.6542    0.0000 N   0  0  3  0  0  0  0  0  0  0  0  0
    1.2792   -1.6042    0.0000 N   0  0  0  0  0  0  0  0  0  0  0  0
    1.7542   -0.3667    0.0000 C   0  0  0  0  0  0  0  0  0  0  0  0
    2.3917   -0.8792    0.0000 C   0  0  0  0  0  0  0  0  0  0  0  0
    1.0667   -0.8167    0.0000 C   0  0  0  0  0  0  0  0  0  0  0  0
    4.5667   -3.0792    0.0000 C   0  0  0  0  0  0  0  0  0  0  0  0
    4.9750   -2.3542    0.0000 C   0  0  0  0  0  0  0  0  0  0  0  0
    2.5042   -2.3667    0.0000 C   0  0  0  0  0  0  0  0  0  0  0  0
    5.8000   -2.3542    0.0000 C   0  0  0  0  0  0  0  0  0  0  0  0
    1.7500    0.4583    0.0000 Cl  0  0  0  0  0  0  0  0  0  0  0  0
    4.9750   -3.7917    0.0000 O   0  0  0  0  0  0  0  0  0  0  0  0
    3.7417   -3.0792    0.0000 N   0  0  0  0  0  0  0  0  0  0  0  0
    6.2125   -1.6417    0.0000 C   0  0  0  0  0  0  0  0  0  0  0  0
    3.1917   -0.6667    0.0000 C   0  0  0  0  0  0  0  0  0  0  0  0
    3.3292   -2.3667    0.0000 C   0  0  0  0  0  0  0  0  0  0  0  0
    0.2667   -0.6000    0.0000 C   0  0  0  0  0  0  0  0  0  0  0  0
    7.0375   -1.6417    0.0000 Br  0  0  0  0  0  0  0  0  0  0  0  0
    4.5667   -1.6500    0.0000 C   0  0  0  0  0  0  0  0  0  0  0  0
    4.9750   -0.9375    0.0000 C   0  0  0  0  0  0  0  0  0  0  0  0
    5.8000   -0.9292    0.0000 C   0  0  0  0  0  0  0  0  0  0  0  0
  2  1  1  0  0  0  0
  3  4  2  0  0  0  0
  4  1  1  0  0  0  0
  5  2  2  0  0  0  0
  6 12  1  0  0  0  0
  7  6  1  0  0  0  0
  8  1  1  0  0  0  0
  9  7  2  0  0  0  0
 10  3  1  0  0  0  0
 11  6  2  0  0  0  0
 12 15  1  0  0  0  0
 13  9  1  0  0  0  0
 14  4  1  0  0  0  0
 15  8  1  0  0  0  0
 16  5  1  0  0  0  0
 17 13  1  0  0  0  0
 18  7  1  0  0  0  0
 19 18  2  0  0  0  0
 20 19  1  0  0  0  0
  3  5  1  0  0  0  0
 13 20  2  0  0  0  0
M  END
> <IDNUMBER>
F3316-0246

> <Chemical_Name>
3-bromo-N-[2-(4-chloro-3,5-dimethyl-1H-pyrazol-1-yl)ethyl]benzamide

> <CAS>
1015845-47-2

> <PriceCoeff>
1.00

> <MW>
356.65

> <Description>
solid

> <FSP3>
0.29

> <clogP>
3.64

> <TPSA>
46.92

> <Acceptor>
2

> <Donor>
1

> <RotBonds>
4

> <HAC>
20

> <Collection>
General

$$$$
F9996-0151
  -ISIS-  06222321472D

 12 11  0  0  0  0  0  0  0  0999 V2000
   -1.6208   -0.1792    0.0000 C   0  0  0  0  0  0  0  0  0  0  0  0
   -4.0500   -0.6500    0.0000 C   0  0  0  0  0  0  0  0  0  0  0  0
   -2.4333   -0.6500    0.0000 N   0  0  0  0  0  0  0  0  0  0  0  0
   -0.8125   -0.6500    0.0000 O   0  0  0  0  0  0  0  0  0  0  0  0
   -1.6208    0.7625    0.0000 O   0  0  0  0  0  0  0  0  0  0  0  0
   -4.0500   -1.5792    0.0000 O   0  0  0  0  0  0  0  0  0  0  0  0
    0.0000   -0.1792    0.0000 C   0  0  3  0  0  0  0  0  0  0  0  0
   -3.2458   -0.1792    0.0000 C   0  0  0  0  0  0  0  0  0  0  0  0
   -4.8625   -0.1792    0.0000 N   0  0  0  0  0  0  0  0  0  0  0  0
    0.3500    0.7000    0.0000 C   0  0  0  0  0  0  0  0  0  0  0  0
   -0.3708    0.6833    0.0000 C   0  0  0  0  0  0  0  0  0  0  0  0
    0.8042   -0.6500    0.0000 C   0  0  0  0  0  0  0  0  0  0  0  0
  2  8  1  0  0  0  0
  3  1  1  0  0  0  0
  4  1  1  0  0  0  0
  5  1  2  0  0  0  0
  6  2  2  0  0  0  0
  7  4  1  0  0  0  0
  8  3  1  0  0  0  0
  9  2  1  0  0  0  0
 10  7  1  0  0  0  0
 11  7  1  0  0  0  0
 12  7  1  0  0  0  0
M  END
> <IDNUMBER>
F9996-0151

> <Chemical_Name>
tert-butyl N-(carbamoylmethyl)carbamate

> <CAS>
35150-09-5

> <PriceCoeff>
1.50

> <MW>
174.20

> <Description>
solid

> <FSP3>
0.71

> <clogP>
-0.05

> <TPSA>
81.42

> <Acceptor>
3

> <Donor>
2

> <RotBonds>
3

> <HAC>
12

> <Collection>
Advanced

> <Reference_compound>
CHEMBL508605

> <Similarity>
0.8130

$$$$
F5831-9365
  -ISIS-  06222321462D

 27 29  0  0  0  0  0  0  0  0999 V2000
   -4.5833    3.8000    0.0000 S   0  0  3  0  0  0  0  0  0  0  0  0
   -6.7167    3.3583    0.0000 N   0  0  3  0  0  0  0  0  0  0  0  0
   -7.4417    3.7583    0.0000 C   0  0  0  0  0  0  0  0  0  0  0  0
   -6.7042    2.5208    0.0000 C   0  0  0  0  0  0  0  0  0  0  0  0
   -5.2875    3.3833    0.0000 C   0  0  0  0  0  0  0  0  0  0  0  0
   -6.0042    3.7833    0.0000 C   0  0  0  0  0  0  0  0  0  0  0  0
   -3.8625    4.2125    0.0000 N   0  0  0  0  0  0  0  0  0  0  0  0
   -3.1375    5.4542    0.0000 C   0  0  3  0  0  0  0  0  0  0  0  0
   -4.1583    3.1083    0.0000 O   0  0  0  0  0  0  0  0  0  0  0  0
   -5.0083    4.5042    0.0000 O   0  0  0  0  0  0  0  0  0  0  0  0
   -3.8625    5.0292    0.0000 C   0  0  0  0  0  0  0  0  0  0  0  0
   -5.9833    2.1208    0.0000 O   0  0  0  0  0  0  0  0  0  0  0  0
   -7.4667    4.5792    0.0000 O   0  0  0  0  0  0  0  0  0  0  0  0
   -2.4333    5.0417    0.0000 C   0  0  0  0  0  0  0  0  0  0  0  0
   -3.1375    7.0917    0.0000 O   0  0  0  0  0  0  0  0  0  0  0  0
   -7.4042    2.0958    0.0000 C   0  0  0  0  0  0  0  0  0  0  0  0
   -8.1542    3.3208    0.0000 C   0  0  0  0  0  0  0  0  0  0  0  0
   -8.1292    2.4875    0.0000 C   0  0  0  0  0  0  0  0  0  0  0  0
   -3.8625    5.8667    0.0000 C   0  0  0  0  0  0  0  0  0  0  0  0
   -2.4458    5.8667    0.0000 C   0  0  0  0  0  0  0  0  0  0  0  0
   -2.4458    6.7000    0.0000 C   0  0  0  0  0  0  0  0  0  0  0  0
   -3.8625    6.7000    0.0000 C   0  0  0  0  0  0  0  0  0  0  0  0
   -2.4333    4.2125    0.0000 C   0  0  0  0  0  0  0  0  0  0  0  0
   -1.7083    5.4542    0.0000 C   0  0  0  0  0  0  0  0  0  0  0  0
   -1.7083    3.8000    0.0000 C   0  0  0  0  0  0  0  0  0  0  0  0
   -0.9958    5.0417    0.0000 C   0  0  0  0  0  0  0  0  0  0  0  0
   -0.9958    4.2125    0.0000 C   0  0  0  0  0  0  0  0  0  0  0  0
  2  6  1  0  0  0  0
  3  2  1  0  0  0  0
  4  2  1  0  0  0  0
  5  1  1  0  0  0  0
  6  5  1  0  0  0  0
  7  1  1  0  0  0  0
  8 11  1  0  0  0  0
  9  1  2  0  0  0  0
 10  1  2  0  0  0  0
 11  7  1  0  0  0  0
 12  4  2  0  0  0  0
 13  3  2  0  0  0  0
 14  8  1  0  0  0  0
 15 21  1  0  0  0  0
 16  4  1  0  0  0  0
 17  3  1  0  0  0  0
 18 16  1  0  0  0  0
 19  8  1  0  0  0  0
 20  8  1  0  0  0  0
 21 20  1  0  0  0  0
 22 19  1  0  0  0  0
 23 14  1  0  0  0  0
 24 14  2  0  0  0  0
 25 23  2  0  0  0  0
 26 24  1  0  0  0  0
 27 26  2  0  0  0  0
 15 22  1  0  0  0  0
 17 18  1  0  0  0  0
 27 25  1  0  0  0  0
M  END
> <IDNUMBER>
F5831-9365

> <Chemical_Name>
2-(2,6-dioxopiperidin-1-yl)-N-[(4-phenyloxan-4-yl)methyl]ethane-1-sulfonamide

> <CAS>
1207018-27-6

> <PriceCoeff>
1.50

> <MW>
394.49

> <Description>
solid

> <FSP3>
0.58

> <clogP>
1.34

> <TPSA>
101.16

> <Acceptor>
5

> <Donor>
1

> <RotBonds>
7

> <HAC>
27

> <Collection>
Advanced

$$$$
F3366-5347
  -ISIS-  06222321152D

  9 10  0  0  0  0  0  0  0  0999 V2000
   -0.4125    2.5458    0.0000 N   0  0  0  0  0  0  0  0  0  0  0  0
    0.0792    1.8750    0.0000 C   0  0  0  0  0  0  0  0  0  0  0  0
   -0.4000    1.1958    0.0000 N   0  0  0  0  0  0  0  0  0  0  0  0
   -1.2000    2.2833    0.0000 C   0  0  0  0  0  0  0  0  0  0  0  0
   -1.1958    1.4458    0.0000 C   0  0  0  0  0  0  0  0  0  0  0  0
   -1.9208    2.6958    0.0000 C   0  0  0  0  0  0  0  0  0  0  0  0
   -1.9208    1.0375    0.0000 C   0  0  0  0  0  0  0  0  0  0  0  0
   -2.6333    1.4500    0.0000 C   0  0  0  0  0  0  0  0  0  0  0  0
   -2.6333    2.2750    0.0000 C   0  0  0  0  0  0  0  0  0  0  0  0
  2  1  2  0  0  0  0
  3  2  1  0  0  0  0
  4  1  1  0  0  0  0
  5  4  1  0  0  0  0
  6  4  2  0  0  0  0
  7  5  2  0  0  0  0
  8  9  2  0  0  0  0
  9  6  1  0  0  0  0
  5  3  1  0  0  0  0
  8  7  1  0  0  0  0
M  END
> <IDNUMBER>
F3366-5347

> <Chemical_Name>
1H-1,3-benzodiazole

> <CAS>
51-17-2

> <PriceCoeff>
1.00

> <MW>
118.14

> <Description>
solid

> <FSP3>
0.00

> <clogP>
1.57

> <TPSA>
28.68

> <Acceptor>
2

> <Donor>
2

> <RotBonds>
0

> <HAC>
9

> <Collection>
General

> <Reference_compound>
CHEMBL306226

> <Similarity>
1.0000

$$$$
F6057-0486
  -ISIS-  06222321152D

 24 26  0  0  0  0  0  0  0  0999 V2000
   -0.8083    3.7958    0.0000 C   0  0  0  0  0  0  0  0  0  0  0  0
   -1.4000    3.2333    0.0000 N   0  0  3  0  0  0  0  0  0  0  0  0
   -4.1750    2.5625    0.0000 N   0  0  3  0  0  0  0  0  0  0  0  0
   -3.6458    3.1875    0.0000 N   0  0  0  0  0  0  0  0  0  0  0  0
   -1.0458    4.5792    0.0000 N   0  0  0  0  0  0  0  0  0  0  0  0
   -2.5958    2.1000    0.0000 N   0  0  3  0  0  0  0  0  0  0  0  0
    0.8792    5.5875    0.0000 C   0  0  0  0  0  0  0  0  0  0  0  0
    0.3167    4.9917    0.0000 C   0  0  0  0  0  0  0  0  0  0  0  0
   -0.4833    5.1708    0.0000 C   0  0  0  0  0  0  0  0  0  0  0  0
   -4.8708    3.7042    0.0000 C   0  0  0  0  0  0  0  0  0  0  0  0
   -0.0333    3.5167    0.0000 O   0  0  0  0  0  0  0  0  0  0  0  0
   -4.9458    2.8750    0.0000 C   0  0  0  0  0  0  0  0  0  0  0  0
    0.6417    6.3792    0.0000 C   0  0  0  0  0  0  0  0  0  0  0  0
   -3.9833    1.7625    0.0000 C   0  0  0  0  0  0  0  0  0  0  0  0
   -2.1958    3.4708    0.0000 C   0  0  0  0  0  0  0  0  0  0  0  0
   -1.2125    2.4333    0.0000 C   0  0  0  0  0  0  0  0  0  0  0  0
   -4.0708    3.8958    0.0000 C   0  0  0  0  0  0  0  0  0  0  0  0
   -3.1958    1.5333    0.0000 C   0  0  0  0  0  0  0  0  0  0  0  0
   -0.1583    6.5667    0.0000 C   0  0  0  0  0  0  0  0  0  0  0  0
   -2.7958    2.9000    0.0000 C   0  0  0  0  0  0  0  0  0  0  0  0
   -1.8083    1.8708    0.0000 C   0  0  0  0  0  0  0  0  0  0  0  0
    1.6792    5.4042    0.0000 Cl  0  0  0  0  0  0  0  0  0  0  0  0
   -0.7208    5.9708    0.0000 C   0  0  0  0  0  0  0  0  0  0  0  0
    1.2042    6.9792    0.0000 Cl  0  0  0  0  0  0  0  0  0  0  0  0
  2  1  1  0  0  0  0
  3 14  1  0  0  0  0
  4  3  1  0  0  0  0
  5  1  1  0  0  0  0
  6 21  1  0  0  0  0
  7  8  1  0  0  0  0
  8  9  2  0  0  0  0
  9  5  1  0  0  0  0
 10 12  2  0  0  0  0
 11  1  2  0  0  0  0
 12  3  1  0  0  0  0
 13 19  1  0  0  0  0
 14 18  1  0  0  0  0
 15  2  1  0  0  0  0
 16  2  1  0  0  0  0
 17  4  2  0  0  0  0
 18  6  1  0  0  0  0
 19 23  2  0  0  0  0
 20 15  1  0  0  0  0
 21 16  1  0  0  0  0
 22  7  1  0  0  0  0
 23  9  1  0  0  0  0
 24 13  1  0  0  0  0
  6 20  1  0  0  0  0
 13  7  2  0  0  0  0
 17 10  1  0  0  0  0
M  END
> <IDNUMBER>
F6057-0486

> <Chemical_Name>
N-(3,4-dichlorophenyl)-4-[2-(1H-pyrazol-1-yl)ethyl]piperazine-1-carboxamide

> <CAS>
1396851-74-3

> <PriceCoeff>
1.00

> <MW>
368.26

> <Description>
solid

> <FSP3>
0.38

> <clogP>
3.14

> <TPSA>
53.40

> <Acceptor>
2

> <Donor>
2

> <RotBonds>
5

> <HAC>
24

> <Collection>
General

$$$$
F6782-3511
  -ISIS-  06222321162D

 17 17  0  0  0  0  0  0  0  0999 V2000
    6.6792   -4.4542    0.0000 C   0  0  0  0  0  0  0  0  0  0  0  0
    8.8042   -4.0417    0.0000 C   0  0  0  0  0  0  0  0  0  0  0  0
    3.8250   -2.7875    0.0000 C   0  0  3  0  0  0  0  0  0  0  0  0
    4.5417   -3.2125    0.0000 C   0  0  0  0  0  0  0  0  0  0  0  0
    5.9625   -4.0375    0.0000 C   0  0  0  0  0  0  0  0  0  0  0  0
    8.8125   -3.2167    0.0000 O   0  0  0  0  0  0  0  0  0  0  0  0
    6.6750   -5.2792    0.0000 O   0  0  0  0  0  0  0  0  0  0  0  0
    4.5417   -4.0375    0.0000 C   0  0  0  0  0  0  0  0  0  0  0  0
    5.2500   -2.8000    0.0000 C   0  0  0  0  0  0  0  0  0  0  0  0
    5.9625   -3.2125    0.0000 C   0  0  0  0  0  0  0  0  0  0  0  0
    5.2500   -4.4417    0.0000 C   0  0  0  0  0  0  0  0  0  0  0  0
    7.3875   -4.0417    0.0000 C   0  0  0  0  0  0  0  0  0  0  0  0
    8.1000   -4.4542    0.0000 C   0  0  0  0  0  0  0  0  0  0  0  0
    9.5167   -4.4625    0.0000 O   0  0  0  0  0  0  0  0  0  0  0  0
    4.2417   -2.0667    0.0000 C   0  0  0  0  0  0  0  0  0  0  0  0
    3.4000   -3.5042    0.0000 C   0  0  0  0  0  0  0  0  0  0  0  0
    3.1042   -2.3667    0.0000 C   0  0  0  0  0  0  0  0  0  0  0  0
  2 13  1  0  0  0  0
  3  4  1  0  0  0  0
  4  8  2  0  0  0  0
  5  1  1  0  0  0  0
  6  2  2  0  0  0  0
  7  1  2  0  0  0  0
  8 11  1  0  0  0  0
  9 10  2  0  0  0  0
 10  5  1  0  0  0  0
 11  5  2  0  0  0  0
 12  1  1  0  0  0  0
 13 12  1  0  0  0  0
 14  2  1  0  0  0  0
 15  3  1  0  0  0  0
 16  3  1  0  0  0  0
 17  3  1  0  0  0  0
  9  4  1  0  0  0  0
M  END
> <IDNUMBER>
F6782-3511

> <Chemical_Name>
4-(4-tert-butylphenyl)-4-oxobutanoic acid

> <CAS>
35288-08-5

> <PriceCoeff>
1.00

> <MW>
234.30

> <Description>
solid

> <FSP3>
0.43

> <clogP>
3.08

> <TPSA>
54.37

> <Acceptor>
3

> <Donor>
0

> <RotBonds>
4

> <HAC>
17

> <Collection>
General

> <Reference_compound>
CHEMBL461681

> <Similarity>
0.9120

$$$$
F2167-9989
  -ISIS-  06222321462D

 17 19  0  0  0  0  0  0  0  0999 V2000
    5.8917   -5.5875    0.0000 C   0  0  0  0  0  0  0  0  0  0  0  0
    5.4042   -4.9167    0.0000 C   0  0  0  0  0  0  0  0  0  0  0  0
    5.4125   -6.2667    0.0000 N   0  0  0  0  0  0  0  0  0  0  0  0
    6.7167   -5.4917    0.0000 C   0  0  3  0  0  0  0  0  0  0  0  0
    7.0542   -4.7375    0.0000 N   0  0  3  0  0  0  0  0  0  0  0  0
    4.6167   -5.1792    0.0000 C   0  0  0  0  0  0  0  0  0  0  0  0
    4.6167   -6.0125    0.0000 C   0  0  0  0  0  0  0  0  0  0  0  0
    7.2042   -6.1625    0.0000 C   0  0  0  0  0  0  0  0  0  0  0  0
    5.7292   -4.1542    0.0000 C   0  0  0  0  0  0  0  0  0  0  0  0
    6.5542   -4.0667    0.0000 C   0  0  0  0  0  0  0  0  0  0  0  0
    8.0292   -6.0667    0.0000 O   0  0  0  0  0  0  0  0  0  0  0  0
    6.8750   -6.9167    0.0000 O   0  0  0  0  0  0  0  0  0  0  0  0
    7.8667   -4.6417    0.0000 C   0  0  0  0  0  0  0  0  0  0  0  0
    3.9000   -4.7667    0.0000 C   0  0  0  0  0  0  0  0  0  0  0  0
    3.9000   -6.4250    0.0000 C   0  0  0  0  0  0  0  0  0  0  0  0
    3.1875   -5.1875    0.0000 C   0  0  0  0  0  0  0  0  0  0  0  0
    3.1875   -6.0125    0.0000 C   0  0  0  0  0  0  0  0  0  0  0  0
  2  1  2  0  0  0  0
  3  1  1  0  0  0  0
  4  1  1  0  0  0  0
  5  4  1  0  0  0  0
  6  2  1  0  0  0  0
  7  3  1  0  0  0  0
  8  4  1  0  0  0  0
  9  2  1  0  0  0  0
 10  5  1  0  0  0  0
 11  8  2  0  0  0  0
 12  8  1  0  0  0  0
 13  5  1  0  0  0  0
 14  6  2  0  0  0  0
 15  7  2  0  0  0  0
 16 14  1  0  0  0  0
 17 15  1  0  0  0  0
  6  7  1  0  0  0  0
 10  9  1  0  0  0  0
 16 17  2  0  0  0  0
M  END
> <IDNUMBER>
F2167-9989

> <Chemical_Name>
2-methyl-1H,2H,3H,4H,9H-pyrido[3,4-b]indole-1-carboxylic acid

> <CAS>
87091-41-6

> <PriceCoeff>
1.00

> <MW>
230.26

> <Description>
solid

> <FSP3>
0.31

> <clogP>
-0.33

> <TPSA>
56.33

> <Acceptor>
2

> <Donor>
2

> <RotBonds>
1

> <HAC>
17

> <Collection>
General

> <Reference_compound>
CHEMBL491388

> <Similarity>
0.8550

$$$$
F0403-0053
  -ISIS-  06222321142D

 17 18  0  0  0  0  0  0  0  0999 V2000
    4.8667   -4.1167    0.0000 C   0  0  0  0  0  0  0  0  0  0  0  0
    4.8667   -3.3500    0.0000 C   0  0  0  0  0  0  0  0  0  0  0  0
    4.1875   -4.5167    0.0000 N   0  0  3  0  0  0  0  0  0  0  0  0
    3.5167   -4.1292    0.0000 C   0  0  0  0  0  0  0  0  0  0  0  0
    3.5167   -3.3500    0.0000 N   0  0  0  0  0  0  0  0  0  0  0  0
    5.5375   -4.5167    0.0000 N   0  0  0  0  0  0  0  0  0  0  0  0
    4.1875   -2.9542    0.0000 C   0  0  0  0  0  0  0  0  0  0  0  0
    6.2167   -3.3542    0.0000 N   0  0  3  0  0  0  0  0  0  0  0  0
    6.2042   -4.1500    0.0000 C   0  0  0  0  0  0  0  0  0  0  0  0
    7.0375   -3.3542    0.0000 C   0  0  0  0  0  0  0  0  0  0  0  0
    2.8375   -4.5167    0.0000 O   0  0  0  0  0  0  0  0  0  0  0  0
    7.4500   -2.6500    0.0000 C   0  0  0  0  0  0  0  0  0  0  0  0
    4.1875   -2.1667    0.0000 O   0  0  0  0  0  0  0  0  0  0  0  0
    7.0292   -1.9167    0.0000 O   0  0  0  0  0  0  0  0  0  0  0  0
    4.1875   -5.3000    0.0000 C   0  0  0  0  0  0  0  0  0  0  0  0
    8.2667   -2.6500    0.0000 O   0  0  0  0  0  0  0  0  0  0  0  0
    8.6792   -3.3542    0.0000 C   0  0  0  0  0  0  0  0  0  0  0  0
  2  1  2  0  0  0  0
  3  1  1  0  0  0  0
  4  3  1  0  0  0  0
  5  4  1  0  0  0  0
  6  1  1  0  0  0  0
  7  2  1  0  0  0  0
  8  2  1  0  0  0  0
  9  6  2  0  0  0  0
 10  8  1  0  0  0  0
 11  4  2  0  0  0  0
 12 10  1  0  0  0  0
 13  7  2  0  0  0  0
 14 12  2  0  0  0  0
 15  3  1  0  0  0  0
 16 12  1  0  0  0  0
 17 16  1  0  0  0  0
  9  8  1  0  0  0  0
  7  5  1  0  0  0  0
M  END
> <IDNUMBER>
F0403-0053

> <Chemical_Name>
methyl 2-(3-methyl-2,6-dioxo-2,3,6,7-tetrahydro-1H-purin-7-yl)acetate

> <CAS>
332103-74-9

> <PriceCoeff>
1.00

> <MW>
238.20

> <Description>
solid

> <FSP3>
0.33

> <clogP>
-0.90

> <TPSA>
93.53

> <Acceptor>
5

> <Donor>
2

> <RotBonds>
3

> <HAC>
17

> <Collection>
General

> <Reference_compound>
CHEMBL113

> <Similarity>
0.8230

$$$$
F5831-6629
  -ISIS-  06222321152D

 28 30  0  0  0  0  0  0  0  0999 V2000
   -4.5833    3.8000    0.0000 S   0  0  3  0  0  0  0  0  0  0  0  0
   -6.7167    3.3583    0.0000 N   0  0  3  0  0  0  0  0  0  0  0  0
   -7.4417    3.7583    0.0000 C   0  0  0  0  0  0  0  0  0  0  0  0
   -6.7042    2.5208    0.0000 C   0  0  0  0  0  0  0  0  0  0  0  0
   -5.2875    3.3833    0.0000 C   0  0  0  0  0  0  0  0  0  0  0  0
   -6.0042    3.7833    0.0000 C   0  0  0  0  0  0  0  0  0  0  0  0
   -1.7208    6.2667    0.0000 N   0  0  3  0  0  0  0  0  0  0  0  0
   -3.8625    4.2125    0.0000 N   0  0  0  0  0  0  0  0  0  0  0  0
   -4.1583    3.1083    0.0000 O   0  0  0  0  0  0  0  0  0  0  0  0
   -5.0083    4.5042    0.0000 O   0  0  0  0  0  0  0  0  0  0  0  0
   -5.9833    2.1208    0.0000 O   0  0  0  0  0  0  0  0  0  0  0  0
   -7.4667    4.5792    0.0000 O   0  0  0  0  0  0  0  0  0  0  0  0
   -1.0083    6.6792    0.0000 C   0  0  0  0  0  0  0  0  0  0  0  0
   -2.4250    6.6917    0.0000 C   0  0  0  0  0  0  0  0  0  0  0  0
   -1.7125    5.4542    0.0000 C   0  0  0  0  0  0  0  0  0  0  0  0
   -3.8625    5.0292    0.0000 C   0  0  0  0  0  0  0  0  0  0  0  0
   -3.1458    5.4500    0.0000 C   0  0  3  0  0  0  0  0  0  0  0  0
   -1.0083    7.5125    0.0000 C   0  0  0  0  0  0  0  0  0  0  0  0
   -7.4042    2.0958    0.0000 C   0  0  0  0  0  0  0  0  0  0  0  0
   -8.1542    3.3208    0.0000 C   0  0  0  0  0  0  0  0  0  0  0  0
   -2.4333    5.0417    0.0000 C   0  0  0  0  0  0  0  0  0  0  0  0
   -3.1458    6.2792    0.0000 C   0  0  0  0  0  0  0  0  0  0  0  0
   -8.1292    2.4875    0.0000 C   0  0  0  0  0  0  0  0  0  0  0  0
   -0.2875    7.9167    0.0000 C   0  0  0  0  0  0  0  0  0  0  0  0
   -1.7208    7.9167    0.0000 C   0  0  0  0  0  0  0  0  0  0  0  0
   -1.7208    8.7417    0.0000 C   0  0  0  0  0  0  0  0  0  0  0  0
   -0.2875    8.7417    0.0000 C   0  0  0  0  0  0  0  0  0  0  0  0
   -1.0083    9.1542    0.0000 C   0  0  0  0  0  0  0  0  0  0  0  0
  2  6  1  0  0  0  0
  3  2  1  0  0  0  0
  4  2  1  0  0  0  0
  5  1  1  0  0  0  0
  6  5  1  0  0  0  0
  7 14  1  0  0  0  0
  8  1  1  0  0  0  0
  9  1  2  0  0  0  0
 10  1  2  0  0  0  0
 11  4  2  0  0  0  0
 12  3  2  0  0  0  0
 13  7  1  0  0  0  0
 14 22  1  0  0  0  0
 15 21  1  0  0  0  0
 16  8  1  0  0  0  0
 17 16  1  0  0  0  0
 18 13  1  0  0  0  0
 19  4  1  0  0  0  0
 20  3  1  0  0  0  0
 21 17  1  0  0  0  0
 22 17  1  0  0  0  0
 23 19  1  0  0  0  0
 24 18  1  0  0  0  0
 25 18  2  0  0  0  0
 26 25  1  0  0  0  0
 27 24  2  0  0  0  0
 28 26  2  0  0  0  0
  7 15  1  0  0  0  0
 20 23  1  0  0  0  0
 27 28  1  0  0  0  0
M  END
> <IDNUMBER>
F5831-6629

> <Chemical_Name>
N-[(1-benzylpiperidin-4-yl)methyl]-2-(2,6-dioxopiperidin-1-yl)ethane-1-sulfonamide

> <CAS>
1210203-38-5

> <PriceCoeff>
1.00

> <MW>
407.53

> <Description>
solid

> <FSP3>
0.60

> <clogP>
2.00

> <TPSA>
95.17

> <Acceptor>
4

> <Donor>
2

> <RotBonds>
8

> <HAC>
28

> <Collection>
General

$$$$
F5381-0021
  -ISIS-  06222321152D

 26 28  0  0  0  0  0  0  0  0999 V2000
   -3.1375    4.2167    0.0000 S   0  0  3  0  0  0  0  0  0  0  0  0
   -0.9583    4.6375    0.0000 N   0  0  3  0  0  0  0  0  0  0  0  0
   -3.8625    3.8000    0.0000 N   0  0  3  0  0  0  0  0  0  0  0  0
   -2.4125    4.6417    0.0000 C   0  0  0  0  0  0  0  0  0  0  0  0
   -5.3208    2.9625    0.0000 N   0  0  3  0  0  0  0  0  0  0  0  0
   -0.9500    5.4667    0.0000 C   0  0  0  0  0  0  0  0  0  0  0  0
   -0.2250    4.2167    0.0000 C   0  0  0  0  0  0  0  0  0  0  0  0
   -1.6875    4.2125    0.0000 C   0  0  0  0  0  0  0  0  0  0  0  0
   -6.0292    2.5375    0.0000 C   0  0  0  0  0  0  0  0  0  0  0  0
   -3.8625    2.9625    0.0000 C   0  0  0  0  0  0  0  0  0  0  0  0
   -4.5958    4.2167    0.0000 C   0  0  0  0  0  0  0  0  0  0  0  0
   -2.7083    3.5000    0.0000 O   0  0  0  0  0  0  0  0  0  0  0  0
   -3.5500    4.9417    0.0000 O   0  0  0  0  0  0  0  0  0  0  0  0
   -4.5958    2.5458    0.0000 C   0  0  0  0  0  0  0  0  0  0  0  0
   -5.3208    3.8000    0.0000 C   0  0  0  0  0  0  0  0  0  0  0  0
   -0.2333    3.3833    0.0000 O   0  0  0  0  0  0  0  0  0  0  0  0
   -1.6833    5.8917    0.0000 O   0  0  0  0  0  0  0  0  0  0  0  0
   -6.7625    2.9583    0.0000 C   0  0  0  0  0  0  0  0  0  0  0  0
   -7.4792    2.5375    0.0000 C   0  0  0  0  0  0  0  0  0  0  0  0
   -0.2333    5.8917    0.0000 C   0  0  0  0  0  0  0  0  0  0  0  0
    0.5042    4.6375    0.0000 C   0  0  0  0  0  0  0  0  0  0  0  0
   -6.0292    1.6958    0.0000 C   0  0  0  0  0  0  0  0  0  0  0  0
    0.4917    5.4667    0.0000 C   0  0  0  0  0  0  0  0  0  0  0  0
   -6.7625    1.2750    0.0000 C   0  0  0  0  0  0  0  0  0  0  0  0
   -7.4792    1.6958    0.0000 C   0  0  0  0  0  0  0  0  0  0  0  0
   -8.2125    2.9583    0.0000 C   0  0  0  0  0  0  0  0  0  0  0  0
  2  8  1  0  0  0  0
  3  1  1  0  0  0  0
  4  1  1  0  0  0  0
  5 15  1  0  0  0  0
  6  2  1  0  0  0  0
  7  2  1  0  0  0  0
  8  4  1  0  0  0  0
  9  5  1  0  0  0  0
 10  3  1  0  0  0  0
 11  3  1  0  0  0  0
 12  1  2  0  0  0  0
 13  1  2  0  0  0  0
 14 10  1  0  0  0  0
 15 11  1  0  0  0  0
 16  7  2  0  0  0  0
 17  6  2  0  0  0  0
 18  9  2  0  0  0  0
 19 18  1  0  0  0  0
 20  6  1  0  0  0  0
 21  7  1  0  0  0  0
 22  9  1  0  0  0  0
 23 21  1  0  0  0  0
 24 22  2  0  0  0  0
 25 24  1  0  0  0  0
 26 19  1  0  0  0  0
 14  5  1  0  0  0  0
 20 23  1  0  0  0  0
 25 19  2  0  0  0  0
M  END
> <IDNUMBER>
F5381-0021

> <Chemical_Name>
1-(2-{[4-(3-methylphenyl)piperazin-1-yl]sulfonyl}ethyl)piperidine-2,6-dione

> <CAS>
1040675-07-7

> <PriceCoeff>
1.00

> <MW>
379.47

> <Description>
solid

> <FSP3>
0.56

> <clogP>
2.62

> <TPSA>
86.38

> <Acceptor>
5

> <Donor>
1

> <RotBonds>
5

> <HAC>
26

> <Collection>
General

$$$$
F5577-0281
  -ISIS-  06222321152D

 24 26  0  0  0  0  0  0  0  0999 V2000
   -1.0083    2.5583    0.0000 C   0  0  0  0  0  0  0  0  0  0  0  0
   -2.4333    2.5583    0.0000 C   0  0  0  0  0  0  0  0  0  0  0  0
   -1.7208    2.9833    0.0000 C   0  0  0  0  0  0  0  0  0  0  0  0
   -2.4375    1.7333    0.0000 C   0  0  0  0  0  0  0  0  0  0  0  0
   -1.0083    1.7333    0.0000 C   0  0  0  0  0  0  0  0  0  0  0  0
   -1.7208    1.3208    0.0000 N   0  0  3  0  0  0  0  0  0  0  0  0
   -3.1500    1.3208    0.0000 C   0  0  0  0  0  0  0  0  0  0  0  0
   -3.8625    1.7333    0.0000 C   0  0  0  0  0  0  0  0  0  0  0  0
   -3.1500    2.9708    0.0000 C   0  0  0  0  0  0  0  0  0  0  0  0
   -0.2875    2.9708    0.0000 C   0  0  0  0  0  0  0  0  0  0  0  0
   -3.8625    2.5583    0.0000 C   0  0  0  0  0  0  0  0  0  0  0  0
   -4.5833    1.3208    0.0000 N   0  0  3  0  0  0  0  0  0  0  0  0
   -1.7208    3.8000    0.0000 O   0  0  0  0  0  0  0  0  0  0  0  0
   -0.2875    3.7958    0.0000 O   0  0  0  0  0  0  0  0  0  0  0  0
   -4.5833    2.9708    0.0000 F   0  0  0  0  0  0  0  0  0  0  0  0
    0.4250    2.5583    0.0000 O   0  0  0  0  0  0  0  0  0  0  0  0
   -1.7250    0.4958    0.0000 C   0  0  0  0  0  0  0  0  0  0  0  0
   -4.5833    0.4958    0.0000 C   0  0  0  0  0  0  0  0  0  0  0  0
   -5.2958    1.7333    0.0000 C   0  0  0  0  0  0  0  0  0  0  0  0
    0.4250    1.7333    0.0000 C   0  0  0  0  0  0  0  0  0  0  0  0
   -5.2958    0.0833    0.0000 C   0  0  0  0  0  0  0  0  0  0  0  0
   -6.0000    1.3208    0.0000 C   0  0  0  0  0  0  0  0  0  0  0  0
   -0.2958    1.3208    0.0000 C   0  0  0  0  0  0  0  0  0  0  0  0
   -6.0125    0.4958    0.0000 C   0  0  0  0  0  0  0  0  0  0  0  0
  2  3  1  0  0  0  0
  3  1  1  0  0  0  0
  4  6  1  0  0  0  0
  5  1  2  0  0  0  0
  6  5  1  0  0  0  0
  7  4  2  0  0  0  0
  8  7  1  0  0  0  0
  9  2  2  0  0  0  0
 10  1  1  0  0  0  0
 11  9  1  0  0  0  0
 12  8  1  0  0  0  0
 13  3  2  0  0  0  0
 14 10  2  0  0  0  0
 15 11  1  0  0  0  0
 16 10  1  0  0  0  0
 17  6  1  0  0  0  0
 18 12  1  0  0  0  0
 19 12  1  0  0  0  0
 20 16  1  0  0  0  0
 21 18  1  0  0  0  0
 22 19  1  0  0  0  0
 23 20  1  0  0  0  0
 24 22  1  0  0  0  0
  4  2  1  0  0  0  0
  8 11  2  0  0  0  0
 24 21  1  0  0  0  0
M  END
> <IDNUMBER>
F5577-0281

> <Chemical_Name>
ethyl 6-fluoro-1-methyl-4-oxo-7-(piperidin-1-yl)-1,4-dihydroquinoline-3-carboxylate

> <CAS>
2549005-51-6

> <PriceCoeff>
1.00

> <MW>
332.38

> <Description>
solid

> <FSP3>
0.44

> <clogP>
2.10

> <TPSA>
49.85

> <Acceptor>
5

> <Donor>
2

> <RotBonds>
4

> <HAC>
24

> <Collection>
General

> <Reference_compound>
CHEMBL8

> <Similarity>
0.8180

$$$$
F5381-0024
  -ISIS-  06222321442D

 27 29  0  0  0  0  0  0  0  0999 V2000
   -3.1375    4.2167    0.0000 S   0  0  3  0  0  0  0  0  0  0  0  0
   -0.9583    4.6375    0.0000 N   0  0  3  0  0  0  0  0  0  0  0  0
   -3.8625    3.8000    0.0000 N   0  0  3  0  0  0  0  0  0  0  0  0
   -2.4125    4.6417    0.0000 C   0  0  0  0  0  0  0  0  0  0  0  0
   -5.3208    2.9583    0.0000 N   0  0  3  0  0  0  0  0  0  0  0  0
   -0.9500    5.4667    0.0000 C   0  0  0  0  0  0  0  0  0  0  0  0
   -0.2250    4.2167    0.0000 C   0  0  0  0  0  0  0  0  0  0  0  0
   -6.0292    2.5375    0.0000 C   0  0  0  0  0  0  0  0  0  0  0  0
   -1.6875    4.2125    0.0000 C   0  0  0  0  0  0  0  0  0  0  0  0
   -4.6000    4.2125    0.0000 C   0  0  0  0  0  0  0  0  0  0  0  0
   -3.8708    2.9583    0.0000 C   0  0  0  0  0  0  0  0  0  0  0  0
   -2.7083    3.5000    0.0000 O   0  0  0  0  0  0  0  0  0  0  0  0
   -3.5500    4.9417    0.0000 O   0  0  0  0  0  0  0  0  0  0  0  0
   -4.5958    2.5375    0.0000 C   0  0  0  0  0  0  0  0  0  0  0  0
   -5.3333    3.7958    0.0000 C   0  0  0  0  0  0  0  0  0  0  0  0
   -6.7667    2.9625    0.0000 C   0  0  0  0  0  0  0  0  0  0  0  0
   -6.0292    1.7000    0.0000 C   0  0  0  0  0  0  0  0  0  0  0  0
   -0.2333    3.3833    0.0000 O   0  0  0  0  0  0  0  0  0  0  0  0
   -1.6833    5.8917    0.0000 O   0  0  0  0  0  0  0  0  0  0  0  0
   -7.4917    2.5375    0.0000 C   0  0  0  0  0  0  0  0  0  0  0  0
   -6.7542    1.2750    0.0000 C   0  0  0  0  0  0  0  0  0  0  0  0
   -7.4917    1.6958    0.0000 C   0  0  0  0  0  0  0  0  0  0  0  0
    0.5042    4.6375    0.0000 C   0  0  0  0  0  0  0  0  0  0  0  0
   -0.2333    5.8917    0.0000 C   0  0  0  0  0  0  0  0  0  0  0  0
    0.4917    5.4667    0.0000 C   0  0  0  0  0  0  0  0  0  0  0  0
   -6.7625    3.7958    0.0000 C   0  0  0  0  0  0  0  0  0  0  0  0
   -6.7542    0.4375    0.0000 C   0  0  0  0  0  0  0  0  0  0  0  0
  2  9  1  0  0  0  0
  3  1  1  0  0  0  0
  4  1  1  0  0  0  0
  5 14  1  0  0  0  0
  6  2  1  0  0  0  0
  7  2  1  0  0  0  0
  8  5  1  0  0  0  0
  9  4  1  0  0  0  0
 10  3  1  0  0  0  0
 11  3  1  0  0  0  0
 12  1  2  0  0  0  0
 13  1  2  0  0  0  0
 14 11  1  0  0  0  0
 15 10  1  0  0  0  0
 16  8  2  0  0  0  0
 17  8  1  0  0  0  0
 18  7  2  0  0  0  0
 19  6  2  0  0  0  0
 20 16  1  0  0  0  0
 21 17  2  0  0  0  0
 22 21  1  0  0  0  0
 23  7  1  0  0  0  0
 24  6  1  0  0  0  0
 25 23  1  0  0  0  0
 26 16  1  0  0  0  0
 27 21  1  0  0  0  0
  5 15  1  0  0  0  0
 24 25  1  0  0  0  0
 22 20  2  0  0  0  0
M  END
> <IDNUMBER>
F5381-0024

> <Chemical_Name>
1-(2-{[4-(2,5-dimethylphenyl)piperazin-1-yl]sulfonyl}ethyl)piperidine-2,6-dione

> <CAS>
1040675-29-3

> <PriceCoeff>
1.00

> <MW>
393.50

> <Description>
solid

> <FSP3>
0.58

> <clogP>
3.12

> <TPSA>
86.38

> <Acceptor>
5

> <Donor>
1

> <RotBonds>
5

> <HAC>
27

> <Collection>
General

$$$$
F6390-3132
  -ISIS-  06222321462D

 24 26  0  0  0  0  0  0  0  0999 V2000
   -3.8333    3.8000    0.0000 C   0  0  0  0  0  0  0  0  0  0  0  0
   -3.0958    4.2167    0.0000 N   0  0  3  0  0  0  0  0  0  0  0  0
   -3.7833    2.9583    0.0000 N   0  0  0  0  0  0  0  0  0  0  0  0
   -2.3583    5.5042    0.0000 C   0  0  0  0  0  0  0  0  0  0  0  0
   -5.9667    2.4000    0.0000 C   0  0  0  0  0  0  0  0  0  0  0  0
   -1.5458    5.2333    0.0000 S   0  0  0  0  0  0  0  0  0  0  0  0
   -5.2500    2.8708    0.0000 C   0  0  0  0  0  0  0  0  0  0  0  0
   -3.0958    5.0792    0.0000 C   0  0  0  0  0  0  0  0  0  0  0  0
   -4.4958    2.4875    0.0000 C   0  0  0  0  0  0  0  0  0  0  0  0
   -4.5458    4.2667    0.0000 O   0  0  0  0  0  0  0  0  0  0  0  0
   -5.9125    1.5375    0.0000 C   0  0  0  0  0  0  0  0  0  0  0  0
   -2.3458    3.7958    0.0000 C   0  0  3  0  0  0  0  0  0  0  0  0
   -1.0500    5.9167    0.0000 C   0  0  0  0  0  0  0  0  0  0  0  0
   -2.3583    6.3542    0.0000 C   0  0  0  0  0  0  0  0  0  0  0  0
   -1.5458    6.6125    0.0000 C   0  0  0  0  0  0  0  0  0  0  0  0
   -0.8750    2.9458    0.0000 O   0  0  0  0  0  0  0  0  0  0  0  0
   -5.1542    1.1583    0.0000 C   0  0  0  0  0  0  0  0  0  0  0  0
   -6.7167    2.7750    0.0000 Cl  0  0  0  0  0  0  0  0  0  0  0  0
   -4.4458    1.6250    0.0000 C   0  0  0  0  0  0  0  0  0  0  0  0
   -6.6167    1.0708    0.0000 Cl  0  0  0  0  0  0  0  0  0  0  0  0
   -1.6083    4.2167    0.0000 C   0  0  0  0  0  0  0  0  0  0  0  0
   -2.3500    2.9458    0.0000 C   0  0  0  0  0  0  0  0  0  0  0  0
   -0.8708    3.7958    0.0000 C   0  0  0  0  0  0  0  0  0  0  0  0
   -1.6208    2.5208    0.0000 C   0  0  0  0  0  0  0  0  0  0  0  0
  2  1  1  0  0  0  0
  3  1  1  0  0  0  0
  4  8  1  0  0  0  0
  5  7  1  0  0  0  0
  6  4  1  0  0  0  0
  7  9  2  0  0  0  0
  8  2  1  0  0  0  0
  9  3  1  0  0  0  0
 10  1  2  0  0  0  0
 11 17  1  0  0  0  0
 12  2  1  0  0  0  0
 13  6  1  0  0  0  0
 14  4  2  0  0  0  0
 15 14  1  0  0  0  0
 16 24  1  0  0  0  0
 17 19  2  0  0  0  0
 18  5  1  0  0  0  0
 19  9  1  0  0  0  0
 20 11  1  0  0  0  0
 21 12  1  0  0  0  0
 22 12  1  0  0  0  0
 23 21  1  0  0  0  0
 24 22  1  0  0  0  0
 16 23  1  0  0  0  0
  5 11  2  0  0  0  0
 13 15  2  0  0  0  0
M  END
> <IDNUMBER>
F6390-3132

> <Chemical_Name>
3-(3,4-dichlorophenyl)-1-(oxan-4-yl)-1-[(thiophen-2-yl)methyl]urea

> <CAS>
1797077-57-6

> <PriceCoeff>
1.00

> <MW>
385.31

> <Description>
solid

> <FSP3>
0.35

> <clogP>
3.66

> <TPSA>
69.81

> <Acceptor>
2

> <Donor>
1

> <RotBonds>
5

> <HAC>
24

> <Collection>
General

$$$$
F9994-6554
  -ISIS-  06222321162D

 11 11  0  0  0  0  0  0  0  0999 V2000
   -2.9375   -1.3042    0.0000 C   0  0  0  0  0  0  0  0  0  0  0  0
   -3.7250   -1.5625    0.0000 C   0  0  3  0  0  0  0  0  0  0  0  0
   -4.3958   -1.0792    0.0000 C   0  0  0  0  0  0  0  0  0  0  0  0
   -5.0583   -1.5625    0.0000 C   0  0  0  0  0  0  0  0  0  0  0  0
   -2.7708   -0.5042    0.0000 O   0  0  0  0  0  0  0  0  0  0  0  0
   -3.9833   -2.3500    0.0000 C   0  0  0  0  0  0  0  0  0  0  0  0
   -5.8458   -1.3042    0.0000 O   0  0  0  0  0  0  0  0  0  0  0  0
   -4.8083   -2.3500    0.0000 C   0  0  0  0  0  0  0  0  0  0  0  0
   -2.3333   -1.8625    0.0000 O   0  0  0  0  0  0  0  0  0  0  0  0
   -2.5000   -2.6667    0.0000 C   0  0  0  0  0  0  0  0  0  0  0  0
   -1.8875   -3.2167    0.0000 C   0  0  0  0  0  0  0  0  0  0  0  0
  2  1  1  0  0  0  0
  3  2  1  0  0  0  0
  4  3  1  0  0  0  0
  5  1  2  0  0  0  0
  6  2  1  0  0  0  0
  7  4  2  0  0  0  0
  8  6  1  0  0  0  0
  9  1  1  0  0  0  0
 10  9  1  0  0  0  0
 11 10  1  0  0  0  0
  4  8  1  0  0  0  0
M  END
> <IDNUMBER>
F9994-6554

> <Chemical_Name>
ethyl 3-oxocyclopentane-1-carboxylate

> <CAS>
5400-79-3

> <PriceCoeff>
1.00

> <MW>
156.18

> <Description>
liquid

> <FSP3>
0.75

> <clogP>
0.45

> <TPSA>
43.37

> <Acceptor>
3

> <Donor>
0

> <RotBonds>
3

> <HAC>
11

> <Collection>
General

> <Reference_compound>
CHEMBL2268562

> <Similarity>
0.8050

$$$$
F2163-0132
  -ISIS-  06222321462D

 13 13  0  0  0  0  0  0  0  0999 V2000
    6.6917   -4.1708    0.0000 C   0  0  0  0  0  0  0  0  0  0  0  0
    5.2542   -1.6750    0.0000 C   0  0  0  0  0  0  0  0  0  0  0  0
    5.9708   -2.9250    0.0000 C   0  0  0  0  0  0  0  0  0  0  0  0
    5.9708   -3.7542    0.0000 C   0  0  2  0  0  0  0  0  0  0  0  0
    5.2542   -2.5042    0.0000 C   0  0  1  0  0  0  0  0  0  0  0  0
    6.6875   -5.0000    0.0000 O   0  0  0  0  0  0  0  0  0  0  0  0
    5.9750   -1.2625    0.0000 O   0  0  0  0  0  0  0  0  0  0  0  0
    7.4083   -3.7542    0.0000 O   0  0  0  0  0  0  0  0  0  0  0  0
    4.5375   -1.2625    0.0000 O   0  0  0  0  0  0  0  0  0  0  0  0
    5.2542   -4.1625    0.0000 C   0  0  0  0  0  0  0  0  0  0  0  0
    4.5417   -2.9250    0.0000 C   0  0  0  0  0  0  0  0  0  0  0  0
    4.5417   -3.7542    0.0000 C   0  0  0  0  0  0  0  0  0  0  0  0
    4.5375   -0.4292    0.0000 C   0  0  0  0  0  0  0  0  0  0  0  0
  5  2  1  1  0  0  0
  3  4  1  0  0  0  0
  4  1  1  1  0  0  0
  5  3  1  0  0  0  0
  6  1  2  0  0  0  0
  7  2  2  0  0  0  0
  8  1  1  0  0  0  0
  9  2  1  0  0  0  0
 10  4  1  0  0  0  0
 11  5  1  0  0  0  0
 12 10  1  0  0  0  0
 13  9  1  0  0  0  0
 12 11  1  0  0  0  0
M  END
> <IDNUMBER>
F2163-0132

> <Chemical_Name>
(1S,3R)-3-(methoxycarbonyl)cyclohexane-1-carboxylic acid

> <CAS>
25090-39-5

> <PriceCoeff>
1.50

> <MW>
186.21

> <Description>
solid

> <FSP3>
0.78

> <clogP>
1.20

> <TPSA>
63.60

> <Acceptor>
4

> <Donor>
0

> <RotBonds>
3

> <HAC>
13

> <Collection>
Advanced

> <Reference_compound>
CHEMBL2268562

> <Similarity>
0.8550

$$$$
F2167-1144
  -ISIS-  06222321442D

 16 17  0  0  0  0  0  0  0  0999 V2000
    2.3333   -0.4333    0.0000 C   0  0  0  0  0  0  0  0  0  0  0  0
    2.7542   -1.1458    0.0000 N   0  0  3  0  0  0  0  0  0  0  0  0
    3.3167   -1.5917    0.0000 C   0  0  3  0  0  0  0  0  0  0  0  0
    2.8917   -1.9667    0.0000 C   0  0  3  0  0  0  0  0  0  0  0  0
    1.5083   -0.4458    0.0000 O   0  0  0  0  0  0  0  0  0  0  0  0
    3.8792   -1.9667    0.0000 C   0  0  0  0  0  0  0  0  0  0  0  0
    4.2583   -1.5708    0.0000 C   0  0  0  0  0  0  0  0  0  0  0  0
    2.7375    0.2833    0.0000 O   0  0  0  0  0  0  0  0  0  0  0  0
    4.4042   -2.4000    0.0000 C   0  0  3  0  0  0  0  0  0  0  0  0
    2.9917   -2.3083    0.0000 C   0  0  0  0  0  0  0  0  0  0  0  0
    2.3625   -2.6875    0.0000 C   0  0  0  0  0  0  0  0  0  0  0  0
    1.0875    0.2667    0.0000 C   0  0  3  0  0  0  0  0  0  0  0  0
    4.8167   -3.1167    0.0000 O   0  0  0  0  0  0  0  0  0  0  0  0
    0.2625    0.2583    0.0000 C   0  0  0  0  0  0  0  0  0  0  0  0
    1.4917    0.9833    0.0000 C   0  0  0  0  0  0  0  0  0  0  0  0
    0.8833   -0.5333    0.0000 C   0  0  0  0  0  0  0  0  0  0  0  0
  2  1  1  0  0  0  0
  3  2  1  0  0  0  0
  4  2  1  0  0  0  0
  5  1  1  0  0  0  0
  6  4  1  0  0  0  0
  7  3  1  0  0  0  0
  8  1  2  0  0  0  0
  9  7  1  0  0  0  0
 10  3  1  0  0  0  0
 11  4  1  0  0  0  0
 12  5  1  0  0  0  0
 13  9  1  0  0  0  0
 14 12  1  0  0  0  0
 15 12  1  0  0  0  0
 16 12  1  0  0  0  0
 10 11  1  0  0  0  0
  6  9  1  0  0  0  0
M  END
> <IDNUMBER>
F2167-1144

> <Chemical_Name>
tert-butyl 3-hydroxy-8-azabicyclo[3.2.1]octane-8-carboxylate

> <CAS>
478837-18-2

> <PriceCoeff>
1.50

> <MW>
227.30

> <Description>
solid

> <FSP3>
0.92

> <clogP>
1.10

> <TPSA>
49.77

> <Acceptor>
3

> <Donor>
1

> <RotBonds>
2

> <HAC>
16

> <Collection>
Advanced

> <Reference_compound>
PRI4988

> <Similarity>
0.8580

$$$$
F2167-9988
  -ISIS-  06222321442D

 16 18  0  0  0  0  0  0  0  0999 V2000
   -1.9458   -5.8667    0.0000 C   0  0  0  0  0  0  0  0  0  0  0  0
   -2.4333   -6.5417    0.0000 N   0  0  0  0  0  0  0  0  0  0  0  0
   -2.4375   -5.2000    0.0000 C   0  0  0  0  0  0  0  0  0  0  0  0
   -1.1250   -5.7750    0.0000 C   0  0  3  0  0  0  0  0  0  0  0  0
   -3.2250   -5.4625    0.0000 C   0  0  0  0  0  0  0  0  0  0  0  0
   -3.2208   -6.2917    0.0000 C   0  0  0  0  0  0  0  0  0  0  0  0
   -0.6333   -6.4417    0.0000 C   0  0  0  0  0  0  0  0  0  0  0  0
   -0.7875   -5.0167    0.0000 N   0  0  0  0  0  0  0  0  0  0  0  0
    0.1875   -6.3500    0.0000 O   0  0  0  0  0  0  0  0  0  0  0  0
   -2.1083   -4.4375    0.0000 C   0  0  0  0  0  0  0  0  0  0  0  0
   -0.9708   -7.1917    0.0000 O   0  0  0  0  0  0  0  0  0  0  0  0
   -1.2833   -4.3417    0.0000 C   0  0  0  0  0  0  0  0  0  0  0  0
   -3.9458   -5.0500    0.0000 C   0  0  0  0  0  0  0  0  0  0  0  0
   -3.9458   -6.7042    0.0000 C   0  0  0  0  0  0  0  0  0  0  0  0
   -4.6583   -5.4625    0.0000 C   0  0  0  0  0  0  0  0  0  0  0  0
   -4.6583   -6.2917    0.0000 C   0  0  0  0  0  0  0  0  0  0  0  0
  2  1  1  0  0  0  0
  3  1  2  0  0  0  0
  4  1  1  0  0  0  0
  5  3  1  0  0  0  0
  6  2  1  0  0  0  0
  7  4  1  0  0  0  0
  8  4  1  0  0  0  0
  9  7  2  0  0  0  0
 10  3  1  0  0  0  0
 11  7  1  0  0  0  0
 12  8  1  0  0  0  0
 13  5  2  0  0  0  0
 14  6  2  0  0  0  0
 15 13  1  0  0  0  0
 16 14  1  0  0  0  0
  5  6  1  0  0  0  0
 12 10  1  0  0  0  0
 15 16  2  0  0  0  0
M  END
> <IDNUMBER>
F2167-9988

> <Chemical_Name>
1H,2H,3H,4H,9H-pyrido[3,4-b]indole-1-carboxylic acid

> <CAS>
6649-91-8

> <PriceCoeff>
1.00

> <MW>
216.24

> <Description>
solid

> <FSP3>
0.25

> <clogP>
-1.20

> <TPSA>
65.12

> <Acceptor>
2

> <Donor>
2

> <RotBonds>
1

> <HAC>
16

> <Collection>
General

> <Reference_compound>
CHEMBL149177

> <Similarity>
0.8400

$$$$
F6359-1880
  -ISIS-  06222321462D

 26 28  0  0  0  0  0  0  0  0999 V2000
   -4.5833    3.8000    0.0000 C   0  0  0  0  0  0  0  0  0  0  0  0
   -3.8625    4.2125    0.0000 N   0  0  3  0  0  0  0  0  0  0  0  0
   -1.0083    5.0625    0.0000 C   0  0  0  0  0  0  0  0  0  0  0  0
   -1.0000    4.2292    0.0000 C   0  0  0  0  0  0  0  0  0  0  0  0
   -4.5833    2.9792    0.0000 N   0  0  0  0  0  0  0  0  0  0  0  0
   -1.7083    3.8208    0.0000 C   0  0  0  0  0  0  0  0  0  0  0  0
   -2.4208    3.3917    0.0000 N   0  0  0  0  0  0  0  0  0  0  0  0
   -6.0042    1.3375    0.0000 C   0  0  0  0  0  0  0  0  0  0  0  0
   -5.3083    1.7458    0.0000 C   0  0  0  0  0  0  0  0  0  0  0  0
   -1.7333    5.4667    0.0000 O   0  0  0  0  0  0  0  0  0  0  0  0
   -0.2958    5.4792    0.0000 N   0  0  0  0  0  0  0  0  0  0  0  0
   -5.3000    2.5792    0.0000 C   0  0  0  0  0  0  0  0  0  0  0  0
   -5.3000    4.2125    0.0000 O   0  0  0  0  0  0  0  0  0  0  0  0
   -3.1458    3.8083    0.0000 C   0  0  0  0  0  0  0  0  0  0  0  0
   -3.8583    5.0458    0.0000 C   0  0  0  0  0  0  0  0  0  0  0  0
   -6.7167    1.7458    0.0000 C   0  0  0  0  0  0  0  0  0  0  0  0
   -2.4333    4.2167    0.0000 C   0  0  0  0  0  0  0  0  0  0  0  0
   -3.1583    5.4542    0.0000 C   0  0  0  0  0  0  0  0  0  0  0  0
   -2.4458    5.0458    0.0000 C   0  0  3  0  0  0  0  0  0  0  0  0
   -6.7208    2.5708    0.0000 C   0  0  0  0  0  0  0  0  0  0  0  0
   -6.0042    0.5083    0.0000 Cl  0  0  0  0  0  0  0  0  0  0  0  0
   -6.0042    2.9833    0.0000 C   0  0  0  0  0  0  0  0  0  0  0  0
   -7.4417    1.3250    0.0000 Cl  0  0  0  0  0  0  0  0  0  0  0  0
   -0.2833    3.8333    0.0000 C   0  0  0  0  0  0  0  0  0  0  0  0
    0.4250    5.0750    0.0000 C   0  0  0  0  0  0  0  0  0  0  0  0
    0.4292    4.2417    0.0000 C   0  0  0  0  0  0  0  0  0  0  0  0
  2  1  1  0  0  0  0
  3 10  1  0  0  0  0
  4  3  1  0  0  0  0
  5  1  1  0  0  0  0
  6  4  1  0  0  0  0
  7  6  3  0  0  0  0
  8  9  1  0  0  0  0
  9 12  2  0  0  0  0
 10 19  1  0  0  0  0
 11  3  2  0  0  0  0
 12  5  1  0  0  0  0
 13  1  2  0  0  0  0
 14  2  1  0  0  0  0
 15  2  1  0  0  0  0
 16 20  1  0  0  0  0
 17 14  1  0  0  0  0
 18 15  1  0  0  0  0
 19 18  1  0  0  0  0
 20 22  2  0  0  0  0
 21  8  1  0  0  0  0
 22 12  1  0  0  0  0
 23 16  1  0  0  0  0
 24  4  2  0  0  0  0
 25 11  1  0  0  0  0
 26 25  2  0  0  0  0
 17 19  1  0  0  0  0
  8 16  2  0  0  0  0
 26 24  1  0  0  0  0
M  END
> <IDNUMBER>
F6359-1880

> <Chemical_Name>
4-[(3-cyanopyridin-2-yl)oxy]-N-(3,4-dichlorophenyl)piperidine-1-carboxamide

> <CAS>
1797536-10-7

> <PriceCoeff>
1.50

> <MW>
391.25

> <Description>
solid

> <FSP3>
0.28

> <clogP>
3.28

> <TPSA>
78.25

> <Acceptor>
4

> <Donor>
2

> <RotBonds>
4

> <HAC>
26

> <Collection>
Advanced

$$$$
F1913-8005
  -ISIS-  06222321452D

 18 18  0  0  0  0  0  0  0  0999 V2000
   13.3292   -0.8750    0.0000 C   0  0  0  0  0  0  0  0  0  0  0  0
   13.3292   -0.0500    0.0000 N   0  0  0  0  0  0  0  0  0  0  0  0
   12.6167    1.1875    0.0000 C   0  0  0  0  0  0  0  0  0  0  0  0
   12.6167    0.3625    0.0000 C   0  0  3  0  0  0  0  0  0  0  0  0
   12.6167   -1.2875    0.0000 O   0  0  0  0  0  0  0  0  0  0  0  0
   13.3292    1.6000    0.0000 O   0  0  0  0  0  0  0  0  0  0  0  0
   14.0500   -1.2875    0.0000 O   0  0  0  0  0  0  0  0  0  0  0  0
   11.9042    1.6000    0.0000 O   0  0  0  0  0  0  0  0  0  0  0  0
   11.9042   -0.0500    0.0000 C   0  0  0  0  0  0  0  0  0  0  0  0
   14.0500   -2.1125    0.0000 C   0  0  0  0  0  0  0  0  0  0  0  0
   14.7625   -2.5250    0.0000 C   0  0  0  0  0  0  0  0  0  0  0  0
   10.4792   -0.0500    0.0000 F   0  0  0  0  0  0  0  0  0  0  0  0
   11.1917    0.3625    0.0000 C   0  0  0  0  0  0  0  0  0  0  0  0
   14.7625   -3.3500    0.0000 C   0  0  0  0  0  0  0  0  0  0  0  0
   15.4750   -2.1125    0.0000 C   0  0  0  0  0  0  0  0  0  0  0  0
   16.1875   -2.5167    0.0000 C   0  0  0  0  0  0  0  0  0  0  0  0
   15.4750   -3.7625    0.0000 C   0  0  0  0  0  0  0  0  0  0  0  0
   16.1917   -3.3500    0.0000 C   0  0  0  0  0  0  0  0  0  0  0  0
  2  1  1  0  0  0  0
  3  4  1  0  0  0  0
  4  2  1  0  0  0  0
  5  1  2  0  0  0  0
  6  3  2  0  0  0  0
  7  1  1  0  0  0  0
  8  3  1  0  0  0  0
  9  4  1  0  0  0  0
 10  7  1  0  0  0  0
 11 10  1  0  0  0  0
 12 13  1  0  0  0  0
 13  9  1  0  0  0  0
 14 11  2  0  0  0  0
 15 11  1  0  0  0  0
 16 15  2  0  0  0  0
 17 14  1  0  0  0  0
 18 16  1  0  0  0  0
 17 18  2  0  0  0  0
M  END
> <IDNUMBER>
F1913-8005

> <Chemical_Name>
2-{[(benzyloxy)carbonyl]amino}-4-fluorobutanoic acid

> <CAS>
1518305-66-2

> <PriceCoeff>
1.00

> <MW>
255.25

> <Description>
solid

> <FSP3>
0.33

> <clogP>
1.42

> <TPSA>
75.63

> <Acceptor>
4

> <Donor>
1

> <RotBonds>
7

> <HAC>
18

> <Collection>
General

> <Reference_compound>
CHEMBL367937

> <Similarity>
0.8080

$$$$
F0373-1007
  -ISIS-  06222321442D

 16 18  0  0  0  0  0  0  0  0999 V2000
   -1.8458   -0.9542    0.0000 C   0  0  0  0  0  0  0  0  0  0  0  0
   -1.8500   -0.1500    0.0000 C   0  0  0  0  0  0  0  0  0  0  0  0
   -1.1333   -1.3792    0.0000 N   0  0  0  0  0  0  0  0  0  0  0  0
   -0.4208   -0.9542    0.0000 C   0  0  0  0  0  0  0  0  0  0  0  0
   -0.4208   -0.1500    0.0000 N   0  0  3  0  0  0  0  0  0  0  0  0
   -2.5625   -1.3792    0.0000 N   0  0  3  0  0  0  0  0  0  0  0  0
   -3.2708   -0.9542    0.0000 C   0  0  0  0  0  0  0  0  0  0  0  0
   -3.2708   -0.1500    0.0000 N   0  0  0  0  0  0  0  0  0  0  0  0
   -2.5625    0.2500    0.0000 C   0  0  0  0  0  0  0  0  0  0  0  0
    0.2792   -1.3792    0.0000 N   0  0  0  0  0  0  0  0  0  0  0  0
    1.0000   -0.1500    0.0000 C   0  0  0  0  0  0  0  0  0  0  0  0
    1.0000   -0.9542    0.0000 C   0  0  0  0  0  0  0  0  0  0  0  0
   -3.9833   -1.3792    0.0000 O   0  0  0  0  0  0  0  0  0  0  0  0
   -2.5625    1.0833    0.0000 O   0  0  0  0  0  0  0  0  0  0  0  0
   -2.5625   -2.2000    0.0000 C   0  0  0  0  0  0  0  0  0  0  0  0
    1.7000   -1.3542    0.0000 C   0  0  0  0  0  0  0  0  0  0  0  0
  2  1  2  0  0  0  0
  3  1  1  0  0  0  0
  4  3  2  0  0  0  0
  5  2  1  0  0  0  0
  6  1  1  0  0  0  0
  7  6  1  0  0  0  0
  8  7  1  0  0  0  0
  9  2  1  0  0  0  0
 10  4  1  0  0  0  0
 11  5  1  0  0  0  0
 12 10  1  0  0  0  0
 13  7  2  0  0  0  0
 14  9  2  0  0  0  0
 15  6  1  0  0  0  0
 16 12  1  0  0  0  0
  9  8  1  0  0  0  0
  5  4  1  0  0  0  0
 12 11  2  0  0  0  0
M  END
> <IDNUMBER>
F0373-1007

> <Chemical_Name>
1,7-dimethyl-1H,2H,3H,4H,8H-imidazo[1,2-g]purine-2,4-dione

> <CAS>
303969-70-2

> <PriceCoeff>
1.00

> <MW>
219.20

> <Description>
solid

> <FSP3>
0.22

> <clogP>
0.14

> <TPSA>
82.50

> <Acceptor>
3

> <Donor>
2

> <RotBonds>
0

> <HAC>
16

> <Collection>
General

> <Reference_compound>
CHEMBL190

> <Similarity>
0.8130

$$$$
F0722-8675
  -ISIS-  06222321142D

 16 18  0  0  0  0  0  0  0  0999 V2000
    1.5542   -1.6500    0.0000 N   0  0  0  0  0  0  0  0  0  0  0  0
    0.2292   -1.2167    0.0000 C   0  0  0  0  0  0  0  0  0  0  0  0
    2.4000   -0.5042    0.0000 C   0  0  0  0  0  0  0  0  0  0  0  0
    0.2292    0.1833    0.0000 C   0  0  0  0  0  0  0  0  0  0  0  0
    1.5667    0.6458    0.0000 C   0  0  0  0  0  0  0  0  0  0  0  0
   -0.9833   -1.9292    0.0000 C   0  0  0  0  0  0  0  0  0  0  0  0
   -1.0000    0.8958    0.0000 C   0  0  0  0  0  0  0  0  0  0  0  0
    3.8375   -0.3500    0.0000 C   0  0  0  0  0  0  0  0  0  0  0  0
    4.4292    0.9333    0.0000 N   0  0  0  0  0  0  0  0  0  0  0  0
   -2.2125   -1.2375    0.0000 C   0  0  0  0  0  0  0  0  0  0  0  0
   -2.2333    0.1625    0.0000 C   0  0  0  0  0  0  0  0  0  0  0  0
    3.5792    2.1000    0.0000 C   0  0  0  0  0  0  0  0  0  0  0  0
    2.1542    1.9583    0.0000 C   0  0  0  0  0  0  0  0  0  0  0  0
   -3.4833   -1.9292    0.0000 O   0  0  0  0  0  0  0  0  0  0  0  0
    4.6875   -1.5167    0.0000 C   0  0  0  0  0  0  0  0  0  0  0  0
   -4.7208   -1.2000    0.0000 C   0  0  0  0  0  0  0  0  0  0  0  0
  2  1  1  0  0  0  0
  3  1  1  0  0  0  0
  4  2  2  0  0  0  0
  5  3  1  0  0  0  0
  6  2  1  0  0  0  0
  7  4  1  0  0  0  0
  8  3  2  0  0  0  0
  9  8  1  0  0  0  0
 10  6  2  0  0  0  0
 11 10  1  0  0  0  0
 12  9  2  0  0  0  0
 13  5  2  0  0  0  0
 14 10  1  0  0  0  0
 15  8  1  0  0  0  0
 16 14  1  0  0  0  0
  4  5  1  0  0  0  0
 12 13  1  0  0  0  0
 11  7  2  0  0  0  0
M  END
> <IDNUMBER>
F0722-8675

> <Chemical_Name>
7-methoxy-1-methyl-9H-pyrido[3,4-b]indole

> <CAS>
442-51-3

> <PriceCoeff>
1.00

> <MW>
212.25

> <Description>
solid

> <FSP3>
0.15

> <clogP>
3.13

> <TPSA>
37.91

> <Acceptor>
2

> <Donor>
2

> <RotBonds>
1

> <HAC>
16

> <Collection>
General

> <Reference_compound>
CHEMBL269538

> <Similarity>
1.0000

$$$$
F2733-0046
  -ISIS-  06222321462D

 25 28  0  0  0  0  0  0  0  0999 V2000
    0.8792    5.7500    0.0000 N   0  0  3  0  0  0  0  0  0  0  0  0
   -2.4833    2.6083    0.0000 C   0  0  0  0  0  0  0  0  0  0  0  0
   -3.2958    2.7208    0.0000 C   0  0  0  0  0  0  0  0  0  0  0  0
   -1.9833    3.2583    0.0000 N   0  0  0  0  0  0  0  0  0  0  0  0
   -1.1583    3.1500    0.0000 C   0  0  0  0  0  0  0  0  0  0  0  0
    0.6167    6.5292    0.0000 C   0  0  0  0  0  0  0  0  0  0  0  0
    1.6917    5.7542    0.0000 C   0  0  0  0  0  0  0  0  0  0  0  0
   -3.8083    2.0708    0.0000 C   0  0  0  0  0  0  0  0  0  0  0  0
   -2.1708    1.8458    0.0000 N   0  0  0  0  0  0  0  0  0  0  0  0
   -3.4958    1.3083    0.0000 N   0  0  0  0  0  0  0  0  0  0  0  0
   -4.5833    2.3500    0.0000 S   0  0  0  0  0  0  0  0  0  0  0  0
    0.3667    5.0917    0.0000 C   0  0  0  0  0  0  0  0  0  0  0  0
   -2.6833    1.1958    0.0000 C   0  0  0  0  0  0  0  0  0  0  0  0
   -0.6583    3.8000    0.0000 C   0  0  0  0  0  0  0  0  0  0  0  0
   -4.5583    3.1750    0.0000 C   0  0  0  0  0  0  0  0  0  0  0  0
   -3.7583    3.4083    0.0000 C   0  0  0  0  0  0  0  0  0  0  0  0
   -0.8500    2.3833    0.0000 O   0  0  0  0  0  0  0  0  0  0  0  0
    1.2875    7.0292    0.0000 C   0  0  0  0  0  0  0  0  0  0  0  0
    1.9417    6.5417    0.0000 C   0  0  0  0  0  0  0  0  0  0  0  0
   -0.1833    6.8000    0.0000 O   0  0  0  0  0  0  0  0  0  0  0  0
    2.1875    5.0917    0.0000 O   0  0  0  0  0  0  0  0  0  0  0  0
   -0.4625    5.2167    0.0000 C   0  0  0  0  0  0  0  0  0  0  0  0
    0.6625    4.3292    0.0000 C   0  0  0  0  0  0  0  0  0  0  0  0
    0.1542    3.6958    0.0000 C   0  0  0  0  0  0  0  0  0  0  0  0
   -0.9708    4.5667    0.0000 C   0  0  0  0  0  0  0  0  0  0  0  0
  2  4  1  0  0  0  0
  3  2  1  0  0  0  0
  4  5  1  0  0  0  0
  5 14  1  0  0  0  0
  6  1  1  0  0  0  0
  7  1  1  0  0  0  0
  8  3  2  0  0  0  0
  9  2  2  0  0  0  0
 10 13  2  0  0  0  0
 11  8  1  0  0  0  0
 12  1  1  0  0  0  0
 13  9  1  0  0  0  0
 14 24  2  0  0  0  0
 15 16  2  0  0  0  0
 16  3  1  0  0  0  0
 17  5  2  0  0  0  0
 18  6  1  0  0  0  0
 19  7  1  0  0  0  0
 20  6  2  0  0  0  0
 21  7  2  0  0  0  0
 22 12  1  0  0  0  0
 23 12  2  0  0  0  0
 24 23  1  0  0  0  0
 25 22  2  0  0  0  0
 18 19  1  0  0  0  0
 25 14  1  0  0  0  0
 10  8  1  0  0  0  0
 11 15  1  0  0  0  0
M  END
> <IDNUMBER>
F2733-0046

> <Chemical_Name>
4-(2,5-dioxopyrrolidin-1-yl)-N-{thieno[2,3-d]pyrimidin-4-yl}benzamide

> <CAS>
1004052-97-4

> <PriceCoeff>
1.00

> <MW>
352.37

> <Description>
solid

> <FSP3>
0.12

> <clogP>
0.67

> <TPSA>
120.50

> <Acceptor>
5

> <Donor>
1

> <RotBonds>
3

> <HAC>
25

> <Collection>
General

$$$$
F2158-2187
  -ISIS-  06222321142D

 13 13  0  0  0  0  0  0  0  0999 V2000
    1.3375   -0.8125    0.0000 C   0  0  0  0  0  0  0  0  0  0  0  0
    2.0458   -0.3917    0.0000 C   0  0  0  0  0  0  0  0  0  0  0  0
    2.7583   -0.8125    0.0000 C   0  0  0  0  0  0  0  0  0  0  0  0
    1.3375   -1.6375    0.0000 C   0  0  0  0  0  0  0  0  0  0  0  0
    2.7583   -1.6375    0.0000 C   0  0  0  0  0  0  0  0  0  0  0  0
    2.0458   -2.0417    0.0000 O   0  0  0  0  0  0  0  0  0  0  0  0
    4.1875   -3.2875    0.0000 C   0  0  0  0  0  0  0  0  0  0  0  0
    2.0458    0.4333    0.0000 O   0  0  0  0  0  0  0  0  0  0  0  0
    4.9000   -2.8750    0.0000 O   0  0  0  0  0  0  0  0  0  0  0  0
    3.4708   -2.8750    0.0000 O   0  0  0  0  0  0  0  0  0  0  0  0
    0.6208   -0.4000    0.0000 O   0  0  0  0  0  0  0  0  0  0  0  0
    3.4750   -2.0500    0.0000 C   0  0  0  0  0  0  0  0  0  0  0  0
    4.1833   -4.1125    0.0000 C   0  0  0  0  0  0  0  0  0  0  0  0
  2  1  1  0  0  0  0
  3  2  1  0  0  0  0
  4  1  2  0  0  0  0
  5  3  2  0  0  0  0
  6  4  1  0  0  0  0
  7 10  1  0  0  0  0
  8  2  2  0  0  0  0
  9  7  2  0  0  0  0
 10 12  1  0  0  0  0
 11  1  1  0  0  0  0
 12  5  1  0  0  0  0
 13  7  1  0  0  0  0
  5  6  1  0  0  0  0
M  END
> <IDNUMBER>
F2158-2187

> <Chemical_Name>
(5-hydroxy-4-oxo-4H-pyran-2-yl)methyl acetate

> <CAS>
25552-08-3

> <PriceCoeff>
1.00

> <MW>
184.15

> <Description>
solid

> <FSP3>
0.25

> <clogP>
-0.53

> <TPSA>
72.83

> <Acceptor>
5

> <Donor>
1

> <RotBonds>
3

> <HAC>
13

> <Collection>
General

> <Reference_compound>
CHEMBL287556

> <Similarity>
0.8320

$$$$
F5381-0010
  -ISIS-  06222321152D

 27 29  0  0  0  0  0  0  0  0999 V2000
   -3.1375    4.2167    0.0000 S   0  0  3  0  0  0  0  0  0  0  0  0
   -0.9583    4.6375    0.0000 N   0  0  3  0  0  0  0  0  0  0  0  0
   -3.8625    3.8000    0.0000 N   0  0  3  0  0  0  0  0  0  0  0  0
   -2.4125    4.6417    0.0000 C   0  0  0  0  0  0  0  0  0  0  0  0
   -5.3333    2.9708    0.0000 N   0  0  3  0  0  0  0  0  0  0  0  0
   -0.9500    5.4667    0.0000 C   0  0  0  0  0  0  0  0  0  0  0  0
   -0.2250    4.2167    0.0000 C   0  0  0  0  0  0  0  0  0  0  0  0
   -1.6875    4.2125    0.0000 C   0  0  0  0  0  0  0  0  0  0  0  0
   -6.0417    2.5458    0.0000 C   0  0  0  0  0  0  0  0  0  0  0  0
   -4.6000    4.2167    0.0000 C   0  0  0  0  0  0  0  0  0  0  0  0
   -3.8708    2.9708    0.0000 C   0  0  0  0  0  0  0  0  0  0  0  0
   -2.7083    3.5000    0.0000 O   0  0  0  0  0  0  0  0  0  0  0  0
   -3.5500    4.9417    0.0000 O   0  0  0  0  0  0  0  0  0  0  0  0
   -4.5958    2.5458    0.0000 C   0  0  0  0  0  0  0  0  0  0  0  0
   -5.3333    3.8083    0.0000 C   0  0  0  0  0  0  0  0  0  0  0  0
   -0.2333    3.3833    0.0000 O   0  0  0  0  0  0  0  0  0  0  0  0
   -1.6833    5.8917    0.0000 O   0  0  0  0  0  0  0  0  0  0  0  0
   -6.7750    2.9833    0.0000 C   0  0  0  0  0  0  0  0  0  0  0  0
    0.5042    4.6375    0.0000 C   0  0  0  0  0  0  0  0  0  0  0  0
   -0.2333    5.8917    0.0000 C   0  0  0  0  0  0  0  0  0  0  0  0
   -6.7667    3.8083    0.0000 O   0  0  0  0  0  0  0  0  0  0  0  0
    0.4917    5.4667    0.0000 C   0  0  0  0  0  0  0  0  0  0  0  0
   -6.0417    1.7125    0.0000 C   0  0  0  0  0  0  0  0  0  0  0  0
   -7.5000    2.5500    0.0000 C   0  0  0  0  0  0  0  0  0  0  0  0
   -7.4917    4.2167    0.0000 C   0  0  0  0  0  0  0  0  0  0  0  0
   -6.7667    1.2958    0.0000 C   0  0  0  0  0  0  0  0  0  0  0  0
   -7.5042    1.7083    0.0000 C   0  0  0  0  0  0  0  0  0  0  0  0
  2  8  1  0  0  0  0
  3  1  1  0  0  0  0
  4  1  1  0  0  0  0
  5 14  1  0  0  0  0
  6  2  1  0  0  0  0
  7  2  1  0  0  0  0
  8  4  1  0  0  0  0
  9  5  1  0  0  0  0
 10  3  1  0  0  0  0
 11  3  1  0  0  0  0
 12  1  2  0  0  0  0
 13  1  2  0  0  0  0
 14 11  1  0  0  0  0
 15 10  1  0  0  0  0
 16  7  2  0  0  0  0
 17  6  2  0  0  0  0
 18  9  2  0  0  0  0
 19  7  1  0  0  0  0
 20  6  1  0  0  0  0
 21 18  1  0  0  0  0
 22 19  1  0  0  0  0
 23  9  1  0  0  0  0
 24 18  1  0  0  0  0
 25 21  1  0  0  0  0
 26 23  2  0  0  0  0
 27 26  1  0  0  0  0
  5 15  1  0  0  0  0
 20 22  1  0  0  0  0
 24 27  2  0  0  0  0
M  END
> <IDNUMBER>
F5381-0010

> <Chemical_Name>
1-(2-{[4-(2-methoxyphenyl)piperazin-1-yl]sulfonyl}ethyl)piperidine-2,6-dione

> <CAS>
1040674-71-2

> <PriceCoeff>
1.00

> <MW>
395.47

> <Description>
solid

> <FSP3>
0.56

> <clogP>
2.14

> <TPSA>
95.61

> <Acceptor>
6

> <Donor>
1

> <RotBonds>
6

> <HAC>
27

> <Collection>
General

$$$$
F5381-0005
  -ISIS-  06222321462D

 26 28  0  0  0  0  0  0  0  0999 V2000
   -3.1375    4.2167    0.0000 S   0  0  3  0  0  0  0  0  0  0  0  0
   -0.9583    4.6375    0.0000 N   0  0  3  0  0  0  0  0  0  0  0  0
   -3.8625    3.8000    0.0000 N   0  0  3  0  0  0  0  0  0  0  0  0
   -2.4125    4.6417    0.0000 C   0  0  0  0  0  0  0  0  0  0  0  0
   -5.3333    2.9625    0.0000 N   0  0  3  0  0  0  0  0  0  0  0  0
   -0.9500    5.4667    0.0000 C   0  0  0  0  0  0  0  0  0  0  0  0
   -0.2250    4.2167    0.0000 C   0  0  0  0  0  0  0  0  0  0  0  0
   -1.6875    4.2125    0.0000 C   0  0  0  0  0  0  0  0  0  0  0  0
   -6.0417    2.5500    0.0000 C   0  0  0  0  0  0  0  0  0  0  0  0
   -4.5958    4.2167    0.0000 C   0  0  0  0  0  0  0  0  0  0  0  0
   -3.8625    2.9708    0.0000 C   0  0  0  0  0  0  0  0  0  0  0  0
   -2.7083    3.5000    0.0000 O   0  0  0  0  0  0  0  0  0  0  0  0
   -3.5500    4.9417    0.0000 O   0  0  0  0  0  0  0  0  0  0  0  0
   -4.5958    2.5500    0.0000 C   0  0  0  0  0  0  0  0  0  0  0  0
   -5.3333    3.8083    0.0000 C   0  0  0  0  0  0  0  0  0  0  0  0
   -0.2333    3.3833    0.0000 O   0  0  0  0  0  0  0  0  0  0  0  0
   -1.6833    5.8917    0.0000 O   0  0  0  0  0  0  0  0  0  0  0  0
   -6.7750    2.9708    0.0000 C   0  0  0  0  0  0  0  0  0  0  0  0
   -6.7667    3.8083    0.0000 Cl  0  0  0  0  0  0  0  0  0  0  0  0
   -0.2333    5.8917    0.0000 C   0  0  0  0  0  0  0  0  0  0  0  0
    0.5042    4.6375    0.0000 C   0  0  0  0  0  0  0  0  0  0  0  0
    0.4917    5.4667    0.0000 C   0  0  0  0  0  0  0  0  0  0  0  0
   -6.0417    1.7208    0.0000 C   0  0  0  0  0  0  0  0  0  0  0  0
   -7.5000    2.5500    0.0000 C   0  0  0  0  0  0  0  0  0  0  0  0
   -6.7667    1.2958    0.0000 C   0  0  0  0  0  0  0  0  0  0  0  0
   -7.4917    1.7083    0.0000 C   0  0  0  0  0  0  0  0  0  0  0  0
  2  8  1  0  0  0  0
  3  1  1  0  0  0  0
  4  1  1  0  0  0  0
  5 14  1  0  0  0  0
  6  2  1  0  0  0  0
  7  2  1  0  0  0  0
  8  4  1  0  0  0  0
  9  5  1  0  0  0  0
 10  3  1  0  0  0  0
 11  3  1  0  0  0  0
 12  1  2  0  0  0  0
 13  1  2  0  0  0  0
 14 11  1  0  0  0  0
 15 10  1  0  0  0  0
 16  7  2  0  0  0  0
 17  6  2  0  0  0  0
 18  9  2  0  0  0  0
 19 18  1  0  0  0  0
 20  6  1  0  0  0  0
 21  7  1  0  0  0  0
 22 21  1  0  0  0  0
 23  9  1  0  0  0  0
 24 18  1  0  0  0  0
 25 23  2  0  0  0  0
 26 25  1  0  0  0  0
  5 15  1  0  0  0  0
 20 22  1  0  0  0  0
 24 26  2  0  0  0  0
M  END
> <IDNUMBER>
F5381-0005

> <Chemical_Name>
1-(2-{[4-(2-chlorophenyl)piperazin-1-yl]sulfonyl}ethyl)piperidine-2,6-dione

> <CAS>
1040674-55-2

> <PriceCoeff>
1.00

> <MW>
399.89

> <Description>
solid

> <FSP3>
0.53

> <clogP>
3.00

> <TPSA>
86.38

> <Acceptor>
5

> <Donor>
1

> <RotBonds>
5

> <HAC>
26

> <Collection>
General

$$$$
F5381-0015
  -ISIS-  06222321152D

 28 30  0  0  0  0  0  0  0  0999 V2000
   -3.1375    4.2167    0.0000 S   0  0  3  0  0  0  0  0  0  0  0  0
   -0.9583    4.6375    0.0000 N   0  0  3  0  0  0  0  0  0  0  0  0
   -3.8625    3.8000    0.0000 N   0  0  3  0  0  0  0  0  0  0  0  0
   -2.4125    4.6417    0.0000 C   0  0  0  0  0  0  0  0  0  0  0  0
   -0.2250    4.2167    0.0000 C   0  0  0  0  0  0  0  0  0  0  0  0
   -0.9500    5.4667    0.0000 C   0  0  0  0  0  0  0  0  0  0  0  0
   -5.3208    2.9708    0.0000 N   0  0  3  0  0  0  0  0  0  0  0  0
   -1.6875    4.2125    0.0000 C   0  0  0  0  0  0  0  0  0  0  0  0
   -3.8625    2.9625    0.0000 C   0  0  0  0  0  0  0  0  0  0  0  0
   -4.5958    4.2167    0.0000 C   0  0  0  0  0  0  0  0  0  0  0  0
   -3.5500    4.9417    0.0000 O   0  0  0  0  0  0  0  0  0  0  0  0
   -2.7083    3.5000    0.0000 O   0  0  0  0  0  0  0  0  0  0  0  0
   -6.0292    2.5583    0.0000 C   0  0  0  0  0  0  0  0  0  0  0  0
   -4.5833    2.5500    0.0000 C   0  0  0  0  0  0  0  0  0  0  0  0
   -5.3208    3.8083    0.0000 C   0  0  0  0  0  0  0  0  0  0  0  0
   -7.4917    1.7125    0.0000 C   0  0  0  0  0  0  0  0  0  0  0  0
   -8.2167    1.2958    0.0000 C   0  0  0  0  0  0  0  0  0  0  0  0
   -0.2333    3.3833    0.0000 O   0  0  0  0  0  0  0  0  0  0  0  0
   -1.6833    5.8917    0.0000 O   0  0  0  0  0  0  0  0  0  0  0  0
   -8.9417    1.7125    0.0000 O   0  0  0  0  0  0  0  0  0  0  0  0
   -6.0292    1.7125    0.0000 C   0  0  0  0  0  0  0  0  0  0  0  0
   -6.7667    2.9708    0.0000 C   0  0  0  0  0  0  0  0  0  0  0  0
   -7.5000    2.5583    0.0000 C   0  0  0  0  0  0  0  0  0  0  0  0
   -6.7542    1.2875    0.0000 C   0  0  0  0  0  0  0  0  0  0  0  0
    0.5042    4.6375    0.0000 C   0  0  0  0  0  0  0  0  0  0  0  0
   -0.2333    5.8917    0.0000 C   0  0  0  0  0  0  0  0  0  0  0  0
    0.4917    5.4667    0.0000 C   0  0  0  0  0  0  0  0  0  0  0  0
   -8.2167    0.4583    0.0000 C   0  0  0  0  0  0  0  0  0  0  0  0
  2  8  1  0  0  0  0
  3  1  1  0  0  0  0
  4  1  1  0  0  0  0
  5  2  1  0  0  0  0
  6  2  1  0  0  0  0
  7 15  1  0  0  0  0
  8  4  1  0  0  0  0
  9  3  1  0  0  0  0
 10  3  1  0  0  0  0
 11  1  2  0  0  0  0
 12  1  2  0  0  0  0
 13  7  1  0  0  0  0
 14  9  1  0  0  0  0
 15 10  1  0  0  0  0
 16 23  2  0  0  0  0
 17 16  1  0  0  0  0
 18  5  2  0  0  0  0
 19  6  2  0  0  0  0
 20 17  2  0  0  0  0
 21 13  1  0  0  0  0
 22 13  2  0  0  0  0
 23 22  1  0  0  0  0
 24 21  2  0  0  0  0
 25  5  1  0  0  0  0
 26  6  1  0  0  0  0
 27 26  1  0  0  0  0
 28 17  1  0  0  0  0
 14  7  1  0  0  0  0
 27 25  1  0  0  0  0
 16 24  1  0  0  0  0
M  END
> <IDNUMBER>
F5381-0015

> <Chemical_Name>
1-(2-{[4-(4-acetylphenyl)piperazin-1-yl]sulfonyl}ethyl)piperidine-2,6-dione

> <CAS>
1040674-86-9

> <PriceCoeff>
1.00

> <MW>
407.48

> <Description>
solid

> <FSP3>
0.53

> <clogP>
1.87

> <TPSA>
103.45

> <Acceptor>
6

> <Donor>
1

> <RotBonds>
6

> <HAC>
28

> <Collection>
General

$$$$
F6356-0566
  -ISIS-  06222321442D

 19 20  0  0  0  0  0  0  0  0999 V2000
   -5.2833    2.5708    0.0000 N   0  0  3  0  0  0  0  0  0  0  0  0
   -5.3708    1.7458    0.0000 C   0  0  0  0  0  0  0  0  0  0  0  0
   -6.0292    2.9000    0.0000 C   0  0  0  0  0  0  0  0  0  0  0  0
   -4.5833    3.8000    0.0000 C   0  0  0  0  0  0  0  0  0  0  0  0
   -4.5792    2.9875    0.0000 C   0  0  0  0  0  0  0  0  0  0  0  0
   -3.1583    6.2792    0.0000 C   0  0  0  0  0  0  0  0  0  0  0  0
   -3.8625    4.2125    0.0000 N   0  0  0  0  0  0  0  0  0  0  0  0
   -3.5875    7.5500    0.0000 O   0  0  0  0  0  0  0  0  0  0  0  0
   -6.1667    1.5708    0.0000 C   0  0  0  0  0  0  0  0  0  0  0  0
   -6.5792    2.2833    0.0000 C   0  0  0  0  0  0  0  0  0  0  0  0
   -4.7500    1.1833    0.0000 O   0  0  0  0  0  0  0  0  0  0  0  0
   -6.2042    3.7083    0.0000 O   0  0  0  0  0  0  0  0  0  0  0  0
   -3.8375    6.7625    0.0000 C   0  0  0  0  0  0  0  0  0  0  0  0
   -2.4958    6.7750    0.0000 C   0  0  0  0  0  0  0  0  0  0  0  0
   -5.2958    4.2125    0.0000 O   0  0  0  0  0  0  0  0  0  0  0  0
   -2.7583    7.5542    0.0000 C   0  0  0  0  0  0  0  0  0  0  0  0
   -3.1583    5.4542    0.0000 C   0  0  0  0  0  0  0  0  0  0  0  0
   -3.8625    5.0333    0.0000 C   0  0  3  0  0  0  0  0  0  0  0  0
   -4.5833    5.4417    0.0000 C   0  0  0  0  0  0  0  0  0  0  0  0
  2  1  1  0  0  0  0
  3  1  1  0  0  0  0
  4  5  1  0  0  0  0
  5  1  1  0  0  0  0
  6 17  1  0  0  0  0
  7  4  1  0  0  0  0
  8 13  1  0  0  0  0
  9  2  1  0  0  0  0
 10  3  1  0  0  0  0
 11  2  2  0  0  0  0
 12  3  2  0  0  0  0
 13  6  2  0  0  0  0
 14  6  1  0  0  0  0
 15  4  2  0  0  0  0
 16 14  2  0  0  0  0
 17 18  1  0  0  0  0
 18  7  1  0  0  0  0
 19 18  1  0  0  0  0
 10  9  1  0  0  0  0
  8 16  1  0  0  0  0
M  END
> <IDNUMBER>
F6356-0566

> <Chemical_Name>
2-(2,5-dioxopyrrolidin-1-yl)-N-[1-(furan-3-yl)propan-2-yl]acetamide

> <CAS>
1795410-48-8

> <PriceCoeff>
1.00

> <MW>
264.28

> <Description>
solid

> <FSP3>
0.46

> <clogP>
0.34

> <TPSA>
79.62

> <Acceptor>
4

> <Donor>
1

> <RotBonds>
5

> <HAC>
19

> <Collection>
General

$$$$
F3259-0262
  -ISIS-  06222321462D

 18 19  0  0  0  0  0  0  0  0999 V2000
    4.7792   -3.9250    0.0000 C   0  0  0  0  0  0  0  0  0  0  0  0
    4.7792   -3.1500    0.0000 C   0  0  0  0  0  0  0  0  0  0  0  0
    4.0917   -4.3167    0.0000 N   0  0  3  0  0  0  0  0  0  0  0  0
    3.4292   -3.1500    0.0000 N   0  0  3  0  0  0  0  0  0  0  0  0
    3.4292   -3.9292    0.0000 C   0  0  0  0  0  0  0  0  0  0  0  0
    4.0917   -2.7542    0.0000 C   0  0  0  0  0  0  0  0  0  0  0  0
    5.4417   -4.3167    0.0000 N   0  0  0  0  0  0  0  0  0  0  0  0
    6.1292   -3.1542    0.0000 N   0  0  3  0  0  0  0  0  0  0  0  0
    6.1167   -3.9417    0.0000 C   0  0  0  0  0  0  0  0  0  0  0  0
    2.7542   -4.3167    0.0000 O   0  0  0  0  0  0  0  0  0  0  0  0
    4.0917   -1.9667    0.0000 O   0  0  0  0  0  0  0  0  0  0  0  0
    4.0917   -5.1000    0.0000 C   0  0  0  0  0  0  0  0  0  0  0  0
    2.6750   -2.9417    0.0000 C   0  0  0  0  0  0  0  0  0  0  0  0
    6.9250   -2.9417    0.0000 C   0  0  0  0  0  0  0  0  0  0  0  0
    7.1375   -2.1417    0.0000 C   0  0  0  0  0  0  0  0  0  0  0  0
    8.1417   -1.1375    0.0000 C   0  0  0  0  0  0  0  0  0  0  0  0
    7.9292   -1.9292    0.0000 C   0  0  0  0  0  0  0  0  0  0  0  0
    8.9417   -0.9250    0.0000 C   0  0  0  0  0  0  0  0  0  0  0  0
  2  1  2  0  0  0  0
  3  1  1  0  0  0  0
  4  5  1  0  0  0  0
  5  3  1  0  0  0  0
  6  2  1  0  0  0  0
  7  1  1  0  0  0  0
  8  2  1  0  0  0  0
  9  7  2  0  0  0  0
 10  5  2  0  0  0  0
 11  6  2  0  0  0  0
 12  3  1  0  0  0  0
 13  4  1  0  0  0  0
 14  8  1  0  0  0  0
 15 14  1  0  0  0  0
 16 17  1  0  0  0  0
 17 15  1  0  0  0  0
 18 16  1  0  0  0  0
  9  8  1  0  0  0  0
  6  4  1  0  0  0  0
M  END
> <IDNUMBER>
F3259-0262

> <Chemical_Name>
1,3-dimethyl-7-pentyl-2,3,6,7-tetrahydro-1H-purine-2,6-dione

> <CAS>
1086-06-2

> <PriceCoeff>
1.00

> <MW>
250.30

> <Description>
solid

> <FSP3>
0.58

> <clogP>
2.08

> <TPSA>
58.44

> <Acceptor>
3

> <Donor>
1

> <RotBonds>
4

> <HAC>
18

> <Collection>
General

> <Reference_compound>
CHEMBL113

> <Similarity>
0.8990

$$$$
F6037-0311
  -ISIS-  06222321462D

 26 29  0  0  0  0  0  0  0  0999 V2000
    9.4167   -5.1417    0.0000 S   0  0  3  0  0  0  0  0  0  0  0  0
   12.2250   -5.1917    0.0000 C   0  0  0  0  0  0  0  0  0  0  0  0
   10.2417   -5.1542    0.0000 N   0  0  3  0  0  0  0  0  0  0  0  0
    7.3375   -5.8167    0.0000 N   0  0  3  0  0  0  0  0  0  0  0  0
   12.6917   -5.8667    0.0000 N   0  0  0  0  0  0  0  0  0  0  0  0
   11.4042   -5.1792    0.0000 C   0  0  3  0  0  0  0  0  0  0  0  0
   12.7167   -4.5375    0.0000 N   0  0  0  0  0  0  0  0  0  0  0  0
    8.5917   -5.1292    0.0000 C   0  0  0  0  0  0  0  0  0  0  0  0
    6.9375   -5.1000    0.0000 C   0  0  0  0  0  0  0  0  0  0  0  0
    6.9042   -6.5167    0.0000 C   0  0  0  0  0  0  0  0  0  0  0  0
   10.8292   -4.5875    0.0000 C   0  0  0  0  0  0  0  0  0  0  0  0
   10.8125   -5.7500    0.0000 C   0  0  0  0  0  0  0  0  0  0  0  0
    8.1667   -5.8375    0.0000 C   0  0  0  0  0  0  0  0  0  0  0  0
   13.4875   -5.6292    0.0000 C   0  0  0  0  0  0  0  0  0  0  0  0
   13.5000   -4.8042    0.0000 C   0  0  0  0  0  0  0  0  0  0  0  0
    9.4375   -4.3167    0.0000 O   0  0  0  0  0  0  0  0  0  0  0  0
    9.4042   -5.9667    0.0000 O   0  0  0  0  0  0  0  0  0  0  0  0
    7.3625   -4.3792    0.0000 O   0  0  0  0  0  0  0  0  0  0  0  0
    7.3042   -7.2417    0.0000 O   0  0  0  0  0  0  0  0  0  0  0  0
    6.0792   -6.5042    0.0000 C   0  0  0  0  0  0  0  0  0  0  0  0
    6.1167   -5.0792    0.0000 C   0  0  0  0  0  0  0  0  0  0  0  0
    5.6875   -5.7792    0.0000 C   0  0  0  0  0  0  0  0  0  0  0  0
   14.1875   -6.0542    0.0000 C   0  0  0  0  0  0  0  0  0  0  0  0
   14.2292   -4.4042    0.0000 C   0  0  0  0  0  0  0  0  0  0  0  0
   14.9292   -4.8375    0.0000 C   0  0  0  0  0  0  0  0  0  0  0  0
   14.9042   -5.6625    0.0000 C   0  0  0  0  0  0  0  0  0  0  0  0
  2  6  1  0  0  0  0
  3  1  1  0  0  0  0
  4 13  1  0  0  0  0
  5  2  2  0  0  0  0
  6 12  1  0  0  0  0
  7  2  1  0  0  0  0
  8  1  1  0  0  0  0
  9  4  1  0  0  0  0
 10  4  1  0  0  0  0
 11  3  1  0  0  0  0
 12  3  1  0  0  0  0
 13  8  1  0  0  0  0
 14  5  1  0  0  0  0
 15  7  1  0  0  0  0
 16  1  2  0  0  0  0
 17  1  2  0  0  0  0
 18  9  2  0  0  0  0
 19 10  2  0  0  0  0
 20 10  1  0  0  0  0
 21  9  1  0  0  0  0
 22 20  1  0  0  0  0
 23 14  2  0  0  0  0
 24 15  2  0  0  0  0
 25 24  1  0  0  0  0
 26 23  1  0  0  0  0
  6 11  1  0  0  0  0
 22 21  1  0  0  0  0
 14 15  1  0  0  0  0
 26 25  2  0  0  0  0
M  END
> <IDNUMBER>
F6037-0311

> <Chemical_Name>
1-(2-{[3-(1H-1,3-benzodiazol-2-yl)azetidin-1-yl]sulfonyl}ethyl)piperidine-2,6-dione

> <CAS>
1251612-31-3

> <PriceCoeff>
1.00

> <MW>
376.43

> <Description>
solid

> <FSP3>
0.47

> <clogP>
0.73

> <TPSA>
111.82

> <Acceptor>
6

> <Donor>
2

> <RotBonds>
5

> <HAC>
26

> <Collection>
General

$$$$
F3260-0409
  -ISIS-  06222321152D

 18 19  0  0  0  0  0  0  0  0999 V2000
    3.4125    2.1000    0.0000 C   0  0  0  0  0  0  0  0  0  0  0  0
    4.7417    1.6708    0.0000 N   0  0  0  0  0  0  0  0  0  0  0  0
    3.4125    3.5000    0.0000 C   0  0  0  0  0  0  0  0  0  0  0  0
    2.1917    1.4000    0.0000 N   0  0  3  0  0  0  0  0  0  0  0  0
    0.9875    2.1000    0.0000 C   0  0  0  0  0  0  0  0  0  0  0  0
    0.9875    3.5000    0.0000 N   0  0  0  0  0  0  0  0  0  0  0  0
    5.5667    2.8000    0.0000 C   0  0  0  0  0  0  0  0  0  0  0  0
    2.1917    4.2000    0.0000 C   0  0  0  0  0  0  0  0  0  0  0  0
    4.7417    3.9333    0.0000 N   0  0  3  0  0  0  0  0  0  0  0  0
    0.0000    1.1125    0.0000 O   0  0  0  0  0  0  0  0  0  0  0  0
    2.1917    5.5917    0.0000 O   0  0  0  0  0  0  0  0  0  0  0  0
    6.9667    2.8000    0.0000 N   0  0  0  0  0  0  0  0  0  0  0  0
    2.1917   -0.0000    0.0000 C   0  0  0  0  0  0  0  0  0  0  0  0
    5.1750    5.2625    0.0000 C   0  0  0  0  0  0  0  0  0  0  0  0
    7.6667    4.0042    0.0000 C   0  0  0  0  0  0  0  0  0  0  0  0
    6.5417    5.5542    0.0000 C   0  0  0  0  0  0  0  0  0  0  0  0
    9.0667    4.0042    0.0000 C   0  0  0  0  0  0  0  0  0  0  0  0
    9.7667    5.2167    0.0000 C   0  0  0  0  0  0  0  0  0  0  0  0
  2  1  1  0  0  0  0
  3  1  2  0  0  0  0
  4  1  1  0  0  0  0
  5  4  1  0  0  0  0
  6  5  1  0  0  0  0
  7  2  2  0  0  0  0
  8  3  1  0  0  0  0
  9  3  1  0  0  0  0
 10  5  2  0  0  0  0
 11  8  2  0  0  0  0
 12  7  1  0  0  0  0
 13  4  1  0  0  0  0
 14  9  1  0  0  0  0
 15 12  1  0  0  0  0
 16 14  1  0  0  0  0
 17 15  1  0  0  0  0
 18 17  1  0  0  0  0
  9  7  1  0  0  0  0
  6  8  1  0  0  0  0
M  END
> <IDNUMBER>
F3260-0409

> <Chemical_Name>
7-ethyl-3-methyl-8-(propylamino)-2,3,6,7-tetrahydro-1H-purine-2,6-dione

> <CAS>
923113-55-7

> <PriceCoeff>
1.00

> <MW>
251.28

> <Description>
solid

> <FSP3>
0.55

> <clogP>
1.48

> <TPSA>
79.26

> <Acceptor>
3

> <Donor>
3

> <RotBonds>
4

> <HAC>
18

> <Collection>
General

> <Reference_compound>
CHEMBL113

> <Similarity>
0.8000

$$$$
F1916-0069
  -ISIS-  06222321142D

 24 26  0  0  0  0  0  0  0  0999 V2000
    3.5792  -16.3917    0.0000 N   0  0  0  0  0  0  0  0  0  0  0  0
    5.0000  -15.5667    0.0000 N   0  0  0  0  0  0  0  0  0  0  0  0
    4.2875  -16.8000    0.0000 C   0  0  0  0  0  0  0  0  0  0  0  0
    4.2875  -15.1500    0.0000 C   0  0  0  0  0  0  0  0  0  0  0  0
    3.5792  -15.5667    0.0000 C   0  0  3  0  0  0  0  0  0  0  0  0
    5.0000  -16.3917    0.0000 C   0  0  3  0  0  0  0  0  0  0  0  0
    4.2875  -14.3250    0.0000 O   0  0  0  0  0  0  0  0  0  0  0  0
    4.2875  -17.6250    0.0000 O   0  0  0  0  0  0  0  0  0  0  0  0
    2.8625  -15.1542    0.0000 C   0  0  0  0  0  0  0  0  0  0  0  0
    5.7167  -16.8042    0.0000 C   0  0  0  0  0  0  0  0  0  0  0  0
    2.8542  -14.3292    0.0000 C   0  0  0  0  0  0  0  0  0  0  0  0
    5.7125  -17.6292    0.0000 C   0  0  0  0  0  0  0  0  0  0  0  0
    2.8542  -12.6792    0.0000 C   0  0  0  0  0  0  0  0  0  0  0  0
    5.7125  -19.2750    0.0000 C   0  0  0  0  0  0  0  0  0  0  0  0
    2.1417  -13.9167    0.0000 C   0  0  0  0  0  0  0  0  0  0  0  0
    4.9917  -18.0375    0.0000 C   0  0  0  0  0  0  0  0  0  0  0  0
    3.5667  -13.9167    0.0000 C   0  0  0  0  0  0  0  0  0  0  0  0
    6.4250  -18.0375    0.0000 C   0  0  0  0  0  0  0  0  0  0  0  0
    4.9917  -18.8625    0.0000 C   0  0  0  0  0  0  0  0  0  0  0  0
    3.5667  -13.0917    0.0000 C   0  0  0  0  0  0  0  0  0  0  0  0
    6.4292  -18.8625    0.0000 C   0  0  0  0  0  0  0  0  0  0  0  0
    2.1333  -13.1000    0.0000 C   0  0  0  0  0  0  0  0  0  0  0  0
    2.8500  -11.8542    0.0000 O   0  0  0  0  0  0  0  0  0  0  0  0
    5.7125  -20.1000    0.0000 O   0  0  0  0  0  0  0  0  0  0  0  0
  2  4  1  0  0  0  0
  3  1  1  0  0  0  0
  4  5  1  0  0  0  0
  5  1  1  0  0  0  0
  6  3  1  0  0  0  0
  7  4  2  0  0  0  0
  8  3  2  0  0  0  0
  9  5  1  0  0  0  0
 10  6  1  0  0  0  0
 11  9  1  0  0  0  0
 12 10  1  0  0  0  0
 13 20  2  0  0  0  0
 14 21  1  0  0  0  0
 15 11  1  0  0  0  0
 16 12  2  0  0  0  0
 17 11  2  0  0  0  0
 18 12  1  0  0  0  0
 19 16  1  0  0  0  0
 20 17  1  0  0  0  0
 21 18  2  0  0  0  0
 22 15  2  0  0  0  0
 23 13  1  0  0  0  0
 24 14  1  0  0  0  0
  6  2  1  0  0  0  0
 22 13  1  0  0  0  0
 19 14  2  0  0  0  0
M  END
> <IDNUMBER>
F1916-0069

> <Chemical_Name>
3,6-bis[(4-hydroxyphenyl)methyl]piperazine-2,5-dione

> <CAS>
5625-40-1

> <PriceCoeff>
1.00

> <MW>
326.35

> <Description>
solid

> <FSP3>
0.22

> <clogP>
0.82

> <TPSA>
135.45

> <Acceptor>
4

> <Donor>
4

> <RotBonds>
4

> <HAC>
24

> <Collection>
General

> <Reference_compound>
CHEMBL1160514

> <Similarity>
0.8970

$$$$
F5461-1211
  -ISIS-  06222321462D

 30 34  0  0  0  0  0  0  0  0999 V2000
   -3.8958    0.5000    0.0000 N   0  0  3  0  0  0  0  0  0  0  0  0
   -1.6833    6.7792    0.0000 N   0  0  0  0  0  0  0  0  0  0  0  0
   -1.4333    7.5667    0.0000 C   0  0  0  0  0  0  0  0  0  0  0  0
   -3.8708    3.8000    0.0000 C   0  0  0  0  0  0  0  0  0  0  0  0
   -1.0083    6.2917    0.0000 C   0  0  0  0  0  0  0  0  0  0  0  0
   -3.1583    4.2125    0.0000 N   0  0  3  0  0  0  0  0  0  0  0  0
   -3.2208    0.0083    0.0000 C   0  0  0  0  0  0  0  0  0  0  0  0
   -4.5625    0.0208    0.0000 C   0  0  0  0  0  0  0  0  0  0  0  0
   -1.9125    8.2292    0.0000 C   0  0  3  0  0  0  0  0  0  0  0  0
   -0.3375    6.7792    0.0000 S   0  0  0  0  0  0  0  0  0  0  0  0
   -0.6000    7.5667    0.0000 C   0  0  0  0  0  0  0  0  0  0  0  0
   -2.0000    9.0417    0.0000 C   0  0  0  0  0  0  0  0  0  0  0  0
   -2.6625    8.5625    0.0000 C   0  0  0  0  0  0  0  0  0  0  0  0
   -1.7333    5.0417    0.0000 N   0  0  3  0  0  0  0  0  0  0  0  0
   -3.8833    1.3208    0.0000 C   0  0  0  0  0  0  0  0  0  0  0  0
   -3.8708    2.9833    0.0000 C   0  0  0  0  0  0  0  0  0  0  0  0
   -1.0000    5.4625    0.0000 C   0  0  0  0  0  0  0  0  0  0  0  0
   -4.5833    4.2125    0.0000 O   0  0  0  0  0  0  0  0  0  0  0  0
   -3.4833   -0.7792    0.0000 C   0  0  0  0  0  0  0  0  0  0  0  0
   -4.3208   -0.7667    0.0000 C   0  0  0  0  0  0  0  0  0  0  0  0
   -2.4375    3.8000    0.0000 C   0  0  0  0  0  0  0  0  0  0  0  0
   -3.1583    5.0292    0.0000 C   0  0  0  0  0  0  0  0  0  0  0  0
   -2.4375    0.2500    0.0000 O   0  0  0  0  0  0  0  0  0  0  0  0
   -5.3458    0.2833    0.0000 O   0  0  0  0  0  0  0  0  0  0  0  0
   -4.5958    1.7458    0.0000 C   0  0  0  0  0  0  0  0  0  0  0  0
   -3.1583    1.7333    0.0000 C   0  0  0  0  0  0  0  0  0  0  0  0
   -4.5833    2.5708    0.0000 C   0  0  0  0  0  0  0  0  0  0  0  0
   -3.1583    2.5583    0.0000 C   0  0  0  0  0  0  0  0  0  0  0  0
   -1.7208    4.2042    0.0000 C   0  0  0  0  0  0  0  0  0  0  0  0
   -2.4458    5.4500    0.0000 C   0  0  0  0  0  0  0  0  0  0  0  0
  2  5  2  0  0  0  0
  3  2  1  0  0  0  0
  4 16  1  0  0  0  0
  5 17  1  0  0  0  0
  6  4  1  0  0  0  0
  7  1  1  0  0  0  0
  8  1  1  0  0  0  0
  9  3  1  0  0  0  0
 10  5  1  0  0  0  0
 11 10  1  0  0  0  0
 12  9  1  0  0  0  0
 13  9  1  0  0  0  0
 14 30  1  0  0  0  0
 15  1  1  0  0  0  0
 16 28  1  0  0  0  0
 17 14  1  0  0  0  0
 18  4  2  0  0  0  0
 19  7  1  0  0  0  0
 20  8  1  0  0  0  0
 21  6  1  0  0  0  0
 22  6  1  0  0  0  0
 23  7  2  0  0  0  0
 24  8  2  0  0  0  0
 25 15  2  0  0  0  0
 26 15  1  0  0  0  0
 27 25  1  0  0  0  0
 28 26  2  0  0  0  0
 29 21  1  0  0  0  0
 30 22  1  0  0  0  0
 20 19  1  0  0  0  0
 27 16  2  0  0  0  0
 14 29  1  0  0  0  0
  3 11  2  0  0  0  0
 12 13  1  0  0  0  0
M  END
> <IDNUMBER>
F5461-1211

> <Chemical_Name>
1-(4-{4-[(4-cyclopropyl-1,3-thiazol-2-yl)methyl]piperazine-1-carbonyl}phenyl)pyrrolidine-2,5-dione

> <CAS>
1105233-83-7

> <PriceCoeff>
1.50

> <MW>
424.52

> <Description>
solid

> <FSP3>
0.45

> <clogP>
0.67

> <TPSA>
102.06

> <Acceptor>
4

> <Donor>
1

> <RotBonds>
6

> <HAC>
30

> <Collection>
Advanced

$$$$
F6057-0607
  -ISIS-  06222321462D

 26 28  0  0  0  0  0  0  0  0999 V2000
   -4.1750    2.5625    0.0000 N   0  0  3  0  0  0  0  0  0  0  0  0
   -3.6458    3.1875    0.0000 N   0  0  0  0  0  0  0  0  0  0  0  0
   -0.8083    3.7958    0.0000 C   0  0  0  0  0  0  0  0  0  0  0  0
   -4.9375    2.8750    0.0000 C   0  0  0  0  0  0  0  0  0  0  0  0
   -1.4000    3.2333    0.0000 N   0  0  3  0  0  0  0  0  0  0  0  0
   -4.8708    3.6958    0.0000 C   0  0  0  0  0  0  0  0  0  0  0  0
   -4.0792    3.8833    0.0000 C   0  0  0  0  0  0  0  0  0  0  0  0
   -1.0458    4.5792    0.0000 N   0  0  0  0  0  0  0  0  0  0  0  0
   -2.5958    2.1000    0.0000 N   0  0  3  0  0  0  0  0  0  0  0  0
   -3.9833    1.7625    0.0000 C   0  0  0  0  0  0  0  0  0  0  0  0
    0.8792    5.5875    0.0000 C   0  0  0  0  0  0  0  0  0  0  0  0
    0.3167    4.9917    0.0000 C   0  0  0  0  0  0  0  0  0  0  0  0
   -0.4833    5.1708    0.0000 C   0  0  0  0  0  0  0  0  0  0  0  0
   -0.0333    3.5167    0.0000 O   0  0  0  0  0  0  0  0  0  0  0  0
    0.6417    6.3792    0.0000 C   0  0  0  0  0  0  0  0  0  0  0  0
   -1.2125    2.4333    0.0000 C   0  0  0  0  0  0  0  0  0  0  0  0
   -2.1958    3.4708    0.0000 C   0  0  0  0  0  0  0  0  0  0  0  0
   -3.1958    1.5333    0.0000 C   0  0  0  0  0  0  0  0  0  0  0  0
   -0.1583    6.5667    0.0000 C   0  0  0  0  0  0  0  0  0  0  0  0
   -2.7958    2.9000    0.0000 C   0  0  0  0  0  0  0  0  0  0  0  0
   -1.8083    1.8708    0.0000 C   0  0  0  0  0  0  0  0  0  0  0  0
    1.6792    5.4042    0.0000 Cl  0  0  0  0  0  0  0  0  0  0  0  0
   -0.7208    5.9708    0.0000 C   0  0  0  0  0  0  0  0  0  0  0  0
    1.2042    6.9792    0.0000 Cl  0  0  0  0  0  0  0  0  0  0  0  0
   -5.6333    2.4583    0.0000 C   0  0  0  0  0  0  0  0  0  0  0  0
   -3.7625    4.6417    0.0000 C   0  0  0  0  0  0  0  0  0  0  0  0
  2  1  1  0  0  0  0
  3  5  1  0  0  0  0
  4  1  1  0  0  0  0
  5 16  1  0  0  0  0
  6  4  2  0  0  0  0
  7  2  2  0  0  0  0
  8  3  1  0  0  0  0
  9 18  1  0  0  0  0
 10  1  1  0  0  0  0
 11 12  1  0  0  0  0
 12 13  2  0  0  0  0
 13  8  1  0  0  0  0
 14  3  2  0  0  0  0
 15 19  1  0  0  0  0
 16 21  1  0  0  0  0
 17 20  1  0  0  0  0
 18 10  1  0  0  0  0
 19 23  2  0  0  0  0
 20  9  1  0  0  0  0
 21  9  1  0  0  0  0
 22 11  1  0  0  0  0
 23 13  1  0  0  0  0
 24 15  1  0  0  0  0
 25  4  1  0  0  0  0
 26  7  1  0  0  0  0
  7  6  1  0  0  0  0
 17  5  1  0  0  0  0
 15 11  2  0  0  0  0
M  END
> <IDNUMBER>
F6057-0607

> <Chemical_Name>
N-(3,4-dichlorophenyl)-4-[2-(3,5-dimethyl-1H-pyrazol-1-yl)ethyl]piperazine-1-carboxamide

> <CAS>
1396794-42-5

> <PriceCoeff>
1.50

> <MW>
396.31

> <Description>
solid

> <FSP3>
0.44

> <clogP>
3.77

> <TPSA>
53.40

> <Acceptor>
2

> <Donor>
2

> <RotBonds>
5

> <HAC>
26

> <Collection>
Advanced

$$$$
F5592-0043
  -ISIS-  06222321152D

 31 34  0  0  0  0  0  0  0  0999 V2000
   -3.7375   -0.1917    0.0000 S   0  0  3  0  0  0  0  0  0  0  0  0
   -3.7458   -1.8417    0.0000 N   0  0  3  0  0  0  0  0  0  0  0  0
    2.0167    2.3583    0.0000 N   0  0  0  0  0  0  0  0  0  0  0  0
    1.2625    2.6958    0.0000 C   0  0  0  0  0  0  0  0  0  0  0  0
   -3.0208    0.2125    0.0000 N   0  0  3  0  0  0  0  0  0  0  0  0
    1.3417    3.5208    0.0000 N   0  0  0  0  0  0  0  0  0  0  0  0
   -4.4583   -0.6042    0.0000 C   0  0  0  0  0  0  0  0  0  0  0  0
   -1.5958    1.0333    0.0000 N   0  0  3  0  0  0  0  0  0  0  0  0
   -3.7458   -2.6667    0.0000 C   0  0  0  0  0  0  0  0  0  0  0  0
   -3.0333   -1.4292    0.0000 C   0  0  0  0  0  0  0  0  0  0  0  0
    0.5500    2.2708    0.0000 C   0  0  0  0  0  0  0  0  0  0  0  0
   -0.8833    1.4458    0.0000 C   0  0  0  0  0  0  0  0  0  0  0  0
    2.5667    2.9708    0.0000 C   0  0  0  0  0  0  0  0  0  0  0  0
   -0.1708    1.0333    0.0000 N   0  0  0  0  0  0  0  0  0  0  0  0
   -4.4583   -1.4375    0.0000 C   0  0  0  0  0  0  0  0  0  0  0  0
    2.1500    3.6875    0.0000 O   0  0  0  0  0  0  0  0  0  0  0  0
   -2.3083   -0.2000    0.0000 C   0  0  0  0  0  0  0  0  0  0  0  0
   -3.0208    1.0375    0.0000 C   0  0  0  0  0  0  0  0  0  0  0  0
   -4.1458    0.5208    0.0000 O   0  0  0  0  0  0  0  0  0  0  0  0
   -3.3333   -0.9125    0.0000 O   0  0  0  0  0  0  0  0  0  0  0  0
    0.5500    1.4458    0.0000 C   0  0  0  0  0  0  0  0  0  0  0  0
   -1.5875    0.2083    0.0000 C   0  0  0  0  0  0  0  0  0  0  0  0
   -2.3083    1.4458    0.0000 C   0  0  0  0  0  0  0  0  0  0  0  0
   -0.1708    2.6833    0.0000 C   0  0  0  0  0  0  0  0  0  0  0  0
   -4.4583   -3.0792    0.0000 O   0  0  0  0  0  0  0  0  0  0  0  0
   -3.0250   -0.6042    0.0000 O   0  0  0  0  0  0  0  0  0  0  0  0
   -0.8833    2.2708    0.0000 C   0  0  0  0  0  0  0  0  0  0  0  0
   -2.3208   -1.8375    0.0000 C   0  0  0  0  0  0  0  0  0  0  0  0
   -3.0333   -3.0792    0.0000 C   0  0  0  0  0  0  0  0  0  0  0  0
    3.3875    2.8958    0.0000 C   0  0  0  0  0  0  0  0  0  0  0  0
   -2.3208   -2.6625    0.0000 C   0  0  0  0  0  0  0  0  0  0  0  0
  2 15  1  0  0  0  0
  3  4  1  0  0  0  0
  4 11  1  0  0  0  0
  5  1  1  0  0  0  0
  6  4  2  0  0  0  0
  7  1  1  0  0  0  0
  8 23  1  0  0  0  0
  9  2  1  0  0  0  0
 10  2  1  0  0  0  0
 11 24  2  0  0  0  0
 12  8  1  0  0  0  0
 13  3  2  0  0  0  0
 14 12  1  0  0  0  0
 15  7  1  0  0  0  0
 16  6  1  0  0  0  0
 17  5  1  0  0  0  0
 18  5  1  0  0  0  0
 19  1  2  0  0  0  0
 20  1  2  0  0  0  0
 21 14  2  0  0  0  0
 22 17  1  0  0  0  0
 23 18  1  0  0  0  0
 24 27  1  0  0  0  0
 25  9  2  0  0  0  0
 26 10  2  0  0  0  0
 27 12  2  0  0  0  0
 28 10  1  0  0  0  0
 29  9  1  0  0  0  0
 30 13  1  0  0  0  0
 31 28  1  0  0  0  0
  8 22  1  0  0  0  0
 31 29  1  0  0  0  0
 11 21  1  0  0  0  0
 16 13  1  0  0  0  0
M  END
> <IDNUMBER>
F5592-0043

> <Chemical_Name>
1-[2-({4-[5-(5-methyl-1,2,4-oxadiazol-3-yl)pyridin-2-yl]piperazin-1-yl}sulfonyl)ethyl]piperidine-2,6-dione

> <CAS>
1421457-56-8

> <PriceCoeff>
1.00

> <MW>
448.50

> <Description>
solid

> <FSP3>
0.53

> <clogP>
1.03

> <TPSA>
138.19

> <Acceptor>
8

> <Donor>
2

> <RotBonds>
6

> <HAC>
31

> <Collection>
General

$$$$
F5381-0017
  -ISIS-  06222321152D

 27 29  0  0  0  0  0  0  0  0999 V2000
   -3.1375    4.2167    0.0000 S   0  0  3  0  0  0  0  0  0  0  0  0
   -0.9583    4.6375    0.0000 N   0  0  3  0  0  0  0  0  0  0  0  0
   -3.8625    3.8000    0.0000 N   0  0  3  0  0  0  0  0  0  0  0  0
   -2.4125    4.6417    0.0000 C   0  0  0  0  0  0  0  0  0  0  0  0
   -0.2250    4.2167    0.0000 C   0  0  0  0  0  0  0  0  0  0  0  0
   -0.9500    5.4667    0.0000 C   0  0  0  0  0  0  0  0  0  0  0  0
   -1.6875    4.2125    0.0000 C   0  0  0  0  0  0  0  0  0  0  0  0
   -5.3125    2.9583    0.0000 N   0  0  3  0  0  0  0  0  0  0  0  0
   -3.8708    2.9708    0.0000 C   0  0  0  0  0  0  0  0  0  0  0  0
   -4.6000    4.2167    0.0000 C   0  0  0  0  0  0  0  0  0  0  0  0
   -3.5500    4.9417    0.0000 O   0  0  0  0  0  0  0  0  0  0  0  0
   -2.7083    3.5000    0.0000 O   0  0  0  0  0  0  0  0  0  0  0  0
   -1.6833    5.8917    0.0000 O   0  0  0  0  0  0  0  0  0  0  0  0
   -0.2333    3.3833    0.0000 O   0  0  0  0  0  0  0  0  0  0  0  0
   -4.5958    2.5458    0.0000 C   0  0  0  0  0  0  0  0  0  0  0  0
   -5.3333    3.8000    0.0000 C   0  0  0  0  0  0  0  0  0  0  0  0
   -6.0292    2.5333    0.0000 C   0  0  0  0  0  0  0  0  0  0  0  0
   -6.0292    1.6958    0.0000 C   0  0  0  0  0  0  0  0  0  0  0  0
    0.5042    4.6375    0.0000 C   0  0  0  0  0  0  0  0  0  0  0  0
   -0.2333    5.8917    0.0000 C   0  0  0  0  0  0  0  0  0  0  0  0
   -6.7542    1.2708    0.0000 C   0  0  0  0  0  0  0  0  0  0  0  0
    0.4917    5.4667    0.0000 C   0  0  0  0  0  0  0  0  0  0  0  0
   -7.4792    1.6833    0.0000 C   0  0  0  0  0  0  0  0  0  0  0  0
   -6.7417    0.4333    0.0000 C   0  0  0  0  0  0  0  0  0  0  0  0
   -7.4625    0.0083    0.0000 C   0  0  0  0  0  0  0  0  0  0  0  0
   -8.2042    1.2583    0.0000 C   0  0  0  0  0  0  0  0  0  0  0  0
   -8.1917    0.4208    0.0000 C   0  0  0  0  0  0  0  0  0  0  0  0
  2  7  1  0  0  0  0
  3  1  1  0  0  0  0
  4  1  1  0  0  0  0
  5  2  1  0  0  0  0
  6  2  1  0  0  0  0
  7  4  1  0  0  0  0
  8 16  1  0  0  0  0
  9  3  1  0  0  0  0
 10  3  1  0  0  0  0
 11  1  2  0  0  0  0
 12  1  2  0  0  0  0
 13  6  2  0  0  0  0
 14  5  2  0  0  0  0
 15  9  1  0  0  0  0
 16 10  1  0  0  0  0
 17  8  1  0  0  0  0
 18 17  1  0  0  0  0
 19  5  1  0  0  0  0
 20  6  1  0  0  0  0
 21 18  1  0  0  0  0
 22 20  1  0  0  0  0
 23 21  2  0  0  0  0
 24 21  1  0  0  0  0
 25 24  2  0  0  0  0
 26 23  1  0  0  0  0
 27 25  1  0  0  0  0
 15  8  1  0  0  0  0
 22 19  1  0  0  0  0
 27 26  2  0  0  0  0
M  END
> <IDNUMBER>
F5381-0017

> <Chemical_Name>
1-(2-{[4-(2-phenylethyl)piperazin-1-yl]sulfonyl}ethyl)piperidine-2,6-dione

> <CAS>
1040675-00-0

> <PriceCoeff>
1.00

> <MW>
393.50

> <Description>
solid

> <FSP3>
0.58

> <clogP>
2.66

> <TPSA>
86.38

> <Acceptor>
5

> <Donor>
1

> <RotBonds>
7

> <HAC>
27

> <Collection>
General

$$$$
F5825-0161
  -ISIS-  06222321462D

 29 32  0  0  0  0  0  0  0  0999 V2000
   12.7042   -5.2125    0.0000 C   0  0  0  0  0  0  0  0  0  0  0  0
    9.4167   -5.1417    0.0000 S   0  0  3  0  0  0  0  0  0  0  0  0
   13.2375   -4.5917    0.0000 N   0  0  0  0  0  0  0  0  0  0  0  0
   13.1250   -5.9125    0.0000 N   0  0  3  0  0  0  0  0  0  0  0  0
    7.3375   -5.8167    0.0000 N   0  0  3  0  0  0  0  0  0  0  0  0
   10.2417   -5.1542    0.0000 N   0  0  3  0  0  0  0  0  0  0  0  0
   11.8792   -5.1917    0.0000 N   0  0  3  0  0  0  0  0  0  0  0  0
   13.9292   -5.7167    0.0000 C   0  0  0  0  0  0  0  0  0  0  0  0
   13.9917   -4.9042    0.0000 C   0  0  0  0  0  0  0  0  0  0  0  0
    8.5917   -5.1292    0.0000 C   0  0  0  0  0  0  0  0  0  0  0  0
    6.9375   -5.1000    0.0000 C   0  0  0  0  0  0  0  0  0  0  0  0
    6.9042   -6.5167    0.0000 C   0  0  0  0  0  0  0  0  0  0  0  0
    8.1667   -5.8375    0.0000 C   0  0  0  0  0  0  0  0  0  0  0  0
   10.6667   -4.4417    0.0000 C   0  0  0  0  0  0  0  0  0  0  0  0
   10.6375   -5.8792    0.0000 C   0  0  0  0  0  0  0  0  0  0  0  0
    9.4375   -4.3167    0.0000 O   0  0  0  0  0  0  0  0  0  0  0  0
    9.4042   -5.9667    0.0000 O   0  0  0  0  0  0  0  0  0  0  0  0
   11.4542   -5.9000    0.0000 C   0  0  0  0  0  0  0  0  0  0  0  0
   11.4917   -4.4667    0.0000 C   0  0  0  0  0  0  0  0  0  0  0  0
    7.3625   -4.3792    0.0000 O   0  0  0  0  0  0  0  0  0  0  0  0
    7.3042   -7.2417    0.0000 O   0  0  0  0  0  0  0  0  0  0  0  0
   12.7875   -6.6667    0.0000 C   0  0  0  0  0  0  0  0  0  0  0  0
    6.1167   -5.0792    0.0000 C   0  0  0  0  0  0  0  0  0  0  0  0
    6.0792   -6.5042    0.0000 C   0  0  0  0  0  0  0  0  0  0  0  0
   14.6125   -6.1917    0.0000 C   0  0  0  0  0  0  0  0  0  0  0  0
   14.7375   -4.5542    0.0000 C   0  0  0  0  0  0  0  0  0  0  0  0
    5.6875   -5.7792    0.0000 C   0  0  0  0  0  0  0  0  0  0  0  0
   15.3500   -5.8375    0.0000 C   0  0  0  0  0  0  0  0  0  0  0  0
   15.4167   -5.0167    0.0000 C   0  0  0  0  0  0  0  0  0  0  0  0
  2  6  1  0  0  0  0
  3  1  2  0  0  0  0
  4  1  1  0  0  0  0
  5 13  1  0  0  0  0
  6 14  1  0  0  0  0
  7  1  1  0  0  0  0
  8  4  1  0  0  0  0
  9  3  1  0  0  0  0
 10  2  1  0  0  0  0
 11  5  1  0  0  0  0
 12  5  1  0  0  0  0
 13 10  1  0  0  0  0
 14 19  1  0  0  0  0
 15 18  1  0  0  0  0
 16  2  2  0  0  0  0
 17  2  2  0  0  0  0
 18  7  1  0  0  0  0
 19  7  1  0  0  0  0
 20 11  2  0  0  0  0
 21 12  2  0  0  0  0
 22  4  1  0  0  0  0
 23 11  1  0  0  0  0
 24 12  1  0  0  0  0
 25  8  1  0  0  0  0
 26  9  1  0  0  0  0
 27 24  1  0  0  0  0
 28 25  2  0  0  0  0
 29 26  2  0  0  0  0
  8  9  2  0  0  0  0
 15  6  1  0  0  0  0
 29 28  1  0  0  0  0
 23 27  1  0  0  0  0
M  END
> <IDNUMBER>
F5825-0161

> <Chemical_Name>
1-(2-{[4-(1-methyl-1H-1,3-benzodiazol-2-yl)piperazin-1-yl]sulfonyl}ethyl)piperidine-2,6-dione

> <CAS>
1219912-02-3

> <PriceCoeff>
1.50

> <MW>
419.50

> <Description>
solid

> <FSP3>
0.53

> <clogP>
2.11

> <TPSA>
104.20

> <Acceptor>
5

> <Donor>
1

> <RotBonds>
5

> <HAC>
29

> <Collection>
Advanced

$$$$
F3259-0261
  -ISIS-  06222321462D

 17 18  0  0  0  0  0  0  0  0999 V2000
    3.6667    2.5500    0.0000 C   0  0  0  0  0  0  0  0  0  0  0  0
    3.2917    1.9000    0.0000 C   0  0  0  0  0  0  0  0  0  0  0  0
    4.4167    2.5500    0.0000 N   0  0  3  0  0  0  0  0  0  0  0  0
    4.4167    1.2500    0.0000 N   0  0  3  0  0  0  0  0  0  0  0  0
    4.7917    1.9000    0.0000 C   0  0  0  0  0  0  0  0  0  0  0  0
    3.6667    1.2500    0.0000 C   0  0  0  0  0  0  0  0  0  0  0  0
    3.1667    3.1083    0.0000 N   0  0  0  0  0  0  0  0  0  0  0  0
    2.5542    2.0583    0.0000 N   0  0  3  0  0  0  0  0  0  0  0  0
    2.4792    2.8000    0.0000 C   0  0  0  0  0  0  0  0  0  0  0  0
    5.5417    1.9000    0.0000 O   0  0  0  0  0  0  0  0  0  0  0  0
    3.2917    0.6000    0.0000 O   0  0  0  0  0  0  0  0  0  0  0  0
    4.7917    3.1958    0.0000 C   0  0  0  0  0  0  0  0  0  0  0  0
    4.7917    0.6000    0.0000 C   0  0  0  0  0  0  0  0  0  0  0  0
    2.0042    1.5583    0.0000 C   0  0  0  0  0  0  0  0  0  0  0  0
    1.2875    1.7833    0.0000 C   0  0  0  0  0  0  0  0  0  0  0  0
    0.7292    1.2833    0.0000 C   0  0  0  0  0  0  0  0  0  0  0  0
    0.0167    1.5125    0.0000 C   0  0  0  0  0  0  0  0  0  0  0  0
  2  1  2  0  0  0  0
  3  1  1  0  0  0  0
  4  5  1  0  0  0  0
  5  3  1  0  0  0  0
  6  2  1  0  0  0  0
  7  1  1  0  0  0  0
  8  2  1  0  0  0  0
  9  7  2  0  0  0  0
 10  5  2  0  0  0  0
 11  6  2  0  0  0  0
 12  3  1  0  0  0  0
 13  4  1  0  0  0  0
 14  8  1  0  0  0  0
 15 14  1  0  0  0  0
 16 15  1  0  0  0  0
 17 16  1  0  0  0  0
  8  9  1  0  0  0  0
  4  6  1  0  0  0  0
M  END
> <IDNUMBER>
F3259-0261

> <Chemical_Name>
7-butyl-1,3-dimethyl-2,3,6,7-tetrahydro-1H-purine-2,6-dione

> <CAS>
1021-65-4

> <PriceCoeff>
1.50

> <MW>
236.27

> <Description>
solid

> <FSP3>
0.55

> <clogP>
1.55

> <TPSA>
58.44

> <Acceptor>
1

> <Donor>
3

> <RotBonds>
3

> <HAC>
17

> <Collection>
Advanced

> <Reference_compound>
CHEMBL113

> <Similarity>
0.9070

$$$$
F1903-9727
  -ISIS-  06222304352D

 17 16  0  0  0  0  0  0  0  0999 V2000
    7.0500   -5.9875    0.0000 N   0  0  0  0  0  0  0  0  0  0  0  0
    6.3292   -5.5750    0.0000 C   0  0  0  0  0  0  0  0  0  0  0  0
    4.9042   -4.7500    0.0000 C   0  0  0  0  0  0  0  0  0  0  0  0
    4.1917   -4.3375    0.0000 N   0  0  0  0  0  0  0  0  0  0  0  0
    7.0500   -6.8125    0.0000 C   0  0  0  0  0  0  0  0  0  0  0  0
    6.3292   -4.7417    0.0000 C   0  0  0  0  0  0  0  0  0  0  0  0
    5.6167   -5.9875    0.0000 C   0  0  0  0  0  0  0  0  0  0  0  0
    5.6167   -4.3292    0.0000 C   0  0  0  0  0  0  0  0  0  0  0  0
    4.9042   -5.5750    0.0000 C   0  0  0  0  0  0  0  0  0  0  0  0
    4.1917   -3.5125    0.0000 C   0  0  0  0  0  0  0  0  0  0  0  0
    6.3375   -7.2250    0.0000 C   0  0  0  0  0  0  0  0  0  0  0  0
    7.7625   -7.2167    0.0000 C   0  0  0  0  0  0  0  0  0  0  0  0
    7.7667   -8.0417    0.0000 C   0  0  0  0  0  0  0  0  0  0  0  0
    6.3375   -8.0417    0.0000 C   0  0  0  0  0  0  0  0  0  0  0  0
    7.0542   -8.4542    0.0000 C   0  0  0  0  0  0  0  0  0  0  0  0
    9.1542   -6.6541    0.0000 Cl  0  0  0  0  0  0  0  0  0  0  0  0
    9.1542   -5.1208    0.0000 Cl  0  0  0  0  0  0  0  0  0  0  0  0
  4  3  1  0  0  0  0
  5  1  1  0  0  0  0
  6  2  1  0  0  0  0
  7  2  2  0  0  0  0
  8  6  2  0  0  0  0
  9  7  1  0  0  0  0
 10  4  1  0  0  0  0
 11  5  2  0  0  0  0
 12  5  1  0  0  0  0
 13 12  2  0  0  0  0
 14 11  1  0  0  0  0
 15 13  1  0  0  0  0
  8  3  1  0  0  0  0
 14 15  2  0  0  0  0
  2  1  1  0  0  0  0
  3  9  2  0  0  0  0
M  END
> <IDNUMBER>
F1903-9727

> <Chemical_Name>
N1-methyl-N4-phenylbenzene-1,4-diamine dihydrochloride

> <CAS>
2355385-15-6

> <PriceCoeff>
1.00

> <MW>
198.26

> <Description>
solid

> <FSP3>
0.08

> <clogP>
3.12

> <TPSA>
24.06

> <Acceptor>
2

> <Donor>
2

> <RotBonds>
3

> <HAC>
15

> <Collection>
General

> <Reference_compound>
PRI2829

> <Similarity>
0.8510

$$$$
F0001-2378
  -ISIS-  06222304342D

 25 27  0  0  0  0  0  0  0  0999 V2000
   -4.5917    0.8458    0.0000 C   0  0  0  0  0  0  0  0  0  0  0  0
   -3.8125    2.2042    0.0000 N   0  0  3  0  0  0  0  0  0  0  0  0
   -3.0333    0.8458    0.0000 C   0  0  0  0  0  0  0  0  0  0  0  0
   -3.0333    1.7458    0.0000 C   0  0  0  0  0  0  0  0  0  0  0  0
   -3.8125    0.3958    0.0000 C   0  0  0  0  0  0  0  0  0  0  0  0
   -4.5917    1.7458    0.0000 C   0  0  0  0  0  0  0  0  0  0  0  0
   -2.2458    2.2042    0.0000 C   0  0  0  0  0  0  0  0  0  0  0  0
   -1.4708    1.7458    0.0000 C   0  0  0  0  0  0  0  0  0  0  0  0
   -3.8125    3.1042    0.0000 C   0  0  3  0  0  0  0  0  0  0  0  0
   -2.2458    0.3958    0.0000 C   0  0  0  0  0  0  0  0  0  0  0  0
   -5.3708    0.3958    0.0000 C   0  0  0  0  0  0  0  0  0  0  0  0
   -1.4708    0.8458    0.0000 C   0  0  0  0  0  0  0  0  0  0  0  0
   -0.6833    2.2042    0.0000 N   0  0  3  0  0  0  0  0  0  0  0  0
   -4.2625    3.8875    0.0000 C   0  0  0  0  0  0  0  0  0  0  0  0
   -3.3625    3.8875    0.0000 C   0  0  0  0  0  0  0  0  0  0  0  0
   -3.8125   -0.5042    0.0000 O   0  0  0  0  0  0  0  0  0  0  0  0
    0.8750    3.1042    0.0000 N   0  0  0  0  0  0  0  0  0  0  0  0
   -6.1542    0.8458    0.0000 O   0  0  0  0  0  0  0  0  0  0  0  0
   -0.6833    0.3958    0.0000 F   0  0  0  0  0  0  0  0  0  0  0  0
   -5.3708   -0.5042    0.0000 O   0  0  0  0  0  0  0  0  0  0  0  0
   -0.6833    3.1042    0.0000 C   0  0  0  0  0  0  0  0  0  0  0  0
    0.0958    1.7458    0.0000 C   0  0  0  0  0  0  0  0  0  0  0  0
    0.8750    2.2042    0.0000 C   0  0  0  0  0  0  0  0  0  0  0  0
    0.0958    3.5500    0.0000 C   0  0  0  0  0  0  0  0  0  0  0  0
    2.3625    1.6333    0.0000 Cl  0  0  0  0  0  0  0  0  0  0  0  0
  3  5  1  0  0  0  0
  4  2  1  0  0  0  0
  5  1  1  0  0  0  0
  6  1  2  0  0  0  0
  7  4  2  0  0  0  0
  8  7  1  0  0  0  0
  9  2  1  0  0  0  0
 10  3  2  0  0  0  0
 11  1  1  0  0  0  0
 12 10  1  0  0  0  0
 13  8  1  0  0  0  0
 14  9  1  0  0  0  0
 15  9  1  0  0  0  0
 16  5  2  0  0  0  0
 17 23  1  0  0  0  0
 18 11  2  0  0  0  0
 19 12  1  0  0  0  0
 20 11  1  0  0  0  0
 21 13  1  0  0  0  0
 22 13  1  0  0  0  0
 23 22  1  0  0  0  0
 24 21  1  0  0  0  0
  3  4  1  0  0  0  0
 14 15  1  0  0  0  0
  8 12  2  0  0  0  0
 24 17  1  0  0  0  0
  2  6  1  0  0  0  0
M  END
> <IDNUMBER>
F0001-2378

> <Chemical_Name>
1-cyclopropyl-6-fluoro-4-oxo-7-(piperazin-1-yl)-1,4-dihydroquinoline-3-carboxylic acid hydrochloride

> <CAS>
93107-08-5

> <PriceCoeff>
1.50

> <MW>
331.34

> <Description>
solid

> <FSP3>
0.41

> <clogP>
-0.73

> <TPSA>
72.88

> <Acceptor>
5

> <Donor>
3

> <RotBonds>
3

> <HAC>
24

> <Collection>
Advanced

> <Reference_compound>
CHEMBL8

> <Similarity>
1.0000

$$$$
F6439-1216
  -ISIS-  06222321152D

 26 28  0  0  0  0  0  0  0  0999 V2000
   -2.7250    7.5542    0.0000 C   0  0  0  0  0  0  0  0  0  0  0  0
   -2.4750    6.7667    0.0000 N   0  0  0  0  0  0  0  0  0  0  0  0
   -3.5625    7.5542    0.0000 C   0  0  0  0  0  0  0  0  0  0  0  0
   -5.2833    2.5708    0.0000 N   0  0  3  0  0  0  0  0  0  0  0  0
   -3.1500    6.2792    0.0000 N   0  0  3  0  0  0  0  0  0  0  0  0
   -3.8083    6.7750    0.0000 C   0  0  0  0  0  0  0  0  0  0  0  0
   -2.2500    8.2292    0.0000 C   0  0  3  0  0  0  0  0  0  0  0  0
   -6.0292    2.9000    0.0000 C   0  0  0  0  0  0  0  0  0  0  0  0
   -5.3708    1.7458    0.0000 C   0  0  0  0  0  0  0  0  0  0  0  0
   -4.5833    2.9875    0.0000 C   0  0  0  0  0  0  0  0  0  0  0  0
   -4.5833    3.8000    0.0000 C   0  0  0  0  0  0  0  0  0  0  0  0
   -6.1667    1.5708    0.0000 C   0  0  0  0  0  0  0  0  0  0  0  0
   -6.5750    2.2833    0.0000 C   0  0  0  0  0  0  0  0  0  0  0  0
   -4.7500    1.1833    0.0000 O   0  0  0  0  0  0  0  0  0  0  0  0
   -6.2042    3.7083    0.0000 O   0  0  0  0  0  0  0  0  0  0  0  0
   -3.1500    5.4500    0.0000 C   0  0  0  0  0  0  0  0  0  0  0  0
   -5.3000    4.2042    0.0000 O   0  0  0  0  0  0  0  0  0  0  0  0
   -1.3958    8.2667    0.0000 F   0  0  0  0  0  0  0  0  0  0  0  0
   -2.4750    9.0542    0.0000 F   0  0  0  0  0  0  0  0  0  0  0  0
   -1.8083    8.8292    0.0000 F   0  0  0  0  0  0  0  0  0  0  0  0
   -3.8625    4.2042    0.0000 N   0  0  0  0  0  0  0  0  0  0  0  0
   -4.1000    8.1750    0.0000 C   0  0  0  0  0  0  0  0  0  0  0  0
   -3.8625    5.0417    0.0000 C   0  0  0  0  0  0  0  0  0  0  0  0
   -4.6250    6.5917    0.0000 C   0  0  0  0  0  0  0  0  0  0  0  0
   -4.9125    8.0042    0.0000 C   0  0  0  0  0  0  0  0  0  0  0  0
   -5.1750    7.2167    0.0000 C   0  0  0  0  0  0  0  0  0  0  0  0
  2  1  2  0  0  0  0
  3  1  1  0  0  0  0
  4 10  1  0  0  0  0
  5  2  1  0  0  0  0
  6  3  2  0  0  0  0
  7  1  1  0  0  0  0
  8  4  1  0  0  0  0
  9  4  1  0  0  0  0
 10 11  1  0  0  0  0
 11 21  1  0  0  0  0
 12  9  1  0  0  0  0
 13  8  1  0  0  0  0
 14  9  2  0  0  0  0
 15  8  2  0  0  0  0
 16  5  1  0  0  0  0
 17 11  2  0  0  0  0
 18  7  1  0  0  0  0
 19  7  1  0  0  0  0
 20  7  1  0  0  0  0
 21 23  1  0  0  0  0
 22  3  1  0  0  0  0
 23 16  1  0  0  0  0
 24  6  1  0  0  0  0
 25 22  1  0  0  0  0
 26 25  1  0  0  0  0
  6  5  1  0  0  0  0
 24 26  1  0  0  0  0
 13 12  1  0  0  0  0
M  END
> <IDNUMBER>
F6439-1216

> <Chemical_Name>
2-(2,5-dioxopyrrolidin-1-yl)-N-{2-[3-(trifluoromethyl)-4,5,6,7-tetrahydro-1H-indazol-1-yl]ethyl}acetamide

> <CAS>
1797624-10-2

> <PriceCoeff>
1.00

> <MW>
372.34

> <Description>
solid

> <FSP3>
0.62

> <clogP>
1.49

> <TPSA>
84.30

> <Acceptor>
4

> <Donor>
1

> <RotBonds>
5

> <HAC>
26

> <Collection>
General

$$$$
F1916-0149
  -ISIS-  06222321142D

 16 16  0  0  0  0  0  0  0  0999 V2000
   10.1125   -1.5417    0.0000 C   0  0  0  0  0  0  0  0  0  0  0  0
   10.1167   -4.8417    0.0000 C   0  0  0  0  0  0  0  0  0  0  0  0
   10.1167   -4.0167    0.0000 C   0  0  0  0  0  0  0  0  0  0  0  0
   10.1167   -2.3667    0.0000 C   0  0  0  0  0  0  0  0  0  0  0  0
    9.4000   -1.1292    0.0000 O   0  0  0  0  0  0  0  0  0  0  0  0
   10.8292   -5.2542    0.0000 O   0  0  0  0  0  0  0  0  0  0  0  0
    9.4042   -2.7792    0.0000 C   0  0  0  0  0  0  0  0  0  0  0  0
   10.8292   -3.6042    0.0000 C   0  0  0  0  0  0  0  0  0  0  0  0
   10.8292   -2.7792    0.0000 C   0  0  0  0  0  0  0  0  0  0  0  0
    9.4042   -3.6042    0.0000 C   0  0  0  0  0  0  0  0  0  0  0  0
   10.8292   -1.1292    0.0000 O   0  0  0  0  0  0  0  0  0  0  0  0
    9.4042   -5.2542    0.0000 O   0  0  0  0  0  0  0  0  0  0  0  0
   10.8250   -0.3042    0.0000 C   0  0  0  0  0  0  0  0  0  0  0  0
    9.6167   -6.0542    0.0000 C   0  0  0  0  0  0  0  0  0  0  0  0
   11.5292    0.1125    0.0000 C   0  0  0  0  0  0  0  0  0  0  0  0
   10.4125   -6.2667    0.0000 C   0  0  0  0  0  0  0  0  0  0  0  0
  2  3  1  0  0  0  0
  3  8  2  0  0  0  0
  4  1  1  0  0  0  0
  5  1  2  0  0  0  0
  6  2  2  0  0  0  0
  7  4  1  0  0  0  0
  8  9  1  0  0  0  0
  9  4  2  0  0  0  0
 10  7  2  0  0  0  0
 11  1  1  0  0  0  0
 12  2  1  0  0  0  0
 13 11  1  0  0  0  0
 14 12  1  0  0  0  0
 15 13  1  0  0  0  0
 16 14  1  0  0  0  0
 10  3  1  0  0  0  0
M  END
> <IDNUMBER>
F1916-0149

> <Chemical_Name>
1,4-diethyl benzene-1,4-dicarboxylate

> <CAS>
636-09-9

> <PriceCoeff>
1.00

> <MW>
222.24

> <Description>
solid

> <FSP3>
0.33

> <clogP>
3.14

> <TPSA>
38.70

> <Acceptor>
4

> <Donor>
0

> <RotBonds>
6

> <HAC>
16

> <Collection>
General

> <Reference_compound>
PRI1598

> <Similarity>
0.8570

$$$$
F2158-1561
  -ISIS-  06222321462D

 11 11  0  0  0  0  0  0  0  0999 V2000
    5.7667   -2.0375    0.0000 N   0  0  3  0  0  0  0  0  0  0  0  0
    4.9625   -1.8542    0.0000 C   0  0  0  0  0  0  0  0  0  0  0  0
    6.2792   -1.3917    0.0000 C   0  0  0  0  0  0  0  0  0  0  0  0
    4.7167   -1.0625    0.0000 O   0  0  0  0  0  0  0  0  0  0  0  0
    7.6167   -2.0500    0.0000 C   0  0  0  0  0  0  0  0  0  0  0  0
    7.1042   -1.3917    0.0000 C   0  0  0  0  0  0  0  0  0  0  0  0
    8.4250   -1.8667    0.0000 O   0  0  0  0  0  0  0  0  0  0  0  0
    5.9417   -2.8417    0.0000 C   0  0  0  0  0  0  0  0  0  0  0  0
    4.4000   -2.4542    0.0000 C   0  0  0  0  0  0  0  0  0  0  0  0
    6.6792   -3.1917    0.0000 C   0  0  0  0  0  0  0  0  0  0  0  0
    7.4292   -2.8542    0.0000 C   0  0  0  0  0  0  0  0  0  0  0  0
  2  1  1  0  0  0  0
  3  1  1  0  0  0  0
  4  2  2  0  0  0  0
  5  6  1  0  0  0  0
  6  3  1  0  0  0  0
  7  5  2  0  0  0  0
  8  1  1  0  0  0  0
  9  2  1  0  0  0  0
 10  8  1  0  0  0  0
 11 10  1  0  0  0  0
  5 11  1  0  0  0  0
M  END
> <IDNUMBER>
F2158-1561

> <Chemical_Name>
1-acetylazepan-4-one

> <CAS>
50492-23-4

> <PriceCoeff>
1.50

> <MW>
155.19

> <Description>
oil

> <FSP3>
0.75

> <clogP>
-1.13

> <TPSA>
37.38

> <Acceptor>
2

> <Donor>
0

> <RotBonds>
1

> <HAC>
11

> <Collection>
Advanced

> <Reference_compound>
CHEMBL2269841

> <Similarity>
0.8020

$$$$
F3350-0613
  -ISIS-  06222321462D

 24 26  0  0  0  0  0  0  0  0999 V2000
    4.2917   -2.5417    0.0000 S   0  0  3  0  0  0  0  0  0  0  0  0
    7.1375   -4.1875    0.0000 N   0  0  3  0  0  0  0  0  0  0  0  0
    3.5792   -2.1292    0.0000 N   0  0  0  0  0  0  0  0  0  0  0  0
    7.2167   -5.0125    0.0000 C   0  0  0  0  0  0  0  0  0  0  0  0
    7.8917   -3.8542    0.0000 C   0  0  0  0  0  0  0  0  0  0  0  0
    2.8667   -1.7167    0.0000 C   0  0  0  0  0  0  0  0  0  0  0  0
    5.0042   -2.9542    0.0000 C   0  0  0  0  0  0  0  0  0  0  0  0
    6.4250   -3.7750    0.0000 C   0  0  0  0  0  0  0  0  0  0  0  0
    4.7042   -1.8292    0.0000 O   0  0  0  0  0  0  0  0  0  0  0  0
    3.8792   -3.2542    0.0000 O   0  0  0  0  0  0  0  0  0  0  0  0
    2.1542   -2.1292    0.0000 N   0  0  0  0  0  0  0  0  0  0  0  0
    8.4417   -4.4750    0.0000 C   0  0  0  0  0  0  0  0  0  0  0  0
    8.0292   -5.1875    0.0000 C   0  0  0  0  0  0  0  0  0  0  0  0
    6.6042   -5.5625    0.0000 O   0  0  0  0  0  0  0  0  0  0  0  0
    8.0667   -3.0542    0.0000 O   0  0  0  0  0  0  0  0  0  0  0  0
    5.7125   -2.5417    0.0000 C   0  0  0  0  0  0  0  0  0  0  0  0
    5.0042   -3.7750    0.0000 C   0  0  0  0  0  0  0  0  0  0  0  0
    6.4250   -2.9542    0.0000 C   0  0  0  0  0  0  0  0  0  0  0  0
    5.7167   -4.1792    0.0000 C   0  0  0  0  0  0  0  0  0  0  0  0
    2.8667   -0.8917    0.0000 C   0  0  0  0  0  0  0  0  0  0  0  0
    1.4417   -1.7167    0.0000 C   0  0  0  0  0  0  0  0  0  0  0  0
    2.1542   -0.4792    0.0000 C   0  0  0  0  0  0  0  0  0  0  0  0
    1.4417   -0.8917    0.0000 C   0  0  0  0  0  0  0  0  0  0  0  0
    2.1500    0.3458    0.0000 C   0  0  0  0  0  0  0  0  0  0  0  0
  2  8  1  0  0  0  0
  3  1  1  0  0  0  0
  4  2  1  0  0  0  0
  5  2  1  0  0  0  0
  6  3  1  0  0  0  0
  7  1  1  0  0  0  0
  8 19  2  0  0  0  0
  9  1  2  0  0  0  0
 10  1  2  0  0  0  0
 11  6  2  0  0  0  0
 12  5  1  0  0  0  0
 13  4  1  0  0  0  0
 14  4  2  0  0  0  0
 15  5  2  0  0  0  0
 16  7  1  0  0  0  0
 17  7  2  0  0  0  0
 18 16  2  0  0  0  0
 19 17  1  0  0  0  0
 20  6  1  0  0  0  0
 21 11  1  0  0  0  0
 22 20  2  0  0  0  0
 23 22  1  0  0  0  0
 24 22  1  0  0  0  0
  8 18  1  0  0  0  0
 21 23  2  0  0  0  0
 12 13  1  0  0  0  0
M  END
> <IDNUMBER>
F3350-0613

> <Chemical_Name>
4-(2,5-dioxopyrrolidin-1-yl)-N-(4-methylpyridin-2-yl)benzene-1-sulfonamide

> <CAS>
946260-01-1

> <PriceCoeff>
1.00

> <MW>
345.37

> <Description>
solid

> <FSP3>
0.19

> <clogP>
0.38

> <TPSA>
104.82

> <Acceptor>
5

> <Donor>
2

> <RotBonds>
4

> <HAC>
24

> <Collection>
General

$$$$
F3316-0237
  -ISIS-  06222321152D

 20 21  0  0  0  0  0  0  0  0999 V2000
    1.0792   -1.5917    0.0000 N   0  0  3  0  0  0  0  0  0  0  0  0
    0.2542   -1.5500    0.0000 N   0  0  0  0  0  0  0  0  0  0  0  0
    3.5417   -3.0167    0.0000 S   0  0  3  0  0  0  0  0  0  0  0  0
    0.7292   -0.3042    0.0000 C   0  0  0  0  0  0  0  0  0  0  0  0
    1.3750   -0.8250    0.0000 C   0  0  0  0  0  0  0  0  0  0  0  0
    0.0417   -0.7542    0.0000 C   0  0  0  0  0  0  0  0  0  0  0  0
    3.5417   -2.1917    0.0000 O   0  0  0  0  0  0  0  0  0  0  0  0
    3.5417   -3.8417    0.0000 O   0  0  0  0  0  0  0  0  0  0  0  0
    2.7167   -3.0167    0.0000 N   0  0  0  0  0  0  0  0  0  0  0  0
    4.3667   -3.0167    0.0000 C   0  0  0  0  0  0  0  0  0  0  0  0
    1.4875   -2.3042    0.0000 C   0  0  0  0  0  0  0  0  0  0  0  0
    0.7292    0.5208    0.0000 Cl  0  0  0  0  0  0  0  0  0  0  0  0
    2.3125   -2.3042    0.0000 C   0  0  0  0  0  0  0  0  0  0  0  0
    2.1667   -0.6042    0.0000 C   0  0  0  0  0  0  0  0  0  0  0  0
   -0.7583   -0.5417    0.0000 C   0  0  0  0  0  0  0  0  0  0  0  0
    4.7750   -3.7292    0.0000 C   0  0  0  0  0  0  0  0  0  0  0  0
    4.7792   -2.3167    0.0000 C   0  0  0  0  0  0  0  0  0  0  0  0
    5.5917   -3.7292    0.0000 C   0  0  0  0  0  0  0  0  0  0  0  0
    5.5917   -2.3167    0.0000 C   0  0  0  0  0  0  0  0  0  0  0  0
    6.0042   -3.0250    0.0000 C   0  0  0  0  0  0  0  0  0  0  0  0
  2  1  1  0  0  0  0
  3  9  1  0  0  0  0
  4  5  2  0  0  0  0
  5  1  1  0  0  0  0
  6  2  2  0  0  0  0
  7  3  2  0  0  0  0
  8  3  2  0  0  0  0
  9 13  1  0  0  0  0
 10  3  1  0  0  0  0
 11  1  1  0  0  0  0
 12  4  1  0  0  0  0
 13 11  1  0  0  0  0
 14  5  1  0  0  0  0
 15  6  1  0  0  0  0
 16 10  2  0  0  0  0
 17 10  1  0  0  0  0
 18 16  1  0  0  0  0
 19 17  2  0  0  0  0
 20 19  1  0  0  0  0
  4  6  1  0  0  0  0
 18 20  2  0  0  0  0
M  END
> <IDNUMBER>
F3316-0237

> <Chemical_Name>
N-[2-(4-chloro-3,5-dimethyl-1H-pyrazol-1-yl)ethyl]benzenesulfonamide

> <CAS>
957502-10-2

> <PriceCoeff>
1.00

> <MW>
313.80

> <Description>
solid

> <FSP3>
0.31

> <clogP>
2.62

> <TPSA>
72.37

> <Acceptor>
3

> <Donor>
1

> <RotBonds>
5

> <HAC>
20

> <Collection>
General

$$$$
F6439-3514
  -ISIS-  06222321152D

 25 27  0  0  0  0  0  0  0  0999 V2000
   -2.7500    7.5542    0.0000 C   0  0  0  0  0  0  0  0  0  0  0  0
   -2.4875    6.7667    0.0000 N   0  0  0  0  0  0  0  0  0  0  0  0
   -5.2833    2.5708    0.0000 N   0  0  3  0  0  0  0  0  0  0  0  0
   -3.5750    7.5417    0.0000 C   0  0  0  0  0  0  0  0  0  0  0  0
   -3.1583    6.2750    0.0000 N   0  0  3  0  0  0  0  0  0  0  0  0
   -3.8333    6.7667    0.0000 C   0  0  0  0  0  0  0  0  0  0  0  0
   -2.2708    8.2167    0.0000 C   0  0  3  0  0  0  0  0  0  0  0  0
   -6.0292    2.9000    0.0000 C   0  0  0  0  0  0  0  0  0  0  0  0
   -5.3708    1.7458    0.0000 C   0  0  0  0  0  0  0  0  0  0  0  0
   -4.6125    6.5000    0.0000 C   0  0  3  0  0  0  0  0  0  0  0  0
   -5.4208    6.6667    0.0000 C   0  0  0  0  0  0  0  0  0  0  0  0
   -5.1583    5.8750    0.0000 C   0  0  0  0  0  0  0  0  0  0  0  0
   -4.5833    2.9875    0.0000 C   0  0  0  0  0  0  0  0  0  0  0  0
   -4.5833    3.8000    0.0000 C   0  0  0  0  0  0  0  0  0  0  0  0
   -6.1667    1.5708    0.0000 C   0  0  0  0  0  0  0  0  0  0  0  0
   -6.5750    2.2833    0.0000 C   0  0  0  0  0  0  0  0  0  0  0  0
   -4.7500    1.1833    0.0000 O   0  0  0  0  0  0  0  0  0  0  0  0
   -6.2042    3.7083    0.0000 O   0  0  0  0  0  0  0  0  0  0  0  0
   -3.1500    5.4500    0.0000 C   0  0  0  0  0  0  0  0  0  0  0  0
   -5.3000    4.2042    0.0000 O   0  0  0  0  0  0  0  0  0  0  0  0
   -1.4083    8.2792    0.0000 F   0  0  0  0  0  0  0  0  0  0  0  0
   -2.5000    9.0542    0.0000 F   0  0  0  0  0  0  0  0  0  0  0  0
   -1.8250    8.8417    0.0000 F   0  0  0  0  0  0  0  0  0  0  0  0
   -3.8625    4.2042    0.0000 N   0  0  0  0  0  0  0  0  0  0  0  0
   -3.8625    5.0292    0.0000 C   0  0  0  0  0  0  0  0  0  0  0  0
  2  1  2  0  0  0  0
  3 13  1  0  0  0  0
  4  1  1  0  0  0  0
  5  2  1  0  0  0  0
  6  4  2  0  0  0  0
  7  1  1  0  0  0  0
  8  3  1  0  0  0  0
  9  3  1  0  0  0  0
 10  6  1  0  0  0  0
 11 10  1  0  0  0  0
 12 10  1  0  0  0  0
 13 14  1  0  0  0  0
 14 24  1  0  0  0  0
 15  9  1  0  0  0  0
 16  8  1  0  0  0  0
 17  9  2  0  0  0  0
 18  8  2  0  0  0  0
 19  5  1  0  0  0  0
 20 14  2  0  0  0  0
 21  7  1  0  0  0  0
 22  7  1  0  0  0  0
 23  7  1  0  0  0  0
 24 25  1  0  0  0  0
 25 19  1  0  0  0  0
  6  5  1  0  0  0  0
 12 11  1  0  0  0  0
 16 15  1  0  0  0  0
M  END
> <IDNUMBER>
F6439-3514

> <Chemical_Name>
N-{2-[5-cyclopropyl-3-(trifluoromethyl)-1H-pyrazol-1-yl]ethyl}-2-(2,5-dioxopyrrolidin-1-yl)acetamide

> <CAS>
1797717-19-1

> <PriceCoeff>
1.00

> <MW>
358.32

> <Description>
solid

> <FSP3>
0.60

> <clogP>
1.09

> <TPSA>
84.30

> <Acceptor>
4

> <Donor>
1

> <RotBonds>
6

> <HAC>
25

> <Collection>
General

$$$$
F1468-0051
  -ISIS-  06222321452D

 21 23  0  0  0  0  0  0  0  0999 V2000
    1.2042   -1.9000    0.0000 C   0  0  0  0  0  0  0  0  0  0  0  0
    1.2042   -1.0917    0.0000 C   0  0  0  0  0  0  0  0  0  0  0  0
    0.4875   -2.2917    0.0000 N   0  0  3  0  0  0  0  0  0  0  0  0
   -0.2583   -1.0917    0.0000 N   0  0  3  0  0  0  0  0  0  0  0  0
   -0.2583   -1.9000    0.0000 C   0  0  0  0  0  0  0  0  0  0  0  0
    0.4875   -0.6792    0.0000 C   0  0  0  0  0  0  0  0  0  0  0  0
    2.0542   -0.7792    0.0000 N   0  0  3  0  0  0  0  0  0  0  0  0
    2.0000   -2.1417    0.0000 N   0  0  0  0  0  0  0  0  0  0  0  0
    2.4792   -1.4875    0.0000 C   0  0  0  0  0  0  0  0  0  0  0  0
    2.3292    0.0083    0.0000 C   0  0  0  0  0  0  0  0  0  0  0  0
    3.1417    0.1625    0.0000 N   0  0  3  0  0  0  0  0  0  0  0  0
   -0.9958   -2.2917    0.0000 O   0  0  0  0  0  0  0  0  0  0  0  0
    0.4875    0.1250    0.0000 O   0  0  0  0  0  0  0  0  0  0  0  0
    0.4875   -3.1000    0.0000 C   0  0  0  0  0  0  0  0  0  0  0  0
   -0.9750   -0.6667    0.0000 C   0  0  0  0  0  0  0  0  0  0  0  0
    3.6167   -0.5500    0.0000 C   0  0  0  0  0  0  0  0  0  0  0  0
    3.2917    0.8958    0.0000 C   0  0  0  0  0  0  0  0  0  0  0  0
    4.0667    1.2333    0.0000 C   0  0  0  0  0  0  0  0  0  0  0  0
    4.3292   -0.6792    0.0000 C   0  0  0  0  0  0  0  0  0  0  0  0
    4.9417   -0.1042    0.0000 C   0  0  0  0  0  0  0  0  0  0  0  0
    4.8375    0.7708    0.0000 C   0  0  0  0  0  0  0  0  0  0  0  0
  2  1  2  0  0  0  0
  3  1  1  0  0  0  0
  4  5  1  0  0  0  0
  5  3  1  0  0  0  0
  6  2  1  0  0  0  0
  7  2  1  0  0  0  0
  8  1  1  0  0  0  0
  9  8  2  0  0  0  0
 10  7  1  0  0  0  0
 11 10  1  0  0  0  0
 12  5  2  0  0  0  0
 13  6  2  0  0  0  0
 14  3  1  0  0  0  0
 15  4  1  0  0  0  0
 16 11  1  0  0  0  0
 17 11  1  0  0  0  0
 18 17  1  0  0  0  0
 19 16  1  0  0  0  0
 20 19  1  0  0  0  0
 21 18  1  0  0  0  0
  7  9  1  0  0  0  0
  6  4  1  0  0  0  0
 21 20  1  0  0  0  0
M  END
> <IDNUMBER>
F1468-0051

> <Chemical_Name>
7-[(azepan-1-yl)methyl]-1,3-dimethyl-2,3,6,7-tetrahydro-1H-purine-2,6-dione

> <CAS>
578744-11-3

> <PriceCoeff>
1.50

> <MW>
291.35

> <Description>
solid

> <FSP3>
0.64

> <clogP>
1.73

> <TPSA>
61.68

> <Acceptor>
3

> <Donor>
2

> <RotBonds>
2

> <HAC>
21

> <Collection>
Advanced

> <Reference_compound>
CHEMBL113

> <Similarity>
0.8640

$$$$
F1468-0053
  -ISIS-  06222321452D

 21 23  0  0  0  0  0  0  0  0999 V2000
    1.2042   -1.9000    0.0000 C   0  0  0  0  0  0  0  0  0  0  0  0
    1.2042   -1.0917    0.0000 C   0  0  0  0  0  0  0  0  0  0  0  0
    0.4875   -2.2917    0.0000 N   0  0  3  0  0  0  0  0  0  0  0  0
   -0.2583   -1.0917    0.0000 N   0  0  3  0  0  0  0  0  0  0  0  0
   -0.2583   -1.9000    0.0000 C   0  0  0  0  0  0  0  0  0  0  0  0
    0.4875   -0.6792    0.0000 C   0  0  0  0  0  0  0  0  0  0  0  0
    2.0542   -0.7792    0.0000 N   0  0  3  0  0  0  0  0  0  0  0  0
    2.0000   -2.1417    0.0000 N   0  0  0  0  0  0  0  0  0  0  0  0
    2.4792   -1.4875    0.0000 C   0  0  0  0  0  0  0  0  0  0  0  0
    2.3292    0.0083    0.0000 C   0  0  0  0  0  0  0  0  0  0  0  0
    3.1417    0.1625    0.0000 N   0  0  3  0  0  0  0  0  0  0  0  0
   -0.9958   -2.2917    0.0000 O   0  0  0  0  0  0  0  0  0  0  0  0
    0.4875    0.1250    0.0000 O   0  0  0  0  0  0  0  0  0  0  0  0
    3.4042    0.9458    0.0000 C   0  0  3  0  0  0  0  0  0  0  0  0
    0.4875   -3.1000    0.0000 C   0  0  0  0  0  0  0  0  0  0  0  0
   -0.9750   -0.6667    0.0000 C   0  0  0  0  0  0  0  0  0  0  0  0
    3.6792   -0.4542    0.0000 C   0  0  0  0  0  0  0  0  0  0  0  0
    2.9917    1.6583    0.0000 C   0  0  0  0  0  0  0  0  0  0  0  0
    4.2167    1.1083    0.0000 C   0  0  0  0  0  0  0  0  0  0  0  0
    4.4875   -0.3042    0.0000 C   0  0  0  0  0  0  0  0  0  0  0  0
    4.7667    0.4833    0.0000 C   0  0  0  0  0  0  0  0  0  0  0  0
  2  1  2  0  0  0  0
  3  1  1  0  0  0  0
  4  5  1  0  0  0  0
  5  3  1  0  0  0  0
  6  2  1  0  0  0  0
  7  2  1  0  0  0  0
  8  1  1  0  0  0  0
  9  8  2  0  0  0  0
 10  7  1  0  0  0  0
 11 10  1  0  0  0  0
 12  5  2  0  0  0  0
 13  6  2  0  0  0  0
 14 11  1  0  0  0  0
 15  3  1  0  0  0  0
 16  4  1  0  0  0  0
 17 11  1  0  0  0  0
 18 14  1  0  0  0  0
 19 14  1  0  0  0  0
 20 17  1  0  0  0  0
 21 20  1  0  0  0  0
  7  9  1  0  0  0  0
  6  4  1  0  0  0  0
 21 19  1  0  0  0  0
M  END
> <IDNUMBER>
F1468-0053

> <Chemical_Name>
1,3-dimethyl-7-[(2-methylpiperidin-1-yl)methyl]-2,3,6,7-tetrahydro-1H-purine-2,6-dione

> <CAS>
577700-15-3

> <PriceCoeff>
1.50

> <MW>
291.35

> <Description>
solid

> <FSP3>
0.64

> <clogP>
1.57

> <TPSA>
61.68

> <Acceptor>
3

> <Donor>
2

> <RotBonds>
2

> <HAC>
21

> <Collection>
Advanced

> <Reference_compound>
CHEMBL113

> <Similarity>
0.8380

$$$$
F1468-0067
  -ISIS-  06222321452D

 20 22  0  0  0  0  0  0  0  0999 V2000
    5.6167   -4.4125    0.0000 C   0  0  0  0  0  0  0  0  0  0  0  0
    5.6167   -3.6000    0.0000 C   0  0  0  0  0  0  0  0  0  0  0  0
    4.8917   -4.8000    0.0000 N   0  0  3  0  0  0  0  0  0  0  0  0
    4.1542   -3.6000    0.0000 N   0  0  3  0  0  0  0  0  0  0  0  0
    4.1542   -4.4125    0.0000 C   0  0  0  0  0  0  0  0  0  0  0  0
    4.8917   -3.1917    0.0000 C   0  0  0  0  0  0  0  0  0  0  0  0
    6.4625   -3.2875    0.0000 N   0  0  3  0  0  0  0  0  0  0  0  0
    6.4042   -4.6500    0.0000 N   0  0  0  0  0  0  0  0  0  0  0  0
    6.8917   -4.0000    0.0000 C   0  0  0  0  0  0  0  0  0  0  0  0
    6.7292   -2.5042    0.0000 C   0  0  0  0  0  0  0  0  0  0  0  0
    7.5417   -2.3500    0.0000 N   0  0  3  0  0  0  0  0  0  0  0  0
    3.4167   -4.8000    0.0000 O   0  0  0  0  0  0  0  0  0  0  0  0
    4.8917   -2.3875    0.0000 O   0  0  0  0  0  0  0  0  0  0  0  0
    4.8917   -5.6125    0.0000 C   0  0  0  0  0  0  0  0  0  0  0  0
    3.4292   -3.1792    0.0000 C   0  0  0  0  0  0  0  0  0  0  0  0
    8.0875   -2.9750    0.0000 C   0  0  0  0  0  0  0  0  0  0  0  0
    7.8125   -1.5667    0.0000 C   0  0  0  0  0  0  0  0  0  0  0  0
    8.6250   -1.4125    0.0000 C   0  0  0  0  0  0  0  0  0  0  0  0
    8.8917   -2.8167    0.0000 C   0  0  0  0  0  0  0  0  0  0  0  0
    9.1667   -2.0375    0.0000 C   0  0  0  0  0  0  0  0  0  0  0  0
  2  1  2  0  0  0  0
  3  1  1  0  0  0  0
  4  5  1  0  0  0  0
  5  3  1  0  0  0  0
  6  2  1  0  0  0  0
  7  2  1  0  0  0  0
  8  1  1  0  0  0  0
  9  8  2  0  0  0  0
 10  7  1  0  0  0  0
 11 10  1  0  0  0  0
 12  5  2  0  0  0  0
 13  6  2  0  0  0  0
 14  3  1  0  0  0  0
 15  4  1  0  0  0  0
 16 11  1  0  0  0  0
 17 11  1  0  0  0  0
 18 17  1  0  0  0  0
 19 16  1  0  0  0  0
 20 18  1  0  0  0  0
  9  7  1  0  0  0  0
  4  6  1  0  0  0  0
 20 19  1  0  0  0  0
M  END
> <IDNUMBER>
F1468-0067

> <Chemical_Name>
1,3-dimethyl-7-[(piperidin-1-yl)methyl]-2,3,6,7-tetrahydro-1H-purine-2,6-dione

> <CAS>
4873-93-2

> <PriceCoeff>
1.50

> <MW>
277.32

> <Description>
solid

> <FSP3>
0.62

> <clogP>
1.17

> <TPSA>
61.68

> <Acceptor>
3

> <Donor>
2

> <RotBonds>
2

> <HAC>
20

> <Collection>
Advanced

> <Reference_compound>
CHEMBL113

> <Similarity>
0.8610

$$$$
F5381-0026
  -ISIS-  06222321152D

 27 29  0  0  0  0  0  0  0  0999 V2000
   -3.1375    4.2167    0.0000 S   0  0  3  0  0  0  0  0  0  0  0  0
   -0.9583    4.6375    0.0000 N   0  0  3  0  0  0  0  0  0  0  0  0
   -3.8625    3.8000    0.0000 N   0  0  3  0  0  0  0  0  0  0  0  0
   -2.4125    4.6417    0.0000 C   0  0  0  0  0  0  0  0  0  0  0  0
   -5.3208    2.9583    0.0000 N   0  0  3  0  0  0  0  0  0  0  0  0
   -6.0417    2.5375    0.0000 C   0  0  0  0  0  0  0  0  0  0  0  0
   -0.2250    4.2167    0.0000 C   0  0  0  0  0  0  0  0  0  0  0  0
   -0.9500    5.4667    0.0000 C   0  0  0  0  0  0  0  0  0  0  0  0
   -1.6875    4.2125    0.0000 C   0  0  0  0  0  0  0  0  0  0  0  0
   -4.6000    4.2125    0.0000 C   0  0  0  0  0  0  0  0  0  0  0  0
   -3.8750    2.9583    0.0000 C   0  0  0  0  0  0  0  0  0  0  0  0
   -6.0417    1.7000    0.0000 C   0  0  0  0  0  0  0  0  0  0  0  0
   -3.5500    4.9417    0.0000 O   0  0  0  0  0  0  0  0  0  0  0  0
   -2.7083    3.5000    0.0000 O   0  0  0  0  0  0  0  0  0  0  0  0
   -5.3333    3.7958    0.0000 C   0  0  0  0  0  0  0  0  0  0  0  0
   -4.5958    2.5375    0.0000 C   0  0  0  0  0  0  0  0  0  0  0  0
   -6.7667    2.9583    0.0000 C   0  0  0  0  0  0  0  0  0  0  0  0
   -0.2333    3.3833    0.0000 O   0  0  0  0  0  0  0  0  0  0  0  0
   -1.6833    5.8917    0.0000 O   0  0  0  0  0  0  0  0  0  0  0  0
   -7.5000    2.5375    0.0000 C   0  0  0  0  0  0  0  0  0  0  0  0
   -6.7667    1.2750    0.0000 C   0  0  0  0  0  0  0  0  0  0  0  0
   -7.5000    1.6958    0.0000 C   0  0  0  0  0  0  0  0  0  0  0  0
   -6.7542    0.4375    0.0000 Cl  0  0  0  0  0  0  0  0  0  0  0  0
   -0.2333    5.8917    0.0000 C   0  0  0  0  0  0  0  0  0  0  0  0
    0.5042    4.6375    0.0000 C   0  0  0  0  0  0  0  0  0  0  0  0
    0.4917    5.4667    0.0000 C   0  0  0  0  0  0  0  0  0  0  0  0
   -6.7625    3.7958    0.0000 C   0  0  0  0  0  0  0  0  0  0  0  0
  2  9  1  0  0  0  0
  3  1  1  0  0  0  0
  4  1  1  0  0  0  0
  5 16  1  0  0  0  0
  6  5  1  0  0  0  0
  7  2  1  0  0  0  0
  8  2  1  0  0  0  0
  9  4  1  0  0  0  0
 10  3  1  0  0  0  0
 11  3  1  0  0  0  0
 12  6  1  0  0  0  0
 13  1  2  0  0  0  0
 14  1  2  0  0  0  0
 15 10  1  0  0  0  0
 16 11  1  0  0  0  0
 17  6  2  0  0  0  0
 18  7  2  0  0  0  0
 19  8  2  0  0  0  0
 20 17  1  0  0  0  0
 21 12  2  0  0  0  0
 22 20  2  0  0  0  0
 23 21  1  0  0  0  0
 24  8  1  0  0  0  0
 25  7  1  0  0  0  0
 26 24  1  0  0  0  0
 27 17  1  0  0  0  0
  5 15  1  0  0  0  0
 26 25  1  0  0  0  0
 22 21  1  0  0  0  0
M  END
> <IDNUMBER>
F5381-0026

> <Chemical_Name>
1-(2-{[4-(5-chloro-2-methylphenyl)piperazin-1-yl]sulfonyl}ethyl)piperidine-2,6-dione

> <CAS>
1040675-41-9

> <PriceCoeff>
1.00

> <MW>
413.92

> <Description>
solid

> <FSP3>
0.56

> <clogP>
3.50

> <TPSA>
86.38

> <Acceptor>
5

> <Donor>
1

> <RotBonds>
5

> <HAC>
27

> <Collection>
General

$$$$
F6415-0386
  -ISIS-  06222321152D

 22 23  0  0  0  0  0  0  0  0999 V2000
   -4.5833    3.8000    0.0000 C   0  0  0  0  0  0  0  0  0  0  0  0
   -3.8625    4.2125    0.0000 N   0  0  3  0  0  0  0  0  0  0  0  0
   -4.5833    2.9792    0.0000 N   0  0  0  0  0  0  0  0  0  0  0  0
   -2.4333    4.2167    0.0000 C   0  0  0  0  0  0  0  0  0  0  0  0
   -6.0042    1.3375    0.0000 C   0  0  0  0  0  0  0  0  0  0  0  0
   -5.3083    1.7458    0.0000 C   0  0  0  0  0  0  0  0  0  0  0  0
   -3.1458    3.8083    0.0000 C   0  0  0  0  0  0  0  0  0  0  0  0
   -5.3000    2.5792    0.0000 C   0  0  0  0  0  0  0  0  0  0  0  0
   -5.3000    4.2125    0.0000 O   0  0  0  0  0  0  0  0  0  0  0  0
   -1.1250    4.5000    0.0000 O   0  0  0  0  0  0  0  0  0  0  0  0
   -1.6750    3.8917    0.0000 C   0  0  0  0  0  0  0  0  0  0  0  0
   -6.7167    1.7458    0.0000 C   0  0  0  0  0  0  0  0  0  0  0  0
   -2.3500    5.0333    0.0000 C   0  0  0  0  0  0  0  0  0  0  0  0
   -1.5458    5.2125    0.0000 C   0  0  0  0  0  0  0  0  0  0  0  0
   -6.7208    2.5708    0.0000 C   0  0  0  0  0  0  0  0  0  0  0  0
   -6.0042    0.5083    0.0000 Cl  0  0  0  0  0  0  0  0  0  0  0  0
   -6.0042    2.9833    0.0000 C   0  0  0  0  0  0  0  0  0  0  0  0
   -7.4417    1.3250    0.0000 Cl  0  0  0  0  0  0  0  0  0  0  0  0
   -3.8583    5.0333    0.0000 C   0  0  0  0  0  0  0  0  0  0  0  0
   -4.5833    6.2667    0.0000 O   0  0  0  0  0  0  0  0  0  0  0  0
   -4.5833    5.4417    0.0000 C   0  0  0  0  0  0  0  0  0  0  0  0
   -5.3083    6.6792    0.0000 C   0  0  0  0  0  0  0  0  0  0  0  0
  2  1  1  0  0  0  0
  3  1  1  0  0  0  0
  4  7  1  0  0  0  0
  5  6  1  0  0  0  0
  6  8  2  0  0  0  0
  7  2  1  0  0  0  0
  8  3  1  0  0  0  0
  9  1  2  0  0  0  0
 10 11  1  0  0  0  0
 11  4  2  0  0  0  0
 12 15  1  0  0  0  0
 13  4  1  0  0  0  0
 14 13  2  0  0  0  0
 15 17  2  0  0  0  0
 16  5  1  0  0  0  0
 17  8  1  0  0  0  0
 18 12  1  0  0  0  0
 19  2  1  0  0  0  0
 20 21  1  0  0  0  0
 21 19  1  0  0  0  0
 22 20  1  0  0  0  0
  5 12  2  0  0  0  0
 10 14  1  0  0  0  0
M  END
> <IDNUMBER>
F6415-0386

> <Chemical_Name>
1-(3,4-dichlorophenyl)-3-[(furan-3-yl)methyl]-3-(2-methoxyethyl)urea

> <CAS>
1421483-17-1

> <PriceCoeff>
1.00

> <MW>
343.21

> <Description>
oil

> <FSP3>
0.27

> <clogP>
3.67

> <TPSA>
54.71

> <Acceptor>
3

> <Donor>
1

> <RotBonds>
7

> <HAC>
22

> <Collection>
General

$$$$
F8884-9331
  -ISIS-  06222321442D

  9 10  0  0  0  0  0  0  0  0999 V2000
    0.8625   -0.9750    0.0000 C   0  0  0  0  0  0  0  0  0  0  0  0
    1.6875   -0.9750    0.0000 C   0  0  3  0  0  0  0  0  0  0  0  0
    0.8625   -0.1500    0.0000 C   0  0  0  0  0  0  0  0  0  0  0  0
    1.6875   -0.1500    0.0000 C   0  0  3  0  0  0  0  0  0  0  0  0
    0.2792   -1.5542    0.0000 O   0  0  0  0  0  0  0  0  0  0  0  0
    2.4042    0.2625    0.0000 C   0  0  0  0  0  0  0  0  0  0  0  0
    2.4042   -1.3875    0.0000 C   0  0  0  0  0  0  0  0  0  0  0  0
    3.1167   -0.1500    0.0000 C   0  0  0  0  0  0  0  0  0  0  0  0
    3.1167   -0.9750    0.0000 C   0  0  0  0  0  0  0  0  0  0  0  0
  2  1  1  0  0  0  0
  3  1  1  0  0  0  0
  4  3  1  0  0  0  0
  5  1  2  0  0  0  0
  6  4  1  0  0  0  0
  7  2  1  0  0  0  0
  8  6  1  0  0  0  0
  9  7  1  0  0  0  0
  4  2  1  0  0  0  0
  9  8  1  0  0  0  0
M  END
> <IDNUMBER>
F8884-9331

> <Chemical_Name>
bicyclo[4.2.0]octan-7-one

> <CAS>
54211-18-6

> <PriceCoeff>
1.00

> <MW>
124.18

> <Description>
liquid

> <FSP3>
0.88

> <clogP>
1.18

> <TPSA>
17.07

> <Acceptor>
1

> <Donor>
0

> <RotBonds>
0

> <HAC>
9

> <Collection>
General

> <Reference_compound>
CHEMBL2268548

> <Similarity>
0.8000

$$$$
F0745-1002
  -ISIS-  06222321142D

 12 12  0  0  0  0  0  0  0  0999 V2000
   -0.3500    0.6958    0.0000 C   0  0  0  0  0  0  0  0  0  0  0  0
   -1.0333    0.8958    0.0000 C   0  0  0  0  0  0  0  0  0  0  0  0
   -1.5958    0.4708    0.0000 S   0  0  0  0  0  0  0  0  0  0  0  0
   -0.1958    0.0333    0.0000 N   0  0  0  0  0  0  0  0  0  0  0  0
    0.6500   -0.8500    0.0000 C   0  0  0  0  0  0  0  0  0  0  0  0
   -1.2500    1.5500    0.0000 C   0  0  0  0  0  0  0  0  0  0  0  0
   -2.1500    0.8958    0.0000 C   0  0  0  0  0  0  0  0  0  0  0  0
    0.1500    1.1958    0.0000 O   0  0  0  0  0  0  0  0  0  0  0  0
   -1.9333    1.5500    0.0000 C   0  0  0  0  0  0  0  0  0  0  0  0
    1.3042   -1.0667    0.0000 O   0  0  0  0  0  0  0  0  0  0  0  0
    0.4875   -0.1667    0.0000 C   0  0  0  0  0  0  0  0  0  0  0  0
    0.1292   -1.3292    0.0000 O   0  0  0  0  0  0  0  0  0  0  0  0
  2  1  1  0  0  0  0
  3  2  1  0  0  0  0
  4  1  1  0  0  0  0
  5 11  1  0  0  0  0
  6  2  2  0  0  0  0
  7  3  1  0  0  0  0
  8  1  2  0  0  0  0
  9  6  1  0  0  0  0
 10  5  2  0  0  0  0
 11  4  1  0  0  0  0
 12  5  1  0  0  0  0
  9  7  2  0  0  0  0
M  END
> <IDNUMBER>
F0745-1002

> <Chemical_Name>
2-[(thiophen-2-yl)formamido]acetic acid

> <CAS>
33955-17-8

> <PriceCoeff>
1.00

> <MW>
185.20

> <Description>
solid

> <FSP3>
0.14

> <clogP>
0.49

> <TPSA>
66.40

> <Acceptor>
3

> <Donor>
1

> <RotBonds>
3

> <HAC>
12

> <Collection>
General

> <Reference_compound>
CHEMBL455996

> <Similarity>
1.0000

$$$$
F5832-4178
  -ISIS-  06222321152D

 21 22  0  0  0  0  0  0  0  0999 V2000
   -5.2875    2.5625    0.0000 N   0  0  3  0  0  0  0  0  0  0  0  0
   -5.3708    1.7333    0.0000 C   0  0  0  0  0  0  0  0  0  0  0  0
   -6.0292    2.9000    0.0000 C   0  0  0  0  0  0  0  0  0  0  0  0
   -2.4333    5.0292    0.0000 C   0  0  0  0  0  0  0  0  0  0  0  0
   -3.1458    5.4417    0.0000 C   0  0  3  0  0  0  0  0  0  0  0  0
   -4.5833    2.9833    0.0000 C   0  0  0  0  0  0  0  0  0  0  0  0
   -2.3458    4.2125    0.0000 S   0  0  0  0  0  0  0  0  0  0  0  0
   -4.5833    3.8000    0.0000 C   0  0  0  0  0  0  0  0  0  0  0  0
   -3.8625    5.0417    0.0000 C   0  0  0  0  0  0  0  0  0  0  0  0
   -3.8625    4.2125    0.0000 N   0  0  0  0  0  0  0  0  0  0  0  0
   -3.1458    6.2792    0.0000 N   0  0  3  0  0  0  0  0  0  0  0  0
   -6.1667    1.5583    0.0000 C   0  0  0  0  0  0  0  0  0  0  0  0
   -6.5875    2.2833    0.0000 C   0  0  0  0  0  0  0  0  0  0  0  0
   -1.6750    5.3667    0.0000 C   0  0  0  0  0  0  0  0  0  0  0  0
   -4.7583    1.1708    0.0000 O   0  0  0  0  0  0  0  0  0  0  0  0
   -6.2125    3.7083    0.0000 O   0  0  0  0  0  0  0  0  0  0  0  0
   -1.5375    4.0292    0.0000 C   0  0  0  0  0  0  0  0  0  0  0  0
   -1.1208    4.7500    0.0000 C   0  0  0  0  0  0  0  0  0  0  0  0
   -5.3000    4.2125    0.0000 O   0  0  0  0  0  0  0  0  0  0  0  0
   -3.8458    6.7042    0.0000 C   0  0  0  0  0  0  0  0  0  0  0  0
   -2.4208    6.6917    0.0000 C   0  0  0  0  0  0  0  0  0  0  0  0
  2  1  1  0  0  0  0
  3  1  1  0  0  0  0
  4  5  1  0  0  0  0
  5  9  1  0  0  0  0
  6  1  1  0  0  0  0
  7  4  1  0  0  0  0
  8  6  1  0  0  0  0
  9 10  1  0  0  0  0
 10  8  1  0  0  0  0
 11  5  1  0  0  0  0
 12  2  1  0  0  0  0
 13  3  1  0  0  0  0
 14  4  2  0  0  0  0
 15  2  2  0  0  0  0
 16  3  2  0  0  0  0
 17  7  1  0  0  0  0
 18 14  1  0  0  0  0
 19  8  2  0  0  0  0
 20 11  1  0  0  0  0
 21 11  1  0  0  0  0
 12 13  1  0  0  0  0
 18 17  2  0  0  0  0
M  END
> <IDNUMBER>
F5832-4178

> <Chemical_Name>
N-[2-(dimethylamino)-2-(thiophen-2-yl)ethyl]-2-(2,5-dioxopyrrolidin-1-yl)acetamide

> <CAS>
1209982-16-0

> <PriceCoeff>
1.00

> <MW>
309.38

> <Description>
solid

> <FSP3>
0.50

> <clogP>
0.68

> <TPSA>
97.96

> <Acceptor>
3

> <Donor>
2

> <RotBonds>
6

> <HAC>
21

> <Collection>
General

$$$$
F5940-1920
  -ISIS-  06222321442D

 28 30  0  0  0  0  0  0  0  0999 V2000
    9.4167   -5.1417    0.0000 S   0  0  3  0  0  0  0  0  0  0  0  0
    7.3375   -5.8167    0.0000 N   0  0  3  0  0  0  0  0  0  0  0  0
   10.2417   -5.1542    0.0000 N   0  0  3  0  0  0  0  0  0  0  0  0
    8.5917   -5.1292    0.0000 C   0  0  0  0  0  0  0  0  0  0  0  0
    6.9375   -5.1000    0.0000 C   0  0  0  0  0  0  0  0  0  0  0  0
    6.9042   -6.5167    0.0000 C   0  0  0  0  0  0  0  0  0  0  0  0
    8.1667   -5.8375    0.0000 C   0  0  0  0  0  0  0  0  0  0  0  0
    9.4375   -4.3167    0.0000 O   0  0  0  0  0  0  0  0  0  0  0  0
    9.4042   -5.9667    0.0000 O   0  0  0  0  0  0  0  0  0  0  0  0
   10.6667   -4.4417    0.0000 C   0  0  0  0  0  0  0  0  0  0  0  0
   10.6375   -5.8792    0.0000 C   0  0  0  0  0  0  0  0  0  0  0  0
    7.3625   -4.3792    0.0000 O   0  0  0  0  0  0  0  0  0  0  0  0
    7.3042   -7.2417    0.0000 O   0  0  0  0  0  0  0  0  0  0  0  0
   13.1042   -5.9250    0.0000 O   0  0  0  0  0  0  0  0  0  0  0  0
   11.4917   -4.4667    0.0000 C   0  0  0  0  0  0  0  0  0  0  0  0
   11.4542   -5.8917    0.0000 C   0  0  0  0  0  0  0  0  0  0  0  0
    6.1167   -5.0792    0.0000 C   0  0  0  0  0  0  0  0  0  0  0  0
    6.0792   -6.5042    0.0000 C   0  0  0  0  0  0  0  0  0  0  0  0
   11.8875   -5.1875    0.0000 C   0  0  3  0  0  0  0  0  0  0  0  0
   14.3167   -6.6667    0.0000 C   0  0  0  0  0  0  0  0  0  0  0  0
    5.6875   -5.7792    0.0000 C   0  0  0  0  0  0  0  0  0  0  0  0
   13.9250   -5.9417    0.0000 C   0  0  0  0  0  0  0  0  0  0  0  0
   12.7042   -5.2042    0.0000 C   0  0  0  0  0  0  0  0  0  0  0  0
   13.8917   -7.3667    0.0000 C   0  0  0  0  0  0  0  0  0  0  0  0
   15.1375   -6.6792    0.0000 C   0  0  0  0  0  0  0  0  0  0  0  0
   15.5375   -7.4000    0.0000 C   0  0  0  0  0  0  0  0  0  0  0  0
   14.2875   -8.0917    0.0000 C   0  0  0  0  0  0  0  0  0  0  0  0
   15.1042   -8.1042    0.0000 C   0  0  0  0  0  0  0  0  0  0  0  0
  2  7  1  0  0  0  0
  3  1  1  0  0  0  0
  4  1  1  0  0  0  0
  5  2  1  0  0  0  0
  6  2  1  0  0  0  0
  7  4  1  0  0  0  0
  8  1  2  0  0  0  0
  9  1  2  0  0  0  0
 10  3  1  0  0  0  0
 11  3  1  0  0  0  0
 12  5  2  0  0  0  0
 13  6  2  0  0  0  0
 14 23  1  0  0  0  0
 15 10  1  0  0  0  0
 16 11  1  0  0  0  0
 17  5  1  0  0  0  0
 18  6  1  0  0  0  0
 19 16  1  0  0  0  0
 20 22  1  0  0  0  0
 21 18  1  0  0  0  0
 22 14  1  0  0  0  0
 23 19  1  0  0  0  0
 24 20  2  0  0  0  0
 25 20  1  0  0  0  0
 26 25  2  0  0  0  0
 27 24  1  0  0  0  0
 28 26  1  0  0  0  0
 19 15  1  0  0  0  0
 21 17  1  0  0  0  0
 27 28  2  0  0  0  0
M  END
> <IDNUMBER>
F5940-1920

> <Chemical_Name>
1-[2-({4-[(benzyloxy)methyl]piperidin-1-yl}sulfonyl)ethyl]piperidine-2,6-dione

> <CAS>
1226459-83-1

> <PriceCoeff>
1.00

> <MW>
408.51

> <Description>
solid

> <FSP3>
0.60

> <clogP>
2.20

> <TPSA>
92.37

> <Acceptor>
5

> <Donor>
0

> <RotBonds>
8

> <HAC>
28

> <Collection>
General

$$$$
F3259-0266
  -ISIS-  06222321462D

 21 23  0  0  0  0  0  0  0  0999 V2000
    4.5417    2.4250    0.0000 C   0  0  0  0  0  0  0  0  0  0  0  0
    4.1667    1.7750    0.0000 C   0  0  0  0  0  0  0  0  0  0  0  0
    5.2917    2.4250    0.0000 N   0  0  3  0  0  0  0  0  0  0  0  0
    5.2917    1.1250    0.0000 N   0  0  3  0  0  0  0  0  0  0  0  0
    5.6667    1.7750    0.0000 C   0  0  0  0  0  0  0  0  0  0  0  0
    4.5417    1.1250    0.0000 C   0  0  0  0  0  0  0  0  0  0  0  0
    4.0417    2.9833    0.0000 N   0  0  0  0  0  0  0  0  0  0  0  0
    3.4375    1.9333    0.0000 N   0  0  3  0  0  0  0  0  0  0  0  0
    3.3542    2.6750    0.0000 C   0  0  0  0  0  0  0  0  0  0  0  0
    2.8792    1.4333    0.0000 C   0  0  0  0  0  0  0  0  0  0  0  0
    6.4167    1.7750    0.0000 O   0  0  0  0  0  0  0  0  0  0  0  0
    4.1667    0.4750    0.0000 O   0  0  0  0  0  0  0  0  0  0  0  0
    5.6667    3.0833    0.0000 C   0  0  0  0  0  0  0  0  0  0  0  0
    5.6667    0.4750    0.0000 C   0  0  0  0  0  0  0  0  0  0  0  0
    2.1667    1.6583    0.0000 C   0  0  0  0  0  0  0  0  0  0  0  0
    0.7375    2.1250    0.0000 C   0  0  0  0  0  0  0  0  0  0  0  0
    1.6042    1.1583    0.0000 C   0  0  0  0  0  0  0  0  0  0  0  0
    2.0042    2.3958    0.0000 C   0  0  0  0  0  0  0  0  0  0  0  0
    1.2917    2.6250    0.0000 C   0  0  0  0  0  0  0  0  0  0  0  0
    0.8917    1.3958    0.0000 C   0  0  0  0  0  0  0  0  0  0  0  0
    0.0250    2.3583    0.0000 C   0  0  0  0  0  0  0  0  0  0  0  0
  2  1  2  0  0  0  0
  3  1  1  0  0  0  0
  4  5  1  0  0  0  0
  5  3  1  0  0  0  0
  6  2  1  0  0  0  0
  7  1  1  0  0  0  0
  8  2  1  0  0  0  0
  9  7  2  0  0  0  0
 10  8  1  0  0  0  0
 11  5  2  0  0  0  0
 12  6  2  0  0  0  0
 13  3  1  0  0  0  0
 14  4  1  0  0  0  0
 15 10  1  0  0  0  0
 16 19  1  0  0  0  0
 17 15  2  0  0  0  0
 18 15  1  0  0  0  0
 19 18  2  0  0  0  0
 20 17  1  0  0  0  0
 21 16  1  0  0  0  0
  8  9  1  0  0  0  0
  4  6  1  0  0  0  0
 20 16  2  0  0  0  0
M  END
> <IDNUMBER>
F3259-0266

> <Chemical_Name>
1,3-dimethyl-7-[(4-methylphenyl)methyl]-2,3,6,7-tetrahydro-1H-purine-2,6-dione

> <CAS>
70404-22-7

> <PriceCoeff>
1.50

> <MW>
284.31

> <Description>
solid

> <FSP3>
0.27

> <clogP>
1.98

> <TPSA>
58.44

> <Acceptor>
3

> <Donor>
1

> <RotBonds>
2

> <HAC>
21

> <Collection>
Advanced

> <Reference_compound>
CHEMBL113

> <Similarity>
0.8580

$$$$
F6473-6040
  -ISIS-  06222321152D

 23 25  0  0  0  0  0  0  0  0999 V2000
   -4.4583    2.4708    0.0000 N   0  0  3  0  0  0  0  0  0  0  0  0
   -3.0333    4.1042    0.0000 N   0  0  3  0  0  0  0  0  0  0  0  0
   -3.7458    3.6958    0.0000 C   0  0  0  0  0  0  0  0  0  0  0  0
   -1.3125    5.9167    0.0000 C   0  0  0  0  0  0  0  0  0  0  0  0
   -0.6000    6.3250    0.0000 C   0  0  0  0  0  0  0  0  0  0  0  0
   -3.7500    2.8750    0.0000 C   0  0  0  0  0  0  0  0  0  0  0  0
   -4.5458    1.6458    0.0000 C   0  0  0  0  0  0  0  0  0  0  0  0
   -5.1958    2.7958    0.0000 C   0  0  0  0  0  0  0  0  0  0  0  0
   -0.5958    7.1417    0.0000 C   0  0  0  0  0  0  0  0  0  0  0  0
   -2.0250    6.3250    0.0000 C   0  0  0  0  0  0  0  0  0  0  0  0
   -1.3083    7.5542    0.0000 O   0  0  0  0  0  0  0  0  0  0  0  0
   -2.0208    7.1417    0.0000 C   0  0  0  0  0  0  0  0  0  0  0  0
   -2.0208    4.6875    0.0000 C   0  0  3  0  0  0  0  0  0  0  0  0
   -2.8208    4.9000    0.0000 C   0  0  0  0  0  0  0  0  0  0  0  0
   -2.2333    3.8958    0.0000 C   0  0  0  0  0  0  0  0  0  0  0  0
   -1.3083    5.0917    0.0000 O   0  0  0  0  0  0  0  0  0  0  0  0
   -4.4667    4.1042    0.0000 O   0  0  0  0  0  0  0  0  0  0  0  0
   -5.3417    1.4750    0.0000 C   0  0  0  0  0  0  0  0  0  0  0  0
   -5.7458    2.1875    0.0000 C   0  0  0  0  0  0  0  0  0  0  0  0
   -3.9250    1.0833    0.0000 O   0  0  0  0  0  0  0  0  0  0  0  0
   -5.3708    3.6083    0.0000 O   0  0  0  0  0  0  0  0  0  0  0  0
    0.1167    7.5542    0.0000 O   0  0  0  0  0  0  0  0  0  0  0  0
   -2.7333    7.5667    0.0000 C   0  0  0  0  0  0  0  0  0  0  0  0
  2  3  1  0  0  0  0
  3  6  1  0  0  0  0
  4 16  1  0  0  0  0
  5  4  2  0  0  0  0
  6  1  1  0  0  0  0
  7  1  1  0  0  0  0
  8  1  1  0  0  0  0
  9  5  1  0  0  0  0
 10  4  1  0  0  0  0
 11 12  1  0  0  0  0
 12 10  2  0  0  0  0
 13 15  1  0  0  0  0
 14  2  1  0  0  0  0
 15  2  1  0  0  0  0
 16 13  1  0  0  0  0
 17  3  2  0  0  0  0
 18  7  1  0  0  0  0
 19  8  1  0  0  0  0
 20  7  2  0  0  0  0
 21  8  2  0  0  0  0
 22  9  2  0  0  0  0
 23 12  1  0  0  0  0
 18 19  1  0  0  0  0
 14 13  1  0  0  0  0
 11  9  1  0  0  0  0
M  END
> <IDNUMBER>
F6473-6040

> <Chemical_Name>
1-(2-{3-[(6-methyl-2-oxo-2H-pyran-4-yl)oxy]azetidin-1-yl}-2-oxoethyl)pyrrolidine-2,5-dione

> <CAS>
1788680-14-7

> <PriceCoeff>
1.00

> <MW>
320.30

> <Description>
solid

> <FSP3>
0.47

> <clogP>
0.59

> <TPSA>
93.22

> <Acceptor>
6

> <Donor>
0

> <RotBonds>
5

> <HAC>
23

> <Collection>
General

$$$$
F3329-0375
  -ISIS-  06222321442D

 10 11  0  0  0  0  0  0  0  0999 V2000
    3.6542   -1.0792    0.0000 C   0  0  0  0  0  0  0  0  0  0  0  0
    3.6750   -1.8875    0.0000 C   0  0  0  0  0  0  0  0  0  0  0  0
    5.0667   -1.8417    0.0000 N   0  0  0  0  0  0  0  0  0  0  0  0
    2.9417   -0.7125    0.0000 C   0  0  0  0  0  0  0  0  0  0  0  0
    3.0042   -2.3125    0.0000 N   0  0  0  0  0  0  0  0  0  0  0  0
    4.3792   -2.2667    0.0000 N   0  0  0  0  0  0  0  0  0  0  0  0
    2.2542   -1.1417    0.0000 N   0  0  0  0  0  0  0  0  0  0  0  0
    2.2917   -1.9417    0.0000 C   0  0  0  0  0  0  0  0  0  0  0  0
    5.0417   -1.0417    0.0000 C   0  0  0  0  0  0  0  0  0  0  0  0
    2.9042    0.0958    0.0000 O   0  0  0  0  0  0  0  0  0  0  0  0
  2  1  2  0  0  0  0
  3  9  2  0  0  0  0
  4  1  1  0  0  0  0
  5  2  1  0  0  0  0
  6  2  1  0  0  0  0
  7  4  2  0  0  0  0
  8  7  1  0  0  0  0
  9  1  1  0  0  0  0
 10  4  1  0  0  0  0
  6  3  1  0  0  0  0
  8  5  2  0  0  0  0
M  END
> <IDNUMBER>
F3329-0375

> <Chemical_Name>
1H-pyrazolo[3,4-d]pyrimidin-4-ol

> <CAS>
315-30-0

> <PriceCoeff>
1.00

> <MW>
136.11

> <Description>
solid

> <FSP3>
0.00

> <clogP>
0.63

> <TPSA>
74.69

> <Acceptor>
5

> <Donor>
5

> <RotBonds>
0

> <HAC>
10

> <Collection>
General

> <Reference_compound>
CHEMBL1467

> <Similarity>
1.0000

$$$$
F3316-0238
  -ISIS-  06222321152D

 21 22  0  0  0  0  0  0  0  0999 V2000
    1.0792   -1.5917    0.0000 N   0  0  3  0  0  0  0  0  0  0  0  0
    3.5417   -3.0167    0.0000 S   0  0  3  0  0  0  0  0  0  0  0  0
    0.2542   -1.5500    0.0000 N   0  0  0  0  0  0  0  0  0  0  0  0
    0.7292   -0.3042    0.0000 C   0  0  0  0  0  0  0  0  0  0  0  0
    1.3750   -0.8250    0.0000 C   0  0  0  0  0  0  0  0  0  0  0  0
    0.0417   -0.7542    0.0000 C   0  0  0  0  0  0  0  0  0  0  0  0
    4.3667   -3.0167    0.0000 C   0  0  0  0  0  0  0  0  0  0  0  0
    3.5417   -2.1917    0.0000 O   0  0  0  0  0  0  0  0  0  0  0  0
    3.5417   -3.8417    0.0000 O   0  0  0  0  0  0  0  0  0  0  0  0
    2.7167   -3.0167    0.0000 N   0  0  0  0  0  0  0  0  0  0  0  0
    1.4875   -2.3042    0.0000 C   0  0  0  0  0  0  0  0  0  0  0  0
    0.7292    0.5208    0.0000 Cl  0  0  0  0  0  0  0  0  0  0  0  0
    2.3125   -2.3042    0.0000 C   0  0  0  0  0  0  0  0  0  0  0  0
    4.7750   -3.7292    0.0000 C   0  0  0  0  0  0  0  0  0  0  0  0
    4.7792   -2.3167    0.0000 C   0  0  0  0  0  0  0  0  0  0  0  0
    2.1667   -0.6042    0.0000 C   0  0  0  0  0  0  0  0  0  0  0  0
   -0.7583   -0.5417    0.0000 C   0  0  0  0  0  0  0  0  0  0  0  0
    5.5917   -3.7292    0.0000 C   0  0  0  0  0  0  0  0  0  0  0  0
    5.5917   -2.3167    0.0000 C   0  0  0  0  0  0  0  0  0  0  0  0
    6.0042   -3.0250    0.0000 C   0  0  0  0  0  0  0  0  0  0  0  0
    6.8167   -3.0250    0.0000 C   0  0  0  0  0  0  0  0  0  0  0  0
  2 10  1  0  0  0  0
  3  1  1  0  0  0  0
  4  5  2  0  0  0  0
  5  1  1  0  0  0  0
  6  3  2  0  0  0  0
  7  2  1  0  0  0  0
  8  2  2  0  0  0  0
  9  2  2  0  0  0  0
 10 13  1  0  0  0  0
 11  1  1  0  0  0  0
 12  4  1  0  0  0  0
 13 11  1  0  0  0  0
 14  7  2  0  0  0  0
 15  7  1  0  0  0  0
 16  5  1  0  0  0  0
 17  6  1  0  0  0  0
 18 14  1  0  0  0  0
 19 15  2  0  0  0  0
 20 19  1  0  0  0  0
 21 20  1  0  0  0  0
  4  6  1  0  0  0  0
 18 20  2  0  0  0  0
M  END
> <IDNUMBER>
F3316-0238

> <Chemical_Name>
N-[2-(4-chloro-3,5-dimethyl-1H-pyrazol-1-yl)ethyl]-4-methylbenzene-1-sulfonamide

> <CAS>
1014071-78-3

> <PriceCoeff>
1.00

> <MW>
327.83

> <Description>
solid

> <FSP3>
0.36

> <clogP>
3.12

> <TPSA>
72.37

> <Acceptor>
3

> <Donor>
1

> <RotBonds>
5

> <HAC>
21

> <Collection>
General

$$$$
F1468-0150
  -ISIS-  06222321442D

 21 23  0  0  0  0  0  0  0  0999 V2000
    1.0667   -1.7167    0.0000 C   0  0  0  0  0  0  0  0  0  0  0  0
    1.0667   -0.9042    0.0000 C   0  0  0  0  0  0  0  0  0  0  0  0
    0.3417   -2.1042    0.0000 N   0  0  3  0  0  0  0  0  0  0  0  0
   -0.3958   -0.9042    0.0000 N   0  0  3  0  0  0  0  0  0  0  0  0
   -0.3958   -1.7167    0.0000 C   0  0  0  0  0  0  0  0  0  0  0  0
    0.3417   -0.5042    0.0000 C   0  0  0  0  0  0  0  0  0  0  0  0
    1.9167   -0.5917    0.0000 N   0  0  3  0  0  0  0  0  0  0  0  0
    1.8667   -1.9500    0.0000 N   0  0  0  0  0  0  0  0  0  0  0  0
    2.3417   -1.2917    0.0000 C   0  0  0  0  0  0  0  0  0  0  0  0
    1.9167    0.2333    0.0000 C   0  0  0  0  0  0  0  0  0  0  0  0
    2.6250    0.6458    0.0000 N   0  0  3  0  0  0  0  0  0  0  0  0
   -1.1375   -2.1042    0.0000 O   0  0  0  0  0  0  0  0  0  0  0  0
    0.3417    0.3125    0.0000 O   0  0  0  0  0  0  0  0  0  0  0  0
    0.3417   -2.9125    0.0000 C   0  0  0  0  0  0  0  0  0  0  0  0
   -1.1083   -0.4792    0.0000 C   0  0  0  0  0  0  0  0  0  0  0  0
    3.3292    0.2333    0.0000 C   0  0  0  0  0  0  0  0  0  0  0  0
    2.6167    1.4625    0.0000 C   0  0  0  0  0  0  0  0  0  0  0  0
    4.0417    0.6458    0.0000 C   0  0  3  0  0  0  0  0  0  0  0  0
    3.3292    1.8708    0.0000 C   0  0  0  0  0  0  0  0  0  0  0  0
    4.0417    1.4625    0.0000 C   0  0  0  0  0  0  0  0  0  0  0  0
    4.7542    0.2333    0.0000 C   0  0  0  0  0  0  0  0  0  0  0  0
  2  1  2  0  0  0  0
  3  1  1  0  0  0  0
  4  5  1  0  0  0  0
  5  3  1  0  0  0  0
  6  2  1  0  0  0  0
  7  2  1  0  0  0  0
  8  1  1  0  0  0  0
  9  8  2  0  0  0  0
 10  7  1  0  0  0  0
 11 10  1  0  0  0  0
 12  5  2  0  0  0  0
 13  6  2  0  0  0  0
 14  3  1  0  0  0  0
 15  4  1  0  0  0  0
 16 11  1  0  0  0  0
 17 11  1  0  0  0  0
 18 16  1  0  0  0  0
 19 17  1  0  0  0  0
 20 19  1  0  0  0  0
 21 18  1  0  0  0  0
  9  7  1  0  0  0  0
  6  4  1  0  0  0  0
 18 20  1  0  0  0  0
M  END
> <IDNUMBER>
F1468-0150

> <Chemical_Name>
1,3-dimethyl-7-[(3-methylpiperidin-1-yl)methyl]-2,3,6,7-tetrahydro-1H-purine-2,6-dione

> <CAS>
586997-00-4

> <PriceCoeff>
1.50

> <MW>
291.35

> <Description>
solid

> <FSP3>
0.64

> <clogP>
1.57

> <TPSA>
61.68

> <Acceptor>
3

> <Donor>
2

> <RotBonds>
2

> <HAC>
21

> <Collection>
Advanced

> <Reference_compound>
CHEMBL113

> <Similarity>
0.8450

$$$$
F9994-0533
  -ISIS-  06222321472D

 12 12  0  0  0  0  0  0  0  0999 V2000
   -1.4208    1.8917    0.0000 C   0  0  0  0  0  0  0  0  0  0  0  0
   -2.1333    1.4750    0.0000 C   0  0  0  0  0  0  0  0  0  0  0  0
   -0.7000    1.4750    0.0000 C   0  0  0  0  0  0  0  0  0  0  0  0
   -2.8458    1.8917    0.0000 C   0  0  0  0  0  0  0  0  0  0  0  0
   -0.7000    0.6500    0.0000 O   0  0  0  0  0  0  0  0  0  0  0  0
   -2.1333    0.6500    0.0000 O   0  0  0  0  0  0  0  0  0  0  0  0
   -1.4208    2.7208    0.0000 C   0  0  0  0  0  0  0  0  0  0  0  0
   -3.5625    1.4750    0.0000 O   0  0  0  0  0  0  0  0  0  0  0  0
   -2.1333    3.1333    0.0000 C   0  0  0  0  0  0  0  0  0  0  0  0
   -2.8458    2.7125    0.0000 C   0  0  0  0  0  0  0  0  0  0  0  0
    0.0125    1.8958    0.0000 C   0  0  0  0  0  0  0  0  0  0  0  0
   -4.2792    1.8917    0.0000 C   0  0  0  0  0  0  0  0  0  0  0  0
  2  1  2  0  0  0  0
  3  1  1  0  0  0  0
  4  2  1  0  0  0  0
  5  3  2  0  0  0  0
  6  2  1  0  0  0  0
  7  1  1  0  0  0  0
  8  4  1  0  0  0  0
  9  7  2  0  0  0  0
 10  9  1  0  0  0  0
 11  3  1  0  0  0  0
 12  8  1  0  0  0  0
 10  4  2  0  0  0  0
M  END
> <IDNUMBER>
F9994-0533

> <Chemical_Name>
1-(2-hydroxy-3-methoxyphenyl)ethan-1-one

> <CAS>
703-98-0

> <PriceCoeff>
1.50

> <MW>
166.17

> <Description>
solid

> <FSP3>
0.22

> <clogP>
1.74

> <TPSA>
46.53

> <Acceptor>
3

> <Donor>
1

> <RotBonds>
2

> <HAC>
12

> <Collection>
Advanced

> <Reference_compound>
CHEMBL13859

> <Similarity>
0.8080

$$$$
F1064-0180
  -ISIS-  06222321452D

 17 18  0  0  0  0  0  0  0  0999 V2000
   -2.0708   -0.3375    0.0000 C   0  0  0  0  0  0  0  0  0  0  0  0
   -1.8708    0.2458    0.0000 C   0  0  0  0  0  0  0  0  0  0  0  0
   -1.5833   -0.6875    0.0000 N   0  0  0  0  0  0  0  0  0  0  0  0
   -2.6625   -0.4500    0.0000 N   0  0  3  0  0  0  0  0  0  0  0  0
   -2.8708    0.5708    0.0000 N   0  0  3  0  0  0  0  0  0  0  0  0
   -3.0625    0.0125    0.0000 C   0  0  0  0  0  0  0  0  0  0  0  0
   -2.2708    0.6958    0.0000 C   0  0  0  0  0  0  0  0  0  0  0  0
   -1.0833   -0.3292    0.0000 C   0  0  0  0  0  0  0  0  0  0  0  0
   -1.2625    0.2458    0.0000 N   0  0  3  0  0  0  0  0  0  0  0  0
   -3.6833   -0.1167    0.0000 O   0  0  0  0  0  0  0  0  0  0  0  0
   -2.0500    1.2833    0.0000 O   0  0  0  0  0  0  0  0  0  0  0  0
   -0.4958   -0.5167    0.0000 N   0  0  0  0  0  0  0  0  0  0  0  0
   -2.8500   -1.0500    0.0000 C   0  0  0  0  0  0  0  0  0  0  0  0
   -3.2500    1.0500    0.0000 C   0  0  0  0  0  0  0  0  0  0  0  0
   -0.8625    0.7125    0.0000 C   0  0  0  0  0  0  0  0  0  0  0  0
   -0.2708    0.6125    0.0000 C   0  0  0  0  0  0  0  0  0  0  0  0
    0.1292    1.0625    0.0000 C   0  0  0  0  0  0  0  0  0  0  0  0
  2  1  2  0  0  0  0
  3  1  1  0  0  0  0
  4  1  1  0  0  0  0
  5  6  1  0  0  0  0
  6  4  1  0  0  0  0
  7  2  1  0  0  0  0
  8  3  2  0  0  0  0
  9  2  1  0  0  0  0
 10  6  2  0  0  0  0
 11  7  2  0  0  0  0
 12  8  1  0  0  0  0
 13  4  1  0  0  0  0
 14  5  1  0  0  0  0
 15  9  1  0  0  0  0
 16 15  1  0  0  0  0
 17 16  1  0  0  0  0
  8  9  1  0  0  0  0
  5  7  1  0  0  0  0
M  END
> <IDNUMBER>
F1064-0180

> <Chemical_Name>
8-amino-1,3-dimethyl-7-propyl-2,3,6,7-tetrahydro-1H-purine-2,6-dione

> <CAS>
135574-31-1

> <PriceCoeff>
1.50

> <MW>
237.26

> <Description>
solid

> <FSP3>
0.50

> <clogP>
0.75

> <TPSA>
84.46

> <Acceptor>
3

> <Donor>
2

> <RotBonds>
2

> <HAC>
17

> <Collection>
Advanced

> <Reference_compound>
CHEMBL113

> <Similarity>
0.8400

$$$$
F6374-1842
  -ISIS-  06222321442D

 29 31  0  0  0  0  0  0  0  0999 V2000
   -3.8708    3.8000    0.0000 S   0  0  3  0  0  0  0  0  0  0  0  0
   -6.0042    3.4458    0.0000 N   0  0  3  0  0  0  0  0  0  0  0  0
   -3.1583    4.2042    0.0000 N   0  0  3  0  0  0  0  0  0  0  0  0
   -4.5917    3.4083    0.0000 C   0  0  0  0  0  0  0  0  0  0  0  0
   -6.0250    2.6208    0.0000 C   0  0  0  0  0  0  0  0  0  0  0  0
   -6.7042    3.8750    0.0000 C   0  0  0  0  0  0  0  0  0  0  0  0
   -5.2833    3.8333    0.0000 C   0  0  0  0  0  0  0  0  0  0  0  0
   -3.4750    3.0833    0.0000 O   0  0  0  0  0  0  0  0  0  0  0  0
   -4.0708    4.6042    0.0000 O   0  0  0  0  0  0  0  0  0  0  0  0
   -2.4458    3.8000    0.0000 C   0  0  0  0  0  0  0  0  0  0  0  0
   -3.1583    5.0292    0.0000 C   0  0  0  0  0  0  0  0  0  0  0  0
   -5.3208    2.1875    0.0000 O   0  0  0  0  0  0  0  0  0  0  0  0
   -6.6875    4.6917    0.0000 O   0  0  0  0  0  0  0  0  0  0  0  0
   -1.0000    6.2625    0.0000 S   0  0  0  0  0  0  0  0  0  0  0  0
   -0.2833    6.6667    0.0000 C   0  0  0  0  0  0  0  0  0  0  0  0
   -1.0125    5.4375    0.0000 C   0  0  0  0  0  0  0  0  0  0  0  0
    1.1417    7.4875    0.0000 C   0  0  0  0  0  0  0  0  0  0  0  0
   -2.4458    5.4375    0.0000 C   0  0  0  0  0  0  0  0  0  0  0  0
   -1.7333    4.2042    0.0000 C   0  0  0  0  0  0  0  0  0  0  0  0
   -1.7333    5.0292    0.0000 C   0  0  3  0  0  0  0  0  0  0  0  0
    0.4292    6.2500    0.0000 C   0  0  0  0  0  0  0  0  0  0  0  0
   -0.2833    7.4875    0.0000 C   0  0  0  0  0  0  0  0  0  0  0  0
    1.1292    6.6583    0.0000 C   0  0  0  0  0  0  0  0  0  0  0  0
    0.4292    7.9000    0.0000 C   0  0  0  0  0  0  0  0  0  0  0  0
   -6.7417    2.2250    0.0000 C   0  0  0  0  0  0  0  0  0  0  0  0
   -7.4167    3.4792    0.0000 C   0  0  0  0  0  0  0  0  0  0  0  0
    1.8667    7.9000    0.0000 O   0  0  0  0  0  0  0  0  0  0  0  0
   -7.4417    2.6583    0.0000 C   0  0  0  0  0  0  0  0  0  0  0  0
    1.8750    8.7167    0.0000 C   0  0  0  0  0  0  0  0  0  0  0  0
  2  7  1  0  0  0  0
  3  1  1  0  0  0  0
  4  1  1  0  0  0  0
  5  2  1  0  0  0  0
  6  2  1  0  0  0  0
  7  4  1  0  0  0  0
  8  1  2  0  0  0  0
  9  1  2  0  0  0  0
 10  3  1  0  0  0  0
 11  3  1  0  0  0  0
 12  5  2  0  0  0  0
 13  6  2  0  0  0  0
 14 16  1  0  0  0  0
 15 14  1  0  0  0  0
 16 20  1  0  0  0  0
 17 24  2  0  0  0  0
 18 11  1  0  0  0  0
 19 10  1  0  0  0  0
 20 18  1  0  0  0  0
 21 15  1  0  0  0  0
 22 15  2  0  0  0  0
 23 21  2  0  0  0  0
 24 22  1  0  0  0  0
 25  5  1  0  0  0  0
 26  6  1  0  0  0  0
 27 17  1  0  0  0  0
 28 26  1  0  0  0  0
 29 27  1  0  0  0  0
 20 19  1  0  0  0  0
 25 28  1  0  0  0  0
 23 17  1  0  0  0  0
M  END
> <IDNUMBER>
F6374-1842

> <Chemical_Name>
1-{2-[(4-{[(4-methoxyphenyl)sulfanyl]methyl}piperidin-1-yl)sulfonyl]ethyl}piperidine-2,6-dione

> <CAS>
1421523-19-4

> <PriceCoeff>
1.00

> <MW>
440.58

> <Description>
oil

> <FSP3>
0.60

> <clogP>
3.05

> <TPSA>
117.67

> <Acceptor>
5

> <Donor>
0

> <RotBonds>
8

> <HAC>
29

> <Collection>
General

$$$$
F2189-0334
  -ISIS-  06222321462D

 19 21  0  0  0  0  0  0  0  0999 V2000
    2.6375   -3.3500    0.0000 N   0  0  3  0  0  0  0  0  0  0  0  0
    2.3417   -1.9500    0.0000 C   0  0  0  0  0  0  0  0  0  0  0  0
    0.9792   -1.5000    0.0000 C   0  0  0  0  0  0  0  0  0  0  0  0
    1.5292   -2.1167    0.0000 C   0  0  0  0  0  0  0  0  0  0  0  0
    2.8917   -2.5667    0.0000 C   0  0  3  0  0  0  0  0  0  0  0  0
    2.1167   -4.9167    0.0000 N   0  0  3  0  0  0  0  0  0  0  0  0
    1.2417   -0.7125    0.0000 C   0  0  0  0  0  0  0  0  0  0  0  0
    0.1542   -1.5042    0.0000 O   0  0  0  0  0  0  0  0  0  0  0  0
    0.5667   -0.2292    0.0000 O   0  0  0  0  0  0  0  0  0  0  0  0
   -0.1000   -0.7125    0.0000 C   0  0  0  0  0  0  0  0  0  0  0  0
    1.8292   -3.5167    0.0000 C   0  0  0  0  0  0  0  0  0  0  0  0
    3.1917   -3.9625    0.0000 C   0  0  0  0  0  0  0  0  0  0  0  0
    2.5917   -1.1542    0.0000 C   0  0  0  0  0  0  0  0  0  0  0  0
    2.0417   -0.5417    0.0000 C   0  0  0  0  0  0  0  0  0  0  0  0
    2.9292   -4.7542    0.0000 C   0  0  0  0  0  0  0  0  0  0  0  0
    1.5667   -4.3042    0.0000 C   0  0  0  0  0  0  0  0  0  0  0  0
    4.2542   -3.0125    0.0000 N   0  0  0  0  0  0  0  0  0  0  0  0
    3.7042   -2.3917    0.0000 C   0  0  0  0  0  0  0  0  0  0  0  0
    1.8542   -5.7042    0.0000 C   0  0  0  0  0  0  0  0  0  0  0  0
  2  5  1  0  0  0  0
  3  4  1  0  0  0  0
  4  2  2  0  0  0  0
  5  1  1  0  0  0  0
  6 15  1  0  0  0  0
  7 14  1  0  0  0  0
  8  3  1  0  0  0  0
  9  7  1  0  0  0  0
 10  8  1  0  0  0  0
 11  1  1  0  0  0  0
 12  1  1  0  0  0  0
 13  2  1  0  0  0  0
 14 13  2  0  0  0  0
 15 12  1  0  0  0  0
 16 11  1  0  0  0  0
 17 18  1  0  0  0  0
 18  5  1  0  0  0  0
 19  6  1  0  0  0  0
 16  6  1  0  0  0  0
  7  3  2  0  0  0  0
  9 10  1  0  0  0  0
M  END
> <IDNUMBER>
F2189-0334

> <Chemical_Name>
2-(2H-1,3-benzodioxol-5-yl)-2-(4-methylpiperazin-1-yl)ethan-1-amine

> <CAS>
951919-35-0

> <PriceCoeff>
1.50

> <MW>
263.34

> <Description>
oil

> <FSP3>
0.57

> <clogP>
1.65

> <TPSA>
50.96

> <Acceptor>
5

> <Donor>
3

> <RotBonds>
3

> <HAC>
19

> <Collection>
Advanced

> <Reference_compound>
CHEMBL1194868

> <Similarity>
0.8600

$$$$
F2185-0118
  -ISIS-  06222304352D

 15 15  0  0  0  0  0  0  0  0999 V2000
    1.3917    0.0625    0.0000 C   0  0  0  0  0  0  0  0  0  0  0  0
    2.2167    0.0625    0.0000 N   0  0  0  0  0  0  0  0  0  0  0  0
    1.1333   -0.7250    0.0000 N   0  0  0  0  0  0  0  0  0  0  0  0
    0.9042    0.7333    0.0000 C   0  0  0  0  0  0  0  0  0  0  0  0
    2.4708   -0.7250    0.0000 C   0  0  0  0  0  0  0  0  0  0  0  0
    1.8042   -1.2042    0.0000 O   0  0  0  0  0  0  0  0  0  0  0  0
    0.0833    0.7333    0.0000 S   0  0  0  0  0  0  0  0  0  0  0  0
    1.1625    1.5167    0.0000 C   0  0  0  0  0  0  0  0  0  0  0  0
   -0.1750    1.5167    0.0000 C   0  0  0  0  0  0  0  0  0  0  0  0
    0.4958    2.0042    0.0000 C   0  0  0  0  0  0  0  0  0  0  0  0
    5.3917   -0.5542    0.0000 N   0  0  0  0  0  0  0  0  0  0  0  0
    3.2542   -0.9792    0.0000 C   0  0  0  0  0  0  0  0  0  0  0  0
    4.6792   -0.9750    0.0000 C   0  0  0  0  0  0  0  0  0  0  0  0
    3.9667   -0.5625    0.0000 C   0  0  0  0  0  0  0  0  0  0  0  0
    6.8792    0.3417    0.0000 Cl  0  0  0  0  0  0  0  0  0  0  0  0
  3  1  2  0  0  0  0
  4  1  1  0  0  0  0
  5  2  2  0  0  0  0
  6  3  1  0  0  0  0
  7  4  1  0  0  0  0
  8  4  2  0  0  0  0
  9  7  1  0  0  0  0
 10  8  1  0  0  0  0
 11 13  1  0  0  0  0
 12  5  1  0  0  0  0
 13 14  1  0  0  0  0
 14 12  1  0  0  0  0
  5  6  1  0  0  0  0
  9 10  2  0  0  0  0
  2  1  1  0  0  0  0
M  END
> <IDNUMBER>
F2185-0118

> <Chemical_Name>
3-[3-(thiophen-2-yl)-1,2,4-oxadiazol-5-yl]propan-1-amine hydrochloride

> <CAS>
1286708-64-2

> <PriceCoeff>
1.50

> <MW>
209.27

> <Description>
solid

> <FSP3>
0.33

> <clogP>
1.16

> <TPSA>
93.18

> <Acceptor>
3

> <Donor>
1

> <RotBonds>
4

> <HAC>
14

> <Collection>
Advanced

> <Reference_compound>
CHEMBL4747189

> <Similarity>
0.8330

$$$$
F5381-0016
  -ISIS-  06222321152D

 29 32  0  0  0  0  0  0  0  0999 V2000
   -3.1375    4.2167    0.0000 S   0  0  3  0  0  0  0  0  0  0  0  0
   -0.9583    4.6375    0.0000 N   0  0  3  0  0  0  0  0  0  0  0  0
   -3.8625    3.8000    0.0000 N   0  0  3  0  0  0  0  0  0  0  0  0
   -2.4125    4.6417    0.0000 C   0  0  0  0  0  0  0  0  0  0  0  0
   -0.2250    4.2167    0.0000 C   0  0  0  0  0  0  0  0  0  0  0  0
   -0.9500    5.4667    0.0000 C   0  0  0  0  0  0  0  0  0  0  0  0
   -1.6875    4.2125    0.0000 C   0  0  0  0  0  0  0  0  0  0  0  0
   -5.3208    2.9583    0.0000 N   0  0  3  0  0  0  0  0  0  0  0  0
   -8.2292    2.9583    0.0000 C   0  0  0  0  0  0  0  0  0  0  0  0
   -3.8625    2.9625    0.0000 C   0  0  0  0  0  0  0  0  0  0  0  0
   -4.5958    4.2167    0.0000 C   0  0  0  0  0  0  0  0  0  0  0  0
   -2.7083    3.5000    0.0000 O   0  0  0  0  0  0  0  0  0  0  0  0
   -3.5500    4.9417    0.0000 O   0  0  0  0  0  0  0  0  0  0  0  0
   -8.2292    3.7958    0.0000 C   0  0  0  0  0  0  0  0  0  0  0  0
   -9.0292    2.6958    0.0000 O   0  0  0  0  0  0  0  0  0  0  0  0
   -9.0292    4.0417    0.0000 O   0  0  0  0  0  0  0  0  0  0  0  0
   -9.5167    3.3750    0.0000 C   0  0  0  0  0  0  0  0  0  0  0  0
   -7.5042    2.5333    0.0000 C   0  0  0  0  0  0  0  0  0  0  0  0
   -1.6833    5.8917    0.0000 O   0  0  0  0  0  0  0  0  0  0  0  0
   -0.2333    3.3833    0.0000 O   0  0  0  0  0  0  0  0  0  0  0  0
   -6.7750    2.9583    0.0000 C   0  0  0  0  0  0  0  0  0  0  0  0
   -6.0417    2.5333    0.0000 C   0  0  0  0  0  0  0  0  0  0  0  0
   -4.5958    2.5458    0.0000 C   0  0  0  0  0  0  0  0  0  0  0  0
   -5.3208    3.8000    0.0000 C   0  0  0  0  0  0  0  0  0  0  0  0
   -7.5042    4.2042    0.0000 C   0  0  0  0  0  0  0  0  0  0  0  0
   -6.7792    3.7958    0.0000 C   0  0  0  0  0  0  0  0  0  0  0  0
    0.5042    4.6375    0.0000 C   0  0  0  0  0  0  0  0  0  0  0  0
   -0.2333    5.8917    0.0000 C   0  0  0  0  0  0  0  0  0  0  0  0
    0.4917    5.4667    0.0000 C   0  0  0  0  0  0  0  0  0  0  0  0
  2  7  1  0  0  0  0
  3  1  1  0  0  0  0
  4  1  1  0  0  0  0
  5  2  1  0  0  0  0
  6  2  1  0  0  0  0
  7  4  1  0  0  0  0
  8 24  1  0  0  0  0
  9 18  2  0  0  0  0
 10  3  1  0  0  0  0
 11  3  1  0  0  0  0
 12  1  2  0  0  0  0
 13  1  2  0  0  0  0
 14 25  2  0  0  0  0
 15  9  1  0  0  0  0
 16 14  1  0  0  0  0
 17 15  1  0  0  0  0
 18 21  1  0  0  0  0
 19  6  2  0  0  0  0
 20  5  2  0  0  0  0
 21 22  1  0  0  0  0
 22  8  1  0  0  0  0
 23 10  1  0  0  0  0
 24 11  1  0  0  0  0
 25 26  1  0  0  0  0
 26 21  2  0  0  0  0
 27  5  1  0  0  0  0
 28  6  1  0  0  0  0
 29 28  1  0  0  0  0
 23  8  1  0  0  0  0
 29 27  1  0  0  0  0
 14  9  1  0  0  0  0
 17 16  1  0  0  0  0
M  END
> <IDNUMBER>
F5381-0016

> <Chemical_Name>
1-[2-({4-[(2H-1,3-benzodioxol-5-yl)methyl]piperazin-1-yl}sulfonyl)ethyl]piperidine-2,6-dione

> <CAS>
1040674-93-8

> <PriceCoeff>
1.00

> <MW>
423.48

> <Description>
solid

> <FSP3>
0.58

> <clogP>
2.37

> <TPSA>
104.84

> <Acceptor>
7

> <Donor>
1

> <RotBonds>
6

> <HAC>
29

> <Collection>
General

$$$$
F2145-0662
  -ISIS-  06222321142D

 16 18  0  0  0  0  0  0  0  0999 V2000
   16.8875  -23.6000    0.0000 N   0  0  0  0  0  0  0  0  0  0  0  0
   16.8042  -24.4208    0.0000 C   0  0  0  0  0  0  0  0  0  0  0  0
   18.1083  -24.1458    0.0000 N   0  0  0  0  0  0  0  0  0  0  0  0
   17.5542  -24.7583    0.0000 O   0  0  0  0  0  0  0  0  0  0  0  0
   17.6958  -23.4292    0.0000 C   0  0  0  0  0  0  0  0  0  0  0  0
   16.0917  -24.8375    0.0000 C   0  0  0  0  0  0  0  0  0  0  0  0
   15.3792  -24.4250    0.0000 C   0  0  0  0  0  0  0  0  0  0  0  0
   14.6625  -24.8375    0.0000 C   0  0  0  0  0  0  0  0  0  0  0  0
   13.9458  -24.4250    0.0000 N   0  0  0  0  0  0  0  0  0  0  0  0
   13.9542  -26.0750    0.0000 N   0  0  0  0  0  0  0  0  0  0  0  0
   14.6625  -25.6625    0.0000 C   0  0  0  0  0  0  0  0  0  0  0  0
   16.0917  -25.6625    0.0000 C   0  0  0  0  0  0  0  0  0  0  0  0
   15.3792  -26.0750    0.0000 C   0  0  0  0  0  0  0  0  0  0  0  0
   18.0333  -22.6750    0.0000 C   0  0  0  0  0  0  0  0  0  0  0  0
   13.2333  -24.8417    0.0000 C   0  0  0  0  0  0  0  0  0  0  0  0
   13.2375  -25.6667    0.0000 C   0  0  0  0  0  0  0  0  0  0  0  0
  2  1  2  0  0  0  0
  3  5  2  0  0  0  0
  4  2  1  0  0  0  0
  5  1  1  0  0  0  0
  6  2  1  0  0  0  0
  7  6  2  0  0  0  0
  8  7  1  0  0  0  0
  9  8  2  0  0  0  0
 10 11  2  0  0  0  0
 11  8  1  0  0  0  0
 12  6  1  0  0  0  0
 13 12  2  0  0  0  0
 14  5  1  0  0  0  0
 15  9  1  0  0  0  0
 16 15  2  0  0  0  0
  3  4  1  0  0  0  0
 13 11  1  0  0  0  0
 10 16  1  0  0  0  0
M  END
> <IDNUMBER>
F2145-0662

> <Chemical_Name>
6-(3-methyl-1,2,4-oxadiazol-5-yl)quinoxaline

> <CAS>
1283108-26-8

> <PriceCoeff>
1.00

> <MW>
212.21

> <Description>
solid

> <FSP3>
0.09

> <clogP>
1.00

> <TPSA>
64.70

> <Acceptor>
5

> <Donor>
0

> <RotBonds>
1

> <HAC>
16

> <Collection>
General

> <Reference_compound>
CHEMBL2272947

> <Similarity>
0.8000

$$$$
F1468-0018
  -ISIS-  06222321452D

 22 24  0  0  0  0  0  0  0  0999 V2000
    0.8292   -1.5292    0.0000 C   0  0  0  0  0  0  0  0  0  0  0  0
    0.8292   -0.7250    0.0000 C   0  0  0  0  0  0  0  0  0  0  0  0
    0.1167   -1.9417    0.0000 N   0  0  3  0  0  0  0  0  0  0  0  0
   -0.5750   -0.7250    0.0000 N   0  0  3  0  0  0  0  0  0  0  0  0
   -0.5750   -1.5417    0.0000 C   0  0  0  0  0  0  0  0  0  0  0  0
    0.1167   -0.3167    0.0000 C   0  0  0  0  0  0  0  0  0  0  0  0
    2.2375   -0.7292    0.0000 N   0  0  3  0  0  0  0  0  0  0  0  0
    1.5250   -1.9500    0.0000 N   0  0  0  0  0  0  0  0  0  0  0  0
    2.2250   -1.5542    0.0000 C   0  0  0  0  0  0  0  0  0  0  0  0
    2.8250   -0.1542    0.0000 C   0  0  0  0  0  0  0  0  0  0  0  0
    3.6167   -0.3792    0.0000 N   0  0  3  0  0  0  0  0  0  0  0  0
   -1.2833   -1.9500    0.0000 O   0  0  0  0  0  0  0  0  0  0  0  0
    5.1917   -0.8250    0.0000 N   0  0  3  0  0  0  0  0  0  0  0  0
    0.1167    0.5000    0.0000 O   0  0  0  0  0  0  0  0  0  0  0  0
    0.1167   -2.7542    0.0000 C   0  0  0  0  0  0  0  0  0  0  0  0
   -1.3250   -0.3000    0.0000 C   0  0  0  0  0  0  0  0  0  0  0  0
    3.8167   -1.1750    0.0000 C   0  0  0  0  0  0  0  0  0  0  0  0
    4.2000    0.2000    0.0000 C   0  0  0  0  0  0  0  0  0  0  0  0
    4.9917   -0.0250    0.0000 C   0  0  0  0  0  0  0  0  0  0  0  0
    4.6042   -1.3917    0.0000 C   0  0  0  0  0  0  0  0  0  0  0  0
    5.7792   -1.4042    0.0000 C   0  0  0  0  0  0  0  0  0  0  0  0
    6.5750   -1.1917    0.0000 C   0  0  0  0  0  0  0  0  0  0  0  0
  2  1  2  0  0  0  0
  3  1  1  0  0  0  0
  4  5  1  0  0  0  0
  5  3  1  0  0  0  0
  6  2  1  0  0  0  0
  7  2  1  0  0  0  0
  8  1  1  0  0  0  0
  9  8  2  0  0  0  0
 10  7  1  0  0  0  0
 11 10  1  0  0  0  0
 12  5  2  0  0  0  0
 13 19  1  0  0  0  0
 14  6  2  0  0  0  0
 15  3  1  0  0  0  0
 16  4  1  0  0  0  0
 17 11  1  0  0  0  0
 18 11  1  0  0  0  0
 19 18  1  0  0  0  0
 20 17  1  0  0  0  0
 21 13  1  0  0  0  0
 22 21  1  0  0  0  0
  9  7  1  0  0  0  0
  6  4  1  0  0  0  0
 13 20  1  0  0  0  0
M  END
> <IDNUMBER>
F1468-0018

> <Chemical_Name>
7-[(4-ethylpiperazin-1-yl)methyl]-1,3-dimethyl-2,3,6,7-tetrahydro-1H-purine-2,6-dione

> <CAS>
573973-24-7

> <PriceCoeff>
1.00

> <MW>
306.36

> <Description>
solid

> <FSP3>
0.64

> <clogP>
-0.39

> <TPSA>
64.92

> <Acceptor>
5

> <Donor>
3

> <RotBonds>
3

> <HAC>
22

> <Collection>
General

> <Reference_compound>
CHEMBL113

> <Similarity>
0.8780

$$$$
F3259-0258
  -ISIS-  06222321462D

 20 22  0  0  0  0  0  0  0  0999 V2000
    4.7792   -3.9250    0.0000 C   0  0  0  0  0  0  0  0  0  0  0  0
    4.7792   -3.1500    0.0000 C   0  0  0  0  0  0  0  0  0  0  0  0
    4.0917   -4.3167    0.0000 N   0  0  3  0  0  0  0  0  0  0  0  0
    3.4292   -3.1500    0.0000 N   0  0  3  0  0  0  0  0  0  0  0  0
    3.4292   -3.9292    0.0000 C   0  0  0  0  0  0  0  0  0  0  0  0
    4.0917   -2.7542    0.0000 C   0  0  0  0  0  0  0  0  0  0  0  0
    5.4417   -4.3167    0.0000 N   0  0  0  0  0  0  0  0  0  0  0  0
    6.1292   -3.1542    0.0000 N   0  0  3  0  0  0  0  0  0  0  0  0
    6.1167   -3.9417    0.0000 C   0  0  0  0  0  0  0  0  0  0  0  0
    6.1292   -2.3292    0.0000 C   0  0  0  0  0  0  0  0  0  0  0  0
    2.7542   -4.3167    0.0000 O   0  0  0  0  0  0  0  0  0  0  0  0
    4.0917   -1.9667    0.0000 O   0  0  0  0  0  0  0  0  0  0  0  0
    4.0917   -5.1000    0.0000 C   0  0  0  0  0  0  0  0  0  0  0  0
    2.6750   -2.9417    0.0000 C   0  0  0  0  0  0  0  0  0  0  0  0
    6.8417   -1.9167    0.0000 C   0  0  0  0  0  0  0  0  0  0  0  0
    7.5542   -2.3292    0.0000 C   0  0  0  0  0  0  0  0  0  0  0  0
    6.8375   -1.1000    0.0000 C   0  0  0  0  0  0  0  0  0  0  0  0
    7.5417   -0.6875    0.0000 C   0  0  0  0  0  0  0  0  0  0  0  0
    8.2667   -1.9167    0.0000 C   0  0  0  0  0  0  0  0  0  0  0  0
    8.2625   -1.0917    0.0000 C   0  0  0  0  0  0  0  0  0  0  0  0
  2  1  2  0  0  0  0
  3  1  1  0  0  0  0
  4  5  1  0  0  0  0
  5  3  1  0  0  0  0
  6  2  1  0  0  0  0
  7  1  1  0  0  0  0
  8  2  1  0  0  0  0
  9  7  2  0  0  0  0
 10  8  1  0  0  0  0
 11  5  2  0  0  0  0
 12  6  2  0  0  0  0
 13  3  1  0  0  0  0
 14  4  1  0  0  0  0
 15 10  1  0  0  0  0
 16 15  2  0  0  0  0
 17 15  1  0  0  0  0
 18 17  2  0  0  0  0
 19 16  1  0  0  0  0
 20 18  1  0  0  0  0
  9  8  1  0  0  0  0
  6  4  1  0  0  0  0
 20 19  2  0  0  0  0
M  END
> <IDNUMBER>
F3259-0258

> <Chemical_Name>
7-benzyl-1,3-dimethyl-2,3,6,7-tetrahydro-1H-purine-2,6-dione

> <CAS>
1807-85-8

> <PriceCoeff>
1.50

> <MW>
270.29

> <Description>
solid

> <FSP3>
0.21

> <clogP>
1.48

> <TPSA>
58.44

> <Acceptor>
3

> <Donor>
1

> <RotBonds>
2

> <HAC>
20

> <Collection>
Advanced

> <Reference_compound>
CHEMBL113

> <Similarity>
0.8610

$$$$
F1468-0015
  -ISIS-  06222321142D

 21 23  0  0  0  0  0  0  0  0999 V2000
    1.0125   -1.3417    0.0000 C   0  0  0  0  0  0  0  0  0  0  0  0
    1.0125   -0.5417    0.0000 C   0  0  0  0  0  0  0  0  0  0  0  0
    0.3000   -1.7500    0.0000 N   0  0  3  0  0  0  0  0  0  0  0  0
   -0.3833   -0.5417    0.0000 N   0  0  3  0  0  0  0  0  0  0  0  0
   -0.3833   -1.3542    0.0000 C   0  0  0  0  0  0  0  0  0  0  0  0
    0.3000   -0.1375    0.0000 C   0  0  0  0  0  0  0  0  0  0  0  0
    2.4000   -0.5500    0.0000 N   0  0  3  0  0  0  0  0  0  0  0  0
    1.6917   -1.7542    0.0000 N   0  0  0  0  0  0  0  0  0  0  0  0
    2.3792   -1.3625    0.0000 C   0  0  0  0  0  0  0  0  0  0  0  0
    2.9875    0.0250    0.0000 C   0  0  0  0  0  0  0  0  0  0  0  0
    3.7792   -0.1917    0.0000 N   0  0  3  0  0  0  0  0  0  0  0  0
   -1.0833   -1.7542    0.0000 O   0  0  0  0  0  0  0  0  0  0  0  0
    5.3542   -0.6292    0.0000 N   0  0  3  0  0  0  0  0  0  0  0  0
    0.3000    0.6708    0.0000 O   0  0  0  0  0  0  0  0  0  0  0  0
    0.3000   -2.5542    0.0000 C   0  0  0  0  0  0  0  0  0  0  0  0
   -1.1250   -0.1167    0.0000 C   0  0  0  0  0  0  0  0  0  0  0  0
    3.9792   -0.9792    0.0000 C   0  0  0  0  0  0  0  0  0  0  0  0
    4.3542    0.3875    0.0000 C   0  0  0  0  0  0  0  0  0  0  0  0
    5.1500    0.1708    0.0000 C   0  0  0  0  0  0  0  0  0  0  0  0
    4.7667   -1.2042    0.0000 C   0  0  0  0  0  0  0  0  0  0  0  0
    6.0667   -1.0417    0.0000 C   0  0  0  0  0  0  0  0  0  0  0  0
  2  1  2  0  0  0  0
  3  1  1  0  0  0  0
  4  5  1  0  0  0  0
  5  3  1  0  0  0  0
  6  2  1  0  0  0  0
  7  2  1  0  0  0  0
  8  1  1  0  0  0  0
  9  8  2  0  0  0  0
 10  7  1  0  0  0  0
 11 10  1  0  0  0  0
 12  5  2  0  0  0  0
 13 19  1  0  0  0  0
 14  6  2  0  0  0  0
 15  3  1  0  0  0  0
 16  4  1  0  0  0  0
 17 11  1  0  0  0  0
 18 11  1  0  0  0  0
 19 18  1  0  0  0  0
 20 17  1  0  0  0  0
 21 13  1  0  0  0  0
  9  7  1  0  0  0  0
  6  4  1  0  0  0  0
 13 20  1  0  0  0  0
M  END
> <IDNUMBER>
F1468-0015

> <Chemical_Name>
1,3-dimethyl-7-[(4-methylpiperazin-1-yl)methyl]-2,3,6,7-tetrahydro-1H-purine-2,6-dione

> <CAS>
71527-01-0

> <PriceCoeff>
1.00

> <MW>
292.34

> <Description>
solid

> <FSP3>
0.62

> <clogP>
-0.92

> <TPSA>
64.92

> <Acceptor>
5

> <Donor>
3

> <RotBonds>
2

> <HAC>
21

> <Collection>
General

> <Reference_compound>
CHEMBL113

> <Similarity>
0.8780

$$$$
F5833-7898
  -ISIS-  06222321152D

 27 29  0  0  0  0  0  0  0  0999 V2000
   -4.5583    7.9292    0.0000 S   0  0  3  0  0  0  0  0  0  0  0  0
   -5.2875    2.5625    0.0000 N   0  0  3  0  0  0  0  0  0  0  0  0
   -3.8458    7.5042    0.0000 N   0  0  3  0  0  0  0  0  0  0  0  0
   -3.8500    6.6875    0.0000 C   0  0  0  0  0  0  0  0  0  0  0  0
   -5.3708    1.7333    0.0000 C   0  0  0  0  0  0  0  0  0  0  0  0
   -6.0292    2.9000    0.0000 C   0  0  0  0  0  0  0  0  0  0  0  0
   -3.1375    6.2667    0.0000 C   0  0  0  0  0  0  0  0  0  0  0  0
   -4.5833    3.8000    0.0000 C   0  0  0  0  0  0  0  0  0  0  0  0
   -4.5833    2.9833    0.0000 C   0  0  0  0  0  0  0  0  0  0  0  0
   -4.9708    7.2167    0.0000 O   0  0  0  0  0  0  0  0  0  0  0  0
   -4.1333    8.6417    0.0000 O   0  0  0  0  0  0  0  0  0  0  0  0
   -4.5708    6.2792    0.0000 C   0  0  0  0  0  0  0  0  0  0  0  0
   -3.8625    4.2125    0.0000 N   0  0  0  0  0  0  0  0  0  0  0  0
   -3.1458    5.4417    0.0000 C   0  0  0  0  0  0  0  0  0  0  0  0
   -3.8625    5.0292    0.0000 C   0  0  0  0  0  0  0  0  0  0  0  0
   -6.1667    1.5583    0.0000 C   0  0  0  0  0  0  0  0  0  0  0  0
   -6.5875    2.2833    0.0000 C   0  0  0  0  0  0  0  0  0  0  0  0
   -4.7583    1.1708    0.0000 O   0  0  0  0  0  0  0  0  0  0  0  0
   -6.2125    3.7083    0.0000 O   0  0  0  0  0  0  0  0  0  0  0  0
   -5.3000    4.2125    0.0000 O   0  0  0  0  0  0  0  0  0  0  0  0
   -5.2583    8.3542    0.0000 C   0  0  0  0  0  0  0  0  0  0  0  0
   -4.5833    5.4542    0.0000 C   0  0  0  0  0  0  0  0  0  0  0  0
   -3.1250    7.9167    0.0000 C   0  0  0  0  0  0  0  0  0  0  0  0
   -2.4250    6.6667    0.0000 C   0  0  0  0  0  0  0  0  0  0  0  0
   -2.4208    7.4917    0.0000 C   0  0  0  0  0  0  0  0  0  0  0  0
   -5.2458    9.1792    0.0000 C   0  0  0  0  0  0  0  0  0  0  0  0
   -5.9583    9.6125    0.0000 C   0  0  0  0  0  0  0  0  0  0  0  0
  2  9  1  0  0  0  0
  3  1  1  0  0  0  0
  4  3  1  0  0  0  0
  5  2  1  0  0  0  0
  6  2  1  0  0  0  0
  7  4  2  0  0  0  0
  8 13  1  0  0  0  0
  9  8  1  0  0  0  0
 10  1  2  0  0  0  0
 11  1  2  0  0  0  0
 12  4  1  0  0  0  0
 13 15  1  0  0  0  0
 14  7  1  0  0  0  0
 15 22  1  0  0  0  0
 16  5  1  0  0  0  0
 17  6  1  0  0  0  0
 18  5  2  0  0  0  0
 19  6  2  0  0  0  0
 20  8  2  0  0  0  0
 21  1  1  0  0  0  0
 22 12  2  0  0  0  0
 23  3  1  0  0  0  0
 24 25  1  0  0  0  0
 25 23  1  0  0  0  0
 26 21  1  0  0  0  0
 27 26  1  0  0  0  0
  7 24  1  0  0  0  0
 14 15  2  0  0  0  0
 17 16  1  0  0  0  0
M  END
> <IDNUMBER>
F5833-7898

> <Chemical_Name>
2-(2,5-dioxopyrrolidin-1-yl)-N-[1-(propane-1-sulfonyl)-1,2,3,4-tetrahydroquinolin-6-yl]acetamide

> <CAS>
1207035-61-7

> <PriceCoeff>
1.00

> <MW>
393.46

> <Description>
solid

> <FSP3>
0.50

> <clogP>
1.21

> <TPSA>
112.24

> <Acceptor>
6

> <Donor>
1

> <RotBonds>
6

> <HAC>
27

> <Collection>
General

$$$$
F2185-0119
  -ISIS-  06222304352D

 15 15  0  0  0  0  0  0  0  0999 V2000
    1.3917    0.0625    0.0000 C   0  0  0  0  0  0  0  0  0  0  0  0
    2.2167    0.0625    0.0000 N   0  0  0  0  0  0  0  0  0  0  0  0
    1.1333   -0.7250    0.0000 N   0  0  0  0  0  0  0  0  0  0  0  0
    0.9042    0.7333    0.0000 C   0  0  0  0  0  0  0  0  0  0  0  0
    2.4708   -0.7250    0.0000 C   0  0  0  0  0  0  0  0  0  0  0  0
    1.8042   -1.2042    0.0000 O   0  0  0  0  0  0  0  0  0  0  0  0
    0.0792    0.7292    0.0000 O   0  0  0  0  0  0  0  0  0  0  0  0
    1.1583    1.5125    0.0000 C   0  0  0  0  0  0  0  0  0  0  0  0
   -0.1750    1.5125    0.0000 C   0  0  0  0  0  0  0  0  0  0  0  0
    0.4917    2.0000    0.0000 C   0  0  0  0  0  0  0  0  0  0  0  0
    5.3917   -0.5542    0.0000 N   0  0  0  0  0  0  0  0  0  0  0  0
    3.2542   -0.9792    0.0000 C   0  0  0  0  0  0  0  0  0  0  0  0
    4.6792   -0.9750    0.0000 C   0  0  0  0  0  0  0  0  0  0  0  0
    3.9667   -0.5625    0.0000 C   0  0  0  0  0  0  0  0  0  0  0  0
    6.8792    0.3417    0.0000 Cl  0  0  0  0  0  0  0  0  0  0  0  0
  3  1  2  0  0  0  0
  4  1  1  0  0  0  0
  5  2  2  0  0  0  0
  6  3  1  0  0  0  0
  7  4  1  0  0  0  0
  8  4  2  0  0  0  0
  9  7  1  0  0  0  0
 10  8  1  0  0  0  0
 11 13  1  0  0  0  0
 12  5  1  0  0  0  0
 13 14  1  0  0  0  0
 14 12  1  0  0  0  0
  5  6  1  0  0  0  0
  9 10  2  0  0  0  0
  2  1  1  0  0  0  0
M  END
> <IDNUMBER>
F2185-0119

> <Chemical_Name>
3-[3-(furan-2-yl)-1,2,4-oxadiazol-5-yl]propan-1-amine hydrochloride

> <CAS>
1435804-19-5

> <PriceCoeff>
1.50

> <MW>
193.20

> <Description>
solid

> <FSP3>
0.33

> <clogP>
0.42

> <TPSA>
78.08

> <Acceptor>
4

> <Donor>
1

> <RotBonds>
4

> <HAC>
14

> <Collection>
Advanced

> <Reference_compound>
CHEMBL4799619

> <Similarity>
0.8220

$$$$
F6349-0688
  -ISIS-  06222321152D

 30 33  0  0  0  0  0  0  0  0999 V2000
   -1.7333    6.2917    0.0000 C   0  0  0  0  0  0  0  0  0  0  0  0
   -4.5833    3.8000    0.0000 S   0  0  3  0  0  0  0  0  0  0  0  0
   -6.7125    3.3583    0.0000 N   0  0  3  0  0  0  0  0  0  0  0  0
   -1.0625    6.7792    0.0000 C   0  0  0  0  0  0  0  0  0  0  0  0
   -1.7208    5.4542    0.0000 C   0  0  0  0  0  0  0  0  0  0  0  0
   -1.3250    7.5542    0.0000 N   0  0  3  0  0  0  0  0  0  0  0  0
   -2.1500    7.5542    0.0000 N   0  0  0  0  0  0  0  0  0  0  0  0
   -3.8625    4.2125    0.0000 N   0  0  3  0  0  0  0  0  0  0  0  0
   -2.4000    6.7625    0.0000 C   0  0  0  0  0  0  0  0  0  0  0  0
   -2.4458    5.0417    0.0000 N   0  0  3  0  0  0  0  0  0  0  0  0
   -5.2833    3.3833    0.0000 C   0  0  0  0  0  0  0  0  0  0  0  0
   -6.6917    2.5333    0.0000 C   0  0  0  0  0  0  0  0  0  0  0  0
   -7.4292    3.7583    0.0000 C   0  0  0  0  0  0  0  0  0  0  0  0
   -6.0000    3.7833    0.0000 C   0  0  0  0  0  0  0  0  0  0  0  0
   -3.8625    5.0292    0.0000 C   0  0  0  0  0  0  0  0  0  0  0  0
   -3.1458    3.8000    0.0000 C   0  0  0  0  0  0  0  0  0  0  0  0
   -4.1583    3.1083    0.0000 O   0  0  0  0  0  0  0  0  0  0  0  0
   -5.0000    4.5042    0.0000 O   0  0  0  0  0  0  0  0  0  0  0  0
   -0.2583    6.6125    0.0000 C   0  0  0  0  0  0  0  0  0  0  0  0
   -0.7833    8.1792    0.0000 C   0  0  0  0  0  0  0  0  0  0  0  0
   -3.1583    5.4542    0.0000 C   0  0  0  0  0  0  0  0  0  0  0  0
   -2.4250    4.2125    0.0000 C   0  0  0  0  0  0  0  0  0  0  0  0
   -0.9958    5.0417    0.0000 O   0  0  0  0  0  0  0  0  0  0  0  0
   -7.4542    4.5750    0.0000 O   0  0  0  0  0  0  0  0  0  0  0  0
   -5.9708    2.1333    0.0000 O   0  0  0  0  0  0  0  0  0  0  0  0
    0.2917    7.2292    0.0000 C   0  0  0  0  0  0  0  0  0  0  0  0
    0.0250    8.0167    0.0000 C   0  0  0  0  0  0  0  0  0  0  0  0
   -7.4000    2.1000    0.0000 C   0  0  0  0  0  0  0  0  0  0  0  0
   -8.1292    3.3333    0.0000 C   0  0  0  0  0  0  0  0  0  0  0  0
   -8.1167    2.5000    0.0000 C   0  0  0  0  0  0  0  0  0  0  0  0
  2  8  1  0  0  0  0
  3 14  1  0  0  0  0
  4  1  2  0  0  0  0
  5  1  1  0  0  0  0
  6  4  1  0  0  0  0
  7  9  2  0  0  0  0
  8 16  1  0  0  0  0
  9  1  1  0  0  0  0
 10  5  1  0  0  0  0
 11  2  1  0  0  0  0
 12  3  1  0  0  0  0
 13  3  1  0  0  0  0
 14 11  1  0  0  0  0
 15 21  1  0  0  0  0
 16 22  1  0  0  0  0
 17  2  2  0  0  0  0
 18  2  2  0  0  0  0
 19  4  1  0  0  0  0
 20  6  1  0  0  0  0
 21 10  1  0  0  0  0
 22 10  1  0  0  0  0
 23  5  2  0  0  0  0
 24 13  2  0  0  0  0
 25 12  2  0  0  0  0
 26 19  2  0  0  0  0
 27 26  1  0  0  0  0
 28 12  1  0  0  0  0
 29 13  1  0  0  0  0
 30 29  1  0  0  0  0
  7  6  1  0  0  0  0
  8 15  1  0  0  0  0
 27 20  2  0  0  0  0
 30 28  1  0  0  0  0
M  END
> <IDNUMBER>
F6349-0688

> <Chemical_Name>
1-{2-[(4-{pyrazolo[1,5-a]pyridine-3-carbonyl}piperazin-1-yl)sulfonyl]ethyl}piperidine-2,6-dione

> <CAS>
1396809-98-5

> <PriceCoeff>
1.00

> <MW>
433.48

> <Description>
solid

> <FSP3>
0.47

> <clogP>
0.92

> <TPSA>
120.75

> <Acceptor>
6

> <Donor>
0

> <RotBonds>
6

> <HAC>
30

> <Collection>
General

$$$$
F5381-0025
  -ISIS-  06222321152D

 27 29  0  0  0  0  0  0  0  0999 V2000
   -3.1375    4.2167    0.0000 S   0  0  3  0  0  0  0  0  0  0  0  0
   -0.9583    4.6375    0.0000 N   0  0  3  0  0  0  0  0  0  0  0  0
   -3.8625    3.8000    0.0000 N   0  0  3  0  0  0  0  0  0  0  0  0
   -2.4125    4.6417    0.0000 C   0  0  0  0  0  0  0  0  0  0  0  0
   -6.7667    2.9708    0.0000 C   0  0  0  0  0  0  0  0  0  0  0  0
   -5.3208    2.9625    0.0000 N   0  0  3  0  0  0  0  0  0  0  0  0
   -6.0417    2.5458    0.0000 C   0  0  0  0  0  0  0  0  0  0  0  0
   -0.9500    5.4667    0.0000 C   0  0  0  0  0  0  0  0  0  0  0  0
   -0.2250    4.2167    0.0000 C   0  0  0  0  0  0  0  0  0  0  0  0
   -1.6875    4.2125    0.0000 C   0  0  0  0  0  0  0  0  0  0  0  0
   -3.8708    2.9583    0.0000 C   0  0  0  0  0  0  0  0  0  0  0  0
   -4.5958    4.2125    0.0000 C   0  0  0  0  0  0  0  0  0  0  0  0
   -3.5500    4.9417    0.0000 O   0  0  0  0  0  0  0  0  0  0  0  0
   -2.7083    3.5000    0.0000 O   0  0  0  0  0  0  0  0  0  0  0  0
   -5.3208    3.8000    0.0000 C   0  0  0  0  0  0  0  0  0  0  0  0
   -4.5958    2.5375    0.0000 C   0  0  0  0  0  0  0  0  0  0  0  0
   -7.4917    2.5458    0.0000 C   0  0  0  0  0  0  0  0  0  0  0  0
   -0.2333    3.3833    0.0000 O   0  0  0  0  0  0  0  0  0  0  0  0
   -1.6833    5.8917    0.0000 O   0  0  0  0  0  0  0  0  0  0  0  0
   -6.7625    3.8000    0.0000 Cl  0  0  0  0  0  0  0  0  0  0  0  0
   -8.2167    2.9583    0.0000 Cl  0  0  0  0  0  0  0  0  0  0  0  0
   -0.2333    5.8917    0.0000 C   0  0  0  0  0  0  0  0  0  0  0  0
    0.5042    4.6375    0.0000 C   0  0  0  0  0  0  0  0  0  0  0  0
   -6.0417    1.7083    0.0000 C   0  0  0  0  0  0  0  0  0  0  0  0
    0.4917    5.4667    0.0000 C   0  0  0  0  0  0  0  0  0  0  0  0
   -6.7625    1.2833    0.0000 C   0  0  0  0  0  0  0  0  0  0  0  0
   -7.5000    1.7000    0.0000 C   0  0  0  0  0  0  0  0  0  0  0  0
  2 10  1  0  0  0  0
  3  1  1  0  0  0  0
  4  1  1  0  0  0  0
  5  7  2  0  0  0  0
  6 15  1  0  0  0  0
  7  6  1  0  0  0  0
  8  2  1  0  0  0  0
  9  2  1  0  0  0  0
 10  4  1  0  0  0  0
 11  3  1  0  0  0  0
 12  3  1  0  0  0  0
 13  1  2  0  0  0  0
 14  1  2  0  0  0  0
 15 12  1  0  0  0  0
 16 11  1  0  0  0  0
 17  5  1  0  0  0  0
 18  9  2  0  0  0  0
 19  8  2  0  0  0  0
 20  5  1  0  0  0  0
 21 17  1  0  0  0  0
 22  8  1  0  0  0  0
 23  9  1  0  0  0  0
 24  7  1  0  0  0  0
 25 23  1  0  0  0  0
 26 24  2  0  0  0  0
 27 26  1  0  0  0  0
  6 16  1  0  0  0  0
 22 25  1  0  0  0  0
 27 17  2  0  0  0  0
M  END
> <IDNUMBER>
F5381-0025

> <Chemical_Name>
1-(2-{[4-(2,3-dichlorophenyl)piperazin-1-yl]sulfonyl}ethyl)piperidine-2,6-dione

> <CAS>
1040675-35-1

> <PriceCoeff>
1.00

> <MW>
434.34

> <Description>
solid

> <FSP3>
0.53

> <clogP>
3.65

> <TPSA>
86.38

> <Acceptor>
5

> <Donor>
1

> <RotBonds>
5

> <HAC>
27

> <Collection>
General

$$$$
F6452-1112
  -ISIS-  06222321462D

 23 24  0  0  0  0  0  0  0  0999 V2000
   -5.2833    2.5708    0.0000 N   0  0  3  0  0  0  0  0  0  0  0  0
   -5.3708    1.7458    0.0000 C   0  0  0  0  0  0  0  0  0  0  0  0
   -6.0292    2.9000    0.0000 C   0  0  0  0  0  0  0  0  0  0  0  0
   -4.5792    2.9875    0.0000 C   0  0  0  0  0  0  0  0  0  0  0  0
   -4.5833    3.8000    0.0000 C   0  0  0  0  0  0  0  0  0  0  0  0
   -3.1458    5.4500    0.0000 C   0  0  3  0  0  0  0  0  0  0  0  0
   -2.4208    5.8667    0.0000 C   0  0  0  0  0  0  0  0  0  0  0  0
   -3.8625    4.2125    0.0000 N   0  0  0  0  0  0  0  0  0  0  0  0
   -6.1667    1.5708    0.0000 C   0  0  0  0  0  0  0  0  0  0  0  0
   -6.5792    2.2833    0.0000 C   0  0  0  0  0  0  0  0  0  0  0  0
   -4.7500    1.1833    0.0000 O   0  0  0  0  0  0  0  0  0  0  0  0
   -6.2042    3.7083    0.0000 O   0  0  0  0  0  0  0  0  0  0  0  0
   -3.8625    5.0333    0.0000 C   0  0  0  0  0  0  0  0  0  0  0  0
   -2.4208    6.6917    0.0000 C   0  0  0  0  0  0  0  0  0  0  0  0
   -5.2958    4.2125    0.0000 O   0  0  0  0  0  0  0  0  0  0  0  0
   -1.7083    7.1042    0.0000 C   0  0  0  0  0  0  0  0  0  0  0  0
   -3.5583    6.1667    0.0000 O   0  0  0  0  0  0  0  0  0  0  0  0
   -1.7083    7.9292    0.0000 Cl  0  0  0  0  0  0  0  0  0  0  0  0
   -1.7083    5.4542    0.0000 C   0  0  0  0  0  0  0  0  0  0  0  0
   -0.9875    5.8667    0.0000 C   0  0  0  0  0  0  0  0  0  0  0  0
   -2.7250    4.7333    0.0000 C   0  0  0  0  0  0  0  0  0  0  0  0
   -0.9958    6.6917    0.0000 C   0  0  0  0  0  0  0  0  0  0  0  0
   -4.3833    6.1667    0.0000 C   0  0  0  0  0  0  0  0  0  0  0  0
  2  1  1  0  0  0  0
  3  1  1  0  0  0  0
  4  1  1  0  0  0  0
  5  4  1  0  0  0  0
  6 13  1  0  0  0  0
  7  6  1  0  0  0  0
  8  5  1  0  0  0  0
  9  2  1  0  0  0  0
 10  3  1  0  0  0  0
 11  2  2  0  0  0  0
 12  3  2  0  0  0  0
 13  8  1  0  0  0  0
 14  7  1  0  0  0  0
 15  5  2  0  0  0  0
 16 14  2  0  0  0  0
 17  6  1  0  0  0  0
 18 16  1  0  0  0  0
 19  7  2  0  0  0  0
 20 19  1  0  0  0  0
 21  6  1  0  0  0  0
 22 20  2  0  0  0  0
 23 17  1  0  0  0  0
 10  9  1  0  0  0  0
 22 16  1  0  0  0  0
M  END
> <IDNUMBER>
F6452-1112

> <Chemical_Name>
N-[2-(3-chlorophenyl)-2-methoxypropyl]-2-(2,5-dioxopyrrolidin-1-yl)acetamide

> <CAS>
1795196-55-2

> <PriceCoeff>
1.00

> <MW>
338.79

> <Description>
oil

> <FSP3>
0.44

> <clogP>
1.96

> <TPSA>
75.71

> <Acceptor>
4

> <Donor>
1

> <RotBonds>
6

> <HAC>
23

> <Collection>
General

$$$$
F2590-0085
  -ISIS-  06222321142D

 20 21  0  0  0  0  0  0  0  0999 V2000
   -3.8500    2.9833    0.0000 C   0  0  0  0  0  0  0  0  0  0  0  0
   -4.5208    2.4958    0.0000 C   0  0  0  0  0  0  0  0  0  0  0  0
   -1.7083    4.2125    0.0000 N   0  0  3  0  0  0  0  0  0  0  0  0
   -3.1833    2.4958    0.0000 S   0  0  0  0  0  0  0  0  0  0  0  0
   -4.2583    1.7125    0.0000 C   0  0  0  0  0  0  0  0  0  0  0  0
   -3.4458    1.7208    0.0000 C   0  0  0  0  0  0  0  0  0  0  0  0
   -3.8500    3.8000    0.0000 N   0  0  0  0  0  0  0  0  0  0  0  0
   -0.9625    3.8833    0.0000 C   0  0  0  0  0  0  0  0  0  0  0  0
   -1.6333    5.0292    0.0000 C   0  0  0  0  0  0  0  0  0  0  0  0
   -5.3083    2.7583    0.0000 C   0  0  0  0  0  0  0  0  0  0  0  0
   -3.1375    4.2042    0.0000 C   0  0  0  0  0  0  0  0  0  0  0  0
   -2.4208    3.8000    0.0000 C   0  0  0  0  0  0  0  0  0  0  0  0
   -6.0792    3.0083    0.0000 N   0  0  0  0  0  0  0  0  0  0  0  0
   -0.8333    5.2042    0.0000 C   0  0  0  0  0  0  0  0  0  0  0  0
   -0.4125    4.4917    0.0000 C   0  0  0  0  0  0  0  0  0  0  0  0
   -2.2375    5.5667    0.0000 O   0  0  0  0  0  0  0  0  0  0  0  0
   -0.7875    3.0833    0.0000 O   0  0  0  0  0  0  0  0  0  0  0  0
   -3.1375    5.0167    0.0000 O   0  0  0  0  0  0  0  0  0  0  0  0
   -4.7458    1.0458    0.0000 C   0  0  0  0  0  0  0  0  0  0  0  0
   -2.9583    1.0500    0.0000 C   0  0  0  0  0  0  0  0  0  0  0  0
  2  1  2  0  0  0  0
  3 12  1  0  0  0  0
  4  1  1  0  0  0  0
  5  2  1  0  0  0  0
  6  4  1  0  0  0  0
  7  1  1  0  0  0  0
  8  3  1  0  0  0  0
  9  3  1  0  0  0  0
 10  2  1  0  0  0  0
 11  7  1  0  0  0  0
 12 11  1  0  0  0  0
 13 10  3  0  0  0  0
 14  9  1  0  0  0  0
 15  8  1  0  0  0  0
 16  9  2  0  0  0  0
 17  8  2  0  0  0  0
 18 11  2  0  0  0  0
 19  5  1  0  0  0  0
 20  6  1  0  0  0  0
  5  6  2  0  0  0  0
 15 14  1  0  0  0  0
M  END
> <IDNUMBER>
F2590-0085

> <Chemical_Name>
N-(3-cyano-4,5-dimethylthiophen-2-yl)-2-(2,5-dioxopyrrolidin-1-yl)acetamide

> <CAS>
896304-32-8

> <PriceCoeff>
1.00

> <MW>
291.33

> <Description>
solid

> <FSP3>
0.38

> <clogP>
0.77

> <TPSA>
118.51

> <Acceptor>
4

> <Donor>
1

> <RotBonds>
3

> <HAC>
20

> <Collection>
General

$$$$
F0921-3451
  -ISIS-  06222321442D

 21 23  0  0  0  0  0  0  0  0999 V2000
    2.3792   -5.5667    0.0000 C   0  0  0  0  0  0  0  0  0  0  0  0
    2.3417   -2.9750    0.0000 C   0  0  0  0  0  0  0  0  0  0  0  0
    0.0500   -6.8792    0.0000 N   0  0  3  0  0  0  0  0  0  0  0  0
   -2.2125   -2.9750    0.0000 N   0  0  3  0  0  0  0  0  0  0  0  0
   -2.2125   -5.5667    0.0000 C   0  0  0  0  0  0  0  0  0  0  0  0
    0.0500   -1.6375    0.0000 C   0  0  0  0  0  0  0  0  0  0  0  0
    4.8792   -6.3625    0.0000 N   0  0  0  0  0  0  0  0  0  0  0  0
    4.8792   -2.1542    0.0000 N   0  0  3  0  0  0  0  0  0  0  0  0
    6.4417   -4.2417    0.0000 C   0  0  0  0  0  0  0  0  0  0  0  0
    5.6750    0.3083    0.0000 C   0  0  0  0  0  0  0  0  0  0  0  0
   -4.5208   -6.9167    0.0000 O   0  0  0  0  0  0  0  0  0  0  0  0
    0.0500    0.9583    0.0000 O   0  0  0  0  0  0  0  0  0  0  0  0
    0.0500   -9.5250    0.0000 C   0  0  0  0  0  0  0  0  0  0  0  0
   -4.5208   -1.6792    0.0000 C   0  0  0  0  0  0  0  0  0  0  0  0
    8.2667    0.8625    0.0000 C   0  0  0  0  0  0  0  0  0  0  0  0
   13.4292    1.9458    0.0000 C   0  0  0  0  0  0  0  0  0  0  0  0
   16.0000    2.4958    0.0000 Cl  0  0  0  0  0  0  0  0  0  0  0  0
    9.0625    3.3375    0.0000 C   0  0  0  0  0  0  0  0  0  0  0  0
   10.0542   -1.0417    0.0000 C   0  0  0  0  0  0  0  0  0  0  0  0
   12.6375   -0.4875    0.0000 C   0  0  0  0  0  0  0  0  0  0  0  0
   11.6417    3.8833    0.0000 C   0  0  0  0  0  0  0  0  0  0  0  0
  2  1  2  0  0  0  0
  3  1  1  0  0  0  0
  4  5  1  0  0  0  0
  5  3  1  0  0  0  0
  6  2  1  0  0  0  0
  7  1  1  0  0  0  0
  8  2  1  0  0  0  0
  9  7  2  0  0  0  0
 10  8  1  0  0  0  0
 11  5  2  0  0  0  0
 12  6  2  0  0  0  0
 13  3  1  0  0  0  0
 14  4  1  0  0  0  0
 15 10  1  0  0  0  0
 16 20  2  0  0  0  0
 17 16  1  0  0  0  0
 18 15  1  0  0  0  0
 19 15  2  0  0  0  0
 20 19  1  0  0  0  0
 21 18  2  0  0  0  0
  9  8  1  0  0  0  0
  4  6  1  0  0  0  0
 21 16  1  0  0  0  0
M  END
> <IDNUMBER>
F0921-3451

> <Chemical_Name>
7-[(4-chlorophenyl)methyl]-1,3-dimethyl-2,3,6,7-tetrahydro-1H-purine-2,6-dione

> <CAS>
373614-35-8

> <PriceCoeff>
1.00

> <MW>
304.73

> <Description>
solid

> <FSP3>
0.21

> <clogP>
2.19

> <TPSA>
58.44

> <Acceptor>
3

> <Donor>
1

> <RotBonds>
2

> <HAC>
21

> <Collection>
General

> <Reference_compound>
CHEMBL113

> <Similarity>
0.8200

$$$$
F1064-0183
  -ISIS-  06222321142D

 19 20  0  0  0  0  0  0  0  0999 V2000
   -1.6208   -0.2375    0.0000 C   0  0  0  0  0  0  0  0  0  0  0  0
   -1.4458    0.3000    0.0000 C   0  0  0  0  0  0  0  0  0  0  0  0
   -1.1625   -0.5542    0.0000 N   0  0  0  0  0  0  0  0  0  0  0  0
   -2.1625   -0.3792    0.0000 N   0  0  3  0  0  0  0  0  0  0  0  0
   -2.3625    0.6000    0.0000 N   0  0  3  0  0  0  0  0  0  0  0  0
   -2.5458    0.0458    0.0000 C   0  0  0  0  0  0  0  0  0  0  0  0
   -1.8208    0.7208    0.0000 C   0  0  0  0  0  0  0  0  0  0  0  0
   -0.7000   -0.2167    0.0000 C   0  0  0  0  0  0  0  0  0  0  0  0
   -0.8833    0.3000    0.0000 N   0  0  3  0  0  0  0  0  0  0  0  0
   -3.1000   -0.0917    0.0000 O   0  0  0  0  0  0  0  0  0  0  0  0
   -1.6625    1.2625    0.0000 O   0  0  0  0  0  0  0  0  0  0  0  0
   -0.1625   -0.3792    0.0000 N   0  0  0  0  0  0  0  0  0  0  0  0
   -2.3208   -0.9167    0.0000 C   0  0  0  0  0  0  0  0  0  0  0  0
   -2.7458    1.0208    0.0000 C   0  0  0  0  0  0  0  0  0  0  0  0
   -0.5458    0.7833    0.0000 C   0  0  0  0  0  0  0  0  0  0  0  0
    0.0000   -0.9167    0.0000 C   0  0  0  0  0  0  0  0  0  0  0  0
    0.0167    0.7208    0.0000 C   0  0  0  0  0  0  0  0  0  0  0  0
    0.5375   -1.0542    0.0000 C   0  0  0  0  0  0  0  0  0  0  0  0
    0.3542    1.1833    0.0000 C   0  0  0  0  0  0  0  0  0  0  0  0
  2  1  2  0  0  0  0
  3  1  1  0  0  0  0
  4  1  1  0  0  0  0
  5  6  1  0  0  0  0
  6  4  1  0  0  0  0
  7  2  1  0  0  0  0
  8  3  2  0  0  0  0
  9  2  1  0  0  0  0
 10  6  2  0  0  0  0
 11  7  2  0  0  0  0
 12  8  1  0  0  0  0
 13  4  1  0  0  0  0
 14  5  1  0  0  0  0
 15  9  1  0  0  0  0
 16 12  1  0  0  0  0
 17 15  1  0  0  0  0
 18 16  1  0  0  0  0
 19 17  1  0  0  0  0
  9  8  1  0  0  0  0
  7  5  1  0  0  0  0
M  END
> <IDNUMBER>
F1064-0183

> <Chemical_Name>
8-(ethylamino)-1,3-dimethyl-7-propyl-2,3,6,7-tetrahydro-1H-purine-2,6-dione

> <CAS>
505081-19-6

> <PriceCoeff>
1.00

> <MW>
265.31

> <Description>
solid

> <FSP3>
0.58

> <clogP>
2.10

> <TPSA>
70.47

> <Acceptor>
3

> <Donor>
2

> <RotBonds>
4

> <HAC>
19

> <Collection>
General

> <Reference_compound>
CHEMBL113

> <Similarity>
0.8150

$$$$
F3176-0122
  -ISIS-  06222321462D

 18 19  0  0  0  0  0  0  0  0999 V2000
    3.6375    2.1083    0.0000 C   0  0  0  0  0  0  0  0  0  0  0  0
    3.6375    3.5083    0.0000 C   0  0  0  0  0  0  0  0  0  0  0  0
    2.4167    1.4000    0.0000 N   0  0  3  0  0  0  0  0  0  0  0  0
    1.2125    3.5083    0.0000 N   0  0  3  0  0  0  0  0  0  0  0  0
    1.2125    2.1083    0.0000 C   0  0  0  0  0  0  0  0  0  0  0  0
    2.4167    4.2000    0.0000 C   0  0  0  0  0  0  0  0  0  0  0  0
    4.9667    1.6708    0.0000 N   0  0  0  0  0  0  0  0  0  0  0  0
    4.9667    3.9375    0.0000 N   0  0  0  0  0  0  0  0  0  0  0  0
    5.7917    2.8083    0.0000 C   0  0  0  0  0  0  0  0  0  0  0  0
    0.0000    1.4083    0.0000 O   0  0  0  0  0  0  0  0  0  0  0  0
    2.4167    5.5917    0.0000 O   0  0  0  0  0  0  0  0  0  0  0  0
    7.1917    2.8083    0.0000 N   0  0  0  0  0  0  0  0  0  0  0  0
    2.4167   -0.0000    0.0000 C   0  0  0  0  0  0  0  0  0  0  0  0
    0.0000    4.2000    0.0000 C   0  0  0  0  0  0  0  0  0  0  0  0
    7.8917    4.0125    0.0000 C   0  0  0  0  0  0  0  0  0  0  0  0
    9.2917    4.0125    0.0000 C   0  0  0  0  0  0  0  0  0  0  0  0
    9.9917    5.2167    0.0000 C   0  0  0  0  0  0  0  0  0  0  0  0
   11.3917    5.2167    0.0000 C   0  0  0  0  0  0  0  0  0  0  0  0
  2  1  2  0  0  0  0
  3  1  1  0  0  0  0
  4  5  1  0  0  0  0
  5  3  1  0  0  0  0
  6  2  1  0  0  0  0
  7  1  1  0  0  0  0
  8  2  1  0  0  0  0
  9  7  2  0  0  0  0
 10  5  2  0  0  0  0
 11  6  2  0  0  0  0
 12  9  1  0  0  0  0
 13  3  1  0  0  0  0
 14  4  1  0  0  0  0
 15 12  1  0  0  0  0
 16 15  1  0  0  0  0
 17 16  1  0  0  0  0
 18 17  1  0  0  0  0
  8  9  1  0  0  0  0
  4  6  1  0  0  0  0
M  END
> <IDNUMBER>
F3176-0122

> <Chemical_Name>
8-(butylamino)-1,3-dimethyl-2,3,6,7-tetrahydro-1H-purine-2,6-dione

> <CAS>
108776-34-7

> <PriceCoeff>
1.00

> <MW>
251.28

> <Description>
solid

> <FSP3>
0.55

> <clogP>
2.11

> <TPSA>
81.33

> <Acceptor>
4

> <Donor>
3

> <RotBonds>
4

> <HAC>
18

> <Collection>
General

> <Reference_compound>
CHEMBL190

> <Similarity>
0.8320

$$$$
F3259-0268
  -ISIS-  06222321152D

 22 24  0  0  0  0  0  0  0  0999 V2000
    5.0667    2.4875    0.0000 C   0  0  0  0  0  0  0  0  0  0  0  0
    4.6917    1.8375    0.0000 C   0  0  0  0  0  0  0  0  0  0  0  0
    5.8167    2.4875    0.0000 N   0  0  3  0  0  0  0  0  0  0  0  0
    5.8167    1.1875    0.0000 N   0  0  3  0  0  0  0  0  0  0  0  0
    6.1917    1.8375    0.0000 C   0  0  0  0  0  0  0  0  0  0  0  0
    5.0667    1.1875    0.0000 C   0  0  0  0  0  0  0  0  0  0  0  0
    4.5667    3.0458    0.0000 N   0  0  0  0  0  0  0  0  0  0  0  0
    3.9542    1.9958    0.0000 N   0  0  3  0  0  0  0  0  0  0  0  0
    3.8792    2.7458    0.0000 C   0  0  0  0  0  0  0  0  0  0  0  0
    6.9417    1.8375    0.0000 O   0  0  0  0  0  0  0  0  0  0  0  0
    4.6917    0.5375    0.0000 O   0  0  0  0  0  0  0  0  0  0  0  0
    6.1917    3.1458    0.0000 C   0  0  0  0  0  0  0  0  0  0  0  0
    6.1917    0.5375    0.0000 C   0  0  0  0  0  0  0  0  0  0  0  0
    3.4000    1.4958    0.0000 C   0  0  0  0  0  0  0  0  0  0  0  0
    1.4167    1.4583    0.0000 C   0  0  0  0  0  0  0  0  0  0  0  0
    2.6875    1.7250    0.0000 C   0  0  0  0  0  0  0  0  0  0  0  0
    2.1292    1.2208    0.0000 C   0  0  0  0  0  0  0  0  0  0  0  0
    1.2625    2.1875    0.0000 C   0  0  0  0  0  0  0  0  0  0  0  0
    0.8542    0.9583    0.0000 C   0  0  0  0  0  0  0  0  0  0  0  0
    0.1417    1.1833    0.0000 C   0  0  0  0  0  0  0  0  0  0  0  0
    0.5417    2.4208    0.0000 C   0  0  0  0  0  0  0  0  0  0  0  0
   -0.0083    1.9208    0.0000 C   0  0  0  0  0  0  0  0  0  0  0  0
  2  1  2  0  0  0  0
  3  1  1  0  0  0  0
  4  5  1  0  0  0  0
  5  3  1  0  0  0  0
  6  2  1  0  0  0  0
  7  1  1  0  0  0  0
  8  2  1  0  0  0  0
  9  7  2  0  0  0  0
 10  5  2  0  0  0  0
 11  6  2  0  0  0  0
 12  3  1  0  0  0  0
 13  4  1  0  0  0  0
 14  8  1  0  0  0  0
 15 17  1  0  0  0  0
 16 14  1  0  0  0  0
 17 16  1  0  0  0  0
 18 15  2  0  0  0  0
 19 15  1  0  0  0  0
 20 19  2  0  0  0  0
 21 18  1  0  0  0  0
 22 20  1  0  0  0  0
  8  9  1  0  0  0  0
  4  6  1  0  0  0  0
 21 22  2  0  0  0  0
M  END
> <IDNUMBER>
F3259-0268

> <Chemical_Name>
1,3-dimethyl-7-(3-phenylpropyl)-2,3,6,7-tetrahydro-1H-purine-2,6-dione

> <CAS>
374600-85-8

> <PriceCoeff>
1.00

> <MW>
298.34

> <Description>
solid

> <FSP3>
0.31

> <clogP>
2.44

> <TPSA>
58.44

> <Acceptor>
3

> <Donor>
1

> <RotBonds>
4

> <HAC>
22

> <Collection>
General

> <Reference_compound>
CHEMBL113

> <Similarity>
0.8200

$$$$
F6451-2678
  -ISIS-  06222321442D

 22 23  0  0  0  0  0  0  0  0999 V2000
   -5.2833    2.5708    0.0000 N   0  0  3  0  0  0  0  0  0  0  0  0
   -5.3708    1.7458    0.0000 C   0  0  0  0  0  0  0  0  0  0  0  0
   -6.0292    2.9000    0.0000 C   0  0  0  0  0  0  0  0  0  0  0  0
   -3.1583    6.2792    0.0000 C   0  0  0  0  0  0  0  0  0  0  0  0
   -4.5833    2.9875    0.0000 C   0  0  0  0  0  0  0  0  0  0  0  0
   -4.5833    3.8000    0.0000 C   0  0  0  0  0  0  0  0  0  0  0  0
   -3.8625    4.2125    0.0000 N   0  0  0  0  0  0  0  0  0  0  0  0
   -6.1667    1.5708    0.0000 C   0  0  0  0  0  0  0  0  0  0  0  0
   -6.5792    2.2833    0.0000 C   0  0  0  0  0  0  0  0  0  0  0  0
   -3.8833    6.6792    0.0000 C   0  0  0  0  0  0  0  0  0  0  0  0
   -4.7500    1.1833    0.0000 O   0  0  0  0  0  0  0  0  0  0  0  0
   -6.2042    3.7083    0.0000 O   0  0  0  0  0  0  0  0  0  0  0  0
   -3.1458    5.4542    0.0000 C   0  0  3  0  0  0  0  0  0  0  0  0
   -5.2958    4.2125    0.0000 O   0  0  0  0  0  0  0  0  0  0  0  0
   -3.8625    5.0292    0.0000 C   0  0  0  0  0  0  0  0  0  0  0  0
   -4.5958    6.2625    0.0000 Cl  0  0  0  0  0  0  0  0  0  0  0  0
   -2.4250    5.0417    0.0000 O   0  0  0  0  0  0  0  0  0  0  0  0
   -2.4583    6.7000    0.0000 C   0  0  0  0  0  0  0  0  0  0  0  0
   -3.8833    7.5167    0.0000 C   0  0  0  0  0  0  0  0  0  0  0  0
   -1.7125    5.4625    0.0000 C   0  0  0  0  0  0  0  0  0  0  0  0
   -2.4500    7.5250    0.0000 C   0  0  0  0  0  0  0  0  0  0  0  0
   -3.1625    7.9417    0.0000 C   0  0  0  0  0  0  0  0  0  0  0  0
  2  1  1  0  0  0  0
  3  1  1  0  0  0  0
  4 13  1  0  0  0  0
  5  1  1  0  0  0  0
  6  5  1  0  0  0  0
  7  6  1  0  0  0  0
  8  2  1  0  0  0  0
  9  3  1  0  0  0  0
 10  4  1  0  0  0  0
 11  2  2  0  0  0  0
 12  3  2  0  0  0  0
 13 15  1  0  0  0  0
 14  6  2  0  0  0  0
 15  7  1  0  0  0  0
 16 10  1  0  0  0  0
 17 13  1  0  0  0  0
 18  4  2  0  0  0  0
 19 10  2  0  0  0  0
 20 17  1  0  0  0  0
 21 18  1  0  0  0  0
 22 21  2  0  0  0  0
  9  8  1  0  0  0  0
 22 19  1  0  0  0  0
M  END
> <IDNUMBER>
F6451-2678

> <Chemical_Name>
N-[2-(2-chlorophenyl)-2-methoxyethyl]-2-(2,5-dioxopyrrolidin-1-yl)acetamide

> <CAS>
1790199-25-5

> <PriceCoeff>
1.00

> <MW>
324.76

> <Description>
oil

> <FSP3>
0.40

> <clogP>
1.56

> <TPSA>
75.71

> <Acceptor>
4

> <Donor>
1

> <RotBonds>
6

> <HAC>
22

> <Collection>
General

$$$$
F0440-0324
  -ISIS-  06222321452D

 21 23  0  0  0  0  0  0  0  0999 V2000
    0.0042   -1.0667    0.0000 C   0  0  0  0  0  0  0  0  0  0  0  0
    2.4417   -2.5667    0.0000 N   0  0  3  0  0  0  0  0  0  0  0  0
   -0.4458   -1.7042    0.0000 N   0  0  0  0  0  0  0  0  0  0  0  0
   -1.2458   -0.6292    0.0000 C   0  0  0  0  0  0  0  0  0  0  0  0
   -0.4458   -0.4000    0.0000 S   0  0  0  0  0  0  0  0  0  0  0  0
   -1.2458   -1.4667    0.0000 C   0  0  0  0  0  0  0  0  0  0  0  0
    0.8500   -1.1000    0.0000 N   0  0  0  0  0  0  0  0  0  0  0  0
    3.2292   -2.7667    0.0000 C   0  0  0  0  0  0  0  0  0  0  0  0
    2.0042   -3.2500    0.0000 C   0  0  0  0  0  0  0  0  0  0  0  0
    1.2292   -1.8042    0.0000 C   0  0  0  0  0  0  0  0  0  0  0  0
    2.0500   -1.8500    0.0000 C   0  0  0  0  0  0  0  0  0  0  0  0
   -1.9458   -0.2292    0.0000 C   0  0  0  0  0  0  0  0  0  0  0  0
    3.3000   -3.6000    0.0000 C   0  0  0  0  0  0  0  0  0  0  0  0
    2.5292   -3.9000    0.0000 C   0  0  0  0  0  0  0  0  0  0  0  0
    3.9000   -2.2500    0.0000 O   0  0  0  0  0  0  0  0  0  0  0  0
    1.1667   -3.3042    0.0000 O   0  0  0  0  0  0  0  0  0  0  0  0
   -1.9458   -1.8667    0.0000 C   0  0  0  0  0  0  0  0  0  0  0  0
    0.8042   -2.5042    0.0000 O   0  0  0  0  0  0  0  0  0  0  0  0
   -2.6625   -1.4667    0.0000 C   0  0  0  0  0  0  0  0  0  0  0  0
   -2.6625   -0.6292    0.0000 C   0  0  3  0  0  0  0  0  0  0  0  0
   -3.3833   -0.2042    0.0000 C   0  0  0  0  0  0  0  0  0  0  0  0
  2 11  1  0  0  0  0
  3  1  2  0  0  0  0
  4  5  1  0  0  0  0
  5  1  1  0  0  0  0
  6  3  1  0  0  0  0
  7  1  1  0  0  0  0
  8  2  1  0  0  0  0
  9  2  1  0  0  0  0
 10  7  1  0  0  0  0
 11 10  1  0  0  0  0
 12  4  1  0  0  0  0
 13  8  1  0  0  0  0
 14  9  1  0  0  0  0
 15  8  2  0  0  0  0
 16  9  2  0  0  0  0
 17  6  1  0  0  0  0
 18 10  2  0  0  0  0
 19 17  1  0  0  0  0
 20 12  1  0  0  0  0
 21 20  1  0  0  0  0
  6  4  2  0  0  0  0
 19 20  1  0  0  0  0
 14 13  1  0  0  0  0
M  END
> <IDNUMBER>
F0440-0324

> <Chemical_Name>
2-(2,5-dioxopyrrolidin-1-yl)-N-(6-methyl-4,5,6,7-tetrahydro-1,3-benzothiazol-2-yl)acetamide

> <CAS>
476308-59-5

> <PriceCoeff>
1.50

> <MW>
307.37

> <Description>
solid

> <FSP3>
0.57

> <clogP>
1.94

> <TPSA>
107.61

> <Acceptor>
4

> <Donor>
1

> <RotBonds>
3

> <HAC>
21

> <Collection>
Advanced

$$$$
F5882-7382
  -ISIS-  06222321462D

 25 27  0  0  0  0  0  0  0  0999 V2000
   12.7042   -5.2042    0.0000 S   0  0  3  0  0  0  0  0  0  0  0  0
    9.4167   -5.1417    0.0000 S   0  0  3  0  0  0  0  0  0  0  0  0
    7.3375   -5.8167    0.0000 N   0  0  3  0  0  0  0  0  0  0  0  0
   11.8792   -5.1917    0.0000 N   0  0  3  0  0  0  0  0  0  0  0  0
   10.2417   -5.1542    0.0000 N   0  0  3  0  0  0  0  0  0  0  0  0
   13.5292   -5.2167    0.0000 C   0  0  3  0  0  0  0  0  0  0  0  0
    8.5917   -5.1292    0.0000 C   0  0  0  0  0  0  0  0  0  0  0  0
    6.9042   -6.5167    0.0000 C   0  0  0  0  0  0  0  0  0  0  0  0
    6.9375   -5.1000    0.0000 C   0  0  0  0  0  0  0  0  0  0  0  0
    8.1667   -5.8375    0.0000 C   0  0  0  0  0  0  0  0  0  0  0  0
   14.2375   -5.6375    0.0000 C   0  0  0  0  0  0  0  0  0  0  0  0
   14.2417   -4.8167    0.0000 C   0  0  0  0  0  0  0  0  0  0  0  0
   11.4542   -5.8917    0.0000 C   0  0  0  0  0  0  0  0  0  0  0  0
   11.4917   -4.4667    0.0000 C   0  0  0  0  0  0  0  0  0  0  0  0
   10.6375   -5.8750    0.0000 C   0  0  0  0  0  0  0  0  0  0  0  0
   10.6667   -4.4542    0.0000 C   0  0  0  0  0  0  0  0  0  0  0  0
   12.6917   -6.0292    0.0000 O   0  0  0  0  0  0  0  0  0  0  0  0
   12.7167   -4.3792    0.0000 O   0  0  0  0  0  0  0  0  0  0  0  0
    9.4042   -5.9667    0.0000 O   0  0  0  0  0  0  0  0  0  0  0  0
    9.4375   -4.3167    0.0000 O   0  0  0  0  0  0  0  0  0  0  0  0
    7.3042   -7.2417    0.0000 O   0  0  0  0  0  0  0  0  0  0  0  0
    7.3625   -4.3792    0.0000 O   0  0  0  0  0  0  0  0  0  0  0  0
    6.1167   -5.0792    0.0000 C   0  0  0  0  0  0  0  0  0  0  0  0
    6.0792   -6.5042    0.0000 C   0  0  0  0  0  0  0  0  0  0  0  0
    5.6875   -5.7792    0.0000 C   0  0  0  0  0  0  0  0  0  0  0  0
  2  5  1  0  0  0  0
  3 10  1  0  0  0  0
  4  1  1  0  0  0  0
  5 16  1  0  0  0  0
  6  1  1  0  0  0  0
  7  2  1  0  0  0  0
  8  3  1  0  0  0  0
  9  3  1  0  0  0  0
 10  7  1  0  0  0  0
 11  6  1  0  0  0  0
 12  6  1  0  0  0  0
 13  4  1  0  0  0  0
 14  4  1  0  0  0  0
 15 13  1  0  0  0  0
 16 14  1  0  0  0  0
 17  1  2  0  0  0  0
 18  1  2  0  0  0  0
 19  2  2  0  0  0  0
 20  2  2  0  0  0  0
 21  8  2  0  0  0  0
 22  9  2  0  0  0  0
 23  9  1  0  0  0  0
 24  8  1  0  0  0  0
 25 23  1  0  0  0  0
 12 11  1  0  0  0  0
 15  5  1  0  0  0  0
 24 25  1  0  0  0  0
M  END
> <IDNUMBER>
F5882-7382

> <Chemical_Name>
1-(2-{[4-(cyclopropanesulfonyl)piperazin-1-yl]sulfonyl}ethyl)piperidine-2,6-dione

> <CAS>
1226431-83-9

> <PriceCoeff>
1.00

> <MW>
393.48

> <Description>
solid

> <FSP3>
0.86

> <clogP>
0.71

> <TPSA>
128.90

> <Acceptor>
6

> <Donor>
0

> <RotBonds>
6

> <HAC>
25

> <Collection>
General

$$$$
F1913-1938
  -ISIS-  06222321452D

 14 15  0  0  0  0  0  0  0  0999 V2000
   13.1042   -3.8042    0.0000 C   0  0  0  0  0  0  0  0  0  0  0  0
   12.3917   -3.3917    0.0000 C   0  0  0  0  0  0  0  0  0  0  0  0
   12.3875   -2.5667    0.0000 C   0  0  0  0  0  0  0  0  0  0  0  0
   13.1042   -4.6292    0.0000 C   0  0  0  0  0  0  0  0  0  0  0  0
   11.6667   -2.1542    0.0000 O   0  0  0  0  0  0  0  0  0  0  0  0
   13.8250   -5.0417    0.0000 C   0  0  0  0  0  0  0  0  0  0  0  0
   13.1000   -2.1500    0.0000 O   0  0  0  0  0  0  0  0  0  0  0  0
   13.8167   -3.3875    0.0000 C   0  0  0  0  0  0  0  0  0  0  0  0
   11.6792   -3.8042    0.0000 C   0  0  0  0  0  0  0  0  0  0  0  0
   12.3917   -5.0417    0.0000 C   0  0  0  0  0  0  0  0  0  0  0  0
   11.6792   -4.6292    0.0000 C   0  0  0  0  0  0  0  0  0  0  0  0
   14.5292   -3.7917    0.0000 C   0  0  0  0  0  0  0  0  0  0  0  0
   14.5375   -4.6250    0.0000 C   0  0  0  0  0  0  0  0  0  0  0  0
   13.8167   -5.8667    0.0000 C   0  0  0  0  0  0  0  0  0  0  0  0
  2  1  2  0  0  0  0
  3  2  1  0  0  0  0
  4  1  1  0  0  0  0
  5  3  2  0  0  0  0
  6  4  1  0  0  0  0
  7  3  1  0  0  0  0
  8  1  1  0  0  0  0
  9  2  1  0  0  0  0
 10  4  2  0  0  0  0
 11 10  1  0  0  0  0
 12  8  2  0  0  0  0
 13 12  1  0  0  0  0
 14  6  1  0  0  0  0
  6 13  2  0  0  0  0
  9 11  2  0  0  0  0
M  END
> <IDNUMBER>
F1913-1938

> <Chemical_Name>
5-methylnaphthalene-1-carboxylic acid

> <CAS>
4527-60-0

> <PriceCoeff>
1.00

> <MW>
186.21

> <Description>
solid

> <FSP3>
0.08

> <clogP>
3.56

> <TPSA>
37.30

> <Acceptor>
2

> <Donor>
0

> <RotBonds>
1

> <HAC>
14

> <Collection>
General

> <Reference_compound>
PRI1826

> <Similarity>
0.8460

$$$$
F5882-0705
  -ISIS-  06222304352D

 23 24  0  0  0  0  0  0  0  0999 V2000
    3.8292   -5.5375    0.0000 N   0  0  3  0  0  0  0  0  0  0  0  0
    5.2667   -5.5417    0.0000 C   0  0  0  0  0  0  0  0  0  0  0  0
    4.5417   -5.9542    0.0000 C   0  0  0  0  0  0  0  0  0  0  0  0
    3.7500   -4.7125    0.0000 C   0  0  0  0  0  0  0  0  0  0  0  0
    3.0667   -5.8625    0.0000 C   0  0  0  0  0  0  0  0  0  0  0  0
    5.9792   -5.9625    0.0000 N   0  0  3  0  0  0  0  0  0  0  0  0
    8.1292   -8.0417    0.0000 C   0  0  0  0  0  0  0  0  0  0  0  0
    7.4167   -6.7917    0.0000 N   0  0  3  0  0  0  0  0  0  0  0  0
    7.7125   -9.3250    0.0000 S   0  0  0  0  0  0  0  0  0  0  0  0
    7.4625   -8.5292    0.0000 C   0  0  0  0  0  0  0  0  0  0  0  0
    5.2667   -4.7125    0.0000 O   0  0  0  0  0  0  0  0  0  0  0  0
    2.9417   -4.5292    0.0000 C   0  0  0  0  0  0  0  0  0  0  0  0
    2.5250   -5.2375    0.0000 C   0  0  0  0  0  0  0  0  0  0  0  0
    8.8042   -8.5417    0.0000 C   0  0  0  0  0  0  0  0  0  0  0  0
    2.8917   -6.6792    0.0000 O   0  0  0  0  0  0  0  0  0  0  0  0
    4.3667   -4.1542    0.0000 O   0  0  0  0  0  0  0  0  0  0  0  0
    5.9792   -6.7917    0.0000 C   0  0  0  0  0  0  0  0  0  0  0  0
    6.7042   -5.5500    0.0000 C   0  0  0  0  0  0  0  0  0  0  0  0
    8.1375   -7.2167    0.0000 C   0  0  0  0  0  0  0  0  0  0  0  0
    8.5417   -9.3292    0.0000 C   0  0  0  0  0  0  0  0  0  0  0  0
    6.6917   -7.2042    0.0000 C   0  0  0  0  0  0  0  0  0  0  0  0
    7.4250   -5.9625    0.0000 C   0  0  0  0  0  0  0  0  0  0  0  0
   10.1917   -6.7375    0.0000 Cl  0  0  0  0  0  0  0  0  0  0  0  0
  3  1  1  0  0  0  0
  4  1  1  0  0  0  0
  5  1  1  0  0  0  0
  6  2  1  0  0  0  0
  7 19  1  0  0  0  0
  8 22  1  0  0  0  0
  9 10  1  0  0  0  0
 10  7  2  0  0  0  0
 11  2  2  0  0  0  0
 12  4  1  0  0  0  0
 13  5  1  0  0  0  0
 14  7  1  0  0  0  0
 15  5  2  0  0  0  0
 16  4  2  0  0  0  0
 17  6  1  0  0  0  0
 18  6  1  0  0  0  0
 19  8  1  0  0  0  0
 20 14  2  0  0  0  0
 21 17  1  0  0  0  0
 22 18  1  0  0  0  0
 13 12  1  0  0  0  0
  8 21  1  0  0  0  0
 20  9  1  0  0  0  0
  2  3  1  0  0  0  0
M  END
> <IDNUMBER>
F5882-0705

> <Chemical_Name>
1-(2-oxo-2-{4-[(thiophen-3-yl)methyl]piperazin-1-yl}ethyl)pyrrolidine-2,5-dione hydrochloride

> <CAS>
1351609-79-4

> <PriceCoeff>
1.00

> <MW>
321.39

> <Description>
solid

> <FSP3>
0.53

> <clogP>
1.24

> <TPSA>
89.17

> <Acceptor>
3

> <Donor>
1

> <RotBonds>
5

> <HAC>
22

> <Collection>
General

$$$$
F5577-0013
  -ISIS-  06222321462D

 23 25  0  0  0  0  0  0  0  0999 V2000
   -1.0083    2.5583    0.0000 C   0  0  0  0  0  0  0  0  0  0  0  0
   -2.4333    2.5583    0.0000 C   0  0  0  0  0  0  0  0  0  0  0  0
   -1.7208    2.9833    0.0000 C   0  0  0  0  0  0  0  0  0  0  0  0
   -2.4375    1.7333    0.0000 C   0  0  0  0  0  0  0  0  0  0  0  0
   -1.0083    1.7333    0.0000 C   0  0  0  0  0  0  0  0  0  0  0  0
   -1.7208    1.3208    0.0000 N   0  0  3  0  0  0  0  0  0  0  0  0
   -3.1500    1.3208    0.0000 C   0  0  0  0  0  0  0  0  0  0  0  0
   -3.8625    1.7333    0.0000 C   0  0  0  0  0  0  0  0  0  0  0  0
   -3.1500    2.9708    0.0000 C   0  0  0  0  0  0  0  0  0  0  0  0
   -4.5833    1.3208    0.0000 N   0  0  3  0  0  0  0  0  0  0  0  0
   -0.2875    2.9708    0.0000 C   0  0  0  0  0  0  0  0  0  0  0  0
   -3.8625    2.5583    0.0000 C   0  0  0  0  0  0  0  0  0  0  0  0
   -1.7208    3.8000    0.0000 O   0  0  0  0  0  0  0  0  0  0  0  0
   -4.5833    0.4958    0.0000 C   0  0  0  0  0  0  0  0  0  0  0  0
   -5.2958    1.7333    0.0000 C   0  0  0  0  0  0  0  0  0  0  0  0
   -0.2875    3.7958    0.0000 O   0  0  0  0  0  0  0  0  0  0  0  0
   -4.5833    2.9708    0.0000 F   0  0  0  0  0  0  0  0  0  0  0  0
    0.4250    2.5583    0.0000 O   0  0  0  0  0  0  0  0  0  0  0  0
   -1.7250    0.4958    0.0000 C   0  0  0  0  0  0  0  0  0  0  0  0
   -5.2958    0.0833    0.0000 C   0  0  0  0  0  0  0  0  0  0  0  0
   -6.0000    1.3208    0.0000 C   0  0  0  0  0  0  0  0  0  0  0  0
   -6.0125    0.4958    0.0000 C   0  0  3  0  0  0  0  0  0  0  0  0
   -6.7292    0.0833    0.0000 C   0  0  0  0  0  0  0  0  0  0  0  0
  2  3  1  0  0  0  0
  3  1  1  0  0  0  0
  4  6  1  0  0  0  0
  5  1  2  0  0  0  0
  6  5  1  0  0  0  0
  7  4  2  0  0  0  0
  8  7  1  0  0  0  0
  9  2  2  0  0  0  0
 10  8  1  0  0  0  0
 11  1  1  0  0  0  0
 12  9  1  0  0  0  0
 13  3  2  0  0  0  0
 14 10  1  0  0  0  0
 15 10  1  0  0  0  0
 16 11  2  0  0  0  0
 17 12  1  0  0  0  0
 18 11  1  0  0  0  0
 19  6  1  0  0  0  0
 20 14  1  0  0  0  0
 21 15  1  0  0  0  0
 22 21  1  0  0  0  0
 23 22  1  0  0  0  0
  4  2  1  0  0  0  0
  8 12  2  0  0  0  0
 22 20  1  0  0  0  0
M  END
> <IDNUMBER>
F5577-0013

> <Chemical_Name>
6-fluoro-1-methyl-7-(4-methylpiperidin-1-yl)-4-oxo-1,4-dihydroquinoline-3-carboxylic acid

> <CAS>
1031989-25-9

> <PriceCoeff>
1.50

> <MW>
318.34

> <Description>
solid

> <FSP3>
0.41

> <clogP>
2.88

> <TPSA>
60.85

> <Acceptor>
5

> <Donor>
2

> <RotBonds>
2

> <HAC>
23

> <Collection>
Advanced

> <Reference_compound>
CHEMBL8

> <Similarity>
0.8710

$$$$
F5831-1860
  -ISIS-  06222321462D

 19 20  0  0  0  0  0  0  0  0999 V2000
   -5.2875    2.5625    0.0000 N   0  0  3  0  0  0  0  0  0  0  0  0
   -5.3708    1.7333    0.0000 C   0  0  0  0  0  0  0  0  0  0  0  0
   -6.0292    2.9000    0.0000 C   0  0  0  0  0  0  0  0  0  0  0  0
   -4.5833    3.8000    0.0000 C   0  0  0  0  0  0  0  0  0  0  0  0
   -4.5833    2.9833    0.0000 C   0  0  0  0  0  0  0  0  0  0  0  0
   -4.5833    6.2750    0.0000 C   0  0  0  0  0  0  0  0  0  0  0  0
   -3.8625    4.2125    0.0000 N   0  0  0  0  0  0  0  0  0  0  0  0
   -5.2458    6.7667    0.0000 O   0  0  0  0  0  0  0  0  0  0  0  0
   -6.1667    1.5583    0.0000 C   0  0  0  0  0  0  0  0  0  0  0  0
   -6.5875    2.2833    0.0000 C   0  0  0  0  0  0  0  0  0  0  0  0
   -4.5833    5.4542    0.0000 C   0  0  0  0  0  0  0  0  0  0  0  0
   -4.7583    1.1708    0.0000 O   0  0  0  0  0  0  0  0  0  0  0  0
   -6.2125    3.7083    0.0000 O   0  0  0  0  0  0  0  0  0  0  0  0
   -3.9083    6.7667    0.0000 C   0  0  0  0  0  0  0  0  0  0  0  0
   -5.3000    4.2125    0.0000 O   0  0  0  0  0  0  0  0  0  0  0  0
   -4.9958    7.5542    0.0000 C   0  0  0  0  0  0  0  0  0  0  0  0
   -4.1625    7.5542    0.0000 C   0  0  0  0  0  0  0  0  0  0  0  0
   -3.8625    5.0292    0.0000 C   0  0  3  0  0  0  0  0  0  0  0  0
   -3.1458    5.4417    0.0000 C   0  0  0  0  0  0  0  0  0  0  0  0
  2  1  1  0  0  0  0
  3  1  1  0  0  0  0
  4  5  1  0  0  0  0
  5  1  1  0  0  0  0
  6 11  1  0  0  0  0
  7  4  1  0  0  0  0
  8  6  1  0  0  0  0
  9  2  1  0  0  0  0
 10  3  1  0  0  0  0
 11 18  1  0  0  0  0
 12  2  2  0  0  0  0
 13  3  2  0  0  0  0
 14  6  2  0  0  0  0
 15  4  2  0  0  0  0
 16  8  1  0  0  0  0
 17 14  1  0  0  0  0
 18  7  1  0  0  0  0
 19 18  1  0  0  0  0
  9 10  1  0  0  0  0
 17 16  2  0  0  0  0
M  END
> <IDNUMBER>
F5831-1860

> <Chemical_Name>
2-(2,5-dioxopyrrolidin-1-yl)-N-[1-(furan-2-yl)propan-2-yl]acetamide

> <CAS>
1219913-38-8

> <PriceCoeff>
1.00

> <MW>
264.28

> <Description>
solid

> <FSP3>
0.46

> <clogP>
0.34

> <TPSA>
79.62

> <Acceptor>
4

> <Donor>
1

> <RotBonds>
5

> <HAC>
19

> <Collection>
General

$$$$
F0440-0382
  -ISIS-  06222321142D

 22 24  0  0  0  0  0  0  0  0999 V2000
   -2.5208   -1.0292    0.0000 C   0  0  0  0  0  0  0  0  0  0  0  0
   -2.7833   -1.4500    0.0000 C   0  0  0  0  0  0  0  0  0  0  0  0
   -1.6333    0.1208    0.0000 N   0  0  3  0  0  0  0  0  0  0  0  0
   -2.0458   -1.1292    0.0000 S   0  0  0  0  0  0  0  0  0  0  0  0
   -2.4458   -1.8292    0.0000 C   0  0  0  0  0  0  0  0  0  0  0  0
   -2.0000   -1.6292    0.0000 C   0  0  0  0  0  0  0  0  0  0  0  0
   -2.7208   -0.5667    0.0000 N   0  0  0  0  0  0  0  0  0  0  0  0
   -1.7458    0.6208    0.0000 C   0  0  0  0  0  0  0  0  0  0  0  0
   -1.1458    0.0833    0.0000 C   0  0  0  0  0  0  0  0  0  0  0  0
   -3.2833   -1.5000    0.0000 C   0  0  0  0  0  0  0  0  0  0  0  0
   -2.4208   -0.1667    0.0000 C   0  0  0  0  0  0  0  0  0  0  0  0
   -1.9458   -0.2500    0.0000 C   0  0  0  0  0  0  0  0  0  0  0  0
   -3.7833   -1.5042    0.0000 N   0  0  0  0  0  0  0  0  0  0  0  0
   -1.3125    0.8500    0.0000 C   0  0  0  0  0  0  0  0  0  0  0  0
   -0.9458    0.5208    0.0000 C   0  0  0  0  0  0  0  0  0  0  0  0
   -2.2458    0.8208    0.0000 O   0  0  0  0  0  0  0  0  0  0  0  0
   -0.9125   -0.3667    0.0000 O   0  0  0  0  0  0  0  0  0  0  0  0
   -2.6000    0.2833    0.0000 O   0  0  0  0  0  0  0  0  0  0  0  0
   -2.5000   -2.3042    0.0000 C   0  0  0  0  0  0  0  0  0  0  0  0
   -1.6000   -1.9042    0.0000 C   0  0  0  0  0  0  0  0  0  0  0  0
   -2.1000   -2.6042    0.0000 C   0  0  0  0  0  0  0  0  0  0  0  0
   -1.6458   -2.4000    0.0000 C   0  0  0  0  0  0  0  0  0  0  0  0
  2  1  2  0  0  0  0
  3 12  1  0  0  0  0
  4  1  1  0  0  0  0
  5  2  1  0  0  0  0
  6  4  1  0  0  0  0
  7  1  1  0  0  0  0
  8  3  1  0  0  0  0
  9  3  1  0  0  0  0
 10  2  1  0  0  0  0
 11  7  1  0  0  0  0
 12 11  1  0  0  0  0
 13 10  3  0  0  0  0
 14  8  1  0  0  0  0
 15  9  1  0  0  0  0
 16  8  2  0  0  0  0
 17  9  2  0  0  0  0
 18 11  2  0  0  0  0
 19  5  1  0  0  0  0
 20  6  1  0  0  0  0
 21 19  1  0  0  0  0
 22 20  1  0  0  0  0
  5  6  2  0  0  0  0
 21 22  1  0  0  0  0
 15 14  1  0  0  0  0
M  END
> <IDNUMBER>
F0440-0382

> <Chemical_Name>
N-(3-cyano-4,5,6,7-tetrahydro-1-benzothiophen-2-yl)-2-(2,5-dioxopyrrolidin-1-yl)acetamide

> <CAS>
296799-48-9

> <PriceCoeff>
1.00

> <MW>
317.36

> <Description>
solid

> <FSP3>
0.47

> <clogP>
1.25

> <TPSA>
118.51

> <Acceptor>
4

> <Donor>
1

> <RotBonds>
3

> <HAC>
22

> <Collection>
General

$$$$
F5831-2307
  -ISIS-  06222321152D

 19 20  0  0  0  0  0  0  0  0999 V2000
   -5.2875    2.5625    0.0000 N   0  0  3  0  0  0  0  0  0  0  0  0
   -5.3708    1.7333    0.0000 C   0  0  0  0  0  0  0  0  0  0  0  0
   -6.0292    2.9000    0.0000 C   0  0  0  0  0  0  0  0  0  0  0  0
   -4.5833    3.8000    0.0000 C   0  0  0  0  0  0  0  0  0  0  0  0
   -4.5833    2.9833    0.0000 C   0  0  0  0  0  0  0  0  0  0  0  0
   -4.5708    6.2750    0.0000 C   0  0  0  0  0  0  0  0  0  0  0  0
   -5.2333    6.7667    0.0000 S   0  0  0  0  0  0  0  0  0  0  0  0
   -3.8625    4.2125    0.0000 N   0  0  0  0  0  0  0  0  0  0  0  0
   -6.1667    1.5583    0.0000 C   0  0  0  0  0  0  0  0  0  0  0  0
   -6.5875    2.2833    0.0000 C   0  0  0  0  0  0  0  0  0  0  0  0
   -4.5833    5.4542    0.0000 C   0  0  0  0  0  0  0  0  0  0  0  0
   -4.7583    1.1708    0.0000 O   0  0  0  0  0  0  0  0  0  0  0  0
   -6.2125    3.7083    0.0000 O   0  0  0  0  0  0  0  0  0  0  0  0
   -4.9750    7.5500    0.0000 C   0  0  0  0  0  0  0  0  0  0  0  0
   -3.8958    6.7542    0.0000 C   0  0  0  0  0  0  0  0  0  0  0  0
   -5.3000    4.2125    0.0000 O   0  0  0  0  0  0  0  0  0  0  0  0
   -4.1583    7.5417    0.0000 C   0  0  0  0  0  0  0  0  0  0  0  0
   -3.8625    5.0292    0.0000 C   0  0  3  0  0  0  0  0  0  0  0  0
   -3.1458    5.4417    0.0000 C   0  0  0  0  0  0  0  0  0  0  0  0
  2  1  1  0  0  0  0
  3  1  1  0  0  0  0
  4  5  1  0  0  0  0
  5  1  1  0  0  0  0
  6 11  1  0  0  0  0
  7  6  1  0  0  0  0
  8  4  1  0  0  0  0
  9  2  1  0  0  0  0
 10  3  1  0  0  0  0
 11 18  1  0  0  0  0
 12  2  2  0  0  0  0
 13  3  2  0  0  0  0
 14  7  1  0  0  0  0
 15  6  2  0  0  0  0
 16  4  2  0  0  0  0
 17 15  1  0  0  0  0
 18  8  1  0  0  0  0
 19 18  1  0  0  0  0
  9 10  1  0  0  0  0
 17 14  2  0  0  0  0
M  END
> <IDNUMBER>
F5831-2307

> <Chemical_Name>
2-(2,5-dioxopyrrolidin-1-yl)-N-[1-(thiophen-2-yl)propan-2-yl]acetamide

> <CAS>
1210779-47-7

> <PriceCoeff>
1.00

> <MW>
280.34

> <Description>
solid

> <FSP3>
0.46

> <clogP>
0.81

> <TPSA>
94.72

> <Acceptor>
3

> <Donor>
1

> <RotBonds>
5

> <HAC>
19

> <Collection>
General

$$$$
F3146-0160
  -ISIS-  06222321442D

 14 14  0  0  0  0  0  0  0  0999 V2000
    0.0167   -1.0625    0.0000 C   0  0  0  0  0  0  0  0  0  0  0  0
    0.7292   -0.6542    0.0000 N   0  0  3  0  0  0  0  0  0  0  0  0
   -0.6958   -0.6500    0.0000 O   0  0  0  0  0  0  0  0  0  0  0  0
    0.0125   -1.8875    0.0000 O   0  0  0  0  0  0  0  0  0  0  0  0
    1.4417   -1.0750    0.0000 C   0  0  0  0  0  0  0  0  0  0  0  0
    0.7375    0.1708    0.0000 C   0  0  0  0  0  0  0  0  0  0  0  0
   -1.4083   -1.0542    0.0000 C   0  0  3  0  0  0  0  0  0  0  0  0
    1.4542    0.5750    0.0000 C   0  0  0  0  0  0  0  0  0  0  0  0
    2.1625   -0.6667    0.0000 C   0  0  0  0  0  0  0  0  0  0  0  0
    2.1667    0.1583    0.0000 C   0  0  3  0  0  0  0  0  0  0  0  0
    2.8875    0.5625    0.0000 O   0  0  0  0  0  0  0  0  0  0  0  0
   -2.1333   -1.4750    0.0000 C   0  0  0  0  0  0  0  0  0  0  0  0
   -0.9958   -1.7792    0.0000 C   0  0  0  0  0  0  0  0  0  0  0  0
   -1.8250   -0.3375    0.0000 C   0  0  0  0  0  0  0  0  0  0  0  0
  2  1  1  0  0  0  0
  3  1  1  0  0  0  0
  4  1  2  0  0  0  0
  5  2  1  0  0  0  0
  6  2  1  0  0  0  0
  7  3  1  0  0  0  0
  8  6  1  0  0  0  0
  9  5  1  0  0  0  0
 10  8  1  0  0  0  0
 11 10  1  0  0  0  0
 12  7  1  0  0  0  0
 13  7  1  0  0  0  0
 14  7  1  0  0  0  0
 10  9  1  0  0  0  0
M  END
> <IDNUMBER>
F3146-0160

> <Chemical_Name>
tert-butyl 4-hydroxypiperidine-1-carboxylate

> <CAS>
109384-19-2

> <PriceCoeff>
1.50

> <MW>
201.26

> <Description>
solid

> <FSP3>
0.90

> <clogP>
0.78

> <TPSA>
49.77

> <Acceptor>
3

> <Donor>
1

> <RotBonds>
2

> <HAC>
14

> <Collection>
Advanced

> <Reference_compound>
PRI4988

> <Similarity>
0.8090

$$$$
F1967-6724
  -ISIS-  06222304352D

 23 23  0  0  0  0  0  0  0  0999 V2000
   -3.6333    1.1250    0.0000 C   0  0  0  0  0  0  0  0  0  0  0  0
   -3.6333    0.0250    0.0000 O   0  0  0  0  0  0  0  0  0  0  0  0
   -2.6708    1.6708    0.0000 O   0  0  0  0  0  0  0  0  0  0  0  0
   -1.7292    1.1250    0.0000 C   0  0  0  0  0  0  0  0  0  0  0  0
   -5.5292    1.1250    0.0000 N   0  0  0  0  0  0  0  0  0  0  0  0
   -0.7625    1.6708    0.0000 C   0  0  0  0  0  0  0  0  0  0  0  0
   -4.5833    1.6708    0.0000 C   0  0  0  0  0  0  0  0  0  0  0  0
   -0.7708    2.7667    0.0000 C   0  0  0  0  0  0  0  0  0  0  0  0
    0.1833    1.1250    0.0000 C   0  0  0  0  0  0  0  0  0  0  0  0
    1.1417    1.6708    0.0000 C   0  0  0  0  0  0  0  0  0  0  0  0
    0.1833    3.3208    0.0000 C   0  0  0  0  0  0  0  0  0  0  0  0
    1.1458    2.7750    0.0000 C   0  0  0  0  0  0  0  0  0  0  0  0
    4.1098    2.5462    0.0000 S   0  0  3  0  0  0  0  0  0  0  0  0
    3.7070    1.8364    0.0000 C   0  0  0  0  0  0  0  0  0  0  0  0
    3.3989    2.9675    0.0000 O   0  0  0  0  0  0  0  0  0  0  0  0
    4.5156    3.2673    0.0000 O   0  0  0  0  0  0  0  0  0  0  0  0
    4.8310    2.1404    0.0000 O   0  0  0  0  0  0  0  0  0  0  0  0
    4.1224    1.1188    0.0000 C   0  0  0  0  0  0  0  0  0  0  0  0
    2.8765    1.8322    0.0000 C   0  0  0  0  0  0  0  0  0  0  0  0
    3.7053    0.4006    0.0000 C   0  0  0  0  0  0  0  0  0  0  0  0
    2.4686    1.1147    0.0000 C   0  0  0  0  0  0  0  0  0  0  0  0
    2.8820    0.4007    0.0000 C   0  0  0  0  0  0  0  0  0  0  0  0
    2.4684   -0.3154    0.0000 C   0  0  0  0  0  0  0  0  0  0  0  0
 11 12  1  0  0  0  0
  2  1  2  0  0  0  0
  3  1  1  0  0  0  0
  4  3  1  0  0  0  0
  5  7  1  0  0  0  0
  6  4  1  0  0  0  0
  7  1  1  0  0  0  0
  8  6  1  0  0  0  0
  9  6  2  0  0  0  0
 10  9  1  0  0  0  0
 11  8  2  0  0  0  0
 12 10  2  0  0  0  0
 14 13  1  0  0  0  0
 15 13  2  0  0  0  0
 16 13  2  0  0  0  0
 17 13  1  0  0  0  0
 18 14  1  0  0  0  0
 19 14  2  0  0  0  0
 20 18  2  0  0  0  0
 21 19  1  0  0  0  0
 22 21  2  0  0  0  0
 23 22  1  0  0  0  0
 20 22  1  0  0  0  0
M  END
> <IDNUMBER>
F1967-6724

> <Chemical_Name>
4-methylbenzene-1-sulfonic acid; benzyl 2-aminoacetate

> <CAS>
1738-76-7

> <PriceCoeff>
1.00

> <MW>
165.18

> <Description>
solid

> <FSP3>
0.22

> <clogP>
0.96

> <TPSA>
52.32

> <Acceptor>
2

> <Donor>
1

> <RotBonds>
4

> <HAC>
12

> <Collection>
General

> <Reference_compound>
PRI5904

> <Similarity>
0.8060

$$$$
F6374-0794
  -ISIS-  06222321442D

 24 26  0  0  0  0  0  0  0  0999 V2000
   -4.5958    5.0333    0.0000 N   0  0  3  0  0  0  0  0  0  0  0  0
   -0.2958    6.6667    0.0000 C   0  0  0  0  0  0  0  0  0  0  0  0
    0.4917    6.4042    0.0000 N   0  0  0  0  0  0  0  0  0  0  0  0
   -3.8708    3.8000    0.0000 C   0  0  0  0  0  0  0  0  0  0  0  0
   -4.5833    4.2125    0.0000 C   0  0  0  0  0  0  0  0  0  0  0  0
   -3.9208    5.5167    0.0000 C   0  0  0  0  0  0  0  0  0  0  0  0
   -5.2583    5.5042    0.0000 C   0  0  0  0  0  0  0  0  0  0  0  0
   -3.1583    4.2042    0.0000 N   0  0  3  0  0  0  0  0  0  0  0  0
   -0.2750    7.4917    0.0000 S   0  0  0  0  0  0  0  0  0  0  0  0
    0.9750    7.0750    0.0000 C   0  0  0  0  0  0  0  0  0  0  0  0
    0.5125    7.7375    0.0000 C   0  0  0  0  0  0  0  0  0  0  0  0
   -1.0083    6.2667    0.0000 S   0  0  0  0  0  0  0  0  0  0  0  0
   -3.8708    2.9833    0.0000 O   0  0  0  0  0  0  0  0  0  0  0  0
   -5.0167    6.2917    0.0000 C   0  0  0  0  0  0  0  0  0  0  0  0
   -4.1875    6.3042    0.0000 C   0  0  0  0  0  0  0  0  0  0  0  0
   -6.0292    5.2417    0.0000 O   0  0  0  0  0  0  0  0  0  0  0  0
   -3.1458    5.2667    0.0000 O   0  0  0  0  0  0  0  0  0  0  0  0
   -2.4500    3.8083    0.0000 C   0  0  0  0  0  0  0  0  0  0  0  0
   -3.1583    5.0292    0.0000 C   0  0  0  0  0  0  0  0  0  0  0  0
   -1.0125    5.4417    0.0000 C   0  0  0  0  0  0  0  0  0  0  0  0
   -1.7333    4.2167    0.0000 C   0  0  0  0  0  0  0  0  0  0  0  0
   -2.4458    5.4417    0.0000 C   0  0  0  0  0  0  0  0  0  0  0  0
   -1.7333    5.0333    0.0000 C   0  0  3  0  0  0  0  0  0  0  0  0
    1.8042    7.0542    0.0000 C   0  0  0  0  0  0  0  0  0  0  0  0
  2 12  1  0  0  0  0
  3  2  2  0  0  0  0
  4  5  1  0  0  0  0
  5  1  1  0  0  0  0
  6  1  1  0  0  0  0
  7  1  1  0  0  0  0
  8  4  1  0  0  0  0
  9  2  1  0  0  0  0
 10  3  1  0  0  0  0
 11  9  1  0  0  0  0
 12 20  1  0  0  0  0
 13  4  2  0  0  0  0
 14  7  1  0  0  0  0
 15  6  1  0  0  0  0
 16  7  2  0  0  0  0
 17  6  2  0  0  0  0
 18  8  1  0  0  0  0
 19  8  1  0  0  0  0
 20 23  1  0  0  0  0
 21 18  1  0  0  0  0
 22 19  1  0  0  0  0
 23 22  1  0  0  0  0
 24 10  1  0  0  0  0
 14 15  1  0  0  0  0
 21 23  1  0  0  0  0
 11 10  2  0  0  0  0
M  END
> <IDNUMBER>
F6374-0794

> <Chemical_Name>
1-[2-(4-{[(4-methyl-1,3-thiazol-2-yl)sulfanyl]methyl}piperidin-1-yl)-2-oxoethyl]pyrrolidine-2,5-dione

> <CAS>
1421522-70-4

> <PriceCoeff>
1.00

> <MW>
367.49

> <Description>
oil

> <FSP3>
0.62

> <clogP>
1.53

> <TPSA>
124.12

> <Acceptor>
4

> <Donor>
0

> <RotBonds>
6

> <HAC>
24

> <Collection>
General

$$$$
F0020-1632
  -ISIS-  06222321452D

 17 19  0  0  0  0  0  0  0  0999 V2000
    0.6375    1.1208    0.0000 C   0  0  3  0  0  0  0  0  0  0  0  0
    1.0542    0.7000    0.0000 C   0  0  0  0  0  0  0  0  0  0  0  0
    0.0792    0.8833    0.0000 C   0  0  0  0  0  0  0  0  0  0  0  0
    0.6375    1.7625    0.0000 C   0  0  0  0  0  0  0  0  0  0  0  0
    0.1875    0.5708    0.0000 C   0  0  0  0  0  0  0  0  0  0  0  0
    1.7042    0.5708    0.0000 N   0  0  0  0  0  0  0  0  0  0  0  0
   -0.6125    1.1208    0.0000 C   0  0  3  0  0  0  0  0  0  0  0  0
   -0.3708    0.7500    0.0000 C   0  0  3  0  0  0  0  0  0  0  0  0
   -0.0333    1.9958    0.0000 C   0  0  3  0  0  0  0  0  0  0  0  0
    1.9542    1.7208    0.0000 C   0  0  0  0  0  0  0  0  0  0  0  0
    0.6375    0.1833    0.0000 O   0  0  0  0  0  0  0  0  0  0  0  0
    1.3042    1.8958    0.0000 O   0  0  0  0  0  0  0  0  0  0  0  0
   -0.3958    1.5708    0.0000 C   0  0  0  0  0  0  0  0  0  0  0  0
   -1.0833    0.5708    0.0000 C   0  0  0  0  0  0  0  0  0  0  0  0
   -0.6125    1.7458    0.0000 C   0  0  0  0  0  0  0  0  0  0  0  0
    2.1542    1.0958    0.0000 C   0  0  0  0  0  0  0  0  0  0  0  0
    2.3792    2.2333    0.0000 O   0  0  0  0  0  0  0  0  0  0  0  0
  2  1  1  0  0  0  0
  3  1  1  0  0  0  0
  4  1  1  0  0  0  0
  5  1  1  0  0  0  0
  6  2  1  0  0  0  0
  7  3  1  0  0  0  0
  8  5  1  0  0  0  0
  9  4  1  0  0  0  0
 10 16  1  0  0  0  0
 11  2  2  0  0  0  0
 12 10  2  0  0  0  0
 13  8  1  0  0  0  0
 14  8  1  0  0  0  0
 15  9  1  0  0  0  0
 16  6  1  0  0  0  0
 17 10  1  0  0  0  0
 14  7  1  0  0  0  0
 13  9  1  0  0  0  0
 15  7  1  0  0  0  0
M  END
> <IDNUMBER>
F0020-1632

> <Chemical_Name>
2-[(adamantan-1-yl)formamido]acetic acid

> <CAS>
21241-41-8

> <PriceCoeff>
1.50

> <MW>
237.29

> <Description>
solid

> <FSP3>
0.85

> <clogP>
1.75

> <TPSA>
66.40

> <Acceptor>
3

> <Donor>
1

> <RotBonds>
3

> <HAC>
17

> <Collection>
Advanced

> <Reference_compound>
CHEMBL456396

> <Similarity>
0.8090

$$$$
F0440-0383
  -ISIS-  06222321142D

 24 26  0  0  0  0  0  0  0  0999 V2000
   -2.0458   -0.6500    0.0000 C   0  0  0  0  0  0  0  0  0  0  0  0
   -2.3000   -1.0667    0.0000 C   0  0  0  0  0  0  0  0  0  0  0  0
   -1.1333    0.4000    0.0000 N   0  0  3  0  0  0  0  0  0  0  0  0
   -1.9833   -1.4292    0.0000 C   0  0  0  0  0  0  0  0  0  0  0  0
   -1.5625   -1.2292    0.0000 C   0  0  0  0  0  0  0  0  0  0  0  0
   -1.6000   -0.7667    0.0000 S   0  0  0  0  0  0  0  0  0  0  0  0
   -2.2000   -0.2000    0.0000 N   0  0  0  0  0  0  0  0  0  0  0  0
   -1.2125    0.8833    0.0000 C   0  0  0  0  0  0  0  0  0  0  0  0
   -0.6708    0.3458    0.0000 C   0  0  0  0  0  0  0  0  0  0  0  0
   -2.7833   -1.1000    0.0000 C   0  0  0  0  0  0  0  0  0  0  0  0
   -1.9083    0.1625    0.0000 C   0  0  0  0  0  0  0  0  0  0  0  0
   -1.4458    0.0625    0.0000 C   0  0  0  0  0  0  0  0  0  0  0  0
   -2.0458   -1.9000    0.0000 C   0  0  0  0  0  0  0  0  0  0  0  0
   -1.1833   -1.5292    0.0000 C   0  0  0  0  0  0  0  0  0  0  0  0
   -0.8000    1.0833    0.0000 C   0  0  0  0  0  0  0  0  0  0  0  0
   -0.4708    0.7500    0.0000 C   0  0  0  0  0  0  0  0  0  0  0  0
   -1.6708    1.0833    0.0000 O   0  0  0  0  0  0  0  0  0  0  0  0
   -0.4625   -0.0875    0.0000 O   0  0  0  0  0  0  0  0  0  0  0  0
   -3.0000   -1.5042    0.0000 O   0  0  0  0  0  0  0  0  0  0  0  0
   -2.0625    0.6000    0.0000 O   0  0  0  0  0  0  0  0  0  0  0  0
   -3.0458   -0.7000    0.0000 N   0  0  0  0  0  0  0  0  0  0  0  0
   -1.6625   -2.2000    0.0000 C   0  0  0  0  0  0  0  0  0  0  0  0
   -1.2458   -2.0000    0.0000 C   0  0  3  0  0  0  0  0  0  0  0  0
   -0.8208   -2.2667    0.0000 C   0  0  0  0  0  0  0  0  0  0  0  0
  2  1  2  0  0  0  0
  3 12  1  0  0  0  0
  4  2  1  0  0  0  0
  5  6  1  0  0  0  0
  6  1  1  0  0  0  0
  7  1  1  0  0  0  0
  8  3  1  0  0  0  0
  9  3  1  0  0  0  0
 10  2  1  0  0  0  0
 11  7  1  0  0  0  0
 12 11  1  0  0  0  0
 13  4  1  0  0  0  0
 14  5  1  0  0  0  0
 15  8  1  0  0  0  0
 16  9  1  0  0  0  0
 17  8  2  0  0  0  0
 18  9  2  0  0  0  0
 19 10  2  0  0  0  0
 20 11  2  0  0  0  0
 21 10  1  0  0  0  0
 22 13  1  0  0  0  0
 23 14  1  0  0  0  0
 24 23  1  0  0  0  0
  5  4  2  0  0  0  0
 23 22  1  0  0  0  0
 16 15  1  0  0  0  0
M  END
> <IDNUMBER>
F0440-0383

> <Chemical_Name>
2-[2-(2,5-dioxopyrrolidin-1-yl)acetamido]-6-methyl-4,5,6,7-tetrahydro-1-benzothiophene-3-carboxamide

> <CAS>
476308-77-7

> <PriceCoeff>
1.00

> <MW>
349.40

> <Description>
solid

> <FSP3>
0.50

> <clogP>
1.65

> <TPSA>
137.81

> <Acceptor>
4

> <Donor>
2

> <RotBonds>
4

> <HAC>
24

> <Collection>
General

$$$$
F6617-3967
  -ISIS-  06222321442D

 19 21  0  0  0  0  0  0  0  0999 V2000
    4.6750   -2.6667    0.0000 N   0  0  0  0  0  0  0  0  0  0  0  0
    4.9292   -1.8750    0.0000 C   0  0  0  0  0  0  0  0  0  0  0  0
    4.2667   -1.3875    0.0000 N   0  0  0  0  0  0  0  0  0  0  0  0
    3.8417   -2.6667    0.0000 C   0  0  0  0  0  0  0  0  0  0  0  0
    3.5917   -1.8750    0.0000 O   0  0  0  0  0  0  0  0  0  0  0  0
    5.7167   -1.6167    0.0000 C   0  0  0  0  0  0  0  0  0  0  0  0
    6.6750   -0.5542    0.0000 C   0  0  0  0  0  0  0  0  0  0  0  0
    5.8917   -0.8125    0.0000 C   0  0  0  0  0  0  0  0  0  0  0  0
    7.2917   -1.1125    0.0000 C   0  0  0  0  0  0  0  0  0  0  0  0
    7.0167    0.2083    0.0000 O   0  0  0  0  0  0  0  0  0  0  0  0
    2.0417   -3.9167    0.0000 C   0  0  0  0  0  0  0  0  0  0  0  0
    8.0125   -0.7000    0.0000 O   0  0  0  0  0  0  0  0  0  0  0  0
    7.8417    0.1208    0.0000 C   0  0  0  0  0  0  0  0  0  0  0  0
    6.3375   -2.1750    0.0000 C   0  0  0  0  0  0  0  0  0  0  0  0
    2.3792   -4.6667    0.0000 O   0  0  0  0  0  0  0  0  0  0  0  0
    7.1250   -1.9250    0.0000 C   0  0  0  0  0  0  0  0  0  0  0  0
    3.3542   -3.3375    0.0000 C   0  0  0  0  0  0  0  0  0  0  0  0
    2.5292   -3.2500    0.0000 C   0  0  0  0  0  0  0  0  0  0  0  0
    1.2292   -3.8292    0.0000 O   0  0  0  0  0  0  0  0  0  0  0  0
  2  1  1  0  0  0  0
  3  2  2  0  0  0  0
  4  1  2  0  0  0  0
  5  4  1  0  0  0  0
  6  2  1  0  0  0  0
  7  8  2  0  0  0  0
  8  6  1  0  0  0  0
  9 16  2  0  0  0  0
 10  7  1  0  0  0  0
 11 18  1  0  0  0  0
 12  9  1  0  0  0  0
 13 10  1  0  0  0  0
 14  6  2  0  0  0  0
 15 11  2  0  0  0  0
 16 14  1  0  0  0  0
 17  4  1  0  0  0  0
 18 17  1  0  0  0  0
 19 11  1  0  0  0  0
  5  3  1  0  0  0  0
  9  7  1  0  0  0  0
 13 12  1  0  0  0  0
M  END
> <IDNUMBER>
F6617-3967

> <Chemical_Name>
3-[3-(2H-1,3-benzodioxol-5-yl)-1,2,4-oxadiazol-5-yl]propanoic acid

> <CAS>
500025-22-9

> <PriceCoeff>
1.00

> <MW>
262.22

> <Description>
solid

> <FSP3>
0.25

> <clogP>
1.18

> <TPSA>
94.68

> <Acceptor>
7

> <Donor>
0

> <RotBonds>
4

> <HAC>
19

> <Collection>
General

> <Reference_compound>
CHEMBL4764062

> <Similarity>
0.8720

$$$$
F8890-6347
  -ISIS-  06222321472D

 17 18  0  0  0  0  0  0  0  0999 V2000
    3.9875   -2.0875    0.0000 C   0  0  0  0  0  0  0  0  0  0  0  0
    3.2667   -1.6792    0.0000 C   0  0  0  0  0  0  0  0  0  0  0  0
    2.5625   -2.0917    0.0000 C   0  0  0  0  0  0  0  0  0  0  0  0
    4.7000   -1.6750    0.0000 C   0  0  0  0  0  0  0  0  0  0  0  0
    6.8417   -2.0792    0.0000 C   0  0  0  0  0  0  0  0  0  0  0  0
    2.5542   -2.9167    0.0000 C   0  0  0  0  0  0  0  0  0  0  0  0
    3.9875   -2.9167    0.0000 C   0  0  0  0  0  0  0  0  0  0  0  0
    7.5542   -1.6625    0.0000 O   0  0  0  0  0  0  0  0  0  0  0  0
    4.6917   -0.8500    0.0000 O   0  0  0  0  0  0  0  0  0  0  0  0
    3.2750   -3.3292    0.0000 C   0  0  0  0  0  0  0  0  0  0  0  0
    5.4125   -2.0792    0.0000 C   0  0  0  0  0  0  0  0  0  0  0  0
    6.1250   -1.6667    0.0000 C   0  0  0  0  0  0  0  0  0  0  0  0
    6.8500   -2.9000    0.0000 O   0  0  0  0  0  0  0  0  0  0  0  0
    1.8542   -1.6792    0.0000 C   0  0  0  0  0  0  0  0  0  0  0  0
    1.8417   -3.3292    0.0000 C   0  0  0  0  0  0  0  0  0  0  0  0
    1.1292   -2.0792    0.0000 C   0  0  0  0  0  0  0  0  0  0  0  0
    1.1292   -2.9125    0.0000 C   0  0  0  0  0  0  0  0  0  0  0  0
  2  1  2  0  0  0  0
  3  2  1  0  0  0  0
  4  1  1  0  0  0  0
  5 12  1  0  0  0  0
  6 10  1  0  0  0  0
  7  1  1  0  0  0  0
  8  5  2  0  0  0  0
  9  4  2  0  0  0  0
 10  7  2  0  0  0  0
 11  4  1  0  0  0  0
 12 11  1  0  0  0  0
 13  5  1  0  0  0  0
 14  3  1  0  0  0  0
 15  6  1  0  0  0  0
 16 14  1  0  0  0  0
 17 15  1  0  0  0  0
  6  3  2  0  0  0  0
 17 16  1  0  0  0  0
M  END
> <IDNUMBER>
F8890-6347

> <Chemical_Name>
4-oxo-4-(5,6,7,8-tetrahydronaphthalen-2-yl)butanoic acid

> <CAS>


> <PriceCoeff>
1.00

> <MW>
232.28

> <Description>
solid

> <FSP3>
0.43

> <clogP>
2.83

> <TPSA>
54.37

> <Acceptor>
3

> <Donor>
0

> <RotBonds>
4

> <HAC>
17

> <Collection>
General

> <Reference_compound>
CHEMBL461681

> <Similarity>
0.8220

$$$$
F5796-1601
  -ISIS-  06222321462D

 25 26  0  0  0  0  0  0  0  0999 V2000
    1.3792   -3.8792    0.0000 C   0  0  0  0  0  0  0  0  0  0  0  0
    1.1542   -4.6292    0.0000 S   0  0  3  0  0  0  0  0  0  0  0  0
    2.1042   -3.6292    0.0000 C   0  0  0  0  0  0  0  0  0  0  0  0
    0.9042   -3.2542    0.0000 C   0  0  0  0  0  0  0  0  0  0  0  0
    3.3792   -4.3833    0.0000 C   0  0  0  0  0  0  0  0  0  0  0  0
    2.1042   -2.8500    0.0000 C   0  0  0  0  0  0  0  0  0  0  0  0
    1.3542   -2.6167    0.0000 O   0  0  0  0  0  0  0  0  0  0  0  0
    4.1125   -3.9875    0.0000 N   0  0  0  0  0  0  0  0  0  0  0  0
    4.8500   -2.7625    0.0000 C   0  0  0  0  0  0  0  0  0  0  0  0
    0.9417   -5.3917    0.0000 N   0  0  3  0  0  0  0  0  0  0  0  0
    4.1292   -3.1542    0.0000 C   0  0  0  0  0  0  0  0  0  0  0  0
    6.2542   -3.6375    0.0000 N   0  0  0  0  0  0  0  0  0  0  0  0
    5.5500   -3.2000    0.0000 C   0  0  0  0  0  0  0  0  0  0  0  0
    1.9125   -4.8542    0.0000 O   0  0  0  0  0  0  0  0  0  0  0  0
    0.4000   -4.4167    0.0000 O   0  0  0  0  0  0  0  0  0  0  0  0
    3.3542   -5.2375    0.0000 O   0  0  0  0  0  0  0  0  0  0  0  0
    4.8667   -1.9292    0.0000 C   0  0  0  0  0  0  0  0  0  0  0  0
    3.4167   -2.7292    0.0000 C   0  0  0  0  0  0  0  0  0  0  0  0
    4.1542   -1.5042    0.0000 C   0  0  0  0  0  0  0  0  0  0  0  0
    0.1167   -3.2625    0.0000 C   0  0  0  0  0  0  0  0  0  0  0  0
    2.4292   -2.2417    0.0000 C   0  0  0  0  0  0  0  0  0  0  0  0
    3.4417   -1.9042    0.0000 C   0  0  0  0  0  0  0  0  0  0  0  0
    4.1667   -0.6750    0.0000 Cl  0  0  0  0  0  0  0  0  0  0  0  0
    0.1750   -5.5875    0.0000 C   0  0  0  0  0  0  0  0  0  0  0  0
    1.4792   -5.9542    0.0000 C   0  0  0  0  0  0  0  0  0  0  0  0
  2  1  1  0  0  0  0
  3  1  1  0  0  0  0
  4  1  2  0  0  0  0
  5  3  1  0  0  0  0
  6  3  2  0  0  0  0
  7  4  1  0  0  0  0
  8  5  1  0  0  0  0
  9 11  1  0  0  0  0
 10  2  1  0  0  0  0
 11  8  1  0  0  0  0
 12 13  3  0  0  0  0
 13  9  1  0  0  0  0
 14  2  2  0  0  0  0
 15  2  2  0  0  0  0
 16  5  2  0  0  0  0
 17  9  2  0  0  0  0
 18 11  2  0  0  0  0
 19 22  2  0  0  0  0
 20  4  1  0  0  0  0
 21  6  1  0  0  0  0
 22 18  1  0  0  0  0
 23 19  1  0  0  0  0
 24 10  1  0  0  0  0
 25 10  1  0  0  0  0
  6  7  1  0  0  0  0
 17 19  1  0  0  0  0
M  END
> <IDNUMBER>
F5796-1601

> <Chemical_Name>
N-(4-chloro-2-cyanophenyl)-4-(dimethylsulfamoyl)-2,5-dimethylfuran-3-carboxamide

> <CAS>
1207016-76-9

> <PriceCoeff>
1.00

> <MW>
381.83

> <Description>
solid

> <FSP3>
0.25

> <clogP>
1.88

> <TPSA>
111.79

> <Acceptor>
5

> <Donor>
1

> <RotBonds>
4

> <HAC>
25

> <Collection>
General

$$$$
F2167-7968
  -ISIS-  06222321442D

 10 10  0  0  0  0  0  0  0  0999 V2000
    8.7375   -5.0792    0.0000 C   0  0  3  0  0  0  0  0  0  0  0  0
    8.5917   -4.2667    0.0000 C   0  0  0  0  0  0  0  0  0  0  0  0
    9.1625   -3.6667    0.0000 O   0  0  0  0  0  0  0  0  0  0  0  0
    8.0042   -5.4625    0.0000 C   0  0  0  0  0  0  0  0  0  0  0  0
    7.7792   -4.1500    0.0000 C   0  0  0  0  0  0  0  0  0  0  0  0
    9.5292   -4.8250    0.0000 C   0  0  0  0  0  0  0  0  0  0  0  0
    8.9917   -5.8667    0.0000 C   0  0  0  0  0  0  0  0  0  0  0  0
    7.4167   -4.8792    0.0000 C   0  0  0  0  0  0  0  0  0  0  0  0
    9.8000   -6.0500    0.0000 C   0  0  0  0  0  0  0  0  0  0  0  0
    9.7042   -4.0167    0.0000 C   0  0  0  0  0  0  0  0  0  0  0  0
  2  1  1  0  0  0  0
  3  2  2  0  0  0  0
  4  1  1  0  0  0  0
  5  2  1  0  0  0  0
  6  1  1  0  0  0  0
  7  1  1  0  0  0  0
  8  4  1  0  0  0  0
  9  7  1  0  0  0  0
 10  6  1  0  0  0  0
  5  8  1  0  0  0  0
M  END
> <IDNUMBER>
F2167-7968

> <Chemical_Name>
2,2-diethylcyclopentan-1-one

> <CAS>
103263-31-6

> <PriceCoeff>
1.00

> <MW>
140.23

> <Description>
liquid

> <FSP3>
0.89

> <clogP>
2.40

> <TPSA>
17.07

> <Acceptor>
1

> <Donor>
0

> <RotBonds>
2

> <HAC>
10

> <Collection>
General

> <Reference_compound>
CHEMBL2288243

> <Similarity>
0.8670

$$$$
F2173-0972
  -ISIS-  06222321462D

 23 25  0  0  0  0  0  0  0  0999 V2000
    3.2167   -1.2667    0.0000 C   0  0  0  0  0  0  0  0  0  0  0  0
    1.3167   -1.2667    0.0000 C   0  0  0  0  0  0  0  0  0  0  0  0
    2.2667   -1.8042    0.0000 C   0  0  0  0  0  0  0  0  0  0  0  0
    1.3167   -0.1875    0.0000 C   0  0  0  0  0  0  0  0  0  0  0  0
    3.2167   -0.1875    0.0000 C   0  0  0  0  0  0  0  0  0  0  0  0
    2.2667    0.3500    0.0000 N   0  0  3  0  0  0  0  0  0  0  0  0
    0.3667    0.3500    0.0000 C   0  0  0  0  0  0  0  0  0  0  0  0
   -0.5833   -0.1875    0.0000 C   0  0  0  0  0  0  0  0  0  0  0  0
    0.3667   -1.8042    0.0000 C   0  0  0  0  0  0  0  0  0  0  0  0
    4.1542   -1.7917    0.0000 C   0  0  0  0  0  0  0  0  0  0  0  0
   -0.5833   -1.2667    0.0000 C   0  0  0  0  0  0  0  0  0  0  0  0
   -1.5125    0.3375    0.0000 N   0  0  3  0  0  0  0  0  0  0  0  0
    2.2667   -2.8667    0.0000 O   0  0  0  0  0  0  0  0  0  0  0  0
   -3.4000    1.4208    0.0000 N   0  0  0  0  0  0  0  0  0  0  0  0
    5.0542   -1.2500    0.0000 O   0  0  0  0  0  0  0  0  0  0  0  0
   -1.5125   -1.7917    0.0000 F   0  0  0  0  0  0  0  0  0  0  0  0
    4.1542   -2.8417    0.0000 O   0  0  0  0  0  0  0  0  0  0  0  0
    2.2667    1.4333    0.0000 C   0  0  0  0  0  0  0  0  0  0  0  0
   -2.4708   -0.2167    0.0000 C   0  0  0  0  0  0  0  0  0  0  0  0
   -1.5125    1.4333    0.0000 C   0  0  0  0  0  0  0  0  0  0  0  0
   -3.4000    0.3375    0.0000 C   0  0  0  0  0  0  0  0  0  0  0  0
   -2.4833    1.9750    0.0000 C   0  0  0  0  0  0  0  0  0  0  0  0
    3.1667    1.9750    0.0000 C   0  0  0  0  0  0  0  0  0  0  0  0
  2  3  1  0  0  0  0
  3  1  1  0  0  0  0
  4  6  1  0  0  0  0
  5  1  2  0  0  0  0
  6  5  1  0  0  0  0
  7  4  2  0  0  0  0
  8  7  1  0  0  0  0
  9  2  2  0  0  0  0
 10  1  1  0  0  0  0
 11  9  1  0  0  0  0
 12  8  1  0  0  0  0
 13  3  2  0  0  0  0
 14 22  1  0  0  0  0
 15 10  2  0  0  0  0
 16 11  1  0  0  0  0
 17 10  1  0  0  0  0
 18  6  1  0  0  0  0
 19 12  1  0  0  0  0
 20 12  1  0  0  0  0
 21 19  1  0  0  0  0
 22 20  1  0  0  0  0
 23 18  1  0  0  0  0
  2  4  1  0  0  0  0
 11  8  2  0  0  0  0
 14 21  1  0  0  0  0
M  END
> <IDNUMBER>
F2173-0972

> <Chemical_Name>
1-ethyl-6-fluoro-4-oxo-7-(piperazin-1-yl)-1,4-dihydroquinoline-3-carboxylic acid

> <CAS>
70458-96-7

> <PriceCoeff>
1.00

> <MW>
319.33

> <Description>
solid

> <FSP3>
0.38

> <clogP>
-0.78

> <TPSA>
72.88

> <Acceptor>
5

> <Donor>
3

> <RotBonds>
3

> <HAC>
23

> <Collection>
General

> <Reference_compound>
CHEMBL8

> <Similarity>
0.9270

$$$$
F6374-5504
  -ISIS-  06222321462D

 24 26  0  0  0  0  0  0  0  0999 V2000
    3.4750   -8.0542    0.0000 N   0  0  3  0  0  0  0  0  0  0  0  0
    4.9042   -8.0500    0.0000 C   0  0  0  0  0  0  0  0  0  0  0  0
    4.1792   -7.6417    0.0000 C   0  0  0  0  0  0  0  0  0  0  0  0
    2.6917   -7.8042    0.0000 C   0  0  0  0  0  0  0  0  0  0  0  0
    3.4792   -8.8792    0.0000 C   0  0  0  0  0  0  0  0  0  0  0  0
    5.6292   -7.6250    0.0000 N   0  0  3  0  0  0  0  0  0  0  0  0
    9.9292   -6.7792    0.0000 C   0  0  0  0  0  0  0  0  0  0  0  0
   10.7167   -6.5250    0.0000 O   0  0  0  0  0  0  0  0  0  0  0  0
    4.9167   -8.8792    0.0000 O   0  0  0  0  0  0  0  0  0  0  0  0
    2.6917   -9.1375    0.0000 C   0  0  0  0  0  0  0  0  0  0  0  0
    2.2042   -8.4750    0.0000 C   0  0  0  0  0  0  0  0  0  0  0  0
    4.1500   -9.3750    0.0000 O   0  0  0  0  0  0  0  0  0  0  0  0
    2.4375   -7.0167    0.0000 O   0  0  0  0  0  0  0  0  0  0  0  0
    5.6292   -6.7917    0.0000 C   0  0  0  0  0  0  0  0  0  0  0  0
    6.3417   -8.0375    0.0000 C   0  0  0  0  0  0  0  0  0  0  0  0
    9.9417   -7.6042    0.0000 C   0  0  0  0  0  0  0  0  0  0  0  0
   11.2000   -7.1917    0.0000 C   0  0  0  0  0  0  0  0  0  0  0  0
   10.7250   -7.8625    0.0000 C   0  0  0  0  0  0  0  0  0  0  0  0
    8.5000   -6.7875    0.0000 S   0  0  0  0  0  0  0  0  0  0  0  0
    7.0542   -7.6250    0.0000 C   0  0  0  0  0  0  0  0  0  0  0  0
    6.3417   -6.3792    0.0000 C   0  0  0  0  0  0  0  0  0  0  0  0
    9.2125   -6.3667    0.0000 C   0  0  0  0  0  0  0  0  0  0  0  0
    7.0542   -6.7917    0.0000 C   0  0  3  0  0  0  0  0  0  0  0  0
    7.7792   -6.3750    0.0000 C   0  0  0  0  0  0  0  0  0  0  0  0
  2  3  1  0  0  0  0
  3  1  1  0  0  0  0
  4  1  1  0  0  0  0
  5  1  1  0  0  0  0
  6  2  1  0  0  0  0
  7 22  1  0  0  0  0
  8  7  1  0  0  0  0
  9  2  2  0  0  0  0
 10  5  1  0  0  0  0
 11  4  1  0  0  0  0
 12  5  2  0  0  0  0
 13  4  2  0  0  0  0
 14  6  1  0  0  0  0
 15  6  1  0  0  0  0
 16  7  2  0  0  0  0
 17  8  1  0  0  0  0
 18 16  1  0  0  0  0
 19 24  1  0  0  0  0
 20 15  1  0  0  0  0
 21 14  1  0  0  0  0
 22 19  1  0  0  0  0
 23 20  1  0  0  0  0
 24 23  1  0  0  0  0
 10 11  1  0  0  0  0
 21 23  1  0  0  0  0
 17 18  2  0  0  0  0
M  END
> <IDNUMBER>
F6374-5504

> <Chemical_Name>
1-{2-[4-({[(furan-2-yl)methyl]sulfanyl}methyl)piperidin-1-yl]-2-oxoethyl}pyrrolidine-2,5-dione

> <CAS>
1396771-60-0

> <PriceCoeff>
1.50

> <MW>
350.43

> <Description>
oil

> <FSP3>
0.59

> <clogP>
1.46

> <TPSA>
96.13

> <Acceptor>
4

> <Donor>
0

> <RotBonds>
7

> <HAC>
24

> <Collection>
Advanced

$$$$
F6277-0404
  -ISIS-  06222321152D

 32 35  0  0  0  0  0  0  0  0999 V2000
   12.7125   -5.2042    0.0000 C   0  0  0  0  0  0  0  0  0  0  0  0
    9.4167   -5.1417    0.0000 S   0  0  3  0  0  0  0  0  0  0  0  0
   13.2042   -4.5417    0.0000 N   0  0  0  0  0  0  0  0  0  0  0  0
    7.3375   -5.8167    0.0000 N   0  0  3  0  0  0  0  0  0  0  0  0
   13.9875   -4.8042    0.0000 C   0  0  0  0  0  0  0  0  0  0  0  0
   14.7042   -4.4042    0.0000 C   0  0  0  0  0  0  0  0  0  0  0  0
   13.1875   -5.8750    0.0000 S   0  0  0  0  0  0  0  0  0  0  0  0
   10.2417   -5.1625    0.0000 N   0  0  3  0  0  0  0  0  0  0  0  0
   14.7167   -3.5875    0.0000 C   0  0  3  0  0  0  0  0  0  0  0  0
   11.8917   -5.1917    0.0000 N   0  0  3  0  0  0  0  0  0  0  0  0
    8.5917   -5.1292    0.0000 C   0  0  0  0  0  0  0  0  0  0  0  0
   13.9750   -5.6292    0.0000 C   0  0  0  0  0  0  0  0  0  0  0  0
    6.9375   -5.1000    0.0000 C   0  0  0  0  0  0  0  0  0  0  0  0
    6.9042   -6.5167    0.0000 C   0  0  0  0  0  0  0  0  0  0  0  0
    8.1667   -5.8375    0.0000 C   0  0  0  0  0  0  0  0  0  0  0  0
   10.6667   -4.4542    0.0000 C   0  0  0  0  0  0  0  0  0  0  0  0
   10.6417   -5.8792    0.0000 C   0  0  0  0  0  0  0  0  0  0  0  0
    9.4375   -4.3167    0.0000 O   0  0  0  0  0  0  0  0  0  0  0  0
    9.4042   -5.9667    0.0000 O   0  0  0  0  0  0  0  0  0  0  0  0
   11.4875   -4.4750    0.0000 C   0  0  0  0  0  0  0  0  0  0  0  0
   11.4667   -5.9000    0.0000 C   0  0  0  0  0  0  0  0  0  0  0  0
    7.3625   -4.3792    0.0000 O   0  0  0  0  0  0  0  0  0  0  0  0
    7.3042   -7.2417    0.0000 O   0  0  0  0  0  0  0  0  0  0  0  0
   14.0542   -3.0375    0.0000 F   0  0  0  0  0  0  0  0  0  0  0  0
   14.7250   -2.8375    0.0000 F   0  0  0  0  0  0  0  0  0  0  0  0
   15.3875   -3.0500    0.0000 F   0  0  0  0  0  0  0  0  0  0  0  0
   15.4042   -4.8250    0.0000 C   0  0  0  0  0  0  0  0  0  0  0  0
    6.0792   -6.5042    0.0000 C   0  0  0  0  0  0  0  0  0  0  0  0
    6.1167   -5.0792    0.0000 C   0  0  0  0  0  0  0  0  0  0  0  0
   14.6792   -6.0542    0.0000 C   0  0  0  0  0  0  0  0  0  0  0  0
   15.4000   -5.6542    0.0000 C   0  0  0  0  0  0  0  0  0  0  0  0
    5.6875   -5.7792    0.0000 C   0  0  0  0  0  0  0  0  0  0  0  0
  2  8  1  0  0  0  0
  3  1  2  0  0  0  0
  4 15  1  0  0  0  0
  5  3  1  0  0  0  0
  6  5  1  0  0  0  0
  7  1  1  0  0  0  0
  8 17  1  0  0  0  0
  9  6  1  0  0  0  0
 10  1  1  0  0  0  0
 11  2  1  0  0  0  0
 12  7  1  0  0  0  0
 13  4  1  0  0  0  0
 14  4  1  0  0  0  0
 15 11  1  0  0  0  0
 16 20  1  0  0  0  0
 17 21  1  0  0  0  0
 18  2  2  0  0  0  0
 19  2  2  0  0  0  0
 20 10  1  0  0  0  0
 21 10  1  0  0  0  0
 22 13  2  0  0  0  0
 23 14  2  0  0  0  0
 24  9  1  0  0  0  0
 25  9  1  0  0  0  0
 26  9  1  0  0  0  0
 27  6  2  0  0  0  0
 28 14  1  0  0  0  0
 29 13  1  0  0  0  0
 30 12  1  0  0  0  0
 31 30  2  0  0  0  0
 32 28  1  0  0  0  0
 12  5  2  0  0  0  0
  8 16  1  0  0  0  0
 27 31  1  0  0  0  0
 29 32  1  0  0  0  0
M  END
> <IDNUMBER>
F6277-0404

> <Chemical_Name>
1-[2-({4-[4-(trifluoromethyl)-1,3-benzothiazol-2-yl]piperazin-1-yl}sulfonyl)ethyl]piperidine-2,6-dione

> <CAS>
1396862-17-1

> <PriceCoeff>
1.00

> <MW>
490.52

> <Description>
solid

> <FSP3>
0.53

> <clogP>
3.58

> <TPSA>
127.51

> <Acceptor>
5

> <Donor>
1

> <RotBonds>
5

> <HAC>
32

> <Collection>
General

$$$$
F2184-0204
  -ISIS-  06222321142D

 16 16  0  0  0  0  0  0  0  0999 V2000
    1.4917   -2.7667    0.0000 C   0  0  0  0  0  0  0  0  0  0  0  0
    2.2042   -2.3542    0.0000 N   0  0  3  0  0  0  0  0  0  0  0  0
    0.7792   -2.3542    0.0000 O   0  0  0  0  0  0  0  0  0  0  0  0
    1.4917   -3.5917    0.0000 O   0  0  0  0  0  0  0  0  0  0  0  0
    2.2042   -1.5292    0.0000 C   0  0  3  0  0  0  0  0  0  0  0  0
    0.0625   -2.7667    0.0000 C   0  0  3  0  0  0  0  0  0  0  0  0
    2.9167   -2.7667    0.0000 C   0  0  0  0  0  0  0  0  0  0  0  0
    1.4917   -1.1167    0.0000 C   0  0  0  0  0  0  0  0  0  0  0  0
    0.7667    0.1125    0.0000 O   0  0  0  0  0  0  0  0  0  0  0  0
    1.4875   -0.2917    0.0000 C   0  0  0  0  0  0  0  0  0  0  0  0
   -0.6500   -2.3625    0.0000 C   0  0  0  0  0  0  0  0  0  0  0  0
    0.0667   -3.5917    0.0000 C   0  0  0  0  0  0  0  0  0  0  0  0
   -0.1500   -1.9750    0.0000 C   0  0  0  0  0  0  0  0  0  0  0  0
    2.9167   -1.1167    0.0000 C   0  0  0  0  0  0  0  0  0  0  0  0
    3.6292   -2.3542    0.0000 C   0  0  0  0  0  0  0  0  0  0  0  0
    3.6292   -1.5292    0.0000 C   0  0  0  0  0  0  0  0  0  0  0  0
  2  1  1  0  0  0  0
  3  1  1  0  0  0  0
  4  1  2  0  0  0  0
  5  2  1  0  0  0  0
  6  3  1  0  0  0  0
  7  2  1  0  0  0  0
  8  5  1  0  0  0  0
  9 10  1  0  0  0  0
 10  8  1  0  0  0  0
 11  6  1  0  0  0  0
 12  6  1  0  0  0  0
 13  6  1  0  0  0  0
 14  5  1  0  0  0  0
 15  7  1  0  0  0  0
 16 15  1  0  0  0  0
 14 16  1  0  0  0  0
M  END
> <IDNUMBER>
F2184-0204

> <Chemical_Name>
tert-butyl 2-(2-hydroxyethyl)piperidine-1-carboxylate

> <CAS>
118811-03-3

> <PriceCoeff>
1.00

> <MW>
229.32

> <Description>
liquid

> <FSP3>
0.92

> <clogP>
2.47

> <TPSA>
49.77

> <Acceptor>
3

> <Donor>
1

> <RotBonds>
4

> <HAC>
16

> <Collection>
General

> <Reference_compound>
PRI4988

> <Similarity>
0.9200

$$$$
F1907-0661
  -ISIS-  06222321442D

 15 17  0  0  0  0  0  0  0  0999 V2000
    7.2917   -7.7417    0.0000 C   0  0  0  0  0  0  0  0  0  0  0  0
    6.5708   -7.3208    0.0000 C   0  0  0  0  0  0  0  0  0  0  0  0
    7.2875   -8.5792    0.0000 C   0  0  0  0  0  0  0  0  0  0  0  0
    6.5667   -8.9875    0.0000 N   0  0  0  0  0  0  0  0  0  0  0  0
    5.8542   -7.7417    0.0000 C   0  0  0  0  0  0  0  0  0  0  0  0
    5.8500   -8.5750    0.0000 C   0  0  0  0  0  0  0  0  0  0  0  0
    6.5708   -6.4958    0.0000 O   0  0  0  0  0  0  0  0  0  0  0  0
    8.7375   -7.7458    0.0000 N   0  0  0  0  0  0  0  0  0  0  0  0
    8.0125   -7.3250    0.0000 C   0  0  0  0  0  0  0  0  0  0  0  0
    8.0083   -8.9958    0.0000 C   0  0  0  0  0  0  0  0  0  0  0  0
    5.1375   -7.3292    0.0000 C   0  0  0  0  0  0  0  0  0  0  0  0
    8.7333   -8.5833    0.0000 C   0  0  0  0  0  0  0  0  0  0  0  0
    5.1375   -8.9833    0.0000 C   0  0  0  0  0  0  0  0  0  0  0  0
    4.4250   -7.7417    0.0000 C   0  0  0  0  0  0  0  0  0  0  0  0
    4.4250   -8.5708    0.0000 C   0  0  0  0  0  0  0  0  0  0  0  0
  2  1  1  0  0  0  0
  3  1  2  0  0  0  0
  4  3  1  0  0  0  0
  5  2  1  0  0  0  0
  6  4  1  0  0  0  0
  7  2  2  0  0  0  0
  8  9  1  0  0  0  0
  9  1  1  0  0  0  0
 10  3  1  0  0  0  0
 11  5  2  0  0  0  0
 12  8  1  0  0  0  0
 13  6  2  0  0  0  0
 14 11  1  0  0  0  0
 15 13  1  0  0  0  0
 12 10  1  0  0  0  0
  6  5  1  0  0  0  0
 15 14  2  0  0  0  0
M  END
> <IDNUMBER>
F1907-0661

> <Chemical_Name>
1H,2H,3H,4H,5H,10H-benzo[b]1,6-naphthyridin-10-one

> <CAS>
108651-01-0

> <PriceCoeff>
1.00

> <MW>
200.24

> <Description>
solid

> <FSP3>
0.25

> <clogP>
-0.27

> <TPSA>
41.13

> <Acceptor>
2

> <Donor>
2

> <RotBonds>
0

> <HAC>
15

> <Collection>
General

> <Reference_compound>
CHEMBL1911517

> <Similarity>
0.8040

$$$$
F6477-5329
  -ISIS-  06222304352D

 24 26  0  0  0  0  0  0  0  0999 V2000
    1.9667   -1.7667    0.0000 N   0  0  3  0  0  0  0  0  0  0  0  0
    5.2792   -1.4125    0.0000 C   0  0  0  0  0  0  0  0  0  0  0  0
    4.4667   -0.8292    0.0000 N   0  0  0  0  0  0  0  0  0  0  0  0
    3.6625   -1.4125    0.0000 C   0  0  0  0  0  0  0  0  0  0  0  0
    0.9792   -1.5542    0.0000 C   0  0  0  0  0  0  0  0  0  0  0  0
    2.0625   -2.7625    0.0000 C   0  0  0  0  0  0  0  0  0  0  0  0
    4.9667   -2.3750    0.0000 S   0  0  0  0  0  0  0  0  0  0  0  0
    2.7125   -1.1000    0.0000 C   0  0  0  0  0  0  0  0  0  0  0  0
    3.9667   -2.3750    0.0000 C   0  0  0  0  0  0  0  0  0  0  0  0
    5.8875    1.5208    0.0000 C   0  0  0  0  0  0  0  0  0  0  0  0
    6.2292   -1.1000    0.0000 N   0  0  0  0  0  0  0  0  0  0  0  0
    5.6875    0.5458    0.0000 C   0  0  0  0  0  0  0  0  0  0  0  0
    6.8417    1.8375    0.0000 C   0  0  0  0  0  0  0  0  0  0  0  0
    5.2917    2.3292    0.0000 O   0  0  0  0  0  0  0  0  0  0  0  0
    6.8292    2.8333    0.0000 O   0  0  0  0  0  0  0  0  0  0  0  0
    6.4292   -0.1167    0.0000 C   0  0  0  0  0  0  0  0  0  0  0  0
    5.8875    3.1458    0.0000 C   0  0  0  0  0  0  0  0  0  0  0  0
    1.1417   -3.1667    0.0000 C   0  0  0  0  0  0  0  0  0  0  0  0
    0.4792   -2.4167    0.0000 C   0  0  0  0  0  0  0  0  0  0  0  0
    2.9292   -3.2667    0.0000 O   0  0  0  0  0  0  0  0  0  0  0  0
    0.5750   -0.6375    0.0000 O   0  0  0  0  0  0  0  0  0  0  0  0
    7.5792    1.1750    0.0000 C   0  0  0  0  0  0  0  0  0  0  0  0
    7.3792    0.1958    0.0000 C   0  0  0  0  0  0  0  0  0  0  0  0
    8.9792   -0.1167    0.0000 Cl  0  0  0  0  0  0  0  0  0  0  0  0
  3  4  1  0  0  0  0
  4  8  1  0  0  0  0
  5  1  1  0  0  0  0
  6  1  1  0  0  0  0
  7  9  1  0  0  0  0
  8  1  1  0  0  0  0
  9  4  2  0  0  0  0
 10 12  1  0  0  0  0
 11  2  1  0  0  0  0
 12 16  2  0  0  0  0
 13 22  1  0  0  0  0
 14 10  1  0  0  0  0
 15 13  1  0  0  0  0
 16 11  1  0  0  0  0
 17 14  1  0  0  0  0
 18  6  1  0  0  0  0
 19  5  1  0  0  0  0
 20  6  2  0  0  0  0
 21  5  2  0  0  0  0
 22 23  2  0  0  0  0
 23 16  1  0  0  0  0
 18 19  1  0  0  0  0
  2  7  1  0  0  0  0
 13 10  2  0  0  0  0
 17 15  1  0  0  0  0
  2  3  2  0  0  0  0
M  END
> <IDNUMBER>
F6477-5329

> <Chemical_Name>
1-({2-[(2H-1,3-benzodioxol-5-yl)amino]-1,3-thiazol-4-yl}methyl)pyrrolidine-2,5-dione hydrochloride

> <CAS>
2034433-58-2

> <PriceCoeff>
1.00

> <MW>
331.35

> <Description>
solid

> <FSP3>
0.27

> <clogP>
1.72

> <TPSA>
109.00

> <Acceptor>
6

> <Donor>
1

> <RotBonds>
4

> <HAC>
23

> <Collection>
General

$$$$
F0806-0416
  -ISIS-  06222321142D

 24 26  0  0  0  0  0  0  0  0999 V2000
   -1.7000    0.1458    0.0000 C   0  0  0  0  0  0  0  0  0  0  0  0
   -2.4208    0.0833    0.0000 C   0  0  0  0  0  0  0  0  0  0  0  0
    0.4875    0.1625    0.0000 N   0  0  3  0  0  0  0  0  0  0  0  0
   -1.4208   -0.5375    0.0000 S   0  0  0  0  0  0  0  0  0  0  0  0
   -2.5958   -0.6667    0.0000 C   0  0  0  0  0  0  0  0  0  0  0  0
   -1.9708   -1.0375    0.0000 C   0  0  0  0  0  0  0  0  0  0  0  0
   -1.3458    0.7708    0.0000 N   0  0  0  0  0  0  0  0  0  0  0  0
    0.9167    0.7208    0.0000 C   0  0  0  0  0  0  0  0  0  0  0  0
    0.9292   -0.3875    0.0000 C   0  0  0  0  0  0  0  0  0  0  0  0
   -2.8833    0.6333    0.0000 C   0  0  0  0  0  0  0  0  0  0  0  0
   -0.6000    0.7708    0.0000 C   0  0  0  0  0  0  0  0  0  0  0  0
   -0.2333    0.1500    0.0000 C   0  0  0  0  0  0  0  0  0  0  0  0
    1.5875   -0.1792    0.0000 C   0  0  0  0  0  0  0  0  0  0  0  0
    1.6000    0.5333    0.0000 C   0  0  0  0  0  0  0  0  0  0  0  0
    0.7167   -1.1292    0.0000 O   0  0  0  0  0  0  0  0  0  0  0  0
    0.7000    1.4708    0.0000 O   0  0  0  0  0  0  0  0  0  0  0  0
   -2.6958    1.3958    0.0000 O   0  0  0  0  0  0  0  0  0  0  0  0
   -0.2458    1.4125    0.0000 O   0  0  0  0  0  0  0  0  0  0  0  0
   -3.5625    0.4708    0.0000 N   0  0  0  0  0  0  0  0  0  0  0  0
   -3.2958   -0.9167    0.0000 C   0  0  0  0  0  0  0  0  0  0  0  0
   -1.8708   -1.7542    0.0000 C   0  0  0  0  0  0  0  0  0  0  0  0
   -3.5125   -1.6167    0.0000 C   0  0  0  0  0  0  0  0  0  0  0  0
   -2.3833   -2.3000    0.0000 C   0  0  0  0  0  0  0  0  0  0  0  0
   -3.1208   -2.2167    0.0000 C   0  0  0  0  0  0  0  0  0  0  0  0
  2  1  2  0  0  0  0
  3 12  1  0  0  0  0
  4  1  1  0  0  0  0
  5  2  1  0  0  0  0
  6  4  1  0  0  0  0
  7  1  1  0  0  0  0
  8  3  1  0  0  0  0
  9  3  1  0  0  0  0
 10  2  1  0  0  0  0
 11  7  1  0  0  0  0
 12 11  1  0  0  0  0
 13  9  1  0  0  0  0
 14  8  1  0  0  0  0
 15  9  2  0  0  0  0
 16  8  2  0  0  0  0
 17 10  2  0  0  0  0
 18 11  2  0  0  0  0
 19 10  1  0  0  0  0
 20  5  1  0  0  0  0
 21  6  1  0  0  0  0
 22 20  1  0  0  0  0
 23 21  1  0  0  0  0
 24 23  1  0  0  0  0
  5  6  2  0  0  0  0
 24 22  1  0  0  0  0
 14 13  1  0  0  0  0
M  END
> <IDNUMBER>
F0806-0416

> <Chemical_Name>
2-[2-(2,5-dioxopyrrolidin-1-yl)acetamido]-4H,5H,6H,7H,8H-cyclohepta[b]thiophene-3-carboxamide

> <CAS>
477494-65-8

> <PriceCoeff>
1.00

> <MW>
349.40

> <Description>
solid

> <FSP3>
0.50

> <clogP>
1.69

> <TPSA>
137.81

> <Acceptor>
4

> <Donor>
2

> <RotBonds>
4

> <HAC>
24

> <Collection>
General

$$$$
F6477-5323
  -ISIS-  06222304352D

 24 25  0  0  0  0  0  0  0  0999 V2000
    1.9667   -1.8792    0.0000 N   0  0  3  0  0  0  0  0  0  0  0  0
    5.2792   -1.5292    0.0000 C   0  0  0  0  0  0  0  0  0  0  0  0
    4.4667   -0.9500    0.0000 N   0  0  0  0  0  0  0  0  0  0  0  0
    3.6625   -1.5292    0.0000 C   0  0  0  0  0  0  0  0  0  0  0  0
    0.9792   -1.6667    0.0000 C   0  0  0  0  0  0  0  0  0  0  0  0
    2.0625   -2.8792    0.0000 C   0  0  0  0  0  0  0  0  0  0  0  0
    4.9667   -2.4917    0.0000 S   0  0  0  0  0  0  0  0  0  0  0  0
    2.7125   -1.2167    0.0000 C   0  0  0  0  0  0  0  0  0  0  0  0
    3.9667   -2.4917    0.0000 C   0  0  0  0  0  0  0  0  0  0  0  0
    6.2292   -1.2167    0.0000 N   0  0  0  0  0  0  0  0  0  0  0  0
    6.8417    1.7208    0.0000 C   0  0  0  0  0  0  0  0  0  0  0  0
    1.1417   -3.2792    0.0000 C   0  0  0  0  0  0  0  0  0  0  0  0
    0.4792   -2.5292    0.0000 C   0  0  0  0  0  0  0  0  0  0  0  0
    2.9292   -3.3792    0.0000 O   0  0  0  0  0  0  0  0  0  0  0  0
    0.5750   -0.7542    0.0000 O   0  0  0  0  0  0  0  0  0  0  0  0
    7.0500    2.6958    0.0000 N   0  0  3  0  0  0  0  0  0  0  0  0
    5.8917    1.4125    0.0000 C   0  0  0  0  0  0  0  0  0  0  0  0
    7.5875    1.0500    0.0000 C   0  0  0  0  0  0  0  0  0  0  0  0
    6.4292   -0.2375    0.0000 C   0  0  0  0  0  0  0  0  0  0  0  0
    5.6875    0.4333    0.0000 C   0  0  0  0  0  0  0  0  0  0  0  0
    7.3875    0.0833    0.0000 C   0  0  0  0  0  0  0  0  0  0  0  0
    8.0000    3.0083    0.0000 C   0  0  0  0  0  0  0  0  0  0  0  0
    6.3042    3.3625    0.0000 C   0  0  0  0  0  0  0  0  0  0  0  0
    9.3875   -0.0667    0.0000 Cl  0  0  0  0  0  0  0  0  0  0  0  0
  3  4  1  0  0  0  0
  4  8  1  0  0  0  0
  5  1  1  0  0  0  0
  6  1  1  0  0  0  0
  7  9  1  0  0  0  0
  8  1  1  0  0  0  0
  9  4  2  0  0  0  0
 10  2  1  0  0  0  0
 11 18  2  0  0  0  0
 12  6  1  0  0  0  0
 13  5  1  0  0  0  0
 14  6  2  0  0  0  0
 15  5  2  0  0  0  0
 16 11  1  0  0  0  0
 17 20  2  0  0  0  0
 18 21  1  0  0  0  0
 19 10  1  0  0  0  0
 20 19  1  0  0  0  0
 21 19  2  0  0  0  0
 22 16  1  0  0  0  0
 23 16  1  0  0  0  0
 12 13  1  0  0  0  0
  2  7  1  0  0  0  0
 11 17  1  0  0  0  0
  2  3  2  0  0  0  0
M  END
> <IDNUMBER>
F6477-5323

> <Chemical_Name>
1-[(2-{[4-(dimethylamino)phenyl]amino}-1,3-thiazol-4-yl)methyl]pyrrolidine-2,5-dione hydrochloride

> <CAS>
2034274-28-5

> <PriceCoeff>
1.00

> <MW>
330.40

> <Description>
solid

> <FSP3>
0.31

> <clogP>
2.01

> <TPSA>
93.78

> <Acceptor>
5

> <Donor>
2

> <RotBonds>
5

> <HAC>
23

> <Collection>
General

$$$$
F0700-0135
  -ISIS-  06222321142D

 23 25  0  0  0  0  0  0  0  0999 V2000
   -2.4333    1.9625    0.0000 C   0  0  0  0  0  0  0  0  0  0  0  0
   -1.4958    1.6458    0.0000 C   0  0  0  0  0  0  0  0  0  0  0  0
    0.3500    0.4833    0.0000 N   0  0  3  0  0  0  0  0  0  0  0  0
   -2.4333    1.3458    0.0000 C   0  0  0  0  0  0  0  0  0  0  0  0
   -1.8500    1.1458    0.0000 N   0  0  0  0  0  0  0  0  0  0  0  0
   -1.8500    2.1625    0.0000 S   0  0  0  0  0  0  0  0  0  0  0  0
   -0.8500    1.6000    0.0000 N   0  0  0  0  0  0  0  0  0  0  0  0
   -2.9708    2.2833    0.0000 C   0  0  0  0  0  0  0  0  0  0  0  0
    0.9500    0.3208    0.0000 C   0  0  0  0  0  0  0  0  0  0  0  0
    0.0042   -0.0542    0.0000 C   0  0  0  0  0  0  0  0  0  0  0  0
   -0.5708    1.0625    0.0000 C   0  0  0  0  0  0  0  0  0  0  0  0
    0.0500    1.0208    0.0000 C   0  0  0  0  0  0  0  0  0  0  0  0
   -2.9708    1.0208    0.0000 C   0  0  0  0  0  0  0  0  0  0  0  0
   -3.5125    1.3458    0.0000 C   0  0  3  0  0  0  0  0  0  0  0  0
   -3.5125    1.9625    0.0000 C   0  0  0  0  0  0  0  0  0  0  0  0
   -2.9708    2.9000    0.0000 O   0  0  0  0  0  0  0  0  0  0  0  0
    0.9875   -0.3167    0.0000 C   0  0  0  0  0  0  0  0  0  0  0  0
    0.4042   -0.5375    0.0000 C   0  0  0  0  0  0  0  0  0  0  0  0
    1.4500    0.7208    0.0000 O   0  0  0  0  0  0  0  0  0  0  0  0
   -0.6333   -0.1167    0.0000 O   0  0  0  0  0  0  0  0  0  0  0  0
   -0.8958    0.5208    0.0000 O   0  0  0  0  0  0  0  0  0  0  0  0
   -4.1333    1.5000    0.0000 C   0  0  0  0  0  0  0  0  0  0  0  0
   -3.6708    0.7458    0.0000 C   0  0  0  0  0  0  0  0  0  0  0  0
  2  6  1  0  0  0  0
  3 12  1  0  0  0  0
  4  1  2  0  0  0  0
  5  4  1  0  0  0  0
  6  1  1  0  0  0  0
  7  2  1  0  0  0  0
  8  1  1  0  0  0  0
  9  3  1  0  0  0  0
 10  3  1  0  0  0  0
 11  7  1  0  0  0  0
 12 11  1  0  0  0  0
 13  4  1  0  0  0  0
 14 15  1  0  0  0  0
 15  8  1  0  0  0  0
 16  8  2  0  0  0  0
 17  9  1  0  0  0  0
 18 10  1  0  0  0  0
 19  9  2  0  0  0  0
 20 10  2  0  0  0  0
 21 11  2  0  0  0  0
 22 14  1  0  0  0  0
 23 14  1  0  0  0  0
  5  2  2  0  0  0  0
 13 14  1  0  0  0  0
 18 17  1  0  0  0  0
M  END
> <IDNUMBER>
F0700-0135

> <Chemical_Name>
N-(5,5-dimethyl-7-oxo-4,5,6,7-tetrahydro-1,3-benzothiazol-2-yl)-2-(2,5-dioxopyrrolidin-1-yl)acetamide

> <CAS>
393837-51-9

> <PriceCoeff>
1.00

> <MW>
335.38

> <Description>
solid

> <FSP3>
0.53

> <clogP>
1.26

> <TPSA>
124.68

> <Acceptor>
5

> <Donor>
1

> <RotBonds>
3

> <HAC>
23

> <Collection>
General

$$$$
F6401-0078
  -ISIS-  06222321152D

 25 28  0  0  0  0  0  0  0  0999 V2000
    4.3167    0.6500    0.0000 N   0  0  3  0  0  0  0  0  0  0  0  0
    3.3667    0.9708    0.0000 C   0  0  0  0  0  0  0  0  0  0  0  0
    4.5167   -0.3292    0.0000 C   0  0  0  0  0  0  0  0  0  0  0  0
    6.9750    1.7208    0.0000 N   0  0  0  0  0  0  0  0  0  0  0  0
    7.7792    1.1375    0.0000 C   0  0  0  0  0  0  0  0  0  0  0  0
    6.1625    1.1375    0.0000 C   0  0  0  0  0  0  0  0  0  0  0  0
    7.4750    0.1833    0.0000 S   0  0  0  0  0  0  0  0  0  0  0  0
    2.8292   -0.6792    0.0000 C   0  0  3  0  0  0  0  0  0  0  0  0
    2.0792   -1.3417    0.0000 C   0  0  0  0  0  0  0  0  0  0  0  0
    5.2125    1.4500    0.0000 C   0  0  0  0  0  0  0  0  0  0  0  0
    2.6250    0.3000    0.0000 C   0  0  0  0  0  0  0  0  0  0  0  0
    3.7667   -0.9917    0.0000 C   0  0  0  0  0  0  0  0  0  0  0  0
    6.4750    0.1833    0.0000 C   0  0  0  0  0  0  0  0  0  0  0  0
    1.0917   -1.1250    0.0000 S   0  0  0  0  0  0  0  0  0  0  0  0
    5.4667   -0.6417    0.0000 O   0  0  0  0  0  0  0  0  0  0  0  0
    3.1542    1.9458    0.0000 O   0  0  0  0  0  0  0  0  0  0  0  0
    8.7292    1.4500    0.0000 C   0  0  0  0  0  0  0  0  0  0  0  0
    2.1750   -2.3375    0.0000 C   0  0  0  0  0  0  0  0  0  0  0  0
    0.5917   -1.9875    0.0000 C   0  0  0  0  0  0  0  0  0  0  0  0
    1.2500   -2.7375    0.0000 C   0  0  0  0  0  0  0  0  0  0  0  0
    9.4792    0.7833    0.0000 C   0  0  0  0  0  0  0  0  0  0  0  0
    8.9375    2.4333    0.0000 C   0  0  0  0  0  0  0  0  0  0  0  0
    9.8917    2.7458    0.0000 C   0  0  0  0  0  0  0  0  0  0  0  0
   10.4250    1.0958    0.0000 C   0  0  0  0  0  0  0  0  0  0  0  0
   10.6292    2.0792    0.0000 C   0  0  0  0  0  0  0  0  0  0  0  0
  2  1  1  0  0  0  0
  3  1  1  0  0  0  0
  4  6  1  0  0  0  0
  5  4  2  0  0  0  0
  6 10  1  0  0  0  0
  7 13  1  0  0  0  0
  8 12  1  0  0  0  0
  9  8  1  0  0  0  0
 10  1  1  0  0  0  0
 11  2  1  0  0  0  0
 12  3  1  0  0  0  0
 13  6  2  0  0  0  0
 14  9  1  0  0  0  0
 15  3  2  0  0  0  0
 16  2  2  0  0  0  0
 17  5  1  0  0  0  0
 18  9  2  0  0  0  0
 19 14  1  0  0  0  0
 20 18  1  0  0  0  0
 21 17  2  0  0  0  0
 22 17  1  0  0  0  0
 23 22  2  0  0  0  0
 24 21  1  0  0  0  0
 25 23  1  0  0  0  0
 11  8  1  0  0  0  0
  7  5  1  0  0  0  0
 19 20  2  0  0  0  0
 24 25  2  0  0  0  0
M  END
> <IDNUMBER>
F6401-0078

> <Chemical_Name>
1-[(2-phenyl-1,3-thiazol-4-yl)methyl]-4-(thiophen-2-yl)piperidine-2,6-dione

> <CAS>
1396747-45-7

> <PriceCoeff>
1.00

> <MW>
368.47

> <Description>
solid

> <FSP3>
0.21

> <clogP>
3.18

> <TPSA>
106.75

> <Acceptor>
3

> <Donor>
0

> <RotBonds>
4

> <HAC>
25

> <Collection>
General

$$$$
F3260-0822
  -ISIS-  06222321442D

 20 21  0  0  0  0  0  0  0  0999 V2000
    3.6375    2.1083    0.0000 C   0  0  0  0  0  0  0  0  0  0  0  0
    3.6375    3.5083    0.0000 C   0  0  0  0  0  0  0  0  0  0  0  0
    2.4250    1.4000    0.0000 N   0  0  3  0  0  0  0  0  0  0  0  0
    1.2125    2.1083    0.0000 C   0  0  0  0  0  0  0  0  0  0  0  0
    1.2125    3.5083    0.0000 N   0  0  0  0  0  0  0  0  0  0  0  0
    4.9667    1.6708    0.0000 N   0  0  0  0  0  0  0  0  0  0  0  0
    2.4250    4.2000    0.0000 C   0  0  0  0  0  0  0  0  0  0  0  0
    4.9667    3.9375    0.0000 N   0  0  3  0  0  0  0  0  0  0  0  0
    5.7917    2.8083    0.0000 C   0  0  0  0  0  0  0  0  0  0  0  0
    5.7917    5.0667    0.0000 C   0  0  0  0  0  0  0  0  0  0  0  0
    5.2167    6.3417    0.0000 C   0  0  0  0  0  0  0  0  0  0  0  0
    0.0000    1.4083    0.0000 O   0  0  0  0  0  0  0  0  0  0  0  0
    2.4167    5.5917    0.0000 O   0  0  0  0  0  0  0  0  0  0  0  0
    6.0417    7.4667    0.0000 N   0  0  0  0  0  0  0  0  0  0  0  0
    3.8292    6.4917    0.0000 O   0  0  0  0  0  0  0  0  0  0  0  0
    2.4167   -0.0000    0.0000 C   0  0  0  0  0  0  0  0  0  0  0  0
    5.4750    8.7542    0.0000 C   0  0  0  0  0  0  0  0  0  0  0  0
    6.2917    9.8792    0.0000 C   0  0  3  0  0  0  0  0  0  0  0  0
    7.6875    9.7417    0.0000 C   0  0  0  0  0  0  0  0  0  0  0  0
    5.7250   11.1667    0.0000 C   0  0  0  0  0  0  0  0  0  0  0  0
  2  1  2  0  0  0  0
  3  1  1  0  0  0  0
  4  3  1  0  0  0  0
  5  4  1  0  0  0  0
  6  1  1  0  0  0  0
  7  2  1  0  0  0  0
  8  2  1  0  0  0  0
  9  6  2  0  0  0  0
 10  8  1  0  0  0  0
 11 10  1  0  0  0  0
 12  4  2  0  0  0  0
 13  7  2  0  0  0  0
 14 11  1  0  0  0  0
 15 11  2  0  0  0  0
 16  3  1  0  0  0  0
 17 14  1  0  0  0  0
 18 17  1  0  0  0  0
 19 18  1  0  0  0  0
 20 18  1  0  0  0  0
  9  8  1  0  0  0  0
  5  7  1  0  0  0  0
M  END
> <IDNUMBER>
F3260-0822

> <Chemical_Name>
2-(3-methyl-2,6-dioxo-2,3,6,7-tetrahydro-1H-purin-7-yl)-N-(2-methylpropyl)acetamide

> <CAS>
1105197-86-1

> <PriceCoeff>
1.00

> <MW>
279.30

> <Description>
solid

> <FSP3>
0.50

> <clogP>
-0.30

> <TPSA>
96.33

> <Acceptor>
4

> <Donor>
3

> <RotBonds>
4

> <HAC>
20

> <Collection>
General

> <Reference_compound>
CHEMBL113

> <Similarity>
0.8260

$$$$
F5896-0231
  -ISIS-  06222321152D

 26 29  0  0  0  0  0  0  0  0999 V2000
   -3.0708    0.0458    0.0000 N   0  0  3  0  0  0  0  0  0  0  0  0
   -1.7833    2.2958    0.0000 N   0  0  0  0  0  0  0  0  0  0  0  0
   -1.1250    2.6708    0.0000 C   0  0  0  0  0  0  0  0  0  0  0  0
   -2.9083   -0.6917    0.0000 C   0  0  0  0  0  0  0  0  0  0  0  0
   -2.4208    0.4208    0.0000 C   0  0  0  0  0  0  0  0  0  0  0  0
   -0.4833    2.2958    0.0000 N   0  0  3  0  0  0  0  0  0  0  0  0
   -2.4208    2.6708    0.0000 C   0  0  0  0  0  0  0  0  0  0  0  0
   -3.7125    1.1708    0.0000 C   0  0  0  0  0  0  0  0  0  0  0  0
   -3.0708    2.2958    0.0000 C   0  0  0  0  0  0  0  0  0  0  0  0
   -3.0708    1.5458    0.0000 N   0  0  0  0  0  0  0  0  0  0  0  0
   -3.7125    0.4208    0.0000 C   0  0  0  0  0  0  0  0  0  0  0  0
   -0.3708    1.5500    0.0000 C   0  0  0  0  0  0  0  0  0  0  0  0
    0.1917    2.6208    0.0000 C   0  0  0  0  0  0  0  0  0  0  0  0
   -2.1625   -0.7667    0.0000 C   0  0  0  0  0  0  0  0  0  0  0  0
   -1.8583   -0.0875    0.0000 C   0  0  0  0  0  0  0  0  0  0  0  0
   -1.1250    3.4208    0.0000 C   0  0  0  0  0  0  0  0  0  0  0  0
   -3.4083   -1.2542    0.0000 O   0  0  0  0  0  0  0  0  0  0  0  0
   -2.3458    1.1708    0.0000 O   0  0  0  0  0  0  0  0  0  0  0  0
   -4.3625    1.5458    0.0000 O   0  0  0  0  0  0  0  0  0  0  0  0
   -2.4208    3.4208    0.0000 C   0  0  0  0  0  0  0  0  0  0  0  0
    0.7167    2.0833    0.0000 C   0  0  0  0  0  0  0  0  0  0  0  0
    0.3667    1.4208    0.0000 C   0  0  0  0  0  0  0  0  0  0  0  0
   -1.7833    3.7958    0.0000 C   0  0  0  0  0  0  0  0  0  0  0  0
   -3.7208    2.6708    0.0000 C   0  0  0  0  0  0  0  0  0  0  0  0
   -3.7208    3.4208    0.0000 C   0  0  0  0  0  0  0  0  0  0  0  0
   -3.0708    3.7958    0.0000 C   0  0  0  0  0  0  0  0  0  0  0  0
  2  7  1  0  0  0  0
  3  2  2  0  0  0  0
  4  1  1  0  0  0  0
  5  1  1  0  0  0  0
  6  3  1  0  0  0  0
  7  9  2  0  0  0  0
  8 11  1  0  0  0  0
  9 10  1  0  0  0  0
 10  8  1  0  0  0  0
 11  1  1  0  0  0  0
 12  6  1  0  0  0  0
 13  6  1  0  0  0  0
 14  4  1  0  0  0  0
 15  5  1  0  0  0  0
 16 23  2  0  0  0  0
 17  4  2  0  0  0  0
 18  5  2  0  0  0  0
 19  8  2  0  0  0  0
 20  7  1  0  0  0  0
 21 13  2  0  0  0  0
 22 12  2  0  0  0  0
 23 20  1  0  0  0  0
 24  9  1  0  0  0  0
 25 24  2  0  0  0  0
 26 25  1  0  0  0  0
 15 14  1  0  0  0  0
 26 20  2  0  0  0  0
 16  3  1  0  0  0  0
 21 22  1  0  0  0  0
M  END
> <IDNUMBER>
F5896-0231

> <Chemical_Name>
2-(2,5-dioxopyrrolidin-1-yl)-N-[2-(1H-pyrrol-1-yl)quinolin-8-yl]acetamide

> <CAS>
1226441-11-7

> <PriceCoeff>
1.00

> <MW>
348.36

> <Description>
solid

> <FSP3>
0.16

> <clogP>
2.56

> <TPSA>
84.30

> <Acceptor>
4

> <Donor>
2

> <RotBonds>
4

> <HAC>
26

> <Collection>
General

$$$$
F0526-1128
  -ISIS-  06222304352D

 26 27  0  0  0  0  0  0  0  0999 V2000
    3.0542    0.1458    0.0000 C   0  0  0  0  0  0  0  0  0  0  0  0
    2.5792    0.8208    0.0000 C   0  0  0  0  0  0  0  0  0  0  0  0
    4.3042   -2.0167    0.0000 N   0  0  3  0  0  0  0  0  0  0  0  0
    1.7917   -0.2542    0.0000 C   0  0  0  0  0  0  0  0  0  0  0  0
    1.7917    0.5708    0.0000 C   0  0  0  0  0  0  0  0  0  0  0  0
    2.5792   -0.5167    0.0000 S   0  0  0  0  0  0  0  0  0  0  0  0
    3.8792    0.1458    0.0000 N   0  0  0  0  0  0  0  0  0  0  0  0
    0.3667   -0.2542    0.0000 N   0  0  3  0  0  0  0  0  0  0  0  0
    5.1042   -2.1125    0.0000 C   0  0  0  0  0  0  0  0  0  0  0  0
    3.9542   -2.7667    0.0000 C   0  0  0  0  0  0  0  0  0  0  0  0
    1.0792   -0.6667    0.0000 C   0  0  0  0  0  0  0  0  0  0  0  0
    2.8292    1.6083    0.0000 C   0  0  0  0  0  0  0  0  0  0  0  0
    4.2917   -0.5667    0.0000 C   0  0  0  0  0  0  0  0  0  0  0  0
    3.8792   -1.2792    0.0000 C   0  0  0  0  0  0  0  0  0  0  0  0
    3.0917    2.3833    0.0000 N   0  0  0  0  0  0  0  0  0  0  0  0
    1.0792    0.9833    0.0000 C   0  0  0  0  0  0  0  0  0  0  0  0
    0.3667    0.5708    0.0000 C   0  0  0  0  0  0  0  0  0  0  0  0
    5.2667   -2.9417    0.0000 C   0  0  0  0  0  0  0  0  0  0  0  0
    4.5667   -3.3292    0.0000 C   0  0  0  0  0  0  0  0  0  0  0  0
    3.1417   -2.9292    0.0000 O   0  0  0  0  0  0  0  0  0  0  0  0
    5.6667   -1.5042    0.0000 O   0  0  0  0  0  0  0  0  0  0  0  0
    5.1292   -0.5667    0.0000 O   0  0  0  0  0  0  0  0  0  0  0  0
   -0.3583   -0.6667    0.0000 C   0  0  3  0  0  0  0  0  0  0  0  0
   -0.3458   -1.5042    0.0000 C   0  0  0  0  0  0  0  0  0  0  0  0
   -1.0583   -0.2542    0.0000 C   0  0  0  0  0  0  0  0  0  0  0  0
    7.1834   -0.3208    0.0000 Cl  0  0  0  0  0  0  0  0  0  0  0  0
  3 14  1  0  0  0  0
  4  6  1  0  0  0  0
  5  2  1  0  0  0  0
  6  1  1  0  0  0  0
  7  1  1  0  0  0  0
  8 11  1  0  0  0  0
  9  3  1  0  0  0  0
 10  3  1  0  0  0  0
 11  4  1  0  0  0  0
 12  2  1  0  0  0  0
 13  7  1  0  0  0  0
 14 13  1  0  0  0  0
 15 12  3  0  0  0  0
 16  5  1  0  0  0  0
 17 16  1  0  0  0  0
 18  9  1  0  0  0  0
 19 10  1  0  0  0  0
 20 10  2  0  0  0  0
 21  9  2  0  0  0  0
 22 13  2  0  0  0  0
 23  8  1  0  0  0  0
 24 23  1  0  0  0  0
 25 23  1  0  0  0  0
  4  5  2  0  0  0  0
  8 17  1  0  0  0  0
 18 19  1  0  0  0  0
  2  1  2  0  0  0  0
M  END
> <IDNUMBER>
F0526-1128

> <Chemical_Name>
N-[3-cyano-6-(propan-2-yl)-4H,5H,6H,7H-thieno[2,3-c]pyridin-2-yl]-2-(2,5-dioxopyrrolidin-1-yl)acetamide hydrochloride

> <CAS>
1219186-59-0

> <PriceCoeff>
1.00

> <MW>
360.43

> <Description>
solid

> <FSP3>
0.53

> <clogP>
0.42

> <TPSA>
121.75

> <Acceptor>
4

> <Donor>
2

> <RotBonds>
4

> <HAC>
25

> <Collection>
General

$$$$
F0001-0330
  -ISIS-  06222321142D

 14 14  0  0  0  0  0  0  0  0999 V2000
    6.5417   -2.0417    0.0000 C   0  0  0  0  0  0  0  0  0  0  0  0
    3.6750   -3.7125    0.0000 C   0  0  0  0  0  0  0  0  0  0  0  0
    4.3917   -3.2917    0.0000 C   0  0  0  0  0  0  0  0  0  0  0  0
    5.8250   -2.4542    0.0000 C   0  0  0  0  0  0  0  0  0  0  0  0
    3.6750   -4.5417    0.0000 O   0  0  0  0  0  0  0  0  0  0  0  0
    6.5417   -1.2042    0.0000 O   0  0  0  0  0  0  0  0  0  0  0  0
    5.8167   -3.2917    0.0000 C   0  0  0  0  0  0  0  0  0  0  0  0
    5.0917   -2.0500    0.0000 C   0  0  0  0  0  0  0  0  0  0  0  0
    4.4000   -2.4542    0.0000 C   0  0  0  0  0  0  0  0  0  0  0  0
    5.1167   -3.6917    0.0000 C   0  0  0  0  0  0  0  0  0  0  0  0
    2.9542   -3.3000    0.0000 O   0  0  0  0  0  0  0  0  0  0  0  0
    7.2625   -2.4417    0.0000 O   0  0  0  0  0  0  0  0  0  0  0  0
    2.2250   -3.7250    0.0000 C   0  0  0  0  0  0  0  0  0  0  0  0
    7.9750   -2.0250    0.0000 C   0  0  0  0  0  0  0  0  0  0  0  0
  2  3  1  0  0  0  0
  3  9  1  0  0  0  0
  4  1  1  0  0  0  0
  5  2  2  0  0  0  0
  6  1  2  0  0  0  0
  7  4  2  0  0  0  0
  8  4  1  0  0  0  0
  9  8  2  0  0  0  0
 10  7  1  0  0  0  0
 11  2  1  0  0  0  0
 12  1  1  0  0  0  0
 13 11  1  0  0  0  0
 14 12  1  0  0  0  0
 10  3  2  0  0  0  0
M  END
> <IDNUMBER>
F0001-0330

> <Chemical_Name>
1,4-dimethyl benzene-1,4-dicarboxylate

> <CAS>
120-61-6

> <PriceCoeff>
1.00

> <MW>
194.19

> <Description>
solid

> <FSP3>
0.20

> <clogP>
2.08

> <TPSA>
52.60

> <Acceptor>
4

> <Donor>
0

> <RotBonds>
4

> <HAC>
14

> <Collection>
General

> <Reference_compound>
PRI1598

> <Similarity>
0.8000

$$$$
F9994-6549
  -ISIS-  06222321162D

 16 16  0  0  0  0  0  0  0  0999 V2000
    0.0292   -1.2792    0.0000 C   0  0  0  0  0  0  0  0  0  0  0  0
    1.5875   -0.9750    0.0000 C   0  0  0  0  0  0  0  0  0  0  0  0
   -0.4958   -0.9792    0.0000 C   0  0  0  0  0  0  0  0  0  0  0  0
   -1.5333   -0.3750    0.0000 C   0  0  0  0  0  0  0  0  0  0  0  0
    1.5875   -0.3667    0.0000 O   0  0  0  0  0  0  0  0  0  0  0  0
    0.0292   -1.8792    0.0000 O   0  0  0  0  0  0  0  0  0  0  0  0
   -0.4958   -0.3750    0.0000 C   0  0  0  0  0  0  0  0  0  0  0  0
   -1.0125   -1.2792    0.0000 C   0  0  0  0  0  0  0  0  0  0  0  0
    0.5500   -0.9750    0.0000 C   0  0  0  0  0  0  0  0  0  0  0  0
   -1.5333   -0.9792    0.0000 C   0  0  0  0  0  0  0  0  0  0  0  0
   -1.0125   -0.0750    0.0000 C   0  0  0  0  0  0  0  0  0  0  0  0
    1.0667   -1.2750    0.0000 C   0  0  0  0  0  0  0  0  0  0  0  0
   -2.0500   -0.0792    0.0000 C   0  0  3  0  0  0  0  0  0  0  0  0
    2.1042   -1.2667    0.0000 O   0  0  0  0  0  0  0  0  0  0  0  0
   -2.0500    0.5208    0.0000 C   0  0  0  0  0  0  0  0  0  0  0  0
   -2.5708   -0.3792    0.0000 C   0  0  0  0  0  0  0  0  0  0  0  0
  2 12  1  0  0  0  0
  3  1  1  0  0  0  0
  4 10  2  0  0  0  0
  5  2  2  0  0  0  0
  6  1  2  0  0  0  0
  7  3  1  0  0  0  0
  8  3  2  0  0  0  0
  9  1  1  0  0  0  0
 10  8  1  0  0  0  0
 11  7  2  0  0  0  0
 12  9  1  0  0  0  0
 13  4  1  0  0  0  0
 14  2  1  0  0  0  0
 15 13  1  0  0  0  0
 16 13  1  0  0  0  0
 11  4  1  0  0  0  0
M  END
> <IDNUMBER>
F9994-6549

> <Chemical_Name>
4-oxo-4-[4-(propan-2-yl)phenyl]butanoic acid

> <CAS>
6947-81-5

> <PriceCoeff>
1.00

> <MW>
220.26

> <Description>
solid

> <FSP3>
0.38

> <clogP>
2.68

> <TPSA>
54.37

> <Acceptor>
3

> <Donor>
0

> <RotBonds>
5

> <HAC>
16

> <Collection>
General

> <Reference_compound>
CHEMBL461681

> <Similarity>
0.9220

$$$$
F9994-0695
  -ISIS-  06222304352D

 18 19  0  0  0  0  0  0  0  0999 V2000
    5.1500   -2.3250    0.0000 C   0  0  0  0  0  0  0  0  0  0  0  0
    4.6542   -1.6542    0.0000 N   0  0  0  0  0  0  0  0  0  0  0  0
    4.6667   -2.9917    0.0000 C   0  0  0  0  0  0  0  0  0  0  0  0
    3.8750   -2.7417    0.0000 C   0  0  0  0  0  0  0  0  0  0  0  0
    3.8667   -1.9167    0.0000 C   0  0  0  0  0  0  0  0  0  0  0  0
    5.9667   -2.4000    0.0000 C   0  0  3  0  0  0  0  0  0  0  0  0
    6.4500   -1.7292    0.0000 C   0  0  0  0  0  0  0  0  0  0  0  0
    6.3167   -3.1542    0.0000 N   0  0  0  0  0  0  0  0  0  0  0  0
    7.2667   -1.8042    0.0000 C   0  0  0  0  0  0  0  0  0  0  0  0
    7.6125   -2.5542    0.0000 O   0  0  0  0  0  0  0  0  0  0  0  0
    5.0042   -3.7500    0.0000 C   0  0  0  0  0  0  0  0  0  0  0  0
    5.8292   -3.8292    0.0000 C   0  0  0  0  0  0  0  0  0  0  0  0
    3.1542   -3.1542    0.0000 C   0  0  0  0  0  0  0  0  0  0  0  0
    3.1542   -1.5042    0.0000 C   0  0  0  0  0  0  0  0  0  0  0  0
    7.7500   -1.1375    0.0000 C   0  0  0  0  0  0  0  0  0  0  0  0
    2.4417   -2.7417    0.0000 C   0  0  0  0  0  0  0  0  0  0  0  0
    2.4417   -1.9167    0.0000 C   0  0  0  0  0  0  0  0  0  0  0  0
    9.1375   -2.3875    0.0000 Cl  0  0  0  0  0  0  0  0  0  0  0  0
  3  1  2  0  0  0  0
  4  3  1  0  0  0  0
  5  2  1  0  0  0  0
  6  1  1  0  0  0  0
  7  6  1  0  0  0  0
  8  6  1  0  0  0  0
  9  7  1  0  0  0  0
 10  9  2  0  0  0  0
 11  3  1  0  0  0  0
 12  8  1  0  0  0  0
 13  4  2  0  0  0  0
 14  5  2  0  0  0  0
 15  9  1  0  0  0  0
 16 13  1  0  0  0  0
 17 14  1  0  0  0  0
  5  4  1  0  0  0  0
 11 12  1  0  0  0  0
 17 16  2  0  0  0  0
  2  1  1  0  0  0  0
M  END
> <IDNUMBER>
F9994-0695

> <Chemical_Name>
1-{1H,2H,3H,4H,9H-pyrido[3,4-b]indol-1-yl}propan-2-one hydrochloride

> <CAS>
157103-26-9

> <PriceCoeff>
1.00

> <MW>
228.29

> <Description>
solid

> <FSP3>
0.36

> <clogP>
1.50

> <TPSA>
44.89

> <Acceptor>
1

> <Donor>
2

> <RotBonds>
2

> <HAC>
17

> <Collection>
General

> <Reference_compound>
CHEMBL4076672

> <Similarity>
0.8230

$$$$
F5795-1955
  -ISIS-  06222321462D

 29 31  0  0  0  0  0  0  0  0999 V2000
    1.2125   -4.0542    0.0000 S   0  0  3  0  0  0  0  0  0  0  0  0
    2.0417   -4.0625    0.0000 C   0  0  0  0  0  0  0  0  0  0  0  0
    0.3750   -4.0417    0.0000 N   0  0  3  0  0  0  0  0  0  0  0  0
    2.6042   -3.4417    0.0000 C   0  0  0  0  0  0  0  0  0  0  0  0
    3.3500   -3.7875    0.0000 C   0  0  0  0  0  0  0  0  0  0  0  0
    2.4417   -4.7792    0.0000 C   0  0  0  0  0  0  0  0  0  0  0  0
    3.2667   -4.6167    0.0000 O   0  0  0  0  0  0  0  0  0  0  0  0
    4.0750   -3.3667    0.0000 C   0  0  0  0  0  0  0  0  0  0  0  0
    4.8042   -3.7792    0.0000 N   0  0  0  0  0  0  0  0  0  0  0  0
    6.2375   -3.7750    0.0000 C   0  0  0  0  0  0  0  0  0  0  0  0
   -0.0375   -3.3167    0.0000 C   0  0  0  0  0  0  0  0  0  0  0  0
   -0.0500   -4.7667    0.0000 C   0  0  0  0  0  0  0  0  0  0  0  0
    5.5250   -3.3625    0.0000 C   0  0  0  0  0  0  0  0  0  0  0  0
    6.2375   -5.4250    0.0000 N   0  0  0  0  0  0  0  0  0  0  0  0
    1.2042   -4.8875    0.0000 O   0  0  0  0  0  0  0  0  0  0  0  0
    1.2167   -3.2250    0.0000 O   0  0  0  0  0  0  0  0  0  0  0  0
    6.2375   -4.6000    0.0000 C   0  0  0  0  0  0  0  0  0  0  0  0
   -1.3000   -4.0250    0.0000 O   0  0  0  0  0  0  0  0  0  0  0  0
    6.9542   -3.3625    0.0000 C   0  0  0  0  0  0  0  0  0  0  0  0
   -0.8958   -4.7542    0.0000 C   0  0  3  0  0  0  0  0  0  0  0  0
   -0.8750   -3.3042    0.0000 C   0  0  3  0  0  0  0  0  0  0  0  0
    4.0667   -2.5292    0.0000 O   0  0  0  0  0  0  0  0  0  0  0  0
    5.5250   -2.5292    0.0000 C   0  0  0  0  0  0  0  0  0  0  0  0
    6.9542   -2.5292    0.0000 C   0  0  0  0  0  0  0  0  0  0  0  0
    6.2375   -2.1167    0.0000 C   0  0  0  0  0  0  0  0  0  0  0  0
    2.1000   -5.5500    0.0000 C   0  0  0  0  0  0  0  0  0  0  0  0
    7.6750   -2.1125    0.0000 Cl  0  0  0  0  0  0  0  0  0  0  0  0
   -1.3208   -5.4667    0.0000 C   0  0  0  0  0  0  0  0  0  0  0  0
   -1.2833   -2.5792    0.0000 C   0  0  0  0  0  0  0  0  0  0  0  0
  2  1  1  0  0  0  0
  3  1  1  0  0  0  0
  4  2  1  0  0  0  0
  5  4  2  0  0  0  0
  6  2  2  0  0  0  0
  7  6  1  0  0  0  0
  8  5  1  0  0  0  0
  9  8  1  0  0  0  0
 10 13  1  0  0  0  0
 11  3  1  0  0  0  0
 12  3  1  0  0  0  0
 13  9  1  0  0  0  0
 14 17  3  0  0  0  0
 15  1  2  0  0  0  0
 16  1  2  0  0  0  0
 17 10  1  0  0  0  0
 18 20  1  0  0  0  0
 19 10  2  0  0  0  0
 20 12  1  0  0  0  0
 21 11  1  0  0  0  0
 22  8  2  0  0  0  0
 23 13  2  0  0  0  0
 24 25  2  0  0  0  0
 25 23  1  0  0  0  0
 26  6  1  0  0  0  0
 27 24  1  0  0  0  0
 28 20  1  0  0  0  0
 29 21  1  0  0  0  0
 18 21  1  0  0  0  0
  5  7  1  0  0  0  0
 24 19  1  0  0  0  0
M  END
> <IDNUMBER>
F5795-1955

> <Chemical_Name>
N-(4-chloro-2-cyanophenyl)-4-[(2,6-dimethylmorpholin-4-yl)sulfonyl]-5-methylfuran-2-carboxamide

> <CAS>
1207018-21-0

> <PriceCoeff>
1.00

> <MW>
437.90

> <Description>
solid

> <FSP3>
0.37

> <clogP>
2.71

> <TPSA>
121.02

> <Acceptor>
6

> <Donor>
1

> <RotBonds>
4

> <HAC>
29

> <Collection>
General

$$$$
F0373-0032
  -ISIS-  06222321442D

 18 19  0  0  0  0  0  0  0  0999 V2000
   -0.7333   -1.1292    0.0000 C   0  0  0  0  0  0  0  0  0  0  0  0
   -0.7333    0.1708    0.0000 C   0  0  0  0  0  0  0  0  0  0  0  0
   -1.8500   -1.7792    0.0000 N   0  0  3  0  0  0  0  0  0  0  0  0
   -2.9833   -1.1292    0.0000 C   0  0  0  0  0  0  0  0  0  0  0  0
   -2.9833    0.1708    0.0000 N   0  0  0  0  0  0  0  0  0  0  0  0
    0.5000   -1.5167    0.0000 N   0  0  0  0  0  0  0  0  0  0  0  0
   -1.8500    0.8208    0.0000 C   0  0  0  0  0  0  0  0  0  0  0  0
    0.5000    0.5708    0.0000 N   0  0  3  0  0  0  0  0  0  0  0  0
    1.2500   -0.4542    0.0000 C   0  0  0  0  0  0  0  0  0  0  0  0
    0.9042    1.8208    0.0000 C   0  0  0  0  0  0  0  0  0  0  0  0
   -4.1333   -1.8000    0.0000 O   0  0  0  0  0  0  0  0  0  0  0  0
    2.1792    2.0958    0.0000 C   0  0  0  0  0  0  0  0  0  0  0  0
   -1.8500    2.1333    0.0000 O   0  0  0  0  0  0  0  0  0  0  0  0
    2.6000    3.3125    0.0000 O   0  0  0  0  0  0  0  0  0  0  0  0
   -1.8500   -3.0792    0.0000 C   0  0  0  0  0  0  0  0  0  0  0  0
    3.0500    1.1208    0.0000 O   0  0  0  0  0  0  0  0  0  0  0  0
    2.6500   -0.0875    0.0000 C   0  0  0  0  0  0  0  0  0  0  0  0
    3.5292   -1.0500    0.0000 C   0  0  0  0  0  0  0  0  0  0  0  0
  2  1  2  0  0  0  0
  3  1  1  0  0  0  0
  4  3  1  0  0  0  0
  5  4  1  0  0  0  0
  6  1  1  0  0  0  0
  7  2  1  0  0  0  0
  8  2  1  0  0  0  0
  9  6  2  0  0  0  0
 10  8  1  0  0  0  0
 11  4  2  0  0  0  0
 12 10  1  0  0  0  0
 13  7  2  0  0  0  0
 14 12  2  0  0  0  0
 15  3  1  0  0  0  0
 16 12  1  0  0  0  0
 17 16  1  0  0  0  0
 18 17  1  0  0  0  0
  8  9  1  0  0  0  0
  5  7  1  0  0  0  0
M  END
> <IDNUMBER>
F0373-0032

> <Chemical_Name>
ethyl 2-(3-methyl-2,6-dioxo-2,3,6,7-tetrahydro-1H-purin-7-yl)acetate

> <CAS>
102838-42-6

> <PriceCoeff>
1.00

> <MW>
252.23

> <Description>
solid

> <FSP3>
0.40

> <clogP>
-0.37

> <TPSA>
93.53

> <Acceptor>
5

> <Donor>
2

> <RotBonds>
4

> <HAC>
18

> <Collection>
General

> <Reference_compound>
CHEMBL113

> <Similarity>
0.8110

$$$$
F6782-6659
  -ISIS-  06222321162D

 19 21  0  0  0  0  0  0  0  0999 V2000
   11.5292   -3.9792    0.0000 C   0  0  0  0  0  0  0  0  0  0  0  0
   10.8167   -5.2167    0.0000 N   0  0  3  0  0  0  0  0  0  0  0  0
   10.1042   -3.9792    0.0000 C   0  0  0  0  0  0  0  0  0  0  0  0
   10.8167   -3.5667    0.0000 C   0  0  0  0  0  0  0  0  0  0  0  0
   11.5292   -4.8042    0.0000 C   0  0  0  0  0  0  0  0  0  0  0  0
   10.1042   -4.8042    0.0000 C   0  0  0  0  0  0  0  0  0  0  0  0
   12.2542   -3.5542    0.0000 C   0  0  0  0  0  0  0  0  0  0  0  0
   10.8167   -6.0417    0.0000 C   0  0  0  0  0  0  0  0  0  0  0  0
    9.3917   -5.2167    0.0000 C   0  0  0  0  0  0  0  0  0  0  0  0
    9.3917   -3.5667    0.0000 C   0  0  0  0  0  0  0  0  0  0  0  0
   10.1042   -6.4542    0.0000 C   0  0  3  0  0  0  0  0  0  0  0  0
    9.2792   -6.4542    0.0000 C   0  0  0  0  0  0  0  0  0  0  0  0
    9.6917   -7.1667    0.0000 C   0  0  0  0  0  0  0  0  0  0  0  0
   10.8167   -2.7417    0.0000 O   0  0  0  0  0  0  0  0  0  0  0  0
   12.2500   -2.7292    0.0000 O   0  0  0  0  0  0  0  0  0  0  0  0
    8.6750   -3.9792    0.0000 C   0  0  0  0  0  0  0  0  0  0  0  0
   12.9750   -3.9667    0.0000 O   0  0  0  0  0  0  0  0  0  0  0  0
    8.6750   -4.8042    0.0000 C   0  0  0  0  0  0  0  0  0  0  0  0
    7.9542   -3.5542    0.0000 F   0  0  0  0  0  0  0  0  0  0  0  0
  2  5  1  0  0  0  0
  3  4  1  0  0  0  0
  4  1  1  0  0  0  0
  5  1  2  0  0  0  0
  6  2  1  0  0  0  0
  7  1  1  0  0  0  0
  8  2  1  0  0  0  0
  9  6  1  0  0  0  0
 10  3  1  0  0  0  0
 11  8  1  0  0  0  0
 12 11  1  0  0  0  0
 13 11  1  0  0  0  0
 14  4  2  0  0  0  0
 15  7  2  0  0  0  0
 16 10  2  0  0  0  0
 17  7  1  0  0  0  0
 18  9  2  0  0  0  0
 19 16  1  0  0  0  0
  3  6  2  0  0  0  0
 13 12  1  0  0  0  0
 16 18  1  0  0  0  0
M  END
> <IDNUMBER>
F6782-6659

> <Chemical_Name>
1-(cyclopropylmethyl)-6-fluoro-4-oxo-1,4-dihydroquinoline-3-carboxylic acid

> <CAS>
1267826-31-2

> <PriceCoeff>
1.00

> <MW>
261.25

> <Description>
solid

> <FSP3>
0.29

> <clogP>
2.37

> <TPSA>
57.61

> <Acceptor>
4

> <Donor>
1

> <RotBonds>
3

> <HAC>
19

> <Collection>
General

> <Reference_compound>
CHEMBL8

> <Similarity>
0.8240

$$$$
F5854-3791
  -ISIS-  06222321442D

 21 23  0  0  0  0  0  0  0  0999 V2000
   -5.2833    2.5708    0.0000 N   0  0  3  0  0  0  0  0  0  0  0  0
   -4.5708    3.8000    0.0000 C   0  0  0  0  0  0  0  0  0  0  0  0
   -3.8583    4.2125    0.0000 N   0  0  3  0  0  0  0  0  0  0  0  0
   -4.5708    2.9875    0.0000 C   0  0  0  0  0  0  0  0  0  0  0  0
   -2.4208    4.2042    0.0000 C   0  0  0  0  0  0  0  0  0  0  0  0
   -5.3625    1.7458    0.0000 C   0  0  0  0  0  0  0  0  0  0  0  0
   -6.0292    2.9000    0.0000 C   0  0  0  0  0  0  0  0  0  0  0  0
   -1.6750    3.8750    0.0000 N   0  0  3  0  0  0  0  0  0  0  0  0
   -3.1458    3.8083    0.0000 C   0  0  0  0  0  0  0  0  0  0  0  0
   -3.8583    5.0292    0.0000 C   0  0  3  0  0  0  0  0  0  0  0  0
   -4.2708    5.7542    0.0000 C   0  0  0  0  0  0  0  0  0  0  0  0
   -3.4333    5.7417    0.0000 C   0  0  0  0  0  0  0  0  0  0  0  0
   -1.1083    4.4625    0.0000 C   0  0  0  0  0  0  0  0  0  0  0  0
   -2.3250    5.0250    0.0000 C   0  0  0  0  0  0  0  0  0  0  0  0
   -1.5208    5.1667    0.0000 C   0  0  0  0  0  0  0  0  0  0  0  0
   -5.2958    4.2125    0.0000 O   0  0  0  0  0  0  0  0  0  0  0  0
   -6.5750    2.2833    0.0000 C   0  0  0  0  0  0  0  0  0  0  0  0
   -6.1667    1.5708    0.0000 C   0  0  0  0  0  0  0  0  0  0  0  0
   -6.2042    3.7083    0.0000 O   0  0  0  0  0  0  0  0  0  0  0  0
   -4.7458    1.1833    0.0000 O   0  0  0  0  0  0  0  0  0  0  0  0
   -1.5083    3.0583    0.0000 C   0  0  0  0  0  0  0  0  0  0  0  0
  2  4  1  0  0  0  0
  3  2  1  0  0  0  0
  4  1  1  0  0  0  0
  5  9  1  0  0  0  0
  6  1  1  0  0  0  0
  7  1  1  0  0  0  0
  8  5  1  0  0  0  0
  9  3  1  0  0  0  0
 10  3  1  0  0  0  0
 11 10  1  0  0  0  0
 12 10  1  0  0  0  0
 13  8  1  0  0  0  0
 14  5  2  0  0  0  0
 15 14  1  0  0  0  0
 16  2  2  0  0  0  0
 17  7  1  0  0  0  0
 18  6  1  0  0  0  0
 19  7  2  0  0  0  0
 20  6  2  0  0  0  0
 21  8  1  0  0  0  0
 18 17  1  0  0  0  0
 12 11  1  0  0  0  0
 15 13  2  0  0  0  0
M  END
> <IDNUMBER>
F5854-3791

> <Chemical_Name>
N-cyclopropyl-2-(2,5-dioxopyrrolidin-1-yl)-N-[(1-methyl-1H-pyrrol-2-yl)methyl]acetamide

> <CAS>
1286728-96-8

> <PriceCoeff>
1.00

> <MW>
289.33

> <Description>
solid

> <FSP3>
0.53

> <clogP>
0.55

> <TPSA>
62.62

> <Acceptor>
3

> <Donor>
0

> <RotBonds>
6

> <HAC>
21

> <Collection>
General

$$$$
F3376-1857
  -ISIS-  06222321152D

 25 28  0  0  0  0  0  0  0  0999 V2000
    6.7375   -5.9917    0.0000 C   0  0  0  0  0  0  0  0  0  0  0  0
    5.1875   -5.9917    0.0000 C   0  0  0  0  0  0  0  0  0  0  0  0
    5.1750   -5.1042    0.0000 C   0  0  0  0  0  0  0  0  0  0  0  0
    6.7375   -5.0792    0.0000 N   0  0  3  0  0  0  0  0  0  0  0  0
    5.9625   -6.4417    0.0000 N   0  0  0  0  0  0  0  0  0  0  0  0
    7.5250   -6.4417    0.0000 N   0  0  3  0  0  0  0  0  0  0  0  0
    4.4250   -6.4417    0.0000 N   0  0  3  0  0  0  0  0  0  0  0  0
    4.4250   -4.6292    0.0000 C   0  0  0  0  0  0  0  0  0  0  0  0
    3.6500   -5.9917    0.0000 C   0  0  0  0  0  0  0  0  0  0  0  0
    8.3167   -5.0792    0.0000 C   0  0  0  0  0  0  0  0  0  0  0  0
    3.6500   -5.0667    0.0000 N   0  0  0  0  0  0  0  0  0  0  0  0
    8.3167   -5.9917    0.0000 C   0  0  0  0  0  0  0  0  0  0  0  0
    7.5250   -7.3542    0.0000 C   0  0  0  0  0  0  0  0  0  0  0  0
    6.7292   -7.8000    0.0000 C   0  0  0  0  0  0  0  0  0  0  0  0
    8.3042   -7.8042    0.0000 C   0  0  0  0  0  0  0  0  0  0  0  0
    2.8625   -6.4917    0.0000 O   0  0  0  0  0  0  0  0  0  0  0  0
    4.4250   -3.7292    0.0000 O   0  0  0  0  0  0  0  0  0  0  0  0
    4.4250   -7.3417    0.0000 C   0  0  0  0  0  0  0  0  0  0  0  0
    8.3042   -8.7042    0.0000 C   0  0  0  0  0  0  0  0  0  0  0  0
    6.7292   -8.7042    0.0000 C   0  0  0  0  0  0  0  0  0  0  0  0
    8.9000   -4.4917    0.0000 C   0  0  0  0  0  0  0  0  0  0  0  0
    9.1042   -6.4417    0.0000 C   0  0  0  0  0  0  0  0  0  0  0  0
    7.5167   -9.1625    0.0000 C   0  0  0  0  0  0  0  0  0  0  0  0
    5.9417   -9.1542    0.0000 Cl  0  0  0  0  0  0  0  0  0  0  0  0
    9.0875   -7.3500    0.0000 O   0  0  0  0  0  0  0  0  0  0  0  0
  2  5  1  0  0  0  0
  3  4  1  0  0  0  0
  4  1  1  0  0  0  0
  5  1  2  0  0  0  0
  6  1  1  0  0  0  0
  7  2  1  0  0  0  0
  8  3  1  0  0  0  0
  9  7  1  0  0  0  0
 10  4  1  0  0  0  0
 11  8  1  0  0  0  0
 12  6  1  0  0  0  0
 13  6  1  0  0  0  0
 14 13  2  0  0  0  0
 15 13  1  0  0  0  0
 16  9  2  0  0  0  0
 17  8  2  0  0  0  0
 18  7  1  0  0  0  0
 19 15  2  0  0  0  0
 20 14  1  0  0  0  0
 21 10  1  0  0  0  0
 22 12  1  0  0  0  0
 23 19  1  0  0  0  0
 24 20  1  0  0  0  0
 25 15  1  0  0  0  0
 12 10  2  0  0  0  0
  3  2  2  0  0  0  0
 11  9  1  0  0  0  0
 20 23  2  0  0  0  0
M  END
> <IDNUMBER>
F3376-1857

> <Chemical_Name>
8-(5-chloro-2-hydroxyphenyl)-1,6,7-trimethyl-1H,2H,3H,4H,8H-imidazo[1,2-g]purine-2,4-dione

> <CAS>
1021209-42-6

> <PriceCoeff>
1.00

> <MW>
359.77

> <Description>
solid

> <FSP3>
0.19

> <clogP>
2.96

> <TPSA>
91.87

> <Acceptor>
4

> <Donor>
2

> <RotBonds>
1

> <HAC>
25

> <Collection>
General

$$$$
F6036-2026
  -ISIS-  06222321152D

 29 32  0  0  0  0  0  0  0  0999 V2000
   -4.5708    3.8000    0.0000 S   0  0  3  0  0  0  0  0  0  0  0  0
   -3.8583    4.2125    0.0000 N   0  0  3  0  0  0  0  0  0  0  0  0
   -6.7042    3.3583    0.0000 N   0  0  3  0  0  0  0  0  0  0  0  0
   -1.3625    4.9167    0.0000 N   0  0  0  0  0  0  0  0  0  0  0  0
   -2.1375    5.2167    0.0000 C   0  0  0  0  0  0  0  0  0  0  0  0
   -2.8500    4.7792    0.0000 C   0  0  3  0  0  0  0  0  0  0  0  0
   -0.8500    5.5667    0.0000 C   0  0  0  0  0  0  0  0  0  0  0  0
   -1.2875    6.2625    0.0000 N   0  0  0  0  0  0  0  0  0  0  0  0
   -5.2833    3.3833    0.0000 C   0  0  0  0  0  0  0  0  0  0  0  0
   -2.0833    6.0417    0.0000 O   0  0  0  0  0  0  0  0  0  0  0  0
   -6.6917    2.5333    0.0000 C   0  0  0  0  0  0  0  0  0  0  0  0
   -7.4292    3.7583    0.0000 C   0  0  0  0  0  0  0  0  0  0  0  0
   -3.6458    5.0042    0.0000 C   0  0  0  0  0  0  0  0  0  0  0  0
   -3.0583    4.0000    0.0000 C   0  0  0  0  0  0  0  0  0  0  0  0
   -6.0000    3.7833    0.0000 C   0  0  0  0  0  0  0  0  0  0  0  0
   -4.1458    3.1083    0.0000 O   0  0  0  0  0  0  0  0  0  0  0  0
   -4.9958    4.5042    0.0000 O   0  0  0  0  0  0  0  0  0  0  0  0
   -7.4500    4.5750    0.0000 O   0  0  0  0  0  0  0  0  0  0  0  0
   -5.9708    2.1333    0.0000 O   0  0  0  0  0  0  0  0  0  0  0  0
   -0.0125    5.5250    0.0000 C   0  0  0  0  0  0  0  0  0  0  0  0
    0.4417    6.2167    0.0000 C   0  0  0  0  0  0  0  0  0  0  0  0
   -7.3917    2.1000    0.0000 C   0  0  0  0  0  0  0  0  0  0  0  0
   -8.1292    3.3333    0.0000 C   0  0  0  0  0  0  0  0  0  0  0  0
   -8.1167    2.5000    0.0000 C   0  0  0  0  0  0  0  0  0  0  0  0
    0.0500    6.9417    0.0000 C   0  0  0  0  0  0  0  0  0  0  0  0
    1.2542    6.1750    0.0000 C   0  0  0  0  0  0  0  0  0  0  0  0
    1.7042    6.8667    0.0000 C   0  0  0  0  0  0  0  0  0  0  0  0
    0.5042    7.6375    0.0000 C   0  0  0  0  0  0  0  0  0  0  0  0
    1.3375    7.6042    0.0000 C   0  0  0  0  0  0  0  0  0  0  0  0
  2  1  1  0  0  0  0
  3 15  1  0  0  0  0
  4  5  2  0  0  0  0
  5  6  1  0  0  0  0
  6 14  1  0  0  0  0
  7  4  1  0  0  0  0
  8 10  1  0  0  0  0
  9  1  1  0  0  0  0
 10  5  1  0  0  0  0
 11  3  1  0  0  0  0
 12  3  1  0  0  0  0
 13  2  1  0  0  0  0
 14  2  1  0  0  0  0
 15  9  1  0  0  0  0
 16  1  2  0  0  0  0
 17  1  2  0  0  0  0
 18 12  2  0  0  0  0
 19 11  2  0  0  0  0
 20  7  1  0  0  0  0
 21 20  1  0  0  0  0
 22 11  1  0  0  0  0
 23 12  1  0  0  0  0
 24 23  1  0  0  0  0
 25 21  1  0  0  0  0
 26 21  2  0  0  0  0
 27 26  1  0  0  0  0
 28 25  2  0  0  0  0
 29 27  2  0  0  0  0
  6 13  1  0  0  0  0
 24 22  1  0  0  0  0
  7  8  2  0  0  0  0
 29 28  1  0  0  0  0
M  END
> <IDNUMBER>
F6036-2026

> <Chemical_Name>
1-(2-{[3-(3-benzyl-1,2,4-oxadiazol-5-yl)azetidin-1-yl]sulfonyl}ethyl)piperidine-2,6-dione

> <CAS>
1351631-56-5

> <PriceCoeff>
1.00

> <MW>
418.47

> <Description>
solid

> <FSP3>
0.47

> <clogP>
0.50

> <TPSA>
122.06

> <Acceptor>
7

> <Donor>
0

> <RotBonds>
7

> <HAC>
29

> <Collection>
General

$$$$
F2158-0411
  -ISIS-  06222321462D

 11 11  0  0  0  0  0  0  0  0999 V2000
    3.9500   -5.2875    0.0000 C   0  0  0  0  0  0  0  0  0  0  0  0
    4.6625   -4.8667    0.0000 C   0  0  0  0  0  0  0  0  0  0  0  0
    5.3750   -5.2875    0.0000 C   0  0  0  0  0  0  0  0  0  0  0  0
    3.9500   -6.1167    0.0000 C   0  0  0  0  0  0  0  0  0  0  0  0
    4.6625   -6.5292    0.0000 O   0  0  0  0  0  0  0  0  0  0  0  0
    5.3750   -6.1167    0.0000 C   0  0  0  0  0  0  0  0  0  0  0  0
    4.6625   -4.0417    0.0000 O   0  0  0  0  0  0  0  0  0  0  0  0
    3.2292   -4.8750    0.0000 O   0  0  0  0  0  0  0  0  0  0  0  0
    6.0917   -6.5292    0.0000 C   0  0  0  0  0  0  0  0  0  0  0  0
    6.8042   -6.1167    0.0000 O   0  0  0  0  0  0  0  0  0  0  0  0
    3.2250   -4.0417    0.0000 C   0  0  0  0  0  0  0  0  0  0  0  0
  2  1  1  0  0  0  0
  3  2  1  0  0  0  0
  4  1  2  0  0  0  0
  5  4  1  0  0  0  0
  6  5  1  0  0  0  0
  7  2  2  0  0  0  0
  8  1  1  0  0  0  0
  9  6  1  0  0  0  0
 10  9  1  0  0  0  0
 11  8  1  0  0  0  0
  3  6  2  0  0  0  0
M  END
> <IDNUMBER>
F2158-0411

> <Chemical_Name>
2-(hydroxymethyl)-5-methoxy-4H-pyran-4-one

> <CAS>
6269-25-6

> <PriceCoeff>
1.50

> <MW>
156.14

> <Description>
solid

> <FSP3>
0.29

> <clogP>
-1.08

> <TPSA>
55.76

> <Acceptor>
4

> <Donor>
1

> <RotBonds>
2

> <HAC>
11

> <Collection>
Advanced

> <Reference_compound>
CHEMBL287556

> <Similarity>
0.9200

$$$$
F1957-0079
  -ISIS-  06222321452D

 22 23  0  0  0  0  0  0  0  0999 V2000
    5.6542   -3.1917    0.0000 C   0  0  0  0  0  0  0  0  0  0  0  0
    5.6542   -4.0167    0.0000 N   0  0  3  0  0  0  0  0  0  0  0  0
    5.6500   -5.6667    0.0000 N   0  0  3  0  0  0  0  0  0  0  0  0
    6.3667   -7.7292    0.0000 C   0  0  0  0  0  0  0  0  0  0  0  0
    6.3667   -6.9042    0.0000 C   0  0  0  0  0  0  0  0  0  0  0  0
    5.6500   -6.4917    0.0000 C   0  0  0  0  0  0  0  0  0  0  0  0
    7.0792   -8.1417    0.0000 C   0  0  0  0  0  0  0  0  0  0  0  0
    4.9417   -2.7792    0.0000 O   0  0  0  0  0  0  0  0  0  0  0  0
    5.6500   -8.1417    0.0000 N   0  0  0  0  0  0  0  0  0  0  0  0
    6.3750   -2.7875    0.0000 O   0  0  0  0  0  0  0  0  0  0  0  0
    4.9375   -4.4292    0.0000 C   0  0  0  0  0  0  0  0  0  0  0  0
    6.3667   -4.4375    0.0000 C   0  0  0  0  0  0  0  0  0  0  0  0
    4.9292   -5.2625    0.0000 C   0  0  0  0  0  0  0  0  0  0  0  0
    6.3667   -5.2625    0.0000 C   0  0  0  0  0  0  0  0  0  0  0  0
    7.7917   -7.7292    0.0000 O   0  0  0  0  0  0  0  0  0  0  0  0
    4.9500   -1.9542    0.0000 C   0  0  3  0  0  0  0  0  0  0  0  0
    4.9375   -6.9042    0.0000 C   0  0  0  0  0  0  0  0  0  0  0  0
    7.0792   -8.9667    0.0000 O   0  0  0  0  0  0  0  0  0  0  0  0
    4.9375   -7.7292    0.0000 C   0  0  0  0  0  0  0  0  0  0  0  0
    4.9417   -1.1292    0.0000 C   0  0  0  0  0  0  0  0  0  0  0  0
    5.7750   -1.9542    0.0000 C   0  0  0  0  0  0  0  0  0  0  0  0
    4.1250   -1.9500    0.0000 C   0  0  0  0  0  0  0  0  0  0  0  0
  2  1  1  0  0  0  0
  3 14  1  0  0  0  0
  4  5  1  0  0  0  0
  5  6  2  0  0  0  0
  6  3  1  0  0  0  0
  7  4  1  0  0  0  0
  8  1  1  0  0  0  0
  9 19  1  0  0  0  0
 10  1  2  0  0  0  0
 11  2  1  0  0  0  0
 12  2  1  0  0  0  0
 13 11  1  0  0  0  0
 14 12  1  0  0  0  0
 15  7  2  0  0  0  0
 16  8  1  0  0  0  0
 17  6  1  0  0  0  0
 18  7  1  0  0  0  0
 19 17  2  0  0  0  0
 20 16  1  0  0  0  0
 21 16  1  0  0  0  0
 22 16  1  0  0  0  0
 13  3  1  0  0  0  0
  9  4  2  0  0  0  0
M  END
> <IDNUMBER>
F1957-0079

> <Chemical_Name>
4-{4-[(tert-butoxy)carbonyl]piperazin-1-yl}pyridine-2-carboxylic acid

> <CAS>
1211595-81-1

> <PriceCoeff>
1.50

> <MW>
307.34

> <Description>
solid

> <FSP3>
0.53

> <clogP>
2.98

> <TPSA>
82.97

> <Acceptor>
5

> <Donor>
2

> <RotBonds>
4

> <HAC>
22

> <Collection>
Advanced

$$$$
F9995-0424
  -ISIS-  06222321162D

 17 17  0  0  0  0  0  0  0  0999 V2000
   -0.7583    1.2083    0.0000 C   0  0  0  0  0  0  0  0  0  0  0  0
   -0.0458   -0.0292    0.0000 C   0  0  0  0  0  0  0  0  0  0  0  0
   -1.4708   -0.0292    0.0000 C   0  0  0  0  0  0  0  0  0  0  0  0
   -0.7625    2.0333    0.0000 C   0  0  0  0  0  0  0  0  0  0  0  0
   -1.4708    0.7875    0.0000 C   0  0  0  0  0  0  0  0  0  0  0  0
   -0.0458    0.7958    0.0000 C   0  0  0  0  0  0  0  0  0  0  0  0
   -0.7583   -0.4500    0.0000 C   0  0  0  0  0  0  0  0  0  0  0  0
    0.6750   -0.4500    0.0000 C   0  0  3  0  0  0  0  0  0  0  0  0
   -2.1875   -0.4500    0.0000 C   0  0  3  0  0  0  0  0  0  0  0  0
   -1.3458    2.4375    0.0000 O   0  0  0  0  0  0  0  0  0  0  0  0
   -0.1000    2.4375    0.0000 O   0  0  0  0  0  0  0  0  0  0  0  0
    0.6750   -1.2750    0.0000 C   0  0  0  0  0  0  0  0  0  0  0  0
    1.3875   -0.0292    0.0000 C   0  0  0  0  0  0  0  0  0  0  0  0
    0.0917   -1.0292    0.0000 C   0  0  0  0  0  0  0  0  0  0  0  0
   -2.1875   -1.2750    0.0000 C   0  0  0  0  0  0  0  0  0  0  0  0
   -2.4000    0.3458    0.0000 C   0  0  0  0  0  0  0  0  0  0  0  0
   -2.9000   -0.0292    0.0000 C   0  0  0  0  0  0  0  0  0  0  0  0
  2  6  1  0  0  0  0
  3  5  2  0  0  0  0
  4  1  1  0  0  0  0
  5  1  1  0  0  0  0
  6  1  2  0  0  0  0
  7  2  2  0  0  0  0
  8  2  1  0  0  0  0
  9  3  1  0  0  0  0
 10  4  2  0  0  0  0
 11  4  1  0  0  0  0
 12  8  1  0  0  0  0
 13  8  1  0  0  0  0
 14  8  1  0  0  0  0
 15  9  1  0  0  0  0
 16  9  1  0  0  0  0
 17  9  1  0  0  0  0
  7  3  1  0  0  0  0
M  END
> <IDNUMBER>
F9995-0424

> <Chemical_Name>
3,5-di-tert-butylbenzoic acid

> <CAS>
16225-26-6

> <PriceCoeff>
1.00

> <MW>
234.33

> <Description>
solid

> <FSP3>
0.53

> <clogP>
5.54

> <TPSA>
37.30

> <Acceptor>
2

> <Donor>
0

> <RotBonds>
1

> <HAC>
17

> <Collection>
General

> <Reference_compound>
CHEMBL93746

> <Similarity>
0.9030

$$$$
F2156-0063
  -ISIS-  06222321442D

 17 18  0  0  0  0  0  0  0  0999 V2000
    1.0750    0.2333    0.0000 C   0  0  0  0  0  0  0  0  0  0  0  0
   -0.3500    0.2250    0.0000 C   0  0  0  0  0  0  0  0  0  0  0  0
    0.3542    0.6458    0.0000 C   0  0  0  0  0  0  0  0  0  0  0  0
    1.0792   -0.5917    0.0000 C   0  0  0  0  0  0  0  0  0  0  0  0
    0.3667   -1.0125    0.0000 N   0  0  3  0  0  0  0  0  0  0  0  0
   -0.3500   -0.6000    0.0000 C   0  0  0  0  0  0  0  0  0  0  0  0
    1.7875    0.6500    0.0000 C   0  0  0  0  0  0  0  0  0  0  0  0
   -1.0708   -1.0167    0.0000 C   0  0  0  0  0  0  0  0  0  0  0  0
   -1.0708    0.6375    0.0000 C   0  0  0  0  0  0  0  0  0  0  0  0
    0.3542    1.4708    0.0000 O   0  0  0  0  0  0  0  0  0  0  0  0
    1.7792    1.4750    0.0000 O   0  0  0  0  0  0  0  0  0  0  0  0
   -1.7833    0.2250    0.0000 C   0  0  0  0  0  0  0  0  0  0  0  0
    2.5042    0.2458    0.0000 O   0  0  0  0  0  0  0  0  0  0  0  0
   -1.7833   -0.6042    0.0000 C   0  0  0  0  0  0  0  0  0  0  0  0
    0.3667   -1.8375    0.0000 C   0  0  0  0  0  0  0  0  0  0  0  0
   -2.4958    0.6333    0.0000 F   0  0  0  0  0  0  0  0  0  0  0  0
    1.0792   -2.2417    0.0000 C   0  0  0  0  0  0  0  0  0  0  0  0
  2  3  1  0  0  0  0
  3  1  1  0  0  0  0
  4  1  2  0  0  0  0
  5  4  1  0  0  0  0
  6  5  1  0  0  0  0
  7  1  1  0  0  0  0
  8  6  2  0  0  0  0
  9  2  2  0  0  0  0
 10  3  2  0  0  0  0
 11  7  2  0  0  0  0
 12  9  1  0  0  0  0
 13  7  1  0  0  0  0
 14  8  1  0  0  0  0
 15  5  1  0  0  0  0
 16 12  1  0  0  0  0
 17 15  1  0  0  0  0
  6  2  1  0  0  0  0
 14 12  2  0  0  0  0
M  END
> <IDNUMBER>
F2156-0063

> <Chemical_Name>
1-ethyl-6-fluoro-4-oxo-1,4-dihydroquinoline-3-carboxylic acid

> <CAS>
3832-97-1

> <PriceCoeff>
1.00

> <MW>
235.21

> <Description>
solid

> <FSP3>
0.17

> <clogP>
1.93

> <TPSA>
57.61

> <Acceptor>
4

> <Donor>
1

> <RotBonds>
2

> <HAC>
17

> <Collection>
General

> <Reference_compound>
CHEMBL8

> <Similarity>
0.8180

$$$$
F6451-0068
  -ISIS-  06222321462D

 23 24  0  0  0  0  0  0  0  0999 V2000
   -5.2833    2.5708    0.0000 N   0  0  3  0  0  0  0  0  0  0  0  0
   -5.3708    1.7458    0.0000 C   0  0  0  0  0  0  0  0  0  0  0  0
   -6.0292    2.9000    0.0000 C   0  0  0  0  0  0  0  0  0  0  0  0
   -3.1458    6.2792    0.0000 C   0  0  0  0  0  0  0  0  0  0  0  0
   -4.5833    2.9875    0.0000 C   0  0  0  0  0  0  0  0  0  0  0  0
   -4.5833    3.8000    0.0000 C   0  0  0  0  0  0  0  0  0  0  0  0
   -3.8625    4.2125    0.0000 N   0  0  0  0  0  0  0  0  0  0  0  0
   -6.1667    1.5708    0.0000 C   0  0  0  0  0  0  0  0  0  0  0  0
   -6.5792    2.2833    0.0000 C   0  0  0  0  0  0  0  0  0  0  0  0
   -4.7500    1.1833    0.0000 O   0  0  0  0  0  0  0  0  0  0  0  0
   -6.2042    3.7083    0.0000 O   0  0  0  0  0  0  0  0  0  0  0  0
   -3.8708    6.6875    0.0000 C   0  0  0  0  0  0  0  0  0  0  0  0
   -3.1458    5.4500    0.0000 C   0  0  3  0  0  0  0  0  0  0  0  0
   -5.2958    4.2125    0.0000 O   0  0  0  0  0  0  0  0  0  0  0  0
   -3.8625    5.0292    0.0000 C   0  0  0  0  0  0  0  0  0  0  0  0
   -4.5958    6.2667    0.0000 O   0  0  0  0  0  0  0  0  0  0  0  0
   -2.4333    5.0292    0.0000 O   0  0  0  0  0  0  0  0  0  0  0  0
   -2.4375    6.7042    0.0000 C   0  0  0  0  0  0  0  0  0  0  0  0
   -3.8708    7.5292    0.0000 C   0  0  0  0  0  0  0  0  0  0  0  0
   -5.3083    6.6792    0.0000 C   0  0  0  0  0  0  0  0  0  0  0  0
   -1.7208    5.4625    0.0000 C   0  0  0  0  0  0  0  0  0  0  0  0
   -2.4375    7.5250    0.0000 C   0  0  0  0  0  0  0  0  0  0  0  0
   -3.1500    7.9375    0.0000 C   0  0  0  0  0  0  0  0  0  0  0  0
  2  1  1  0  0  0  0
  3  1  1  0  0  0  0
  4 13  1  0  0  0  0
  5  1  1  0  0  0  0
  6  5  1  0  0  0  0
  7  6  1  0  0  0  0
  8  2  1  0  0  0  0
  9  3  1  0  0  0  0
 10  2  2  0  0  0  0
 11  3  2  0  0  0  0
 12  4  1  0  0  0  0
 13 15  1  0  0  0  0
 14  6  2  0  0  0  0
 15  7  1  0  0  0  0
 16 12  1  0  0  0  0
 17 13  1  0  0  0  0
 18  4  2  0  0  0  0
 19 12  2  0  0  0  0
 20 16  1  0  0  0  0
 21 17  1  0  0  0  0
 22 18  1  0  0  0  0
 23 22  2  0  0  0  0
  9  8  1  0  0  0  0
 19 23  1  0  0  0  0
M  END
> <IDNUMBER>
F6451-0068

> <Chemical_Name>
2-(2,5-dioxopyrrolidin-1-yl)-N-[2-methoxy-2-(2-methoxyphenyl)ethyl]acetamide

> <CAS>
1788677-81-5

> <PriceCoeff>
1.00

> <MW>
320.34

> <Description>
solid

> <FSP3>
0.44

> <clogP>
0.77

> <TPSA>
84.94

> <Acceptor>
5

> <Donor>
1

> <RotBonds>
7

> <HAC>
23

> <Collection>
General

$$$$
F5494-0170
  -ISIS-  06222321152D

 31 34  0  0  0  0  0  0  0  0999 V2000
   -3.8458    1.6833    0.0000 S   0  0  3  0  0  0  0  0  0  0  0  0
   -0.0708    2.7708    0.0000 C   0  0  0  0  0  0  0  0  0  0  0  0
   -0.8375    2.4750    0.0000 S   0  0  0  0  0  0  0  0  0  0  0  0
   -3.0250    0.2458    0.0000 N   0  0  3  0  0  0  0  0  0  0  0  0
   -1.3500    3.1208    0.0000 C   0  0  0  0  0  0  0  0  0  0  0  0
   -0.1083    3.5833    0.0000 N   0  0  0  0  0  0  0  0  0  0  0  0
   -0.8958    3.8000    0.0000 N   0  0  0  0  0  0  0  0  0  0  0  0
   -3.4208    2.4000    0.0000 N   0  0  3  0  0  0  0  0  0  0  0  0
    0.6250    2.3208    0.0000 C   0  0  0  0  0  0  0  0  0  0  0  0
   -4.2708    0.9708    0.0000 C   0  0  0  0  0  0  0  0  0  0  0  0
   -2.1833    3.1208    0.0000 C   0  0  3  0  0  0  0  0  0  0  0  0
   -2.6083    0.9583    0.0000 C   0  0  0  0  0  0  0  0  0  0  0  0
   -2.6208   -0.4792    0.0000 C   0  0  0  0  0  0  0  0  0  0  0  0
   -3.8583    0.2458    0.0000 C   0  0  0  0  0  0  0  0  0  0  0  0
   -2.5958    2.4000    0.0000 C   0  0  0  0  0  0  0  0  0  0  0  0
   -3.1208    1.2583    0.0000 O   0  0  0  0  0  0  0  0  0  0  0  0
   -4.5625    2.1000    0.0000 O   0  0  0  0  0  0  0  0  0  0  0  0
    1.3667    2.6833    0.0000 C   0  0  0  0  0  0  0  0  0  0  0  0
   -3.0208    1.6833    0.0000 O   0  0  0  0  0  0  0  0  0  0  0  0
   -3.0375   -1.2000    0.0000 O   0  0  0  0  0  0  0  0  0  0  0  0
   -3.8333    3.1208    0.0000 C   0  0  0  0  0  0  0  0  0  0  0  0
    1.4417    3.4625    0.0000 F   0  0  0  0  0  0  0  0  0  0  0  0
   -2.5958    3.8333    0.0000 C   0  0  0  0  0  0  0  0  0  0  0  0
    0.5792    1.4833    0.0000 C   0  0  0  0  0  0  0  0  0  0  0  0
   -1.7833    0.9500    0.0000 C   0  0  0  0  0  0  0  0  0  0  0  0
   -1.7958   -0.4750    0.0000 C   0  0  0  0  0  0  0  0  0  0  0  0
   -3.4208    3.8333    0.0000 C   0  0  0  0  0  0  0  0  0  0  0  0
   -1.3708    0.2375    0.0000 C   0  0  0  0  0  0  0  0  0  0  0  0
    2.0625    2.2333    0.0000 C   0  0  0  0  0  0  0  0  0  0  0  0
    1.2750    1.0333    0.0000 C   0  0  0  0  0  0  0  0  0  0  0  0
    2.0167    1.4083    0.0000 C   0  0  0  0  0  0  0  0  0  0  0  0
  2  3  1  0  0  0  0
  3  5  1  0  0  0  0
  4 14  1  0  0  0  0
  5 11  1  0  0  0  0
  6  7  1  0  0  0  0
  7  5  2  0  0  0  0
  8  1  1  0  0  0  0
  9  2  1  0  0  0  0
 10  1  1  0  0  0  0
 11 15  1  0  0  0  0
 12  4  1  0  0  0  0
 13  4  1  0  0  0  0
 14 10  1  0  0  0  0
 15  8  1  0  0  0  0
 16  1  2  0  0  0  0
 17  1  2  0  0  0  0
 18  9  1  0  0  0  0
 19 12  2  0  0  0  0
 20 13  2  0  0  0  0
 21  8  1  0  0  0  0
 22 18  1  0  0  0  0
 23 27  1  0  0  0  0
 24  9  2  0  0  0  0
 25 12  1  0  0  0  0
 26 13  1  0  0  0  0
 27 21  1  0  0  0  0
 28 26  1  0  0  0  0
 29 18  2  0  0  0  0
 30 24  1  0  0  0  0
 31 30  2  0  0  0  0
 23 11  1  0  0  0  0
 28 25  1  0  0  0  0
  6  2  2  0  0  0  0
 29 31  1  0  0  0  0
M  END
> <IDNUMBER>
F5494-0170

> <Chemical_Name>
1-[2-({3-[5-(2-fluorophenyl)-1,3,4-thiadiazol-2-yl]piperidin-1-yl}sulfonyl)ethyl]piperidine-2,6-dione

> <CAS>
1170432-31-1

> <PriceCoeff>
1.00

> <MW>
466.55

> <Description>
solid

> <FSP3>
0.50

> <clogP>
2.16

> <TPSA>
137.16

> <Acceptor>
6

> <Donor>
0

> <RotBonds>
6

> <HAC>
31

> <Collection>
General

$$$$
F6414-0594
  -ISIS-  06222321152D

 24 26  0  0  0  0  0  0  0  0999 V2000
   -2.4458    7.5292    0.0000 C   0  0  0  0  0  0  0  0  0  0  0  0
   -4.5833    3.8000    0.0000 C   0  0  0  0  0  0  0  0  0  0  0  0
   -2.4375    6.7042    0.0000 C   0  0  0  0  0  0  0  0  0  0  0  0
   -3.1583    6.2792    0.0000 C   0  0  0  0  0  0  0  0  0  0  0  0
   -3.1625    7.9417    0.0000 C   0  0  0  0  0  0  0  0  0  0  0  0
   -5.3000    2.5708    0.0000 C   0  0  0  0  0  0  0  0  0  0  0  0
   -4.5708    2.9708    0.0000 C   0  0  0  0  0  0  0  0  0  0  0  0
   -3.8625    4.2125    0.0000 N   0  0  0  0  0  0  0  0  0  0  0  0
   -1.7375    7.9417    0.0000 O   0  0  0  0  0  0  0  0  0  0  0  0
   -3.1750    8.7667    0.0000 O   0  0  0  0  0  0  0  0  0  0  0  0
   -6.0042    2.9833    0.0000 C   0  0  0  0  0  0  0  0  0  0  0  0
   -3.8750    6.7000    0.0000 C   0  0  0  0  0  0  0  0  0  0  0  0
   -5.2875    4.2167    0.0000 O   0  0  0  0  0  0  0  0  0  0  0  0
   -3.8833    7.5292    0.0000 C   0  0  0  0  0  0  0  0  0  0  0  0
   -3.8625    5.0292    0.0000 C   0  0  0  0  0  0  0  0  0  0  0  0
   -3.1500    5.4542    0.0000 C   0  0  3  0  0  0  0  0  0  0  0  0
   -6.0042    3.8083    0.0000 Cl  0  0  0  0  0  0  0  0  0  0  0  0
   -2.4333    5.0417    0.0000 O   0  0  0  0  0  0  0  0  0  0  0  0
   -5.3208    1.7500    0.0000 C   0  0  0  0  0  0  0  0  0  0  0  0
   -1.7375    8.7750    0.0000 C   0  0  0  0  0  0  0  0  0  0  0  0
   -2.4583    9.1792    0.0000 C   0  0  0  0  0  0  0  0  0  0  0  0
   -6.7292    2.5875    0.0000 C   0  0  0  0  0  0  0  0  0  0  0  0
   -6.0167    1.3333    0.0000 C   0  0  0  0  0  0  0  0  0  0  0  0
   -6.7417    1.7583    0.0000 C   0  0  0  0  0  0  0  0  0  0  0  0
  2  8  1  0  0  0  0
  3  1  1  0  0  0  0
  4  3  2  0  0  0  0
  5  1  2  0  0  0  0
  6  7  1  0  0  0  0
  7  2  1  0  0  0  0
  8 15  1  0  0  0  0
  9  1  1  0  0  0  0
 10  5  1  0  0  0  0
 11  6  2  0  0  0  0
 12 14  2  0  0  0  0
 13  2  2  0  0  0  0
 14  5  1  0  0  0  0
 15 16  1  0  0  0  0
 16  4  1  0  0  0  0
 17 11  1  0  0  0  0
 18 16  1  0  0  0  0
 19  6  1  0  0  0  0
 20  9  1  0  0  0  0
 21 20  1  0  0  0  0
 22 11  1  0  0  0  0
 23 19  2  0  0  0  0
 24 23  1  0  0  0  0
 10 21  1  0  0  0  0
  4 12  1  0  0  0  0
 24 22  2  0  0  0  0
M  END
> <IDNUMBER>
F6414-0594

> <Chemical_Name>
2-(2-chlorophenyl)-N-[2-(2,3-dihydro-1,4-benzodioxin-6-yl)-2-hydroxyethyl]acetamide

> <CAS>
2034585-24-3

> <PriceCoeff>
1.00

> <MW>
347.79

> <Description>
oil

> <FSP3>
0.28

> <clogP>
2.52

> <TPSA>
67.79

> <Acceptor>
4

> <Donor>
2

> <RotBonds>
5

> <HAC>
24

> <Collection>
General

> <Reference_compound>
CHEMBL552027

> <Similarity>
0.8220

$$$$
F0349-4134
  -ISIS-  06222321442D

 15 17  0  0  0  0  0  0  0  0999 V2000
   -2.1500    0.9000    0.0000 C   0  0  0  0  0  0  0  0  0  0  0  0
   -2.7125    1.6833    0.0000 N   0  0  0  0  0  0  0  0  0  0  0  0
   -2.7125    0.1333    0.0000 N   0  0  0  0  0  0  0  0  0  0  0  0
   -1.3333    0.9000    0.0000 C   0  0  0  0  0  0  0  0  0  0  0  0
   -3.6125    1.3708    0.0000 C   0  0  0  0  0  0  0  0  0  0  0  0
   -3.6125    0.4333    0.0000 C   0  0  0  0  0  0  0  0  0  0  0  0
    0.1000    1.7208    0.0000 N   0  0  0  0  0  0  0  0  0  0  0  0
   -0.8458    1.7208    0.0000 C   0  0  0  0  0  0  0  0  0  0  0  0
   -0.8625    0.0833    0.0000 C   0  0  0  0  0  0  0  0  0  0  0  0
   -4.4333    1.8500    0.0000 C   0  0  0  0  0  0  0  0  0  0  0  0
   -4.4333   -0.0500    0.0000 C   0  0  0  0  0  0  0  0  0  0  0  0
    0.5500    0.9000    0.0000 C   0  0  0  0  0  0  0  0  0  0  0  0
    0.0667    0.0833    0.0000 C   0  0  0  0  0  0  0  0  0  0  0  0
   -5.2708    0.4333    0.0000 C   0  0  0  0  0  0  0  0  0  0  0  0
   -5.2708    1.3708    0.0000 C   0  0  0  0  0  0  0  0  0  0  0  0
  2  1  2  0  0  0  0
  3  1  1  0  0  0  0
  4  1  1  0  0  0  0
  5  2  1  0  0  0  0
  6  3  1  0  0  0  0
  7  8  2  0  0  0  0
  8  4  1  0  0  0  0
  9  4  2  0  0  0  0
 10  5  1  0  0  0  0
 11  6  1  0  0  0  0
 12 13  2  0  0  0  0
 13  9  1  0  0  0  0
 14 11  2  0  0  0  0
 15 10  2  0  0  0  0
  5  6  2  0  0  0  0
 12  7  1  0  0  0  0
 14 15  1  0  0  0  0
M  END
> <IDNUMBER>
F0349-4134

> <Chemical_Name>
2-(pyridin-3-yl)-1H-1,3-benzodiazole

> <CAS>
1137-67-3

> <PriceCoeff>
1.00

> <MW>
195.22

> <Description>
solid

> <FSP3>
0.00

> <clogP>
2.32

> <TPSA>
41.57

> <Acceptor>
3

> <Donor>
3

> <RotBonds>
1

> <HAC>
15

> <Collection>
General

> <Reference_compound>
CHEMBL379376

> <Similarity>
0.8310

$$$$
F6443-0044
  -ISIS-  06222321442D

 25 27  0  0  0  0  0  0  0  0999 V2000
   -4.5833    2.5708    0.0000 N   0  0  3  0  0  0  0  0  0  0  0  0
   -4.6708    1.7458    0.0000 C   0  0  0  0  0  0  0  0  0  0  0  0
   -5.3208    2.9000    0.0000 C   0  0  0  0  0  0  0  0  0  0  0  0
   -3.1208    7.5042    0.0000 N   0  0  3  0  0  0  0  0  0  0  0  0
   -3.8708    3.8000    0.0000 C   0  0  0  0  0  0  0  0  0  0  0  0
   -3.8708    2.9833    0.0000 C   0  0  0  0  0  0  0  0  0  0  0  0
   -3.1333    6.6792    0.0000 C   0  0  0  0  0  0  0  0  0  0  0  0
   -3.1583    4.2042    0.0000 N   0  0  0  0  0  0  0  0  0  0  0  0
   -2.4000    7.9042    0.0000 C   0  0  0  0  0  0  0  0  0  0  0  0
   -5.8708    2.2958    0.0000 C   0  0  0  0  0  0  0  0  0  0  0  0
   -5.4583    1.5833    0.0000 C   0  0  0  0  0  0  0  0  0  0  0  0
   -5.4875    3.7083    0.0000 O   0  0  0  0  0  0  0  0  0  0  0  0
   -4.0458    1.1833    0.0000 O   0  0  0  0  0  0  0  0  0  0  0  0
   -4.5833    4.2042    0.0000 O   0  0  0  0  0  0  0  0  0  0  0  0
   -2.4250    6.2625    0.0000 C   0  0  0  0  0  0  0  0  0  0  0  0
   -3.8458    6.2792    0.0000 C   0  0  0  0  0  0  0  0  0  0  0  0
   -3.1583    5.0333    0.0000 C   0  0  0  0  0  0  0  0  0  0  0  0
   -3.8250    7.9250    0.0000 C   0  0  0  0  0  0  0  0  0  0  0  0
   -3.8625    5.4542    0.0000 C   0  0  0  0  0  0  0  0  0  0  0  0
   -2.4333    5.4417    0.0000 C   0  0  0  0  0  0  0  0  0  0  0  0
   -2.3875    8.7292    0.0000 C   0  0  3  0  0  0  0  0  0  0  0  0
   -1.6750    9.1250    0.0000 O   0  0  0  0  0  0  0  0  0  0  0  0
   -3.8125    8.7500    0.0000 C   0  0  0  0  0  0  0  0  0  0  0  0
   -3.0958    9.1500    0.0000 C   0  0  0  0  0  0  0  0  0  0  0  0
   -0.9708    8.7042    0.0000 C   0  0  0  0  0  0  0  0  0  0  0  0
  2  1  1  0  0  0  0
  3  1  1  0  0  0  0
  4  7  1  0  0  0  0
  5  6  1  0  0  0  0
  6  1  1  0  0  0  0
  7 15  1  0  0  0  0
  8  5  1  0  0  0  0
  9  4  1  0  0  0  0
 10  3  1  0  0  0  0
 11  2  1  0  0  0  0
 12  3  2  0  0  0  0
 13  2  2  0  0  0  0
 14  5  2  0  0  0  0
 15 20  2  0  0  0  0
 16 19  1  0  0  0  0
 17  8  1  0  0  0  0
 18  4  1  0  0  0  0
 19 17  2  0  0  0  0
 20 17  1  0  0  0  0
 21  9  1  0  0  0  0
 22 21  1  0  0  0  0
 23 18  1  0  0  0  0
 24 23  1  0  0  0  0
 25 22  1  0  0  0  0
 11 10  1  0  0  0  0
 16  7  2  0  0  0  0
 24 21  1  0  0  0  0
M  END
> <IDNUMBER>
F6443-0044

> <Chemical_Name>
2-(2,5-dioxopyrrolidin-1-yl)-N-[4-(3-methoxypiperidin-1-yl)phenyl]acetamide

> <CAS>
1797021-90-9

> <PriceCoeff>
1.00

> <MW>
345.39

> <Description>
solid

> <FSP3>
0.50

> <clogP>
0.87

> <TPSA>
78.95

> <Acceptor>
5

> <Donor>
2

> <RotBonds>
5

> <HAC>
25

> <Collection>
General

$$$$
F5460-0040
  -ISIS-  06222321152D

 26 29  0  0  0  0  0  0  0  0999 V2000
   -4.0208    5.3875    0.0000 N   0  0  3  0  0  0  0  0  0  0  0  0
   -4.7583    5.2292    0.0000 C   0  0  0  0  0  0  0  0  0  0  0  0
   -3.4458    4.9042    0.0000 C   0  0  0  0  0  0  0  0  0  0  0  0
   -2.2708    2.6000    0.0000 N   0  0  3  0  0  0  0  0  0  0  0  0
   -5.2833    5.7625    0.0000 N   0  0  0  0  0  0  0  0  0  0  0  0
   -3.7458    6.0792    0.0000 N   0  0  0  0  0  0  0  0  0  0  0  0
   -5.0833    4.5750    0.0000 S   0  0  0  0  0  0  0  0  0  0  0  0
   -2.8208    5.3167    0.0000 C   0  0  0  0  0  0  0  0  0  0  0  0
   -3.4875    4.1542    0.0000 N   0  0  0  0  0  0  0  0  0  0  0  0
   -2.1500    1.8583    0.0000 C   0  0  0  0  0  0  0  0  0  0  0  0
   -1.6083    2.9458    0.0000 C   0  0  0  0  0  0  0  0  0  0  0  0
   -2.9958    6.0292    0.0000 C   0  0  0  0  0  0  0  0  0  0  0  0
   -2.8625    3.7583    0.0000 C   0  0  0  0  0  0  0  0  0  0  0  0
   -5.9583    5.4167    0.0000 C   0  0  0  0  0  0  0  0  0  0  0  0
   -5.8208    4.6792    0.0000 C   0  0  0  0  0  0  0  0  0  0  0  0
   -2.9000    3.0083    0.0000 C   0  0  0  0  0  0  0  0  0  0  0  0
   -1.0750    2.4125    0.0000 C   0  0  0  0  0  0  0  0  0  0  0  0
   -1.4125    1.7458    0.0000 C   0  0  0  0  0  0  0  0  0  0  0  0
   -1.4875    3.6875    0.0000 O   0  0  0  0  0  0  0  0  0  0  0  0
   -2.6708    1.3333    0.0000 O   0  0  0  0  0  0  0  0  0  0  0  0
   -2.2000    4.0917    0.0000 O   0  0  0  0  0  0  0  0  0  0  0  0
   -2.5083    6.6042    0.0000 C   0  0  0  0  0  0  0  0  0  0  0  0
   -6.6500    5.6667    0.0000 C   0  0  0  0  0  0  0  0  0  0  0  0
   -6.3917    4.2042    0.0000 C   0  0  0  0  0  0  0  0  0  0  0  0
   -7.0917    4.4667    0.0000 C   0  0  0  0  0  0  0  0  0  0  0  0
   -7.2292    5.1917    0.0000 C   0  0  0  0  0  0  0  0  0  0  0  0
  2  1  1  0  0  0  0
  3  1  1  0  0  0  0
  4 16  1  0  0  0  0
  5  2  2  0  0  0  0
  6  1  1  0  0  0  0
  7  2  1  0  0  0  0
  8  3  2  0  0  0  0
  9  3  1  0  0  0  0
 10  4  1  0  0  0  0
 11  4  1  0  0  0  0
 12  6  2  0  0  0  0
 13  9  1  0  0  0  0
 14  5  1  0  0  0  0
 15  7  1  0  0  0  0
 16 13  1  0  0  0  0
 17 11  1  0  0  0  0
 18 10  1  0  0  0  0
 19 11  2  0  0  0  0
 20 10  2  0  0  0  0
 21 13  2  0  0  0  0
 22 12  1  0  0  0  0
 23 14  1  0  0  0  0
 24 15  1  0  0  0  0
 25 24  2  0  0  0  0
 26 23  2  0  0  0  0
 12  8  1  0  0  0  0
 14 15  2  0  0  0  0
 25 26  1  0  0  0  0
 17 18  1  0  0  0  0
M  END
> <IDNUMBER>
F5460-0040

> <Chemical_Name>
N-[1-(1,3-benzothiazol-2-yl)-3-methyl-1H-pyrazol-5-yl]-2-(2,5-dioxopyrrolidin-1-yl)acetamide

> <CAS>
1172976-51-0

> <PriceCoeff>
1.00

> <MW>
369.40

> <Description>
solid

> <FSP3>
0.24

> <clogP>
1.80

> <TPSA>
125.43

> <Acceptor>
5

> <Donor>
1

> <RotBonds>
4

> <HAC>
26

> <Collection>
General

$$$$
F2477-0100
  -ISIS-  06222321462D

 21 22  0  0  0  0  0  0  0  0999 V2000
    3.6292    2.1000    0.0000 C   0  0  0  0  0  0  0  0  0  0  0  0
    3.6292    3.5000    0.0000 C   0  0  0  0  0  0  0  0  0  0  0  0
    4.9667    1.6708    0.0000 N   0  0  0  0  0  0  0  0  0  0  0  0
    2.4250    1.4000    0.0000 N   0  0  3  0  0  0  0  0  0  0  0  0
    1.2125    3.5000    0.0000 N   0  0  3  0  0  0  0  0  0  0  0  0
    4.9667    3.9333    0.0000 N   0  0  3  0  0  0  0  0  0  0  0  0
    1.2042    2.1000    0.0000 C   0  0  0  0  0  0  0  0  0  0  0  0
    2.4167    4.2000    0.0000 C   0  0  0  0  0  0  0  0  0  0  0  0
    5.7875    2.8000    0.0000 C   0  0  0  0  0  0  0  0  0  0  0  0
    5.4000    5.2625    0.0000 C   0  0  0  0  0  0  0  0  0  0  0  0
    0.2167    1.1083    0.0000 O   0  0  0  0  0  0  0  0  0  0  0  0
    2.4250    5.5917    0.0000 O   0  0  0  0  0  0  0  0  0  0  0  0
    7.1917    2.8000    0.0000 N   0  0  0  0  0  0  0  0  0  0  0  0
    2.4167   -0.0000    0.0000 C   0  0  0  0  0  0  0  0  0  0  0  0
    0.0000    4.1917    0.0000 C   0  0  0  0  0  0  0  0  0  0  0  0
    6.7667    5.5542    0.0000 C   0  0  3  0  0  0  0  0  0  0  0  0
    7.8875    1.5875    0.0000 C   0  0  0  0  0  0  0  0  0  0  0  0
    9.2875    1.5833    0.0000 C   0  0  0  0  0  0  0  0  0  0  0  0
    7.7042    4.5167    0.0000 C   0  0  0  0  0  0  0  0  0  0  0  0
    7.2000    6.8875    0.0000 C   0  0  0  0  0  0  0  0  0  0  0  0
    9.9875    0.3708    0.0000 C   0  0  0  0  0  0  0  0  0  0  0  0
  2  1  2  0  0  0  0
  3  1  1  0  0  0  0
  4  1  1  0  0  0  0
  5  7  1  0  0  0  0
  6  2  1  0  0  0  0
  7  4  1  0  0  0  0
  8  2  1  0  0  0  0
  9  3  2  0  0  0  0
 10  6  1  0  0  0  0
 11  7  2  0  0  0  0
 12  8  2  0  0  0  0
 13  9  1  0  0  0  0
 14  4  1  0  0  0  0
 15  5  1  0  0  0  0
 16 10  1  0  0  0  0
 17 13  1  0  0  0  0
 18 17  1  0  0  0  0
 19 16  1  0  0  0  0
 20 16  1  0  0  0  0
 21 18  1  0  0  0  0
  6  9  1  0  0  0  0
  5  8  1  0  0  0  0
M  END
> <IDNUMBER>
F2477-0100

> <Chemical_Name>
1,3-dimethyl-7-(2-methylpropyl)-8-(propylamino)-2,3,6,7-tetrahydro-1H-purine-2,6-dione

> <CAS>
941993-70-0

> <PriceCoeff>
1.00

> <MW>
293.36

> <Description>
solid

> <FSP3>
0.64

> <clogP>
3.03

> <TPSA>
70.47

> <Acceptor>
3

> <Donor>
2

> <RotBonds>
5

> <HAC>
21

> <Collection>
General

> <Reference_compound>
CHEMBL113

> <Similarity>
0.8000

$$$$
F6439-0833
  -ISIS-  06222321152D

 28 31  0  0  0  0  0  0  0  0999 V2000
   -2.4750    6.7667    0.0000 N   0  0  0  0  0  0  0  0  0  0  0  0
   -2.7250    7.5542    0.0000 C   0  0  0  0  0  0  0  0  0  0  0  0
   -3.5625    7.5542    0.0000 C   0  0  0  0  0  0  0  0  0  0  0  0
   -5.2833    2.5708    0.0000 N   0  0  3  0  0  0  0  0  0  0  0  0
   -3.1500    6.2792    0.0000 N   0  0  3  0  0  0  0  0  0  0  0  0
   -3.8125    6.7667    0.0000 C   0  0  0  0  0  0  0  0  0  0  0  0
   -5.3708    1.7458    0.0000 C   0  0  0  0  0  0  0  0  0  0  0  0
   -6.0292    2.9000    0.0000 C   0  0  0  0  0  0  0  0  0  0  0  0
   -4.5833    2.9875    0.0000 C   0  0  0  0  0  0  0  0  0  0  0  0
   -2.2500    8.2292    0.0000 C   0  0  0  0  0  0  0  0  0  0  0  0
   -4.5833    3.8000    0.0000 C   0  0  0  0  0  0  0  0  0  0  0  0
   -1.4250    8.1417    0.0000 N   0  0  0  0  0  0  0  0  0  0  0  0
   -6.5750    2.2833    0.0000 C   0  0  0  0  0  0  0  0  0  0  0  0
   -6.1667    1.5708    0.0000 C   0  0  0  0  0  0  0  0  0  0  0  0
   -6.2042    3.7083    0.0000 O   0  0  0  0  0  0  0  0  0  0  0  0
   -4.7500    1.1833    0.0000 O   0  0  0  0  0  0  0  0  0  0  0  0
   -3.1500    5.4500    0.0000 C   0  0  0  0  0  0  0  0  0  0  0  0
   -5.3000    4.2042    0.0000 O   0  0  0  0  0  0  0  0  0  0  0  0
   -3.8625    4.2042    0.0000 N   0  0  0  0  0  0  0  0  0  0  0  0
   -4.1000    8.1750    0.0000 C   0  0  0  0  0  0  0  0  0  0  0  0
   -3.8625    5.0417    0.0000 C   0  0  0  0  0  0  0  0  0  0  0  0
   -4.6250    6.5792    0.0000 C   0  0  0  0  0  0  0  0  0  0  0  0
   -0.9500    8.8042    0.0000 C   0  0  0  0  0  0  0  0  0  0  0  0
   -2.5833    8.9750    0.0000 C   0  0  0  0  0  0  0  0  0  0  0  0
   -4.9125    8.0042    0.0000 C   0  0  0  0  0  0  0  0  0  0  0  0
   -5.1750    7.2167    0.0000 C   0  0  0  0  0  0  0  0  0  0  0  0
   -1.2750    9.5542    0.0000 C   0  0  0  0  0  0  0  0  0  0  0  0
   -2.1083    9.6500    0.0000 C   0  0  0  0  0  0  0  0  0  0  0  0
  2  1  2  0  0  0  0
  3  2  1  0  0  0  0
  4  9  1  0  0  0  0
  5  1  1  0  0  0  0
  6  5  1  0  0  0  0
  7  4  1  0  0  0  0
  8  4  1  0  0  0  0
  9 11  1  0  0  0  0
 10  2  1  0  0  0  0
 11 19  1  0  0  0  0
 12 10  1  0  0  0  0
 13  8  1  0  0  0  0
 14  7  1  0  0  0  0
 15  8  2  0  0  0  0
 16  7  2  0  0  0  0
 17  5  1  0  0  0  0
 18 11  2  0  0  0  0
 19 21  1  0  0  0  0
 20  3  1  0  0  0  0
 21 17  1  0  0  0  0
 22  6  1  0  0  0  0
 23 12  2  0  0  0  0
 24 10  2  0  0  0  0
 25 20  1  0  0  0  0
 26 22  1  0  0  0  0
 27 28  2  0  0  0  0
 28 24  1  0  0  0  0
  6  3  2  0  0  0  0
 25 26  1  0  0  0  0
 27 23  1  0  0  0  0
 13 14  1  0  0  0  0
M  END
> <IDNUMBER>
F6439-0833

> <Chemical_Name>
2-(2,5-dioxopyrrolidin-1-yl)-N-{2-[3-(pyridin-2-yl)-4,5,6,7-tetrahydro-1H-indazol-1-yl]ethyl}acetamide

> <CAS>
1797670-95-1

> <PriceCoeff>
1.00

> <MW>
381.43

> <Description>
solid

> <FSP3>
0.45

> <clogP>
1.35

> <TPSA>
97.19

> <Acceptor>
5

> <Donor>
2

> <RotBonds>
6

> <HAC>
28

> <Collection>
General

$$$$
F3260-0811
  -ISIS-  06222321442D

 21 22  0  0  0  0  0  0  0  0999 V2000
    3.6375    2.1083    0.0000 C   0  0  0  0  0  0  0  0  0  0  0  0
    3.6375    3.5083    0.0000 C   0  0  0  0  0  0  0  0  0  0  0  0
    4.9667    1.6708    0.0000 N   0  0  0  0  0  0  0  0  0  0  0  0
    2.4250    1.4000    0.0000 N   0  0  3  0  0  0  0  0  0  0  0  0
    1.2125    3.5083    0.0000 N   0  0  3  0  0  0  0  0  0  0  0  0
    1.2125    2.1083    0.0000 C   0  0  0  0  0  0  0  0  0  0  0  0
    2.4250    4.2000    0.0000 C   0  0  0  0  0  0  0  0  0  0  0  0
    5.7917    2.8083    0.0000 C   0  0  0  0  0  0  0  0  0  0  0  0
    4.9667    3.9375    0.0000 N   0  0  3  0  0  0  0  0  0  0  0  0
    7.1917    2.8083    0.0000 N   0  0  0  0  0  0  0  0  0  0  0  0
    0.0000    1.4083    0.0000 O   0  0  0  0  0  0  0  0  0  0  0  0
    2.4167    5.5917    0.0000 O   0  0  0  0  0  0  0  0  0  0  0  0
    2.4167   -0.0000    0.0000 C   0  0  0  0  0  0  0  0  0  0  0  0
    0.0000    4.2000    0.0000 C   0  0  0  0  0  0  0  0  0  0  0  0
    5.7917    5.0667    0.0000 C   0  0  0  0  0  0  0  0  0  0  0  0
    7.8917    4.0125    0.0000 C   0  0  0  0  0  0  0  0  0  0  0  0
    9.2917    4.0125    0.0000 C   0  0  3  0  0  0  0  0  0  0  0  0
    5.2167    6.3417    0.0000 C   0  0  0  0  0  0  0  0  0  0  0  0
    9.9917    2.8083    0.0000 C   0  0  0  0  0  0  0  0  0  0  0  0
    9.9917    5.2167    0.0000 C   0  0  0  0  0  0  0  0  0  0  0  0
    6.0417    7.4667    0.0000 C   0  0  0  0  0  0  0  0  0  0  0  0
  2  1  2  0  0  0  0
  3  1  1  0  0  0  0
  4  1  1  0  0  0  0
  5  6  1  0  0  0  0
  6  4  1  0  0  0  0
  7  2  1  0  0  0  0
  8  3  2  0  0  0  0
  9  2  1  0  0  0  0
 10  8  1  0  0  0  0
 11  6  2  0  0  0  0
 12  7  2  0  0  0  0
 13  4  1  0  0  0  0
 14  5  1  0  0  0  0
 15  9  1  0  0  0  0
 16 10  1  0  0  0  0
 17 16  1  0  0  0  0
 18 15  1  0  0  0  0
 19 17  1  0  0  0  0
 20 17  1  0  0  0  0
 21 18  1  0  0  0  0
  8  9  1  0  0  0  0
  5  7  1  0  0  0  0
M  END
> <IDNUMBER>
F3260-0811

> <Chemical_Name>
1,3-dimethyl-8-[(2-methylpropyl)amino]-7-propyl-2,3,6,7-tetrahydro-1H-purine-2,6-dione

> <CAS>
1105197-76-9

> <PriceCoeff>
1.00

> <MW>
293.36

> <Description>
solid

> <FSP3>
0.64

> <clogP>
3.03

> <TPSA>
70.47

> <Acceptor>
3

> <Donor>
2

> <RotBonds>
5

> <HAC>
21

> <Collection>
General

> <Reference_compound>
CHEMBL113

> <Similarity>
0.8000

$$$$
F1800-0015
  -ISIS-  06222321452D

 20 21  0  0  0  0  0  0  0  0999 V2000
   -3.7583    2.3708    0.0000 N   0  0  3  0  0  0  0  0  0  0  0  0
   -3.3500    1.6500    0.0000 C   0  0  0  0  0  0  0  0  0  0  0  0
   -3.3333    3.0833    0.0000 C   0  0  0  0  0  0  0  0  0  0  0  0
   -4.9958    1.6625    0.0000 C   0  0  0  0  0  0  0  0  0  0  0  0
   -4.5833    0.9500    0.0000 N   0  0  0  0  0  0  0  0  0  0  0  0
   -4.9958    0.2375    0.0000 C   0  0  0  0  0  0  0  0  0  0  0  0
   -4.5833    2.3750    0.0000 C   0  0  0  0  0  0  0  0  0  0  0  0
   -4.5833   -0.4750    0.0000 C   0  0  0  0  0  0  0  0  0  0  0  0
   -2.1083    2.3458    0.0000 S   0  0  0  0  0  0  0  0  0  0  0  0
   -3.7708    0.9375    0.0000 O   0  0  0  0  0  0  0  0  0  0  0  0
   -3.7375    3.8000    0.0000 O   0  0  0  0  0  0  0  0  0  0  0  0
   -5.8208    1.6708    0.0000 O   0  0  0  0  0  0  0  0  0  0  0  0
   -4.9833   -1.1875    0.0000 C   0  0  0  0  0  0  0  0  0  0  0  0
   -2.5333    1.6458    0.0000 C   0  0  0  0  0  0  0  0  0  0  0  0
   -2.5083    3.0625    0.0000 C   0  0  0  0  0  0  0  0  0  0  0  0
   -5.8125    0.2375    0.0000 C   0  0  0  0  0  0  0  0  0  0  0  0
   -6.2167   -0.4750    0.0000 C   0  0  0  0  0  0  0  0  0  0  0  0
   -3.7500   -0.4667    0.0000 C   0  0  0  0  0  0  0  0  0  0  0  0
   -5.8125   -1.1917    0.0000 C   0  0  0  0  0  0  0  0  0  0  0  0
   -4.5708   -1.9000    0.0000 C   0  0  0  0  0  0  0  0  0  0  0  0
  2  1  1  0  0  0  0
  3  1  1  0  0  0  0
  4  7  1  0  0  0  0
  5  4  1  0  0  0  0
  6  5  1  0  0  0  0
  7  1  1  0  0  0  0
  8  6  1  0  0  0  0
  9 15  1  0  0  0  0
 10  2  2  0  0  0  0
 11  3  2  0  0  0  0
 12  4  2  0  0  0  0
 13  8  2  0  0  0  0
 14  2  1  0  0  0  0
 15  3  1  0  0  0  0
 16  6  2  0  0  0  0
 17 16  1  0  0  0  0
 18  8  1  0  0  0  0
 19 17  2  0  0  0  0
 20 13  1  0  0  0  0
 14  9  1  0  0  0  0
 13 19  1  0  0  0  0
M  END
> <IDNUMBER>
F1800-0015

> <Chemical_Name>
N-(2,3-dimethylphenyl)-2-(3,5-dioxothiomorpholin-4-yl)acetamide

> <CAS>
868215-06-9

> <PriceCoeff>
1.50

> <MW>
292.35

> <Description>
solid

> <FSP3>
0.36

> <clogP>
1.75

> <TPSA>
91.78

> <Acceptor>
3

> <Donor>
1

> <RotBonds>
3

> <HAC>
20

> <Collection>
Advanced

$$$$
F6372-1997
  -ISIS-  06222321152D

 28 31  0  0  0  0  0  0  0  0999 V2000
   -1.7833    3.6708    0.0000 N   0  0  3  0  0  0  0  0  0  0  0  0
   -1.8875    7.8542    0.0000 C   0  0  0  0  0  0  0  0  0  0  0  0
   -2.5583    7.3750    0.0000 N   0  0  0  0  0  0  0  0  0  0  0  0
   -1.2208    7.3750    0.0000 N   0  0  0  0  0  0  0  0  0  0  0  0
   -2.3000    6.5875    0.0000 C   0  0  0  0  0  0  0  0  0  0  0  0
   -1.3708    2.9542    0.0000 C   0  0  0  0  0  0  0  0  0  0  0  0
   -1.2333    4.2750    0.0000 C   0  0  0  0  0  0  0  0  0  0  0  0
   -1.8875    8.6792    0.0000 C   0  0  0  0  0  0  0  0  0  0  0  0
   -1.4750    6.5875    0.0000 O   0  0  0  0  0  0  0  0  0  0  0  0
   -2.9375    4.5000    0.0000 C   0  0  0  0  0  0  0  0  0  0  0  0
   -3.7583    4.5875    0.0000 N   0  0  0  0  0  0  0  0  0  0  0  0
   -2.6000    3.7500    0.0000 C   0  0  0  0  0  0  0  0  0  0  0  0
   -4.0958    5.3417    0.0000 C   0  0  0  0  0  0  0  0  0  0  0  0
   -3.6083    6.0042    0.0000 C   0  0  0  0  0  0  0  0  0  0  0  0
   -1.2208    9.1667    0.0000 O   0  0  0  0  0  0  0  0  0  0  0  0
   -2.7875    5.9167    0.0000 C   0  0  0  0  0  0  0  0  0  0  0  0
   -2.5583    9.1667    0.0000 C   0  0  0  0  0  0  0  0  0  0  0  0
   -0.5583    3.1208    0.0000 C   0  0  0  0  0  0  0  0  0  0  0  0
   -0.4750    3.9458    0.0000 C   0  0  0  0  0  0  0  0  0  0  0  0
   -1.7083    2.1958    0.0000 O   0  0  0  0  0  0  0  0  0  0  0  0
   -1.4000    5.0792    0.0000 O   0  0  0  0  0  0  0  0  0  0  0  0
   -2.4500    5.1667    0.0000 O   0  0  0  0  0  0  0  0  0  0  0  0
   -1.4750    9.9542    0.0000 C   0  0  0  0  0  0  0  0  0  0  0  0
   -2.3000    9.9542    0.0000 C   0  0  0  0  0  0  0  0  0  0  0  0
   -4.9125    5.4208    0.0000 C   0  0  0  0  0  0  0  0  0  0  0  0
   -3.9458    6.7625    0.0000 C   0  0  0  0  0  0  0  0  0  0  0  0
   -4.7667    6.8458    0.0000 C   0  0  0  0  0  0  0  0  0  0  0  0
   -5.2458    6.1792    0.0000 C   0  0  0  0  0  0  0  0  0  0  0  0
  2  3  1  0  0  0  0
  3  5  2  0  0  0  0
  4  9  1  0  0  0  0
  5 16  1  0  0  0  0
  6  1  1  0  0  0  0
  7  1  1  0  0  0  0
  8  2  1  0  0  0  0
  9  5  1  0  0  0  0
 10 12  1  0  0  0  0
 11 10  1  0  0  0  0
 12  1  1  0  0  0  0
 13 11  1  0  0  0  0
 14 13  1  0  0  0  0
 15  8  1  0  0  0  0
 16 14  1  0  0  0  0
 17  8  2  0  0  0  0
 18  6  1  0  0  0  0
 19  7  1  0  0  0  0
 20  6  2  0  0  0  0
 21  7  2  0  0  0  0
 22 10  2  0  0  0  0
 23 15  1  0  0  0  0
 24 17  1  0  0  0  0
 25 13  2  0  0  0  0
 26 14  2  0  0  0  0
 27 28  2  0  0  0  0
 28 25  1  0  0  0  0
 19 18  1  0  0  0  0
 26 27  1  0  0  0  0
  2  4  2  0  0  0  0
 24 23  2  0  0  0  0
M  END
> <IDNUMBER>
F6372-1997

> <Chemical_Name>
2-(2,5-dioxopyrrolidin-1-yl)-N-(2-{[3-(furan-2-yl)-1,2,4-oxadiazol-5-yl]methyl}phenyl)acetamide

> <CAS>
1797267-82-3

> <PriceCoeff>
1.00

> <MW>
380.35

> <Description>
solid

> <FSP3>
0.21

> <clogP>
0.64

> <TPSA>
118.54

> <Acceptor>
7

> <Donor>
1

> <RotBonds>
6

> <HAC>
28

> <Collection>
General

$$$$
F6439-1982
  -ISIS-  06222321152D

 26 29  0  0  0  0  0  0  0  0999 V2000
   -5.2833    2.5708    0.0000 N   0  0  3  0  0  0  0  0  0  0  0  0
   -2.4750    6.7667    0.0000 N   0  0  0  0  0  0  0  0  0  0  0  0
   -3.1500    6.2750    0.0000 N   0  0  3  0  0  0  0  0  0  0  0  0
   -2.7333    7.5542    0.0000 C   0  0  0  0  0  0  0  0  0  0  0  0
   -3.8250    6.7667    0.0000 C   0  0  0  0  0  0  0  0  0  0  0  0
   -3.5708    7.5500    0.0000 C   0  0  0  0  0  0  0  0  0  0  0  0
   -6.0292    2.9000    0.0000 C   0  0  0  0  0  0  0  0  0  0  0  0
   -5.3708    1.7458    0.0000 C   0  0  0  0  0  0  0  0  0  0  0  0
   -4.6083    6.5000    0.0000 C   0  0  3  0  0  0  0  0  0  0  0  0
   -2.2583    8.2167    0.0000 C   0  0  0  0  0  0  0  0  0  0  0  0
   -5.1583    5.8792    0.0000 C   0  0  0  0  0  0  0  0  0  0  0  0
   -5.4125    6.6750    0.0000 C   0  0  0  0  0  0  0  0  0  0  0  0
   -4.5833    2.9875    0.0000 C   0  0  0  0  0  0  0  0  0  0  0  0
   -2.5208    9.0042    0.0000 S   0  0  0  0  0  0  0  0  0  0  0  0
   -4.5833    3.8000    0.0000 C   0  0  0  0  0  0  0  0  0  0  0  0
   -1.4333    8.2292    0.0000 C   0  0  0  0  0  0  0  0  0  0  0  0
   -6.1667    1.5708    0.0000 C   0  0  0  0  0  0  0  0  0  0  0  0
   -6.5750    2.2833    0.0000 C   0  0  0  0  0  0  0  0  0  0  0  0
   -4.7500    1.1833    0.0000 O   0  0  0  0  0  0  0  0  0  0  0  0
   -6.2042    3.7083    0.0000 O   0  0  0  0  0  0  0  0  0  0  0  0
   -1.8500    9.4917    0.0000 C   0  0  0  0  0  0  0  0  0  0  0  0
   -3.1500    5.4500    0.0000 C   0  0  0  0  0  0  0  0  0  0  0  0
   -1.1750    9.0167    0.0000 C   0  0  0  0  0  0  0  0  0  0  0  0
   -5.3000    4.2042    0.0000 O   0  0  0  0  0  0  0  0  0  0  0  0
   -3.8625    4.2042    0.0000 N   0  0  0  0  0  0  0  0  0  0  0  0
   -3.8625    5.0292    0.0000 C   0  0  0  0  0  0  0  0  0  0  0  0
  2  3  1  0  0  0  0
  3 22  1  0  0  0  0
  4  2  2  0  0  0  0
  5  3  1  0  0  0  0
  6  5  2  0  0  0  0
  7  1  1  0  0  0  0
  8  1  1  0  0  0  0
  9  5  1  0  0  0  0
 10  4  1  0  0  0  0
 11  9  1  0  0  0  0
 12  9  1  0  0  0  0
 13  1  1  0  0  0  0
 14 10  1  0  0  0  0
 15 13  1  0  0  0  0
 16 10  2  0  0  0  0
 17  8  1  0  0  0  0
 18  7  1  0  0  0  0
 19  8  2  0  0  0  0
 20  7  2  0  0  0  0
 21 14  1  0  0  0  0
 22 26  1  0  0  0  0
 23 16  1  0  0  0  0
 24 15  2  0  0  0  0
 25 15  1  0  0  0  0
 26 25  1  0  0  0  0
 18 17  1  0  0  0  0
  6  4  1  0  0  0  0
 11 12  1  0  0  0  0
 23 21  2  0  0  0  0
M  END
> <IDNUMBER>
F6439-1982

> <Chemical_Name>
N-{2-[5-cyclopropyl-3-(thiophen-2-yl)-1H-pyrazol-1-yl]ethyl}-2-(2,5-dioxopyrrolidin-1-yl)acetamide

> <CAS>
1797327-16-2

> <PriceCoeff>
1.00

> <MW>
372.44

> <Description>
solid

> <FSP3>
0.44

> <clogP>
2.26

> <TPSA>
112.54

> <Acceptor>
4

> <Donor>
1

> <RotBonds>
7

> <HAC>
26

> <Collection>
General

$$$$
F3259-0265
  -ISIS-  06222321152D

 17 18  0  0  0  0  0  0  0  0999 V2000
    2.9292    2.4250    0.0000 C   0  0  0  0  0  0  0  0  0  0  0  0
    2.5542    1.7750    0.0000 C   0  0  0  0  0  0  0  0  0  0  0  0
    3.6792    2.4250    0.0000 N   0  0  3  0  0  0  0  0  0  0  0  0
    3.6792    1.1250    0.0000 N   0  0  3  0  0  0  0  0  0  0  0  0
    4.0542    1.7750    0.0000 C   0  0  0  0  0  0  0  0  0  0  0  0
    2.9292    1.1250    0.0000 C   0  0  0  0  0  0  0  0  0  0  0  0
    2.4292    2.9833    0.0000 N   0  0  0  0  0  0  0  0  0  0  0  0
    1.8250    1.9333    0.0000 N   0  0  3  0  0  0  0  0  0  0  0  0
    1.7417    2.6833    0.0000 C   0  0  0  0  0  0  0  0  0  0  0  0
    1.2667    1.4333    0.0000 C   0  0  0  0  0  0  0  0  0  0  0  0
    4.8042    1.7750    0.0000 O   0  0  0  0  0  0  0  0  0  0  0  0
    2.5542    0.4833    0.0000 O   0  0  0  0  0  0  0  0  0  0  0  0
    4.0542    3.0833    0.0000 C   0  0  0  0  0  0  0  0  0  0  0  0
    4.0542    0.4833    0.0000 C   0  0  0  0  0  0  0  0  0  0  0  0
    0.5542    1.6625    0.0000 C   0  0  0  0  0  0  0  0  0  0  0  0
   -0.0083    1.1625    0.0000 O   0  0  0  0  0  0  0  0  0  0  0  0
    0.3917    2.3958    0.0000 C   0  0  0  0  0  0  0  0  0  0  0  0
  2  1  2  0  0  0  0
  3  1  1  0  0  0  0
  4  5  1  0  0  0  0
  5  3  1  0  0  0  0
  6  2  1  0  0  0  0
  7  1  1  0  0  0  0
  8  2  1  0  0  0  0
  9  7  2  0  0  0  0
 10  8  1  0  0  0  0
 11  5  2  0  0  0  0
 12  6  2  0  0  0  0
 13  3  1  0  0  0  0
 14  4  1  0  0  0  0
 15 10  1  0  0  0  0
 16 15  2  0  0  0  0
 17 15  1  0  0  0  0
  9  8  1  0  0  0  0
  6  4  1  0  0  0  0
M  END
> <IDNUMBER>
F3259-0265

> <Chemical_Name>
1,3-dimethyl-7-(2-oxopropyl)-2,3,6,7-tetrahydro-1H-purine-2,6-dione

> <CAS>
10226-64-9

> <PriceCoeff>
1.00

> <MW>
236.23

> <Description>
solid

> <FSP3>
0.40

> <clogP>
-0.53

> <TPSA>
75.51

> <Acceptor>
4

> <Donor>
1

> <RotBonds>
2

> <HAC>
17

> <Collection>
General

> <Reference_compound>
CHEMBL113

> <Similarity>
0.8920

$$$$
F0381-3870
  -ISIS-  06222321452D

 17 18  0  0  0  0  0  0  0  0999 V2000
    5.2667   -4.8875    0.0000 C   0  0  0  0  0  0  0  0  0  0  0  0
    5.2667   -4.0292    0.0000 C   0  0  0  0  0  0  0  0  0  0  0  0
    4.5375   -5.2875    0.0000 N   0  0  3  0  0  0  0  0  0  0  0  0
    3.8167   -4.8875    0.0000 C   0  0  0  0  0  0  0  0  0  0  0  0
    3.8167   -4.0292    0.0000 N   0  0  0  0  0  0  0  0  0  0  0  0
    6.0375   -5.1167    0.0000 N   0  0  0  0  0  0  0  0  0  0  0  0
    4.5375   -3.6167    0.0000 C   0  0  0  0  0  0  0  0  0  0  0  0
    6.0375   -3.7792    0.0000 N   0  0  3  0  0  0  0  0  0  0  0  0
    6.5167   -4.4292    0.0000 C   0  0  0  0  0  0  0  0  0  0  0  0
    3.1000   -5.3375    0.0000 O   0  0  0  0  0  0  0  0  0  0  0  0
    4.5375   -2.8000    0.0000 O   0  0  0  0  0  0  0  0  0  0  0  0
    4.5375   -6.1167    0.0000 C   0  0  0  0  0  0  0  0  0  0  0  0
    6.2792   -2.9792    0.0000 C   0  0  0  0  0  0  0  0  0  0  0  0
    7.0792   -2.8000    0.0000 C   0  0  0  0  0  0  0  0  0  0  0  0
    8.1500   -1.8375    0.0000 C   0  0  0  0  0  0  0  0  0  0  0  0
    7.3167   -2.0167    0.0000 C   0  0  0  0  0  0  0  0  0  0  0  0
    8.4000   -1.0542    0.0000 C   0  0  0  0  0  0  0  0  0  0  0  0
  2  1  2  0  0  0  0
  3  1  1  0  0  0  0
  4  3  1  0  0  0  0
  5  4  1  0  0  0  0
  6  1  1  0  0  0  0
  7  2  1  0  0  0  0
  8  2  1  0  0  0  0
  9  6  2  0  0  0  0
 10  4  2  0  0  0  0
 11  7  2  0  0  0  0
 12  3  1  0  0  0  0
 13  8  1  0  0  0  0
 14 13  1  0  0  0  0
 15 16  1  0  0  0  0
 16 14  1  0  0  0  0
 17 15  1  0  0  0  0
  8  9  1  0  0  0  0
  5  7  1  0  0  0  0
M  END
> <IDNUMBER>
F0381-3870

> <Chemical_Name>
3-methyl-7-pentyl-2,3,6,7-tetrahydro-1H-purine-2,6-dione

> <CAS>
137003-08-8

> <PriceCoeff>
1.00

> <MW>
236.27

> <Description>
solid

> <FSP3>
0.55

> <clogP>
1.44

> <TPSA>
67.23

> <Acceptor>
3

> <Donor>
2

> <RotBonds>
4

> <HAC>
17

> <Collection>
General

> <Reference_compound>
CHEMBL113

> <Similarity>
0.8760

$$$$
F6473-3916
  -ISIS-  06222321462D

 22 24  0  0  0  0  0  0  0  0999 V2000
   -3.7458    3.6958    0.0000 S   0  0  3  0  0  0  0  0  0  0  0  0
   -3.0333    4.1042    0.0000 N   0  0  3  0  0  0  0  0  0  0  0  0
   -4.4583    3.2917    0.0000 C   0  0  0  0  0  0  0  0  0  0  0  0
   -1.3083    5.1042    0.0000 N   0  0  3  0  0  0  0  0  0  0  0  0
   -2.0333    4.6875    0.0000 C   0  0  3  0  0  0  0  0  0  0  0  0
   -2.8208    4.9000    0.0000 C   0  0  0  0  0  0  0  0  0  0  0  0
   -2.2458    3.8958    0.0000 C   0  0  0  0  0  0  0  0  0  0  0  0
   -0.5583    4.7667    0.0000 C   0  0  0  0  0  0  0  0  0  0  0  0
   -1.2250    5.9167    0.0000 C   0  0  0  0  0  0  0  0  0  0  0  0
   -5.1708    3.6958    0.0000 C   0  0  0  0  0  0  0  0  0  0  0  0
   -3.3333    2.9833    0.0000 O   0  0  0  0  0  0  0  0  0  0  0  0
   -4.1583    4.4083    0.0000 O   0  0  0  0  0  0  0  0  0  0  0  0
   -4.4583    2.4708    0.0000 C   0  0  0  0  0  0  0  0  0  0  0  0
   -0.4208    6.0917    0.0000 C   0  0  0  0  0  0  0  0  0  0  0  0
   -0.0083    5.3792    0.0000 C   0  0  0  0  0  0  0  0  0  0  0  0
   -1.8417    6.4708    0.0000 O   0  0  0  0  0  0  0  0  0  0  0  0
   -0.3875    3.9625    0.0000 O   0  0  0  0  0  0  0  0  0  0  0  0
   -5.1625    2.0583    0.0000 C   0  0  0  0  0  0  0  0  0  0  0  0
   -5.8833    3.2833    0.0000 C   0  0  0  0  0  0  0  0  0  0  0  0
   -3.7458    2.0375    0.0000 F   0  0  0  0  0  0  0  0  0  0  0  0
   -5.8750    2.4625    0.0000 C   0  0  0  0  0  0  0  0  0  0  0  0
   -6.5917    3.6833    0.0000 F   0  0  0  0  0  0  0  0  0  0  0  0
  2  1  1  0  0  0  0
  3  1  1  0  0  0  0
  4  5  1  0  0  0  0
  5  7  1  0  0  0  0
  6  2  1  0  0  0  0
  7  2  1  0  0  0  0
  8  4  1  0  0  0  0
  9  4  1  0  0  0  0
 10  3  2  0  0  0  0
 11  1  2  0  0  0  0
 12  1  2  0  0  0  0
 13  3  1  0  0  0  0
 14  9  1  0  0  0  0
 15  8  1  0  0  0  0
 16  9  2  0  0  0  0
 17  8  2  0  0  0  0
 18 13  2  0  0  0  0
 19 10  1  0  0  0  0
 20 13  1  0  0  0  0
 21 18  1  0  0  0  0
 22 19  1  0  0  0  0
  6  5  1  0  0  0  0
 19 21  2  0  0  0  0
 14 15  1  0  0  0  0
M  END
> <IDNUMBER>
F6473-3916

> <Chemical_Name>
1-[1-(2,5-difluorobenzenesulfonyl)azetidin-3-yl]pyrrolidine-2,5-dione

> <CAS>
1795303-82-0

> <PriceCoeff>
1.00

> <MW>
330.31

> <Description>
solid

> <FSP3>
0.38

> <clogP>
1.05

> <TPSA>
83.14

> <Acceptor>
4

> <Donor>
0

> <RotBonds>
3

> <HAC>
22

> <Collection>
General

$$$$
F6473-3934
  -ISIS-  06222321462D

 22 24  0  0  0  0  0  0  0  0999 V2000
   -3.7458    3.6958    0.0000 S   0  0  3  0  0  0  0  0  0  0  0  0
   -3.0333    4.1042    0.0000 N   0  0  3  0  0  0  0  0  0  0  0  0
   -1.3083    5.1042    0.0000 N   0  0  3  0  0  0  0  0  0  0  0  0
   -2.0333    4.6875    0.0000 C   0  0  3  0  0  0  0  0  0  0  0  0
   -4.4583    3.2833    0.0000 C   0  0  0  0  0  0  0  0  0  0  0  0
   -2.8208    4.9000    0.0000 C   0  0  0  0  0  0  0  0  0  0  0  0
   -2.2458    3.8958    0.0000 C   0  0  0  0  0  0  0  0  0  0  0  0
   -0.5583    4.7667    0.0000 C   0  0  0  0  0  0  0  0  0  0  0  0
   -1.2250    5.9167    0.0000 C   0  0  0  0  0  0  0  0  0  0  0  0
   -4.4583    2.4583    0.0000 C   0  0  0  0  0  0  0  0  0  0  0  0
   -3.3333    2.9958    0.0000 O   0  0  0  0  0  0  0  0  0  0  0  0
   -4.1625    4.4042    0.0000 O   0  0  0  0  0  0  0  0  0  0  0  0
   -5.1750    2.0458    0.0000 C   0  0  0  0  0  0  0  0  0  0  0  0
   -5.8833    2.4583    0.0000 C   0  0  0  0  0  0  0  0  0  0  0  0
   -0.0083    5.3792    0.0000 C   0  0  0  0  0  0  0  0  0  0  0  0
   -0.4208    6.0917    0.0000 C   0  0  0  0  0  0  0  0  0  0  0  0
   -0.3875    3.9625    0.0000 O   0  0  0  0  0  0  0  0  0  0  0  0
   -1.8417    6.4708    0.0000 O   0  0  0  0  0  0  0  0  0  0  0  0
   -5.1750    3.6958    0.0000 C   0  0  0  0  0  0  0  0  0  0  0  0
   -5.8833    3.2750    0.0000 C   0  0  0  0  0  0  0  0  0  0  0  0
   -5.1750    1.2208    0.0000 Cl  0  0  0  0  0  0  0  0  0  0  0  0
   -6.5917    2.0500    0.0000 F   0  0  0  0  0  0  0  0  0  0  0  0
  2  1  1  0  0  0  0
  3  4  1  0  0  0  0
  4  7  1  0  0  0  0
  5  1  1  0  0  0  0
  6  2  1  0  0  0  0
  7  2  1  0  0  0  0
  8  3  1  0  0  0  0
  9  3  1  0  0  0  0
 10  5  1  0  0  0  0
 11  1  2  0  0  0  0
 12  1  2  0  0  0  0
 13 10  2  0  0  0  0
 14 20  2  0  0  0  0
 15  8  1  0  0  0  0
 16  9  1  0  0  0  0
 17  8  2  0  0  0  0
 18  9  2  0  0  0  0
 19  5  2  0  0  0  0
 20 19  1  0  0  0  0
 21 13  1  0  0  0  0
 22 14  1  0  0  0  0
  6  4  1  0  0  0  0
 14 13  1  0  0  0  0
 16 15  1  0  0  0  0
M  END
> <IDNUMBER>
F6473-3934

> <Chemical_Name>
1-[1-(3-chloro-4-fluorobenzenesulfonyl)azetidin-3-yl]pyrrolidine-2,5-dione

> <CAS>
1795300-61-6

> <PriceCoeff>
1.00

> <MW>
346.76

> <Description>
solid

> <FSP3>
0.38

> <clogP>
1.62

> <TPSA>
83.14

> <Acceptor>
4

> <Donor>
0

> <RotBonds>
3

> <HAC>
22

> <Collection>
General

$$$$
F6064-0987
  -ISIS-  06222321152D

 26 29  0  0  0  0  0  0  0  0999 V2000
   11.0042   -8.7667    0.0000 C   0  0  0  0  0  0  0  0  0  0  0  0
   10.1792   -8.6500    0.0000 N   0  0  0  0  0  0  0  0  0  0  0  0
   10.0500   -7.8292    0.0000 C   0  0  0  0  0  0  0  0  0  0  0  0
    8.3167   -6.8625    0.0000 N   0  0  3  0  0  0  0  0  0  0  0  0
   11.3750   -8.0375    0.0000 N   0  0  0  0  0  0  0  0  0  0  0  0
    7.6042   -6.4625    0.0000 C   0  0  0  0  0  0  0  0  0  0  0  0
    9.3292   -7.4292    0.0000 C   0  0  3  0  0  0  0  0  0  0  0  0
   10.7917   -7.4542    0.0000 O   0  0  0  0  0  0  0  0  0  0  0  0
   11.3792   -9.5000    0.0000 C   0  0  0  0  0  0  0  0  0  0  0  0
    8.5417   -7.6542    0.0000 C   0  0  0  0  0  0  0  0  0  0  0  0
    9.1125   -6.6417    0.0000 C   0  0  0  0  0  0  0  0  0  0  0  0
    6.8917   -6.8792    0.0000 N   0  0  0  0  0  0  0  0  0  0  0  0
    5.4500   -5.2500    0.0000 C   0  0  0  0  0  0  0  0  0  0  0  0
    6.1667   -5.6542    0.0000 C   0  0  0  0  0  0  0  0  0  0  0  0
   10.9417  -10.1917    0.0000 N   0  0  0  0  0  0  0  0  0  0  0  0
   12.2042   -9.5375    0.0000 N   0  0  0  0  0  0  0  0  0  0  0  0
    6.1750   -6.4792    0.0000 C   0  0  0  0  0  0  0  0  0  0  0  0
    7.5917   -5.6375    0.0000 O   0  0  0  0  0  0  0  0  0  0  0  0
    4.7375   -5.6667    0.0000 C   0  0  0  0  0  0  0  0  0  0  0  0
    4.7417   -6.4917    0.0000 C   0  0  0  0  0  0  0  0  0  0  0  0
    5.4417   -4.4250    0.0000 Cl  0  0  0  0  0  0  0  0  0  0  0  0
    5.4625   -6.9000    0.0000 C   0  0  0  0  0  0  0  0  0  0  0  0
    4.0167   -5.2625    0.0000 Cl  0  0  0  0  0  0  0  0  0  0  0  0
   12.1417  -10.9625    0.0000 C   0  0  0  0  0  0  0  0  0  0  0  0
   12.5792  -10.2625    0.0000 C   0  0  0  0  0  0  0  0  0  0  0  0
   11.3167  -10.9250    0.0000 C   0  0  0  0  0  0  0  0  0  0  0  0
  2  1  1  0  0  0  0
  3  2  2  0  0  0  0
  4 11  1  0  0  0  0
  5  1  2  0  0  0  0
  6  4  1  0  0  0  0
  7  3  1  0  0  0  0
  8  5  1  0  0  0  0
  9  1  1  0  0  0  0
 10  7  1  0  0  0  0
 11  7  1  0  0  0  0
 12  6  1  0  0  0  0
 13 14  1  0  0  0  0
 14 17  2  0  0  0  0
 15  9  2  0  0  0  0
 16  9  1  0  0  0  0
 17 12  1  0  0  0  0
 18  6  2  0  0  0  0
 19 20  1  0  0  0  0
 20 22  2  0  0  0  0
 21 13  1  0  0  0  0
 22 17  1  0  0  0  0
 23 19  1  0  0  0  0
 24 25  1  0  0  0  0
 25 16  2  0  0  0  0
 26 15  1  0  0  0  0
  3  8  1  0  0  0  0
 24 26  2  0  0  0  0
 10  4  1  0  0  0  0
 13 19  2  0  0  0  0
M  END
> <IDNUMBER>
F6064-0987

> <Chemical_Name>
N-(3,4-dichlorophenyl)-3-[3-(pyrimidin-2-yl)-1,2,4-oxadiazol-5-yl]azetidine-1-carboxamide

> <CAS>
1327529-24-7

> <PriceCoeff>
1.00

> <MW>
391.21

> <Description>
solid

> <FSP3>
0.19

> <clogP>
1.06

> <TPSA>
97.04

> <Acceptor>
6

> <Donor>
1

> <RotBonds>
4

> <HAC>
26

> <Collection>
General

$$$$
F6413-0563
  -ISIS-  06222321462D

 24 26  0  0  0  0  0  0  0  0999 V2000
   -5.2833    2.5708    0.0000 N   0  0  3  0  0  0  0  0  0  0  0  0
   -2.2583    6.4500    0.0000 C   0  0  0  0  0  0  0  0  0  0  0  0
   -1.9208    7.2042    0.0000 C   0  0  0  0  0  0  0  0  0  0  0  0
   -3.0625    6.2750    0.0000 S   0  0  0  0  0  0  0  0  0  0  0  0
   -5.3708    1.7458    0.0000 C   0  0  0  0  0  0  0  0  0  0  0  0
   -6.0292    2.9000    0.0000 C   0  0  0  0  0  0  0  0  0  0  0  0
   -1.0958    7.2917    0.0000 C   0  0  0  0  0  0  0  0  0  0  0  0
   -1.8333    5.7292    0.0000 C   0  0  0  0  0  0  0  0  0  0  0  0
   -3.1458    5.4542    0.0000 C   0  0  0  0  0  0  0  0  0  0  0  0
   -4.5833    2.9875    0.0000 C   0  0  0  0  0  0  0  0  0  0  0  0
   -4.5833    3.8000    0.0000 C   0  0  0  0  0  0  0  0  0  0  0  0
   -2.3875    5.1167    0.0000 C   0  0  0  0  0  0  0  0  0  0  0  0
   -0.6875    8.0167    0.0000 O   0  0  0  0  0  0  0  0  0  0  0  0
   -2.4083    7.8750    0.0000 O   0  0  0  0  0  0  0  0  0  0  0  0
   -3.8625    4.2125    0.0000 N   0  0  0  0  0  0  0  0  0  0  0  0
   -0.5458    6.6792    0.0000 C   0  0  0  0  0  0  0  0  0  0  0  0
   -6.1667    1.5708    0.0000 C   0  0  0  0  0  0  0  0  0  0  0  0
   -6.5792    2.2833    0.0000 C   0  0  0  0  0  0  0  0  0  0  0  0
   -4.7500    1.1833    0.0000 O   0  0  0  0  0  0  0  0  0  0  0  0
   -6.2042    3.7083    0.0000 O   0  0  0  0  0  0  0  0  0  0  0  0
    0.1250    7.8417    0.0000 C   0  0  0  0  0  0  0  0  0  0  0  0
    0.2042    7.0167    0.0000 C   0  0  0  0  0  0  0  0  0  0  0  0
   -5.2958    4.2125    0.0000 O   0  0  0  0  0  0  0  0  0  0  0  0
   -3.8625    5.0417    0.0000 C   0  0  0  0  0  0  0  0  0  0  0  0
  2  4  1  0  0  0  0
  3  2  1  0  0  0  0
  4  9  1  0  0  0  0
  5  1  1  0  0  0  0
  6  1  1  0  0  0  0
  7  3  1  0  0  0  0
  8 12  1  0  0  0  0
  9 24  1  0  0  0  0
 10  1  1  0  0  0  0
 11 10  1  0  0  0  0
 12  9  2  0  0  0  0
 13  7  1  0  0  0  0
 14  3  2  0  0  0  0
 15 11  1  0  0  0  0
 16  7  2  0  0  0  0
 17  5  1  0  0  0  0
 18  6  1  0  0  0  0
 19  5  2  0  0  0  0
 20  6  2  0  0  0  0
 21 13  1  0  0  0  0
 22 16  1  0  0  0  0
 23 11  2  0  0  0  0
 24 15  1  0  0  0  0
 18 17  1  0  0  0  0
  2  8  2  0  0  0  0
 21 22  2  0  0  0  0
M  END
> <IDNUMBER>
F6413-0563

> <Chemical_Name>
2-(2,5-dioxopyrrolidin-1-yl)-N-{[5-(furan-2-carbonyl)thiophen-2-yl]methyl}acetamide

> <CAS>
1797546-82-7

> <PriceCoeff>
1.00

> <MW>
346.36

> <Description>
solid

> <FSP3>
0.25

> <clogP>
0.63

> <TPSA>
124.93

> <Acceptor>
5

> <Donor>
1

> <RotBonds>
6

> <HAC>
24

> <Collection>
General

$$$$
F6415-0068
  -ISIS-  06222321152D

 21 22  0  0  0  0  0  0  0  0999 V2000
   -5.2833    2.5708    0.0000 N   0  0  3  0  0  0  0  0  0  0  0  0
   -4.5792    2.9875    0.0000 C   0  0  0  0  0  0  0  0  0  0  0  0
   -6.0292    2.9000    0.0000 C   0  0  0  0  0  0  0  0  0  0  0  0
   -5.3708    1.7458    0.0000 C   0  0  0  0  0  0  0  0  0  0  0  0
   -4.5833    3.8000    0.0000 C   0  0  0  0  0  0  0  0  0  0  0  0
   -3.8625    4.2125    0.0000 N   0  0  3  0  0  0  0  0  0  0  0  0
   -2.4333    4.2167    0.0000 C   0  0  0  0  0  0  0  0  0  0  0  0
   -3.1458    3.8083    0.0000 C   0  0  0  0  0  0  0  0  0  0  0  0
   -1.1250    4.5000    0.0000 O   0  0  0  0  0  0  0  0  0  0  0  0
   -1.6750    3.8917    0.0000 C   0  0  0  0  0  0  0  0  0  0  0  0
   -5.2958    4.2125    0.0000 O   0  0  0  0  0  0  0  0  0  0  0  0
   -6.5792    2.2833    0.0000 C   0  0  0  0  0  0  0  0  0  0  0  0
   -6.1667    1.5708    0.0000 C   0  0  0  0  0  0  0  0  0  0  0  0
   -2.3500    5.0333    0.0000 C   0  0  0  0  0  0  0  0  0  0  0  0
   -6.2042    3.7083    0.0000 O   0  0  0  0  0  0  0  0  0  0  0  0
   -4.7500    1.1833    0.0000 O   0  0  0  0  0  0  0  0  0  0  0  0
   -1.5458    5.2125    0.0000 C   0  0  0  0  0  0  0  0  0  0  0  0
   -3.8583    5.0333    0.0000 C   0  0  0  0  0  0  0  0  0  0  0  0
   -4.5833    6.2667    0.0000 O   0  0  0  0  0  0  0  0  0  0  0  0
   -4.5833    5.4417    0.0000 C   0  0  0  0  0  0  0  0  0  0  0  0
   -5.3083    6.6792    0.0000 C   0  0  0  0  0  0  0  0  0  0  0  0
  2  1  1  0  0  0  0
  3  1  1  0  0  0  0
  4  1  1  0  0  0  0
  5  2  1  0  0  0  0
  6  5  1  0  0  0  0
  7  8  1  0  0  0  0
  8  6  1  0  0  0  0
  9 10  1  0  0  0  0
 10  7  2  0  0  0  0
 11  5  2  0  0  0  0
 12  3  1  0  0  0  0
 13  4  1  0  0  0  0
 14  7  1  0  0  0  0
 15  3  2  0  0  0  0
 16  4  2  0  0  0  0
 17 14  2  0  0  0  0
 18  6  1  0  0  0  0
 19 20  1  0  0  0  0
 20 18  1  0  0  0  0
 21 19  1  0  0  0  0
 13 12  1  0  0  0  0
  9 17  1  0  0  0  0
M  END
> <IDNUMBER>
F6415-0068

> <Chemical_Name>
2-(2,5-dioxopyrrolidin-1-yl)-N-[(furan-3-yl)methyl]-N-(2-methoxyethyl)acetamide

> <CAS>
1421529-62-5

> <PriceCoeff>
1.00

> <MW>
294.30

> <Description>
oil

> <FSP3>
0.50

> <clogP>
0.57

> <TPSA>
80.06

> <Acceptor>
5

> <Donor>
0

> <RotBonds>
8

> <HAC>
21

> <Collection>
General

$$$$
F3023-0925
  -ISIS-  06222321462D

 19 20  0  0  0  0  0  0  0  0999 V2000
    3.7625   -6.4042    0.0000 N   0  0  3  0  0  0  0  0  0  0  0  0
    4.1792   -6.9750    0.0000 C   0  0  0  0  0  0  0  0  0  0  0  0
    4.1792   -5.8292    0.0000 C   0  0  0  0  0  0  0  0  0  0  0  0
    4.8542   -6.7542    0.0000 C   0  0  3  0  0  0  0  0  0  0  0  0
    4.8542   -6.0417    0.0000 C   0  0  0  0  0  0  0  0  0  0  0  0
    5.4292   -7.1667    0.0000 N   0  0  0  0  0  0  0  0  0  0  0  0
    3.9667   -7.6500    0.0000 O   0  0  0  0  0  0  0  0  0  0  0  0
    3.9542   -5.1542    0.0000 O   0  0  0  0  0  0  0  0  0  0  0  0
    7.3667   -6.3042    0.0000 C   0  0  0  0  0  0  0  0  0  0  0  0
    8.0167   -6.0125    0.0000 N   0  0  3  0  0  0  0  0  0  0  0  0
    6.0792   -6.8792    0.0000 C   0  0  0  0  0  0  0  0  0  0  0  0
    6.7917   -5.8875    0.0000 C   0  0  0  0  0  0  0  0  0  0  0  0
    7.3000   -7.0042    0.0000 C   0  0  0  0  0  0  0  0  0  0  0  0
    3.0542   -6.4042    0.0000 C   0  0  0  0  0  0  0  0  0  0  0  0
    6.1417   -6.1750    0.0000 C   0  0  0  0  0  0  0  0  0  0  0  0
    6.6500   -7.2917    0.0000 C   0  0  0  0  0  0  0  0  0  0  0  0
    8.5917   -6.4292    0.0000 C   0  0  0  0  0  0  0  0  0  0  0  0
    8.0917   -5.3042    0.0000 C   0  0  0  0  0  0  0  0  0  0  0  0
    2.7000   -5.7917    0.0000 C   0  0  0  0  0  0  0  0  0  0  0  0
  2  1  1  0  0  0  0
  3  1  1  0  0  0  0
  4  2  1  0  0  0  0
  5  3  1  0  0  0  0
  6  4  1  0  0  0  0
  7  2  2  0  0  0  0
  8  3  2  0  0  0  0
  9 13  2  0  0  0  0
 10  9  1  0  0  0  0
 11  6  1  0  0  0  0
 12 15  2  0  0  0  0
 13 16  1  0  0  0  0
 14  1  1  0  0  0  0
 15 11  1  0  0  0  0
 16 11  2  0  0  0  0
 17 10  1  0  0  0  0
 18 10  1  0  0  0  0
 19 14  1  0  0  0  0
  5  4  1  0  0  0  0
  9 12  1  0  0  0  0
M  END
> <IDNUMBER>
F3023-0925

> <Chemical_Name>
3-{[4-(dimethylamino)phenyl]amino}-1-ethylpyrrolidine-2,5-dione

> <CAS>
1008960-27-7

> <PriceCoeff>
1.00

> <MW>
261.32

> <Description>
solid

> <FSP3>
0.43

> <clogP>
2.35

> <TPSA>
52.65

> <Acceptor>
4

> <Donor>
2

> <RotBonds>
4

> <HAC>
19

> <Collection>
General

$$$$
F6473-3604
  -ISIS-  06222321462D

 27 31  0  0  0  0  0  0  0  0999 V2000
   -3.0333    4.1042    0.0000 N   0  0  3  0  0  0  0  0  0  0  0  0
   -1.3083    5.1042    0.0000 N   0  0  3  0  0  0  0  0  0  0  0  0
   -3.7458    3.6958    0.0000 C   0  0  0  0  0  0  0  0  0  0  0  0
   -3.7500    2.8708    0.0000 C   0  0  3  0  0  0  0  0  0  0  0  0
   -2.0333    4.6875    0.0000 C   0  0  3  0  0  0  0  0  0  0  0  0
   -3.7583    1.2083    0.0000 O   0  0  0  0  0  0  0  0  0  0  0  0
   -1.2250    5.9167    0.0000 C   0  0  0  0  0  0  0  0  0  0  0  0
   -0.5583    4.7667    0.0000 C   0  0  0  0  0  0  0  0  0  0  0  0
   -4.4667    2.4583    0.0000 C   0  0  0  0  0  0  0  0  0  0  0  0
   -3.0458    2.4583    0.0000 C   0  0  0  0  0  0  0  0  0  0  0  0
   -2.2458    3.8958    0.0000 C   0  0  0  0  0  0  0  0  0  0  0  0
   -2.8208    4.9000    0.0000 C   0  0  0  0  0  0  0  0  0  0  0  0
   -4.4667    1.6458    0.0000 C   0  0  0  0  0  0  0  0  0  0  0  0
   -3.0458    1.6333    0.0000 C   0  0  0  0  0  0  0  0  0  0  0  0
   -4.4667    4.1042    0.0000 O   0  0  0  0  0  0  0  0  0  0  0  0
   -0.4208    6.0917    0.0000 C   0  0  0  0  0  0  0  0  0  0  0  0
   -0.0083    5.3792    0.0000 C   0  0  0  0  0  0  0  0  0  0  0  0
   -1.8417    6.4708    0.0000 O   0  0  0  0  0  0  0  0  0  0  0  0
   -0.3875    3.9625    0.0000 O   0  0  0  0  0  0  0  0  0  0  0  0
   -2.3333    2.8583    0.0000 C   0  0  0  0  0  0  0  0  0  0  0  0
   -5.1583    2.8917    0.0000 C   0  0  0  0  0  0  0  0  0  0  0  0
   -5.1625    1.2250    0.0000 C   0  0  0  0  0  0  0  0  0  0  0  0
   -2.3333    1.2083    0.0000 C   0  0  0  0  0  0  0  0  0  0  0  0
   -5.8833    2.4708    0.0000 C   0  0  0  0  0  0  0  0  0  0  0  0
   -1.6208    2.4458    0.0000 C   0  0  0  0  0  0  0  0  0  0  0  0
   -1.6208    1.6333    0.0000 C   0  0  0  0  0  0  0  0  0  0  0  0
   -5.8833    1.6583    0.0000 C   0  0  0  0  0  0  0  0  0  0  0  0
  2  5  1  0  0  0  0
  3  1  1  0  0  0  0
  4  3  1  0  0  0  0
  5 12  1  0  0  0  0
  6 14  1  0  0  0  0
  7  2  1  0  0  0  0
  8  2  1  0  0  0  0
  9  4  1  0  0  0  0
 10  4  1  0  0  0  0
 11  1  1  0  0  0  0
 12  1  1  0  0  0  0
 13  9  2  0  0  0  0
 14 10  2  0  0  0  0
 15  3  2  0  0  0  0
 16  7  1  0  0  0  0
 17  8  1  0  0  0  0
 18  7  2  0  0  0  0
 19  8  2  0  0  0  0
 20 10  1  0  0  0  0
 21  9  1  0  0  0  0
 22 13  1  0  0  0  0
 23 14  1  0  0  0  0
 24 21  2  0  0  0  0
 25 20  2  0  0  0  0
 26 25  1  0  0  0  0
 27 24  1  0  0  0  0
  5 11  1  0  0  0  0
  6 13  1  0  0  0  0
 16 17  1  0  0  0  0
 23 26  2  0  0  0  0
 27 22  2  0  0  0  0
M  END
> <IDNUMBER>
F6473-3604

> <Chemical_Name>
1-[1-(9H-xanthene-9-carbonyl)azetidin-3-yl]pyrrolidine-2,5-dione

> <CAS>
1795362-75-2

> <PriceCoeff>
1.00

> <MW>
362.38

> <Description>
solid

> <FSP3>
0.29

> <clogP>
2.39

> <TPSA>
66.92

> <Acceptor>
4

> <Donor>
0

> <RotBonds>
3

> <HAC>
27

> <Collection>
General

$$$$
F0191-4540
  -ISIS-  06222321442D

 15 17  0  0  0  0  0  0  0  0999 V2000
   -1.4458   -2.1542    0.0000 C   0  0  0  0  0  0  0  0  0  0  0  0
   -1.7833   -1.6792    0.0000 N   0  0  0  0  0  0  0  0  0  0  0  0
   -1.7833   -2.6375    0.0000 N   0  0  0  0  0  0  0  0  0  0  0  0
   -2.3458   -1.8542    0.0000 C   0  0  0  0  0  0  0  0  0  0  0  0
   -2.3458   -2.4542    0.0000 C   0  0  0  0  0  0  0  0  0  0  0  0
   -0.8625   -2.1375    0.0000 C   0  0  0  0  0  0  0  0  0  0  0  0
    0.3375   -2.1167    0.0000 N   0  0  0  0  0  0  0  0  0  0  0  0
   -2.8458   -1.5792    0.0000 C   0  0  0  0  0  0  0  0  0  0  0  0
   -2.8458   -2.7375    0.0000 C   0  0  0  0  0  0  0  0  0  0  0  0
    0.0167   -1.6375    0.0000 C   0  0  0  0  0  0  0  0  0  0  0  0
    0.0375   -2.6375    0.0000 C   0  0  0  0  0  0  0  0  0  0  0  0
   -0.5625   -1.6375    0.0000 C   0  0  0  0  0  0  0  0  0  0  0  0
   -0.5625   -2.6375    0.0000 C   0  0  0  0  0  0  0  0  0  0  0  0
   -3.3458   -1.8792    0.0000 C   0  0  0  0  0  0  0  0  0  0  0  0
   -3.3458   -2.4375    0.0000 C   0  0  0  0  0  0  0  0  0  0  0  0
  2  1  2  0  0  0  0
  3  1  1  0  0  0  0
  4  2  1  0  0  0  0
  5  3  1  0  0  0  0
  6  1  1  0  0  0  0
  7 11  1  0  0  0  0
  8  4  1  0  0  0  0
  9  5  1  0  0  0  0
 10 12  1  0  0  0  0
 11 13  2  0  0  0  0
 12  6  2  0  0  0  0
 13  6  1  0  0  0  0
 14  8  2  0  0  0  0
 15  9  2  0  0  0  0
  5  4  2  0  0  0  0
 10  7  2  0  0  0  0
 15 14  1  0  0  0  0
M  END
> <IDNUMBER>
F0191-4540

> <Chemical_Name>
2-(pyridin-4-yl)-1H-1,3-benzodiazole

> <CAS>
2208-59-5

> <PriceCoeff>
1.50

> <MW>
195.22

> <Description>
solid

> <FSP3>
0.00

> <clogP>
2.32

> <TPSA>
41.57

> <Acceptor>
3

> <Donor>
3

> <RotBonds>
1

> <HAC>
15

> <Collection>
Advanced

> <Reference_compound>
CHEMBL379376

> <Similarity>
1.0000

$$$$
F1800-0168
  -ISIS-  06222321452D

 22 23  0  0  0  0  0  0  0  0999 V2000
   -3.7250    2.3000    0.0000 N   0  0  3  0  0  0  0  0  0  0  0  0
   -3.3500    2.9583    0.0000 C   0  0  0  0  0  0  0  0  0  0  0  0
   -3.3500    1.6583    0.0000 C   0  0  0  0  0  0  0  0  0  0  0  0
   -5.9750    3.5958    0.0000 C   0  0  0  0  0  0  0  0  0  0  0  0
   -2.2250    2.3000    0.0000 S   0  0  0  0  0  0  0  0  0  0  0  0
   -4.8500    2.9458    0.0000 C   0  0  0  0  0  0  0  0  0  0  0  0
   -5.6000    2.9458    0.0000 N   0  0  0  0  0  0  0  0  0  0  0  0
   -4.4750    2.3000    0.0000 C   0  0  0  0  0  0  0  0  0  0  0  0
   -6.7167    3.5958    0.0000 C   0  0  0  0  0  0  0  0  0  0  0  0
   -5.6000    4.2417    0.0000 C   0  0  0  0  0  0  0  0  0  0  0  0
   -2.6000    2.9583    0.0000 C   0  0  3  0  0  0  0  0  0  0  0  0
   -2.6000    1.6583    0.0000 C   0  0  0  0  0  0  0  0  0  0  0  0
   -3.7333    3.6083    0.0000 O   0  0  0  0  0  0  0  0  0  0  0  0
   -7.0917    4.2292    0.0000 C   0  0  0  0  0  0  0  0  0  0  0  0
   -5.9750    4.8917    0.0000 C   0  0  0  0  0  0  0  0  0  0  0  0
   -3.7333    1.0000    0.0000 O   0  0  0  0  0  0  0  0  0  0  0  0
   -4.4750    3.5958    0.0000 O   0  0  0  0  0  0  0  0  0  0  0  0
   -6.7167    4.8917    0.0000 C   0  0  0  0  0  0  0  0  0  0  0  0
   -7.1042    2.9375    0.0000 C   0  0  0  0  0  0  0  0  0  0  0  0
   -4.8500    4.2417    0.0000 C   0  0  0  0  0  0  0  0  0  0  0  0
   -2.2208    3.6083    0.0000 C   0  0  0  0  0  0  0  0  0  0  0  0
   -7.0917    5.5417    0.0000 C   0  0  0  0  0  0  0  0  0  0  0  0
  2  1  1  0  0  0  0
  3  1  1  0  0  0  0
  4  7  1  0  0  0  0
  5 12  1  0  0  0  0
  6  8  1  0  0  0  0
  7  6  1  0  0  0  0
  8  1  1  0  0  0  0
  9  4  2  0  0  0  0
 10  4  1  0  0  0  0
 11  2  1  0  0  0  0
 12  3  1  0  0  0  0
 13  2  2  0  0  0  0
 14  9  1  0  0  0  0
 15 10  2  0  0  0  0
 16  3  2  0  0  0  0
 17  6  2  0  0  0  0
 18 15  1  0  0  0  0
 19  9  1  0  0  0  0
 20 10  1  0  0  0  0
 21 11  1  0  0  0  0
 22 18  1  0  0  0  0
 11  5  1  0  0  0  0
 18 14  2  0  0  0  0
M  END
> <IDNUMBER>
F1800-0168

> <Chemical_Name>
2-(2-methyl-3,5-dioxothiomorpholin-4-yl)-N-(2,4,6-trimethylphenyl)acetamide

> <CAS>
868215-89-8

> <PriceCoeff>
1.00

> <MW>
320.41

> <Description>
solid

> <FSP3>
0.44

> <clogP>
2.17

> <TPSA>
91.78

> <Acceptor>
3

> <Donor>
1

> <RotBonds>
3

> <HAC>
22

> <Collection>
General

$$$$
F5831-9284
  -ISIS-  06222321462D

 24 26  0  0  0  0  0  0  0  0999 V2000
   -5.2875    2.5625    0.0000 N   0  0  3  0  0  0  0  0  0  0  0  0
   -5.3708    1.7333    0.0000 C   0  0  0  0  0  0  0  0  0  0  0  0
   -6.0292    2.9000    0.0000 C   0  0  0  0  0  0  0  0  0  0  0  0
   -4.5833    2.9833    0.0000 C   0  0  0  0  0  0  0  0  0  0  0  0
   -4.5833    3.8000    0.0000 C   0  0  0  0  0  0  0  0  0  0  0  0
   -3.1375    5.4542    0.0000 C   0  0  3  0  0  0  0  0  0  0  0  0
   -3.8625    4.2125    0.0000 N   0  0  0  0  0  0  0  0  0  0  0  0
   -6.1667    1.5583    0.0000 C   0  0  0  0  0  0  0  0  0  0  0  0
   -6.5875    2.2833    0.0000 C   0  0  0  0  0  0  0  0  0  0  0  0
   -4.7583    1.1708    0.0000 O   0  0  0  0  0  0  0  0  0  0  0  0
   -6.2125    3.7083    0.0000 O   0  0  0  0  0  0  0  0  0  0  0  0
   -3.8625    5.0292    0.0000 C   0  0  0  0  0  0  0  0  0  0  0  0
   -5.3000    4.2125    0.0000 O   0  0  0  0  0  0  0  0  0  0  0  0
   -2.4333    5.0417    0.0000 C   0  0  0  0  0  0  0  0  0  0  0  0
   -3.1375    7.0917    0.0000 O   0  0  0  0  0  0  0  0  0  0  0  0
   -2.4458    5.8667    0.0000 C   0  0  0  0  0  0  0  0  0  0  0  0
   -3.8625    5.8667    0.0000 C   0  0  0  0  0  0  0  0  0  0  0  0
   -3.8625    6.7000    0.0000 C   0  0  0  0  0  0  0  0  0  0  0  0
   -2.4458    6.7000    0.0000 C   0  0  0  0  0  0  0  0  0  0  0  0
   -1.7083    5.4542    0.0000 C   0  0  0  0  0  0  0  0  0  0  0  0
   -2.4333    4.2125    0.0000 C   0  0  0  0  0  0  0  0  0  0  0  0
   -0.9958    5.0417    0.0000 C   0  0  0  0  0  0  0  0  0  0  0  0
   -1.7083    3.8000    0.0000 C   0  0  0  0  0  0  0  0  0  0  0  0
   -0.9958    4.2125    0.0000 C   0  0  0  0  0  0  0  0  0  0  0  0
  2  1  1  0  0  0  0
  3  1  1  0  0  0  0
  4  1  1  0  0  0  0
  5  4  1  0  0  0  0
  6 12  1  0  0  0  0
  7  5  1  0  0  0  0
  8  2  1  0  0  0  0
  9  3  1  0  0  0  0
 10  2  2  0  0  0  0
 11  3  2  0  0  0  0
 12  7  1  0  0  0  0
 13  5  2  0  0  0  0
 14  6  1  0  0  0  0
 15 18  1  0  0  0  0
 16  6  1  0  0  0  0
 17  6  1  0  0  0  0
 18 17  1  0  0  0  0
 19 16  1  0  0  0  0
 20 14  2  0  0  0  0
 21 14  1  0  0  0  0
 22 20  1  0  0  0  0
 23 21  2  0  0  0  0
 24 23  1  0  0  0  0
  8  9  1  0  0  0  0
 19 15  1  0  0  0  0
 24 22  2  0  0  0  0
M  END
> <IDNUMBER>
F5831-9284

> <Chemical_Name>
2-(2,5-dioxopyrrolidin-1-yl)-N-[(4-phenyloxan-4-yl)methyl]acetamide

> <CAS>
1207011-50-4

> <PriceCoeff>
1.00

> <MW>
330.38

> <Description>
solid

> <FSP3>
0.50

> <clogP>
0.57

> <TPSA>
75.71

> <Acceptor>
4

> <Donor>
1

> <RotBonds>
5

> <HAC>
24

> <Collection>
General

$$$$
F5753-0272
  -ISIS-  06222321462D

 31 34  0  0  0  0  0  0  0  0999 V2000
   -3.8708    3.8000    0.0000 S   0  0  3  0  0  0  0  0  0  0  0  0
   -6.0125    3.4458    0.0000 N   0  0  3  0  0  0  0  0  0  0  0  0
   -0.2833    5.0292    0.0000 N   0  0  3  0  0  0  0  0  0  0  0  0
    0.6042    4.0292    0.0000 N   0  0  0  0  0  0  0  0  0  0  0  0
   -3.1583    4.2125    0.0000 N   0  0  3  0  0  0  0  0  0  0  0  0
    0.4667    5.3542    0.0000 C   0  0  0  0  0  0  0  0  0  0  0  0
   -0.2083    4.2042    0.0000 C   0  0  0  0  0  0  0  0  0  0  0  0
    1.0167    4.7292    0.0000 C   0  0  0  0  0  0  0  0  0  0  0  0
   -4.5958    3.4083    0.0000 C   0  0  0  0  0  0  0  0  0  0  0  0
   -6.0292    2.6208    0.0000 C   0  0  0  0  0  0  0  0  0  0  0  0
   -6.7167    3.8750    0.0000 C   0  0  0  0  0  0  0  0  0  0  0  0
    0.7292    6.1375    0.0000 C   0  0  0  0  0  0  0  0  0  0  0  0
   -5.2958    3.8333    0.0000 C   0  0  0  0  0  0  0  0  0  0  0  0
    1.8375    4.9042    0.0000 C   0  0  0  0  0  0  0  0  0  0  0  0
    1.5500    6.3125    0.0000 C   0  0  0  0  0  0  0  0  0  0  0  0
   -3.4708    3.0833    0.0000 O   0  0  0  0  0  0  0  0  0  0  0  0
   -4.0708    4.6042    0.0000 O   0  0  0  0  0  0  0  0  0  0  0  0
    2.0917    5.6875    0.0000 C   0  0  0  0  0  0  0  0  0  0  0  0
   -1.0083    5.4417    0.0000 C   0  0  0  0  0  0  0  0  0  0  0  0
   -3.1500    5.0292    0.0000 C   0  0  0  0  0  0  0  0  0  0  0  0
   -2.4333    3.8083    0.0000 C   0  0  0  0  0  0  0  0  0  0  0  0
   -5.3333    2.1833    0.0000 O   0  0  0  0  0  0  0  0  0  0  0  0
   -6.7000    4.6917    0.0000 O   0  0  0  0  0  0  0  0  0  0  0  0
   -1.7333    5.0250    0.0000 C   0  0  3  0  0  0  0  0  0  0  0  0
   -2.4333    5.4417    0.0000 C   0  0  0  0  0  0  0  0  0  0  0  0
   -1.7125    4.2042    0.0000 C   0  0  0  0  0  0  0  0  0  0  0  0
   -6.7542    2.2250    0.0000 C   0  0  0  0  0  0  0  0  0  0  0  0
   -7.4375    3.4833    0.0000 C   0  0  0  0  0  0  0  0  0  0  0  0
   -7.4542    2.6500    0.0000 C   0  0  0  0  0  0  0  0  0  0  0  0
    1.8042    7.0875    0.0000 C   0  0  0  0  0  0  0  0  0  0  0  0
    2.9125    5.8542    0.0000 C   0  0  0  0  0  0  0  0  0  0  0  0
  2 13  1  0  0  0  0
  3 19  1  0  0  0  0
  4  7  2  0  0  0  0
  5  1  1  0  0  0  0
  6  3  1  0  0  0  0
  7  3  1  0  0  0  0
  8  6  2  0  0  0  0
  9  1  1  0  0  0  0
 10  2  1  0  0  0  0
 11  2  1  0  0  0  0
 12  6  1  0  0  0  0
 13  9  1  0  0  0  0
 14  8  1  0  0  0  0
 15 12  2  0  0  0  0
 16  1  2  0  0  0  0
 17  1  2  0  0  0  0
 18 15  1  0  0  0  0
 19 24  1  0  0  0  0
 20  5  1  0  0  0  0
 21  5  1  0  0  0  0
 22 10  2  0  0  0  0
 23 11  2  0  0  0  0
 24 26  1  0  0  0  0
 25 20  1  0  0  0  0
 26 21  1  0  0  0  0
 27 10  1  0  0  0  0
 28 11  1  0  0  0  0
 29 28  1  0  0  0  0
 30 15  1  0  0  0  0
 31 18  1  0  0  0  0
 24 25  1  0  0  0  0
 29 27  1  0  0  0  0
  4  8  1  0  0  0  0
 14 18  2  0  0  0  0
M  END
> <IDNUMBER>
F5753-0272

> <Chemical_Name>
1-[2-({4-[(5,6-dimethyl-1H-1,3-benzodiazol-1-yl)methyl]piperidin-1-yl}sulfonyl)ethyl]piperidine-2,6-dione

> <CAS>
1207025-23-7

> <PriceCoeff>
1.50

> <MW>
446.56

> <Description>
solid

> <FSP3>
0.59

> <clogP>
2.92

> <TPSA>
100.96

> <Acceptor>
5

> <Donor>
0

> <RotBonds>
6

> <HAC>
31

> <Collection>
Advanced

$$$$
F5460-0500
  -ISIS-  06222321152D

 27 30  0  0  0  0  0  0  0  0999 V2000
   -4.0208    5.3917    0.0000 N   0  0  3  0  0  0  0  0  0  0  0  0
   -4.7458    5.2292    0.0000 C   0  0  0  0  0  0  0  0  0  0  0  0
   -3.4375    4.9167    0.0000 C   0  0  0  0  0  0  0  0  0  0  0  0
   -2.2625    2.6083    0.0000 N   0  0  3  0  0  0  0  0  0  0  0  0
   -5.2833    5.7667    0.0000 N   0  0  0  0  0  0  0  0  0  0  0  0
   -3.7333    6.0917    0.0000 N   0  0  0  0  0  0  0  0  0  0  0  0
   -5.0833    4.5792    0.0000 S   0  0  0  0  0  0  0  0  0  0  0  0
   -2.8083    5.3250    0.0000 C   0  0  0  0  0  0  0  0  0  0  0  0
   -3.4833    4.1667    0.0000 N   0  0  0  0  0  0  0  0  0  0  0  0
   -2.1458    1.8708    0.0000 C   0  0  0  0  0  0  0  0  0  0  0  0
   -1.5958    2.9583    0.0000 C   0  0  0  0  0  0  0  0  0  0  0  0
   -5.8125    4.6875    0.0000 C   0  0  0  0  0  0  0  0  0  0  0  0
   -5.9458    5.4167    0.0000 C   0  0  0  0  0  0  0  0  0  0  0  0
   -2.9875    6.0417    0.0000 C   0  0  0  0  0  0  0  0  0  0  0  0
   -2.8583    3.7708    0.0000 C   0  0  0  0  0  0  0  0  0  0  0  0
   -2.8958    3.0208    0.0000 C   0  0  0  0  0  0  0  0  0  0  0  0
   -6.3875    4.2125    0.0000 C   0  0  0  0  0  0  0  0  0  0  0  0
   -1.0708    2.4208    0.0000 C   0  0  0  0  0  0  0  0  0  0  0  0
   -1.4083    1.7500    0.0000 C   0  0  0  0  0  0  0  0  0  0  0  0
   -1.4833    3.6958    0.0000 O   0  0  0  0  0  0  0  0  0  0  0  0
   -2.6625    1.3375    0.0000 O   0  0  0  0  0  0  0  0  0  0  0  0
   -2.1958    4.1042    0.0000 O   0  0  0  0  0  0  0  0  0  0  0  0
   -6.6417    5.6792    0.0000 C   0  0  0  0  0  0  0  0  0  0  0  0
   -7.0875    4.4667    0.0000 C   0  0  0  0  0  0  0  0  0  0  0  0
   -7.2167    5.2000    0.0000 C   0  0  0  0  0  0  0  0  0  0  0  0
   -7.6667    3.9958    0.0000 F   0  0  0  0  0  0  0  0  0  0  0  0
   -2.5000    6.6167    0.0000 C   0  0  0  0  0  0  0  0  0  0  0  0
  2  1  1  0  0  0  0
  3  1  1  0  0  0  0
  4 16  1  0  0  0  0
  5  2  2  0  0  0  0
  6  1  1  0  0  0  0
  7  2  1  0  0  0  0
  8  3  2  0  0  0  0
  9  3  1  0  0  0  0
 10  4  1  0  0  0  0
 11  4  1  0  0  0  0
 12  7  1  0  0  0  0
 13  5  1  0  0  0  0
 14  6  2  0  0  0  0
 15  9  1  0  0  0  0
 16 15  1  0  0  0  0
 17 12  1  0  0  0  0
 18 11  1  0  0  0  0
 19 10  1  0  0  0  0
 20 11  2  0  0  0  0
 21 10  2  0  0  0  0
 22 15  2  0  0  0  0
 23 13  1  0  0  0  0
 24 17  2  0  0  0  0
 25 23  2  0  0  0  0
 26 24  1  0  0  0  0
 27 14  1  0  0  0  0
 14  8  1  0  0  0  0
 13 12  2  0  0  0  0
 24 25  1  0  0  0  0
 18 19  1  0  0  0  0
M  END
> <IDNUMBER>
F5460-0500

> <Chemical_Name>
2-(2,5-dioxopyrrolidin-1-yl)-N-[1-(6-fluoro-1,3-benzothiazol-2-yl)-3-methyl-1H-pyrazol-5-yl]acetamide

> <CAS>
1171479-94-9

> <PriceCoeff>
1.00

> <MW>
387.39

> <Description>
solid

> <FSP3>
0.24

> <clogP>
1.94

> <TPSA>
125.43

> <Acceptor>
5

> <Donor>
1

> <RotBonds>
4

> <HAC>
27

> <Collection>
General

$$$$
F3023-0980
  -ISIS-  06222321152D

 21 23  0  0  0  0  0  0  0  0999 V2000
    4.2417   -6.4542    0.0000 N   0  0  3  0  0  0  0  0  0  0  0  0
    4.6667   -7.0250    0.0000 C   0  0  0  0  0  0  0  0  0  0  0  0
    4.6625   -5.8792    0.0000 C   0  0  0  0  0  0  0  0  0  0  0  0
    5.3417   -6.8042    0.0000 C   0  0  3  0  0  0  0  0  0  0  0  0
    5.3375   -6.0917    0.0000 C   0  0  0  0  0  0  0  0  0  0  0  0
    8.5042   -6.0625    0.0000 N   0  0  3  0  0  0  0  0  0  0  0  0
    5.9125   -7.2167    0.0000 N   0  0  0  0  0  0  0  0  0  0  0  0
    7.8542   -6.3542    0.0000 C   0  0  0  0  0  0  0  0  0  0  0  0
    4.4542   -7.7000    0.0000 O   0  0  0  0  0  0  0  0  0  0  0  0
    4.4375   -5.2042    0.0000 O   0  0  0  0  0  0  0  0  0  0  0  0
    7.2750   -5.9375    0.0000 C   0  0  0  0  0  0  0  0  0  0  0  0
    7.7792   -7.0542    0.0000 C   0  0  0  0  0  0  0  0  0  0  0  0
    6.5625   -6.9292    0.0000 C   0  0  0  0  0  0  0  0  0  0  0  0
    3.5375   -6.4542    0.0000 C   0  0  0  0  0  0  0  0  0  0  0  0
    6.6292   -6.2250    0.0000 C   0  0  0  0  0  0  0  0  0  0  0  0
    7.1292   -7.3417    0.0000 C   0  0  0  0  0  0  0  0  0  0  0  0
    9.0792   -6.4792    0.0000 C   0  0  0  0  0  0  0  0  0  0  0  0
    8.5750   -5.3542    0.0000 C   0  0  0  0  0  0  0  0  0  0  0  0
    9.2250   -5.0667    0.0000 C   0  0  0  0  0  0  0  0  0  0  0  0
    9.7250   -6.1917    0.0000 C   0  0  0  0  0  0  0  0  0  0  0  0
    9.8042   -5.4875    0.0000 C   0  0  0  0  0  0  0  0  0  0  0  0
  2  1  1  0  0  0  0
  3  1  1  0  0  0  0
  4  2  1  0  0  0  0
  5  3  1  0  0  0  0
  6  8  1  0  0  0  0
  7  4  1  0  0  0  0
  8 12  2  0  0  0  0
  9  2  2  0  0  0  0
 10  3  2  0  0  0  0
 11 15  2  0  0  0  0
 12 16  1  0  0  0  0
 13  7  1  0  0  0  0
 14  1  1  0  0  0  0
 15 13  1  0  0  0  0
 16 13  2  0  0  0  0
 17  6  1  0  0  0  0
 18  6  1  0  0  0  0
 19 18  1  0  0  0  0
 20 17  1  0  0  0  0
 21 19  1  0  0  0  0
  5  4  1  0  0  0  0
  8 11  1  0  0  0  0
 21 20  1  0  0  0  0
M  END
> <IDNUMBER>
F3023-0980

> <Chemical_Name>
1-methyl-3-{[4-(piperidin-1-yl)phenyl]amino}pyrrolidine-2,5-dione

> <CAS>
1009667-37-1

> <PriceCoeff>
1.00

> <MW>
287.36

> <Description>
solid

> <FSP3>
0.50

> <clogP>
2.49

> <TPSA>
52.65

> <Acceptor>
4

> <Donor>
2

> <RotBonds>
3

> <HAC>
21

> <Collection>
General

$$$$
F5831-9107
  -ISIS-  06222321462D

 22 24  0  0  0  0  0  0  0  0999 V2000
   -5.2875    2.5625    0.0000 N   0  0  3  0  0  0  0  0  0  0  0  0
   -3.1500    5.4542    0.0000 C   0  0  3  0  0  0  0  0  0  0  0  0
   -5.3708    1.7333    0.0000 C   0  0  0  0  0  0  0  0  0  0  0  0
   -6.0292    2.9000    0.0000 C   0  0  0  0  0  0  0  0  0  0  0  0
   -2.7375    6.1667    0.0000 C   0  0  0  0  0  0  0  0  0  0  0  0
   -3.5625    6.1667    0.0000 C   0  0  0  0  0  0  0  0  0  0  0  0
   -4.5833    2.9833    0.0000 C   0  0  0  0  0  0  0  0  0  0  0  0
   -4.5833    3.8000    0.0000 C   0  0  0  0  0  0  0  0  0  0  0  0
   -2.4333    5.0417    0.0000 C   0  0  0  0  0  0  0  0  0  0  0  0
   -3.8625    5.0292    0.0000 C   0  0  0  0  0  0  0  0  0  0  0  0
   -3.8625    4.2125    0.0000 N   0  0  0  0  0  0  0  0  0  0  0  0
   -6.1667    1.5583    0.0000 C   0  0  0  0  0  0  0  0  0  0  0  0
   -6.5875    2.2833    0.0000 C   0  0  0  0  0  0  0  0  0  0  0  0
   -4.7583    1.1708    0.0000 O   0  0  0  0  0  0  0  0  0  0  0  0
   -6.2125    3.7083    0.0000 O   0  0  0  0  0  0  0  0  0  0  0  0
   -5.3000    4.2125    0.0000 O   0  0  0  0  0  0  0  0  0  0  0  0
   -1.7208    5.4542    0.0000 C   0  0  0  0  0  0  0  0  0  0  0  0
   -2.4333    4.2125    0.0000 C   0  0  0  0  0  0  0  0  0  0  0  0
   -1.0083    4.2167    0.0000 C   0  0  0  0  0  0  0  0  0  0  0  0
   -1.0083    5.0417    0.0000 C   0  0  0  0  0  0  0  0  0  0  0  0
   -1.7208    3.8000    0.0000 C   0  0  0  0  0  0  0  0  0  0  0  0
   -0.2958    3.8083    0.0000 F   0  0  0  0  0  0  0  0  0  0  0  0
  2 10  1  0  0  0  0
  3  1  1  0  0  0  0
  4  1  1  0  0  0  0
  5  2  1  0  0  0  0
  6  2  1  0  0  0  0
  7  1  1  0  0  0  0
  8  7  1  0  0  0  0
  9  2  1  0  0  0  0
 10 11  1  0  0  0  0
 11  8  1  0  0  0  0
 12  3  1  0  0  0  0
 13  4  1  0  0  0  0
 14  3  2  0  0  0  0
 15  4  2  0  0  0  0
 16  8  2  0  0  0  0
 17  9  2  0  0  0  0
 18  9  1  0  0  0  0
 19 21  1  0  0  0  0
 20 17  1  0  0  0  0
 21 18  2  0  0  0  0
 22 19  1  0  0  0  0
 12 13  1  0  0  0  0
  5  6  1  0  0  0  0
 20 19  2  0  0  0  0
M  END
> <IDNUMBER>
F5831-9107

> <Chemical_Name>
2-(2,5-dioxopyrrolidin-1-yl)-N-{[1-(4-fluorophenyl)cyclopropyl]methyl}acetamide

> <CAS>
1207052-67-2

> <PriceCoeff>
1.00

> <MW>
304.32

> <Description>
solid

> <FSP3>
0.44

> <clogP>
1.43

> <TPSA>
66.48

> <Acceptor>
3

> <Donor>
1

> <RotBonds>
5

> <HAC>
22

> <Collection>
General

$$$$
F1800-0053
  -ISIS-  06222321142D

 21 22  0  0  0  0  0  0  0  0999 V2000
   -3.7583    2.3708    0.0000 N   0  0  3  0  0  0  0  0  0  0  0  0
   -6.2167    0.9625    0.0000 C   0  0  0  0  0  0  0  0  0  0  0  0
   -3.3333    3.0833    0.0000 C   0  0  0  0  0  0  0  0  0  0  0  0
   -3.3500    1.6500    0.0000 C   0  0  0  0  0  0  0  0  0  0  0  0
   -4.9958    1.6708    0.0000 C   0  0  0  0  0  0  0  0  0  0  0  0
   -5.8125    1.6833    0.0000 N   0  0  0  0  0  0  0  0  0  0  0  0
   -5.8208    0.2458    0.0000 C   0  0  0  0  0  0  0  0  0  0  0  0
   -7.0417    0.9708    0.0000 C   0  0  0  0  0  0  0  0  0  0  0  0
   -4.5833    2.3750    0.0000 C   0  0  0  0  0  0  0  0  0  0  0  0
   -2.1083    2.3458    0.0000 S   0  0  0  0  0  0  0  0  0  0  0  0
   -7.4625    0.2625    0.0000 C   0  0  0  0  0  0  0  0  0  0  0  0
   -6.2292   -0.4667    0.0000 C   0  0  0  0  0  0  0  0  0  0  0  0
   -3.7375    3.8000    0.0000 O   0  0  0  0  0  0  0  0  0  0  0  0
   -3.7708    0.9375    0.0000 O   0  0  0  0  0  0  0  0  0  0  0  0
   -4.5958    0.9500    0.0000 O   0  0  0  0  0  0  0  0  0  0  0  0
   -7.0542   -0.4542    0.0000 C   0  0  0  0  0  0  0  0  0  0  0  0
   -2.5083    3.0625    0.0000 C   0  0  0  0  0  0  0  0  0  0  0  0
   -2.5333    1.6458    0.0000 C   0  0  0  0  0  0  0  0  0  0  0  0
   -7.4625    1.6833    0.0000 C   0  0  0  0  0  0  0  0  0  0  0  0
   -4.9958    0.2333    0.0000 C   0  0  0  0  0  0  0  0  0  0  0  0
   -7.4792   -1.1667    0.0000 C   0  0  0  0  0  0  0  0  0  0  0  0
  2  6  1  0  0  0  0
  3  1  1  0  0  0  0
  4  1  1  0  0  0  0
  5  9  1  0  0  0  0
  6  5  1  0  0  0  0
  7  2  1  0  0  0  0
  8  2  2  0  0  0  0
  9  1  1  0  0  0  0
 10 18  1  0  0  0  0
 11  8  1  0  0  0  0
 12  7  2  0  0  0  0
 13  3  2  0  0  0  0
 14  4  2  0  0  0  0
 15  5  2  0  0  0  0
 16 11  2  0  0  0  0
 17  3  1  0  0  0  0
 18  4  1  0  0  0  0
 19  8  1  0  0  0  0
 20  7  1  0  0  0  0
 21 16  1  0  0  0  0
 17 10  1  0  0  0  0
 12 16  1  0  0  0  0
M  END
> <IDNUMBER>
F1800-0053

> <Chemical_Name>
2-(3,5-dioxothiomorpholin-4-yl)-N-(2,4,6-trimethylphenyl)acetamide

> <CAS>
868215-21-8

> <PriceCoeff>
1.00

> <MW>
306.38

> <Description>
solid

> <FSP3>
0.40

> <clogP>
1.65

> <TPSA>
91.78

> <Acceptor>
3

> <Donor>
1

> <RotBonds>
3

> <HAC>
21

> <Collection>
General

$$$$
F6473-3933
  -ISIS-  06222321442D

 24 27  0  0  0  0  0  0  0  0999 V2000
   -3.7458    3.6958    0.0000 S   0  0  3  0  0  0  0  0  0  0  0  0
   -3.0333    4.1042    0.0000 N   0  0  3  0  0  0  0  0  0  0  0  0
   -1.3083    5.1042    0.0000 N   0  0  3  0  0  0  0  0  0  0  0  0
   -2.0333    4.6875    0.0000 C   0  0  3  0  0  0  0  0  0  0  0  0
   -4.4542    3.2833    0.0000 C   0  0  0  0  0  0  0  0  0  0  0  0
   -2.8208    4.9000    0.0000 C   0  0  0  0  0  0  0  0  0  0  0  0
   -2.2458    3.8958    0.0000 C   0  0  0  0  0  0  0  0  0  0  0  0
   -0.5583    4.7667    0.0000 C   0  0  0  0  0  0  0  0  0  0  0  0
   -1.2250    5.9167    0.0000 C   0  0  0  0  0  0  0  0  0  0  0  0
   -5.1833    3.6833    0.0000 C   0  0  0  0  0  0  0  0  0  0  0  0
   -3.3333    2.9958    0.0000 O   0  0  0  0  0  0  0  0  0  0  0  0
   -4.1625    4.4042    0.0000 O   0  0  0  0  0  0  0  0  0  0  0  0
   -0.0083    5.3792    0.0000 C   0  0  0  0  0  0  0  0  0  0  0  0
   -0.4208    6.0917    0.0000 C   0  0  0  0  0  0  0  0  0  0  0  0
   -0.3875    3.9625    0.0000 O   0  0  0  0  0  0  0  0  0  0  0  0
   -1.8417    6.4708    0.0000 O   0  0  0  0  0  0  0  0  0  0  0  0
   -5.8917    3.2667    0.0000 C   0  0  0  0  0  0  0  0  0  0  0  0
   -4.4458    2.4583    0.0000 C   0  0  0  0  0  0  0  0  0  0  0  0
   -5.1875    4.4917    0.0000 C   0  0  0  0  0  0  0  0  0  0  0  0
   -5.1542    2.0333    0.0000 C   0  0  0  0  0  0  0  0  0  0  0  0
   -5.8750    2.4333    0.0000 C   0  0  0  0  0  0  0  0  0  0  0  0
   -6.5917    3.6667    0.0000 C   0  0  0  0  0  0  0  0  0  0  0  0
   -5.9083    4.8917    0.0000 C   0  0  0  0  0  0  0  0  0  0  0  0
   -6.6042    4.4792    0.0000 C   0  0  0  0  0  0  0  0  0  0  0  0
  2  1  1  0  0  0  0
  3  4  1  0  0  0  0
  4  7  1  0  0  0  0
  5  1  1  0  0  0  0
  6  2  1  0  0  0  0
  7  2  1  0  0  0  0
  8  3  1  0  0  0  0
  9  3  1  0  0  0  0
 10  5  2  0  0  0  0
 11  1  2  0  0  0  0
 12  1  2  0  0  0  0
 13  8  1  0  0  0  0
 14  9  1  0  0  0  0
 15  8  2  0  0  0  0
 16  9  2  0  0  0  0
 17 10  1  0  0  0  0
 18  5  1  0  0  0  0
 19 10  1  0  0  0  0
 20 18  2  0  0  0  0
 21 20  1  0  0  0  0
 22 17  1  0  0  0  0
 23 19  2  0  0  0  0
 24 23  1  0  0  0  0
  6  4  1  0  0  0  0
 17 21  2  0  0  0  0
 24 22  2  0  0  0  0
 14 13  1  0  0  0  0
M  END
> <IDNUMBER>
F6473-3933

> <Chemical_Name>
1-[1-(naphthalene-1-sulfonyl)azetidin-3-yl]pyrrolidine-2,5-dione

> <CAS>
1795422-65-9

> <PriceCoeff>
1.00

> <MW>
344.38

> <Description>
solid

> <FSP3>
0.29

> <clogP>
1.94

> <TPSA>
83.14

> <Acceptor>
4

> <Donor>
0

> <RotBonds>
3

> <HAC>
24

> <Collection>
General

$$$$
F3395-2209
  -ISIS-  06222321442D

 14 14  0  0  0  0  0  0  0  0999 V2000
    2.8542   -4.1250    0.0000 C   0  0  0  0  0  0  0  0  0  0  0  0
    2.8542   -4.9500    0.0000 O   0  0  0  0  0  0  0  0  0  0  0  0
    3.5667   -3.7125    0.0000 O   0  0  0  0  0  0  0  0  0  0  0  0
    4.2792   -4.1250    0.0000 C   0  0  0  0  0  0  0  0  0  0  0  0
    5.7125   -4.1250    0.0000 C   0  0  0  0  0  0  0  0  0  0  0  0
    2.1417   -3.7125    0.0000 C   0  0  0  0  0  0  0  0  0  0  0  0
    5.0000   -3.7125    0.0000 C   0  0  0  0  0  0  0  0  0  0  0  0
    6.4292   -3.7125    0.0000 C   0  0  0  0  0  0  0  0  0  0  0  0
    5.7125   -4.9500    0.0000 C   0  0  0  0  0  0  0  0  0  0  0  0
    1.4250   -4.1250    0.0000 C   0  0  0  0  0  0  0  0  0  0  0  0
    0.7125   -3.7125    0.0000 C   0  0  0  0  0  0  0  0  0  0  0  0
    6.4292   -5.3625    0.0000 C   0  0  0  0  0  0  0  0  0  0  0  0
    7.1417   -4.1250    0.0000 C   0  0  0  0  0  0  0  0  0  0  0  0
    7.1417   -4.9500    0.0000 C   0  0  0  0  0  0  0  0  0  0  0  0
  2  1  2  0  0  0  0
  3  1  1  0  0  0  0
  4  3  1  0  0  0  0
  5  7  1  0  0  0  0
  6  1  1  0  0  0  0
  7  4  1  0  0  0  0
  8  5  2  0  0  0  0
  9  5  1  0  0  0  0
 10  6  1  0  0  0  0
 11 10  1  0  0  0  0
 12  9  2  0  0  0  0
 13  8  1  0  0  0  0
 14 12  1  0  0  0  0
 14 13  2  0  0  0  0
M  END
> <IDNUMBER>
F3395-2209

> <Chemical_Name>
2-phenylethyl butanoate

> <CAS>


> <PriceCoeff>
1.00

> <MW>
192.26

> <Description>
liquid

> <FSP3>
0.42

> <clogP>
3.34

> <TPSA>
26.30

> <Acceptor>
2

> <Donor>
0

> <RotBonds>
6

> <HAC>
14

> <Collection>
General

> <Reference_compound>
CHEMBL1867360

> <Similarity>
0.9360

$$$$
F1167-0035
  -ISIS-  06222321142D

 21 22  0  0  0  0  0  0  0  0999 V2000
    0.6542   -1.3917    0.0000 C   0  0  0  0  0  0  0  0  0  0  0  0
    0.6542   -0.5667    0.0000 C   0  0  0  0  0  0  0  0  0  0  0  0
    1.4292   -1.6417    0.0000 N   0  0  0  0  0  0  0  0  0  0  0  0
   -0.0583   -1.7917    0.0000 N   0  0  3  0  0  0  0  0  0  0  0  0
   -0.7958   -0.5667    0.0000 N   0  0  3  0  0  0  0  0  0  0  0  0
   -0.7958   -1.3917    0.0000 C   0  0  0  0  0  0  0  0  0  0  0  0
   -0.0583   -0.1417    0.0000 C   0  0  0  0  0  0  0  0  0  0  0  0
    1.9042   -0.9667    0.0000 C   0  0  0  0  0  0  0  0  0  0  0  0
    1.4917   -0.2500    0.0000 N   0  0  3  0  0  0  0  0  0  0  0  0
   -1.5208   -1.7917    0.0000 O   0  0  0  0  0  0  0  0  0  0  0  0
   -0.0583    0.6833    0.0000 O   0  0  0  0  0  0  0  0  0  0  0  0
    2.6917   -1.1792    0.0000 N   0  0  0  0  0  0  0  0  0  0  0  0
   -0.0583   -2.6167    0.0000 C   0  0  0  0  0  0  0  0  0  0  0  0
   -1.5083   -0.1542    0.0000 C   0  0  0  0  0  0  0  0  0  0  0  0
    1.4875    0.5708    0.0000 C   0  0  0  0  0  0  0  0  0  0  0  0
    3.1042   -1.8917    0.0000 C   0  0  0  0  0  0  0  0  0  0  0  0
    2.1917    0.9833    0.0000 C   0  0  0  0  0  0  0  0  0  0  0  0
    3.6167    1.8083    0.0000 C   0  0  0  0  0  0  0  0  0  0  0  0
    3.6167    0.9875    0.0000 C   0  0  0  0  0  0  0  0  0  0  0  0
    2.9042    0.5750    0.0000 C   0  0  0  0  0  0  0  0  0  0  0  0
    4.3292    2.2208    0.0000 C   0  0  0  0  0  0  0  0  0  0  0  0
  2  1  2  0  0  0  0
  3  1  1  0  0  0  0
  4  1  1  0  0  0  0
  5  6  1  0  0  0  0
  6  4  1  0  0  0  0
  7  2  1  0  0  0  0
  8  3  2  0  0  0  0
  9  2  1  0  0  0  0
 10  6  2  0  0  0  0
 11  7  2  0  0  0  0
 12  8  1  0  0  0  0
 13  4  1  0  0  0  0
 14  5  1  0  0  0  0
 15  9  1  0  0  0  0
 16 12  1  0  0  0  0
 17 15  1  0  0  0  0
 18 19  1  0  0  0  0
 19 20  1  0  0  0  0
 20 17  1  0  0  0  0
 21 18  1  0  0  0  0
  8  9  1  0  0  0  0
  5  7  1  0  0  0  0
M  END
> <IDNUMBER>
F1167-0035

> <Chemical_Name>
7-hexyl-1,3-dimethyl-8-(methylamino)-2,3,6,7-tetrahydro-1H-purine-2,6-dione

> <CAS>
377062-31-2

> <PriceCoeff>
1.00

> <MW>
293.36

> <Description>
solid

> <FSP3>
0.64

> <clogP>
3.16

> <TPSA>
70.47

> <Acceptor>
3

> <Donor>
2

> <RotBonds>
6

> <HAC>
21

> <Collection>
General

> <Reference_compound>
CHEMBL113

> <Similarity>
0.8030

$$$$
F3260-0382
  -ISIS-  06222321152D

 21 22  0  0  0  0  0  0  0  0999 V2000
    3.6292    2.9375    0.0000 C   0  0  0  0  0  0  0  0  0  0  0  0
    3.6292    4.3292    0.0000 C   0  0  0  0  0  0  0  0  0  0  0  0
    4.9667    2.5083    0.0000 N   0  0  0  0  0  0  0  0  0  0  0  0
    2.4167    2.2375    0.0000 N   0  0  3  0  0  0  0  0  0  0  0  0
    1.2042    4.3292    0.0000 N   0  0  3  0  0  0  0  0  0  0  0  0
    1.2042    2.9375    0.0000 C   0  0  0  0  0  0  0  0  0  0  0  0
    2.4167    5.0292    0.0000 C   0  0  0  0  0  0  0  0  0  0  0  0
    5.7917    3.6458    0.0000 C   0  0  0  0  0  0  0  0  0  0  0  0
    4.9667    4.7667    0.0000 N   0  0  3  0  0  0  0  0  0  0  0  0
    0.2167    1.9583    0.0000 O   0  0  0  0  0  0  0  0  0  0  0  0
    2.4167    6.4292    0.0000 O   0  0  0  0  0  0  0  0  0  0  0  0
    7.1917    3.6458    0.0000 N   0  0  0  0  0  0  0  0  0  0  0  0
    2.4167    0.8375    0.0000 C   0  0  0  0  0  0  0  0  0  0  0  0
    0.0000    5.0292    0.0000 C   0  0  0  0  0  0  0  0  0  0  0  0
    5.4000    6.0917    0.0000 C   0  0  0  0  0  0  0  0  0  0  0  0
    7.8917    2.4250    0.0000 C   0  0  0  0  0  0  0  0  0  0  0  0
    6.7667    6.3917    0.0000 C   0  0  0  0  0  0  0  0  0  0  0  0
    9.2917    2.4250    0.0000 C   0  0  0  0  0  0  0  0  0  0  0  0
   11.3917    1.2125    0.0000 C   0  0  0  0  0  0  0  0  0  0  0  0
    9.9917    1.2125    0.0000 C   0  0  0  0  0  0  0  0  0  0  0  0
   12.0917   -0.0000    0.0000 C   0  0  0  0  0  0  0  0  0  0  0  0
  2  1  2  0  0  0  0
  3  1  1  0  0  0  0
  4  1  1  0  0  0  0
  5  6  1  0  0  0  0
  6  4  1  0  0  0  0
  7  2  1  0  0  0  0
  8  3  2  0  0  0  0
  9  2  1  0  0  0  0
 10  6  2  0  0  0  0
 11  7  2  0  0  0  0
 12  8  1  0  0  0  0
 13  4  1  0  0  0  0
 14  5  1  0  0  0  0
 15  9  1  0  0  0  0
 16 12  1  0  0  0  0
 17 15  1  0  0  0  0
 18 16  1  0  0  0  0
 19 20  1  0  0  0  0
 20 18  1  0  0  0  0
 21 19  1  0  0  0  0
  8  9  1  0  0  0  0
  7  5  1  0  0  0  0
M  END
> <IDNUMBER>
F3260-0382

> <Chemical_Name>
7-ethyl-1,3-dimethyl-8-(pentylamino)-2,3,6,7-tetrahydro-1H-purine-2,6-dione

> <CAS>
906212-56-4

> <PriceCoeff>
1.00

> <MW>
293.36

> <Description>
solid

> <FSP3>
0.64

> <clogP>
3.16

> <TPSA>
70.47

> <Acceptor>
3

> <Donor>
2

> <RotBonds>
6

> <HAC>
21

> <Collection>
General

> <Reference_compound>
CHEMBL113

> <Similarity>
0.8000

$$$$
F6412-1460
  -ISIS-  06222321462D

 24 25  0  0  0  0  0  0  0  0999 V2000
   -4.6750    2.5833    0.0000 N   0  0  3  0  0  0  0  0  0  0  0  0
   -5.4208    2.9833    0.0000 C   0  0  0  0  0  0  0  0  0  0  0  0
   -4.8125    1.7625    0.0000 C   0  0  0  0  0  0  0  0  0  0  0  0
   -3.9250    2.9583    0.0000 C   0  0  0  0  0  0  0  0  0  0  0  0
   -3.8708    5.4417    0.0000 C   0  0  0  0  0  0  0  0  0  0  0  0
   -4.5792    5.8542    0.0000 C   0  0  0  0  0  0  0  0  0  0  0  0
   -3.8708    3.8000    0.0000 C   0  0  0  0  0  0  0  0  0  0  0  0
   -6.0167    2.3917    0.0000 C   0  0  0  0  0  0  0  0  0  0  0  0
   -5.6458    1.6333    0.0000 C   0  0  0  0  0  0  0  0  0  0  0  0
   -5.5458    3.8083    0.0000 O   0  0  0  0  0  0  0  0  0  0  0  0
   -4.2250    1.1708    0.0000 O   0  0  0  0  0  0  0  0  0  0  0  0
   -4.4667    4.0875    0.0000 O   0  0  0  0  0  0  0  0  0  0  0  0
   -5.9958    8.3292    0.0000 C   0  0  0  0  0  0  0  0  0  0  0  0
   -6.0000    7.5042    0.0000 C   0  0  0  0  0  0  0  0  0  0  0  0
   -3.1583    4.2042    0.0000 N   0  0  0  0  0  0  0  0  0  0  0  0
   -3.1583    5.0292    0.0000 C   0  0  0  0  0  0  0  0  0  0  0  0
   -5.2875    7.0917    0.0000 O   0  0  0  0  0  0  0  0  0  0  0  0
   -5.2833    8.7417    0.0000 O   0  0  0  0  0  0  0  0  0  0  0  0
   -5.2833    6.2625    0.0000 C   0  0  0  0  0  0  0  0  0  0  0  0
   -6.6917    7.0917    0.0000 C   0  0  0  0  0  0  0  0  0  0  0  0
   -6.7000    8.7417    0.0000 C   0  0  0  0  0  0  0  0  0  0  0  0
   -4.5625    8.3208    0.0000 C   0  0  0  0  0  0  0  0  0  0  0  0
   -7.4083    7.4917    0.0000 C   0  0  0  0  0  0  0  0  0  0  0  0
   -7.4083    8.3292    0.0000 C   0  0  0  0  0  0  0  0  0  0  0  0
  2  1  1  0  0  0  0
  3  1  1  0  0  0  0
  4  1  1  0  0  0  0
  5 16  1  0  0  0  0
  6  5  3  0  0  0  0
  7  4  1  0  0  0  0
  8  2  1  0  0  0  0
  9  3  1  0  0  0  0
 10  2  2  0  0  0  0
 11  3  2  0  0  0  0
 12  7  2  0  0  0  0
 13 14  2  0  0  0  0
 14 17  1  0  0  0  0
 15  7  1  0  0  0  0
 16 15  1  0  0  0  0
 17 19  1  0  0  0  0
 18 13  1  0  0  0  0
 19  6  1  0  0  0  0
 20 14  1  0  0  0  0
 21 13  1  0  0  0  0
 22 18  1  0  0  0  0
 23 20  2  0  0  0  0
 24 23  1  0  0  0  0
  8  9  1  0  0  0  0
 21 24  2  0  0  0  0
M  END
> <IDNUMBER>
F6412-1460

> <Chemical_Name>
2-(2,5-dioxopyrrolidin-1-yl)-N-[4-(2-methoxyphenoxy)but-2-yn-1-yl]acetamide

> <CAS>
1421512-74-4

> <PriceCoeff>
1.00

> <MW>
330.34

> <Description>
solid

> <FSP3>
0.35

> <clogP>
1.36

> <TPSA>
84.94

> <Acceptor>
5

> <Donor>
1

> <RotBonds>
7

> <HAC>
24

> <Collection>
General

$$$$
F1974-0012
  -ISIS-  06222304352D

  9  8  0  0  0  0  0  0  0  0999 V2000
    5.4917   -2.6500    0.0000 C   0  0  0  0  0  0  0  0  0  0  0  0
    4.8167   -3.1292    0.0000 O   0  0  0  0  0  0  0  0  0  0  0  0
    5.2292   -1.8625    0.0000 C   0  0  0  0  0  0  0  0  0  0  0  0
    4.1542   -2.6500    0.0000 C   0  0  0  0  0  0  0  0  0  0  0  0
    4.4042   -1.8625    0.0000 C   0  0  0  0  0  0  0  0  0  0  0  0
    6.4417   -3.7125    0.0000 N   0  0  0  0  0  0  0  0  0  0  0  0
    6.2667   -2.9000    0.0000 C   0  0  0  0  0  0  0  0  0  0  0  0
    7.2292   -3.9625    0.0000 C   0  0  0  0  0  0  0  0  0  0  0  0
    8.6167   -2.8417    0.0000 Cl  0  0  0  0  0  0  0  0  0  0  0  0
  3  1  2  0  0  0  0
  4  2  1  0  0  0  0
  5  3  1  0  0  0  0
  6  7  1  0  0  0  0
  7  1  1  0  0  0  0
  8  6  1  0  0  0  0
  5  4  2  0  0  0  0
  2  1  1  0  0  0  0
M  END
> <IDNUMBER>
F1974-0012

> <Chemical_Name>
[(furan-2-yl)methyl](methyl)amine hydrochloride

> <CAS>
99839-46-0

> <PriceCoeff>
1.00

> <MW>
111.14

> <Description>
solid

> <FSP3>
0.33

> <clogP>
0.69

> <TPSA>
25.17

> <Acceptor>
1

> <Donor>
1

> <RotBonds>
2

> <HAC>
8

> <Collection>
General

> <Reference_compound>
CHEMBL1316369

> <Similarity>
0.8310

$$$$
F1800-0173
  -ISIS-  06222321142D

 20 21  0  0  0  0  0  0  0  0999 V2000
   -3.7250    2.3000    0.0000 N   0  0  3  0  0  0  0  0  0  0  0  0
   -3.3500    2.9583    0.0000 C   0  0  0  0  0  0  0  0  0  0  0  0
   -3.3500    1.6583    0.0000 C   0  0  0  0  0  0  0  0  0  0  0  0
   -2.2250    2.3000    0.0000 S   0  0  0  0  0  0  0  0  0  0  0  0
   -4.4750    2.3000    0.0000 C   0  0  0  0  0  0  0  0  0  0  0  0
   -4.8500    2.9458    0.0000 C   0  0  0  0  0  0  0  0  0  0  0  0
   -2.6000    2.9583    0.0000 C   0  0  3  0  0  0  0  0  0  0  0  0
   -2.6000    1.6583    0.0000 C   0  0  0  0  0  0  0  0  0  0  0  0
   -5.6000    2.9458    0.0000 N   0  0  0  0  0  0  0  0  0  0  0  0
   -3.7333    3.6083    0.0000 O   0  0  0  0  0  0  0  0  0  0  0  0
   -3.7333    1.0000    0.0000 O   0  0  0  0  0  0  0  0  0  0  0  0
   -4.4750    3.5958    0.0000 O   0  0  0  0  0  0  0  0  0  0  0  0
   -5.9750    3.5875    0.0000 C   0  0  0  0  0  0  0  0  0  0  0  0
   -6.7167    4.8917    0.0000 C   0  0  0  0  0  0  0  0  0  0  0  0
   -7.0917    5.5417    0.0000 F   0  0  0  0  0  0  0  0  0  0  0  0
   -5.6000    4.2417    0.0000 C   0  0  0  0  0  0  0  0  0  0  0  0
   -6.7167    3.5958    0.0000 C   0  0  0  0  0  0  0  0  0  0  0  0
   -7.0917    4.2292    0.0000 C   0  0  0  0  0  0  0  0  0  0  0  0
   -5.9750    4.8917    0.0000 C   0  0  0  0  0  0  0  0  0  0  0  0
   -2.2208    3.6083    0.0000 C   0  0  0  0  0  0  0  0  0  0  0  0
  2  1  1  0  0  0  0
  3  1  1  0  0  0  0
  4  8  1  0  0  0  0
  5  1  1  0  0  0  0
  6  5  1  0  0  0  0
  7  2  1  0  0  0  0
  8  3  1  0  0  0  0
  9  6  1  0  0  0  0
 10  2  2  0  0  0  0
 11  3  2  0  0  0  0
 12  6  2  0  0  0  0
 13  9  1  0  0  0  0
 14 18  1  0  0  0  0
 15 14  1  0  0  0  0
 16 13  2  0  0  0  0
 17 13  1  0  0  0  0
 18 17  2  0  0  0  0
 19 16  1  0  0  0  0
 20  7  1  0  0  0  0
  4  7  1  0  0  0  0
 19 14  2  0  0  0  0
M  END
> <IDNUMBER>
F1800-0173

> <Chemical_Name>
N-(4-fluorophenyl)-2-(2-methyl-3,5-dioxothiomorpholin-4-yl)acetamide

> <CAS>
868215-94-5

> <PriceCoeff>
1.00

> <MW>
296.32

> <Description>
solid

> <FSP3>
0.31

> <clogP>
2.37

> <TPSA>
91.78

> <Acceptor>
3

> <Donor>
1

> <RotBonds>
3

> <HAC>
20

> <Collection>
General

$$$$
F6274-0155
  -ISIS-  06222321462D

 26 29  0  0  0  0  0  0  0  0999 V2000
    8.4417   -4.5542    0.0000 C   0  0  0  0  0  0  0  0  0  0  0  0
    9.2000   -4.9042    0.0000 N   0  0  0  0  0  0  0  0  0  0  0  0
    3.8292   -5.5375    0.0000 N   0  0  3  0  0  0  0  0  0  0  0  0
    7.7167   -4.9667    0.0000 N   0  0  3  0  0  0  0  0  0  0  0  0
    8.5292   -3.7292    0.0000 S   0  0  0  0  0  0  0  0  0  0  0  0
    9.7625   -4.2875    0.0000 C   0  0  0  0  0  0  0  0  0  0  0  0
    3.0667   -5.8625    0.0000 C   0  0  0  0  0  0  0  0  0  0  0  0
    3.7500   -4.7125    0.0000 C   0  0  0  0  0  0  0  0  0  0  0  0
    9.3542   -3.5625    0.0000 C   0  0  0  0  0  0  0  0  0  0  0  0
    6.7000   -5.5500    0.0000 C   0  0  3  0  0  0  0  0  0  0  0  0
    5.2667   -5.5417    0.0000 C   0  0  0  0  0  0  0  0  0  0  0  0
    4.5417   -5.9542    0.0000 C   0  0  0  0  0  0  0  0  0  0  0  0
    7.5042   -5.7667    0.0000 C   0  0  0  0  0  0  0  0  0  0  0  0
    6.9167   -4.7542    0.0000 C   0  0  0  0  0  0  0  0  0  0  0  0
    5.9792   -5.9625    0.0000 O   0  0  0  0  0  0  0  0  0  0  0  0
   10.5917   -4.2917    0.0000 C   0  0  0  0  0  0  0  0  0  0  0  0
    2.5250   -5.2375    0.0000 C   0  0  0  0  0  0  0  0  0  0  0  0
    2.9417   -4.5292    0.0000 C   0  0  0  0  0  0  0  0  0  0  0  0
    2.8917   -6.6792    0.0000 O   0  0  0  0  0  0  0  0  0  0  0  0
    4.3667   -4.1542    0.0000 O   0  0  0  0  0  0  0  0  0  0  0  0
    5.2667   -4.7125    0.0000 O   0  0  0  0  0  0  0  0  0  0  0  0
   11.0042   -5.0167    0.0000 O   0  0  0  0  0  0  0  0  0  0  0  0
    9.7792   -2.8500    0.0000 C   0  0  0  0  0  0  0  0  0  0  0  0
   10.6042   -2.8542    0.0000 C   0  0  0  0  0  0  0  0  0  0  0  0
   11.0167   -3.5792    0.0000 C   0  0  0  0  0  0  0  0  0  0  0  0
   11.8375   -5.0292    0.0000 C   0  0  0  0  0  0  0  0  0  0  0  0
  2  1  2  0  0  0  0
  3 12  1  0  0  0  0
  4  1  1  0  0  0  0
  5  1  1  0  0  0  0
  6  2  1  0  0  0  0
  7  3  1  0  0  0  0
  8  3  1  0  0  0  0
  9  5  1  0  0  0  0
 10 14  1  0  0  0  0
 11 15  1  0  0  0  0
 12 11  1  0  0  0  0
 13  4  1  0  0  0  0
 14  4  1  0  0  0  0
 15 10  1  0  0  0  0
 16  6  2  0  0  0  0
 17  7  1  0  0  0  0
 18  8  1  0  0  0  0
 19  7  2  0  0  0  0
 20  8  2  0  0  0  0
 21 11  2  0  0  0  0
 22 16  1  0  0  0  0
 23  9  2  0  0  0  0
 24 23  1  0  0  0  0
 25 16  1  0  0  0  0
 26 22  1  0  0  0  0
  9  6  1  0  0  0  0
 13 10  1  0  0  0  0
 24 25  2  0  0  0  0
 18 17  1  0  0  0  0
M  END
> <IDNUMBER>
F6274-0155

> <Chemical_Name>
1-(4-methoxy-1,3-benzothiazol-2-yl)azetidin-3-yl 2-(2,5-dioxopyrrolidin-1-yl)acetate

> <CAS>
1396708-98-7

> <PriceCoeff>
1.00

> <MW>
375.40

> <Description>
solid

> <FSP3>
0.41

> <clogP>
2.40

> <TPSA>
117.28

> <Acceptor>
6

> <Donor>
1

> <RotBonds>
6

> <HAC>
26

> <Collection>
General

$$$$
F1907-0022
  -ISIS-  06222321142D

 17 19  0  0  0  0  0  0  0  0999 V2000
    7.8417   -2.2292    0.0000 N   0  0  0  0  0  0  0  0  0  0  0  0
    8.6667   -2.3167    0.0000 C   0  0  0  0  0  0  0  0  0  0  0  0
    8.8375   -3.1292    0.0000 N   0  0  0  0  0  0  0  0  0  0  0  0
    7.5000   -2.9792    0.0000 C   0  0  0  0  0  0  0  0  0  0  0  0
    8.1125   -3.5417    0.0000 O   0  0  0  0  0  0  0  0  0  0  0  0
    9.2042   -1.6917    0.0000 C   0  0  0  0  0  0  0  0  0  0  0  0
    5.7542   -1.7500    0.0000 N   0  0  0  0  0  0  0  0  0  0  0  0
   10.5542   -1.2042    0.0000 C   0  0  0  0  0  0  0  0  0  0  0  0
    6.1708   -2.4667    0.0000 C   0  0  0  0  0  0  0  0  0  0  0  0
   10.0167   -1.8292    0.0000 C   0  0  0  0  0  0  0  0  0  0  0  0
    6.6917   -3.1042    0.0000 C   0  0  0  0  0  0  0  0  0  0  0  0
   10.2667   -0.4292    0.0000 C   0  0  0  0  0  0  0  0  0  0  0  0
   11.3792   -1.1667    0.0000 O   0  0  0  0  0  0  0  0  0  0  0  0
   10.9167    0.0833    0.0000 O   0  0  0  0  0  0  0  0  0  0  0  0
   11.6042   -0.3792    0.0000 C   0  0  0  0  0  0  0  0  0  0  0  0
    8.9292   -0.9292    0.0000 C   0  0  0  0  0  0  0  0  0  0  0  0
    9.4417   -0.2917    0.0000 C   0  0  0  0  0  0  0  0  0  0  0  0
  2  1  1  0  0  0  0
  3  2  2  0  0  0  0
  4  1  2  0  0  0  0
  5  4  1  0  0  0  0
  6  2  1  0  0  0  0
  7  9  3  0  0  0  0
  8 10  2  0  0  0  0
  9 11  1  0  0  0  0
 10  6  1  0  0  0  0
 11  4  1  0  0  0  0
 12 17  2  0  0  0  0
 13  8  1  0  0  0  0
 14 12  1  0  0  0  0
 15 13  1  0  0  0  0
 16  6  2  0  0  0  0
 17 16  1  0  0  0  0
  5  3  1  0  0  0  0
  8 12  1  0  0  0  0
 14 15  1  0  0  0  0
M  END
> <IDNUMBER>
F1907-0022

> <Chemical_Name>
2-[3-(2H-1,3-benzodioxol-5-yl)-1,2,4-oxadiazol-5-yl]acetonitrile

> <CAS>
919744-08-4

> <PriceCoeff>
1.00

> <MW>
229.19

> <Description>
solid

> <FSP3>
0.18

> <clogP>
1.07

> <TPSA>
81.17

> <Acceptor>
6

> <Donor>
0

> <RotBonds>
2

> <HAC>
17

> <Collection>
General

> <Reference_compound>
CHEMBL4779763

> <Similarity>
0.8230

$$$$
F6448-2277
  -ISIS-  06222321152D

 27 30  0  0  0  0  0  0  0  0999 V2000
   -6.8792    7.8417    0.0000 N   0  0  3  0  0  0  0  0  0  0  0  0
   -3.8583    5.4083    0.0000 N   0  0  3  0  0  0  0  0  0  0  0  0
   -3.1958    5.8917    0.0000 N   0  0  0  0  0  0  0  0  0  0  0  0
   -4.2708    6.6792    0.0000 C   0  0  0  0  0  0  0  0  0  0  0  0
   -7.4292    8.4542    0.0000 C   0  0  0  0  0  0  0  0  0  0  0  0
   -7.2917    7.1292    0.0000 C   0  0  0  0  0  0  0  0  0  0  0  0
   -4.5333    5.8917    0.0000 C   0  0  0  0  0  0  0  0  0  0  0  0
   -2.4333    4.5875    0.0000 O   0  0  0  0  0  0  0  0  0  0  0  0
   -3.4458    6.6792    0.0000 C   0  0  0  0  0  0  0  0  0  0  0  0
   -5.5833    7.2625    0.0000 C   0  0  0  0  0  0  0  0  0  0  0  0
   -6.0542    7.9292    0.0000 C   0  0  0  0  0  0  0  0  0  0  0  0
   -2.4333    2.9458    0.0000 O   0  0  0  0  0  0  0  0  0  0  0  0
   -4.7583    7.3458    0.0000 N   0  0  0  0  0  0  0  0  0  0  0  0
   -1.7208    4.1708    0.0000 C   0  0  0  0  0  0  0  0  0  0  0  0
   -3.1458    4.1708    0.0000 C   0  0  3  0  0  0  0  0  0  0  0  0
   -3.8583    4.5875    0.0000 C   0  0  0  0  0  0  0  0  0  0  0  0
   -1.7208    3.3583    0.0000 C   0  0  0  0  0  0  0  0  0  0  0  0
   -8.1792    8.1167    0.0000 C   0  0  0  0  0  0  0  0  0  0  0  0
   -8.0958    7.3000    0.0000 C   0  0  0  0  0  0  0  0  0  0  0  0
   -7.2542    9.2583    0.0000 O   0  0  0  0  0  0  0  0  0  0  0  0
   -6.9542    6.3750    0.0000 O   0  0  0  0  0  0  0  0  0  0  0  0
   -5.9125    6.5042    0.0000 O   0  0  0  0  0  0  0  0  0  0  0  0
   -3.1458    3.3583    0.0000 C   0  0  0  0  0  0  0  0  0  0  0  0
   -1.0000    4.5875    0.0000 C   0  0  0  0  0  0  0  0  0  0  0  0
   -1.0000    2.9458    0.0000 C   0  0  0  0  0  0  0  0  0  0  0  0
   -0.2875    4.1708    0.0000 C   0  0  0  0  0  0  0  0  0  0  0  0
   -0.2875    3.3583    0.0000 C   0  0  0  0  0  0  0  0  0  0  0  0
  2  7  1  0  0  0  0
  3  9  2  0  0  0  0
  4 13  1  0  0  0  0
  5  1  1  0  0  0  0
  6  1  1  0  0  0  0
  7  4  2  0  0  0  0
  8 15  1  0  0  0  0
  9  4  1  0  0  0  0
 10 11  1  0  0  0  0
 11  1  1  0  0  0  0
 12 23  1  0  0  0  0
 13 10  1  0  0  0  0
 14  8  1  0  0  0  0
 15 16  1  0  0  0  0
 16  2  1  0  0  0  0
 17 12  1  0  0  0  0
 18  5  1  0  0  0  0
 19  6  1  0  0  0  0
 20  5  2  0  0  0  0
 21  6  2  0  0  0  0
 22 10  2  0  0  0  0
 23 15  1  0  0  0  0
 24 14  1  0  0  0  0
 25 17  1  0  0  0  0
 26 24  2  0  0  0  0
 27 25  2  0  0  0  0
 18 19  1  0  0  0  0
  3  2  1  0  0  0  0
 14 17  2  0  0  0  0
 26 27  1  0  0  0  0
M  END
> <IDNUMBER>
F6448-2277

> <Chemical_Name>
N-{1-[(2,3-dihydro-1,4-benzodioxin-2-yl)methyl]-1H-pyrazol-4-yl}-2-(2,5-dioxopyrrolidin-1-yl)acetamide

> <CAS>
1798043-82-9

> <PriceCoeff>
1.00

> <MW>
370.36

> <Description>
solid

> <FSP3>
0.33

> <clogP>
0.90

> <TPSA>
102.76

> <Acceptor>
6

> <Donor>
1

> <RotBonds>
5

> <HAC>
27

> <Collection>
General

$$$$
F0526-0357
  -ISIS-  06222304342D

 28 29  0  0  0  0  0  0  0  0999 V2000
    1.8292   -0.2167    0.0000 C   0  0  0  0  0  0  0  0  0  0  0  0
    1.3542    0.4500    0.0000 C   0  0  0  0  0  0  0  0  0  0  0  0
    3.0792   -2.3792    0.0000 N   0  0  3  0  0  0  0  0  0  0  0  0
    0.5667    0.2000    0.0000 C   0  0  0  0  0  0  0  0  0  0  0  0
    0.5667   -0.6250    0.0000 C   0  0  0  0  0  0  0  0  0  0  0  0
    1.3542   -0.8792    0.0000 S   0  0  0  0  0  0  0  0  0  0  0  0
    2.6542   -0.2167    0.0000 N   0  0  0  0  0  0  0  0  0  0  0  0
    3.8792   -2.4792    0.0000 C   0  0  0  0  0  0  0  0  0  0  0  0
    2.7292   -3.1375    0.0000 C   0  0  0  0  0  0  0  0  0  0  0  0
    1.6042    1.2375    0.0000 C   0  0  0  0  0  0  0  0  0  0  0  0
    3.0667   -0.9375    0.0000 C   0  0  0  0  0  0  0  0  0  0  0  0
    2.6542   -1.6500    0.0000 C   0  0  0  0  0  0  0  0  0  0  0  0
   -0.8583   -0.6250    0.0000 N   0  0  3  0  0  0  0  0  0  0  0  0
   -0.1458   -1.0375    0.0000 C   0  0  0  0  0  0  0  0  0  0  0  0
   -0.1458    0.6125    0.0000 C   0  0  0  0  0  0  0  0  0  0  0  0
    3.3417   -3.7000    0.0000 C   0  0  0  0  0  0  0  0  0  0  0  0
    4.0417   -3.3042    0.0000 C   0  0  0  0  0  0  0  0  0  0  0  0
    1.9167   -3.2917    0.0000 O   0  0  0  0  0  0  0  0  0  0  0  0
    4.4417   -1.8667    0.0000 O   0  0  0  0  0  0  0  0  0  0  0  0
    1.0667    1.8583    0.0000 O   0  0  0  0  0  0  0  0  0  0  0  0
    3.9042   -0.9375    0.0000 O   0  0  0  0  0  0  0  0  0  0  0  0
   -0.8583    0.2000    0.0000 C   0  0  0  0  0  0  0  0  0  0  0  0
    2.4167    1.4125    0.0000 O   0  0  0  0  0  0  0  0  0  0  0  0
   -1.5833   -1.0375    0.0000 C   0  0  0  0  0  0  0  0  0  0  0  0
    3.2125    1.2000    0.0000 C   0  0  0  0  0  0  0  0  0  0  0  0
   -1.5708   -1.8625    0.0000 C   0  0  0  0  0  0  0  0  0  0  0  0
    3.4250    0.4083    0.0000 C   0  0  0  0  0  0  0  0  0  0  0  0
    5.9584   -0.7708    0.0000 Cl  0  0  0  0  0  0  0  0  0  0  0  0
  3 12  1  0  0  0  0
  4  2  1  0  0  0  0
  5  6  1  0  0  0  0
  6  1  1  0  0  0  0
  7  1  1  0  0  0  0
  8  3  1  0  0  0  0
  9  3  1  0  0  0  0
 10  2  1  0  0  0  0
 11  7  1  0  0  0  0
 12 11  1  0  0  0  0
 13 14  1  0  0  0  0
 14  5  1  0  0  0  0
 15  4  1  0  0  0  0
 16  9  1  0  0  0  0
 17  8  1  0  0  0  0
 18  9  2  0  0  0  0
 19  8  2  0  0  0  0
 20 10  2  0  0  0  0
 21 11  2  0  0  0  0
 22 15  1  0  0  0  0
 23 10  1  0  0  0  0
 24 13  1  0  0  0  0
 25 23  1  0  0  0  0
 26 24  1  0  0  0  0
 27 25  1  0  0  0  0
  5  4  2  0  0  0  0
 13 22  1  0  0  0  0
 17 16  1  0  0  0  0
  2  1  2  0  0  0  0
M  END
> <IDNUMBER>
F0526-0357

> <Chemical_Name>
ethyl 2-[2-(2,5-dioxopyrrolidin-1-yl)acetamido]-6-ethyl-4H,5H,6H,7H-thieno[2,3-c]pyridine-3-carboxylate hydrochloride

> <CAS>
1330959-59-5

> <PriceCoeff>
1.00

> <MW>
393.46

> <Description>
solid

> <FSP3>
0.56

> <clogP>
1.74

> <TPSA>
124.26

> <Acceptor>
5

> <Donor>
2

> <RotBonds>
7

> <HAC>
27

> <Collection>
General

$$$$
F1800-0016
  -ISIS-  06222321452D

 20 21  0  0  0  0  0  0  0  0999 V2000
   -3.7583    2.3708    0.0000 N   0  0  3  0  0  0  0  0  0  0  0  0
   -3.3500    1.6500    0.0000 C   0  0  0  0  0  0  0  0  0  0  0  0
   -3.3333    3.0833    0.0000 C   0  0  0  0  0  0  0  0  0  0  0  0
   -4.9958    1.6625    0.0000 C   0  0  0  0  0  0  0  0  0  0  0  0
   -4.9958    0.2458    0.0000 C   0  0  0  0  0  0  0  0  0  0  0  0
   -4.5833    0.9500    0.0000 N   0  0  0  0  0  0  0  0  0  0  0  0
   -4.5833    2.3750    0.0000 C   0  0  0  0  0  0  0  0  0  0  0  0
   -2.1083    2.3458    0.0000 S   0  0  0  0  0  0  0  0  0  0  0  0
   -4.5833   -0.4667    0.0000 C   0  0  0  0  0  0  0  0  0  0  0  0
   -5.8083    0.2458    0.0000 C   0  0  0  0  0  0  0  0  0  0  0  0
   -3.7375    3.8000    0.0000 O   0  0  0  0  0  0  0  0  0  0  0  0
   -3.7708    0.9375    0.0000 O   0  0  0  0  0  0  0  0  0  0  0  0
   -5.8208    1.6708    0.0000 O   0  0  0  0  0  0  0  0  0  0  0  0
   -4.9833   -1.1792    0.0000 C   0  0  0  0  0  0  0  0  0  0  0  0
   -2.5083    3.0625    0.0000 C   0  0  0  0  0  0  0  0  0  0  0  0
   -2.5333    1.6458    0.0000 C   0  0  0  0  0  0  0  0  0  0  0  0
   -6.2167   -0.4667    0.0000 C   0  0  0  0  0  0  0  0  0  0  0  0
   -5.8083   -1.1875    0.0000 C   0  0  0  0  0  0  0  0  0  0  0  0
   -3.7583   -0.4667    0.0000 C   0  0  0  0  0  0  0  0  0  0  0  0
   -7.0417   -0.4667    0.0000 C   0  0  0  0  0  0  0  0  0  0  0  0
  2  1  1  0  0  0  0
  3  1  1  0  0  0  0
  4  7  1  0  0  0  0
  5  6  1  0  0  0  0
  6  4  1  0  0  0  0
  7  1  1  0  0  0  0
  8 15  1  0  0  0  0
  9  5  1  0  0  0  0
 10  5  2  0  0  0  0
 11  3  2  0  0  0  0
 12  2  2  0  0  0  0
 13  4  2  0  0  0  0
 14  9  2  0  0  0  0
 15  3  1  0  0  0  0
 16  2  1  0  0  0  0
 17 10  1  0  0  0  0
 18 17  2  0  0  0  0
 19  9  1  0  0  0  0
 20 17  1  0  0  0  0
 16  8  1  0  0  0  0
 14 18  1  0  0  0  0
M  END
> <IDNUMBER>
F1800-0016

> <Chemical_Name>
N-(2,5-dimethylphenyl)-2-(3,5-dioxothiomorpholin-4-yl)acetamide

> <CAS>
868215-07-0

> <PriceCoeff>
1.50

> <MW>
292.35

> <Description>
solid

> <FSP3>
0.36

> <clogP>
1.80

> <TPSA>
91.78

> <Acceptor>
3

> <Donor>
1

> <RotBonds>
3

> <HAC>
20

> <Collection>
Advanced

$$$$
F1800-0017
  -ISIS-  06222321452D

 20 21  0  0  0  0  0  0  0  0999 V2000
   -3.7583    2.3708    0.0000 N   0  0  3  0  0  0  0  0  0  0  0  0
   -3.3500    1.6500    0.0000 C   0  0  0  0  0  0  0  0  0  0  0  0
   -3.3333    3.0833    0.0000 C   0  0  0  0  0  0  0  0  0  0  0  0
   -4.9958    1.6708    0.0000 C   0  0  0  0  0  0  0  0  0  0  0  0
   -4.5833    0.9583    0.0000 N   0  0  0  0  0  0  0  0  0  0  0  0
   -4.5833    2.3750    0.0000 C   0  0  0  0  0  0  0  0  0  0  0  0
   -4.9833    0.2458    0.0000 C   0  0  0  0  0  0  0  0  0  0  0  0
   -4.5625   -0.4667    0.0000 C   0  0  0  0  0  0  0  0  0  0  0  0
   -2.1083    2.3458    0.0000 S   0  0  0  0  0  0  0  0  0  0  0  0
   -3.7708    0.9375    0.0000 O   0  0  0  0  0  0  0  0  0  0  0  0
   -3.7375    3.8000    0.0000 O   0  0  0  0  0  0  0  0  0  0  0  0
   -4.9708   -1.1792    0.0000 C   0  0  0  0  0  0  0  0  0  0  0  0
   -5.8125    1.6625    0.0000 O   0  0  0  0  0  0  0  0  0  0  0  0
   -5.8000    0.2375    0.0000 C   0  0  0  0  0  0  0  0  0  0  0  0
   -2.5083    3.0625    0.0000 C   0  0  0  0  0  0  0  0  0  0  0  0
   -2.5333    1.6458    0.0000 C   0  0  0  0  0  0  0  0  0  0  0  0
   -5.7958   -1.1917    0.0000 C   0  0  0  0  0  0  0  0  0  0  0  0
   -6.2042   -0.4792    0.0000 C   0  0  0  0  0  0  0  0  0  0  0  0
   -3.7458   -0.4625    0.0000 C   0  0  0  0  0  0  0  0  0  0  0  0
   -6.2000   -1.9125    0.0000 C   0  0  0  0  0  0  0  0  0  0  0  0
  2  1  1  0  0  0  0
  3  1  1  0  0  0  0
  4  6  1  0  0  0  0
  5  4  1  0  0  0  0
  6  1  1  0  0  0  0
  7  5  1  0  0  0  0
  8  7  1  0  0  0  0
  9 15  1  0  0  0  0
 10  2  2  0  0  0  0
 11  3  2  0  0  0  0
 12  8  2  0  0  0  0
 13  4  2  0  0  0  0
 14  7  2  0  0  0  0
 15  3  1  0  0  0  0
 16  2  1  0  0  0  0
 17 18  2  0  0  0  0
 18 14  1  0  0  0  0
 19  8  1  0  0  0  0
 20 17  1  0  0  0  0
 16  9  1  0  0  0  0
 12 17  1  0  0  0  0
M  END
> <IDNUMBER>
F1800-0017

> <Chemical_Name>
N-(2,4-dimethylphenyl)-2-(3,5-dioxothiomorpholin-4-yl)acetamide

> <CAS>
868215-08-1

> <PriceCoeff>
1.50

> <MW>
292.35

> <Description>
solid

> <FSP3>
0.36

> <clogP>
1.80

> <TPSA>
91.78

> <Acceptor>
3

> <Donor>
1

> <RotBonds>
3

> <HAC>
20

> <Collection>
Advanced

$$$$
F1800-0171
  -ISIS-  06222321452D

 20 21  0  0  0  0  0  0  0  0999 V2000
   -3.7250    2.3000    0.0000 N   0  0  3  0  0  0  0  0  0  0  0  0
   -3.3500    2.9583    0.0000 C   0  0  0  0  0  0  0  0  0  0  0  0
   -3.3500    1.6583    0.0000 C   0  0  0  0  0  0  0  0  0  0  0  0
   -2.2250    2.3000    0.0000 S   0  0  0  0  0  0  0  0  0  0  0  0
   -4.8500    2.9458    0.0000 C   0  0  0  0  0  0  0  0  0  0  0  0
   -4.4750    2.3000    0.0000 C   0  0  0  0  0  0  0  0  0  0  0  0
   -5.6000    2.9458    0.0000 N   0  0  0  0  0  0  0  0  0  0  0  0
   -2.6000    2.9583    0.0000 C   0  0  3  0  0  0  0  0  0  0  0  0
   -5.9750    3.5875    0.0000 C   0  0  0  0  0  0  0  0  0  0  0  0
   -2.6000    1.6583    0.0000 C   0  0  0  0  0  0  0  0  0  0  0  0
   -3.7333    3.6083    0.0000 O   0  0  0  0  0  0  0  0  0  0  0  0
   -3.7333    1.0000    0.0000 O   0  0  0  0  0  0  0  0  0  0  0  0
   -4.4750    3.5958    0.0000 O   0  0  0  0  0  0  0  0  0  0  0  0
   -6.7167    3.5958    0.0000 C   0  0  0  0  0  0  0  0  0  0  0  0
   -7.1042    2.9375    0.0000 F   0  0  0  0  0  0  0  0  0  0  0  0
   -5.6000    4.2292    0.0000 C   0  0  0  0  0  0  0  0  0  0  0  0
   -2.2208    3.6083    0.0000 C   0  0  0  0  0  0  0  0  0  0  0  0
   -7.0917    4.2292    0.0000 C   0  0  0  0  0  0  0  0  0  0  0  0
   -5.9750    4.8875    0.0000 C   0  0  0  0  0  0  0  0  0  0  0  0
   -6.7167    4.8875    0.0000 C   0  0  0  0  0  0  0  0  0  0  0  0
  2  1  1  0  0  0  0
  3  1  1  0  0  0  0
  4 10  1  0  0  0  0
  5  6  1  0  0  0  0
  6  1  1  0  0  0  0
  7  5  1  0  0  0  0
  8  2  1  0  0  0  0
  9  7  1  0  0  0  0
 10  3  1  0  0  0  0
 11  2  2  0  0  0  0
 12  3  2  0  0  0  0
 13  5  2  0  0  0  0
 14  9  1  0  0  0  0
 15 14  1  0  0  0  0
 16  9  2  0  0  0  0
 17  8  1  0  0  0  0
 18 14  2  0  0  0  0
 19 16  1  0  0  0  0
 20 19  2  0  0  0  0
  4  8  1  0  0  0  0
 18 20  1  0  0  0  0
M  END
> <IDNUMBER>
F1800-0171

> <Chemical_Name>
N-(2-fluorophenyl)-2-(2-methyl-3,5-dioxothiomorpholin-4-yl)acetamide

> <CAS>
868215-92-3

> <PriceCoeff>
1.50

> <MW>
296.32

> <Description>
solid

> <FSP3>
0.31

> <clogP>
1.77

> <TPSA>
91.78

> <Acceptor>
3

> <Donor>
1

> <RotBonds>
3

> <HAC>
20

> <Collection>
Advanced

$$$$
F2189-0266
  -ISIS-  06222321462D

 12 13  0  0  0  0  0  0  0  0999 V2000
    2.3750   -0.0042    0.0000 N   0  0  3  0  0  0  0  0  0  0  0  0
    1.8875    0.6625    0.0000 C   0  0  0  0  0  0  0  0  0  0  0  0
    3.1625    0.2458    0.0000 C   0  0  0  0  0  0  0  0  0  0  0  0
    3.1625    1.0750    0.0000 C   0  0  0  0  0  0  0  0  0  0  0  0
    2.3750    1.3333    0.0000 C   0  0  0  0  0  0  0  0  0  0  0  0
    3.8750   -0.1667    0.0000 C   0  0  0  0  0  0  0  0  0  0  0  0
    1.0625    0.6625    0.0000 O   0  0  0  0  0  0  0  0  0  0  0  0
    3.8750    1.4875    0.0000 C   0  0  0  0  0  0  0  0  0  0  0  0
    4.5917    1.0750    0.0000 C   0  0  0  0  0  0  0  0  0  0  0  0
    4.5917    0.2458    0.0000 C   0  0  0  0  0  0  0  0  0  0  0  0
    2.1167   -0.7917    0.0000 C   0  0  0  0  0  0  0  0  0  0  0  0
    5.3042    1.4958    0.0000 N   0  0  0  0  0  0  0  0  0  0  0  0
  2  1  1  0  0  0  0
  3  1  1  0  0  0  0
  4  3  2  0  0  0  0
  5  2  1  0  0  0  0
  6  3  1  0  0  0  0
  7  2  2  0  0  0  0
  8  4  1  0  0  0  0
  9 10  1  0  0  0  0
 10  6  2  0  0  0  0
 11  1  1  0  0  0  0
 12  9  1  0  0  0  0
  5  4  1  0  0  0  0
  8  9  2  0  0  0  0
M  END
> <IDNUMBER>
F2189-0266

> <Chemical_Name>
5-amino-1-methyl-2,3-dihydro-1H-indol-2-one

> <CAS>
20870-91-1

> <PriceCoeff>
1.50

> <MW>
162.19

> <Description>
solid

> <FSP3>
0.22

> <clogP>
-0.22

> <TPSA>
46.33

> <Acceptor>
2

> <Donor>
1

> <RotBonds>
0

> <HAC>
12

> <Collection>
Advanced

> <Reference_compound>
CHEMBL40823

> <Similarity>
0.8090

$$$$
F0737-0267
  -ISIS-  06222321452D

 27 30  0  0  0  0  0  0  0  0999 V2000
    0.8792    1.3708    0.0000 N   0  0  3  0  0  0  0  0  0  0  0  0
   -2.3958    1.8833    0.0000 C   0  0  0  0  0  0  0  0  0  0  0  0
   -2.6958    1.3625    0.0000 N   0  0  0  0  0  0  0  0  0  0  0  0
   -3.2708    1.5000    0.0000 C   0  0  0  0  0  0  0  0  0  0  0  0
   -1.7958    1.8833    0.0000 N   0  0  0  0  0  0  0  0  0  0  0  0
   -3.7333    1.1208    0.0000 C   0  0  0  0  0  0  0  0  0  0  0  0
   -1.4958    1.3625    0.0000 C   0  0  0  0  0  0  0  0  0  0  0  0
    1.2292    1.8333    0.0000 C   0  0  0  0  0  0  0  0  0  0  0  0
    1.2375    0.9125    0.0000 C   0  0  0  0  0  0  0  0  0  0  0  0
   -3.7333    0.5458    0.0000 O   0  0  0  0  0  0  0  0  0  0  0  0
   -2.7958    2.3208    0.0000 S   0  0  0  0  0  0  0  0  0  0  0  0
   -3.3333    2.0833    0.0000 C   0  0  0  0  0  0  0  0  0  0  0  0
   -4.3125    1.3000    0.0000 C   0  0  0  0  0  0  0  0  0  0  0  0
    0.2875    1.3708    0.0000 C   0  0  0  0  0  0  0  0  0  0  0  0
   -4.3125    0.3625    0.0000 C   0  0  0  0  0  0  0  0  0  0  0  0
   -4.6583    0.8208    0.0000 C   0  0  0  0  0  0  0  0  0  0  0  0
   -0.9000    1.3625    0.0000 C   0  0  0  0  0  0  0  0  0  0  0  0
   -1.7958    0.8458    0.0000 O   0  0  0  0  0  0  0  0  0  0  0  0
    1.7875    1.6625    0.0000 C   0  0  0  0  0  0  0  0  0  0  0  0
    1.7792    1.1000    0.0000 C   0  0  0  0  0  0  0  0  0  0  0  0
    1.0500    2.4333    0.0000 O   0  0  0  0  0  0  0  0  0  0  0  0
    1.0792    0.3000    0.0000 O   0  0  0  0  0  0  0  0  0  0  0  0
   -0.0125    1.8833    0.0000 C   0  0  0  0  0  0  0  0  0  0  0  0
    0.0000    0.8625    0.0000 C   0  0  0  0  0  0  0  0  0  0  0  0
   -0.6000    0.8500    0.0000 C   0  0  0  0  0  0  0  0  0  0  0  0
   -0.6125    1.8708    0.0000 C   0  0  0  0  0  0  0  0  0  0  0  0
   -4.5208   -0.2375    0.0000 C   0  0  0  0  0  0  0  0  0  0  0  0
  2  5  1  0  0  0  0
  3  2  2  0  0  0  0
  4  3  1  0  0  0  0
  5  7  1  0  0  0  0
  6  4  1  0  0  0  0
  7 17  1  0  0  0  0
  8  1  1  0  0  0  0
  9  1  1  0  0  0  0
 10  6  1  0  0  0  0
 11  2  1  0  0  0  0
 12 11  1  0  0  0  0
 13  6  2  0  0  0  0
 14  1  1  0  0  0  0
 15 10  1  0  0  0  0
 16 13  1  0  0  0  0
 17 25  2  0  0  0  0
 18  7  2  0  0  0  0
 19  8  1  0  0  0  0
 20  9  1  0  0  0  0
 21  8  2  0  0  0  0
 22  9  2  0  0  0  0
 23 14  1  0  0  0  0
 24 14  2  0  0  0  0
 25 24  1  0  0  0  0
 26 23  2  0  0  0  0
 27 15  1  0  0  0  0
 19 20  1  0  0  0  0
 26 17  1  0  0  0  0
 12  4  2  0  0  0  0
 15 16  2  0  0  0  0
M  END
> <IDNUMBER>
F0737-0267

> <Chemical_Name>
4-(2,5-dioxopyrrolidin-1-yl)-N-[4-(5-methylfuran-2-yl)-1,3-thiazol-2-yl]benzamide

> <CAS>
476642-35-0

> <PriceCoeff>
1.00

> <MW>
381.41

> <Description>
solid

> <FSP3>
0.16

> <clogP>
2.01

> <TPSA>
120.75

> <Acceptor>
5

> <Donor>
1

> <RotBonds>
4

> <HAC>
27

> <Collection>
General

$$$$
F1638-0067
  -ISIS-  06222321452D

 13 13  0  0  0  0  0  0  0  0999 V2000
    2.6917    0.4208    0.0000 C   0  0  0  0  0  0  0  0  0  0  0  0
    1.9792    0.0083    0.0000 C   0  0  0  0  0  0  0  0  0  0  0  0
    1.2625    0.4208    0.0000 C   0  0  0  0  0  0  0  0  0  0  0  0
    2.6875    1.2458    0.0000 O   0  0  0  0  0  0  0  0  0  0  0  0
    0.5500   -0.0000    0.0000 C   0  0  0  0  0  0  0  0  0  0  0  0
    3.4042    0.0125    0.0000 O   0  0  0  0  0  0  0  0  0  0  0  0
   -0.8833   -0.8292    0.0000 C   0  0  0  0  0  0  0  0  0  0  0  0
   -0.1708    0.4125    0.0000 C   0  0  0  0  0  0  0  0  0  0  0  0
    0.5500   -0.8292    0.0000 C   0  0  0  0  0  0  0  0  0  0  0  0
   -0.8833   -0.0000    0.0000 C   0  0  0  0  0  0  0  0  0  0  0  0
   -0.1708   -1.2417    0.0000 C   0  0  0  0  0  0  0  0  0  0  0  0
   -1.5958   -1.2417    0.0000 O   0  0  0  0  0  0  0  0  0  0  0  0
   -1.5958   -2.0667    0.0000 C   0  0  0  0  0  0  0  0  0  0  0  0
  2  1  1  0  0  0  0
  3  2  2  0  0  0  0
  4  1  2  0  0  0  0
  5  3  1  0  0  0  0
  6  1  1  0  0  0  0
  7 11  1  0  0  0  0
  8  5  2  0  0  0  0
  9  5  1  0  0  0  0
 10  8  1  0  0  0  0
 11  9  2  0  0  0  0
 12  7  1  0  0  0  0
 13 12  1  0  0  0  0
  7 10  2  0  0  0  0
M  END
> <IDNUMBER>
F1638-0067

> <Chemical_Name>
(2E)-3-(4-methoxyphenyl)prop-2-enoic acid

> <CAS>
943-89-5

> <PriceCoeff>
1.50

> <MW>
178.18

> <Description>
solid

> <FSP3>
0.10

> <clogP>
2.16

> <TPSA>
46.53

> <Acceptor>
0

> <Donor>
3

> <RotBonds>
3

> <HAC>
13

> <Collection>
Advanced

> <Reference_compound>
CHEMBL95770

> <Similarity>
1.0000

$$$$
F0737-0314
  -ISIS-  06222321142D

 27 30  0  0  0  0  0  0  0  0999 V2000
   -0.6625    1.8000    0.0000 N   0  0  3  0  0  0  0  0  0  0  0  0
   -2.9625    1.3458    0.0000 C   0  0  0  0  0  0  0  0  0  0  0  0
   -3.3000    0.9625    0.0000 N   0  0  0  0  0  0  0  0  0  0  0  0
   -3.7625    1.1833    0.0000 C   0  0  0  0  0  0  0  0  0  0  0  0
   -2.4458    1.3458    0.0000 N   0  0  0  0  0  0  0  0  0  0  0  0
   -4.2208    0.9625    0.0000 C   0  0  0  0  0  0  0  0  0  0  0  0
   -0.9000    1.3625    0.0000 C   0  0  0  0  0  0  0  0  0  0  0  0
   -2.2000    0.9000    0.0000 C   0  0  0  0  0  0  0  0  0  0  0  0
   -0.8833    2.2708    0.0000 C   0  0  0  0  0  0  0  0  0  0  0  0
   -0.1458    1.8833    0.0000 C   0  0  0  0  0  0  0  0  0  0  0  0
   -4.3833    0.4625    0.0000 O   0  0  0  0  0  0  0  0  0  0  0  0
   -3.2208    1.7833    0.0000 S   0  0  0  0  0  0  0  0  0  0  0  0
   -3.7208    1.6833    0.0000 C   0  0  0  0  0  0  0  0  0  0  0  0
   -4.6458    1.2458    0.0000 C   0  0  0  0  0  0  0  0  0  0  0  0
   -1.4208    1.3625    0.0000 C   0  0  0  0  0  0  0  0  0  0  0  0
   -1.6833    0.9000    0.0000 C   0  0  0  0  0  0  0  0  0  0  0  0
   -4.8833    0.4625    0.0000 C   0  0  0  0  0  0  0  0  0  0  0  0
   -5.0625    0.9458    0.0000 C   0  0  0  0  0  0  0  0  0  0  0  0
   -2.4625    0.4458    0.0000 O   0  0  0  0  0  0  0  0  0  0  0  0
   -0.5208    2.6208    0.0000 C   0  0  0  0  0  0  0  0  0  0  0  0
   -0.0625    2.3833    0.0000 C   0  0  0  0  0  0  0  0  0  0  0  0
   -1.4000    2.3625    0.0000 O   0  0  0  0  0  0  0  0  0  0  0  0
    0.2167    1.5208    0.0000 O   0  0  0  0  0  0  0  0  0  0  0  0
   -0.6458    0.9000    0.0000 C   0  0  0  0  0  0  0  0  0  0  0  0
   -1.4000    0.4625    0.0000 C   0  0  0  0  0  0  0  0  0  0  0  0
   -0.9000    0.4625    0.0000 C   0  0  0  0  0  0  0  0  0  0  0  0
   -5.1833    0.0208    0.0000 C   0  0  0  0  0  0  0  0  0  0  0  0
  2  5  1  0  0  0  0
  3  2  2  0  0  0  0
  4  3  1  0  0  0  0
  5  8  1  0  0  0  0
  6  4  1  0  0  0  0
  7  1  1  0  0  0  0
  8 16  1  0  0  0  0
  9  1  1  0  0  0  0
 10  1  1  0  0  0  0
 11  6  1  0  0  0  0
 12  2  1  0  0  0  0
 13 12  1  0  0  0  0
 14  6  2  0  0  0  0
 15  7  2  0  0  0  0
 16 15  1  0  0  0  0
 17 11  1  0  0  0  0
 18 14  1  0  0  0  0
 19  8  2  0  0  0  0
 20  9  1  0  0  0  0
 21 10  1  0  0  0  0
 22  9  2  0  0  0  0
 23 10  2  0  0  0  0
 24  7  1  0  0  0  0
 25 26  1  0  0  0  0
 26 24  2  0  0  0  0
 27 17  1  0  0  0  0
 20 21  1  0  0  0  0
 25 16  2  0  0  0  0
  4 13  2  0  0  0  0
 18 17  2  0  0  0  0
M  END
> <IDNUMBER>
F0737-0314

> <Chemical_Name>
3-(2,5-dioxopyrrolidin-1-yl)-N-[4-(5-methylfuran-2-yl)-1,3-thiazol-2-yl]benzamide

> <CAS>
476642-70-3

> <PriceCoeff>
1.00

> <MW>
381.41

> <Description>
solid

> <FSP3>
0.16

> <clogP>
2.01

> <TPSA>
120.75

> <Acceptor>
5

> <Donor>
1

> <RotBonds>
4

> <HAC>
27

> <Collection>
General

$$$$
F2257-0230
  -ISIS-  06222321462D

 16 17  0  0  0  0  0  0  0  0999 V2000
   -2.8583    7.4917    0.0000 N   0  0  0  0  0  0  0  0  0  0  0  0
   -2.0333    7.5792    0.0000 C   0  0  0  0  0  0  0  0  0  0  0  0
   -3.0375    6.6875    0.0000 C   0  0  0  0  0  0  0  0  0  0  0  0
   -2.3208    6.2667    0.0000 C   0  0  0  0  0  0  0  0  0  0  0  0
   -1.7083    6.8167    0.0000 C   0  0  0  0  0  0  0  0  0  0  0  0
   -3.7500    3.8000    0.0000 C   0  0  0  0  0  0  0  0  0  0  0  0
   -3.0375    4.2125    0.0000 N   0  0  0  0  0  0  0  0  0  0  0  0
   -2.3250    5.4417    0.0000 C   0  0  0  0  0  0  0  0  0  0  0  0
   -3.0375    5.0292    0.0000 C   0  0  0  0  0  0  0  0  0  0  0  0
   -1.6208    8.2917    0.0000 O   0  0  0  0  0  0  0  0  0  0  0  0
   -4.4583    4.2125    0.0000 O   0  0  0  0  0  0  0  0  0  0  0  0
   -3.7583    6.2792    0.0000 C   0  0  0  0  0  0  0  0  0  0  0  0
   -3.7583    5.4500    0.0000 C   0  0  0  0  0  0  0  0  0  0  0  0
   -3.7458    2.9875    0.0000 C   0  0  0  0  0  0  0  0  0  0  0  0
   -4.4708    2.5708    0.0000 C   0  0  0  0  0  0  0  0  0  0  0  0
   -4.4708    1.7458    0.0000 C   0  0  0  0  0  0  0  0  0  0  0  0
  2  1  1  0  0  0  0
  3  1  1  0  0  0  0
  4  3  2  0  0  0  0
  5  2  1  0  0  0  0
  6  7  1  0  0  0  0
  7  9  1  0  0  0  0
  8  4  1  0  0  0  0
  9 13  1  0  0  0  0
 10  2  2  0  0  0  0
 11  6  2  0  0  0  0
 12  3  1  0  0  0  0
 13 12  2  0  0  0  0
 14  6  1  0  0  0  0
 15 14  1  0  0  0  0
 16 15  1  0  0  0  0
  4  5  1  0  0  0  0
  9  8  2  0  0  0  0
M  END
> <IDNUMBER>
F2257-0230

> <Chemical_Name>
N-(2-oxo-2,3-dihydro-1H-indol-5-yl)butanamide

> <CAS>
117100-83-1

> <PriceCoeff>
1.50

> <MW>
218.25

> <Description>
solid

> <FSP3>
0.33

> <clogP>
0.78

> <TPSA>
58.20

> <Acceptor>
2

> <Donor>
2

> <RotBonds>
3

> <HAC>
16

> <Collection>
Advanced

> <Reference_compound>
CHEMBL40823

> <Similarity>
0.8620

$$$$
F1800-0165
  -ISIS-  06222321452D

 21 22  0  0  0  0  0  0  0  0999 V2000
   -3.7250    2.3000    0.0000 N   0  0  3  0  0  0  0  0  0  0  0  0
   -3.3500    2.9583    0.0000 C   0  0  0  0  0  0  0  0  0  0  0  0
   -3.3500    1.6583    0.0000 C   0  0  0  0  0  0  0  0  0  0  0  0
   -2.2250    2.3000    0.0000 S   0  0  0  0  0  0  0  0  0  0  0  0
   -4.8500    2.9458    0.0000 C   0  0  0  0  0  0  0  0  0  0  0  0
   -5.9750    3.5958    0.0000 C   0  0  0  0  0  0  0  0  0  0  0  0
   -5.6000    2.9458    0.0000 N   0  0  0  0  0  0  0  0  0  0  0  0
   -4.4750    2.3000    0.0000 C   0  0  0  0  0  0  0  0  0  0  0  0
   -2.6000    2.9583    0.0000 C   0  0  3  0  0  0  0  0  0  0  0  0
   -2.6000    1.6583    0.0000 C   0  0  0  0  0  0  0  0  0  0  0  0
   -3.7333    3.6083    0.0000 O   0  0  0  0  0  0  0  0  0  0  0  0
   -6.7167    3.5958    0.0000 C   0  0  0  0  0  0  0  0  0  0  0  0
   -5.6000    4.2292    0.0000 C   0  0  0  0  0  0  0  0  0  0  0  0
   -3.7333    1.0000    0.0000 O   0  0  0  0  0  0  0  0  0  0  0  0
   -4.4750    3.5958    0.0000 O   0  0  0  0  0  0  0  0  0  0  0  0
   -7.1042    4.2292    0.0000 C   0  0  0  0  0  0  0  0  0  0  0  0
   -5.9750    4.8875    0.0000 C   0  0  0  0  0  0  0  0  0  0  0  0
   -6.7167    4.8875    0.0000 C   0  0  0  0  0  0  0  0  0  0  0  0
   -2.2208    3.6083    0.0000 C   0  0  0  0  0  0  0  0  0  0  0  0
   -7.1042    2.9375    0.0000 C   0  0  0  0  0  0  0  0  0  0  0  0
   -5.5958    5.5417    0.0000 C   0  0  0  0  0  0  0  0  0  0  0  0
  2  1  1  0  0  0  0
  3  1  1  0  0  0  0
  4 10  1  0  0  0  0
  5  8  1  0  0  0  0
  6  7  1  0  0  0  0
  7  5  1  0  0  0  0
  8  1  1  0  0  0  0
  9  2  1  0  0  0  0
 10  3  1  0  0  0  0
 11  2  2  0  0  0  0
 12  6  1  0  0  0  0
 13  6  2  0  0  0  0
 14  3  2  0  0  0  0
 15  5  2  0  0  0  0
 16 12  2  0  0  0  0
 17 13  1  0  0  0  0
 18 17  2  0  0  0  0
 19  9  1  0  0  0  0
 20 12  1  0  0  0  0
 21 17  1  0  0  0  0
  9  4  1  0  0  0  0
 16 18  1  0  0  0  0
M  END
> <IDNUMBER>
F1800-0165

> <Chemical_Name>
N-(2,5-dimethylphenyl)-2-(2-methyl-3,5-dioxothiomorpholin-4-yl)acetamide

> <CAS>
868215-87-6

> <PriceCoeff>
1.00

> <MW>
306.38

> <Description>
solid

> <FSP3>
0.40

> <clogP>
2.32

> <TPSA>
91.78

> <Acceptor>
3

> <Donor>
1

> <RotBonds>
3

> <HAC>
21

> <Collection>
General

$$$$
F1130-0080
  -ISIS-  06222321452D

 18 20  0  0  0  0  0  0  0  0999 V2000
    1.1792   -1.1792    0.0000 C   0  0  3  0  0  0  0  0  0  0  0  0
    2.8875   -1.2250    0.0000 C   0  0  0  0  0  0  0  0  0  0  0  0
    0.4375   -0.0542    0.0000 C   0  0  3  0  0  0  0  0  0  0  0  0
   -0.2833   -1.1042    0.0000 C   0  0  3  0  0  0  0  0  0  0  0  0
   -0.1208   -1.5625    0.0000 C   0  0  3  0  0  0  0  0  0  0  0  0
    5.0000   -0.6750    0.0000 C   0  0  0  0  0  0  0  0  0  0  0  0
    3.5750   -0.7625    0.0000 N   0  0  0  0  0  0  0  0  0  0  0  0
    2.1292   -0.8500    0.0000 C   0  0  0  0  0  0  0  0  0  0  0  0
    1.1792   -0.3542    0.0000 C   0  0  0  0  0  0  0  0  0  0  0  0
    0.6292   -1.8667    0.0000 C   0  0  0  0  0  0  0  0  0  0  0  0
    0.4292   -1.3667    0.0000 C   0  0  0  0  0  0  0  0  0  0  0  0
    2.9375   -2.0542    0.0000 O   0  0  0  0  0  0  0  0  0  0  0  0
    5.7375   -1.0500    0.0000 O   0  0  0  0  0  0  0  0  0  0  0  0
   -0.2833   -0.3125    0.0000 C   0  0  0  0  0  0  0  0  0  0  0  0
   -0.1208   -0.7167    0.0000 C   0  0  0  0  0  0  0  0  0  0  0  0
   -0.9208   -1.7875    0.0000 C   0  0  0  0  0  0  0  0  0  0  0  0
    4.3125   -1.1292    0.0000 C   0  0  0  0  0  0  0  0  0  0  0  0
    4.9542    0.1500    0.0000 O   0  0  0  0  0  0  0  0  0  0  0  0
  2  8  1  0  0  0  0
  3  9  1  0  0  0  0
  4 11  1  0  0  0  0
  5 10  1  0  0  0  0
  6 17  1  0  0  0  0
  7  2  1  0  0  0  0
  8  1  1  0  0  0  0
  9  1  1  0  0  0  0
 10  1  1  0  0  0  0
 11  1  1  0  0  0  0
 12  2  2  0  0  0  0
 13  6  2  0  0  0  0
 14  4  1  0  0  0  0
 15  5  1  0  0  0  0
 16  4  1  0  0  0  0
 17  7  1  0  0  0  0
 18  6  1  0  0  0  0
 16  5  1  0  0  0  0
 14  3  1  0  0  0  0
  3 15  1  0  0  0  0
M  END
> <IDNUMBER>
F1130-0080

> <Chemical_Name>
2-[2-(adamantan-1-yl)acetamido]acetic acid

> <CAS>
237400-99-6

> <PriceCoeff>
1.50

> <MW>
251.32

> <Description>
solid

> <FSP3>
0.86

> <clogP>
3.41

> <TPSA>
66.40

> <Acceptor>
3

> <Donor>
1

> <RotBonds>
4

> <HAC>
18

> <Collection>
Advanced

> <Reference_compound>
CHEMBL456396

> <Similarity>
0.8650

$$$$
F1593-0047
  -ISIS-  06222321452D

 23 25  0  0  0  0  0  0  0  0999 V2000
    0.4000   -3.7292    0.0000 N   0  0  3  0  0  0  0  0  0  0  0  0
    2.3042   -2.8750    0.0000 C   0  0  0  0  0  0  0  0  0  0  0  0
    0.6250   -5.8125    0.0000 C   0  0  0  0  0  0  0  0  0  0  0  0
    2.6750   -6.2375    0.0000 C   0  0  3  0  0  0  0  0  0  0  0  0
    3.7167   -4.4292    0.0000 C   0  0  0  0  0  0  0  0  0  0  0  0
   11.8292   -8.9667    0.0000 N   0  0  3  0  0  0  0  0  0  0  0  0
    3.5292   -8.1417    0.0000 N   0  0  0  0  0  0  0  0  0  0  0  0
    2.7292   -0.8250    0.0000 O   0  0  0  0  0  0  0  0  0  0  0  0
    9.7625   -8.7667    0.0000 C   0  0  0  0  0  0  0  0  0  0  0  0
   -0.9333   -7.2167    0.0000 O   0  0  0  0  0  0  0  0  0  0  0  0
   -1.4083   -2.6917    0.0000 C   0  0  3  0  0  0  0  0  0  0  0  0
   16.0000   -9.3875    0.0000 O   0  0  0  0  0  0  0  0  0  0  0  0
    8.8917   -6.8542    0.0000 C   0  0  0  0  0  0  0  0  0  0  0  0
    8.5417  -10.4542    0.0000 C   0  0  0  0  0  0  0  0  0  0  0  0
    5.6042   -8.3417    0.0000 C   0  0  0  0  0  0  0  0  0  0  0  0
    6.8167   -6.6542    0.0000 C   0  0  0  0  0  0  0  0  0  0  0  0
    6.4667  -10.2542    0.0000 C   0  0  0  0  0  0  0  0  0  0  0  0
   13.0500   -7.2625    0.0000 C   0  0  0  0  0  0  0  0  0  0  0  0
   12.7000  -10.8792    0.0000 C   0  0  0  0  0  0  0  0  0  0  0  0
   14.7750  -11.0875    0.0000 C   0  0  0  0  0  0  0  0  0  0  0  0
   15.1417   -7.4750    0.0000 C   0  0  0  0  0  0  0  0  0  0  0  0
   -1.4125   -0.6125    0.0000 C   0  0  0  0  0  0  0  0  0  0  0  0
   -3.2083   -3.7417    0.0000 C   0  0  0  0  0  0  0  0  0  0  0  0
  2  1  1  0  0  0  0
  3  1  1  0  0  0  0
  4  3  1  0  0  0  0
  5  2  1  0  0  0  0
  6  9  1  0  0  0  0
  7  4  1  0  0  0  0
  8  2  2  0  0  0  0
  9 14  2  0  0  0  0
 10  3  2  0  0  0  0
 11  1  1  0  0  0  0
 12 20  1  0  0  0  0
 13 16  2  0  0  0  0
 14 17  1  0  0  0  0
 15  7  1  0  0  0  0
 16 15  1  0  0  0  0
 17 15  2  0  0  0  0
 18  6  1  0  0  0  0
 19  6  1  0  0  0  0
 20 19  1  0  0  0  0
 21 18  1  0  0  0  0
 22 11  1  0  0  0  0
 23 11  1  0  0  0  0
  5  4  1  0  0  0  0
 13  9  1  0  0  0  0
 12 21  1  0  0  0  0
M  END
> <IDNUMBER>
F1593-0047

> <Chemical_Name>
3-{[4-(morpholin-4-yl)phenyl]amino}-1-(propan-2-yl)pyrrolidine-2,5-dione

> <CAS>
1008201-66-8

> <PriceCoeff>
1.00

> <MW>
317.38

> <Description>
solid

> <FSP3>
0.53

> <clogP>
1.95

> <TPSA>
61.88

> <Acceptor>
5

> <Donor>
2

> <RotBonds>
4

> <HAC>
23

> <Collection>
General

$$$$
F1800-0177
  -ISIS-  06222321142D

 21 22  0  0  0  0  0  0  0  0999 V2000
   -3.7250    2.3000    0.0000 N   0  0  3  0  0  0  0  0  0  0  0  0
   -3.3500    2.9583    0.0000 C   0  0  0  0  0  0  0  0  0  0  0  0
   -3.3500    1.6583    0.0000 C   0  0  0  0  0  0  0  0  0  0  0  0
   -2.2250    2.3000    0.0000 S   0  0  0  0  0  0  0  0  0  0  0  0
   -4.8500    2.9458    0.0000 C   0  0  0  0  0  0  0  0  0  0  0  0
   -4.4750    2.3000    0.0000 C   0  0  0  0  0  0  0  0  0  0  0  0
   -5.6000    2.9458    0.0000 N   0  0  0  0  0  0  0  0  0  0  0  0
   -5.9750    3.5958    0.0000 C   0  0  0  0  0  0  0  0  0  0  0  0
   -6.7167    3.5958    0.0000 C   0  0  0  0  0  0  0  0  0  0  0  0
   -2.6000    2.9583    0.0000 C   0  0  3  0  0  0  0  0  0  0  0  0
   -7.0917    4.2292    0.0000 C   0  0  0  0  0  0  0  0  0  0  0  0
   -2.6000    1.6583    0.0000 C   0  0  0  0  0  0  0  0  0  0  0  0
   -3.7333    3.6083    0.0000 O   0  0  0  0  0  0  0  0  0  0  0  0
   -3.7333    1.0000    0.0000 O   0  0  0  0  0  0  0  0  0  0  0  0
   -4.4750    3.5958    0.0000 O   0  0  0  0  0  0  0  0  0  0  0  0
   -5.6000    4.2292    0.0000 C   0  0  0  0  0  0  0  0  0  0  0  0
   -6.7167    4.8875    0.0000 C   0  0  0  0  0  0  0  0  0  0  0  0
   -7.1042    2.9375    0.0000 F   0  0  0  0  0  0  0  0  0  0  0  0
   -5.9750    4.8875    0.0000 C   0  0  0  0  0  0  0  0  0  0  0  0
   -7.1042    5.5417    0.0000 F   0  0  0  0  0  0  0  0  0  0  0  0
   -2.2208    3.6083    0.0000 C   0  0  0  0  0  0  0  0  0  0  0  0
  2  1  1  0  0  0  0
  3  1  1  0  0  0  0
  4 12  1  0  0  0  0
  5  6  1  0  0  0  0
  6  1  1  0  0  0  0
  7  5  1  0  0  0  0
  8  7  1  0  0  0  0
  9  8  1  0  0  0  0
 10  2  1  0  0  0  0
 11  9  2  0  0  0  0
 12  3  1  0  0  0  0
 13  2  2  0  0  0  0
 14  3  2  0  0  0  0
 15  5  2  0  0  0  0
 16  8  2  0  0  0  0
 17 19  2  0  0  0  0
 18  9  1  0  0  0  0
 19 16  1  0  0  0  0
 20 17  1  0  0  0  0
 21 10  1  0  0  0  0
 10  4  1  0  0  0  0
 11 17  1  0  0  0  0
M  END
> <IDNUMBER>
F1800-0177

> <Chemical_Name>
N-(2,4-difluorophenyl)-2-(2-methyl-3,5-dioxothiomorpholin-4-yl)acetamide

> <CAS>
868215-98-9

> <PriceCoeff>
1.00

> <MW>
314.31

> <Description>
solid

> <FSP3>
0.31

> <clogP>
2.00

> <TPSA>
91.78

> <Acceptor>
3

> <Donor>
1

> <RotBonds>
3

> <HAC>
21

> <Collection>
General

$$$$
F2191-0004
  -ISIS-  06222321142D

 12 12  0  0  0  0  0  0  0  0999 V2000
    5.8042   -4.0542    0.0000 C   0  0  0  0  0  0  0  0  0  0  0  0
    5.0917   -3.6417    0.0000 C   0  0  0  0  0  0  0  0  0  0  0  0
    4.3750   -4.0542    0.0000 C   0  0  0  0  0  0  0  0  0  0  0  0
    6.5250   -3.6417    0.0000 C   0  0  0  0  0  0  0  0  0  0  0  0
    4.3750   -4.8792    0.0000 C   0  0  0  0  0  0  0  0  0  0  0  0
    5.8042   -4.8792    0.0000 C   0  0  0  0  0  0  0  0  0  0  0  0
    6.5250   -2.8125    0.0000 O   0  0  0  0  0  0  0  0  0  0  0  0
    5.0917   -5.2917    0.0000 C   0  0  0  0  0  0  0  0  0  0  0  0
    3.6542   -3.6417    0.0000 O   0  0  0  0  0  0  0  0  0  0  0  0
    3.6542   -5.3042    0.0000 O   0  0  0  0  0  0  0  0  0  0  0  0
    7.2417   -4.0542    0.0000 C   0  0  0  0  0  0  0  0  0  0  0  0
    2.9417   -4.0625    0.0000 C   0  0  0  0  0  0  0  0  0  0  0  0
  2  1  2  0  0  0  0
  3  2  1  0  0  0  0
  4  1  1  0  0  0  0
  5  8  1  0  0  0  0
  6  1  1  0  0  0  0
  7  4  2  0  0  0  0
  8  6  2  0  0  0  0
  9  3  1  0  0  0  0
 10  5  1  0  0  0  0
 11  4  1  0  0  0  0
 12  9  1  0  0  0  0
  5  3  2  0  0  0  0
M  END
> <IDNUMBER>
F2191-0004

> <Chemical_Name>
1-(4-hydroxy-3-methoxyphenyl)ethan-1-one

> <CAS>
498-02-2

> <PriceCoeff>
1.00

> <MW>
166.17

> <Description>
solid

> <FSP3>
0.22

> <clogP>
1.28

> <TPSA>
46.53

> <Acceptor>
3

> <Donor>
1

> <RotBonds>
2

> <HAC>
12

> <Collection>
General

> <Reference_compound>
CHEMBL13883

> <Similarity>
0.8000

$$$$
F6439-2748
  -ISIS-  06222321152D

 27 30  0  0  0  0  0  0  0  0999 V2000
   -5.2833    2.5708    0.0000 N   0  0  3  0  0  0  0  0  0  0  0  0
   -2.4833    6.7667    0.0000 N   0  0  0  0  0  0  0  0  0  0  0  0
   -3.1500    6.2792    0.0000 N   0  0  3  0  0  0  0  0  0  0  0  0
   -3.8250    6.7667    0.0000 C   0  0  0  0  0  0  0  0  0  0  0  0
   -3.5708    7.5500    0.0000 C   0  0  0  0  0  0  0  0  0  0  0  0
   -2.7375    7.5542    0.0000 C   0  0  0  0  0  0  0  0  0  0  0  0
   -6.0292    2.9000    0.0000 C   0  0  0  0  0  0  0  0  0  0  0  0
   -5.3708    1.7458    0.0000 C   0  0  0  0  0  0  0  0  0  0  0  0
   -4.6083    6.5000    0.0000 C   0  0  3  0  0  0  0  0  0  0  0  0
   -5.1583    5.8792    0.0000 C   0  0  0  0  0  0  0  0  0  0  0  0
   -5.4125    6.6750    0.0000 C   0  0  0  0  0  0  0  0  0  0  0  0
   -4.5833    2.9875    0.0000 C   0  0  0  0  0  0  0  0  0  0  0  0
   -4.5833    3.8000    0.0000 C   0  0  0  0  0  0  0  0  0  0  0  0
   -2.2583    8.2167    0.0000 C   0  0  0  0  0  0  0  0  0  0  0  0
   -1.4333    8.1417    0.0000 N   0  0  0  0  0  0  0  0  0  0  0  0
   -6.5750    2.2833    0.0000 C   0  0  0  0  0  0  0  0  0  0  0  0
   -6.1667    1.5708    0.0000 C   0  0  0  0  0  0  0  0  0  0  0  0
   -6.2042    3.7083    0.0000 O   0  0  0  0  0  0  0  0  0  0  0  0
   -4.7500    1.1833    0.0000 O   0  0  0  0  0  0  0  0  0  0  0  0
   -3.1500    5.4500    0.0000 C   0  0  0  0  0  0  0  0  0  0  0  0
   -5.3000    4.2042    0.0000 O   0  0  0  0  0  0  0  0  0  0  0  0
   -3.8625    4.2042    0.0000 N   0  0  0  0  0  0  0  0  0  0  0  0
   -3.8625    5.0292    0.0000 C   0  0  0  0  0  0  0  0  0  0  0  0
   -0.9583    8.8167    0.0000 C   0  0  0  0  0  0  0  0  0  0  0  0
   -2.6083    8.9750    0.0000 C   0  0  0  0  0  0  0  0  0  0  0  0
   -1.2958    9.5667    0.0000 C   0  0  0  0  0  0  0  0  0  0  0  0
   -2.1208    9.6500    0.0000 C   0  0  0  0  0  0  0  0  0  0  0  0
  2  3  1  0  0  0  0
  3 20  1  0  0  0  0
  4  3  1  0  0  0  0
  5  4  2  0  0  0  0
  6  2  2  0  0  0  0
  7  1  1  0  0  0  0
  8  1  1  0  0  0  0
  9  4  1  0  0  0  0
 10  9  1  0  0  0  0
 11  9  1  0  0  0  0
 12  1  1  0  0  0  0
 13 12  1  0  0  0  0
 14  6  1  0  0  0  0
 15 14  1  0  0  0  0
 16  7  1  0  0  0  0
 17  8  1  0  0  0  0
 18  7  2  0  0  0  0
 19  8  2  0  0  0  0
 20 23  1  0  0  0  0
 21 13  2  0  0  0  0
 22 13  1  0  0  0  0
 23 22  1  0  0  0  0
 24 15  2  0  0  0  0
 25 14  2  0  0  0  0
 26 27  2  0  0  0  0
 27 25  1  0  0  0  0
 16 17  1  0  0  0  0
  5  6  1  0  0  0  0
 11 10  1  0  0  0  0
 26 24  1  0  0  0  0
M  END
> <IDNUMBER>
F6439-2748

> <Chemical_Name>
N-{2-[5-cyclopropyl-3-(pyridin-2-yl)-1H-pyrazol-1-yl]ethyl}-2-(2,5-dioxopyrrolidin-1-yl)acetamide

> <CAS>
1797674-18-0

> <PriceCoeff>
1.00

> <MW>
367.40

> <Description>
solid

> <FSP3>
0.42

> <clogP>
0.96

> <TPSA>
97.19

> <Acceptor>
5

> <Donor>
2

> <RotBonds>
7

> <HAC>
27

> <Collection>
General

$$$$
F6473-3950
  -ISIS-  06222321152D

 23 25  0  0  0  0  0  0  0  0999 V2000
   -3.7458    3.6958    0.0000 S   0  0  3  0  0  0  0  0  0  0  0  0
   -3.0333    4.1042    0.0000 N   0  0  3  0  0  0  0  0  0  0  0  0
   -4.4583    3.2833    0.0000 C   0  0  0  0  0  0  0  0  0  0  0  0
   -1.3083    5.1042    0.0000 N   0  0  3  0  0  0  0  0  0  0  0  0
   -2.0333    4.6875    0.0000 C   0  0  3  0  0  0  0  0  0  0  0  0
   -2.8208    4.9000    0.0000 C   0  0  0  0  0  0  0  0  0  0  0  0
   -2.2458    3.8958    0.0000 C   0  0  0  0  0  0  0  0  0  0  0  0
   -0.5583    4.7667    0.0000 C   0  0  0  0  0  0  0  0  0  0  0  0
   -1.2250    5.9167    0.0000 C   0  0  0  0  0  0  0  0  0  0  0  0
   -4.4583    2.4625    0.0000 C   0  0  0  0  0  0  0  0  0  0  0  0
   -5.1708    3.6875    0.0000 C   0  0  0  0  0  0  0  0  0  0  0  0
   -5.1583    2.0500    0.0000 C   0  0  0  0  0  0  0  0  0  0  0  0
   -3.3333    2.9875    0.0000 O   0  0  0  0  0  0  0  0  0  0  0  0
   -4.1583    4.4042    0.0000 O   0  0  0  0  0  0  0  0  0  0  0  0
   -5.8708    2.4583    0.0000 C   0  0  0  0  0  0  0  0  0  0  0  0
   -5.8750    3.2750    0.0000 C   0  0  0  0  0  0  0  0  0  0  0  0
   -0.0083    5.3792    0.0000 C   0  0  0  0  0  0  0  0  0  0  0  0
   -0.4208    6.0917    0.0000 C   0  0  0  0  0  0  0  0  0  0  0  0
   -0.3875    3.9625    0.0000 O   0  0  0  0  0  0  0  0  0  0  0  0
   -1.8417    6.4708    0.0000 O   0  0  0  0  0  0  0  0  0  0  0  0
   -3.7333    2.0583    0.0000 Cl  0  0  0  0  0  0  0  0  0  0  0  0
   -6.5792    2.0250    0.0000 Cl  0  0  0  0  0  0  0  0  0  0  0  0
   -6.5917    3.6833    0.0000 C   0  0  0  0  0  0  0  0  0  0  0  0
  2  1  1  0  0  0  0
  3  1  1  0  0  0  0
  4  5  1  0  0  0  0
  5  7  1  0  0  0  0
  6  2  1  0  0  0  0
  7  2  1  0  0  0  0
  8  4  1  0  0  0  0
  9  4  1  0  0  0  0
 10  3  1  0  0  0  0
 11  3  2  0  0  0  0
 12 10  2  0  0  0  0
 13  1  2  0  0  0  0
 14  1  2  0  0  0  0
 15 16  2  0  0  0  0
 16 11  1  0  0  0  0
 17  8  1  0  0  0  0
 18  9  1  0  0  0  0
 19  8  2  0  0  0  0
 20  9  2  0  0  0  0
 21 10  1  0  0  0  0
 22 15  1  0  0  0  0
 23 16  1  0  0  0  0
  6  5  1  0  0  0  0
 12 15  1  0  0  0  0
 18 17  1  0  0  0  0
M  END
> <IDNUMBER>
F6473-3950

> <Chemical_Name>
1-[1-(2,4-dichloro-5-methylbenzenesulfonyl)azetidin-3-yl]pyrrolidine-2,5-dione

> <CAS>
1795303-87-5

> <PriceCoeff>
1.00

> <MW>
377.24

> <Description>
solid

> <FSP3>
0.43

> <clogP>
2.39

> <TPSA>
83.14

> <Acceptor>
4

> <Donor>
0

> <RotBonds>
3

> <HAC>
23

> <Collection>
General

$$$$
F0789-0022
  -ISIS-  06222321142D

 27 30  0  0  0  0  0  0  0  0999 V2000
    3.3542   -1.7042    0.0000 N   0  0  3  0  0  0  0  0  0  0  0  0
   -0.7000   -0.9292    0.0000 C   0  0  0  0  0  0  0  0  0  0  0  0
   -1.3000   -0.2500    0.0000 N   0  0  0  0  0  0  0  0  0  0  0  0
    0.2000   -0.9292    0.0000 N   0  0  0  0  0  0  0  0  0  0  0  0
   -2.1208   -0.6292    0.0000 C   0  0  0  0  0  0  0  0  0  0  0  0
    2.9000   -0.9292    0.0000 C   0  0  0  0  0  0  0  0  0  0  0  0
    0.6542   -0.1667    0.0000 C   0  0  0  0  0  0  0  0  0  0  0  0
    4.2375   -1.7500    0.0000 C   0  0  0  0  0  0  0  0  0  0  0  0
    3.0375   -2.5292    0.0000 C   0  0  0  0  0  0  0  0  0  0  0  0
   -1.1625   -1.6875    0.0000 S   0  0  0  0  0  0  0  0  0  0  0  0
   -2.0458   -1.5042    0.0000 C   0  0  0  0  0  0  0  0  0  0  0  0
    2.0000   -0.9292    0.0000 C   0  0  0  0  0  0  0  0  0  0  0  0
    1.5542   -0.1667    0.0000 C   0  0  0  0  0  0  0  0  0  0  0  0
   -2.8625   -0.1292    0.0000 C   0  0  0  0  0  0  0  0  0  0  0  0
    0.2167    0.6333    0.0000 O   0  0  0  0  0  0  0  0  0  0  0  0
    4.4542   -2.6042    0.0000 C   0  0  0  0  0  0  0  0  0  0  0  0
    3.7375   -3.0875    0.0000 C   0  0  0  0  0  0  0  0  0  0  0  0
    4.8167   -1.0500    0.0000 O   0  0  0  0  0  0  0  0  0  0  0  0
    2.1542   -2.7667    0.0000 O   0  0  0  0  0  0  0  0  0  0  0  0
   -4.3833    0.0125    0.0000 N   0  0  0  0  0  0  0  0  0  0  0  0
    3.3542   -0.1667    0.0000 C   0  0  0  0  0  0  0  0  0  0  0  0
   -3.6625   -0.5042    0.0000 C   0  0  0  0  0  0  0  0  0  0  0  0
    2.0000    0.6333    0.0000 C   0  0  0  0  0  0  0  0  0  0  0  0
    2.9000    0.6333    0.0000 C   0  0  0  0  0  0  0  0  0  0  0  0
   -2.7833    0.7708    0.0000 C   0  0  0  0  0  0  0  0  0  0  0  0
   -4.3458    0.8958    0.0000 C   0  0  0  0  0  0  0  0  0  0  0  0
   -3.5208    1.2958    0.0000 C   0  0  0  0  0  0  0  0  0  0  0  0
  2  4  1  0  0  0  0
  3  2  2  0  0  0  0
  4  7  1  0  0  0  0
  5  3  1  0  0  0  0
  6  1  1  0  0  0  0
  7 13  1  0  0  0  0
  8  1  1  0  0  0  0
  9  1  1  0  0  0  0
 10  2  1  0  0  0  0
 11 10  1  0  0  0  0
 12  6  1  0  0  0  0
 13 12  2  0  0  0  0
 14  5  1  0  0  0  0
 15  7  2  0  0  0  0
 16  8  1  0  0  0  0
 17  9  1  0  0  0  0
 18  8  2  0  0  0  0
 19  9  2  0  0  0  0
 20 22  2  0  0  0  0
 21  6  2  0  0  0  0
 22 14  1  0  0  0  0
 23 24  2  0  0  0  0
 24 21  1  0  0  0  0
 25 14  2  0  0  0  0
 26 27  2  0  0  0  0
 27 25  1  0  0  0  0
 16 17  1  0  0  0  0
 13 23  1  0  0  0  0
 11  5  2  0  0  0  0
 26 20  1  0  0  0  0
M  END
> <IDNUMBER>
F0789-0022

> <Chemical_Name>
3-(2,5-dioxopyrrolidin-1-yl)-N-[4-(pyridin-3-yl)-1,3-thiazol-2-yl]benzamide

> <CAS>
361479-60-9

> <PriceCoeff>
1.00

> <MW>
378.40

> <Description>
solid

> <FSP3>
0.11

> <clogP>
0.74

> <TPSA>
120.50

> <Acceptor>
5

> <Donor>
2

> <RotBonds>
4

> <HAC>
27

> <Collection>
General

$$$$
F3023-0954
  -ISIS-  06222321462D

 22 24  0  0  0  0  0  0  0  0999 V2000
    3.5375   -6.4542    0.0000 N   0  0  3  0  0  0  0  0  0  0  0  0
    3.9542   -7.0250    0.0000 C   0  0  0  0  0  0  0  0  0  0  0  0
    3.9542   -5.8792    0.0000 C   0  0  0  0  0  0  0  0  0  0  0  0
    4.6292   -6.8042    0.0000 C   0  0  3  0  0  0  0  0  0  0  0  0
    4.6292   -6.0917    0.0000 C   0  0  0  0  0  0  0  0  0  0  0  0
    7.7917   -6.0625    0.0000 N   0  0  3  0  0  0  0  0  0  0  0  0
    5.2042   -7.2167    0.0000 N   0  0  0  0  0  0  0  0  0  0  0  0
    7.1417   -6.3542    0.0000 C   0  0  0  0  0  0  0  0  0  0  0  0
    3.7417   -7.7000    0.0000 O   0  0  0  0  0  0  0  0  0  0  0  0
    3.7292   -5.2042    0.0000 O   0  0  0  0  0  0  0  0  0  0  0  0
    9.0917   -5.4875    0.0000 O   0  0  0  0  0  0  0  0  0  0  0  0
    7.0750   -7.0542    0.0000 C   0  0  0  0  0  0  0  0  0  0  0  0
    6.5667   -5.9375    0.0000 C   0  0  0  0  0  0  0  0  0  0  0  0
    5.8542   -6.9292    0.0000 C   0  0  0  0  0  0  0  0  0  0  0  0
    2.8292   -6.4542    0.0000 C   0  0  0  0  0  0  0  0  0  0  0  0
    6.4250   -7.3417    0.0000 C   0  0  0  0  0  0  0  0  0  0  0  0
    5.9167   -6.2250    0.0000 C   0  0  0  0  0  0  0  0  0  0  0  0
    8.3667   -6.4792    0.0000 C   0  0  0  0  0  0  0  0  0  0  0  0
    7.8667   -5.3542    0.0000 C   0  0  0  0  0  0  0  0  0  0  0  0
    8.5167   -5.0667    0.0000 C   0  0  0  0  0  0  0  0  0  0  0  0
    9.0167   -6.1917    0.0000 C   0  0  0  0  0  0  0  0  0  0  0  0
    2.4750   -5.8417    0.0000 C   0  0  0  0  0  0  0  0  0  0  0  0
  2  1  1  0  0  0  0
  3  1  1  0  0  0  0
  4  2  1  0  0  0  0
  5  3  1  0  0  0  0
  6  8  1  0  0  0  0
  7  4  1  0  0  0  0
  8 13  1  0  0  0  0
  9  2  2  0  0  0  0
 10  3  2  0  0  0  0
 11 20  1  0  0  0  0
 12 16  1  0  0  0  0
 13 17  2  0  0  0  0
 14  7  1  0  0  0  0
 15  1  1  0  0  0  0
 16 14  2  0  0  0  0
 17 14  1  0  0  0  0
 18  6  1  0  0  0  0
 19  6  1  0  0  0  0
 20 19  1  0  0  0  0
 21 18  1  0  0  0  0
 22 15  1  0  0  0  0
  5  4  1  0  0  0  0
  8 12  2  0  0  0  0
 11 21  1  0  0  0  0
M  END
> <IDNUMBER>
F3023-0954

> <Chemical_Name>
1-ethyl-3-{[4-(morpholin-4-yl)phenyl]amino}pyrrolidine-2,5-dione

> <CAS>
1007926-02-4

> <PriceCoeff>
1.00

> <MW>
303.36

> <Description>
solid

> <FSP3>
0.50

> <clogP>
1.64

> <TPSA>
61.88

> <Acceptor>
5

> <Donor>
2

> <RotBonds>
4

> <HAC>
22

> <Collection>
General

$$$$
F0896-0475
  -ISIS-  06222321452D

 17 19  0  0  0  0  0  0  0  0999 V2000
    2.5250   -1.2917    0.0000 C   0  0  0  0  0  0  0  0  0  0  0  0
    3.0167   -1.9625    0.0000 C   0  0  0  0  0  0  0  0  0  0  0  0
    2.5292   -2.6292    0.0000 N   0  0  0  0  0  0  0  0  0  0  0  0
    4.1667   -1.1167    0.0000 N   0  0  0  0  0  0  0  0  0  0  0  0
    1.7417   -1.5542    0.0000 C   0  0  0  0  0  0  0  0  0  0  0  0
    2.8542   -0.5375    0.0000 C   0  0  0  0  0  0  0  0  0  0  0  0
    3.6792   -0.4500    0.0000 C   0  0  3  0  0  0  0  0  0  0  0  0
    1.7417   -2.3792    0.0000 C   0  0  0  0  0  0  0  0  0  0  0  0
    3.8292   -1.8750    0.0000 C   0  0  3  0  0  0  0  0  0  0  0  0
    4.0042    0.3083    0.0000 C   0  0  0  0  0  0  0  0  0  0  0  0
    3.5167    0.9708    0.0000 O   0  0  0  0  0  0  0  0  0  0  0  0
    4.8292    0.3958    0.0000 O   0  0  0  0  0  0  0  0  0  0  0  0
    1.0250   -1.1417    0.0000 C   0  0  0  0  0  0  0  0  0  0  0  0
    1.0250   -2.8000    0.0000 C   0  0  0  0  0  0  0  0  0  0  0  0
    4.3250   -2.5375    0.0000 C   0  0  0  0  0  0  0  0  0  0  0  0
    0.3125   -1.5625    0.0000 C   0  0  0  0  0  0  0  0  0  0  0  0
    0.3125   -2.3875    0.0000 C   0  0  0  0  0  0  0  0  0  0  0  0
  2  1  2  0  0  0  0
  3  2  1  0  0  0  0
  4  7  1  0  0  0  0
  5  1  1  0  0  0  0
  6  1  1  0  0  0  0
  7  6  1  0  0  0  0
  8  5  1  0  0  0  0
  9  2  1  0  0  0  0
 10  7  1  0  0  0  0
 11 10  2  0  0  0  0
 12 10  1  0  0  0  0
 13  5  2  0  0  0  0
 14  8  2  0  0  0  0
 15  9  1  0  0  0  0
 16 13  1  0  0  0  0
 17 16  2  0  0  0  0
  3  8  1  0  0  0  0
  4  9  1  0  0  0  0
 17 14  1  0  0  0  0
M  END
> <IDNUMBER>
F0896-0475

> <Chemical_Name>
1-methyl-1H,2H,3H,4H,9H-pyrido[3,4-b]indole-3-carboxylic acid

> <CAS>
5470-37-1

> <PriceCoeff>
1.00

> <MW>
230.26

> <Description>
solid

> <FSP3>
0.31

> <clogP>
-0.69

> <TPSA>
65.12

> <Acceptor>
2

> <Donor>
2

> <RotBonds>
1

> <HAC>
17

> <Collection>
General

> <Reference_compound>
CHEMBL149177

> <Similarity>
0.9270

$$$$
F5857-2313
  -ISIS-  06222321152D

 24 26  0  0  0  0  0  0  0  0999 V2000
   -5.2833    2.5708    0.0000 N   0  0  3  0  0  0  0  0  0  0  0  0
   -5.3625    1.7458    0.0000 C   0  0  0  0  0  0  0  0  0  0  0  0
   -6.0292    2.9000    0.0000 C   0  0  0  0  0  0  0  0  0  0  0  0
   -3.1458    6.2792    0.0000 C   0  0  0  0  0  0  0  0  0  0  0  0
   -4.5708    2.9875    0.0000 C   0  0  0  0  0  0  0  0  0  0  0  0
   -2.4250    6.6917    0.0000 C   0  0  0  0  0  0  0  0  0  0  0  0
   -4.5708    3.8000    0.0000 C   0  0  0  0  0  0  0  0  0  0  0  0
   -3.8583    4.2125    0.0000 N   0  0  0  0  0  0  0  0  0  0  0  0
   -6.1667    1.5708    0.0000 C   0  0  0  0  0  0  0  0  0  0  0  0
   -6.5750    2.2833    0.0000 C   0  0  0  0  0  0  0  0  0  0  0  0
   -4.7458    1.1833    0.0000 O   0  0  0  0  0  0  0  0  0  0  0  0
   -6.2042    3.7083    0.0000 O   0  0  0  0  0  0  0  0  0  0  0  0
   -3.1458    5.4500    0.0000 C   0  0  3  0  0  0  0  0  0  0  0  0
   -5.2958    4.2125    0.0000 O   0  0  0  0  0  0  0  0  0  0  0  0
   -3.8583    5.0417    0.0000 C   0  0  0  0  0  0  0  0  0  0  0  0
   -2.4250    7.5125    0.0000 C   0  0  0  0  0  0  0  0  0  0  0  0
   -2.4333    5.0292    0.0000 O   0  0  0  0  0  0  0  0  0  0  0  0
   -3.8458    6.6875    0.0000 C   0  0  0  0  0  0  0  0  0  0  0  0
   -1.7000    6.2750    0.0000 C   0  0  0  0  0  0  0  0  0  0  0  0
   -3.8583    7.5167    0.0000 C   0  0  0  0  0  0  0  0  0  0  0  0
   -3.1333    7.9167    0.0000 C   0  0  0  0  0  0  0  0  0  0  0  0
   -1.7083    7.9167    0.0000 C   0  0  0  0  0  0  0  0  0  0  0  0
   -0.9750    6.6875    0.0000 C   0  0  0  0  0  0  0  0  0  0  0  0
   -0.9750    7.5042    0.0000 C   0  0  0  0  0  0  0  0  0  0  0  0
  2  1  1  0  0  0  0
  3  1  1  0  0  0  0
  4 13  1  0  0  0  0
  5  1  1  0  0  0  0
  6  4  2  0  0  0  0
  7  5  1  0  0  0  0
  8  7  1  0  0  0  0
  9  2  1  0  0  0  0
 10  3  1  0  0  0  0
 11  2  2  0  0  0  0
 12  3  2  0  0  0  0
 13 15  1  0  0  0  0
 14  7  2  0  0  0  0
 15  8  1  0  0  0  0
 16  6  1  0  0  0  0
 17 13  1  0  0  0  0
 18  4  1  0  0  0  0
 19  6  1  0  0  0  0
 20 18  2  0  0  0  0
 21 20  1  0  0  0  0
 22 16  1  0  0  0  0
 23 19  2  0  0  0  0
 24 23  1  0  0  0  0
  9 10  1  0  0  0  0
 16 21  2  0  0  0  0
 22 24  2  0  0  0  0
M  END
> <IDNUMBER>
F5857-2313

> <Chemical_Name>
2-(2,5-dioxopyrrolidin-1-yl)-N-[2-hydroxy-2-(naphthalen-1-yl)ethyl]acetamide

> <CAS>
1351597-93-7

> <PriceCoeff>
1.00

> <MW>
326.35

> <Description>
solid

> <FSP3>
0.28

> <clogP>
1.17

> <TPSA>
86.71

> <Acceptor>
4

> <Donor>
2

> <RotBonds>
5

> <HAC>
24

> <Collection>
General

$$$$
F0700-0021
  -ISIS-  06222321452D

 27 30  0  0  0  0  0  0  0  0999 V2000
    2.5792    0.0333    0.0000 N   0  0  3  0  0  0  0  0  0  0  0  0
   -1.3208   -0.6167    0.0000 C   0  0  0  0  0  0  0  0  0  0  0  0
   -1.7833   -1.1375    0.0000 N   0  0  0  0  0  0  0  0  0  0  0  0
   -2.4208   -0.8542    0.0000 C   0  0  0  0  0  0  0  0  0  0  0  0
   -0.6000   -0.6167    0.0000 N   0  0  0  0  0  0  0  0  0  0  0  0
   -0.2625   -0.0000    0.0000 C   0  0  0  0  0  0  0  0  0  0  0  0
    2.9792    0.6333    0.0000 C   0  0  0  0  0  0  0  0  0  0  0  0
    2.9875   -0.5167    0.0000 C   0  0  0  0  0  0  0  0  0  0  0  0
   -1.6625   -0.0000    0.0000 S   0  0  0  0  0  0  0  0  0  0  0  0
   -2.3625   -0.1542    0.0000 C   0  0  0  0  0  0  0  0  0  0  0  0
    1.8792   -0.0000    0.0000 C   0  0  0  0  0  0  0  0  0  0  0  0
   -3.0208   -1.2542    0.0000 C   0  0  0  0  0  0  0  0  0  0  0  0
    0.4542   -0.0000    0.0000 C   0  0  0  0  0  0  0  0  0  0  0  0
   -2.9833   -1.9542    0.0000 N   0  0  0  0  0  0  0  0  0  0  0  0
   -0.6000    0.6208    0.0000 O   0  0  0  0  0  0  0  0  0  0  0  0
    3.6542    0.3833    0.0000 C   0  0  0  0  0  0  0  0  0  0  0  0
    3.6542   -0.3042    0.0000 C   0  0  0  0  0  0  0  0  0  0  0  0
    2.7292    1.3333    0.0000 O   0  0  0  0  0  0  0  0  0  0  0  0
    2.7375   -1.2042    0.0000 O   0  0  0  0  0  0  0  0  0  0  0  0
    1.5167    0.6000    0.0000 C   0  0  0  0  0  0  0  0  0  0  0  0
    1.5167   -0.6375    0.0000 C   0  0  0  0  0  0  0  0  0  0  0  0
    0.8167   -0.6375    0.0000 C   0  0  0  0  0  0  0  0  0  0  0  0
    0.8167    0.6000    0.0000 C   0  0  0  0  0  0  0  0  0  0  0  0
   -3.5625   -2.3375    0.0000 C   0  0  0  0  0  0  0  0  0  0  0  0
   -3.6458   -0.9375    0.0000 C   0  0  0  0  0  0  0  0  0  0  0  0
   -4.1833   -2.0167    0.0000 C   0  0  0  0  0  0  0  0  0  0  0  0
   -4.2208   -1.3167    0.0000 C   0  0  0  0  0  0  0  0  0  0  0  0
  2  5  1  0  0  0  0
  3  2  2  0  0  0  0
  4  3  1  0  0  0  0
  5  6  1  0  0  0  0
  6 13  1  0  0  0  0
  7  1  1  0  0  0  0
  8  1  1  0  0  0  0
  9  2  1  0  0  0  0
 10  9  1  0  0  0  0
 11  1  1  0  0  0  0
 12  4  1  0  0  0  0
 13 22  2  0  0  0  0
 14 12  1  0  0  0  0
 15  6  2  0  0  0  0
 16  7  1  0  0  0  0
 17  8  1  0  0  0  0
 18  7  2  0  0  0  0
 19  8  2  0  0  0  0
 20 11  1  0  0  0  0
 21 11  2  0  0  0  0
 22 21  1  0  0  0  0
 23 20  2  0  0  0  0
 24 14  2  0  0  0  0
 25 12  2  0  0  0  0
 26 27  2  0  0  0  0
 27 25  1  0  0  0  0
 16 17  1  0  0  0  0
 23 13  1  0  0  0  0
 10  4  2  0  0  0  0
 26 24  1  0  0  0  0
M  END
> <IDNUMBER>
F0700-0021

> <Chemical_Name>
4-(2,5-dioxopyrrolidin-1-yl)-N-[4-(pyridin-2-yl)-1,3-thiazol-2-yl]benzamide

> <CAS>
361479-24-5

> <PriceCoeff>
1.00

> <MW>
378.40

> <Description>
solid

> <FSP3>
0.11

> <clogP>
0.95

> <TPSA>
120.50

> <Acceptor>
5

> <Donor>
2

> <RotBonds>
4

> <HAC>
27

> <Collection>
General

$$$$
F9995-0575
  -ISIS-  06222321472D

 17 18  0  0  0  0  0  0  0  0999 V2000
    3.1792    1.8250    0.0000 C   0  0  0  0  0  0  0  0  0  0  0  0
    0.3500    0.1750    0.0000 C   0  0  0  0  0  0  0  0  0  0  0  0
    2.4667    1.4125    0.0000 C   0  0  0  0  0  0  0  0  0  0  0  0
    1.0375    0.5833    0.0000 C   0  0  0  0  0  0  0  0  0  0  0  0
   -0.3708    0.5833    0.0000 C   0  0  0  0  0  0  0  0  0  0  0  0
    3.9000    1.4250    0.0000 O   0  0  0  0  0  0  0  0  0  0  0  0
    1.7500    1.8250    0.0000 C   0  0  0  0  0  0  0  0  0  0  0  0
    2.4667    0.5833    0.0000 C   0  0  0  0  0  0  0  0  0  0  0  0
    1.0375    1.4125    0.0000 C   0  0  0  0  0  0  0  0  0  0  0  0
    1.7667    0.1750    0.0000 C   0  0  0  0  0  0  0  0  0  0  0  0
    3.1667    2.6583    0.0000 O   0  0  0  0  0  0  0  0  0  0  0  0
   -1.0833    0.1625    0.0000 C   0  0  0  0  0  0  0  0  0  0  0  0
   -1.7958    0.5750    0.0000 O   0  0  0  0  0  0  0  0  0  0  0  0
    0.3500   -0.6542    0.0000 C   0  0  0  0  0  0  0  0  0  0  0  0
   -0.3708   -1.0542    0.0000 C   0  0  0  0  0  0  0  0  0  0  0  0
   -1.0833   -0.6542    0.0000 C   0  0  0  0  0  0  0  0  0  0  0  0
   -1.7958    1.4083    0.0000 C   0  0  0  0  0  0  0  0  0  0  0  0
  2  4  1  0  0  0  0
  3  1  1  0  0  0  0
  4 10  2  0  0  0  0
  5  2  2  0  0  0  0
  6  1  2  0  0  0  0
  7  3  1  0  0  0  0
  8  3  2  0  0  0  0
  9  7  2  0  0  0  0
 10  8  1  0  0  0  0
 11  1  1  0  0  0  0
 12  5  1  0  0  0  0
 13 12  1  0  0  0  0
 14  2  1  0  0  0  0
 15 14  2  0  0  0  0
 16 15  1  0  0  0  0
 17 13  1  0  0  0  0
  4  9  1  0  0  0  0
 16 12  2  0  0  0  0
M  END
> <IDNUMBER>
F9995-0575

> <Chemical_Name>
3'-methoxy-[1,1'-biphenyl]-4-carboxylic acid

> <CAS>
5783-36-8

> <PriceCoeff>
1.00

> <MW>
228.24

> <Description>
solid

> <FSP3>
0.07

> <clogP>
3.74

> <TPSA>
46.53

> <Acceptor>
3

> <Donor>
0

> <RotBonds>
3

> <HAC>
17

> <Collection>
General

> <Reference_compound>
CHEMBL22425

> <Similarity>
0.8330

$$$$
F0715-0484
  -ISIS-  06222321142D

 27 30  0  0  0  0  0  0  0  0999 V2000
   -4.5500    1.2125    0.0000 N   0  0  3  0  0  0  0  0  0  0  0  0
   -1.0125    0.1333    0.0000 C   0  0  0  0  0  0  0  0  0  0  0  0
   -0.3833    0.3958    0.0000 N   0  0  0  0  0  0  0  0  0  0  0  0
   -1.5833    0.4625    0.0000 N   0  0  0  0  0  0  0  0  0  0  0  0
    0.0500   -0.1042    0.0000 C   0  0  0  0  0  0  0  0  0  0  0  0
   -2.1458    0.1333    0.0000 C   0  0  0  0  0  0  0  0  0  0  0  0
   -5.1583    0.9000    0.0000 C   0  0  0  0  0  0  0  0  0  0  0  0
   -4.6708    1.8458    0.0000 C   0  0  0  0  0  0  0  0  0  0  0  0
   -0.9500   -0.5292    0.0000 S   0  0  0  0  0  0  0  0  0  0  0  0
   -0.2958   -0.6667    0.0000 C   0  0  0  0  0  0  0  0  0  0  0  0
   -3.9708    0.9500    0.0000 C   0  0  0  0  0  0  0  0  0  0  0  0
   -2.7458    0.4000    0.0000 C   0  0  0  0  0  0  0  0  0  0  0  0
   -2.1500   -0.4875    0.0000 O   0  0  0  0  0  0  0  0  0  0  0  0
   -5.5958    1.3625    0.0000 C   0  0  0  0  0  0  0  0  0  0  0  0
   -5.3000    1.9583    0.0000 C   0  0  0  0  0  0  0  0  0  0  0  0
   -5.2458    0.2208    0.0000 O   0  0  0  0  0  0  0  0  0  0  0  0
   -4.1708    2.3000    0.0000 O   0  0  0  0  0  0  0  0  0  0  0  0
    0.7292   -0.1042    0.0000 C   0  0  0  0  0  0  0  0  0  0  0  0
    2.0500   -0.1375    0.0000 N   0  0  0  0  0  0  0  0  0  0  0  0
   -3.4125    1.3458    0.0000 C   0  0  0  0  0  0  0  0  0  0  0  0
   -3.9000    0.3000    0.0000 C   0  0  0  0  0  0  0  0  0  0  0  0
   -2.8125    1.0625    0.0000 C   0  0  0  0  0  0  0  0  0  0  0  0
   -3.2958    0.0333    0.0000 C   0  0  0  0  0  0  0  0  0  0  0  0
    1.7167    0.4625    0.0000 C   0  0  0  0  0  0  0  0  0  0  0  0
    1.7042   -0.7000    0.0000 C   0  0  0  0  0  0  0  0  0  0  0  0
    1.0542    0.4500    0.0000 C   0  0  0  0  0  0  0  0  0  0  0  0
    1.0375   -0.7000    0.0000 C   0  0  0  0  0  0  0  0  0  0  0  0
  2  4  1  0  0  0  0
  3  2  2  0  0  0  0
  4  6  1  0  0  0  0
  5  3  1  0  0  0  0
  6 12  1  0  0  0  0
  7  1  1  0  0  0  0
  8  1  1  0  0  0  0
  9  2  1  0  0  0  0
 10  9  1  0  0  0  0
 11  1  1  0  0  0  0
 12 23  1  0  0  0  0
 13  6  2  0  0  0  0
 14  7  1  0  0  0  0
 15  8  1  0  0  0  0
 16  7  2  0  0  0  0
 17  8  2  0  0  0  0
 18  5  1  0  0  0  0
 19 25  2  0  0  0  0
 20 11  2  0  0  0  0
 21 11  1  0  0  0  0
 22 20  1  0  0  0  0
 23 21  2  0  0  0  0
 24 26  2  0  0  0  0
 25 27  1  0  0  0  0
 26 18  1  0  0  0  0
 27 18  2  0  0  0  0
 15 14  1  0  0  0  0
 22 12  2  0  0  0  0
 10  5  2  0  0  0  0
 19 24  1  0  0  0  0
M  END
> <IDNUMBER>
F0715-0484

> <Chemical_Name>
4-(2,5-dioxopyrrolidin-1-yl)-N-[4-(pyridin-4-yl)-1,3-thiazol-2-yl]benzamide

> <CAS>
393839-12-8

> <PriceCoeff>
1.00

> <MW>
378.40

> <Description>
solid

> <FSP3>
0.11

> <clogP>
0.74

> <TPSA>
120.50

> <Acceptor>
5

> <Donor>
2

> <RotBonds>
4

> <HAC>
27

> <Collection>
General

$$$$
F2590-0359
  -ISIS-  06222321442D

 22 23  0  0  0  0  0  0  0  0999 V2000
   -3.8500    2.9833    0.0000 C   0  0  0  0  0  0  0  0  0  0  0  0
   -4.5208    2.4958    0.0000 C   0  0  0  0  0  0  0  0  0  0  0  0
   -1.7083    4.2125    0.0000 N   0  0  3  0  0  0  0  0  0  0  0  0
   -3.1875    2.4958    0.0000 S   0  0  0  0  0  0  0  0  0  0  0  0
   -4.2583    1.7125    0.0000 C   0  0  0  0  0  0  0  0  0  0  0  0
   -3.4458    1.7208    0.0000 C   0  0  0  0  0  0  0  0  0  0  0  0
   -3.8500    3.8000    0.0000 N   0  0  0  0  0  0  0  0  0  0  0  0
   -0.9625    3.8833    0.0000 C   0  0  0  0  0  0  0  0  0  0  0  0
   -1.6333    5.0292    0.0000 C   0  0  0  0  0  0  0  0  0  0  0  0
   -5.3000    2.7458    0.0000 C   0  0  0  0  0  0  0  0  0  0  0  0
   -3.1375    4.2042    0.0000 C   0  0  0  0  0  0  0  0  0  0  0  0
   -2.4208    3.8000    0.0000 C   0  0  0  0  0  0  0  0  0  0  0  0
   -0.4125    4.4917    0.0000 C   0  0  0  0  0  0  0  0  0  0  0  0
   -0.8333    5.2042    0.0000 C   0  0  0  0  0  0  0  0  0  0  0  0
   -0.7875    3.0833    0.0000 O   0  0  0  0  0  0  0  0  0  0  0  0
   -2.2375    5.5667    0.0000 O   0  0  0  0  0  0  0  0  0  0  0  0
   -5.9125    2.2083    0.0000 O   0  0  0  0  0  0  0  0  0  0  0  0
   -3.1375    5.0167    0.0000 O   0  0  0  0  0  0  0  0  0  0  0  0
   -5.4708    3.5583    0.0000 N   0  0  0  0  0  0  0  0  0  0  0  0
   -4.7375    1.0500    0.0000 C   0  0  0  0  0  0  0  0  0  0  0  0
   -2.9708    1.0583    0.0000 C   0  0  0  0  0  0  0  0  0  0  0  0
   -6.2292    3.8458    0.0000 C   0  0  0  0  0  0  0  0  0  0  0  0
  2  1  2  0  0  0  0
  3 12  1  0  0  0  0
  4  1  1  0  0  0  0
  5  2  1  0  0  0  0
  6  4  1  0  0  0  0
  7  1  1  0  0  0  0
  8  3  1  0  0  0  0
  9  3  1  0  0  0  0
 10  2  1  0  0  0  0
 11  7  1  0  0  0  0
 12 11  1  0  0  0  0
 13  8  1  0  0  0  0
 14  9  1  0  0  0  0
 15  8  2  0  0  0  0
 16  9  2  0  0  0  0
 17 10  2  0  0  0  0
 18 11  2  0  0  0  0
 19 10  1  0  0  0  0
 20  5  1  0  0  0  0
 21  6  1  0  0  0  0
 22 19  1  0  0  0  0
  5  6  2  0  0  0  0
 13 14  1  0  0  0  0
M  END
> <IDNUMBER>
F2590-0359

> <Chemical_Name>
2-[2-(2,5-dioxopyrrolidin-1-yl)acetamido]-N,4,5-trimethylthiophene-3-carboxamide

> <CAS>
896299-03-9

> <PriceCoeff>
1.00

> <MW>
323.37

> <Description>
solid

> <FSP3>
0.43

> <clogP>
0.40

> <TPSA>
123.82

> <Acceptor>
4

> <Donor>
2

> <RotBonds>
4

> <HAC>
22

> <Collection>
General

$$$$
F1800-0018
  -ISIS-  06222321452D

 20 21  0  0  0  0  0  0  0  0999 V2000
   -3.7583    2.3708    0.0000 N   0  0  3  0  0  0  0  0  0  0  0  0
   -3.3500    1.6500    0.0000 C   0  0  0  0  0  0  0  0  0  0  0  0
   -3.3333    3.0833    0.0000 C   0  0  0  0  0  0  0  0  0  0  0  0
   -4.9958    1.6625    0.0000 C   0  0  0  0  0  0  0  0  0  0  0  0
   -4.5833    2.3750    0.0000 C   0  0  0  0  0  0  0  0  0  0  0  0
   -4.5833    0.9500    0.0000 N   0  0  0  0  0  0  0  0  0  0  0  0
   -4.9958    0.2375    0.0000 C   0  0  0  0  0  0  0  0  0  0  0  0
   -2.1083    2.3458    0.0000 S   0  0  0  0  0  0  0  0  0  0  0  0
   -3.7375    3.8000    0.0000 O   0  0  0  0  0  0  0  0  0  0  0  0
   -3.7708    0.9375    0.0000 O   0  0  0  0  0  0  0  0  0  0  0  0
   -5.8208    1.6708    0.0000 O   0  0  0  0  0  0  0  0  0  0  0  0
   -4.9833   -1.1875    0.0000 C   0  0  0  0  0  0  0  0  0  0  0  0
   -6.2167   -0.4750    0.0000 C   0  0  0  0  0  0  0  0  0  0  0  0
   -4.5833   -0.4750    0.0000 C   0  0  0  0  0  0  0  0  0  0  0  0
   -5.8125    0.2375    0.0000 C   0  0  0  0  0  0  0  0  0  0  0  0
   -2.5333    1.6458    0.0000 C   0  0  0  0  0  0  0  0  0  0  0  0
   -2.5083    3.0625    0.0000 C   0  0  0  0  0  0  0  0  0  0  0  0
   -5.8125   -1.1917    0.0000 C   0  0  0  0  0  0  0  0  0  0  0  0
   -4.5708   -1.8917    0.0000 C   0  0  0  0  0  0  0  0  0  0  0  0
   -7.0417   -0.4667    0.0000 C   0  0  0  0  0  0  0  0  0  0  0  0
  2  1  1  0  0  0  0
  3  1  1  0  0  0  0
  4  5  1  0  0  0  0
  5  1  1  0  0  0  0
  6  4  1  0  0  0  0
  7  6  1  0  0  0  0
  8 17  1  0  0  0  0
  9  3  2  0  0  0  0
 10  2  2  0  0  0  0
 11  4  2  0  0  0  0
 12 14  2  0  0  0  0
 13 15  1  0  0  0  0
 14  7  1  0  0  0  0
 15  7  2  0  0  0  0
 16  2  1  0  0  0  0
 17  3  1  0  0  0  0
 18 13  2  0  0  0  0
 19 12  1  0  0  0  0
 20 13  1  0  0  0  0
 16  8  1  0  0  0  0
 12 18  1  0  0  0  0
M  END
> <IDNUMBER>
F1800-0018

> <Chemical_Name>
N-(3,5-dimethylphenyl)-2-(3,5-dioxothiomorpholin-4-yl)acetamide

> <CAS>
868215-09-2

> <PriceCoeff>
1.50

> <MW>
292.35

> <Description>
solid

> <FSP3>
0.36

> <clogP>
2.45

> <TPSA>
91.78

> <Acceptor>
3

> <Donor>
1

> <RotBonds>
3

> <HAC>
20

> <Collection>
Advanced

$$$$
F1800-0049
  -ISIS-  06222321452D

 20 21  0  0  0  0  0  0  0  0999 V2000
   -3.7583    2.3708    0.0000 N   0  0  3  0  0  0  0  0  0  0  0  0
   -3.3500    1.6500    0.0000 C   0  0  0  0  0  0  0  0  0  0  0  0
   -3.3333    3.0833    0.0000 C   0  0  0  0  0  0  0  0  0  0  0  0
   -4.9958    1.6708    0.0000 C   0  0  0  0  0  0  0  0  0  0  0  0
   -4.5833    2.3750    0.0000 C   0  0  0  0  0  0  0  0  0  0  0  0
   -5.8125    1.6708    0.0000 N   0  0  0  0  0  0  0  0  0  0  0  0
   -2.1083    2.3458    0.0000 S   0  0  0  0  0  0  0  0  0  0  0  0
   -3.7708    0.9375    0.0000 O   0  0  0  0  0  0  0  0  0  0  0  0
   -3.7375    3.8000    0.0000 O   0  0  0  0  0  0  0  0  0  0  0  0
   -6.2167    0.9583    0.0000 C   0  0  0  0  0  0  0  0  0  0  0  0
   -4.5958    0.9500    0.0000 O   0  0  0  0  0  0  0  0  0  0  0  0
   -7.0417    0.9708    0.0000 C   0  0  0  0  0  0  0  0  0  0  0  0
   -2.5083    3.0625    0.0000 C   0  0  0  0  0  0  0  0  0  0  0  0
   -2.5333    1.6458    0.0000 C   0  0  0  0  0  0  0  0  0  0  0  0
   -7.4667    0.2583    0.0000 C   0  0  0  0  0  0  0  0  0  0  0  0
   -8.2917    0.2708    0.0000 O   0  0  0  0  0  0  0  0  0  0  0  0
   -6.2417   -0.4667    0.0000 C   0  0  0  0  0  0  0  0  0  0  0  0
   -5.8208    0.2375    0.0000 C   0  0  0  0  0  0  0  0  0  0  0  0
   -7.0625   -0.4625    0.0000 C   0  0  0  0  0  0  0  0  0  0  0  0
   -8.6917    0.9833    0.0000 C   0  0  0  0  0  0  0  0  0  0  0  0
  2  1  1  0  0  0  0
  3  1  1  0  0  0  0
  4  5  1  0  0  0  0
  5  1  1  0  0  0  0
  6  4  1  0  0  0  0
  7 13  1  0  0  0  0
  8  2  2  0  0  0  0
  9  3  2  0  0  0  0
 10  6  1  0  0  0  0
 11  4  2  0  0  0  0
 12 10  2  0  0  0  0
 13  3  1  0  0  0  0
 14  2  1  0  0  0  0
 15 12  1  0  0  0  0
 16 15  1  0  0  0  0
 17 18  2  0  0  0  0
 18 10  1  0  0  0  0
 19 17  1  0  0  0  0
 20 16  1  0  0  0  0
 14  7  1  0  0  0  0
 19 15  2  0  0  0  0
M  END
> <IDNUMBER>
F1800-0049

> <Chemical_Name>
2-(3,5-dioxothiomorpholin-4-yl)-N-(3-methoxyphenyl)acetamide

> <CAS>
868215-18-3

> <PriceCoeff>
1.00

> <MW>
294.33

> <Description>
solid

> <FSP3>
0.31

> <clogP>
1.53

> <TPSA>
101.01

> <Acceptor>
4

> <Donor>
1

> <RotBonds>
4

> <HAC>
20

> <Collection>
General

$$$$
F1800-0182
  -ISIS-  06222321142D

 21 22  0  0  0  0  0  0  0  0999 V2000
   -3.7250    2.3000    0.0000 N   0  0  3  0  0  0  0  0  0  0  0  0
   -3.3500    2.9583    0.0000 C   0  0  0  0  0  0  0  0  0  0  0  0
   -3.3500    1.6583    0.0000 C   0  0  0  0  0  0  0  0  0  0  0  0
   -2.2250    2.3000    0.0000 S   0  0  0  0  0  0  0  0  0  0  0  0
   -4.8500    2.9458    0.0000 C   0  0  0  0  0  0  0  0  0  0  0  0
   -4.4750    2.3000    0.0000 C   0  0  0  0  0  0  0  0  0  0  0  0
   -2.6000    2.9583    0.0000 C   0  0  3  0  0  0  0  0  0  0  0  0
   -5.6000    2.9458    0.0000 N   0  0  0  0  0  0  0  0  0  0  0  0
   -2.6000    1.6583    0.0000 C   0  0  0  0  0  0  0  0  0  0  0  0
   -3.7333    3.6083    0.0000 O   0  0  0  0  0  0  0  0  0  0  0  0
   -3.7333    1.0000    0.0000 O   0  0  0  0  0  0  0  0  0  0  0  0
   -5.9750    3.5958    0.0000 C   0  0  0  0  0  0  0  0  0  0  0  0
   -4.4750    3.5958    0.0000 O   0  0  0  0  0  0  0  0  0  0  0  0
   -6.7167    3.5958    0.0000 C   0  0  0  0  0  0  0  0  0  0  0  0
   -7.0917    4.2292    0.0000 C   0  0  0  0  0  0  0  0  0  0  0  0
   -7.8417    4.2292    0.0000 O   0  0  0  0  0  0  0  0  0  0  0  0
   -5.9750    4.8917    0.0000 C   0  0  0  0  0  0  0  0  0  0  0  0
   -5.6000    4.2417    0.0000 C   0  0  0  0  0  0  0  0  0  0  0  0
   -2.2208    3.6083    0.0000 C   0  0  0  0  0  0  0  0  0  0  0  0
   -6.7167    4.8917    0.0000 C   0  0  0  0  0  0  0  0  0  0  0  0
   -8.2292    4.8667    0.0000 C   0  0  0  0  0  0  0  0  0  0  0  0
  2  1  1  0  0  0  0
  3  1  1  0  0  0  0
  4  9  1  0  0  0  0
  5  6  1  0  0  0  0
  6  1  1  0  0  0  0
  7  2  1  0  0  0  0
  8  5  1  0  0  0  0
  9  3  1  0  0  0  0
 10  2  2  0  0  0  0
 11  3  2  0  0  0  0
 12  8  1  0  0  0  0
 13  5  2  0  0  0  0
 14 12  2  0  0  0  0
 15 14  1  0  0  0  0
 16 15  1  0  0  0  0
 17 18  2  0  0  0  0
 18 12  1  0  0  0  0
 19  7  1  0  0  0  0
 20 17  1  0  0  0  0
 21 16  1  0  0  0  0
  7  4  1  0  0  0  0
 20 15  2  0  0  0  0
M  END
> <IDNUMBER>
F1800-0182

> <Chemical_Name>
N-(3-methoxyphenyl)-2-(2-methyl-3,5-dioxothiomorpholin-4-yl)acetamide

> <CAS>
868216-03-9

> <PriceCoeff>
1.00

> <MW>
308.35

> <Description>
solid

> <FSP3>
0.36

> <clogP>
2.05

> <TPSA>
101.01

> <Acceptor>
4

> <Donor>
1

> <RotBonds>
4

> <HAC>
21

> <Collection>
General

$$$$
F1175-0181
  -ISIS-  06222321452D

 19 20  0  0  0  0  0  0  0  0999 V2000
    1.1917    1.4000    0.0000 N   0  3  0  0  0  0  0  0  0  0  0  0
    4.8500    3.5000    0.0000 C   0  0  0  0  0  0  0  0  0  0  0  0
    6.0625    4.1917    0.0000 C   0  0  0  0  0  0  0  0  0  0  0  0
    3.6167    4.2042    0.0000 C   0  0  0  0  0  0  0  0  0  0  0  0
    2.4250    2.1000    0.0000 C   0  0  0  0  0  0  0  0  0  0  0  0
    2.4250    3.5000    0.0000 C   0  0  0  0  0  0  0  0  0  0  0  0
    4.8500    2.1000    0.0000 C   0  0  0  0  0  0  0  0  0  0  0  0
    7.2792    3.5000    0.0000 N   0  0  0  0  0  0  0  0  0  0  0  0
    0.0000    2.1000    0.0000 O   0  5  0  0  0  0  0  0  0  0  0  0
    1.1917   -0.0000    0.0000 O   0  0  0  0  0  0  0  0  0  0  0  0
    3.6167    1.4000    0.0000 C   0  0  0  0  0  0  0  0  0  0  0  0
    6.0625    5.5917    0.0000 O   0  0  0  0  0  0  0  0  0  0  0  0
    9.8417    2.1083    0.0000 O   0  0  0  0  0  0  0  0  0  0  0  0
    3.6167    5.6042    0.0000 Cl  0  0  0  0  0  0  0  0  0  0  0  0
    8.4917    4.1917    0.0000 C   0  0  0  0  0  0  0  0  0  0  0  0
    9.7042    3.5000    0.0000 C   0  0  3  0  0  0  0  0  0  0  0  0
   11.2042    1.8208    0.0000 C   0  0  0  0  0  0  0  0  0  0  0  0
   10.9667    4.0667    0.0000 C   0  0  0  0  0  0  0  0  0  0  0  0
   11.9167    3.0333    0.0000 C   0  0  0  0  0  0  0  0  0  0  0  0
  2  7  2  0  0  0  0
  3  2  1  0  0  0  0
  4  6  2  0  0  0  0
  5  1  1  0  0  0  0
  6  5  1  0  0  0  0
  7 11  1  0  0  0  0
  8  3  1  0  0  0  0
  9  1  1  0  0  0  0
 10  1  2  0  0  0  0
 11  5  2  0  0  0  0
 12  3  2  0  0  0  0
 13 16  1  0  0  0  0
 14  4  1  0  0  0  0
 15  8  1  0  0  0  0
 16 15  1  0  0  0  0
 17 13  1  0  0  0  0
 18 16  1  0  0  0  0
 19 18  1  0  0  0  0
  2  4  1  0  0  0  0
 17 19  1  0  0  0  0
M  CHG  2   1   1   9  -1
M  END
> <IDNUMBER>
F1175-0181

> <Chemical_Name>
2-chloro-4-nitro-N-[(oxolan-2-yl)methyl]benzamide

> <CAS>
314028-93-8

> <PriceCoeff>
1.00

> <MW>
284.70

> <Description>
solid

> <FSP3>
0.42

> <clogP>
1.63

> <TPSA>
81.47

> <Acceptor>
4

> <Donor>
1

> <RotBonds>
4

> <HAC>
19

> <Collection>
General

$$$$
F6412-1869
  -ISIS-  06222321462D

 26 27  0  0  0  0  0  0  0  0999 V2000
   -4.6750    2.5833    0.0000 N   0  0  3  0  0  0  0  0  0  0  0  0
   -6.6708    9.5875    0.0000 C   0  0  3  0  0  0  0  0  0  0  0  0
   -5.4208    2.9833    0.0000 C   0  0  0  0  0  0  0  0  0  0  0  0
   -4.8125    1.7625    0.0000 C   0  0  0  0  0  0  0  0  0  0  0  0
   -3.9250    2.9583    0.0000 C   0  0  0  0  0  0  0  0  0  0  0  0
   -6.6792    8.7667    0.0000 C   0  0  0  0  0  0  0  0  0  0  0  0
   -3.8583    5.4500    0.0000 C   0  0  0  0  0  0  0  0  0  0  0  0
   -4.5708    5.8667    0.0000 C   0  0  0  0  0  0  0  0  0  0  0  0
   -3.8708    3.8000    0.0000 C   0  0  0  0  0  0  0  0  0  0  0  0
   -6.0167    2.3917    0.0000 C   0  0  0  0  0  0  0  0  0  0  0  0
   -5.6458    1.6333    0.0000 C   0  0  0  0  0  0  0  0  0  0  0  0
   -5.5458    3.8083    0.0000 O   0  0  0  0  0  0  0  0  0  0  0  0
   -4.2250    1.1708    0.0000 O   0  0  0  0  0  0  0  0  0  0  0  0
   -5.9750    8.3500    0.0000 C   0  0  0  0  0  0  0  0  0  0  0  0
   -4.4667    4.0875    0.0000 O   0  0  0  0  0  0  0  0  0  0  0  0
   -7.3792   10.0083    0.0000 F   0  0  0  0  0  0  0  0  0  0  0  0
   -6.6667   10.4167    0.0000 F   0  0  0  0  0  0  0  0  0  0  0  0
   -5.9667    9.9917    0.0000 F   0  0  0  0  0  0  0  0  0  0  0  0
   -3.1583    4.2042    0.0000 N   0  0  0  0  0  0  0  0  0  0  0  0
   -5.9833    7.5292    0.0000 C   0  0  0  0  0  0  0  0  0  0  0  0
   -3.1583    5.0333    0.0000 C   0  0  0  0  0  0  0  0  0  0  0  0
   -5.2833    6.2792    0.0000 C   0  0  0  0  0  0  0  0  0  0  0  0
   -5.2708    7.1042    0.0000 O   0  0  0  0  0  0  0  0  0  0  0  0
   -7.3917    8.3542    0.0000 C   0  0  0  0  0  0  0  0  0  0  0  0
   -7.3917    7.5250    0.0000 C   0  0  0  0  0  0  0  0  0  0  0  0
   -6.6875    7.1167    0.0000 C   0  0  0  0  0  0  0  0  0  0  0  0
  2  6  1  0  0  0  0
  3  1  1  0  0  0  0
  4  1  1  0  0  0  0
  5  1  1  0  0  0  0
  6 14  1  0  0  0  0
  7 21  1  0  0  0  0
  8  7  3  0  0  0  0
  9  5  1  0  0  0  0
 10  3  1  0  0  0  0
 11  4  1  0  0  0  0
 12  3  2  0  0  0  0
 13  4  2  0  0  0  0
 14 20  2  0  0  0  0
 15  9  2  0  0  0  0
 16  2  1  0  0  0  0
 17  2  1  0  0  0  0
 18  2  1  0  0  0  0
 19  9  1  0  0  0  0
 20 23  1  0  0  0  0
 21 19  1  0  0  0  0
 22  8  1  0  0  0  0
 23 22  1  0  0  0  0
 24 25  1  0  0  0  0
 25 26  2  0  0  0  0
 26 20  1  0  0  0  0
 10 11  1  0  0  0  0
  6 24  2  0  0  0  0
M  END
> <IDNUMBER>
F6412-1869

> <Chemical_Name>
2-(2,5-dioxopyrrolidin-1-yl)-N-{4-[3-(trifluoromethyl)phenoxy]but-2-yn-1-yl}acetamide

> <CAS>
1421496-94-7

> <PriceCoeff>
1.00

> <MW>
368.31

> <Description>
solid

> <FSP3>
0.35

> <clogP>
2.75

> <TPSA>
75.71

> <Acceptor>
4

> <Donor>
1

> <RotBonds>
6

> <HAC>
26

> <Collection>
General

$$$$
F3023-0956
  -ISIS-  06222321152D

 23 25  0  0  0  0  0  0  0  0999 V2000
    3.5375   -6.4542    0.0000 N   0  0  3  0  0  0  0  0  0  0  0  0
    3.9542   -7.0250    0.0000 C   0  0  0  0  0  0  0  0  0  0  0  0
    3.9542   -5.8792    0.0000 C   0  0  0  0  0  0  0  0  0  0  0  0
    4.6292   -6.8042    0.0000 C   0  0  3  0  0  0  0  0  0  0  0  0
    4.6292   -6.0917    0.0000 C   0  0  0  0  0  0  0  0  0  0  0  0
    7.7917   -6.0625    0.0000 N   0  0  3  0  0  0  0  0  0  0  0  0
    5.2042   -7.2167    0.0000 N   0  0  0  0  0  0  0  0  0  0  0  0
    7.1417   -6.3542    0.0000 C   0  0  0  0  0  0  0  0  0  0  0  0
    3.7417   -7.7000    0.0000 O   0  0  0  0  0  0  0  0  0  0  0  0
    3.7292   -5.2042    0.0000 O   0  0  0  0  0  0  0  0  0  0  0  0
    9.0917   -5.4875    0.0000 O   0  0  0  0  0  0  0  0  0  0  0  0
    7.0750   -7.0542    0.0000 C   0  0  0  0  0  0  0  0  0  0  0  0
    6.5667   -5.9375    0.0000 C   0  0  0  0  0  0  0  0  0  0  0  0
    5.8542   -6.9292    0.0000 C   0  0  0  0  0  0  0  0  0  0  0  0
    2.8292   -6.4542    0.0000 C   0  0  0  0  0  0  0  0  0  0  0  0
    6.4250   -7.3417    0.0000 C   0  0  0  0  0  0  0  0  0  0  0  0
    5.9167   -6.2250    0.0000 C   0  0  0  0  0  0  0  0  0  0  0  0
    8.3667   -6.4792    0.0000 C   0  0  0  0  0  0  0  0  0  0  0  0
    7.8667   -5.3542    0.0000 C   0  0  0  0  0  0  0  0  0  0  0  0
    8.5167   -5.0667    0.0000 C   0  0  0  0  0  0  0  0  0  0  0  0
    9.0167   -6.1917    0.0000 C   0  0  0  0  0  0  0  0  0  0  0  0
    2.4750   -5.8417    0.0000 C   0  0  0  0  0  0  0  0  0  0  0  0
    1.7625   -5.8500    0.0000 C   0  0  0  0  0  0  0  0  0  0  0  0
  2  1  1  0  0  0  0
  3  1  1  0  0  0  0
  4  2  1  0  0  0  0
  5  3  1  0  0  0  0
  6  8  1  0  0  0  0
  7  4  1  0  0  0  0
  8 13  1  0  0  0  0
  9  2  2  0  0  0  0
 10  3  2  0  0  0  0
 11 20  1  0  0  0  0
 12 16  1  0  0  0  0
 13 17  2  0  0  0  0
 14  7  1  0  0  0  0
 15  1  1  0  0  0  0
 16 14  2  0  0  0  0
 17 14  1  0  0  0  0
 18  6  1  0  0  0  0
 19  6  1  0  0  0  0
 20 19  1  0  0  0  0
 21 18  1  0  0  0  0
 22 15  1  0  0  0  0
 23 22  1  0  0  0  0
  5  4  1  0  0  0  0
  8 12  2  0  0  0  0
 11 21  1  0  0  0  0
M  END
> <IDNUMBER>
F3023-0956

> <Chemical_Name>
3-{[4-(morpholin-4-yl)phenyl]amino}-1-propylpyrrolidine-2,5-dione

> <CAS>
1009262-62-7

> <PriceCoeff>
1.00

> <MW>
317.38

> <Description>
solid

> <FSP3>
0.53

> <clogP>
2.17

> <TPSA>
61.88

> <Acceptor>
5

> <Donor>
2

> <RotBonds>
5

> <HAC>
23

> <Collection>
General

$$$$
F0440-0406
  -ISIS-  06222321142D

 18 19  0  0  0  0  0  0  0  0999 V2000
   -0.3958    0.1125    0.0000 N   0  0  3  0  0  0  0  0  0  0  0  0
   -0.1000    0.2500    0.0000 C   0  0  0  0  0  0  0  0  0  0  0  0
   -0.3458   -0.2000    0.0000 C   0  0  0  0  0  0  0  0  0  0  0  0
   -0.6958    0.5708    0.0000 C   0  0  0  0  0  0  0  0  0  0  0  0
   -0.6708    0.2500    0.0000 C   0  0  0  0  0  0  0  0  0  0  0  0
   -0.9708    0.7333    0.0000 N   0  0  0  0  0  0  0  0  0  0  0  0
    0.1000    0.0208    0.0000 C   0  0  0  0  0  0  0  0  0  0  0  0
   -0.0458   -0.2500    0.0000 C   0  0  0  0  0  0  0  0  0  0  0  0
   -0.0625    0.5833    0.0000 O   0  0  0  0  0  0  0  0  0  0  0  0
   -0.5833   -0.4000    0.0000 O   0  0  0  0  0  0  0  0  0  0  0  0
   -0.4333    0.7500    0.0000 O   0  0  0  0  0  0  0  0  0  0  0  0
   -0.9958    1.0333    0.0000 C   0  0  0  0  0  0  0  0  0  0  0  0
   -1.0333    1.6708    0.0000 C   0  0  0  0  0  0  0  0  0  0  0  0
   -1.0500    1.9958    0.0000 Br  0  0  0  0  0  0  0  0  0  0  0  0
   -1.2708    1.1958    0.0000 C   0  0  0  0  0  0  0  0  0  0  0  0
   -0.7333    1.2125    0.0000 C   0  0  0  0  0  0  0  0  0  0  0  0
   -1.2958    1.4958    0.0000 C   0  0  0  0  0  0  0  0  0  0  0  0
   -0.7500    1.5333    0.0000 C   0  0  0  0  0  0  0  0  0  0  0  0
  2  1  1  0  0  0  0
  3  1  1  0  0  0  0
  4  5  1  0  0  0  0
  5  1  1  0  0  0  0
  6  4  1  0  0  0  0
  7  2  1  0  0  0  0
  8  3  1  0  0  0  0
  9  2  2  0  0  0  0
 10  3  2  0  0  0  0
 11  4  2  0  0  0  0
 12  6  1  0  0  0  0
 13 18  2  0  0  0  0
 14 13  1  0  0  0  0
 15 12  1  0  0  0  0
 16 12  2  0  0  0  0
 17 15  2  0  0  0  0
 18 16  1  0  0  0  0
  8  7  1  0  0  0  0
 13 17  1  0  0  0  0
M  END
> <IDNUMBER>
F0440-0406

> <Chemical_Name>
N-(4-bromophenyl)-2-(2,5-dioxopyrrolidin-1-yl)acetamide

> <CAS>
476308-87-9

> <PriceCoeff>
1.00

> <MW>
311.13

> <Description>
solid

> <FSP3>
0.25

> <clogP>
1.73

> <TPSA>
66.48

> <Acceptor>
3

> <Donor>
1

> <RotBonds>
3

> <HAC>
18

> <Collection>
General

$$$$
F1800-0181
  -ISIS-  06222321142D

 21 22  0  0  0  0  0  0  0  0999 V2000
   -3.7250    2.3000    0.0000 N   0  0  3  0  0  0  0  0  0  0  0  0
   -3.3500    2.9583    0.0000 C   0  0  0  0  0  0  0  0  0  0  0  0
   -3.3500    1.6583    0.0000 C   0  0  0  0  0  0  0  0  0  0  0  0
   -2.2250    2.3000    0.0000 S   0  0  0  0  0  0  0  0  0  0  0  0
   -4.8500    2.9458    0.0000 C   0  0  0  0  0  0  0  0  0  0  0  0
   -4.4750    2.3000    0.0000 C   0  0  0  0  0  0  0  0  0  0  0  0
   -5.6000    2.9458    0.0000 N   0  0  0  0  0  0  0  0  0  0  0  0
   -2.6000    2.9583    0.0000 C   0  0  3  0  0  0  0  0  0  0  0  0
   -5.9750    3.5958    0.0000 C   0  0  0  0  0  0  0  0  0  0  0  0
   -2.6000    1.6583    0.0000 C   0  0  0  0  0  0  0  0  0  0  0  0
   -3.7333    3.6083    0.0000 O   0  0  0  0  0  0  0  0  0  0  0  0
   -3.7333    1.0000    0.0000 O   0  0  0  0  0  0  0  0  0  0  0  0
   -4.4750    3.5958    0.0000 O   0  0  0  0  0  0  0  0  0  0  0  0
   -6.7167    3.5958    0.0000 C   0  0  0  0  0  0  0  0  0  0  0  0
   -7.1042    2.9375    0.0000 O   0  0  0  0  0  0  0  0  0  0  0  0
   -5.6000    4.2292    0.0000 C   0  0  0  0  0  0  0  0  0  0  0  0
   -2.2208    3.6083    0.0000 C   0  0  0  0  0  0  0  0  0  0  0  0
   -7.0917    4.2292    0.0000 C   0  0  0  0  0  0  0  0  0  0  0  0
   -6.7292    2.2833    0.0000 C   0  0  0  0  0  0  0  0  0  0  0  0
   -5.9750    4.8875    0.0000 C   0  0  0  0  0  0  0  0  0  0  0  0
   -6.7167    4.8875    0.0000 C   0  0  0  0  0  0  0  0  0  0  0  0
  2  1  1  0  0  0  0
  3  1  1  0  0  0  0
  4 10  1  0  0  0  0
  5  6  1  0  0  0  0
  6  1  1  0  0  0  0
  7  5  1  0  0  0  0
  8  2  1  0  0  0  0
  9  7  1  0  0  0  0
 10  3  1  0  0  0  0
 11  2  2  0  0  0  0
 12  3  2  0  0  0  0
 13  5  2  0  0  0  0
 14  9  2  0  0  0  0
 15 14  1  0  0  0  0
 16  9  1  0  0  0  0
 17  8  1  0  0  0  0
 18 14  1  0  0  0  0
 19 15  1  0  0  0  0
 20 16  2  0  0  0  0
 21 20  1  0  0  0  0
  8  4  1  0  0  0  0
 21 18  2  0  0  0  0
M  END
> <IDNUMBER>
F1800-0181

> <Chemical_Name>
N-(2-methoxyphenyl)-2-(2-methyl-3,5-dioxothiomorpholin-4-yl)acetamide

> <CAS>
868216-02-8

> <PriceCoeff>
1.00

> <MW>
308.35

> <Description>
solid

> <FSP3>
0.36

> <clogP>
1.46

> <TPSA>
101.01

> <Acceptor>
4

> <Donor>
1

> <RotBonds>
4

> <HAC>
21

> <Collection>
General

$$$$
F2156-0041
  -ISIS-  06222321462D

 17 18  0  0  0  0  0  0  0  0999 V2000
    0.4292    0.3500    0.0000 C   0  0  0  0  0  0  0  0  0  0  0  0
   -0.2750   -0.8917    0.0000 N   0  0  3  0  0  0  0  0  0  0  0  0
   -0.2833    0.7583    0.0000 C   0  0  0  0  0  0  0  0  0  0  0  0
    0.4375   -0.4792    0.0000 C   0  0  0  0  0  0  0  0  0  0  0  0
   -0.9958    0.3458    0.0000 C   0  0  0  0  0  0  0  0  0  0  0  0
   -0.9958   -0.4792    0.0000 C   0  0  0  0  0  0  0  0  0  0  0  0
    1.1417    0.7708    0.0000 C   0  0  0  0  0  0  0  0  0  0  0  0
   -0.2875    1.5833    0.0000 O   0  0  0  0  0  0  0  0  0  0  0  0
   -1.7083   -0.9000    0.0000 C   0  0  0  0  0  0  0  0  0  0  0  0
    1.1417    1.5958    0.0000 O   0  0  0  0  0  0  0  0  0  0  0  0
   -0.2750   -1.7167    0.0000 C   0  0  0  0  0  0  0  0  0  0  0  0
   -1.7083    0.7583    0.0000 C   0  0  0  0  0  0  0  0  0  0  0  0
    1.8625    0.3583    0.0000 O   0  0  0  0  0  0  0  0  0  0  0  0
   -1.7083   -1.7250    0.0000 F   0  0  0  0  0  0  0  0  0  0  0  0
   -2.4208    0.3375    0.0000 C   0  0  0  0  0  0  0  0  0  0  0  0
   -2.4208   -0.4875    0.0000 C   0  0  0  0  0  0  0  0  0  0  0  0
    0.4417   -2.1292    0.0000 C   0  0  0  0  0  0  0  0  0  0  0  0
  2  4  1  0  0  0  0
  3  1  1  0  0  0  0
  4  1  2  0  0  0  0
  5  3  1  0  0  0  0
  6  2  1  0  0  0  0
  7  1  1  0  0  0  0
  8  3  2  0  0  0  0
  9  6  2  0  0  0  0
 10  7  2  0  0  0  0
 11  2  1  0  0  0  0
 12  5  2  0  0  0  0
 13  7  1  0  0  0  0
 14  9  1  0  0  0  0
 15 12  1  0  0  0  0
 16  9  1  0  0  0  0
 17 11  1  0  0  0  0
  6  5  1  0  0  0  0
 16 15  2  0  0  0  0
M  END
> <IDNUMBER>
F2156-0041

> <Chemical_Name>
1-ethyl-8-fluoro-4-oxo-1,4-dihydroquinoline-3-carboxylic acid

> <CAS>
1018135-10-8

> <PriceCoeff>
1.50

> <MW>
235.21

> <Description>
solid

> <FSP3>
0.17

> <clogP>
1.93

> <TPSA>
57.61

> <Acceptor>
4

> <Donor>
1

> <RotBonds>
2

> <HAC>
17

> <Collection>
Advanced

> <Reference_compound>
CHEMBL8

> <Similarity>
0.8390

$$$$
F6414-3116
  -ISIS-  06222321152D

 25 26  0  0  0  0  0  0  0  0999 V2000
   -4.5833    3.8000    0.0000 C   0  0  0  0  0  0  0  0  0  0  0  0
   -3.8625    4.2125    0.0000 N   0  0  0  0  0  0  0  0  0  0  0  0
   -2.4375    6.6917    0.0000 C   0  0  0  0  0  0  0  0  0  0  0  0
   -3.1583    6.2667    0.0000 C   0  0  0  0  0  0  0  0  0  0  0  0
   -2.4375    7.5167    0.0000 C   0  0  0  0  0  0  0  0  0  0  0  0
   -4.5833    2.9792    0.0000 C   0  0  3  0  0  0  0  0  0  0  0  0
   -5.3000    2.5583    0.0000 O   0  0  0  0  0  0  0  0  0  0  0  0
   -3.1500    7.9292    0.0000 C   0  0  0  0  0  0  0  0  0  0  0  0
   -5.2958    4.2042    0.0000 O   0  0  0  0  0  0  0  0  0  0  0  0
   -3.8625    5.0292    0.0000 C   0  0  0  0  0  0  0  0  0  0  0  0
   -3.8750    6.6875    0.0000 C   0  0  0  0  0  0  0  0  0  0  0  0
   -3.8708    7.5167    0.0000 C   0  0  0  0  0  0  0  0  0  0  0  0
   -3.1500    5.4500    0.0000 C   0  0  3  0  0  0  0  0  0  0  0  0
   -5.3083    1.7333    0.0000 C   0  0  0  0  0  0  0  0  0  0  0  0
   -1.7208    7.9250    0.0000 O   0  0  0  0  0  0  0  0  0  0  0  0
   -3.1583    8.7583    0.0000 O   0  0  0  0  0  0  0  0  0  0  0  0
   -2.4333    5.0417    0.0000 O   0  0  0  0  0  0  0  0  0  0  0  0
   -3.8750    2.5583    0.0000 C   0  0  0  0  0  0  0  0  0  0  0  0
   -4.5958    1.3208    0.0000 C   0  0  0  0  0  0  0  0  0  0  0  0
   -6.0125    1.3250    0.0000 C   0  0  0  0  0  0  0  0  0  0  0  0
   -1.7125    8.7542    0.0000 C   0  0  0  0  0  0  0  0  0  0  0  0
   -2.4250    9.1667    0.0000 C   0  0  0  0  0  0  0  0  0  0  0  0
   -6.0167    0.5083    0.0000 C   0  0  0  0  0  0  0  0  0  0  0  0
   -4.5958    0.4958    0.0000 C   0  0  0  0  0  0  0  0  0  0  0  0
   -5.2958    0.0875    0.0000 C   0  0  0  0  0  0  0  0  0  0  0  0
  2  1  1  0  0  0  0
  3  4  2  0  0  0  0
  4 13  1  0  0  0  0
  5  3  1  0  0  0  0
  6  1  1  0  0  0  0
  7  6  1  0  0  0  0
  8 12  1  0  0  0  0
  9  1  2  0  0  0  0
 10  2  1  0  0  0  0
 11  4  1  0  0  0  0
 12 11  2  0  0  0  0
 13 10  1  0  0  0  0
 14  7  1  0  0  0  0
 15  5  1  0  0  0  0
 16  8  1  0  0  0  0
 17 13  1  0  0  0  0
 18  6  1  0  0  0  0
 19 14  2  0  0  0  0
 20 14  1  0  0  0  0
 21 15  1  0  0  0  0
 22 16  1  0  0  0  0
 23 20  2  0  0  0  0
 24 19  1  0  0  0  0
 25 23  1  0  0  0  0
 24 25  2  0  0  0  0
  8  5  2  0  0  0  0
M  END
> <IDNUMBER>
F6414-3116

> <Chemical_Name>
N-[2-(3,4-dimethoxyphenyl)-2-hydroxyethyl]-2-phenoxypropanamide

> <CAS>
1797300-08-3

> <PriceCoeff>
1.00

> <MW>
345.39

> <Description>
solid

> <FSP3>
0.32

> <clogP>
2.03

> <TPSA>
77.02

> <Acceptor>
5

> <Donor>
2

> <RotBonds>
8

> <HAC>
25

> <Collection>
General

> <Reference_compound>
CHEMBL552027

> <Similarity>
0.8080

$$$$
F1800-0169
  -ISIS-  06222321452D

 21 22  0  0  0  0  0  0  0  0999 V2000
   -3.7250    2.3000    0.0000 N   0  0  3  0  0  0  0  0  0  0  0  0
   -3.3500    2.9583    0.0000 C   0  0  0  0  0  0  0  0  0  0  0  0
   -3.3500    1.6583    0.0000 C   0  0  0  0  0  0  0  0  0  0  0  0
   -2.2250    2.3000    0.0000 S   0  0  0  0  0  0  0  0  0  0  0  0
   -4.4750    2.3000    0.0000 C   0  0  0  0  0  0  0  0  0  0  0  0
   -4.8500    2.9458    0.0000 C   0  0  0  0  0  0  0  0  0  0  0  0
   -2.6000    2.9583    0.0000 C   0  0  3  0  0  0  0  0  0  0  0  0
   -2.6000    1.6583    0.0000 C   0  0  0  0  0  0  0  0  0  0  0  0
   -5.6000    2.9458    0.0000 N   0  0  0  0  0  0  0  0  0  0  0  0
   -3.7333    3.6083    0.0000 O   0  0  0  0  0  0  0  0  0  0  0  0
   -3.7333    1.0000    0.0000 O   0  0  0  0  0  0  0  0  0  0  0  0
   -4.4750    3.5958    0.0000 O   0  0  0  0  0  0  0  0  0  0  0  0
   -5.9750    3.5958    0.0000 C   0  0  0  0  0  0  0  0  0  0  0  0
   -6.7167    4.8917    0.0000 C   0  0  0  0  0  0  0  0  0  0  0  0
   -5.6000    4.2417    0.0000 C   0  0  0  0  0  0  0  0  0  0  0  0
   -6.7167    3.5958    0.0000 C   0  0  0  0  0  0  0  0  0  0  0  0
   -5.9750    4.8917    0.0000 C   0  0  0  0  0  0  0  0  0  0  0  0
   -7.0917    4.2292    0.0000 C   0  0  0  0  0  0  0  0  0  0  0  0
   -2.2208    3.6083    0.0000 C   0  0  0  0  0  0  0  0  0  0  0  0
   -7.0917    5.5417    0.0000 C   0  0  0  0  0  0  0  0  0  0  0  0
   -7.8542    5.5542    0.0000 C   0  0  0  0  0  0  0  0  0  0  0  0
  2  1  1  0  0  0  0
  3  1  1  0  0  0  0
  4  8  1  0  0  0  0
  5  1  1  0  0  0  0
  6  5  1  0  0  0  0
  7  2  1  0  0  0  0
  8  3  1  0  0  0  0
  9  6  1  0  0  0  0
 10  2  2  0  0  0  0
 11  3  2  0  0  0  0
 12  6  2  0  0  0  0
 13  9  1  0  0  0  0
 14 18  2  0  0  0  0
 15 13  1  0  0  0  0
 16 13  2  0  0  0  0
 17 15  2  0  0  0  0
 18 16  1  0  0  0  0
 19  7  1  0  0  0  0
 20 14  1  0  0  0  0
 21 20  1  0  0  0  0
  7  4  1  0  0  0  0
 17 14  1  0  0  0  0
M  END
> <IDNUMBER>
F1800-0169

> <Chemical_Name>
N-(4-ethylphenyl)-2-(2-methyl-3,5-dioxothiomorpholin-4-yl)acetamide

> <CAS>
868215-90-1

> <PriceCoeff>
1.00

> <MW>
306.38

> <Description>
solid

> <FSP3>
0.40

> <clogP>
3.00

> <TPSA>
91.78

> <Acceptor>
3

> <Donor>
1

> <RotBonds>
4

> <HAC>
21

> <Collection>
General

$$$$
F3023-0406
  -ISIS-  06222321462D

 19 20  0  0  0  0  0  0  0  0999 V2000
    9.9542   -6.1542    0.0000 N   0  0  3  0  0  0  0  0  0  0  0  0
    9.5375   -5.5750    0.0000 C   0  0  0  0  0  0  0  0  0  0  0  0
    9.5292   -6.7375    0.0000 C   0  0  0  0  0  0  0  0  0  0  0  0
    8.8500   -6.5042    0.0000 C   0  0  3  0  0  0  0  0  0  0  0  0
    8.8542   -5.7917    0.0000 C   0  0  0  0  0  0  0  0  0  0  0  0
    8.2667   -6.9292    0.0000 N   0  0  0  0  0  0  0  0  0  0  0  0
    9.7625   -4.8917    0.0000 O   0  0  0  0  0  0  0  0  0  0  0  0
    9.7500   -7.4167    0.0000 O   0  0  0  0  0  0  0  0  0  0  0  0
   10.6750   -6.1625    0.0000 C   0  0  3  0  0  0  0  0  0  0  0  0
    7.6167   -6.6292    0.0000 C   0  0  0  0  0  0  0  0  0  0  0  0
    6.3167   -6.0417    0.0000 C   0  0  0  0  0  0  0  0  0  0  0  0
    7.5500   -5.9167    0.0000 C   0  0  0  0  0  0  0  0  0  0  0  0
    7.0417   -7.0500    0.0000 C   0  0  0  0  0  0  0  0  0  0  0  0
    6.3875   -6.7542    0.0000 C   0  0  0  0  0  0  0  0  0  0  0  0
    6.9000   -5.6250    0.0000 C   0  0  0  0  0  0  0  0  0  0  0  0
    5.6625   -5.7417    0.0000 O   0  0  0  0  0  0  0  0  0  0  0  0
   11.0375   -5.5417    0.0000 C   0  0  0  0  0  0  0  0  0  0  0  0
   11.0292   -6.7792    0.0000 C   0  0  0  0  0  0  0  0  0  0  0  0
    5.5917   -5.0292    0.0000 C   0  0  0  0  0  0  0  0  0  0  0  0
  2  1  1  0  0  0  0
  3  1  1  0  0  0  0
  4  3  1  0  0  0  0
  5  2  1  0  0  0  0
  6  4  1  0  0  0  0
  7  2  2  0  0  0  0
  8  3  2  0  0  0  0
  9  1  1  0  0  0  0
 10  6  1  0  0  0  0
 11 14  1  0  0  0  0
 12 10  2  0  0  0  0
 13 10  1  0  0  0  0
 14 13  2  0  0  0  0
 15 12  1  0  0  0  0
 16 11  1  0  0  0  0
 17  9  1  0  0  0  0
 18  9  1  0  0  0  0
 19 16  1  0  0  0  0
  4  5  1  0  0  0  0
 11 15  2  0  0  0  0
M  END
> <IDNUMBER>
F3023-0406

> <Chemical_Name>
3-[(4-methoxyphenyl)amino]-1-(propan-2-yl)pyrrolidine-2,5-dione

> <CAS>
1008463-68-0

> <PriceCoeff>
1.00

> <MW>
262.30

> <Description>
solid

> <FSP3>
0.43

> <clogP>
2.60

> <TPSA>
58.64

> <Acceptor>
4

> <Donor>
1

> <RotBonds>
4

> <HAC>
19

> <Collection>
General

$$$$
F1800-0167
  -ISIS-  06222321142D

 21 22  0  0  0  0  0  0  0  0999 V2000
   -3.7250    2.3000    0.0000 N   0  0  3  0  0  0  0  0  0  0  0  0
   -3.3500    2.9583    0.0000 C   0  0  0  0  0  0  0  0  0  0  0  0
   -3.3500    1.6583    0.0000 C   0  0  0  0  0  0  0  0  0  0  0  0
   -2.2250    2.3000    0.0000 S   0  0  0  0  0  0  0  0  0  0  0  0
   -4.8500    2.9458    0.0000 C   0  0  0  0  0  0  0  0  0  0  0  0
   -4.4750    2.3000    0.0000 C   0  0  0  0  0  0  0  0  0  0  0  0
   -2.6000    2.9583    0.0000 C   0  0  3  0  0  0  0  0  0  0  0  0
   -5.6000    2.9458    0.0000 N   0  0  0  0  0  0  0  0  0  0  0  0
   -5.9750    3.5875    0.0000 C   0  0  0  0  0  0  0  0  0  0  0  0
   -2.6000    1.6583    0.0000 C   0  0  0  0  0  0  0  0  0  0  0  0
   -3.7333    3.6083    0.0000 O   0  0  0  0  0  0  0  0  0  0  0  0
   -3.7333    1.0000    0.0000 O   0  0  0  0  0  0  0  0  0  0  0  0
   -4.4750    3.5958    0.0000 O   0  0  0  0  0  0  0  0  0  0  0  0
   -7.0917    4.2292    0.0000 C   0  0  0  0  0  0  0  0  0  0  0  0
   -5.9750    4.8875    0.0000 C   0  0  0  0  0  0  0  0  0  0  0  0
   -6.7167    3.5958    0.0000 C   0  0  0  0  0  0  0  0  0  0  0  0
   -5.6000    4.2292    0.0000 C   0  0  0  0  0  0  0  0  0  0  0  0
   -6.7167    4.8875    0.0000 C   0  0  0  0  0  0  0  0  0  0  0  0
   -2.2208    3.6083    0.0000 C   0  0  0  0  0  0  0  0  0  0  0  0
   -7.8417    4.2292    0.0000 C   0  0  0  0  0  0  0  0  0  0  0  0
   -5.5958    5.5417    0.0000 C   0  0  0  0  0  0  0  0  0  0  0  0
  2  1  1  0  0  0  0
  3  1  1  0  0  0  0
  4 10  1  0  0  0  0
  5  6  1  0  0  0  0
  6  1  1  0  0  0  0
  7  2  1  0  0  0  0
  8  5  1  0  0  0  0
  9  8  1  0  0  0  0
 10  3  1  0  0  0  0
 11  2  2  0  0  0  0
 12  3  2  0  0  0  0
 13  5  2  0  0  0  0
 14 16  2  0  0  0  0
 15 17  1  0  0  0  0
 16  9  1  0  0  0  0
 17  9  2  0  0  0  0
 18 15  2  0  0  0  0
 19  7  1  0  0  0  0
 20 14  1  0  0  0  0
 21 15  1  0  0  0  0
  7  4  1  0  0  0  0
 14 18  1  0  0  0  0
M  END
> <IDNUMBER>
F1800-0167

> <Chemical_Name>
N-(3,5-dimethylphenyl)-2-(2-methyl-3,5-dioxothiomorpholin-4-yl)acetamide

> <CAS>
868215-88-7

> <PriceCoeff>
1.00

> <MW>
306.38

> <Description>
solid

> <FSP3>
0.40

> <clogP>
2.97

> <TPSA>
91.78

> <Acceptor>
3

> <Donor>
1

> <RotBonds>
3

> <HAC>
21

> <Collection>
General

$$$$
F1800-0180
  -ISIS-  06222321142D

 22 23  0  0  0  0  0  0  0  0999 V2000
   -3.7250    2.3000    0.0000 N   0  0  3  0  0  0  0  0  0  0  0  0
   -3.3500    2.9583    0.0000 C   0  0  0  0  0  0  0  0  0  0  0  0
   -3.3500    1.6583    0.0000 C   0  0  0  0  0  0  0  0  0  0  0  0
   -5.9750    3.5958    0.0000 C   0  0  0  0  0  0  0  0  0  0  0  0
   -2.2250    2.3000    0.0000 S   0  0  0  0  0  0  0  0  0  0  0  0
   -4.8500    2.9458    0.0000 C   0  0  0  0  0  0  0  0  0  0  0  0
   -5.6000    2.9458    0.0000 N   0  0  0  0  0  0  0  0  0  0  0  0
   -4.4750    2.3000    0.0000 C   0  0  0  0  0  0  0  0  0  0  0  0
   -2.6000    2.9583    0.0000 C   0  0  3  0  0  0  0  0  0  0  0  0
   -5.6000    4.2292    0.0000 C   0  0  0  0  0  0  0  0  0  0  0  0
   -2.6000    1.6583    0.0000 C   0  0  0  0  0  0  0  0  0  0  0  0
   -3.7333    3.6083    0.0000 O   0  0  0  0  0  0  0  0  0  0  0  0
   -6.7167    3.5958    0.0000 C   0  0  0  0  0  0  0  0  0  0  0  0
   -3.7333    1.0000    0.0000 O   0  0  0  0  0  0  0  0  0  0  0  0
   -4.4750    3.5958    0.0000 O   0  0  0  0  0  0  0  0  0  0  0  0
   -7.0917    4.2292    0.0000 C   0  0  0  0  0  0  0  0  0  0  0  0
   -5.9750    4.8875    0.0000 C   0  0  0  0  0  0  0  0  0  0  0  0
   -6.7167    4.8875    0.0000 C   0  0  0  0  0  0  0  0  0  0  0  0
   -5.5958    5.5417    0.0000 Cl  0  0  0  0  0  0  0  0  0  0  0  0
   -7.1042    2.9375    0.0000 O   0  0  0  0  0  0  0  0  0  0  0  0
   -2.2208    3.6083    0.0000 C   0  0  0  0  0  0  0  0  0  0  0  0
   -6.7292    2.2833    0.0000 C   0  0  0  0  0  0  0  0  0  0  0  0
  2  1  1  0  0  0  0
  3  1  1  0  0  0  0
  4  7  1  0  0  0  0
  5 11  1  0  0  0  0
  6  8  1  0  0  0  0
  7  6  1  0  0  0  0
  8  1  1  0  0  0  0
  9  2  1  0  0  0  0
 10  4  1  0  0  0  0
 11  3  1  0  0  0  0
 12  2  2  0  0  0  0
 13  4  2  0  0  0  0
 14  3  2  0  0  0  0
 15  6  2  0  0  0  0
 16 13  1  0  0  0  0
 17 10  2  0  0  0  0
 18 16  2  0  0  0  0
 19 17  1  0  0  0  0
 20 13  1  0  0  0  0
 21  9  1  0  0  0  0
 22 20  1  0  0  0  0
  9  5  1  0  0  0  0
 17 18  1  0  0  0  0
M  END
> <IDNUMBER>
F1800-0180

> <Chemical_Name>
N-(5-chloro-2-methoxyphenyl)-2-(2-methyl-3,5-dioxothiomorpholin-4-yl)acetamide

> <CAS>
868216-01-7

> <PriceCoeff>
1.00

> <MW>
342.80

> <Description>
solid

> <FSP3>
0.36

> <clogP>
2.37

> <TPSA>
101.01

> <Acceptor>
4

> <Donor>
1

> <RotBonds>
4

> <HAC>
22

> <Collection>
General

$$$$
F0348-2711
  -ISIS-  06222321452D

 15 16  0  0  0  0  0  0  0  0999 V2000
   -0.8833    0.7000    0.0000 C   0  0  0  0  0  0  0  0  0  0  0  0
   -1.6625    1.7958    0.0000 N   0  0  0  0  0  0  0  0  0  0  0  0
   -1.6625   -0.3792    0.0000 N   0  0  0  0  0  0  0  0  0  0  0  0
    0.4500    0.7000    0.0000 N   0  0  0  0  0  0  0  0  0  0  0  0
    1.1500   -0.4542    0.0000 C   0  0  0  0  0  0  0  0  0  0  0  0
   -2.9458    1.3958    0.0000 C   0  0  0  0  0  0  0  0  0  0  0  0
   -2.9458    0.0458    0.0000 C   0  0  0  0  0  0  0  0  0  0  0  0
    0.4500   -1.6042    0.0000 O   0  0  0  0  0  0  0  0  0  0  0  0
    2.4792   -0.4542    0.0000 O   0  0  0  0  0  0  0  0  0  0  0  0
   -4.0958    2.0500    0.0000 C   0  0  0  0  0  0  0  0  0  0  0  0
   -4.0958   -0.6500    0.0000 C   0  0  0  0  0  0  0  0  0  0  0  0
    3.1667   -1.6042    0.0000 C   0  0  0  0  0  0  0  0  0  0  0  0
    4.5042   -1.6042    0.0000 C   0  0  0  0  0  0  0  0  0  0  0  0
   -5.2708    1.3958    0.0000 C   0  0  0  0  0  0  0  0  0  0  0  0
   -5.2708    0.0458    0.0000 C   0  0  0  0  0  0  0  0  0  0  0  0
  2  1  2  0  0  0  0
  3  1  1  0  0  0  0
  4  1  1  0  0  0  0
  5  4  1  0  0  0  0
  6  2  1  0  0  0  0
  7  3  1  0  0  0  0
  8  5  2  0  0  0  0
  9  5  1  0  0  0  0
 10  6  1  0  0  0  0
 11  7  1  0  0  0  0
 12  9  1  0  0  0  0
 13 12  1  0  0  0  0
 14 10  2  0  0  0  0
 15 11  2  0  0  0  0
  7  6  2  0  0  0  0
 14 15  1  0  0  0  0
M  END
> <IDNUMBER>
F0348-2711

> <Chemical_Name>
ethyl N-(1H-1,3-benzodiazol-2-yl)carbamate

> <CAS>
6306-71-4

> <PriceCoeff>
1.50

> <MW>
205.21

> <Description>
solid

> <FSP3>
0.20

> <clogP>
2.24

> <TPSA>
67.01

> <Acceptor>
4

> <Donor>
3

> <RotBonds>
3

> <HAC>
15

> <Collection>
Advanced

> <Reference_compound>
CHEMBL70971

> <Similarity>
0.9020

$$$$
F1800-0041
  -ISIS-  06222321452D

 21 22  0  0  0  0  0  0  0  0999 V2000
   -3.7583    2.3708    0.0000 N   0  0  3  0  0  0  0  0  0  0  0  0
   -3.3500    1.6500    0.0000 C   0  0  0  0  0  0  0  0  0  0  0  0
   -3.3333    3.0833    0.0000 C   0  0  0  0  0  0  0  0  0  0  0  0
   -6.2167    0.9625    0.0000 C   0  0  0  0  0  0  0  0  0  0  0  0
   -4.9958    1.6708    0.0000 C   0  0  0  0  0  0  0  0  0  0  0  0
   -5.8083    1.6708    0.0000 N   0  0  0  0  0  0  0  0  0  0  0  0
   -4.5833    2.3750    0.0000 C   0  0  0  0  0  0  0  0  0  0  0  0
   -5.8125    0.2375    0.0000 C   0  0  0  0  0  0  0  0  0  0  0  0
   -2.1083    2.3458    0.0000 S   0  0  0  0  0  0  0  0  0  0  0  0
   -7.0417    0.9625    0.0000 C   0  0  0  0  0  0  0  0  0  0  0  0
   -3.7375    3.8000    0.0000 O   0  0  0  0  0  0  0  0  0  0  0  0
   -3.7708    0.9375    0.0000 O   0  0  0  0  0  0  0  0  0  0  0  0
   -4.5833    0.9500    0.0000 O   0  0  0  0  0  0  0  0  0  0  0  0
   -7.4625    0.2583    0.0000 C   0  0  0  0  0  0  0  0  0  0  0  0
   -6.2167   -0.4750    0.0000 C   0  0  0  0  0  0  0  0  0  0  0  0
   -2.5333    1.6458    0.0000 C   0  0  0  0  0  0  0  0  0  0  0  0
   -2.5083    3.0625    0.0000 C   0  0  0  0  0  0  0  0  0  0  0  0
   -7.0417   -0.4667    0.0000 C   0  0  0  0  0  0  0  0  0  0  0  0
   -5.8208   -1.1917    0.0000 Cl  0  0  0  0  0  0  0  0  0  0  0  0
   -7.4542    1.6750    0.0000 O   0  0  0  0  0  0  0  0  0  0  0  0
   -8.2792    1.6833    0.0000 C   0  0  0  0  0  0  0  0  0  0  0  0
  2  1  1  0  0  0  0
  3  1  1  0  0  0  0
  4  6  1  0  0  0  0
  5  7  1  0  0  0  0
  6  5  1  0  0  0  0
  7  1  1  0  0  0  0
  8  4  1  0  0  0  0
  9 17  1  0  0  0  0
 10  4  2  0  0  0  0
 11  3  2  0  0  0  0
 12  2  2  0  0  0  0
 13  5  2  0  0  0  0
 14 10  1  0  0  0  0
 15  8  2  0  0  0  0
 16  2  1  0  0  0  0
 17  3  1  0  0  0  0
 18 14  2  0  0  0  0
 19 15  1  0  0  0  0
 20 10  1  0  0  0  0
 21 20  1  0  0  0  0
 16  9  1  0  0  0  0
 15 18  1  0  0  0  0
M  END
> <IDNUMBER>
F1800-0041

> <Chemical_Name>
N-(5-chloro-2-methoxyphenyl)-2-(3,5-dioxothiomorpholin-4-yl)acetamide

> <CAS>
868215-15-0

> <PriceCoeff>
1.00

> <MW>
328.77

> <Description>
solid

> <FSP3>
0.31

> <clogP>
1.85

> <TPSA>
101.01

> <Acceptor>
4

> <Donor>
1

> <RotBonds>
4

> <HAC>
21

> <Collection>
General

$$$$
F6274-0681
  -ISIS-  06222321462D

 24 27  0  0  0  0  0  0  0  0999 V2000
    8.4417   -4.5542    0.0000 C   0  0  0  0  0  0  0  0  0  0  0  0
    3.8292   -5.5375    0.0000 N   0  0  3  0  0  0  0  0  0  0  0  0
    9.2000   -4.9042    0.0000 N   0  0  0  0  0  0  0  0  0  0  0  0
    7.7167   -4.9750    0.0000 N   0  0  3  0  0  0  0  0  0  0  0  0
    8.5292   -3.7292    0.0000 S   0  0  0  0  0  0  0  0  0  0  0  0
    3.7500   -4.7125    0.0000 C   0  0  0  0  0  0  0  0  0  0  0  0
    3.0667   -5.8625    0.0000 C   0  0  0  0  0  0  0  0  0  0  0  0
    9.7625   -4.2917    0.0000 C   0  0  0  0  0  0  0  0  0  0  0  0
    9.3542   -3.5667    0.0000 C   0  0  0  0  0  0  0  0  0  0  0  0
    6.7042   -5.5500    0.0000 C   0  0  3  0  0  0  0  0  0  0  0  0
    5.2667   -5.5417    0.0000 C   0  0  0  0  0  0  0  0  0  0  0  0
    4.5417   -5.9542    0.0000 C   0  0  0  0  0  0  0  0  0  0  0  0
    7.5042   -5.7750    0.0000 C   0  0  0  0  0  0  0  0  0  0  0  0
    6.9167   -4.7542    0.0000 C   0  0  0  0  0  0  0  0  0  0  0  0
    5.9792   -5.9667    0.0000 O   0  0  0  0  0  0  0  0  0  0  0  0
    2.9417   -4.5292    0.0000 C   0  0  0  0  0  0  0  0  0  0  0  0
    2.5250   -5.2375    0.0000 C   0  0  0  0  0  0  0  0  0  0  0  0
    4.3667   -4.1542    0.0000 O   0  0  0  0  0  0  0  0  0  0  0  0
    2.8917   -6.6792    0.0000 O   0  0  0  0  0  0  0  0  0  0  0  0
    5.2667   -4.7125    0.0000 O   0  0  0  0  0  0  0  0  0  0  0  0
   10.5917   -4.3000    0.0000 C   0  0  0  0  0  0  0  0  0  0  0  0
    9.7792   -2.8500    0.0000 C   0  0  0  0  0  0  0  0  0  0  0  0
   11.0167   -3.5792    0.0000 C   0  0  0  0  0  0  0  0  0  0  0  0
   10.6042   -2.8625    0.0000 C   0  0  0  0  0  0  0  0  0  0  0  0
  2 12  1  0  0  0  0
  3  1  2  0  0  0  0
  4  1  1  0  0  0  0
  5  1  1  0  0  0  0
  6  2  1  0  0  0  0
  7  2  1  0  0  0  0
  8  3  1  0  0  0  0
  9  5  1  0  0  0  0
 10 14  1  0  0  0  0
 11 15  1  0  0  0  0
 12 11  1  0  0  0  0
 13  4  1  0  0  0  0
 14  4  1  0  0  0  0
 15 10  1  0  0  0  0
 16  6  1  0  0  0  0
 17  7  1  0  0  0  0
 18  6  2  0  0  0  0
 19  7  2  0  0  0  0
 20 11  2  0  0  0  0
 21  8  2  0  0  0  0
 22  9  2  0  0  0  0
 23 21  1  0  0  0  0
 24 22  1  0  0  0  0
  9  8  1  0  0  0  0
 13 10  1  0  0  0  0
 24 23  2  0  0  0  0
 16 17  1  0  0  0  0
M  END
> <IDNUMBER>
F6274-0681

> <Chemical_Name>
1-(1,3-benzothiazol-2-yl)azetidin-3-yl 2-(2,5-dioxopyrrolidin-1-yl)acetate

> <CAS>
1396843-57-4

> <PriceCoeff>
1.00

> <MW>
345.37

> <Description>
solid

> <FSP3>
0.38

> <clogP>
2.10

> <TPSA>
108.05

> <Acceptor>
5

> <Donor>
1

> <RotBonds>
5

> <HAC>
24

> <Collection>
General

$$$$
F1800-0008
  -ISIS-  06222321142D

 20 21  0  0  0  0  0  0  0  0999 V2000
   -3.7583    2.3708    0.0000 N   0  0  3  0  0  0  0  0  0  0  0  0
   -3.3500    1.6500    0.0000 C   0  0  0  0  0  0  0  0  0  0  0  0
   -3.3333    3.0833    0.0000 C   0  0  0  0  0  0  0  0  0  0  0  0
   -4.9958    1.6625    0.0000 C   0  0  0  0  0  0  0  0  0  0  0  0
   -4.5833    2.3750    0.0000 C   0  0  0  0  0  0  0  0  0  0  0  0
   -2.1083    2.3458    0.0000 S   0  0  0  0  0  0  0  0  0  0  0  0
   -4.5833    0.9375    0.0000 N   0  0  0  0  0  0  0  0  0  0  0  0
   -3.7708    0.9375    0.0000 O   0  0  0  0  0  0  0  0  0  0  0  0
   -3.7375    3.8000    0.0000 O   0  0  0  0  0  0  0  0  0  0  0  0
   -5.8208    1.6708    0.0000 O   0  0  0  0  0  0  0  0  0  0  0  0
   -5.0083    0.2333    0.0000 C   0  0  0  0  0  0  0  0  0  0  0  0
   -2.5333    1.6458    0.0000 C   0  0  0  0  0  0  0  0  0  0  0  0
   -2.5083    3.0625    0.0000 C   0  0  0  0  0  0  0  0  0  0  0  0
   -5.8333   -1.1875    0.0000 C   0  0  0  0  0  0  0  0  0  0  0  0
   -4.5958   -0.4792    0.0000 C   0  0  0  0  0  0  0  0  0  0  0  0
   -5.8208    0.2333    0.0000 C   0  0  0  0  0  0  0  0  0  0  0  0
   -6.2292   -0.4667    0.0000 C   0  0  0  0  0  0  0  0  0  0  0  0
   -5.0000   -1.1917    0.0000 C   0  0  0  0  0  0  0  0  0  0  0  0
   -6.2417   -1.9000    0.0000 O   0  0  0  0  0  0  0  0  0  0  0  0
   -7.0625   -1.8917    0.0000 C   0  0  0  0  0  0  0  0  0  0  0  0
  2  1  1  0  0  0  0
  3  1  1  0  0  0  0
  4  5  1  0  0  0  0
  5  1  1  0  0  0  0
  6 13  1  0  0  0  0
  7  4  1  0  0  0  0
  8  2  2  0  0  0  0
  9  3  2  0  0  0  0
 10  4  2  0  0  0  0
 11  7  1  0  0  0  0
 12  2  1  0  0  0  0
 13  3  1  0  0  0  0
 14 17  2  0  0  0  0
 15 11  1  0  0  0  0
 16 11  2  0  0  0  0
 17 16  1  0  0  0  0
 18 15  2  0  0  0  0
 19 14  1  0  0  0  0
 20 19  1  0  0  0  0
 12  6  1  0  0  0  0
 18 14  1  0  0  0  0
M  END
> <IDNUMBER>
F1800-0008

> <Chemical_Name>
2-(3,5-dioxothiomorpholin-4-yl)-N-(4-methoxyphenyl)acetamide

> <CAS>
868215-02-5

> <PriceCoeff>
1.00

> <MW>
294.33

> <Description>
solid

> <FSP3>
0.31

> <clogP>
1.53

> <TPSA>
101.01

> <Acceptor>
4

> <Donor>
1

> <RotBonds>
4

> <HAC>
20

> <Collection>
General

$$$$
F3205-0032
  -ISIS-  06222321152D

 23 25  0  0  0  0  0  0  0  0999 V2000
    4.4167   -6.4125    0.0000 N   0  0  3  0  0  0  0  0  0  0  0  0
    4.9042   -7.0792    0.0000 C   0  0  0  0  0  0  0  0  0  0  0  0
    4.9000   -5.7417    0.0000 C   0  0  0  0  0  0  0  0  0  0  0  0
    5.6917   -6.8167    0.0000 C   0  0  3  0  0  0  0  0  0  0  0  0
    5.6875   -5.9917    0.0000 C   0  0  0  0  0  0  0  0  0  0  0  0
    9.3542   -5.9375    0.0000 N   0  0  3  0  0  0  0  0  0  0  0  0
    6.3542   -7.2917    0.0000 N   0  0  0  0  0  0  0  0  0  0  0  0
    8.6042   -6.2792    0.0000 C   0  0  0  0  0  0  0  0  0  0  0  0
    4.6542   -7.8625    0.0000 O   0  0  0  0  0  0  0  0  0  0  0  0
    4.6417   -4.9542    0.0000 O   0  0  0  0  0  0  0  0  0  0  0  0
    3.5917   -6.4167    0.0000 C   0  0  0  0  0  0  0  0  0  0  0  0
   10.8542   -5.2542    0.0000 O   0  0  0  0  0  0  0  0  0  0  0  0
    3.1125   -7.0917    0.0000 C   0  0  0  0  0  0  0  0  0  0  0  0
    7.9292   -5.8000    0.0000 C   0  0  0  0  0  0  0  0  0  0  0  0
    8.5250   -7.0917    0.0000 C   0  0  0  0  0  0  0  0  0  0  0  0
    7.1042   -6.9542    0.0000 C   0  0  0  0  0  0  0  0  0  0  0  0
    2.2917   -7.0042    0.0000 C   0  0  0  0  0  0  0  0  0  0  0  0
    7.1792   -6.1417    0.0000 C   0  0  0  0  0  0  0  0  0  0  0  0
    7.7750   -7.4375    0.0000 C   0  0  0  0  0  0  0  0  0  0  0  0
   10.0167   -6.4167    0.0000 C   0  0  0  0  0  0  0  0  0  0  0  0
    9.4292   -5.1167    0.0000 C   0  0  0  0  0  0  0  0  0  0  0  0
   10.1792   -4.7792    0.0000 C   0  0  0  0  0  0  0  0  0  0  0  0
   10.7667   -6.0792    0.0000 C   0  0  0  0  0  0  0  0  0  0  0  0
  2  1  1  0  0  0  0
  3  1  1  0  0  0  0
  4  2  1  0  0  0  0
  5  3  1  0  0  0  0
  6  8  1  0  0  0  0
  7  4  1  0  0  0  0
  8 15  2  0  0  0  0
  9  2  2  0  0  0  0
 10  3  2  0  0  0  0
 11  1  1  0  0  0  0
 12 22  1  0  0  0  0
 13 11  1  0  0  0  0
 14 18  2  0  0  0  0
 15 19  1  0  0  0  0
 16  7  1  0  0  0  0
 17 13  2  0  0  0  0
 18 16  1  0  0  0  0
 19 16  2  0  0  0  0
 20  6  1  0  0  0  0
 21  6  1  0  0  0  0
 22 21  1  0  0  0  0
 23 20  1  0  0  0  0
  5  4  1  0  0  0  0
 14  8  1  0  0  0  0
 12 23  1  0  0  0  0
M  END
> <IDNUMBER>
F3205-0032

> <Chemical_Name>
3-{[4-(morpholin-4-yl)phenyl]amino}-1-(prop-2-en-1-yl)pyrrolidine-2,5-dione

> <CAS>
1008091-53-9

> <PriceCoeff>
1.00

> <MW>
315.37

> <Description>
solid

> <FSP3>
0.41

> <clogP>
1.88

> <TPSA>
61.88

> <Acceptor>
5

> <Donor>
2

> <RotBonds>
5

> <HAC>
23

> <Collection>
General

$$$$
F6413-0068
  -ISIS-  06222321152D

 24 26  0  0  0  0  0  0  0  0999 V2000
   -5.2833    2.5708    0.0000 N   0  0  3  0  0  0  0  0  0  0  0  0
   -2.2583    6.4500    0.0000 C   0  0  0  0  0  0  0  0  0  0  0  0
   -1.9250    7.2042    0.0000 C   0  0  0  0  0  0  0  0  0  0  0  0
   -3.0625    6.2750    0.0000 S   0  0  0  0  0  0  0  0  0  0  0  0
   -5.3708    1.7458    0.0000 C   0  0  0  0  0  0  0  0  0  0  0  0
   -6.0292    2.9000    0.0000 C   0  0  0  0  0  0  0  0  0  0  0  0
   -1.0958    7.2917    0.0000 C   0  0  0  0  0  0  0  0  0  0  0  0
   -1.8333    5.7292    0.0000 C   0  0  0  0  0  0  0  0  0  0  0  0
   -3.1500    5.4500    0.0000 C   0  0  0  0  0  0  0  0  0  0  0  0
   -4.5833    2.9875    0.0000 C   0  0  0  0  0  0  0  0  0  0  0  0
   -0.6875    8.0167    0.0000 S   0  0  0  0  0  0  0  0  0  0  0  0
   -4.5833    3.8000    0.0000 C   0  0  0  0  0  0  0  0  0  0  0  0
   -2.3958    5.1167    0.0000 C   0  0  0  0  0  0  0  0  0  0  0  0
   -2.4125    7.8667    0.0000 O   0  0  0  0  0  0  0  0  0  0  0  0
   -3.8625    4.2125    0.0000 N   0  0  0  0  0  0  0  0  0  0  0  0
   -0.5500    6.6792    0.0000 C   0  0  0  0  0  0  0  0  0  0  0  0
   -6.1667    1.5708    0.0000 C   0  0  0  0  0  0  0  0  0  0  0  0
   -6.5792    2.2833    0.0000 C   0  0  0  0  0  0  0  0  0  0  0  0
   -4.7500    1.1833    0.0000 O   0  0  0  0  0  0  0  0  0  0  0  0
   -6.2042    3.7083    0.0000 O   0  0  0  0  0  0  0  0  0  0  0  0
    0.1167    7.8417    0.0000 C   0  0  0  0  0  0  0  0  0  0  0  0
    0.2042    7.0167    0.0000 C   0  0  0  0  0  0  0  0  0  0  0  0
   -5.2958    4.2125    0.0000 O   0  0  0  0  0  0  0  0  0  0  0  0
   -3.8625    5.0417    0.0000 C   0  0  0  0  0  0  0  0  0  0  0  0
  2  4  1  0  0  0  0
  3  2  1  0  0  0  0
  4  9  1  0  0  0  0
  5  1  1  0  0  0  0
  6  1  1  0  0  0  0
  7  3  1  0  0  0  0
  8 13  1  0  0  0  0
  9 24  1  0  0  0  0
 10  1  1  0  0  0  0
 11  7  1  0  0  0  0
 12 10  1  0  0  0  0
 13  9  2  0  0  0  0
 14  3  2  0  0  0  0
 15 12  1  0  0  0  0
 16  7  2  0  0  0  0
 17  5  1  0  0  0  0
 18  6  1  0  0  0  0
 19  5  2  0  0  0  0
 20  6  2  0  0  0  0
 21 11  1  0  0  0  0
 22 16  1  0  0  0  0
 23 12  2  0  0  0  0
 24 15  1  0  0  0  0
 18 17  1  0  0  0  0
  2  8  2  0  0  0  0
 21 22  2  0  0  0  0
M  END
> <IDNUMBER>
F6413-0068

> <Chemical_Name>
2-(2,5-dioxopyrrolidin-1-yl)-N-{[5-(thiophene-2-carbonyl)thiophen-2-yl]methyl}acetamide

> <CAS>
1421517-30-7

> <PriceCoeff>
1.00

> <MW>
362.42

> <Description>
solid

> <FSP3>
0.25

> <clogP>
1.14

> <TPSA>
140.03

> <Acceptor>
4

> <Donor>
1

> <RotBonds>
6

> <HAC>
24

> <Collection>
General

$$$$
F9995-2665
  -ISIS-  06222321442D

 20 21  0  0  0  0  0  0  0  0999 V2000
   -0.2292   -2.4833    0.0000 C   0  0  0  0  0  0  0  0  0  0  0  0
   -0.9583    2.0458    0.0000 C   0  0  0  0  0  0  0  0  0  0  0  0
   -0.2333   -0.0042    0.0000 C   0  0  0  0  0  0  0  0  0  0  0  0
   -0.9500   -0.4167    0.0000 C   0  0  0  0  0  0  0  0  0  0  0  0
   -0.2417    2.4667    0.0000 C   0  0  0  0  0  0  0  0  0  0  0  0
   -0.9458   -2.8958    0.0000 C   0  0  0  0  0  0  0  0  0  0  0  0
   -0.2292   -1.6542    0.0000 C   0  0  0  0  0  0  0  0  0  0  0  0
   -0.9500    1.2250    0.0000 C   0  0  0  0  0  0  0  0  0  0  0  0
   -0.2375    0.8208    0.0000 C   0  0  0  0  0  0  0  0  0  0  0  0
   -0.9458   -1.2417    0.0000 C   0  0  0  0  0  0  0  0  0  0  0  0
    0.4750    2.0542    0.0000 C   0  0  0  0  0  0  0  0  0  0  0  0
   -1.6583   -2.4833    0.0000 C   0  0  0  0  0  0  0  0  0  0  0  0
   -1.6583   -1.6542    0.0000 C   0  0  0  0  0  0  0  0  0  0  0  0
    0.4792    1.2333    0.0000 C   0  0  0  0  0  0  0  0  0  0  0  0
   -1.6750    2.4542    0.0000 O   0  0  0  0  0  0  0  0  0  0  0  0
    0.4875   -2.8958    0.0000 O   0  0  0  0  0  0  0  0  0  0  0  0
   -0.9458   -3.7208    0.0000 O   0  0  0  0  0  0  0  0  0  0  0  0
   -0.2458    3.2917    0.0000 O   0  0  0  0  0  0  0  0  0  0  0  0
   -2.3833    2.0375    0.0000 C   0  0  0  0  0  0  0  0  0  0  0  0
    1.2000   -2.4792    0.0000 C   0  0  0  0  0  0  0  0  0  0  0  0
  2  8  2  0  0  0  0
  3  4  2  0  0  0  0
  4 10  1  0  0  0  0
  5  2  1  0  0  0  0
  6  1  2  0  0  0  0
  7  1  1  0  0  0  0
  8  9  1  0  0  0  0
  9  3  1  0  0  0  0
 10  7  2  0  0  0  0
 11 14  1  0  0  0  0
 12  6  1  0  0  0  0
 13 10  1  0  0  0  0
 14  9  2  0  0  0  0
 15  2  1  0  0  0  0
 16  1  1  0  0  0  0
 17  6  1  0  0  0  0
 18  5  1  0  0  0  0
 19 15  1  0  0  0  0
 20 16  1  0  0  0  0
 12 13  2  0  0  0  0
  5 11  2  0  0  0  0
M  END
> <IDNUMBER>
F9995-2665

> <Chemical_Name>
4-[(1E)-2-(4-hydroxy-3-methoxyphenyl)ethenyl]-2-methoxyphenol

> <CAS>
7329-69-3

> <PriceCoeff>
1.00

> <MW>
272.30

> <Description>
solid

> <FSP3>
0.13

> <clogP>
3.20

> <TPSA>
58.92

> <Acceptor>
4

> <Donor>
2

> <RotBonds>
4

> <HAC>
20

> <Collection>
General

> <Reference_compound>
CHEMBL67

> <Similarity>
0.9350

$$$$
F3115-0095
  -ISIS-  06222321462D

 25 27  0  0  0  0  0  0  0  0999 V2000
    4.6917   -5.7417    0.0000 N   0  0  3  0  0  0  0  0  0  0  0  0
    5.1875   -6.4042    0.0000 C   0  0  0  0  0  0  0  0  0  0  0  0
    5.1792   -5.0667    0.0000 C   0  0  0  0  0  0  0  0  0  0  0  0
    5.9667   -6.1500    0.0000 C   0  0  3  0  0  0  0  0  0  0  0  0
    5.9667   -5.3167    0.0000 C   0  0  0  0  0  0  0  0  0  0  0  0
    6.6375   -6.6250    0.0000 N   0  0  3  0  0  0  0  0  0  0  0  0
    7.9667   -7.5792    0.0000 N   0  0  3  0  0  0  0  0  0  0  0  0
    8.6292   -8.0667    0.0000 C   0  0  0  0  0  0  0  0  0  0  0  0
    3.8667   -5.7417    0.0000 C   0  0  0  0  0  0  0  0  0  0  0  0
    4.9292   -7.1917    0.0000 O   0  0  0  0  0  0  0  0  0  0  0  0
    4.9167   -4.2875    0.0000 O   0  0  0  0  0  0  0  0  0  0  0  0
    8.0500   -6.7667    0.0000 C   0  0  0  0  0  0  0  0  0  0  0  0
    7.2167   -7.9167    0.0000 C   0  0  0  0  0  0  0  0  0  0  0  0
    7.3792   -6.2792    0.0000 C   0  0  0  0  0  0  0  0  0  0  0  0
    6.5542   -7.4417    0.0000 C   0  0  0  0  0  0  0  0  0  0  0  0
    9.3875   -7.7292    0.0000 O   0  0  0  0  0  0  0  0  0  0  0  0
    3.4625   -5.0292    0.0000 C   0  0  0  0  0  0  0  0  0  0  0  0
    8.5500   -8.8875    0.0000 O   0  0  0  0  0  0  0  0  0  0  0  0
    3.4667   -6.4625    0.0000 C   0  0  0  0  0  0  0  0  0  0  0  0
    3.8750   -4.3167    0.0000 C   0  0  0  0  0  0  0  0  0  0  0  0
    2.6417   -5.0292    0.0000 C   0  0  0  0  0  0  0  0  0  0  0  0
    7.7917   -9.2250    0.0000 C   0  0  0  0  0  0  0  0  0  0  0  0
    2.6417   -6.4625    0.0000 C   0  0  0  0  0  0  0  0  0  0  0  0
    7.7125  -10.0417    0.0000 C   0  0  0  0  0  0  0  0  0  0  0  0
    2.2292   -5.7500    0.0000 C   0  0  0  0  0  0  0  0  0  0  0  0
  2  1  1  0  0  0  0
  3  1  1  0  0  0  0
  4  2  1  0  0  0  0
  5  3  1  0  0  0  0
  6  4  1  0  0  0  0
  7 13  1  0  0  0  0
  8  7  1  0  0  0  0
  9  1  1  0  0  0  0
 10  2  2  0  0  0  0
 11  3  2  0  0  0  0
 12 14  1  0  0  0  0
 13 15  1  0  0  0  0
 14  6  1  0  0  0  0
 15  6  1  0  0  0  0
 16  8  2  0  0  0  0
 17  9  2  0  0  0  0
 18  8  1  0  0  0  0
 19  9  1  0  0  0  0
 20 17  1  0  0  0  0
 21 17  1  0  0  0  0
 22 18  1  0  0  0  0
 23 19  2  0  0  0  0
 24 22  1  0  0  0  0
 25 23  1  0  0  0  0
  4  5  1  0  0  0  0
 25 21  2  0  0  0  0
  7 12  1  0  0  0  0
M  END
> <IDNUMBER>
F3115-0095

> <Chemical_Name>
ethyl 4-[1-(2-methylphenyl)-2,5-dioxopyrrolidin-3-yl]piperazine-1-carboxylate

> <CAS>
839681-44-6

> <PriceCoeff>
1.00

> <MW>
345.39

> <Description>
solid

> <FSP3>
0.50

> <clogP>
2.48

> <TPSA>
70.16

> <Acceptor>
4

> <Donor>
1

> <RotBonds>
5

> <HAC>
25

> <Collection>
General

$$$$
F1800-0014
  -ISIS-  06222321142D

 21 22  0  0  0  0  0  0  0  0999 V2000
   -3.7583    2.3708    0.0000 N   0  0  3  0  0  0  0  0  0  0  0  0
   -3.3500    1.6500    0.0000 C   0  0  0  0  0  0  0  0  0  0  0  0
   -3.3333    3.0833    0.0000 C   0  0  0  0  0  0  0  0  0  0  0  0
   -4.9958    1.6625    0.0000 C   0  0  0  0  0  0  0  0  0  0  0  0
   -4.5833    2.3750    0.0000 C   0  0  0  0  0  0  0  0  0  0  0  0
   -2.1083    2.3458    0.0000 S   0  0  0  0  0  0  0  0  0  0  0  0
   -4.5958    0.9458    0.0000 N   0  0  0  0  0  0  0  0  0  0  0  0
   -3.7708    0.9375    0.0000 O   0  0  0  0  0  0  0  0  0  0  0  0
   -3.7375    3.8000    0.0000 O   0  0  0  0  0  0  0  0  0  0  0  0
   -5.8208    1.6750    0.0000 O   0  0  0  0  0  0  0  0  0  0  0  0
   -5.0208    0.2333    0.0000 C   0  0  0  0  0  0  0  0  0  0  0  0
   -2.5333    1.6458    0.0000 C   0  0  0  0  0  0  0  0  0  0  0  0
   -2.5083    3.0625    0.0000 C   0  0  0  0  0  0  0  0  0  0  0  0
   -5.8458   -1.1875    0.0000 C   0  0  0  0  0  0  0  0  0  0  0  0
   -4.6083   -0.4792    0.0000 C   0  0  0  0  0  0  0  0  0  0  0  0
   -5.8333    0.2375    0.0000 C   0  0  0  0  0  0  0  0  0  0  0  0
   -6.2417   -0.4667    0.0000 C   0  0  0  0  0  0  0  0  0  0  0  0
   -5.0208   -1.2042    0.0000 C   0  0  0  0  0  0  0  0  0  0  0  0
   -6.2542   -1.9000    0.0000 O   0  0  0  0  0  0  0  0  0  0  0  0
   -7.0792   -1.8917    0.0000 C   0  0  0  0  0  0  0  0  0  0  0  0
   -7.4917   -2.5917    0.0000 C   0  0  0  0  0  0  0  0  0  0  0  0
  2  1  1  0  0  0  0
  3  1  1  0  0  0  0
  4  5  1  0  0  0  0
  5  1  1  0  0  0  0
  6 13  1  0  0  0  0
  7  4  1  0  0  0  0
  8  2  2  0  0  0  0
  9  3  2  0  0  0  0
 10  4  2  0  0  0  0
 11  7  1  0  0  0  0
 12  2  1  0  0  0  0
 13  3  1  0  0  0  0
 14 17  2  0  0  0  0
 15 11  1  0  0  0  0
 16 11  2  0  0  0  0
 17 16  1  0  0  0  0
 18 15  2  0  0  0  0
 19 14  1  0  0  0  0
 20 19  1  0  0  0  0
 21 20  1  0  0  0  0
 12  6  1  0  0  0  0
 18 14  1  0  0  0  0
M  END
> <IDNUMBER>
F1800-0014

> <Chemical_Name>
2-(3,5-dioxothiomorpholin-4-yl)-N-(4-ethoxyphenyl)acetamide

> <CAS>
868215-05-8

> <PriceCoeff>
1.00

> <MW>
308.35

> <Description>
solid

> <FSP3>
0.36

> <clogP>
2.06

> <TPSA>
101.01

> <Acceptor>
4

> <Donor>
1

> <RotBonds>
5

> <HAC>
21

> <Collection>
General

$$$$
F1800-0022
  -ISIS-  06222321142D

 21 23  0  0  0  0  0  0  0  0999 V2000
   -3.7583    2.3708    0.0000 N   0  0  3  0  0  0  0  0  0  0  0  0
   -3.3500    1.6500    0.0000 C   0  0  0  0  0  0  0  0  0  0  0  0
   -3.3333    3.0833    0.0000 C   0  0  0  0  0  0  0  0  0  0  0  0
   -4.9958    1.6625    0.0000 C   0  0  0  0  0  0  0  0  0  0  0  0
   -4.5833    2.3750    0.0000 C   0  0  0  0  0  0  0  0  0  0  0  0
   -4.9833   -1.1792    0.0000 C   0  0  0  0  0  0  0  0  0  0  0  0
   -4.5833   -0.4667    0.0000 C   0  0  0  0  0  0  0  0  0  0  0  0
   -4.5833    0.9583    0.0000 N   0  0  0  0  0  0  0  0  0  0  0  0
   -2.1083    2.3458    0.0000 S   0  0  0  0  0  0  0  0  0  0  0  0
   -5.8083   -1.1875    0.0000 C   0  0  0  0  0  0  0  0  0  0  0  0
   -4.7250   -1.9667    0.0000 O   0  0  0  0  0  0  0  0  0  0  0  0
   -6.0542   -1.9667    0.0000 O   0  0  0  0  0  0  0  0  0  0  0  0
   -4.9958    0.2458    0.0000 C   0  0  0  0  0  0  0  0  0  0  0  0
   -5.3958   -2.4542    0.0000 C   0  0  0  0  0  0  0  0  0  0  0  0
   -3.7375    3.8000    0.0000 O   0  0  0  0  0  0  0  0  0  0  0  0
   -3.7708    0.9375    0.0000 O   0  0  0  0  0  0  0  0  0  0  0  0
   -5.8208    1.6708    0.0000 O   0  0  0  0  0  0  0  0  0  0  0  0
   -6.2167   -0.4667    0.0000 C   0  0  0  0  0  0  0  0  0  0  0  0
   -2.5083    3.0625    0.0000 C   0  0  0  0  0  0  0  0  0  0  0  0
   -2.5333    1.6458    0.0000 C   0  0  0  0  0  0  0  0  0  0  0  0
   -5.8125    0.2458    0.0000 C   0  0  0  0  0  0  0  0  0  0  0  0
  2  1  1  0  0  0  0
  3  1  1  0  0  0  0
  4  5  1  0  0  0  0
  5  1  1  0  0  0  0
  6  7  2  0  0  0  0
  7 13  1  0  0  0  0
  8  4  1  0  0  0  0
  9 19  1  0  0  0  0
 10 18  2  0  0  0  0
 11  6  1  0  0  0  0
 12 10  1  0  0  0  0
 13  8  1  0  0  0  0
 14 11  1  0  0  0  0
 15  3  2  0  0  0  0
 16  2  2  0  0  0  0
 17  4  2  0  0  0  0
 18 21  1  0  0  0  0
 19  3  1  0  0  0  0
 20  2  1  0  0  0  0
 21 13  2  0  0  0  0
 20  9  1  0  0  0  0
 10  6  1  0  0  0  0
 12 14  1  0  0  0  0
M  END
> <IDNUMBER>
F1800-0022

> <Chemical_Name>
N-(2H-1,3-benzodioxol-5-yl)-2-(3,5-dioxothiomorpholin-4-yl)acetamide

> <CAS>
868215-11-6

> <PriceCoeff>
1.00

> <MW>
308.31

> <Description>
solid

> <FSP3>
0.31

> <clogP>
1.51

> <TPSA>
110.24

> <Acceptor>
5

> <Donor>
1

> <RotBonds>
3

> <HAC>
21

> <Collection>
General

$$$$
F3023-0835
  -ISIS-  06222321442D

 21 22  0  0  0  0  0  0  0  0999 V2000
    0.2917   -0.9667    0.0000 N   0  0  3  0  0  0  0  0  0  0  0  0
    0.7125   -1.5375    0.0000 C   0  0  0  0  0  0  0  0  0  0  0  0
    0.7042   -0.3917    0.0000 C   0  0  0  0  0  0  0  0  0  0  0  0
    1.3875   -1.3167    0.0000 C   0  0  3  0  0  0  0  0  0  0  0  0
    1.3792   -0.6042    0.0000 C   0  0  0  0  0  0  0  0  0  0  0  0
    1.9542   -1.7292    0.0000 N   0  0  0  0  0  0  0  0  0  0  0  0
    0.5000   -2.2125    0.0000 O   0  0  0  0  0  0  0  0  0  0  0  0
    0.4792    0.2833    0.0000 O   0  0  0  0  0  0  0  0  0  0  0  0
    2.6042   -1.4417    0.0000 C   0  0  0  0  0  0  0  0  0  0  0  0
   -0.4208   -0.9667    0.0000 C   0  0  0  0  0  0  0  0  0  0  0  0
    3.9000   -0.8667    0.0000 C   0  0  0  0  0  0  0  0  0  0  0  0
    3.1792   -1.8542    0.0000 C   0  0  0  0  0  0  0  0  0  0  0  0
    2.6750   -0.7375    0.0000 C   0  0  0  0  0  0  0  0  0  0  0  0
    3.3167   -0.4500    0.0000 C   0  0  0  0  0  0  0  0  0  0  0  0
    3.8292   -1.5667    0.0000 C   0  0  0  0  0  0  0  0  0  0  0  0
    4.5500   -0.5750    0.0000 O   0  0  0  0  0  0  0  0  0  0  0  0
   -1.4833   -0.3625    0.0000 O   0  0  0  0  0  0  0  0  0  0  0  0
   -0.7750   -0.3542    0.0000 C   0  0  0  0  0  0  0  0  0  0  0  0
    5.1250   -0.9917    0.0000 C   0  0  0  0  0  0  0  0  0  0  0  0
   -1.8458    0.2458    0.0000 C   0  0  0  0  0  0  0  0  0  0  0  0
    5.7667   -0.7000    0.0000 C   0  0  0  0  0  0  0  0  0  0  0  0
  2  1  1  0  0  0  0
  3  1  1  0  0  0  0
  4  2  1  0  0  0  0
  5  3  1  0  0  0  0
  6  4  1  0  0  0  0
  7  2  2  0  0  0  0
  8  3  2  0  0  0  0
  9  6  1  0  0  0  0
 10  1  1  0  0  0  0
 11 14  1  0  0  0  0
 12  9  2  0  0  0  0
 13  9  1  0  0  0  0
 14 13  2  0  0  0  0
 15 12  1  0  0  0  0
 16 11  1  0  0  0  0
 17 18  1  0  0  0  0
 18 10  1  0  0  0  0
 19 16  1  0  0  0  0
 20 17  1  0  0  0  0
 21 19  1  0  0  0  0
  5  4  1  0  0  0  0
 11 15  2  0  0  0  0
M  END
> <IDNUMBER>
F3023-0835

> <Chemical_Name>
3-[(4-ethoxyphenyl)amino]-1-(2-methoxyethyl)pyrrolidine-2,5-dione

> <CAS>
1009482-74-9

> <PriceCoeff>
1.00

> <MW>
292.33

> <Description>
solid

> <FSP3>
0.47

> <clogP>
2.54

> <TPSA>
67.87

> <Acceptor>
5

> <Donor>
1

> <RotBonds>
7

> <HAC>
21

> <Collection>
General

$$$$
F3023-0907
  -ISIS-  06222321462D

 23 25  0  0  0  0  0  0  0  0999 V2000
    3.5167   -6.0292    0.0000 N   0  0  3  0  0  0  0  0  0  0  0  0
    3.9375   -6.6000    0.0000 C   0  0  0  0  0  0  0  0  0  0  0  0
    3.9292   -5.4542    0.0000 C   0  0  0  0  0  0  0  0  0  0  0  0
    4.6125   -6.3792    0.0000 C   0  0  3  0  0  0  0  0  0  0  0  0
    4.6042   -5.6667    0.0000 C   0  0  0  0  0  0  0  0  0  0  0  0
    5.1792   -6.7917    0.0000 N   0  0  3  0  0  0  0  0  0  0  0  0
    6.3292   -7.6250    0.0000 N   0  0  3  0  0  0  0  0  0  0  0  0
    3.7250   -7.2750    0.0000 O   0  0  0  0  0  0  0  0  0  0  0  0
    3.7042   -4.7792    0.0000 O   0  0  0  0  0  0  0  0  0  0  0  0
    5.1042   -7.4917    0.0000 C   0  0  0  0  0  0  0  0  0  0  0  0
    5.8292   -6.5000    0.0000 C   0  0  0  0  0  0  0  0  0  0  0  0
    6.9000   -8.0417    0.0000 C   0  0  0  0  0  0  0  0  0  0  0  0
    5.6792   -7.9125    0.0000 C   0  0  0  0  0  0  0  0  0  0  0  0
    6.4042   -6.9167    0.0000 C   0  0  0  0  0  0  0  0  0  0  0  0
    2.8042   -6.0292    0.0000 C   0  0  0  0  0  0  0  0  0  0  0  0
    7.5417   -7.7500    0.0000 C   0  0  0  0  0  0  0  0  0  0  0  0
    8.1167   -8.1667    0.0000 C   0  0  0  0  0  0  0  0  0  0  0  0
    7.6167   -7.0500    0.0000 C   0  0  0  0  0  0  0  0  0  0  0  0
    2.4542   -6.6500    0.0000 C   0  0  0  0  0  0  0  0  0  0  0  0
    1.7500   -6.6542    0.0000 C   0  0  0  0  0  0  0  0  0  0  0  0
    8.2542   -6.7542    0.0000 C   0  0  0  0  0  0  0  0  0  0  0  0
    8.7625   -7.8792    0.0000 C   0  0  0  0  0  0  0  0  0  0  0  0
    8.8375   -7.1750    0.0000 C   0  0  0  0  0  0  0  0  0  0  0  0
  2  1  1  0  0  0  0
  3  1  1  0  0  0  0
  4  2  1  0  0  0  0
  5  3  1  0  0  0  0
  6  4  1  0  0  0  0
  7 14  1  0  0  0  0
  8  2  2  0  0  0  0
  9  3  2  0  0  0  0
 10  6  1  0  0  0  0
 11  6  1  0  0  0  0
 12  7  1  0  0  0  0
 13 10  1  0  0  0  0
 14 11  1  0  0  0  0
 15  1  1  0  0  0  0
 16 12  1  0  0  0  0
 17 16  2  0  0  0  0
 18 16  1  0  0  0  0
 19 15  1  0  0  0  0
 20 19  1  0  0  0  0
 21 18  2  0  0  0  0
 22 17  1  0  0  0  0
 23 21  1  0  0  0  0
  5  4  1  0  0  0  0
  7 13  1  0  0  0  0
 23 22  2  0  0  0  0
M  END
> <IDNUMBER>
F3023-0907

> <Chemical_Name>
3-(4-benzylpiperazin-1-yl)-1-propylpyrrolidine-2,5-dione

> <CAS>
857494-20-3

> <PriceCoeff>
1.00

> <MW>
315.41

> <Description>
solid

> <FSP3>
0.56

> <clogP>
3.70

> <TPSA>
43.86

> <Acceptor>
4

> <Donor>
2

> <RotBonds>
5

> <HAC>
23

> <Collection>
General

$$$$
F0440-0367
  -ISIS-  06222321142D

 20 21  0  0  0  0  0  0  0  0999 V2000
    1.5000   -1.1000    0.0000 N   0  0  3  0  0  0  0  0  0  0  0  0
    1.4792   -0.4792    0.0000 C   0  0  0  0  0  0  0  0  0  0  0  0
    2.1000   -1.2792    0.0000 C   0  0  0  0  0  0  0  0  0  0  0  0
    0.4167   -1.3542    0.0000 C   0  0  0  0  0  0  0  0  0  0  0  0
    1.0167   -1.5500    0.0000 C   0  0  0  0  0  0  0  0  0  0  0  0
   -0.0333   -1.8000    0.0000 N   0  0  0  0  0  0  0  0  0  0  0  0
   -2.5333   -1.1500    0.0000 C   0  0  0  0  0  0  0  0  0  0  0  0
   -1.8958   -1.2792    0.0000 C   0  0  0  0  0  0  0  0  0  0  0  0
    2.0792   -0.2542    0.0000 C   0  0  0  0  0  0  0  0  0  0  0  0
    2.4542   -0.7542    0.0000 C   0  0  0  0  0  0  0  0  0  0  0  0
    0.9500   -0.1167    0.0000 O   0  0  0  0  0  0  0  0  0  0  0  0
    2.3167   -1.9000    0.0000 O   0  0  0  0  0  0  0  0  0  0  0  0
    0.2542   -0.7500    0.0000 O   0  0  0  0  0  0  0  0  0  0  0  0
   -2.7333   -0.5167    0.0000 O   0  0  0  0  0  0  0  0  0  0  0  0
   -1.4333   -0.8500    0.0000 C   0  0  0  0  0  0  0  0  0  0  0  0
   -1.7333   -1.8792    0.0000 C   0  0  0  0  0  0  0  0  0  0  0  0
   -0.6500   -1.6167    0.0000 C   0  0  0  0  0  0  0  0  0  0  0  0
   -0.8333   -1.0000    0.0000 C   0  0  0  0  0  0  0  0  0  0  0  0
   -1.1125   -2.0542    0.0000 C   0  0  0  0  0  0  0  0  0  0  0  0
   -2.9708   -1.6167    0.0000 C   0  0  0  0  0  0  0  0  0  0  0  0
  2  1  1  0  0  0  0
  3  1  1  0  0  0  0
  4  5  1  0  0  0  0
  5  1  1  0  0  0  0
  6  4  1  0  0  0  0
  7  8  1  0  0  0  0
  8 16  1  0  0  0  0
  9  2  1  0  0  0  0
 10  3  1  0  0  0  0
 11  2  2  0  0  0  0
 12  3  2  0  0  0  0
 13  4  2  0  0  0  0
 14  7  2  0  0  0  0
 15 18  1  0  0  0  0
 16 19  2  0  0  0  0
 17  6  1  0  0  0  0
 18 17  2  0  0  0  0
 19 17  1  0  0  0  0
 20  7  1  0  0  0  0
 10  9  1  0  0  0  0
  8 15  2  0  0  0  0
M  END
> <IDNUMBER>
F0440-0367

> <Chemical_Name>
N-(4-acetylphenyl)-2-(2,5-dioxopyrrolidin-1-yl)acetamide

> <CAS>
163487-73-8

> <PriceCoeff>
1.00

> <MW>
274.27

> <Description>
solid

> <FSP3>
0.29

> <clogP>
0.52

> <TPSA>
83.55

> <Acceptor>
4

> <Donor>
1

> <RotBonds>
4

> <HAC>
20

> <Collection>
General

$$$$
F0440-0381
  -ISIS-  06222321142D

 25 27  0  0  0  0  0  0  0  0999 V2000
   -0.2833   -2.2792    0.0000 C   0  0  0  0  0  0  0  0  0  0  0  0
   -0.5458   -2.7167    0.0000 C   0  0  0  0  0  0  0  0  0  0  0  0
   -0.8833   -0.9042    0.0000 N   0  0  3  0  0  0  0  0  0  0  0  0
    0.2000   -2.3792    0.0000 S   0  0  0  0  0  0  0  0  0  0  0  0
   -0.2000   -3.1000    0.0000 C   0  0  0  0  0  0  0  0  0  0  0  0
    0.2500   -2.9000    0.0000 C   0  0  0  0  0  0  0  0  0  0  0  0
   -0.4833   -1.8167    0.0000 N   0  0  0  0  0  0  0  0  0  0  0  0
   -1.2208   -1.3000    0.0000 C   0  0  0  0  0  0  0  0  0  0  0  0
   -1.1333   -0.4667    0.0000 C   0  0  0  0  0  0  0  0  0  0  0  0
   -1.0625   -2.7500    0.0000 C   0  0  0  0  0  0  0  0  0  0  0  0
   -0.1833   -1.4167    0.0000 C   0  0  0  0  0  0  0  0  0  0  0  0
   -0.3833   -0.9542    0.0000 C   0  0  0  0  0  0  0  0  0  0  0  0
   -1.6708   -1.0542    0.0000 C   0  0  0  0  0  0  0  0  0  0  0  0
   -1.6125   -0.5667    0.0000 C   0  0  0  0  0  0  0  0  0  0  0  0
   -1.1000   -1.8042    0.0000 O   0  0  0  0  0  0  0  0  0  0  0  0
   -0.8958   -0.0042    0.0000 O   0  0  0  0  0  0  0  0  0  0  0  0
   -1.3208   -2.3167    0.0000 O   0  0  0  0  0  0  0  0  0  0  0  0
    0.3042   -1.4792    0.0000 O   0  0  0  0  0  0  0  0  0  0  0  0
   -1.2833   -3.2000    0.0000 O   0  0  0  0  0  0  0  0  0  0  0  0
   -0.2625   -3.6000    0.0000 C   0  0  0  0  0  0  0  0  0  0  0  0
    0.6500   -3.2000    0.0000 C   0  0  0  0  0  0  0  0  0  0  0  0
   -1.7833   -3.2167    0.0000 C   0  0  0  0  0  0  0  0  0  0  0  0
    0.1292   -3.9000    0.0000 C   0  0  0  0  0  0  0  0  0  0  0  0
    0.6000   -3.7000    0.0000 C   0  0  0  0  0  0  0  0  0  0  0  0
   -2.0000   -3.6792    0.0000 C   0  0  0  0  0  0  0  0  0  0  0  0
  2  1  2  0  0  0  0
  3 12  1  0  0  0  0
  4  1  1  0  0  0  0
  5  2  1  0  0  0  0
  6  4  1  0  0  0  0
  7  1  1  0  0  0  0
  8  3  1  0  0  0  0
  9  3  1  0  0  0  0
 10  2  1  0  0  0  0
 11  7  1  0  0  0  0
 12 11  1  0  0  0  0
 13  8  1  0  0  0  0
 14  9  1  0  0  0  0
 15  8  2  0  0  0  0
 16  9  2  0  0  0  0
 17 10  2  0  0  0  0
 18 11  2  0  0  0  0
 19 10  1  0  0  0  0
 20  5  1  0  0  0  0
 21  6  1  0  0  0  0
 22 19  1  0  0  0  0
 23 20  1  0  0  0  0
 24 21  1  0  0  0  0
 25 22  1  0  0  0  0
  6  5  2  0  0  0  0
 24 23  1  0  0  0  0
 14 13  1  0  0  0  0
M  END
> <IDNUMBER>
F0440-0381

> <Chemical_Name>
ethyl 2-[2-(2,5-dioxopyrrolidin-1-yl)acetamido]-4,5,6,7-tetrahydro-1-benzothiophene-3-carboxylate

> <CAS>
296799-50-3

> <PriceCoeff>
1.00

> <MW>
364.42

> <Description>
solid

> <FSP3>
0.53

> <clogP>
2.88

> <TPSA>
121.02

> <Acceptor>
5

> <Donor>
1

> <RotBonds>
6

> <HAC>
25

> <Collection>
General

$$$$
F1800-0184
  -ISIS-  06222321142D

 22 23  0  0  0  0  0  0  0  0999 V2000
   -3.7250    2.3000    0.0000 N   0  0  3  0  0  0  0  0  0  0  0  0
   -3.3500    2.9583    0.0000 C   0  0  0  0  0  0  0  0  0  0  0  0
   -3.3500    1.6583    0.0000 C   0  0  0  0  0  0  0  0  0  0  0  0
   -2.2250    2.3000    0.0000 S   0  0  0  0  0  0  0  0  0  0  0  0
   -4.8500    2.9458    0.0000 C   0  0  0  0  0  0  0  0  0  0  0  0
   -4.4750    2.3000    0.0000 C   0  0  0  0  0  0  0  0  0  0  0  0
   -5.6000    2.9458    0.0000 N   0  0  0  0  0  0  0  0  0  0  0  0
   -2.6000    2.9583    0.0000 C   0  0  3  0  0  0  0  0  0  0  0  0
   -5.9750    3.5958    0.0000 C   0  0  0  0  0  0  0  0  0  0  0  0
   -2.6000    1.6583    0.0000 C   0  0  0  0  0  0  0  0  0  0  0  0
   -3.7333    3.6083    0.0000 O   0  0  0  0  0  0  0  0  0  0  0  0
   -3.7333    1.0000    0.0000 O   0  0  0  0  0  0  0  0  0  0  0  0
   -4.4750    3.5958    0.0000 O   0  0  0  0  0  0  0  0  0  0  0  0
   -6.7167    3.5958    0.0000 C   0  0  0  0  0  0  0  0  0  0  0  0
   -7.1042    2.9375    0.0000 O   0  0  0  0  0  0  0  0  0  0  0  0
   -5.6000    4.2292    0.0000 C   0  0  0  0  0  0  0  0  0  0  0  0
   -2.2208    3.6083    0.0000 C   0  0  0  0  0  0  0  0  0  0  0  0
   -7.0917    4.2292    0.0000 C   0  0  0  0  0  0  0  0  0  0  0  0
   -6.7417    2.2833    0.0000 C   0  0  0  0  0  0  0  0  0  0  0  0
   -7.1167    1.6333    0.0000 C   0  0  0  0  0  0  0  0  0  0  0  0
   -5.9750    4.8875    0.0000 C   0  0  0  0  0  0  0  0  0  0  0  0
   -6.7167    4.8875    0.0000 C   0  0  0  0  0  0  0  0  0  0  0  0
  2  1  1  0  0  0  0
  3  1  1  0  0  0  0
  4 10  1  0  0  0  0
  5  6  1  0  0  0  0
  6  1  1  0  0  0  0
  7  5  1  0  0  0  0
  8  2  1  0  0  0  0
  9  7  1  0  0  0  0
 10  3  1  0  0  0  0
 11  2  2  0  0  0  0
 12  3  2  0  0  0  0
 13  5  2  0  0  0  0
 14  9  2  0  0  0  0
 15 14  1  0  0  0  0
 16  9  1  0  0  0  0
 17  8  1  0  0  0  0
 18 14  1  0  0  0  0
 19 15  1  0  0  0  0
 20 19  1  0  0  0  0
 21 16  2  0  0  0  0
 22 21  1  0  0  0  0
  8  4  1  0  0  0  0
 22 18  2  0  0  0  0
M  END
> <IDNUMBER>
F1800-0184

> <Chemical_Name>
N-(2-ethoxyphenyl)-2-(2-methyl-3,5-dioxothiomorpholin-4-yl)acetamide

> <CAS>
868216-05-1

> <PriceCoeff>
1.00

> <MW>
322.38

> <Description>
solid

> <FSP3>
0.40

> <clogP>
1.99

> <TPSA>
101.01

> <Acceptor>
4

> <Donor>
1

> <RotBonds>
5

> <HAC>
22

> <Collection>
General

$$$$
F5476-0546
  -ISIS-  06222321442D

 26 28  0  0  0  0  0  0  0  0999 V2000
   -3.1458    6.2792    0.0000 C   0  0  0  0  0  0  0  0  0  0  0  0
   -5.2833    2.5708    0.0000 N   0  0  3  0  0  0  0  0  0  0  0  0
   -3.8208    6.7625    0.0000 C   0  0  0  0  0  0  0  0  0  0  0  0
   -3.5708    7.5542    0.0000 N   0  0  3  0  0  0  0  0  0  0  0  0
   -2.4833    6.7667    0.0000 C   0  0  0  0  0  0  0  0  0  0  0  0
   -2.7375    7.5542    0.0000 C   0  0  0  0  0  0  0  0  0  0  0  0
   -5.3625    1.7458    0.0000 C   0  0  0  0  0  0  0  0  0  0  0  0
   -6.0292    2.9000    0.0000 C   0  0  0  0  0  0  0  0  0  0  0  0
   -3.1500    5.4542    0.0000 C   0  0  3  0  0  0  0  0  0  0  0  0
   -4.5708    2.9875    0.0000 C   0  0  0  0  0  0  0  0  0  0  0  0
   -4.5708    3.8000    0.0000 C   0  0  0  0  0  0  0  0  0  0  0  0
   -3.8583    5.0333    0.0000 C   0  0  0  0  0  0  0  0  0  0  0  0
   -3.8583    4.2125    0.0000 N   0  0  0  0  0  0  0  0  0  0  0  0
   -2.4333    5.0417    0.0000 N   0  0  3  0  0  0  0  0  0  0  0  0
   -6.1667    1.5708    0.0000 C   0  0  0  0  0  0  0  0  0  0  0  0
   -6.5750    2.2833    0.0000 C   0  0  0  0  0  0  0  0  0  0  0  0
   -4.7458    1.1833    0.0000 O   0  0  0  0  0  0  0  0  0  0  0  0
   -6.2042    3.7083    0.0000 O   0  0  0  0  0  0  0  0  0  0  0  0
   -5.2958    4.2125    0.0000 O   0  0  0  0  0  0  0  0  0  0  0  0
   -4.0625    8.2167    0.0000 C   0  0  0  0  0  0  0  0  0  0  0  0
   -1.6750    6.5917    0.0000 C   0  0  0  0  0  0  0  0  0  0  0  0
   -2.1958    8.1667    0.0000 C   0  0  0  0  0  0  0  0  0  0  0  0
   -2.4333    4.2125    0.0000 C   0  0  0  0  0  0  0  0  0  0  0  0
   -1.7208    5.4542    0.0000 C   0  0  0  0  0  0  0  0  0  0  0  0
   -1.1333    7.2167    0.0000 C   0  0  0  0  0  0  0  0  0  0  0  0
   -1.3833    8.0042    0.0000 C   0  0  0  0  0  0  0  0  0  0  0  0
  2 10  1  0  0  0  0
  3  1  2  0  0  0  0
  4  3  1  0  0  0  0
  5  1  1  0  0  0  0
  6  5  1  0  0  0  0
  7  2  1  0  0  0  0
  8  2  1  0  0  0  0
  9  1  1  0  0  0  0
 10 11  1  0  0  0  0
 11 13  1  0  0  0  0
 12  9  1  0  0  0  0
 13 12  1  0  0  0  0
 14  9  1  0  0  0  0
 15  7  1  0  0  0  0
 16  8  1  0  0  0  0
 17  7  2  0  0  0  0
 18  8  2  0  0  0  0
 19 11  2  0  0  0  0
 20  4  1  0  0  0  0
 21  5  2  0  0  0  0
 22  6  2  0  0  0  0
 23 14  1  0  0  0  0
 24 14  1  0  0  0  0
 25 21  1  0  0  0  0
 26 25  2  0  0  0  0
  4  6  1  0  0  0  0
 26 22  1  0  0  0  0
 15 16  1  0  0  0  0
M  END
> <IDNUMBER>
F5476-0546

> <Chemical_Name>
N-[2-(dimethylamino)-2-(1-methyl-1H-indol-3-yl)ethyl]-2-(2,5-dioxopyrrolidin-1-yl)acetamide

> <CAS>
1396768-58-3

> <PriceCoeff>
1.00

> <MW>
356.42

> <Description>
solid

> <FSP3>
0.42

> <clogP>
1.49

> <TPSA>
74.65

> <Acceptor>
3

> <Donor>
2

> <RotBonds>
6

> <HAC>
26

> <Collection>
General

$$$$
F1800-0176
  -ISIS-  06222321452D

 20 21  0  0  0  0  0  0  0  0999 V2000
   -3.7250    2.3000    0.0000 N   0  0  3  0  0  0  0  0  0  0  0  0
   -3.3500    2.9583    0.0000 C   0  0  0  0  0  0  0  0  0  0  0  0
   -3.3500    1.6583    0.0000 C   0  0  0  0  0  0  0  0  0  0  0  0
   -2.2250    2.3000    0.0000 S   0  0  0  0  0  0  0  0  0  0  0  0
   -4.4750    2.3000    0.0000 C   0  0  0  0  0  0  0  0  0  0  0  0
   -4.8500    2.9458    0.0000 C   0  0  0  0  0  0  0  0  0  0  0  0
   -2.6000    2.9583    0.0000 C   0  0  3  0  0  0  0  0  0  0  0  0
   -2.6000    1.6583    0.0000 C   0  0  0  0  0  0  0  0  0  0  0  0
   -5.6000    2.9458    0.0000 N   0  0  0  0  0  0  0  0  0  0  0  0
   -3.7333    3.6083    0.0000 O   0  0  0  0  0  0  0  0  0  0  0  0
   -3.7333    1.0000    0.0000 O   0  0  0  0  0  0  0  0  0  0  0  0
   -4.4750    3.5958    0.0000 O   0  0  0  0  0  0  0  0  0  0  0  0
   -5.9750    3.5875    0.0000 C   0  0  0  0  0  0  0  0  0  0  0  0
   -6.7167    4.8917    0.0000 C   0  0  0  0  0  0  0  0  0  0  0  0
   -7.0917    5.5417    0.0000 Br  0  0  0  0  0  0  0  0  0  0  0  0
   -5.6000    4.2417    0.0000 C   0  0  0  0  0  0  0  0  0  0  0  0
   -6.7167    3.5958    0.0000 C   0  0  0  0  0  0  0  0  0  0  0  0
   -7.0917    4.2292    0.0000 C   0  0  0  0  0  0  0  0  0  0  0  0
   -5.9750    4.8917    0.0000 C   0  0  0  0  0  0  0  0  0  0  0  0
   -2.2208    3.6083    0.0000 C   0  0  0  0  0  0  0  0  0  0  0  0
  2  1  1  0  0  0  0
  3  1  1  0  0  0  0
  4  8  1  0  0  0  0
  5  1  1  0  0  0  0
  6  5  1  0  0  0  0
  7  2  1  0  0  0  0
  8  3  1  0  0  0  0
  9  6  1  0  0  0  0
 10  2  2  0  0  0  0
 11  3  2  0  0  0  0
 12  6  2  0  0  0  0
 13  9  1  0  0  0  0
 14 18  1  0  0  0  0
 15 14  1  0  0  0  0
 16 13  2  0  0  0  0
 17 13  1  0  0  0  0
 18 17  2  0  0  0  0
 19 16  1  0  0  0  0
 20  7  1  0  0  0  0
  4  7  1  0  0  0  0
 19 14  2  0  0  0  0
M  END
> <IDNUMBER>
F1800-0176

> <Chemical_Name>
N-(4-bromophenyl)-2-(2-methyl-3,5-dioxothiomorpholin-4-yl)acetamide

> <CAS>
868215-97-8

> <PriceCoeff>
1.00

> <MW>
357.22

> <Description>
solid

> <FSP3>
0.31

> <clogP>
3.09

> <TPSA>
91.78

> <Acceptor>
3

> <Donor>
1

> <RotBonds>
3

> <HAC>
20

> <Collection>
General

$$$$
F3222-1846
  -ISIS-  06222321152D

 27 30  0  0  0  0  0  0  0  0999 V2000
    1.3417    0.0500    0.0000 C   0  0  0  0  0  0  0  0  0  0  0  0
    1.3500   -0.7792    0.0000 C   0  0  0  0  0  0  0  0  0  0  0  0
    2.7667    0.0458    0.0000 N   0  0  3  0  0  0  0  0  0  0  0  0
    2.0542   -1.1875    0.0000 N   0  0  0  0  0  0  0  0  0  0  0  0
    2.7667   -0.7792    0.0000 C   0  0  0  0  0  0  0  0  0  0  0  0
    2.0542    0.4625    0.0000 C   0  0  0  0  0  0  0  0  0  0  0  0
    0.5542    0.3083    0.0000 C   0  0  0  0  0  0  0  0  0  0  0  0
    0.0625   -0.3667    0.0000 C   0  0  0  0  0  0  0  0  0  0  0  0
    0.5542   -1.0417    0.0000 S   0  0  0  0  0  0  0  0  0  0  0  0
   -1.1125    0.4833    0.0000 N   0  0  3  0  0  0  0  0  0  0  0  0
   -0.7708   -0.2792    0.0000 C   0  0  0  0  0  0  0  0  0  0  0  0
   -1.9333    0.5708    0.0000 C   0  0  0  0  0  0  0  0  0  0  0  0
    3.4750    0.4500    0.0000 C   0  0  0  0  0  0  0  0  0  0  0  0
    0.2167    1.0708    0.0000 C   0  0  0  0  0  0  0  0  0  0  0  0
    2.0542    1.2750    0.0000 O   0  0  0  0  0  0  0  0  0  0  0  0
   -0.6208    1.1625    0.0000 C   0  0  0  0  0  0  0  0  0  0  0  0
    3.4750   -1.1917    0.0000 S   0  0  0  0  0  0  0  0  0  0  0  0
   -2.4083   -0.0917    0.0000 O   0  0  0  0  0  0  0  0  0  0  0  0
    3.4750    1.2708    0.0000 C   0  0  0  0  0  0  0  0  0  0  0  0
    4.1792    0.0333    0.0000 C   0  0  0  0  0  0  0  0  0  0  0  0
    4.9042    1.2708    0.0000 C   0  0  0  0  0  0  0  0  0  0  0  0
    4.1792    1.6750    0.0000 C   0  0  0  0  0  0  0  0  0  0  0  0
    4.9000    0.4375    0.0000 C   0  0  0  0  0  0  0  0  0  0  0  0
    5.6167    1.6833    0.0000 O   0  0  0  0  0  0  0  0  0  0  0  0
   -2.2583    1.3208    0.0000 C   0  0  0  0  0  0  0  0  0  0  0  0
    3.4750   -2.0125    0.0000 C   0  0  0  0  0  0  0  0  0  0  0  0
    5.6167    2.5083    0.0000 C   0  0  0  0  0  0  0  0  0  0  0  0
  2  1  2  0  0  0  0
  3  6  1  0  0  0  0
  4  2  1  0  0  0  0
  5  3  1  0  0  0  0
  6  1  1  0  0  0  0
  7  1  1  0  0  0  0
  8  7  2  0  0  0  0
  9  2  1  0  0  0  0
 10 16  1  0  0  0  0
 11  8  1  0  0  0  0
 12 10  1  0  0  0  0
 13  3  1  0  0  0  0
 14  7  1  0  0  0  0
 15  6  2  0  0  0  0
 16 14  1  0  0  0  0
 17  5  1  0  0  0  0
 18 12  2  0  0  0  0
 19 13  1  0  0  0  0
 20 13  2  0  0  0  0
 21 23  2  0  0  0  0
 22 19  2  0  0  0  0
 23 20  1  0  0  0  0
 24 21  1  0  0  0  0
 25 12  1  0  0  0  0
 26 17  1  0  0  0  0
 27 24  1  0  0  0  0
  8  9  1  0  0  0  0
 10 11  1  0  0  0  0
  4  5  2  0  0  0  0
 22 21  1  0  0  0  0
M  END
> <IDNUMBER>
F3222-1846

> <Chemical_Name>
11-acetyl-4-(4-methoxyphenyl)-5-(methylsulfanyl)-8-thia-4,6,11-triazatricyclo[7.4.0.0^{2,7}]trideca-1(9),2(7),5-trien-3-one

> <CAS>
892301-26-7

> <PriceCoeff>
1.00

> <MW>
401.50

> <Description>
solid

> <FSP3>
0.32

> <clogP>
2.15

> <TPSA>
115.75

> <Acceptor>
4

> <Donor>
0

> <RotBonds>
4

> <HAC>
27

> <Collection>
General

> <Reference_compound>
CHEMBL577016

> <Similarity>
0.9070

$$$$
F5065-0008
  -ISIS-  06222321462D

 27 30  0  0  0  0  0  0  0  0999 V2000
   -3.3125   -1.1417    0.0000 C   0  0  0  0  0  0  0  0  0  0  0  0
   -4.0958   -0.8917    0.0000 N   0  0  0  0  0  0  0  0  0  0  0  0
   -3.3083   -1.9667    0.0000 C   0  0  0  0  0  0  0  0  0  0  0  0
   -4.5833   -1.5625    0.0000 N   0  0  0  0  0  0  0  0  0  0  0  0
   -4.0958   -2.2292    0.0000 N   0  0  3  0  0  0  0  0  0  0  0  0
   -2.5958   -0.7292    0.0000 C   0  0  0  0  0  0  0  0  0  0  0  0
   -2.6000    2.5625    0.0000 C   0  0  0  0  0  0  0  0  0  0  0  0
   -2.6000    1.7375    0.0000 N   0  0  3  0  0  0  0  0  0  0  0  0
   -2.6000    0.0875    0.0000 N   0  0  3  0  0  0  0  0  0  0  0  0
   -2.5958   -2.3792    0.0000 N   0  0  0  0  0  0  0  0  0  0  0  0
   -1.8833   -1.1417    0.0000 N   0  0  0  0  0  0  0  0  0  0  0  0
   -1.8833    2.9833    0.0000 N   0  0  0  0  0  0  0  0  0  0  0  0
   -0.4583    1.3208    0.0000 C   0  0  0  0  0  0  0  0  0  0  0  0
   -1.1708    1.7333    0.0000 C   0  0  0  0  0  0  0  0  0  0  0  0
   -1.8833   -1.9667    0.0000 C   0  0  0  0  0  0  0  0  0  0  0  0
   -1.1708    2.5625    0.0000 C   0  0  0  0  0  0  0  0  0  0  0  0
   -3.3125    2.9833    0.0000 O   0  0  0  0  0  0  0  0  0  0  0  0
   -1.8875    1.3250    0.0000 C   0  0  0  0  0  0  0  0  0  0  0  0
   -3.3208    1.3250    0.0000 C   0  0  0  0  0  0  0  0  0  0  0  0
   -1.8833    0.5000    0.0000 C   0  0  0  0  0  0  0  0  0  0  0  0
   -3.3208    0.4958    0.0000 C   0  0  0  0  0  0  0  0  0  0  0  0
    0.2667    1.7333    0.0000 C   0  0  0  0  0  0  0  0  0  0  0  0
    0.2667    2.5500    0.0000 C   0  0  0  0  0  0  0  0  0  0  0  0
   -0.4583    0.4958    0.0000 Cl  0  0  0  0  0  0  0  0  0  0  0  0
   -0.4458    2.9833    0.0000 C   0  0  0  0  0  0  0  0  0  0  0  0
    0.9792    1.3208    0.0000 Cl  0  0  0  0  0  0  0  0  0  0  0  0
   -4.3458   -3.0125    0.0000 C   0  0  0  0  0  0  0  0  0  0  0  0
  2  1  1  0  0  0  0
  3  1  2  0  0  0  0
  4  2  2  0  0  0  0
  5  3  1  0  0  0  0
  6  1  1  0  0  0  0
  7  8  1  0  0  0  0
  8 19  1  0  0  0  0
  9  6  1  0  0  0  0
 10  3  1  0  0  0  0
 11  6  2  0  0  0  0
 12  7  1  0  0  0  0
 13 14  1  0  0  0  0
 14 16  2  0  0  0  0
 15 11  1  0  0  0  0
 16 12  1  0  0  0  0
 17  7  2  0  0  0  0
 18 20  1  0  0  0  0
 19 21  1  0  0  0  0
 20  9  1  0  0  0  0
 21  9  1  0  0  0  0
 22 23  1  0  0  0  0
 23 25  2  0  0  0  0
 24 13  1  0  0  0  0
 25 16  1  0  0  0  0
 26 22  1  0  0  0  0
 27  5  1  0  0  0  0
  5  4  1  0  0  0  0
 15 10  2  0  0  0  0
  8 18  1  0  0  0  0
 22 13  2  0  0  0  0
M  END
> <IDNUMBER>
F5065-0008

> <Chemical_Name>
N-(3,4-dichlorophenyl)-4-{3-methyl-3H-[1,2,3]triazolo[4,5-d]pyrimidin-7-yl}piperazine-1-carboxamide

> <CAS>
1058205-80-3

> <PriceCoeff>
1.50

> <MW>
407.26

> <Description>
solid

> <FSP3>
0.31

> <clogP>
2.36

> <TPSA>
92.07

> <Acceptor>
5

> <Donor>
2

> <RotBonds>
3

> <HAC>
27

> <Collection>
Advanced

$$$$
F5854-1753
  -ISIS-  06222321152D

 25 27  0  0  0  0  0  0  0  0999 V2000
   -5.2833    2.5708    0.0000 N   0  0  3  0  0  0  0  0  0  0  0  0
   -4.5708    2.9875    0.0000 C   0  0  0  0  0  0  0  0  0  0  0  0
   -6.0292    2.9000    0.0000 C   0  0  0  0  0  0  0  0  0  0  0  0
   -5.3625    1.7458    0.0000 C   0  0  0  0  0  0  0  0  0  0  0  0
   -4.5708    3.8000    0.0000 C   0  0  0  0  0  0  0  0  0  0  0  0
   -3.8583    4.2125    0.0000 N   0  0  3  0  0  0  0  0  0  0  0  0
   -1.7083    3.8000    0.0000 C   0  0  0  0  0  0  0  0  0  0  0  0
   -0.9458    4.1042    0.0000 S   0  0  0  0  0  0  0  0  0  0  0  0
   -3.8583    5.0292    0.0000 C   0  0  0  0  0  0  0  0  0  0  0  0
   -5.2958    4.2125    0.0000 O   0  0  0  0  0  0  0  0  0  0  0  0
   -6.5750    2.2833    0.0000 C   0  0  0  0  0  0  0  0  0  0  0  0
   -6.1667    1.5708    0.0000 C   0  0  0  0  0  0  0  0  0  0  0  0
   -6.2042    3.7083    0.0000 O   0  0  0  0  0  0  0  0  0  0  0  0
   -4.7458    1.1833    0.0000 O   0  0  0  0  0  0  0  0  0  0  0  0
   -3.1458    3.8083    0.0000 C   0  0  0  0  0  0  0  0  0  0  0  0
   -0.4083    3.4958    0.0000 C   0  0  0  0  0  0  0  0  0  0  0  0
   -2.4250    4.2042    0.0000 C   0  0  0  0  0  0  0  0  0  0  0  0
   -1.6250    2.9708    0.0000 C   0  0  0  0  0  0  0  0  0  0  0  0
   -5.9958    5.4500    0.0000 N   0  0  0  0  0  0  0  0  0  0  0  0
   -0.8250    2.7958    0.0000 C   0  0  0  0  0  0  0  0  0  0  0  0
   -4.5708    5.4417    0.0000 C   0  0  0  0  0  0  0  0  0  0  0  0
   -5.2833    5.0292    0.0000 C   0  0  0  0  0  0  0  0  0  0  0  0
   -5.9958    6.2792    0.0000 C   0  0  0  0  0  0  0  0  0  0  0  0
   -4.5625    6.2667    0.0000 C   0  0  0  0  0  0  0  0  0  0  0  0
   -5.2875    6.7042    0.0000 C   0  0  0  0  0  0  0  0  0  0  0  0
  2  1  1  0  0  0  0
  3  1  1  0  0  0  0
  4  1  1  0  0  0  0
  5  2  1  0  0  0  0
  6  5  1  0  0  0  0
  7 17  1  0  0  0  0
  8  7  1  0  0  0  0
  9  6  1  0  0  0  0
 10  5  2  0  0  0  0
 11  3  1  0  0  0  0
 12  4  1  0  0  0  0
 13  3  2  0  0  0  0
 14  4  2  0  0  0  0
 15  6  1  0  0  0  0
 16  8  1  0  0  0  0
 17 15  1  0  0  0  0
 18  7  2  0  0  0  0
 19 22  1  0  0  0  0
 20 18  1  0  0  0  0
 21  9  1  0  0  0  0
 22 21  2  0  0  0  0
 23 25  1  0  0  0  0
 24 21  1  0  0  0  0
 25 24  2  0  0  0  0
 12 11  1  0  0  0  0
 20 16  2  0  0  0  0
 19 23  2  0  0  0  0
M  END
> <IDNUMBER>
F5854-1753

> <Chemical_Name>
2-(2,5-dioxopyrrolidin-1-yl)-N-[(pyridin-3-yl)methyl]-N-[2-(thiophen-2-yl)ethyl]acetamide

> <CAS>
1396715-03-9

> <PriceCoeff>
1.00

> <MW>
357.43

> <Description>
oil

> <FSP3>
0.33

> <clogP>
1.14

> <TPSA>
98.82

> <Acceptor>
4

> <Donor>
1

> <RotBonds>
8

> <HAC>
25

> <Collection>
General

$$$$
F0440-0368
  -ISIS-  06222321442D

 20 21  0  0  0  0  0  0  0  0999 V2000
    0.6000   -2.2500    0.0000 N   0  0  3  0  0  0  0  0  0  0  0  0
    1.1292   -2.5500    0.0000 C   0  0  0  0  0  0  0  0  0  0  0  0
    0.1292   -2.6542    0.0000 C   0  0  0  0  0  0  0  0  0  0  0  0
   -0.1208   -1.4542    0.0000 C   0  0  0  0  0  0  0  0  0  0  0  0
    0.4500   -1.6500    0.0000 C   0  0  0  0  0  0  0  0  0  0  0  0
   -0.2625   -0.8500    0.0000 N   0  0  0  0  0  0  0  0  0  0  0  0
   -1.9458   -0.8167    0.0000 C   0  0  0  0  0  0  0  0  0  0  0  0
   -2.4458   -1.2000    0.0000 C   0  0  0  0  0  0  0  0  0  0  0  0
    1.0042   -3.1542    0.0000 C   0  0  0  0  0  0  0  0  0  0  0  0
    0.4000   -3.2167    0.0000 C   0  0  0  0  0  0  0  0  0  0  0  0
   -1.3458   -1.0500    0.0000 C   0  0  0  0  0  0  0  0  0  0  0  0
    1.7042   -2.2792    0.0000 O   0  0  0  0  0  0  0  0  0  0  0  0
   -0.4833   -2.5500    0.0000 O   0  0  0  0  0  0  0  0  0  0  0  0
   -0.8625   -0.6500    0.0000 C   0  0  0  0  0  0  0  0  0  0  0  0
   -0.5833   -1.8792    0.0000 O   0  0  0  0  0  0  0  0  0  0  0  0
   -3.0208   -0.9542    0.0000 O   0  0  0  0  0  0  0  0  0  0  0  0
   -2.0458   -0.2000    0.0000 C   0  0  0  0  0  0  0  0  0  0  0  0
   -1.5458    0.1958    0.0000 C   0  0  0  0  0  0  0  0  0  0  0  0
   -0.9833   -0.0500    0.0000 C   0  0  0  0  0  0  0  0  0  0  0  0
   -2.3625   -1.8167    0.0000 C   0  0  0  0  0  0  0  0  0  0  0  0
  2  1  1  0  0  0  0
  3  1  1  0  0  0  0
  4  5  1  0  0  0  0
  5  1  1  0  0  0  0
  6  4  1  0  0  0  0
  7 11  2  0  0  0  0
  8  7  1  0  0  0  0
  9  2  1  0  0  0  0
 10  3  1  0  0  0  0
 11 14  1  0  0  0  0
 12  2  2  0  0  0  0
 13  3  2  0  0  0  0
 14  6  1  0  0  0  0
 15  4  2  0  0  0  0
 16  8  2  0  0  0  0
 17 18  2  0  0  0  0
 18 19  1  0  0  0  0
 19 14  2  0  0  0  0
 20  8  1  0  0  0  0
 10  9  1  0  0  0  0
 17  7  1  0  0  0  0
M  END
> <IDNUMBER>
F0440-0368

> <Chemical_Name>
N-(3-acetylphenyl)-2-(2,5-dioxopyrrolidin-1-yl)acetamide

> <CAS>
476308-73-3

> <PriceCoeff>
1.00

> <MW>
274.27

> <Description>
solid

> <FSP3>
0.29

> <clogP>
0.52

> <TPSA>
83.55

> <Acceptor>
4

> <Donor>
1

> <RotBonds>
4

> <HAC>
20

> <Collection>
General

$$$$
F3023-0919
  -ISIS-  06222321442D

 23 25  0  0  0  0  0  0  0  0999 V2000
    3.6250   -5.4042    0.0000 N   0  0  3  0  0  0  0  0  0  0  0  0
    4.0417   -5.9750    0.0000 C   0  0  0  0  0  0  0  0  0  0  0  0
    4.0417   -4.8292    0.0000 C   0  0  0  0  0  0  0  0  0  0  0  0
    4.7167   -5.7542    0.0000 C   0  0  3  0  0  0  0  0  0  0  0  0
    4.7167   -5.0417    0.0000 C   0  0  0  0  0  0  0  0  0  0  0  0
    5.2917   -6.1667    0.0000 N   0  0  3  0  0  0  0  0  0  0  0  0
    6.4375   -7.0000    0.0000 N   0  0  3  0  0  0  0  0  0  0  0  0
    7.0042   -7.4167    0.0000 C   0  0  0  0  0  0  0  0  0  0  0  0
    3.8292   -6.6500    0.0000 O   0  0  0  0  0  0  0  0  0  0  0  0
    3.8167   -4.1542    0.0000 O   0  0  0  0  0  0  0  0  0  0  0  0
    5.9375   -5.8750    0.0000 C   0  0  0  0  0  0  0  0  0  0  0  0
    5.2167   -6.8667    0.0000 C   0  0  0  0  0  0  0  0  0  0  0  0
    5.7875   -7.2875    0.0000 C   0  0  0  0  0  0  0  0  0  0  0  0
    6.5125   -6.2917    0.0000 C   0  0  0  0  0  0  0  0  0  0  0  0
    6.9292   -8.1167    0.0000 C   0  0  0  0  0  0  0  0  0  0  0  0
    7.6500   -7.1250    0.0000 C   0  0  0  0  0  0  0  0  0  0  0  0
    2.9167   -5.4042    0.0000 C   0  0  0  0  0  0  0  0  0  0  0  0
    8.1542   -8.2417    0.0000 C   0  0  0  0  0  0  0  0  0  0  0  0
    7.5042   -8.5292    0.0000 C   0  0  0  0  0  0  0  0  0  0  0  0
    8.2250   -7.5375    0.0000 C   0  0  0  0  0  0  0  0  0  0  0  0
    8.7292   -8.6542    0.0000 F   0  0  0  0  0  0  0  0  0  0  0  0
    2.5625   -4.7917    0.0000 C   0  0  0  0  0  0  0  0  0  0  0  0
    1.8500   -4.8000    0.0000 C   0  0  0  0  0  0  0  0  0  0  0  0
  2  1  1  0  0  0  0
  3  1  1  0  0  0  0
  4  2  1  0  0  0  0
  5  3  1  0  0  0  0
  6  4  1  0  0  0  0
  7 13  1  0  0  0  0
  8  7  1  0  0  0  0
  9  2  2  0  0  0  0
 10  3  2  0  0  0  0
 11  6  1  0  0  0  0
 12  6  1  0  0  0  0
 13 12  1  0  0  0  0
 14 11  1  0  0  0  0
 15  8  2  0  0  0  0
 16  8  1  0  0  0  0
 17  1  1  0  0  0  0
 18 20  1  0  0  0  0
 19 15  1  0  0  0  0
 20 16  2  0  0  0  0
 21 18  1  0  0  0  0
 22 17  1  0  0  0  0
 23 22  1  0  0  0  0
  5  4  1  0  0  0  0
 14  7  1  0  0  0  0
 18 19  2  0  0  0  0
M  END
> <IDNUMBER>
F3023-0919

> <Chemical_Name>
3-[4-(4-fluorophenyl)piperazin-1-yl]-1-propylpyrrolidine-2,5-dione

> <CAS>
857494-27-0

> <PriceCoeff>
1.00

> <MW>
319.37

> <Description>
solid

> <FSP3>
0.53

> <clogP>
3.72

> <TPSA>
43.86

> <Acceptor>
3

> <Donor>
2

> <RotBonds>
4

> <HAC>
23

> <Collection>
General

$$$$
F0381-3759
  -ISIS-  06222321142D

 17 18  0  0  0  0  0  0  0  0999 V2000
   -0.1500   -1.3667    0.0000 C   0  0  0  0  0  0  0  0  0  0  0  0
    1.0292   -1.7500    0.0000 N   0  0  0  0  0  0  0  0  0  0  0  0
   -0.1500   -0.1042    0.0000 C   0  0  0  0  0  0  0  0  0  0  0  0
   -1.2333   -2.0000    0.0000 N   0  0  3  0  0  0  0  0  0  0  0  0
    1.7500   -0.7292    0.0000 C   0  0  0  0  0  0  0  0  0  0  0  0
   -2.3208   -1.3542    0.0000 C   0  0  0  0  0  0  0  0  0  0  0  0
   -2.3208   -0.1167    0.0000 N   0  0  0  0  0  0  0  0  0  0  0  0
    1.0292    0.2625    0.0000 N   0  0  0  0  0  0  0  0  0  0  0  0
   -1.2333    0.5000    0.0000 C   0  0  0  0  0  0  0  0  0  0  0  0
    3.0000   -0.7167    0.0000 N   0  0  3  0  0  0  0  0  0  0  0  0
   -3.4333   -1.9792    0.0000 O   0  0  0  0  0  0  0  0  0  0  0  0
   -1.2333    1.7625    0.0000 O   0  0  0  0  0  0  0  0  0  0  0  0
   -1.2333   -3.2500    0.0000 C   0  0  0  0  0  0  0  0  0  0  0  0
    3.6042    0.3625    0.0000 C   0  0  0  0  0  0  0  0  0  0  0  0
    3.6167   -1.8000    0.0000 C   0  0  0  0  0  0  0  0  0  0  0  0
    4.8667    0.3833    0.0000 C   0  0  0  0  0  0  0  0  0  0  0  0
    3.0000   -2.9000    0.0000 C   0  0  0  0  0  0  0  0  0  0  0  0
  2  1  1  0  0  0  0
  3  1  2  0  0  0  0
  4  1  1  0  0  0  0
  5  2  2  0  0  0  0
  6  4  1  0  0  0  0
  7  6  1  0  0  0  0
  8  3  1  0  0  0  0
  9  3  1  0  0  0  0
 10  5  1  0  0  0  0
 11  6  2  0  0  0  0
 12  9  2  0  0  0  0
 13  4  1  0  0  0  0
 14 10  1  0  0  0  0
 15 10  1  0  0  0  0
 16 14  1  0  0  0  0
 17 15  1  0  0  0  0
  9  7  1  0  0  0  0
  5  8  1  0  0  0  0
M  END
> <IDNUMBER>
F0381-3759

> <Chemical_Name>
8-(diethylamino)-3-methyl-2,3,6,7-tetrahydro-1H-purine-2,6-dione

> <CAS>
299419-46-8

> <PriceCoeff>
1.00

> <MW>
237.26

> <Description>
solid

> <FSP3>
0.50

> <clogP>
1.11

> <TPSA>
149.55

> <Acceptor>
4

> <Donor>
4

> <RotBonds>
3

> <HAC>
17

> <Collection>
General

> <Reference_compound>
CHEMBL190

> <Similarity>
0.8360

$$$$
F1829-0108
  -ISIS-  06222321142D

 25 27  0  0  0  0  0  0  0  0999 V2000
   -1.6083    1.2458    0.0000 C   0  0  0  0  0  0  0  0  0  0  0  0
   -2.2625    1.7250    0.0000 C   0  0  0  0  0  0  0  0  0  0  0  0
    0.7667    2.8958    0.0000 N   0  0  3  0  0  0  0  0  0  0  0  0
   -2.9333    1.2458    0.0000 C   0  0  0  0  0  0  0  0  0  0  0  0
   -2.6750    0.4583    0.0000 C   0  0  0  0  0  0  0  0  0  0  0  0
   -1.8583    0.4583    0.0000 S   0  0  0  0  0  0  0  0  0  0  0  0
   -0.8333    1.2125    0.0000 N   0  0  0  0  0  0  0  0  0  0  0  0
    1.5875    2.9833    0.0000 C   0  0  0  0  0  0  0  0  0  0  0  0
    0.4167    3.6333    0.0000 C   0  0  0  0  0  0  0  0  0  0  0  0
   -2.2500    2.5500    0.0000 C   0  0  0  0  0  0  0  0  0  0  0  0
   -0.4625    2.1500    0.0000 C   0  0  0  0  0  0  0  0  0  0  0  0
    0.3625    2.1625    0.0000 C   0  0  0  0  0  0  0  0  0  0  0  0
   -3.7375    1.4208    0.0000 C   0  0  0  0  0  0  0  0  0  0  0  0
   -3.2333   -0.1500    0.0000 C   0  0  0  0  0  0  0  0  0  0  0  0
    1.0250    4.1875    0.0000 C   0  0  0  0  0  0  0  0  0  0  0  0
    1.7500    3.7958    0.0000 C   0  0  0  0  0  0  0  0  0  0  0  0
   -0.3833    3.8000    0.0000 O   0  0  0  0  0  0  0  0  0  0  0  0
    2.1500    2.3708    0.0000 O   0  0  0  0  0  0  0  0  0  0  0  0
   -1.5333    2.9583    0.0000 O   0  0  0  0  0  0  0  0  0  0  0  0
   -0.7458    2.8083    0.0000 O   0  0  0  0  0  0  0  0  0  0  0  0
   -2.9625    2.9708    0.0000 N   0  0  0  0  0  0  0  0  0  0  0  0
   -4.2958    0.8083    0.0000 C   0  0  0  0  0  0  0  0  0  0  0  0
   -4.0333    0.0250    0.0000 C   0  0  3  0  0  0  0  0  0  0  0  0
   -2.9583    3.7958    0.0000 C   0  0  0  0  0  0  0  0  0  0  0  0
   -4.5833   -0.5917    0.0000 C   0  0  0  0  0  0  0  0  0  0  0  0
  2  1  2  0  0  0  0
  3 12  1  0  0  0  0
  4  2  1  0  0  0  0
  5  6  1  0  0  0  0
  6  1  1  0  0  0  0
  7  1  1  0  0  0  0
  8  3  1  0  0  0  0
  9  3  1  0  0  0  0
 10  2  1  0  0  0  0
 11  7  1  0  0  0  0
 12 11  1  0  0  0  0
 13  4  1  0  0  0  0
 14  5  1  0  0  0  0
 15  9  1  0  0  0  0
 16  8  1  0  0  0  0
 17  9  2  0  0  0  0
 18  8  2  0  0  0  0
 19 10  2  0  0  0  0
 20 11  2  0  0  0  0
 21 10  1  0  0  0  0
 22 13  1  0  0  0  0
 23 14  1  0  0  0  0
 24 21  1  0  0  0  0
 25 23  1  0  0  0  0
  4  5  2  0  0  0  0
 23 22  1  0  0  0  0
 15 16  1  0  0  0  0
M  END
> <IDNUMBER>
F1829-0108

> <Chemical_Name>
2-[2-(2,5-dioxopyrrolidin-1-yl)acetamido]-N,6-dimethyl-4,5,6,7-tetrahydro-1-benzothiophene-3-carboxamide

> <CAS>
892981-97-4

> <PriceCoeff>
1.00

> <MW>
363.43

> <Description>
solid

> <FSP3>
0.53

> <clogP>
1.88

> <TPSA>
123.82

> <Acceptor>
4

> <Donor>
2

> <RotBonds>
4

> <HAC>
25

> <Collection>
General

$$$$
F5033-5422
  -ISIS-  06222321442D

 27 29  0  0  0  0  0  0  0  0999 V2000
   -5.2958    2.5583    0.0000 N   0  0  3  0  0  0  0  0  0  0  0  0
   -5.3708    1.7333    0.0000 C   0  0  0  0  0  0  0  0  0  0  0  0
   -6.0292    2.8958    0.0000 C   0  0  0  0  0  0  0  0  0  0  0  0
   -1.7083    6.2667    0.0000 N   0  0  3  0  0  0  0  0  0  0  0  0
   -4.5833    2.9833    0.0000 C   0  0  0  0  0  0  0  0  0  0  0  0
   -0.2708    6.2667    0.0000 C   0  0  0  0  0  0  0  0  0  0  0  0
   -4.5833    3.8000    0.0000 C   0  0  0  0  0  0  0  0  0  0  0  0
   -0.9958    6.6792    0.0000 C   0  0  0  0  0  0  0  0  0  0  0  0
   -3.8625    4.2125    0.0000 N   0  0  0  0  0  0  0  0  0  0  0  0
   -6.1667    1.5583    0.0000 C   0  0  0  0  0  0  0  0  0  0  0  0
   -6.5875    2.2750    0.0000 C   0  0  0  0  0  0  0  0  0  0  0  0
    0.4542    6.6792    0.0000 C   0  0  0  0  0  0  0  0  0  0  0  0
   -4.7583    1.1708    0.0000 O   0  0  0  0  0  0  0  0  0  0  0  0
   -6.2125    3.7083    0.0000 O   0  0  0  0  0  0  0  0  0  0  0  0
   -5.3000    4.2125    0.0000 O   0  0  0  0  0  0  0  0  0  0  0  0
   -2.4208    6.6792    0.0000 C   0  0  0  0  0  0  0  0  0  0  0  0
   -1.7125    5.4417    0.0000 C   0  0  0  0  0  0  0  0  0  0  0  0
    0.4542    7.5167    0.0000 S   0  0  0  0  0  0  0  0  0  0  0  0
   -3.8625    5.0292    0.0000 C   0  0  0  0  0  0  0  0  0  0  0  0
   -3.1458    5.4417    0.0000 C   0  0  3  0  0  0  0  0  0  0  0  0
   -3.1375    6.2667    0.0000 C   0  0  0  0  0  0  0  0  0  0  0  0
   -2.4333    5.0292    0.0000 C   0  0  0  0  0  0  0  0  0  0  0  0
   -0.2708    5.4375    0.0000 C   0  0  0  0  0  0  0  0  0  0  0  0
    1.1667    6.2625    0.0000 C   0  0  0  0  0  0  0  0  0  0  0  0
    1.1667    7.9292    0.0000 C   0  0  0  0  0  0  0  0  0  0  0  0
    0.4417    5.0292    0.0000 C   0  0  0  0  0  0  0  0  0  0  0  0
    1.1667    5.4417    0.0000 C   0  0  0  0  0  0  0  0  0  0  0  0
  2  1  1  0  0  0  0
  3  1  1  0  0  0  0
  4 17  1  0  0  0  0
  5  1  1  0  0  0  0
  6  8  1  0  0  0  0
  7  5  1  0  0  0  0
  8  4  1  0  0  0  0
  9  7  1  0  0  0  0
 10  2  1  0  0  0  0
 11  3  1  0  0  0  0
 12  6  1  0  0  0  0
 13  2  2  0  0  0  0
 14  3  2  0  0  0  0
 15  7  2  0  0  0  0
 16 21  1  0  0  0  0
 17 22  1  0  0  0  0
 18 12  1  0  0  0  0
 19  9  1  0  0  0  0
 20 19  1  0  0  0  0
 21 20  1  0  0  0  0
 22 20  1  0  0  0  0
 23  6  2  0  0  0  0
 24 12  2  0  0  0  0
 25 18  1  0  0  0  0
 26 23  1  0  0  0  0
 27 26  2  0  0  0  0
 10 11  1  0  0  0  0
 16  4  1  0  0  0  0
 24 27  1  0  0  0  0
M  END
> <IDNUMBER>
F5033-5422

> <Chemical_Name>
2-(2,5-dioxopyrrolidin-1-yl)-N-[(1-{[2-(methylsulfanyl)phenyl]methyl}piperidin-4-yl)methyl]acetamide

> <CAS>
1235029-31-8

> <PriceCoeff>
1.00

> <MW>
389.51

> <Description>
solid

> <FSP3>
0.55

> <clogP>
1.78

> <TPSA>
95.02

> <Acceptor>
3

> <Donor>
2

> <RotBonds>
7

> <HAC>
27

> <Collection>
General

$$$$
F6451-2738
  -ISIS-  06222321442D

 24 25  0  0  0  0  0  0  0  0999 V2000
   -3.1583    6.2792    0.0000 C   0  0  0  0  0  0  0  0  0  0  0  0
   -4.5833    3.8000    0.0000 C   0  0  0  0  0  0  0  0  0  0  0  0
   -3.8625    4.2125    0.0000 N   0  0  0  0  0  0  0  0  0  0  0  0
   -3.8833    6.6792    0.0000 C   0  0  0  0  0  0  0  0  0  0  0  0
   -5.2833    2.5583    0.0000 O   0  0  0  0  0  0  0  0  0  0  0  0
   -5.2875    1.7333    0.0000 C   0  0  0  0  0  0  0  0  0  0  0  0
   -3.1458    5.4542    0.0000 C   0  0  3  0  0  0  0  0  0  0  0  0
   -5.2958    4.2042    0.0000 O   0  0  0  0  0  0  0  0  0  0  0  0
   -3.8625    5.0292    0.0000 C   0  0  0  0  0  0  0  0  0  0  0  0
   -6.0042    1.3208    0.0000 C   0  0  0  0  0  0  0  0  0  0  0  0
   -4.5833    2.9708    0.0000 C   0  0  0  0  0  0  0  0  0  0  0  0
   -4.5958    6.2625    0.0000 Cl  0  0  0  0  0  0  0  0  0  0  0  0
   -6.7042    1.7250    0.0000 O   0  0  0  0  0  0  0  0  0  0  0  0
   -2.4250    5.0417    0.0000 O   0  0  0  0  0  0  0  0  0  0  0  0
   -2.4583    6.7000    0.0000 C   0  0  0  0  0  0  0  0  0  0  0  0
   -3.8833    7.5167    0.0000 C   0  0  0  0  0  0  0  0  0  0  0  0
   -4.5625    1.3083    0.0000 C   0  0  0  0  0  0  0  0  0  0  0  0
   -5.9958    0.4958    0.0000 C   0  0  0  0  0  0  0  0  0  0  0  0
   -7.4167    1.3125    0.0000 C   0  0  0  0  0  0  0  0  0  0  0  0
   -1.7125    5.4625    0.0000 C   0  0  0  0  0  0  0  0  0  0  0  0
   -2.4500    7.5250    0.0000 C   0  0  0  0  0  0  0  0  0  0  0  0
   -3.1625    7.9417    0.0000 C   0  0  0  0  0  0  0  0  0  0  0  0
   -4.5583    0.4958    0.0000 C   0  0  0  0  0  0  0  0  0  0  0  0
   -5.2833    0.0833    0.0000 C   0  0  0  0  0  0  0  0  0  0  0  0
  2  3  1  0  0  0  0
  3  9  1  0  0  0  0
  4  1  1  0  0  0  0
  5 11  1  0  0  0  0
  6  5  1  0  0  0  0
  7  1  1  0  0  0  0
  8  2  2  0  0  0  0
  9  7  1  0  0  0  0
 10  6  2  0  0  0  0
 11  2  1  0  0  0  0
 12  4  1  0  0  0  0
 13 10  1  0  0  0  0
 14  7  1  0  0  0  0
 15  1  2  0  0  0  0
 16  4  2  0  0  0  0
 17  6  1  0  0  0  0
 18 10  1  0  0  0  0
 19 13  1  0  0  0  0
 20 14  1  0  0  0  0
 21 15  1  0  0  0  0
 22 21  2  0  0  0  0
 23 17  2  0  0  0  0
 24 23  1  0  0  0  0
 22 16  1  0  0  0  0
 24 18  2  0  0  0  0
M  END
> <IDNUMBER>
F6451-2738

> <Chemical_Name>
N-[2-(2-chlorophenyl)-2-methoxyethyl]-2-(2-methoxyphenoxy)acetamide

> <CAS>
1788558-92-8

> <PriceCoeff>
1.00

> <MW>
349.81

> <Description>
oil

> <FSP3>
0.28

> <clogP>
3.37

> <TPSA>
56.79

> <Acceptor>
4

> <Donor>
1

> <RotBonds>
8

> <HAC>
24

> <Collection>
General

> <Reference_compound>
CHEMBL538462

> <Similarity>
0.8040

$$$$
F1800-0175
  -ISIS-  06222321452D

 20 21  0  0  0  0  0  0  0  0999 V2000
   -3.7250    2.3000    0.0000 N   0  0  3  0  0  0  0  0  0  0  0  0
   -3.3500    2.9583    0.0000 C   0  0  0  0  0  0  0  0  0  0  0  0
   -3.3500    1.6583    0.0000 C   0  0  0  0  0  0  0  0  0  0  0  0
   -2.2250    2.3000    0.0000 S   0  0  0  0  0  0  0  0  0  0  0  0
   -4.4750    2.3000    0.0000 C   0  0  0  0  0  0  0  0  0  0  0  0
   -4.8500    2.9458    0.0000 C   0  0  0  0  0  0  0  0  0  0  0  0
   -2.6000    2.9583    0.0000 C   0  0  3  0  0  0  0  0  0  0  0  0
   -2.6000    1.6583    0.0000 C   0  0  0  0  0  0  0  0  0  0  0  0
   -5.6000    2.9458    0.0000 N   0  0  0  0  0  0  0  0  0  0  0  0
   -3.7333    3.6083    0.0000 O   0  0  0  0  0  0  0  0  0  0  0  0
   -3.7333    1.0000    0.0000 O   0  0  0  0  0  0  0  0  0  0  0  0
   -4.4750    3.5958    0.0000 O   0  0  0  0  0  0  0  0  0  0  0  0
   -5.9750    3.5958    0.0000 C   0  0  0  0  0  0  0  0  0  0  0  0
   -6.7167    4.8875    0.0000 C   0  0  0  0  0  0  0  0  0  0  0  0
   -7.1042    5.5417    0.0000 Cl  0  0  0  0  0  0  0  0  0  0  0  0
   -6.7167    3.5958    0.0000 C   0  0  0  0  0  0  0  0  0  0  0  0
   -5.6000    4.2292    0.0000 C   0  0  0  0  0  0  0  0  0  0  0  0
   -7.0917    4.2292    0.0000 C   0  0  0  0  0  0  0  0  0  0  0  0
   -5.9750    4.8875    0.0000 C   0  0  0  0  0  0  0  0  0  0  0  0
   -2.2208    3.6083    0.0000 C   0  0  0  0  0  0  0  0  0  0  0  0
  2  1  1  0  0  0  0
  3  1  1  0  0  0  0
  4  8  1  0  0  0  0
  5  1  1  0  0  0  0
  6  5  1  0  0  0  0
  7  2  1  0  0  0  0
  8  3  1  0  0  0  0
  9  6  1  0  0  0  0
 10  2  2  0  0  0  0
 11  3  2  0  0  0  0
 12  6  2  0  0  0  0
 13  9  1  0  0  0  0
 14 19  1  0  0  0  0
 15 14  1  0  0  0  0
 16 13  2  0  0  0  0
 17 13  1  0  0  0  0
 18 16  1  0  0  0  0
 19 17  2  0  0  0  0
 20  7  1  0  0  0  0
  4  7  1  0  0  0  0
 18 14  2  0  0  0  0
M  END
> <IDNUMBER>
F1800-0175

> <Chemical_Name>
N-(4-chlorophenyl)-2-(2-methyl-3,5-dioxothiomorpholin-4-yl)acetamide

> <CAS>
868215-96-7

> <PriceCoeff>
1.00

> <MW>
312.77

> <Description>
solid

> <FSP3>
0.31

> <clogP>
2.94

> <TPSA>
91.78

> <Acceptor>
3

> <Donor>
1

> <RotBonds>
3

> <HAC>
20

> <Collection>
General

$$$$
F1374-1104
  -ISIS-  06222321142D

 27 30  0  0  0  0  0  0  0  0999 V2000
   -3.7958    3.0208    0.0000 C   0  0  0  0  0  0  0  0  0  0  0  0
    0.4042   -0.1792    0.0000 N   0  0  3  0  0  0  0  0  0  0  0  0
   -2.4583    3.0208    0.0000 C   0  0  0  0  0  0  0  0  0  0  0  0
   -3.1250    2.5333    0.0000 O   0  0  0  0  0  0  0  0  0  0  0  0
   -3.5375    3.8000    0.0000 N   0  0  0  0  0  0  0  0  0  0  0  0
   -1.6750    2.7583    0.0000 N   0  0  0  0  0  0  0  0  0  0  0  0
   -4.5833    2.7583    0.0000 C   0  0  0  0  0  0  0  0  0  0  0  0
   -2.7125    3.8000    0.0000 N   0  0  0  0  0  0  0  0  0  0  0  0
   -4.8333    1.9750    0.0000 S   0  0  0  0  0  0  0  0  0  0  0  0
    0.2292    0.6333    0.0000 C   0  0  0  0  0  0  0  0  0  0  0  0
   -1.5083    1.9583    0.0000 C   0  0  0  0  0  0  0  0  0  0  0  0
    1.1417   -0.5375    0.0000 C   0  0  0  0  0  0  0  0  0  0  0  0
   -0.1833   -0.7542    0.0000 C   0  0  0  0  0  0  0  0  0  0  0  0
   -5.6583    1.9708    0.0000 C   0  0  0  0  0  0  0  0  0  0  0  0
   -5.2500    3.2458    0.0000 C   0  0  0  0  0  0  0  0  0  0  0  0
   -0.5458    0.8875    0.0000 C   0  0  0  0  0  0  0  0  0  0  0  0
   -0.7208    1.6958    0.0000 C   0  0  0  0  0  0  0  0  0  0  0  0
   -5.9125    2.7583    0.0000 C   0  0  0  0  0  0  0  0  0  0  0  0
   -2.1208    1.4000    0.0000 O   0  0  0  0  0  0  0  0  0  0  0  0
    1.0292   -1.3542    0.0000 C   0  0  0  0  0  0  0  0  0  0  0  0
    0.2167   -1.4917    0.0000 C   0  0  0  0  0  0  0  0  0  0  0  0
    1.8750   -0.1667    0.0000 O   0  0  0  0  0  0  0  0  0  0  0  0
   -0.9875   -0.6375    0.0000 O   0  0  0  0  0  0  0  0  0  0  0  0
   -6.1375    1.2958    0.0000 Cl  0  0  0  0  0  0  0  0  0  0  0  0
    0.8542    1.1833    0.0000 C   0  0  0  0  0  0  0  0  0  0  0  0
   -0.1000    2.2458    0.0000 C   0  0  0  0  0  0  0  0  0  0  0  0
    0.6792    1.9958    0.0000 C   0  0  0  0  0  0  0  0  0  0  0  0
  2 10  1  0  0  0  0
  3  4  1  0  0  0  0
  4  1  1  0  0  0  0
  5  1  2  0  0  0  0
  6  3  1  0  0  0  0
  7  1  1  0  0  0  0
  8  5  1  0  0  0  0
  9  7  1  0  0  0  0
 10 16  1  0  0  0  0
 11  6  1  0  0  0  0
 12  2  1  0  0  0  0
 13  2  1  0  0  0  0
 14  9  1  0  0  0  0
 15  7  2  0  0  0  0
 16 17  2  0  0  0  0
 17 11  1  0  0  0  0
 18 15  1  0  0  0  0
 19 11  2  0  0  0  0
 20 12  1  0  0  0  0
 21 13  1  0  0  0  0
 22 12  2  0  0  0  0
 23 13  2  0  0  0  0
 24 14  1  0  0  0  0
 25 27  1  0  0  0  0
 26 17  1  0  0  0  0
 27 26  2  0  0  0  0
  8  3  2  0  0  0  0
 14 18  2  0  0  0  0
 10 25  2  0  0  0  0
 20 21  1  0  0  0  0
M  END
> <IDNUMBER>
F1374-1104

> <Chemical_Name>
N-[5-(5-chlorothiophen-2-yl)-1,3,4-oxadiazol-2-yl]-3-(2,5-dioxopyrrolidin-1-yl)benzamide

> <CAS>
865543-59-5

> <PriceCoeff>
1.00

> <MW>
402.81

> <Description>
solid

> <FSP3>
0.12

> <clogP>
1.19

> <TPSA>
133.64

> <Acceptor>
6

> <Donor>
1

> <RotBonds>
4

> <HAC>
27

> <Collection>
General

$$$$
F1757-0096
  -ISIS-  06222321142D

 17 18  0  0  0  0  0  0  0  0999 V2000
    5.8292   -9.0667    0.0000 C   0  0  0  0  0  0  0  0  0  0  0  0
    6.6542   -9.0667    0.0000 N   0  0  3  0  0  0  0  0  0  0  0  0
    1.2917   -9.7667    0.0000 N   0  0  0  0  0  0  0  0  0  0  0  0
    5.4042   -9.7667    0.0000 O   0  0  0  0  0  0  0  0  0  0  0  0
    2.1167   -9.7667    0.0000 C   0  0  0  0  0  0  0  0  0  0  0  0
    5.4042   -8.3375    0.0000 O   0  0  0  0  0  0  0  0  0  0  0  0
    8.3000   -9.0917    0.0000 O   0  0  0  0  0  0  0  0  0  0  0  0
    4.5792   -9.7667    0.0000 C   0  0  0  0  0  0  0  0  0  0  0  0
    2.9417   -9.7667    0.0000 C   0  0  0  0  0  0  0  0  0  0  0  0
    4.1750   -9.0542    0.0000 C   0  0  0  0  0  0  0  0  0  0  0  0
    4.1750  -10.4792    0.0000 C   0  0  0  0  0  0  0  0  0  0  0  0
    3.3542  -10.4792    0.0000 C   0  0  0  0  0  0  0  0  0  0  0  0
    3.3542   -9.0542    0.0000 C   0  0  0  0  0  0  0  0  0  0  0  0
    7.0542   -9.7917    0.0000 C   0  0  0  0  0  0  0  0  0  0  0  0
    7.0667   -8.3625    0.0000 C   0  0  0  0  0  0  0  0  0  0  0  0
    7.8917   -8.3667    0.0000 C   0  0  0  0  0  0  0  0  0  0  0  0
    7.8750   -9.8000    0.0000 C   0  0  0  0  0  0  0  0  0  0  0  0
  2  1  1  0  0  0  0
  3  5  3  0  0  0  0
  4  1  1  0  0  0  0
  5  9  1  0  0  0  0
  6  1  2  0  0  0  0
  7 16  1  0  0  0  0
  8  4  1  0  0  0  0
  9 12  1  0  0  0  0
 10  8  2  0  0  0  0
 11  8  1  0  0  0  0
 12 11  2  0  0  0  0
 13 10  1  0  0  0  0
 14  2  1  0  0  0  0
 15  2  1  0  0  0  0
 16 15  1  0  0  0  0
 17 14  1  0  0  0  0
 17  7  1  0  0  0  0
  9 13  2  0  0  0  0
M  END
> <IDNUMBER>
F1757-0096

> <Chemical_Name>
4-cyanophenyl morpholine-4-carboxylate

> <CAS>
694472-91-8

> <PriceCoeff>
1.00

> <MW>
232.24

> <Description>
solid

> <FSP3>
0.33

> <clogP>
1.10

> <TPSA>
62.56

> <Acceptor>
4

> <Donor>
0

> <RotBonds>
3

> <HAC>
17

> <Collection>
General

> <Reference_compound>
CHEMBL2288475

> <Similarity>
0.8320

$$$$
F1800-0174
  -ISIS-  06222321142D

 20 21  0  0  0  0  0  0  0  0999 V2000
   -3.7250    2.3000    0.0000 N   0  0  3  0  0  0  0  0  0  0  0  0
   -3.3500    2.9583    0.0000 C   0  0  0  0  0  0  0  0  0  0  0  0
   -3.3500    1.6583    0.0000 C   0  0  0  0  0  0  0  0  0  0  0  0
   -2.2250    2.3000    0.0000 S   0  0  0  0  0  0  0  0  0  0  0  0
   -4.8500    2.9458    0.0000 C   0  0  0  0  0  0  0  0  0  0  0  0
   -4.4750    2.3000    0.0000 C   0  0  0  0  0  0  0  0  0  0  0  0
   -2.6000    2.9583    0.0000 C   0  0  3  0  0  0  0  0  0  0  0  0
   -5.6000    2.9458    0.0000 N   0  0  0  0  0  0  0  0  0  0  0  0
   -2.6000    1.6583    0.0000 C   0  0  0  0  0  0  0  0  0  0  0  0
   -3.7333    3.6083    0.0000 O   0  0  0  0  0  0  0  0  0  0  0  0
   -3.7333    1.0000    0.0000 O   0  0  0  0  0  0  0  0  0  0  0  0
   -5.9750    3.5958    0.0000 C   0  0  0  0  0  0  0  0  0  0  0  0
   -4.4750    3.5958    0.0000 O   0  0  0  0  0  0  0  0  0  0  0  0
   -6.7167    3.5958    0.0000 C   0  0  0  0  0  0  0  0  0  0  0  0
   -7.0917    4.2292    0.0000 C   0  0  0  0  0  0  0  0  0  0  0  0
   -7.8417    4.2292    0.0000 Cl  0  0  0  0  0  0  0  0  0  0  0  0
   -5.9750    4.8917    0.0000 C   0  0  0  0  0  0  0  0  0  0  0  0
   -5.6000    4.2417    0.0000 C   0  0  0  0  0  0  0  0  0  0  0  0
   -2.2208    3.6083    0.0000 C   0  0  0  0  0  0  0  0  0  0  0  0
   -6.7167    4.8917    0.0000 C   0  0  0  0  0  0  0  0  0  0  0  0
  2  1  1  0  0  0  0
  3  1  1  0  0  0  0
  4  9  1  0  0  0  0
  5  6  1  0  0  0  0
  6  1  1  0  0  0  0
  7  2  1  0  0  0  0
  8  5  1  0  0  0  0
  9  3  1  0  0  0  0
 10  2  2  0  0  0  0
 11  3  2  0  0  0  0
 12  8  1  0  0  0  0
 13  5  2  0  0  0  0
 14 12  2  0  0  0  0
 15 14  1  0  0  0  0
 16 15  1  0  0  0  0
 17 18  2  0  0  0  0
 18 12  1  0  0  0  0
 19  7  1  0  0  0  0
 20 17  1  0  0  0  0
  4  7  1  0  0  0  0
 20 15  2  0  0  0  0
M  END
> <IDNUMBER>
F1800-0174

> <Chemical_Name>
N-(3-chlorophenyl)-2-(2-methyl-3,5-dioxothiomorpholin-4-yl)acetamide

> <CAS>
868215-95-6

> <PriceCoeff>
1.00

> <MW>
312.77

> <Description>
solid

> <FSP3>
0.31

> <clogP>
2.94

> <TPSA>
91.78

> <Acceptor>
3

> <Donor>
1

> <RotBonds>
3

> <HAC>
20

> <Collection>
General

$$$$
F6245-7288
  -ISIS-  06222321152D

 28 31  0  0  0  0  0  0  0  0999 V2000
   -2.8958    7.5125    0.0000 N   0  0  3  0  0  0  0  0  0  0  0  0
   -2.0708    7.5333    0.0000 C   0  0  0  0  0  0  0  0  0  0  0  0
   -3.1208    6.7167    0.0000 C   0  0  0  0  0  0  0  0  0  0  0  0
   -1.7958    6.7667    0.0000 N   0  0  0  0  0  0  0  0  0  0  0  0
   -2.4333    6.2542    0.0000 N   0  0  3  0  0  0  0  0  0  0  0  0
   -4.5958    5.0333    0.0000 N   0  0  3  0  0  0  0  0  0  0  0  0
   -1.6208    8.2208    0.0000 C   0  0  3  0  0  0  0  0  0  0  0  0
   -3.9208    5.5167    0.0000 C   0  0  0  0  0  0  0  0  0  0  0  0
   -5.2583    5.5042    0.0000 C   0  0  0  0  0  0  0  0  0  0  0  0
   -1.5708    9.0500    0.0000 C   0  0  0  0  0  0  0  0  0  0  0  0
   -0.8833    8.5875    0.0000 C   0  0  0  0  0  0  0  0  0  0  0  0
   -4.5833    4.2125    0.0000 C   0  0  0  0  0  0  0  0  0  0  0  0
   -3.4625    8.1042    0.0000 C   0  0  0  0  0  0  0  0  0  0  0  0
   -3.8708    3.8000    0.0000 C   0  0  0  0  0  0  0  0  0  0  0  0
   -3.8958    6.4292    0.0000 O   0  0  0  0  0  0  0  0  0  0  0  0
   -4.1875    6.3042    0.0000 C   0  0  0  0  0  0  0  0  0  0  0  0
   -5.0167    6.2917    0.0000 C   0  0  0  0  0  0  0  0  0  0  0  0
   -3.1458    5.2667    0.0000 O   0  0  0  0  0  0  0  0  0  0  0  0
   -6.0292    5.2417    0.0000 O   0  0  0  0  0  0  0  0  0  0  0  0
   -2.4458    5.4417    0.0000 C   0  0  0  0  0  0  0  0  0  0  0  0
   -3.8708    2.9833    0.0000 O   0  0  0  0  0  0  0  0  0  0  0  0
   -3.1583    4.2042    0.0000 N   0  0  0  0  0  0  0  0  0  0  0  0
   -3.1583    5.0292    0.0000 C   0  0  0  0  0  0  0  0  0  0  0  0
   -4.2583    7.9042    0.0000 C   0  0  0  0  0  0  0  0  0  0  0  0
   -3.2250    8.9000    0.0000 C   0  0  0  0  0  0  0  0  0  0  0  0
   -3.7958    9.4917    0.0000 C   0  0  0  0  0  0  0  0  0  0  0  0
   -4.8292    8.5042    0.0000 C   0  0  0  0  0  0  0  0  0  0  0  0
   -4.6000    9.3000    0.0000 C   0  0  0  0  0  0  0  0  0  0  0  0
  2  1  1  0  0  0  0
  3  1  1  0  0  0  0
  4  2  2  0  0  0  0
  5  3  1  0  0  0  0
  6 12  1  0  0  0  0
  7  2  1  0  0  0  0
  8  6  1  0  0  0  0
  9  6  1  0  0  0  0
 10  7  1  0  0  0  0
 11  7  1  0  0  0  0
 12 14  1  0  0  0  0
 13  1  1  0  0  0  0
 14 22  1  0  0  0  0
 15  3  2  0  0  0  0
 16  8  1  0  0  0  0
 17  9  1  0  0  0  0
 18  8  2  0  0  0  0
 19  9  2  0  0  0  0
 20  5  1  0  0  0  0
 21 14  2  0  0  0  0
 22 23  1  0  0  0  0
 23 20  1  0  0  0  0
 24 13  1  0  0  0  0
 25 13  2  0  0  0  0
 26 25  1  0  0  0  0
 27 24  2  0  0  0  0
 28 26  2  0  0  0  0
  4  5  1  0  0  0  0
 11 10  1  0  0  0  0
 28 27  1  0  0  0  0
 17 16  1  0  0  0  0
M  END
> <IDNUMBER>
F6245-7288

> <Chemical_Name>
N-[2-(3-cyclopropyl-5-oxo-4-phenyl-4,5-dihydro-1H-1,2,4-triazol-1-yl)ethyl]-2-(2,5-dioxopyrrolidin-1-yl)acetamide

> <CAS>
1396853-44-3

> <PriceCoeff>
1.00

> <MW>
383.40

> <Description>
solid

> <FSP3>
0.42

> <clogP>
1.24

> <TPSA>
102.39

> <Acceptor>
5

> <Donor>
1

> <RotBonds>
7

> <HAC>
28

> <Collection>
General

$$$$
F1800-0186
  -ISIS-  06222321452D

 23 24  0  0  0  0  0  0  0  0999 V2000
   -3.7250    2.3000    0.0000 N   0  0  3  0  0  0  0  0  0  0  0  0
   -3.3500    2.9583    0.0000 C   0  0  0  0  0  0  0  0  0  0  0  0
   -3.3500    1.6583    0.0000 C   0  0  0  0  0  0  0  0  0  0  0  0
   -2.2250    2.3000    0.0000 S   0  0  0  0  0  0  0  0  0  0  0  0
   -4.8500    2.9458    0.0000 C   0  0  0  0  0  0  0  0  0  0  0  0
   -4.4750    2.3000    0.0000 C   0  0  0  0  0  0  0  0  0  0  0  0
   -5.6000    2.9458    0.0000 N   0  0  0  0  0  0  0  0  0  0  0  0
   -5.9750    3.5958    0.0000 C   0  0  0  0  0  0  0  0  0  0  0  0
   -6.7167    3.5958    0.0000 C   0  0  0  0  0  0  0  0  0  0  0  0
   -2.6000    2.9583    0.0000 C   0  0  3  0  0  0  0  0  0  0  0  0
   -7.0917    4.2292    0.0000 C   0  0  0  0  0  0  0  0  0  0  0  0
   -2.6000    1.6583    0.0000 C   0  0  0  0  0  0  0  0  0  0  0  0
   -3.7333    3.6083    0.0000 O   0  0  0  0  0  0  0  0  0  0  0  0
   -3.7333    1.0000    0.0000 O   0  0  0  0  0  0  0  0  0  0  0  0
   -4.4750    3.5958    0.0000 O   0  0  0  0  0  0  0  0  0  0  0  0
   -5.6000    4.2292    0.0000 C   0  0  0  0  0  0  0  0  0  0  0  0
   -6.7167    4.8875    0.0000 C   0  0  0  0  0  0  0  0  0  0  0  0
   -5.9750    4.8875    0.0000 C   0  0  0  0  0  0  0  0  0  0  0  0
   -7.1042    2.9375    0.0000 O   0  0  0  0  0  0  0  0  0  0  0  0
   -7.1042    5.5417    0.0000 O   0  0  0  0  0  0  0  0  0  0  0  0
   -2.2208    3.6083    0.0000 C   0  0  0  0  0  0  0  0  0  0  0  0
   -6.7292    2.2833    0.0000 C   0  0  0  0  0  0  0  0  0  0  0  0
   -7.8542    5.5417    0.0000 C   0  0  0  0  0  0  0  0  0  0  0  0
  2  1  1  0  0  0  0
  3  1  1  0  0  0  0
  4 12  1  0  0  0  0
  5  6  1  0  0  0  0
  6  1  1  0  0  0  0
  7  5  1  0  0  0  0
  8  7  1  0  0  0  0
  9  8  1  0  0  0  0
 10  2  1  0  0  0  0
 11  9  2  0  0  0  0
 12  3  1  0  0  0  0
 13  2  2  0  0  0  0
 14  3  2  0  0  0  0
 15  5  2  0  0  0  0
 16  8  2  0  0  0  0
 17 18  2  0  0  0  0
 18 16  1  0  0  0  0
 19  9  1  0  0  0  0
 20 17  1  0  0  0  0
 21 10  1  0  0  0  0
 22 19  1  0  0  0  0
 23 20  1  0  0  0  0
 10  4  1  0  0  0  0
 11 17  1  0  0  0  0
M  END
> <IDNUMBER>
F1800-0186

> <Chemical_Name>
N-(2,4-dimethoxyphenyl)-2-(2-methyl-3,5-dioxothiomorpholin-4-yl)acetamide

> <CAS>
868216-07-3

> <PriceCoeff>
1.00

> <MW>
338.38

> <Description>
solid

> <FSP3>
0.40

> <clogP>
1.48

> <TPSA>
110.24

> <Acceptor>
5

> <Donor>
1

> <RotBonds>
5

> <HAC>
23

> <Collection>
General

$$$$
F3115-0091
  -ISIS-  06222321442D

 25 27  0  0  0  0  0  0  0  0999 V2000
    4.9792   -4.1542    0.0000 N   0  0  3  0  0  0  0  0  0  0  0  0
    5.4667   -4.8250    0.0000 C   0  0  0  0  0  0  0  0  0  0  0  0
    5.4625   -3.4875    0.0000 C   0  0  0  0  0  0  0  0  0  0  0  0
    6.2542   -4.5667    0.0000 C   0  0  3  0  0  0  0  0  0  0  0  0
    6.2500   -3.7375    0.0000 C   0  0  0  0  0  0  0  0  0  0  0  0
    6.9167   -5.0417    0.0000 N   0  0  3  0  0  0  0  0  0  0  0  0
    8.2542   -5.9917    0.0000 N   0  0  3  0  0  0  0  0  0  0  0  0
    8.9250   -6.4750    0.0000 C   0  0  0  0  0  0  0  0  0  0  0  0
    4.1542   -4.1625    0.0000 C   0  0  0  0  0  0  0  0  0  0  0  0
    5.2167   -5.6042    0.0000 O   0  0  0  0  0  0  0  0  0  0  0  0
    5.2042   -2.7042    0.0000 O   0  0  0  0  0  0  0  0  0  0  0  0
    8.3375   -5.1750    0.0000 C   0  0  0  0  0  0  0  0  0  0  0  0
    7.5042   -6.3292    0.0000 C   0  0  0  0  0  0  0  0  0  0  0  0
    7.6667   -4.7042    0.0000 C   0  0  0  0  0  0  0  0  0  0  0  0
    6.8417   -5.8542    0.0000 C   0  0  0  0  0  0  0  0  0  0  0  0
    9.6750   -6.1292    0.0000 O   0  0  0  0  0  0  0  0  0  0  0  0
    3.7417   -3.4500    0.0000 C   0  0  0  0  0  0  0  0  0  0  0  0
    3.7500   -4.8792    0.0000 C   0  0  0  0  0  0  0  0  0  0  0  0
    8.8417   -7.2917    0.0000 O   0  0  0  0  0  0  0  0  0  0  0  0
    2.5042   -4.1667    0.0000 C   0  0  0  0  0  0  0  0  0  0  0  0
    2.9167   -3.4542    0.0000 C   0  0  0  0  0  0  0  0  0  0  0  0
    2.9292   -4.8792    0.0000 C   0  0  0  0  0  0  0  0  0  0  0  0
    1.6792   -4.1750    0.0000 O   0  0  0  0  0  0  0  0  0  0  0  0
    8.0917   -7.6292    0.0000 C   0  0  0  0  0  0  0  0  0  0  0  0
    8.0125   -8.4542    0.0000 C   0  0  0  0  0  0  0  0  0  0  0  0
  2  1  1  0  0  0  0
  3  1  1  0  0  0  0
  4  2  1  0  0  0  0
  5  3  1  0  0  0  0
  6  4  1  0  0  0  0
  7 13  1  0  0  0  0
  8  7  1  0  0  0  0
  9  1  1  0  0  0  0
 10  2  2  0  0  0  0
 11  3  2  0  0  0  0
 12 14  1  0  0  0  0
 13 15  1  0  0  0  0
 14  6  1  0  0  0  0
 15  6  1  0  0  0  0
 16  8  2  0  0  0  0
 17  9  2  0  0  0  0
 18  9  1  0  0  0  0
 19  8  1  0  0  0  0
 20 22  1  0  0  0  0
 21 17  1  0  0  0  0
 22 18  2  0  0  0  0
 23 20  1  0  0  0  0
 24 19  1  0  0  0  0
 25 24  1  0  0  0  0
  4  5  1  0  0  0  0
 20 21  2  0  0  0  0
 12  7  1  0  0  0  0
M  END
> <IDNUMBER>
F3115-0091

> <Chemical_Name>
ethyl 4-[1-(4-hydroxyphenyl)-2,5-dioxopyrrolidin-3-yl]piperazine-1-carboxylate

> <CAS>
838894-20-5

> <PriceCoeff>
1.00

> <MW>
347.37

> <Description>
solid

> <FSP3>
0.47

> <clogP>
1.71

> <TPSA>
90.39

> <Acceptor>
5

> <Donor>
2

> <RotBonds>
5

> <HAC>
25

> <Collection>
General

$$$$
F6401-0050
  -ISIS-  06222321442D

 25 27  0  0  0  0  0  0  0  0999 V2000
    5.0375   -1.4000    0.0000 N   0  0  3  0  0  0  0  0  0  0  0  0
    4.8292   -2.3792    0.0000 C   0  0  0  0  0  0  0  0  0  0  0  0
    4.2917   -0.7292    0.0000 C   0  0  0  0  0  0  0  0  0  0  0  0
    3.1375   -2.0250    0.0000 C   0  0  3  0  0  0  0  0  0  0  0  0
    2.1875   -2.3375    0.0000 C   0  0  0  0  0  0  0  0  0  0  0  0
    6.3792   -0.0417    0.0000 C   0  0  0  0  0  0  0  0  0  0  0  0
    3.3417   -1.0417    0.0000 C   0  0  0  0  0  0  0  0  0  0  0  0
    3.8875   -2.6917    0.0000 C   0  0  0  0  0  0  0  0  0  0  0  0
    6.1750   -1.0250    0.0000 C   0  0  0  0  0  0  0  0  0  0  0  0
    7.3292    0.2708    0.0000 N   0  0  0  0  0  0  0  0  0  0  0  0
    1.8792   -3.2917    0.0000 S   0  0  0  0  0  0  0  0  0  0  0  0
    7.5375    1.2458    0.0000 C   0  0  0  0  0  0  0  0  0  0  0  0
    4.4167   -0.1417    0.0000 O   0  0  0  0  0  0  0  0  0  0  0  0
    5.5792   -3.0417    0.0000 O   0  0  0  0  0  0  0  0  0  0  0  0
    1.3792   -1.7542    0.0000 C   0  0  0  0  0  0  0  0  0  0  0  0
    0.8792   -3.2917    0.0000 C   0  0  0  0  0  0  0  0  0  0  0  0
    5.6417    0.6208    0.0000 O   0  0  0  0  0  0  0  0  0  0  0  0
    8.4917    1.5583    0.0000 C   0  0  0  0  0  0  0  0  0  0  0  0
    0.5667   -2.3375    0.0000 C   0  0  0  0  0  0  0  0  0  0  0  0
    9.2375    0.8958    0.0000 O   0  0  0  0  0  0  0  0  0  0  0  0
    6.7917    1.9125    0.0000 C   0  0  0  0  0  0  0  0  0  0  0  0
    8.6917    2.5333    0.0000 C   0  0  0  0  0  0  0  0  0  0  0  0
   10.1875    1.2083    0.0000 C   0  0  0  0  0  0  0  0  0  0  0  0
    7.0042    2.8958    0.0000 C   0  0  0  0  0  0  0  0  0  0  0  0
    7.9500    3.2042    0.0000 C   0  0  0  0  0  0  0  0  0  0  0  0
  2  1  1  0  0  0  0
  3  1  1  0  0  0  0
  4  7  1  0  0  0  0
  5  4  1  0  0  0  0
  6  9  1  0  0  0  0
  7  3  1  0  0  0  0
  8  2  1  0  0  0  0
  9  1  1  0  0  0  0
 10  6  1  0  0  0  0
 11  5  1  0  0  0  0
 12 10  1  0  0  0  0
 13  3  2  0  0  0  0
 14  2  2  0  0  0  0
 15  5  2  0  0  0  0
 16 11  1  0  0  0  0
 17  6  2  0  0  0  0
 18 12  2  0  0  0  0
 19 15  1  0  0  0  0
 20 18  1  0  0  0  0
 21 12  1  0  0  0  0
 22 18  1  0  0  0  0
 23 20  1  0  0  0  0
 24 21  2  0  0  0  0
 25 24  1  0  0  0  0
  4  8  1  0  0  0  0
 19 16  2  0  0  0  0
 22 25  2  0  0  0  0
M  END
> <IDNUMBER>
F6401-0050

> <Chemical_Name>
2-[2,6-dioxo-4-(thiophen-2-yl)piperidin-1-yl]-N-(2-methoxyphenyl)acetamide

> <CAS>
1396858-50-6

> <PriceCoeff>
1.00

> <MW>
358.41

> <Description>
solid

> <FSP3>
0.28

> <clogP>
1.86

> <TPSA>
103.95

> <Acceptor>
4

> <Donor>
1

> <RotBonds>
5

> <HAC>
25

> <Collection>
General

$$$$
F1593-0022
  -ISIS-  06222321452D

 26 29  0  0  0  0  0  0  0  0999 V2000
   -2.7625   -4.3417    0.0000 N   0  0  3  0  0  0  0  0  0  0  0  0
   -2.4333   -1.2542    0.0000 C   0  0  0  0  0  0  0  0  0  0  0  0
    0.0667   -5.6125    0.0000 C   0  0  0  0  0  0  0  0  0  0  0  0
    2.1500   -3.3125    0.0000 C   0  0  3  0  0  0  0  0  0  0  0  0
    0.6042   -0.6167    0.0000 C   0  0  0  0  0  0  0  0  0  0  0  0
   11.3667    7.1542    0.0000 N   0  0  3  0  0  0  0  0  0  0  0  0
    5.2292   -3.6417    0.0000 N   0  0  0  0  0  0  0  0  0  0  0  0
   -4.7333    0.8250    0.0000 O   0  0  0  0  0  0  0  0  0  0  0  0
    9.8375    4.4625    0.0000 C   0  0  0  0  0  0  0  0  0  0  0  0
    0.7042   -8.6500    0.0000 O   0  0  0  0  0  0  0  0  0  0  0  0
   -5.4583   -5.8750    0.0000 C   0  0  3  0  0  0  0  0  0  0  0  0
   14.4292   12.5500    0.0000 O   0  0  0  0  0  0  0  0  0  0  0  0
   11.4125    1.7833    0.0000 C   0  0  0  0  0  0  0  0  0  0  0  0
    6.7042    4.4167    0.0000 C   0  0  0  0  0  0  0  0  0  0  0  0
    6.7667   -0.9375    0.0000 C   0  0  0  0  0  0  0  0  0  0  0  0
    9.8792   -0.9167    0.0000 C   0  0  0  0  0  0  0  0  0  0  0  0
    5.1917    1.7250    0.0000 C   0  0  0  0  0  0  0  0  0  0  0  0
   14.4750    7.1792    0.0000 C   0  0  0  0  0  0  0  0  0  0  0  0
    9.7875    9.8167    0.0000 C   0  0  0  0  0  0  0  0  0  0  0  0
   11.3292   12.5292    0.0000 C   0  0  0  0  0  0  0  0  0  0  0  0
   16.0000    9.8667    0.0000 C   0  0  0  0  0  0  0  0  0  0  0  0
   -5.4583   -8.9750    0.0000 C   0  0  0  0  0  0  0  0  0  0  0  0
   -8.1292   -4.3042    0.0000 C   0  0  0  0  0  0  0  0  0  0  0  0
   -8.1292  -10.5125    0.0000 C   0  0  0  0  0  0  0  0  0  0  0  0
  -10.8042   -5.8750    0.0000 C   0  0  0  0  0  0  0  0  0  0  0  0
  -10.8042   -8.9750    0.0000 C   0  0  0  0  0  0  0  0  0  0  0  0
  2  1  1  0  0  0  0
  3  1  1  0  0  0  0
  4  3  1  0  0  0  0
  5  2  1  0  0  0  0
  6  9  1  0  0  0  0
  7  4  1  0  0  0  0
  8  2  2  0  0  0  0
  9 14  1  0  0  0  0
 10  3  2  0  0  0  0
 11  1  1  0  0  0  0
 12 20  1  0  0  0  0
 13 16  1  0  0  0  0
 14 17  2  0  0  0  0
 15  7  1  0  0  0  0
 16 15  2  0  0  0  0
 17 15  1  0  0  0  0
 18  6  1  0  0  0  0
 19  6  1  0  0  0  0
 20 19  1  0  0  0  0
 21 18  1  0  0  0  0
 22 11  1  0  0  0  0
 23 11  1  0  0  0  0
 24 22  1  0  0  0  0
 25 23  1  0  0  0  0
 26 25  1  0  0  0  0
  5  4  1  0  0  0  0
 26 24  1  0  0  0  0
  9 13  2  0  0  0  0
 12 21  1  0  0  0  0
M  END
> <IDNUMBER>
F1593-0022

> <Chemical_Name>
1-cyclohexyl-3-{[4-(morpholin-4-yl)phenyl]amino}pyrrolidine-2,5-dione

> <CAS>
1009782-44-8

> <PriceCoeff>
1.00

> <MW>
357.45

> <Description>
solid

> <FSP3>
0.60

> <clogP>
3.05

> <TPSA>
61.88

> <Acceptor>
5

> <Donor>
2

> <RotBonds>
4

> <HAC>
26

> <Collection>
General

$$$$
F0348-2897
  -ISIS-  06222321142D

 14 14  0  0  0  0  0  0  0  0999 V2000
   -0.5125    1.2708    0.0000 C   0  0  0  0  0  0  0  0  0  0  0  0
   -0.7125    0.5125    0.0000 N   0  0  0  0  0  0  0  0  0  0  0  0
    0.2500    1.4500    0.0000 O   0  0  0  0  0  0  0  0  0  0  0  0
   -1.4708    0.3125    0.0000 C   0  0  0  0  0  0  0  0  0  0  0  0
   -1.0500    1.8333    0.0000 O   0  0  0  0  0  0  0  0  0  0  0  0
   -2.9958   -0.0792    0.0000 C   0  0  0  0  0  0  0  0  0  0  0  0
   -1.6958   -0.4500    0.0000 C   0  0  0  0  0  0  0  0  0  0  0  0
   -2.0333    0.8708    0.0000 C   0  0  0  0  0  0  0  0  0  0  0  0
   -2.4500   -0.6500    0.0000 C   0  0  0  0  0  0  0  0  0  0  0  0
   -2.7958    0.6500    0.0000 C   0  0  0  0  0  0  0  0  0  0  0  0
   -3.7958   -0.2542    0.0000 O   0  0  0  0  0  0  0  0  0  0  0  0
   -1.8125    1.6333    0.0000 C   0  0  0  0  0  0  0  0  0  0  0  0
   -4.1208   -1.1167    0.0000 C   0  0  0  0  0  0  0  0  0  0  0  0
   -2.3500    2.1958    0.0000 C   0  0  0  0  0  0  0  0  0  0  0  0
  2  1  1  0  0  0  0
  3  1  2  0  0  0  0
  4  2  1  0  0  0  0
  5  1  1  0  0  0  0
  6 10  1  0  0  0  0
  7  4  2  0  0  0  0
  8  4  1  0  0  0  0
  9  7  1  0  0  0  0
 10  8  2  0  0  0  0
 11  6  1  0  0  0  0
 12  5  1  0  0  0  0
 13 11  1  0  0  0  0
 14 12  1  0  0  0  0
  6  9  2  0  0  0  0
M  END
> <IDNUMBER>
F0348-2897

> <Chemical_Name>
ethyl N-(4-methoxyphenyl)carbamate

> <CAS>
7451-55-0

> <PriceCoeff>
1.00

> <MW>
195.22

> <Description>
solid

> <FSP3>
0.30

> <clogP>
2.19

> <TPSA>
47.56

> <Acceptor>
3

> <Donor>
1

> <RotBonds>
4

> <HAC>
14

> <Collection>
General

> <Reference_compound>
CHEMBL2235373

> <Similarity>
0.8300

$$$$
F0440-0357
  -ISIS-  06222321142D

 21 23  0  0  0  0  0  0  0  0999 V2000
    0.2500   -1.7792    0.0000 N   0  0  3  0  0  0  0  0  0  0  0  0
   -1.9958   -1.2167    0.0000 N   0  0  0  0  0  0  0  0  0  0  0  0
   -1.6500   -0.7000    0.0000 C   0  0  0  0  0  0  0  0  0  0  0  0
   -2.5958   -1.0542    0.0000 C   0  0  0  0  0  0  0  0  0  0  0  0
   -1.0125   -0.7000    0.0000 N   0  0  0  0  0  0  0  0  0  0  0  0
    0.8500   -1.9167    0.0000 C   0  0  0  0  0  0  0  0  0  0  0  0
   -0.0708   -2.3167    0.0000 C   0  0  0  0  0  0  0  0  0  0  0  0
   -2.0333   -0.2167    0.0000 S   0  0  0  0  0  0  0  0  0  0  0  0
   -3.0708   -1.4542    0.0000 C   0  0  0  0  0  0  0  0  0  0  0  0
   -2.6125   -0.4500    0.0000 C   0  0  0  0  0  0  0  0  0  0  0  0
   -0.6958   -1.2500    0.0000 C   0  0  0  0  0  0  0  0  0  0  0  0
   -0.0708   -1.2500    0.0000 C   0  0  0  0  0  0  0  0  0  0  0  0
   -3.0708   -2.0792    0.0000 S   0  0  0  0  0  0  0  0  0  0  0  0
   -3.6500   -1.2542    0.0000 C   0  0  0  0  0  0  0  0  0  0  0  0
    0.9000   -2.5500    0.0000 C   0  0  0  0  0  0  0  0  0  0  0  0
    0.3542   -2.7792    0.0000 C   0  0  0  0  0  0  0  0  0  0  0  0
    1.3500   -1.5000    0.0000 O   0  0  0  0  0  0  0  0  0  0  0  0
   -0.6958   -2.3792    0.0000 O   0  0  0  0  0  0  0  0  0  0  0  0
   -3.6708   -2.2792    0.0000 C   0  0  0  0  0  0  0  0  0  0  0  0
   -1.0125   -1.7792    0.0000 O   0  0  0  0  0  0  0  0  0  0  0  0
   -4.0333   -1.7542    0.0000 C   0  0  0  0  0  0  0  0  0  0  0  0
  2  3  2  0  0  0  0
  3  5  1  0  0  0  0
  4  2  1  0  0  0  0
  5 11  1  0  0  0  0
  6  1  1  0  0  0  0
  7  1  1  0  0  0  0
  8  3  1  0  0  0  0
  9  4  1  0  0  0  0
 10  8  1  0  0  0  0
 11 12  1  0  0  0  0
 12  1  1  0  0  0  0
 13  9  1  0  0  0  0
 14  9  2  0  0  0  0
 15  6  1  0  0  0  0
 16  7  1  0  0  0  0
 17  6  2  0  0  0  0
 18  7  2  0  0  0  0
 19 13  1  0  0  0  0
 20 11  2  0  0  0  0
 21 14  1  0  0  0  0
 16 15  1  0  0  0  0
 10  4  2  0  0  0  0
 21 19  2  0  0  0  0
M  END
> <IDNUMBER>
F0440-0357

> <Chemical_Name>
2-(2,5-dioxopyrrolidin-1-yl)-N-[4-(thiophen-2-yl)-1,3-thiazol-2-yl]acetamide

> <CAS>
380184-49-6

> <PriceCoeff>
1.00

> <MW>
321.37

> <Description>
solid

> <FSP3>
0.23

> <clogP>
1.84

> <TPSA>
135.85

> <Acceptor>
4

> <Donor>
1

> <RotBonds>
4

> <HAC>
21

> <Collection>
General

$$$$
F1335-0047
  -ISIS-  06222321142D

 16 16  0  0  0  0  0  0  0  0999 V2000
    3.5667   -0.2167    0.0000 C   0  0  0  0  0  0  0  0  0  0  0  0
    4.2875   -0.6292    0.0000 N   0  0  0  0  0  0  0  0  0  0  0  0
    2.8542   -0.6417    0.0000 C   0  0  0  0  0  0  0  0  0  0  0  0
    5.0042   -1.8625    0.0000 C   0  0  0  0  0  0  0  0  0  0  0  0
    3.5667    0.6000    0.0000 O   0  0  0  0  0  0  0  0  0  0  0  0
    5.0125   -2.6875    0.0000 O   0  0  0  0  0  0  0  0  0  0  0  0
    4.2875   -1.4542    0.0000 C   0  0  0  0  0  0  0  0  0  0  0  0
    2.8542   -1.4667    0.0000 C   0  0  0  0  0  0  0  0  0  0  0  0
    2.1417   -0.2292    0.0000 C   0  0  0  0  0  0  0  0  0  0  0  0
    1.4292   -1.4667    0.0000 C   0  0  0  0  0  0  0  0  0  0  0  0
    2.1417   -1.8792    0.0000 C   0  0  0  0  0  0  0  0  0  0  0  0
    1.4292   -0.6417    0.0000 C   0  0  0  0  0  0  0  0  0  0  0  0
    5.7167   -1.4417    0.0000 O   0  0  0  0  0  0  0  0  0  0  0  0
    0.7125   -1.8792    0.0000 O   0  0  0  0  0  0  0  0  0  0  0  0
    6.4292   -1.8500    0.0000 C   0  0  0  0  0  0  0  0  0  0  0  0
    0.0000   -1.4667    0.0000 C   0  0  0  0  0  0  0  0  0  0  0  0
  2  1  1  0  0  0  0
  3  1  1  0  0  0  0
  4  7  1  0  0  0  0
  5  1  2  0  0  0  0
  6  4  2  0  0  0  0
  7  2  1  0  0  0  0
  8  3  1  0  0  0  0
  9  3  2  0  0  0  0
 10 12  2  0  0  0  0
 11  8  2  0  0  0  0
 12  9  1  0  0  0  0
 13  4  1  0  0  0  0
 14 10  1  0  0  0  0
 15 13  1  0  0  0  0
 16 14  1  0  0  0  0
 11 10  1  0  0  0  0
M  END
> <IDNUMBER>
F1335-0047

> <Chemical_Name>
methyl 2-[(4-methoxyphenyl)formamido]acetate

> <CAS>
62086-71-9

> <PriceCoeff>
1.00

> <MW>
223.23

> <Description>
solid

> <FSP3>
0.27

> <clogP>
1.06

> <TPSA>
64.63

> <Acceptor>
4

> <Donor>
1

> <RotBonds>
5

> <HAC>
16

> <Collection>
General

> <Reference_compound>
CHEMBL500596

> <Similarity>
0.8500

$$$$
F1800-0185
  -ISIS-  06222321142D

 22 23  0  0  0  0  0  0  0  0999 V2000
   -3.7250    2.3000    0.0000 N   0  0  3  0  0  0  0  0  0  0  0  0
   -3.3500    2.9583    0.0000 C   0  0  0  0  0  0  0  0  0  0  0  0
   -3.3500    1.6583    0.0000 C   0  0  0  0  0  0  0  0  0  0  0  0
   -2.2250    2.3000    0.0000 S   0  0  0  0  0  0  0  0  0  0  0  0
   -4.4750    2.3000    0.0000 C   0  0  0  0  0  0  0  0  0  0  0  0
   -4.8500    2.9458    0.0000 C   0  0  0  0  0  0  0  0  0  0  0  0
   -2.6000    2.9583    0.0000 C   0  0  3  0  0  0  0  0  0  0  0  0
   -2.6000    1.6583    0.0000 C   0  0  0  0  0  0  0  0  0  0  0  0
   -5.6000    2.9458    0.0000 N   0  0  0  0  0  0  0  0  0  0  0  0
   -3.7333    3.6083    0.0000 O   0  0  0  0  0  0  0  0  0  0  0  0
   -3.7333    1.0000    0.0000 O   0  0  0  0  0  0  0  0  0  0  0  0
   -4.4750    3.5958    0.0000 O   0  0  0  0  0  0  0  0  0  0  0  0
   -5.9750    3.5958    0.0000 C   0  0  0  0  0  0  0  0  0  0  0  0
   -6.7167    4.8875    0.0000 C   0  0  0  0  0  0  0  0  0  0  0  0
   -6.7167    3.5958    0.0000 C   0  0  0  0  0  0  0  0  0  0  0  0
   -5.6000    4.2292    0.0000 C   0  0  0  0  0  0  0  0  0  0  0  0
   -5.9750    4.8875    0.0000 C   0  0  0  0  0  0  0  0  0  0  0  0
   -7.0917    4.2292    0.0000 C   0  0  0  0  0  0  0  0  0  0  0  0
   -7.1042    5.5417    0.0000 O   0  0  0  0  0  0  0  0  0  0  0  0
   -2.2208    3.6083    0.0000 C   0  0  0  0  0  0  0  0  0  0  0  0
   -7.8542    5.5417    0.0000 C   0  0  0  0  0  0  0  0  0  0  0  0
   -8.2292    6.1875    0.0000 C   0  0  0  0  0  0  0  0  0  0  0  0
  2  1  1  0  0  0  0
  3  1  1  0  0  0  0
  4  8  1  0  0  0  0
  5  1  1  0  0  0  0
  6  5  1  0  0  0  0
  7  2  1  0  0  0  0
  8  3  1  0  0  0  0
  9  6  1  0  0  0  0
 10  2  2  0  0  0  0
 11  3  2  0  0  0  0
 12  6  2  0  0  0  0
 13  9  1  0  0  0  0
 14 17  2  0  0  0  0
 15 13  1  0  0  0  0
 16 13  2  0  0  0  0
 17 16  1  0  0  0  0
 18 15  2  0  0  0  0
 19 14  1  0  0  0  0
 20  7  1  0  0  0  0
 21 19  1  0  0  0  0
 22 21  1  0  0  0  0
  7  4  1  0  0  0  0
 18 14  1  0  0  0  0
M  END
> <IDNUMBER>
F1800-0185

> <Chemical_Name>
N-(4-ethoxyphenyl)-2-(2-methyl-3,5-dioxothiomorpholin-4-yl)acetamide

> <CAS>
868216-06-2

> <PriceCoeff>
1.00

> <MW>
322.38

> <Description>
solid

> <FSP3>
0.40

> <clogP>
2.58

> <TPSA>
101.01

> <Acceptor>
4

> <Donor>
1

> <RotBonds>
5

> <HAC>
22

> <Collection>
General

$$$$
F3188-0012
  -ISIS-  06222321152D

 25 27  0  0  0  0  0  0  0  0999 V2000
    4.9625   -0.9417    0.0000 N   0  0  3  0  0  0  0  0  0  0  0  0
    5.4542   -1.6042    0.0000 C   0  0  0  0  0  0  0  0  0  0  0  0
    5.4417   -0.2667    0.0000 C   0  0  0  0  0  0  0  0  0  0  0  0
    6.2375   -1.3417    0.0000 C   0  0  3  0  0  0  0  0  0  0  0  0
    6.2292   -0.5167    0.0000 C   0  0  0  0  0  0  0  0  0  0  0  0
    4.1375   -0.9417    0.0000 C   0  0  0  0  0  0  0  0  0  0  0  0
    6.9000   -1.8250    0.0000 N   0  0  3  0  0  0  0  0  0  0  0  0
    8.2375   -2.7917    0.0000 N   0  0  3  0  0  0  0  0  0  0  0  0
    8.9042   -3.2750    0.0000 C   0  0  0  0  0  0  0  0  0  0  0  0
    5.2000   -2.3917    0.0000 O   0  0  0  0  0  0  0  0  0  0  0  0
    5.1875    0.5125    0.0000 O   0  0  0  0  0  0  0  0  0  0  0  0
    3.7292   -1.6625    0.0000 C   0  0  0  0  0  0  0  0  0  0  0  0
    8.3167   -1.9667    0.0000 C   0  0  0  0  0  0  0  0  0  0  0  0
    7.4792   -3.1292    0.0000 C   0  0  0  0  0  0  0  0  0  0  0  0
    7.6500   -1.4875    0.0000 C   0  0  0  0  0  0  0  0  0  0  0  0
    6.8167   -2.6500    0.0000 C   0  0  0  0  0  0  0  0  0  0  0  0
    9.6542   -2.9417    0.0000 O   0  0  0  0  0  0  0  0  0  0  0  0
    8.8167   -4.0917    0.0000 O   0  0  0  0  0  0  0  0  0  0  0  0
    2.9125   -1.6667    0.0000 C   0  0  0  0  0  0  0  0  0  0  0  0
    3.7250   -0.2292    0.0000 C   0  0  0  0  0  0  0  0  0  0  0  0
    2.9000   -0.2375    0.0000 C   0  0  0  0  0  0  0  0  0  0  0  0
    2.4917   -0.9542    0.0000 C   0  0  0  0  0  0  0  0  0  0  0  0
    8.0667   -4.4292    0.0000 C   0  0  0  0  0  0  0  0  0  0  0  0
    2.5042   -2.3875    0.0000 C   0  0  0  0  0  0  0  0  0  0  0  0
    7.9792   -5.2542    0.0000 C   0  0  0  0  0  0  0  0  0  0  0  0
  2  1  1  0  0  0  0
  3  1  1  0  0  0  0
  4  2  1  0  0  0  0
  5  3  1  0  0  0  0
  6  1  1  0  0  0  0
  7  4  1  0  0  0  0
  8 14  1  0  0  0  0
  9  8  1  0  0  0  0
 10  2  2  0  0  0  0
 11  3  2  0  0  0  0
 12  6  1  0  0  0  0
 13 15  1  0  0  0  0
 14 16  1  0  0  0  0
 15  7  1  0  0  0  0
 16  7  1  0  0  0  0
 17  9  2  0  0  0  0
 18  9  1  0  0  0  0
 19 12  2  0  0  0  0
 20  6  2  0  0  0  0
 21 20  1  0  0  0  0
 22 21  2  0  0  0  0
 23 18  1  0  0  0  0
 24 19  1  0  0  0  0
 25 23  1  0  0  0  0
  5  4  1  0  0  0  0
 22 19  1  0  0  0  0
  8 13  1  0  0  0  0
M  END
> <IDNUMBER>
F3188-0012

> <Chemical_Name>
ethyl 4-[1-(3-methylphenyl)-2,5-dioxopyrrolidin-3-yl]piperazine-1-carboxylate

> <CAS>
857494-08-7

> <PriceCoeff>
1.00

> <MW>
345.39

> <Description>
solid

> <FSP3>
0.50

> <clogP>
2.88

> <TPSA>
70.16

> <Acceptor>
4

> <Donor>
1

> <RotBonds>
5

> <HAC>
25

> <Collection>
General

$$$$
F2130-0132
  -ISIS-  06222321462D

 17 18  0  0  0  0  0  0  0  0999 V2000
   -2.6625    2.9958    0.0000 C   0  0  0  0  0  0  0  0  0  0  0  0
   -2.9208    3.7833    0.0000 C   0  0  0  0  0  0  0  0  0  0  0  0
   -3.9958    2.9958    0.0000 N   0  0  0  0  0  0  0  0  0  0  0  0
   -3.7375    3.7833    0.0000 C   0  0  0  0  0  0  0  0  0  0  0  0
   -3.3333    2.5208    0.0000 N   0  0  0  0  0  0  0  0  0  0  0  0
   -1.8833    2.7458    0.0000 C   0  0  0  0  0  0  0  0  0  0  0  0
   -4.2208    4.4417    0.0000 C   0  0  0  0  0  0  0  0  0  0  0  0
   -2.4333    4.4417    0.0000 Br  0  0  0  0  0  0  0  0  0  0  0  0
   -1.7125    1.9458    0.0000 O   0  0  0  0  0  0  0  0  0  0  0  0
   -5.0375    4.3542    0.0000 C   0  0  0  0  0  0  0  0  0  0  0  0
   -3.8958    5.1917    0.0000 C   0  0  0  0  0  0  0  0  0  0  0  0
   -1.2708    3.2958    0.0000 O   0  0  0  0  0  0  0  0  0  0  0  0
   -5.1833    5.7667    0.0000 C   0  0  0  0  0  0  0  0  0  0  0  0
   -5.5208    5.0167    0.0000 C   0  0  0  0  0  0  0  0  0  0  0  0
   -4.3708    5.8542    0.0000 C   0  0  0  0  0  0  0  0  0  0  0  0
   -5.6625    6.4292    0.0000 F   0  0  0  0  0  0  0  0  0  0  0  0
   -0.4875    3.0458    0.0000 C   0  0  0  0  0  0  0  0  0  0  0  0
  2  1  2  0  0  0  0
  3  5  1  0  0  0  0
  4  2  1  0  0  0  0
  5  1  1  0  0  0  0
  6  1  1  0  0  0  0
  7  4  1  0  0  0  0
  8  2  1  0  0  0  0
  9  6  2  0  0  0  0
 10  7  2  0  0  0  0
 11  7  1  0  0  0  0
 12  6  1  0  0  0  0
 13 15  1  0  0  0  0
 14 10  1  0  0  0  0
 15 11  2  0  0  0  0
 16 13  1  0  0  0  0
 17 12  1  0  0  0  0
  3  4  2  0  0  0  0
 14 13  2  0  0  0  0
M  END
> <IDNUMBER>
F2130-0132

> <Chemical_Name>
methyl 4-bromo-3-(4-fluorophenyl)-1H-pyrazole-5-carboxylate

> <CAS>
1350465-88-1

> <PriceCoeff>
1.00

> <MW>
299.10

> <Description>
solid

> <FSP3>
0.09

> <clogP>
3.07

> <TPSA>
54.98

> <Acceptor>
4

> <Donor>
2

> <RotBonds>
3

> <HAC>
17

> <Collection>
General

$$$$
F1800-0019
  -ISIS-  06222321442D

 22 23  0  0  0  0  0  0  0  0999 V2000
   -3.7583    2.3708    0.0000 N   0  0  3  0  0  0  0  0  0  0  0  0
   -3.3500    1.6500    0.0000 C   0  0  0  0  0  0  0  0  0  0  0  0
   -3.3333    3.0833    0.0000 C   0  0  0  0  0  0  0  0  0  0  0  0
   -4.9958    1.6625    0.0000 C   0  0  0  0  0  0  0  0  0  0  0  0
   -4.5833    0.9375    0.0000 N   0  0  0  0  0  0  0  0  0  0  0  0
   -4.5833    2.3750    0.0000 C   0  0  0  0  0  0  0  0  0  0  0  0
   -5.0083    0.2333    0.0000 C   0  0  0  0  0  0  0  0  0  0  0  0
   -4.5958   -0.4875    0.0000 C   0  0  0  0  0  0  0  0  0  0  0  0
   -5.0000   -1.1917    0.0000 C   0  0  0  0  0  0  0  0  0  0  0  0
   -2.1083    2.3458    0.0000 S   0  0  0  0  0  0  0  0  0  0  0  0
   -3.7375    3.8000    0.0000 O   0  0  0  0  0  0  0  0  0  0  0  0
   -3.7708    0.9375    0.0000 O   0  0  0  0  0  0  0  0  0  0  0  0
   -5.8208    1.6708    0.0000 O   0  0  0  0  0  0  0  0  0  0  0  0
   -5.8208    0.2333    0.0000 C   0  0  0  0  0  0  0  0  0  0  0  0
   -5.8333   -1.1917    0.0000 C   0  0  0  0  0  0  0  0  0  0  0  0
   -2.5333    1.6458    0.0000 C   0  0  0  0  0  0  0  0  0  0  0  0
   -2.5083    3.0625    0.0000 C   0  0  0  0  0  0  0  0  0  0  0  0
   -6.2292   -0.4667    0.0000 C   0  0  0  0  0  0  0  0  0  0  0  0
   -3.7708   -0.4792    0.0000 O   0  0  0  0  0  0  0  0  0  0  0  0
   -6.2417   -1.9000    0.0000 O   0  0  0  0  0  0  0  0  0  0  0  0
   -3.3583   -1.1875    0.0000 C   0  0  0  0  0  0  0  0  0  0  0  0
   -7.0625   -1.9000    0.0000 C   0  0  0  0  0  0  0  0  0  0  0  0
  2  1  1  0  0  0  0
  3  1  1  0  0  0  0
  4  6  1  0  0  0  0
  5  4  1  0  0  0  0
  6  1  1  0  0  0  0
  7  5  1  0  0  0  0
  8  7  1  0  0  0  0
  9  8  2  0  0  0  0
 10 17  1  0  0  0  0
 11  3  2  0  0  0  0
 12  2  2  0  0  0  0
 13  4  2  0  0  0  0
 14  7  2  0  0  0  0
 15 18  2  0  0  0  0
 16  2  1  0  0  0  0
 17  3  1  0  0  0  0
 18 14  1  0  0  0  0
 19  8  1  0  0  0  0
 20 15  1  0  0  0  0
 21 19  1  0  0  0  0
 22 20  1  0  0  0  0
 16 10  1  0  0  0  0
  9 15  1  0  0  0  0
M  END
> <IDNUMBER>
F1800-0019

> <Chemical_Name>
N-(2,4-dimethoxyphenyl)-2-(3,5-dioxothiomorpholin-4-yl)acetamide

> <CAS>
868215-10-5

> <PriceCoeff>
1.00

> <MW>
324.35

> <Description>
solid

> <FSP3>
0.36

> <clogP>
0.96

> <TPSA>
110.24

> <Acceptor>
5

> <Donor>
1

> <RotBonds>
5

> <HAC>
22

> <Collection>
General

$$$$
F1800-0187
  -ISIS-  06222321452D

 23 24  0  0  0  0  0  0  0  0999 V2000
   -3.7250    2.3000    0.0000 N   0  0  3  0  0  0  0  0  0  0  0  0
   -3.3500    2.9583    0.0000 C   0  0  0  0  0  0  0  0  0  0  0  0
   -3.3500    1.6583    0.0000 C   0  0  0  0  0  0  0  0  0  0  0  0
   -5.9750    3.5958    0.0000 C   0  0  0  0  0  0  0  0  0  0  0  0
   -2.2250    2.3000    0.0000 S   0  0  0  0  0  0  0  0  0  0  0  0
   -4.8500    2.9458    0.0000 C   0  0  0  0  0  0  0  0  0  0  0  0
   -5.6000    2.9458    0.0000 N   0  0  0  0  0  0  0  0  0  0  0  0
   -4.4750    2.3000    0.0000 C   0  0  0  0  0  0  0  0  0  0  0  0
   -2.6000    2.9583    0.0000 C   0  0  3  0  0  0  0  0  0  0  0  0
   -5.6000    4.2292    0.0000 C   0  0  0  0  0  0  0  0  0  0  0  0
   -2.6000    1.6583    0.0000 C   0  0  0  0  0  0  0  0  0  0  0  0
   -3.7333    3.6083    0.0000 O   0  0  0  0  0  0  0  0  0  0  0  0
   -6.7167    3.5958    0.0000 C   0  0  0  0  0  0  0  0  0  0  0  0
   -3.7333    1.0000    0.0000 O   0  0  0  0  0  0  0  0  0  0  0  0
   -4.4750    3.5958    0.0000 O   0  0  0  0  0  0  0  0  0  0  0  0
   -7.0917    4.2292    0.0000 C   0  0  0  0  0  0  0  0  0  0  0  0
   -5.9750    4.8875    0.0000 C   0  0  0  0  0  0  0  0  0  0  0  0
   -6.7167    4.8875    0.0000 C   0  0  0  0  0  0  0  0  0  0  0  0
   -7.1042    2.9375    0.0000 O   0  0  0  0  0  0  0  0  0  0  0  0
   -5.5958    5.5417    0.0000 O   0  0  0  0  0  0  0  0  0  0  0  0
   -2.2208    3.6083    0.0000 C   0  0  0  0  0  0  0  0  0  0  0  0
   -6.7292    2.2833    0.0000 C   0  0  0  0  0  0  0  0  0  0  0  0
   -4.8458    5.5417    0.0000 C   0  0  0  0  0  0  0  0  0  0  0  0
  2  1  1  0  0  0  0
  3  1  1  0  0  0  0
  4  7  1  0  0  0  0
  5 11  1  0  0  0  0
  6  8  1  0  0  0  0
  7  6  1  0  0  0  0
  8  1  1  0  0  0  0
  9  2  1  0  0  0  0
 10  4  1  0  0  0  0
 11  3  1  0  0  0  0
 12  2  2  0  0  0  0
 13  4  2  0  0  0  0
 14  3  2  0  0  0  0
 15  6  2  0  0  0  0
 16 13  1  0  0  0  0
 17 10  2  0  0  0  0
 18 16  2  0  0  0  0
 19 13  1  0  0  0  0
 20 17  1  0  0  0  0
 21  9  1  0  0  0  0
 22 19  1  0  0  0  0
 23 20  1  0  0  0  0
  9  5  1  0  0  0  0
 17 18  1  0  0  0  0
M  END
> <IDNUMBER>
F1800-0187

> <Chemical_Name>
N-(2,5-dimethoxyphenyl)-2-(2-methyl-3,5-dioxothiomorpholin-4-yl)acetamide

> <CAS>
868216-08-4

> <PriceCoeff>
1.00

> <MW>
338.38

> <Description>
solid

> <FSP3>
0.40

> <clogP>
1.48

> <TPSA>
110.24

> <Acceptor>
5

> <Donor>
1

> <RotBonds>
5

> <HAC>
23

> <Collection>
General

$$$$
F5870-0404
  -ISIS-  06222321462D

 26 28  0  0  0  0  0  0  0  0999 V2000
   -5.2958    2.5583    0.0000 N   0  0  3  0  0  0  0  0  0  0  0  0
   -5.3708    1.7333    0.0000 C   0  0  0  0  0  0  0  0  0  0  0  0
   -6.0292    2.8958    0.0000 C   0  0  0  0  0  0  0  0  0  0  0  0
   -4.5833    2.9833    0.0000 C   0  0  0  0  0  0  0  0  0  0  0  0
   -3.1458    5.4542    0.0000 C   0  0  3  0  0  0  0  0  0  0  0  0
   -4.5833    3.8000    0.0000 C   0  0  0  0  0  0  0  0  0  0  0  0
   -2.4333    5.0417    0.0000 C   0  0  0  0  0  0  0  0  0  0  0  0
   -3.8625    4.2125    0.0000 N   0  0  0  0  0  0  0  0  0  0  0  0
   -6.1667    1.5583    0.0000 C   0  0  0  0  0  0  0  0  0  0  0  0
   -6.5875    2.2750    0.0000 C   0  0  0  0  0  0  0  0  0  0  0  0
   -4.7583    1.1708    0.0000 O   0  0  0  0  0  0  0  0  0  0  0  0
   -6.2125    3.7083    0.0000 O   0  0  0  0  0  0  0  0  0  0  0  0
   -3.8625    5.0417    0.0000 C   0  0  0  0  0  0  0  0  0  0  0  0
   -1.7208    5.4542    0.0000 C   0  0  0  0  0  0  0  0  0  0  0  0
   -5.3000    4.2125    0.0000 O   0  0  0  0  0  0  0  0  0  0  0  0
   -3.1458    7.1250    0.0000 O   0  0  0  0  0  0  0  0  0  0  0  0
   -1.7250    6.2917    0.0000 O   0  0  0  0  0  0  0  0  0  0  0  0
   -2.4333    5.8792    0.0000 C   0  0  0  0  0  0  0  0  0  0  0  0
   -3.8625    5.8792    0.0000 C   0  0  0  0  0  0  0  0  0  0  0  0
   -2.4333    4.2167    0.0000 C   0  0  0  0  0  0  0  0  0  0  0  0
   -2.4333    6.7042    0.0000 C   0  0  0  0  0  0  0  0  0  0  0  0
   -3.8625    6.7042    0.0000 C   0  0  0  0  0  0  0  0  0  0  0  0
   -1.0083    5.0542    0.0000 C   0  0  0  0  0  0  0  0  0  0  0  0
   -1.0083    6.7125    0.0000 C   0  0  0  0  0  0  0  0  0  0  0  0
   -1.7125    3.8083    0.0000 C   0  0  0  0  0  0  0  0  0  0  0  0
   -0.9958    4.2167    0.0000 C   0  0  0  0  0  0  0  0  0  0  0  0
  2  1  1  0  0  0  0
  3  1  1  0  0  0  0
  4  1  1  0  0  0  0
  5 13  1  0  0  0  0
  6  4  1  0  0  0  0
  7  5  1  0  0  0  0
  8  6  1  0  0  0  0
  9  2  1  0  0  0  0
 10  3  1  0  0  0  0
 11  2  2  0  0  0  0
 12  3  2  0  0  0  0
 13  8  1  0  0  0  0
 14  7  1  0  0  0  0
 15  6  2  0  0  0  0
 16 22  1  0  0  0  0
 17 14  1  0  0  0  0
 18  5  1  0  0  0  0
 19  5  1  0  0  0  0
 20  7  2  0  0  0  0
 21 18  1  0  0  0  0
 22 19  1  0  0  0  0
 23 14  2  0  0  0  0
 24 17  1  0  0  0  0
 25 20  1  0  0  0  0
 26 25  2  0  0  0  0
  9 10  1  0  0  0  0
 21 16  1  0  0  0  0
 26 23  1  0  0  0  0
M  END
> <IDNUMBER>
F5870-0404

> <Chemical_Name>
2-(2,5-dioxopyrrolidin-1-yl)-N-{[4-(2-methoxyphenyl)oxan-4-yl]methyl}acetamide

> <CAS>
1207030-19-0

> <PriceCoeff>
1.00

> <MW>
360.40

> <Description>
solid

> <FSP3>
0.53

> <clogP>
0.48

> <TPSA>
84.94

> <Acceptor>
5

> <Donor>
1

> <RotBonds>
6

> <HAC>
26

> <Collection>
General

$$$$
F6473-8345
  -ISIS-  06222321462D

 26 28  0  0  0  0  0  0  0  0999 V2000
   -3.7458    3.6958    0.0000 C   0  0  0  0  0  0  0  0  0  0  0  0
   -0.9083    6.1667    0.0000 C   0  0  0  0  0  0  0  0  0  0  0  0
   -0.1958    6.5750    0.0000 C   0  0  0  0  0  0  0  0  0  0  0  0
   -3.0333    4.1042    0.0000 N   0  0  3  0  0  0  0  0  0  0  0  0
   -0.1958    7.3917    0.0000 C   0  0  0  0  0  0  0  0  0  0  0  0
   -1.6250    6.5625    0.0000 C   0  0  0  0  0  0  0  0  0  0  0  0
   -0.9083    7.8042    0.0000 O   0  0  0  0  0  0  0  0  0  0  0  0
   -4.4583    4.1042    0.0000 N   0  0  0  0  0  0  0  0  0  0  0  0
   -1.6250    7.3917    0.0000 C   0  0  0  0  0  0  0  0  0  0  0  0
   -6.5917    3.7083    0.0000 C   0  0  0  0  0  0  0  0  0  0  0  0
   -5.8917    4.1083    0.0000 C   0  0  0  0  0  0  0  0  0  0  0  0
   -5.1708    3.7042    0.0000 C   0  0  0  0  0  0  0  0  0  0  0  0
   -3.7458    2.8833    0.0000 O   0  0  0  0  0  0  0  0  0  0  0  0
   -0.8958    5.3417    0.0000 O   0  0  0  0  0  0  0  0  0  0  0  0
   -3.0333    4.9292    0.0000 C   0  0  0  0  0  0  0  0  0  0  0  0
   -2.3208    3.6958    0.0000 C   0  0  0  0  0  0  0  0  0  0  0  0
   -6.5917    2.8833    0.0000 C   0  0  0  0  0  0  0  0  0  0  0  0
    0.5167    7.8125    0.0000 O   0  0  0  0  0  0  0  0  0  0  0  0
   -1.6083    4.1042    0.0000 C   0  0  0  0  0  0  0  0  0  0  0  0
   -2.3250    5.3375    0.0000 C   0  0  0  0  0  0  0  0  0  0  0  0
   -5.8958    2.4625    0.0000 C   0  0  0  0  0  0  0  0  0  0  0  0
   -1.6125    4.9292    0.0000 C   0  0  3  0  0  0  0  0  0  0  0  0
   -7.3042    4.1167    0.0000 Cl  0  0  0  0  0  0  0  0  0  0  0  0
   -5.1708    2.8750    0.0000 C   0  0  0  0  0  0  0  0  0  0  0  0
   -7.3167    2.4708    0.0000 Cl  0  0  0  0  0  0  0  0  0  0  0  0
   -2.3458    7.8042    0.0000 C   0  0  0  0  0  0  0  0  0  0  0  0
  2 14  1  0  0  0  0
  3  2  2  0  0  0  0
  4  1  1  0  0  0  0
  5  3  1  0  0  0  0
  6  2  1  0  0  0  0
  7  9  1  0  0  0  0
  8  1  1  0  0  0  0
  9  6  2  0  0  0  0
 10 11  1  0  0  0  0
 11 12  2  0  0  0  0
 12  8  1  0  0  0  0
 13  1  2  0  0  0  0
 14 22  1  0  0  0  0
 15  4  1  0  0  0  0
 16  4  1  0  0  0  0
 17 21  1  0  0  0  0
 18  5  2  0  0  0  0
 19 16  1  0  0  0  0
 20 15  1  0  0  0  0
 21 24  2  0  0  0  0
 22 19  1  0  0  0  0
 23 10  1  0  0  0  0
 24 12  1  0  0  0  0
 25 17  1  0  0  0  0
 26  9  1  0  0  0  0
 20 22  1  0  0  0  0
 10 17  2  0  0  0  0
  7  5  1  0  0  0  0
M  END
> <IDNUMBER>
F6473-8345

> <Chemical_Name>
N-(3,4-dichlorophenyl)-4-[(6-methyl-2-oxo-2H-pyran-4-yl)oxy]piperidine-1-carboxamide

> <CAS>
1798513-22-0

> <PriceCoeff>
1.50

> <MW>
397.25

> <Description>
solid

> <FSP3>
0.33

> <clogP>
3.24

> <TPSA>
67.87

> <Acceptor>
4

> <Donor>
1

> <RotBonds>
4

> <HAC>
26

> <Collection>
Advanced

$$$$
F2590-0037
  -ISIS-  06222321142D

 25 27  0  0  0  0  0  0  0  0999 V2000
   -3.8500    2.9833    0.0000 C   0  0  0  0  0  0  0  0  0  0  0  0
   -4.5208    2.4958    0.0000 C   0  0  0  0  0  0  0  0  0  0  0  0
   -3.1333    7.4917    0.0000 N   0  0  3  0  0  0  0  0  0  0  0  0
   -3.1833    2.4958    0.0000 S   0  0  0  0  0  0  0  0  0  0  0  0
   -4.2583    1.7125    0.0000 C   0  0  0  0  0  0  0  0  0  0  0  0
   -3.8500    3.8000    0.0000 N   0  0  0  0  0  0  0  0  0  0  0  0
   -3.4458    1.7208    0.0000 C   0  0  0  0  0  0  0  0  0  0  0  0
   -3.1375    4.2042    0.0000 C   0  0  0  0  0  0  0  0  0  0  0  0
   -2.5000    8.0042    0.0000 C   0  0  0  0  0  0  0  0  0  0  0  0
   -3.8208    7.9500    0.0000 C   0  0  0  0  0  0  0  0  0  0  0  0
   -5.3083    2.7583    0.0000 C   0  0  0  0  0  0  0  0  0  0  0  0
   -6.0792    3.0083    0.0000 N   0  0  0  0  0  0  0  0  0  0  0  0
   -3.1333    6.6750    0.0000 C   0  0  0  0  0  0  0  0  0  0  0  0
   -3.1375    5.0292    0.0000 C   0  0  0  0  0  0  0  0  0  0  0  0
   -2.4333    3.8083    0.0000 O   0  0  0  0  0  0  0  0  0  0  0  0
   -2.7833    8.7667    0.0000 C   0  0  0  0  0  0  0  0  0  0  0  0
   -3.5958    8.7417    0.0000 C   0  0  0  0  0  0  0  0  0  0  0  0
   -1.7083    7.7792    0.0000 O   0  0  0  0  0  0  0  0  0  0  0  0
   -4.6000    7.6667    0.0000 O   0  0  0  0  0  0  0  0  0  0  0  0
   -3.8583    6.2625    0.0000 C   0  0  0  0  0  0  0  0  0  0  0  0
   -2.4333    6.2625    0.0000 C   0  0  0  0  0  0  0  0  0  0  0  0
   -2.4375    5.4375    0.0000 C   0  0  0  0  0  0  0  0  0  0  0  0
   -3.8583    5.4375    0.0000 C   0  0  0  0  0  0  0  0  0  0  0  0
   -4.7458    1.0458    0.0000 C   0  0  0  0  0  0  0  0  0  0  0  0
   -2.9583    1.0500    0.0000 C   0  0  0  0  0  0  0  0  0  0  0  0
  2  1  2  0  0  0  0
  3 13  1  0  0  0  0
  4  1  1  0  0  0  0
  5  2  1  0  0  0  0
  6  1  1  0  0  0  0
  7  4  1  0  0  0  0
  8  6  1  0  0  0  0
  9  3  1  0  0  0  0
 10  3  1  0  0  0  0
 11  2  1  0  0  0  0
 12 11  3  0  0  0  0
 13 20  1  0  0  0  0
 14  8  1  0  0  0  0
 15  8  2  0  0  0  0
 16  9  1  0  0  0  0
 17 10  1  0  0  0  0
 18  9  2  0  0  0  0
 19 10  2  0  0  0  0
 20 23  2  0  0  0  0
 21 22  1  0  0  0  0
 22 14  2  0  0  0  0
 23 14  1  0  0  0  0
 24  5  1  0  0  0  0
 25  7  1  0  0  0  0
  5  7  2  0  0  0  0
 21 13  2  0  0  0  0
 17 16  1  0  0  0  0
M  END
> <IDNUMBER>
F2590-0037

> <Chemical_Name>
N-(3-cyano-4,5-dimethylthiophen-2-yl)-4-(2,5-dioxopyrrolidin-1-yl)benzamide

> <CAS>
896302-31-1

> <PriceCoeff>
1.00

> <MW>
353.40

> <Description>
solid

> <FSP3>
0.22

> <clogP>
0.95

> <TPSA>
118.51

> <Acceptor>
4

> <Donor>
1

> <RotBonds>
3

> <HAC>
25

> <Collection>
General

$$$$
F3023-0932
  -ISIS-  06222321152D

 21 22  0  0  0  0  0  0  0  0999 V2000
    3.7625   -6.4042    0.0000 N   0  0  3  0  0  0  0  0  0  0  0  0
    4.1792   -6.9750    0.0000 C   0  0  0  0  0  0  0  0  0  0  0  0
    4.1792   -5.8292    0.0000 C   0  0  0  0  0  0  0  0  0  0  0  0
    4.8542   -6.7542    0.0000 C   0  0  3  0  0  0  0  0  0  0  0  0
    4.8542   -6.0417    0.0000 C   0  0  0  0  0  0  0  0  0  0  0  0
    5.4292   -7.1667    0.0000 N   0  0  0  0  0  0  0  0  0  0  0  0
    3.9667   -7.6500    0.0000 O   0  0  0  0  0  0  0  0  0  0  0  0
    3.9542   -5.1542    0.0000 O   0  0  0  0  0  0  0  0  0  0  0  0
    7.3667   -6.3042    0.0000 C   0  0  0  0  0  0  0  0  0  0  0  0
    8.0167   -6.0125    0.0000 N   0  0  3  0  0  0  0  0  0  0  0  0
    6.0792   -6.8792    0.0000 C   0  0  0  0  0  0  0  0  0  0  0  0
    6.7917   -5.8875    0.0000 C   0  0  0  0  0  0  0  0  0  0  0  0
    7.3000   -7.0042    0.0000 C   0  0  0  0  0  0  0  0  0  0  0  0
    3.0542   -6.4042    0.0000 C   0  0  0  0  0  0  0  0  0  0  0  0
    6.1417   -6.1750    0.0000 C   0  0  0  0  0  0  0  0  0  0  0  0
    6.6500   -7.2917    0.0000 C   0  0  0  0  0  0  0  0  0  0  0  0
    1.9875   -5.8000    0.0000 O   0  0  0  0  0  0  0  0  0  0  0  0
    8.0917   -5.3042    0.0000 C   0  0  0  0  0  0  0  0  0  0  0  0
    8.5917   -6.4292    0.0000 C   0  0  0  0  0  0  0  0  0  0  0  0
    2.7000   -5.7917    0.0000 C   0  0  0  0  0  0  0  0  0  0  0  0
    1.6292   -5.1917    0.0000 C   0  0  0  0  0  0  0  0  0  0  0  0
  2  1  1  0  0  0  0
  3  1  1  0  0  0  0
  4  2  1  0  0  0  0
  5  3  1  0  0  0  0
  6  4  1  0  0  0  0
  7  2  2  0  0  0  0
  8  3  2  0  0  0  0
  9 13  2  0  0  0  0
 10  9  1  0  0  0  0
 11  6  1  0  0  0  0
 12 15  2  0  0  0  0
 13 16  1  0  0  0  0
 14  1  1  0  0  0  0
 15 11  1  0  0  0  0
 16 11  2  0  0  0  0
 17 20  1  0  0  0  0
 18 10  1  0  0  0  0
 19 10  1  0  0  0  0
 20 14  1  0  0  0  0
 21 17  1  0  0  0  0
  5  4  1  0  0  0  0
  9 12  1  0  0  0  0
M  END
> <IDNUMBER>
F3023-0932

> <Chemical_Name>
3-{[4-(dimethylamino)phenyl]amino}-1-(2-methoxyethyl)pyrrolidine-2,5-dione

> <CAS>
1009289-71-7

> <PriceCoeff>
1.00

> <MW>
291.35

> <Description>
solid

> <FSP3>
0.47

> <clogP>
2.08

> <TPSA>
61.88

> <Acceptor>
5

> <Donor>
2

> <RotBonds>
6

> <HAC>
21

> <Collection>
General

$$$$
F3325-0155
  -ISIS-  06222321152D

 26 29  0  0  0  0  0  0  0  0999 V2000
    2.0042   -2.4417    0.0000 N   0  0  3  0  0  0  0  0  0  0  0  0
    2.5292   -3.0875    0.0000 C   0  0  0  0  0  0  0  0  0  0  0  0
    2.4625   -1.7417    0.0000 C   0  0  0  0  0  0  0  0  0  0  0  0
    3.3042   -2.7917    0.0000 C   0  0  3  0  0  0  0  0  0  0  0  0
    3.2667   -1.9667    0.0000 C   0  0  0  0  0  0  0  0  0  0  0  0
    4.0417   -3.1667    0.0000 N   0  0  3  0  0  0  0  0  0  0  0  0
    1.1875   -2.4792    0.0000 C   0  0  0  0  0  0  0  0  0  0  0  0
    5.5042   -3.9167    0.0000 N   0  0  3  0  0  0  0  0  0  0  0  0
    2.3167   -3.8792    0.0000 O   0  0  0  0  0  0  0  0  0  0  0  0
    2.1667   -0.9750    0.0000 O   0  0  0  0  0  0  0  0  0  0  0  0
    4.7292   -2.7167    0.0000 C   0  0  0  0  0  0  0  0  0  0  0  0
    4.0792   -3.9875    0.0000 C   0  0  0  0  0  0  0  0  0  0  0  0
    4.8042   -4.3625    0.0000 C   0  0  0  0  0  0  0  0  0  0  0  0
    5.4625   -3.0917    0.0000 C   0  0  0  0  0  0  0  0  0  0  0  0
    6.2292   -4.2917    0.0000 C   0  0  0  0  0  0  0  0  0  0  0  0
    0.7417   -1.7792    0.0000 C   0  0  0  0  0  0  0  0  0  0  0  0
    0.8167   -3.2125    0.0000 C   0  0  0  0  0  0  0  0  0  0  0  0
    1.1167   -1.0542    0.0000 C   0  0  0  0  0  0  0  0  0  0  0  0
    6.2667   -5.1167    0.0000 C   0  0  0  0  0  0  0  0  0  0  0  0
    6.9250   -3.8500    0.0000 C   0  0  0  0  0  0  0  0  0  0  0  0
   -0.0833   -1.8250    0.0000 C   0  0  0  0  0  0  0  0  0  0  0  0
   -0.0083   -3.2542    0.0000 C   0  0  0  0  0  0  0  0  0  0  0  0
    7.0042   -5.4917    0.0000 C   0  0  0  0  0  0  0  0  0  0  0  0
    7.6542   -4.2167    0.0000 C   0  0  0  0  0  0  0  0  0  0  0  0
   -0.4583   -2.5625    0.0000 C   0  0  0  0  0  0  0  0  0  0  0  0
    7.7000   -5.0500    0.0000 C   0  0  0  0  0  0  0  0  0  0  0  0
  2  1  1  0  0  0  0
  3  1  1  0  0  0  0
  4  2  1  0  0  0  0
  5  3  1  0  0  0  0
  6  4  1  0  0  0  0
  7  1  1  0  0  0  0
  8 13  1  0  0  0  0
  9  2  2  0  0  0  0
 10  3  2  0  0  0  0
 11  6  1  0  0  0  0
 12  6  1  0  0  0  0
 13 12  1  0  0  0  0
 14 11  1  0  0  0  0
 15  8  1  0  0  0  0
 16  7  2  0  0  0  0
 17  7  1  0  0  0  0
 18 16  1  0  0  0  0
 19 15  2  0  0  0  0
 20 15  1  0  0  0  0
 21 16  1  0  0  0  0
 22 17  2  0  0  0  0
 23 19  1  0  0  0  0
 24 20  2  0  0  0  0
 25 22  1  0  0  0  0
 26 24  1  0  0  0  0
  5  4  1  0  0  0  0
 21 25  2  0  0  0  0
 14  8  1  0  0  0  0
 23 26  2  0  0  0  0
M  END
> <IDNUMBER>
F3325-0155

> <Chemical_Name>
1-(2-methylphenyl)-3-(4-phenylpiperazin-1-yl)pyrrolidine-2,5-dione

> <CAS>
500279-86-7

> <PriceCoeff>
1.00

> <MW>
349.43

> <Description>
solid

> <FSP3>
0.33

> <clogP>
3.24

> <TPSA>
43.86

> <Acceptor>
3

> <Donor>
2

> <RotBonds>
3

> <HAC>
26

> <Collection>
General

$$$$
F1374-2755
  -ISIS-  06222321452D

 28 31  0  0  0  0  0  0  0  0999 V2000
    2.7625   -4.0667    0.0000 C   0  0  0  0  0  0  0  0  0  0  0  0
    3.5500   -3.8125    0.0000 C   0  0  0  0  0  0  0  0  0  0  0  0
    2.4292   -4.8167    0.0000 C   0  0  0  0  0  0  0  0  0  0  0  0
    8.6167   -1.8250    0.0000 N   0  0  3  0  0  0  0  0  0  0  0  0
    4.8917   -3.8125    0.0000 C   0  0  0  0  0  0  0  0  0  0  0  0
    4.2250   -4.2917    0.0000 O   0  0  0  0  0  0  0  0  0  0  0  0
    1.6125   -4.7417    0.0000 S   0  0  0  0  0  0  0  0  0  0  0  0
    3.8042   -3.0167    0.0000 N   0  0  0  0  0  0  0  0  0  0  0  0
    5.6792   -4.0667    0.0000 N   0  0  0  0  0  0  0  0  0  0  0  0
    4.6375   -3.0167    0.0000 N   0  0  0  0  0  0  0  0  0  0  0  0
    1.4375   -3.9417    0.0000 C   0  0  0  0  0  0  0  0  0  0  0  0
    7.7875   -1.9125    0.0000 C   0  0  0  0  0  0  0  0  0  0  0  0
    2.1417   -3.5250    0.0000 C   0  0  0  0  0  0  0  0  0  0  0  0
    6.3000   -3.5167    0.0000 C   0  0  0  0  0  0  0  0  0  0  0  0
    9.1500   -2.4667    0.0000 C   0  0  0  0  0  0  0  0  0  0  0  0
    9.0625   -1.1250    0.0000 C   0  0  0  0  0  0  0  0  0  0  0  0
    7.4542   -2.6750    0.0000 C   0  0  0  0  0  0  0  0  0  0  0  0
    6.6292   -2.7667    0.0000 C   0  0  0  0  0  0  0  0  0  0  0  0
    7.0125   -3.9667    0.0000 O   0  0  0  0  0  0  0  0  0  0  0  0
    9.9292   -2.1417    0.0000 C   0  0  0  0  0  0  0  0  0  0  0  0
    9.8667   -1.3167    0.0000 C   0  0  0  0  0  0  0  0  0  0  0  0
    8.9417   -3.2625    0.0000 O   0  0  0  0  0  0  0  0  0  0  0  0
    8.7625   -0.3500    0.0000 O   0  0  0  0  0  0  0  0  0  0  0  0
    2.8500   -5.5292    0.0000 Cl  0  0  0  0  0  0  0  0  0  0  0  0
    0.6875   -3.6125    0.0000 Cl  0  0  0  0  0  0  0  0  0  0  0  0
    7.3125   -1.2417    0.0000 C   0  0  0  0  0  0  0  0  0  0  0  0
    6.1375   -2.0917    0.0000 C   0  0  0  0  0  0  0  0  0  0  0  0
    6.4792   -1.3292    0.0000 C   0  0  0  0  0  0  0  0  0  0  0  0
  2  1  1  0  0  0  0
  3  1  2  0  0  0  0
  4 12  1  0  0  0  0
  5  6  1  0  0  0  0
  6  2  1  0  0  0  0
  7  3  1  0  0  0  0
  8  2  2  0  0  0  0
  9  5  1  0  0  0  0
 10  8  1  0  0  0  0
 11 13  2  0  0  0  0
 12 17  1  0  0  0  0
 13  1  1  0  0  0  0
 14  9  1  0  0  0  0
 15  4  1  0  0  0  0
 16  4  1  0  0  0  0
 17 18  2  0  0  0  0
 18 14  1  0  0  0  0
 19 14  2  0  0  0  0
 20 15  1  0  0  0  0
 21 16  1  0  0  0  0
 22 15  2  0  0  0  0
 23 16  2  0  0  0  0
 24  3  1  0  0  0  0
 25 11  1  0  0  0  0
 26 28  1  0  0  0  0
 27 18  1  0  0  0  0
 28 27  2  0  0  0  0
  7 11  1  0  0  0  0
 10  5  2  0  0  0  0
 12 26  2  0  0  0  0
 21 20  1  0  0  0  0
M  END
> <IDNUMBER>
F1374-2755

> <Chemical_Name>
N-[5-(2,5-dichlorothiophen-3-yl)-1,3,4-oxadiazol-2-yl]-3-(2,5-dioxopyrrolidin-1-yl)benzamide

> <CAS>
1170140-24-5

> <PriceCoeff>
1.00

> <MW>
437.26

> <Description>
solid

> <FSP3>
0.12

> <clogP>
1.44

> <TPSA>
133.64

> <Acceptor>
6

> <Donor>
1

> <RotBonds>
4

> <HAC>
28

> <Collection>
General

$$$$
F3284-8018
  -ISIS-  06222321462D

 14 15  0  0  0  0  0  0  0  0999 V2000
   17.6500   -5.4875    0.0000 C   0  0  0  0  0  0  0  0  0  0  0  0
   18.1292   -4.8250    0.0000 O   0  0  0  0  0  0  0  0  0  0  0  0
   17.6500   -4.1542    0.0000 C   0  0  3  0  0  0  0  0  0  0  0  0
   16.8667   -5.2292    0.0000 C   0  0  0  0  0  0  0  0  0  0  0  0
   16.8667   -4.4042    0.0000 C   0  0  0  0  0  0  0  0  0  0  0  0
   17.9042   -3.3667    0.0000 C   0  0  0  0  0  0  0  0  0  0  0  0
   18.7042   -3.1917    0.0000 C   0  0  0  0  0  0  0  0  0  0  0  0
   17.9042   -6.2750    0.0000 O   0  0  0  0  0  0  0  0  0  0  0  0
   18.9625   -2.4042    0.0000 O   0  0  0  0  0  0  0  0  0  0  0  0
   19.2625   -3.8042    0.0000 O   0  0  0  0  0  0  0  0  0  0  0  0
   16.1542   -5.6417    0.0000 C   0  0  0  0  0  0  0  0  0  0  0  0
   16.1542   -3.9917    0.0000 C   0  0  0  0  0  0  0  0  0  0  0  0
   15.4375   -4.4125    0.0000 C   0  0  0  0  0  0  0  0  0  0  0  0
   15.4375   -5.2292    0.0000 C   0  0  0  0  0  0  0  0  0  0  0  0
  2  1  1  0  0  0  0
  3  2  1  0  0  0  0
  4  1  1  0  0  0  0
  5  4  1  0  0  0  0
  6  3  1  0  0  0  0
  7  6  1  0  0  0  0
  8  1  2  0  0  0  0
  9  7  2  0  0  0  0
 10  7  1  0  0  0  0
 11  4  2  0  0  0  0
 12  5  2  0  0  0  0
 13 14  2  0  0  0  0
 14 11  1  0  0  0  0
  5  3  1  0  0  0  0
 13 12  1  0  0  0  0
M  END
> <IDNUMBER>
F3284-8018

> <Chemical_Name>
2-(3-oxo-1,3-dihydro-2-benzofuran-1-yl)acetic acid

> <CAS>
4743-58-2

> <PriceCoeff>
1.50

> <MW>
192.17

> <Description>
solid

> <FSP3>
0.20

> <clogP>
0.30

> <TPSA>
63.60

> <Acceptor>
4

> <Donor>
0

> <RotBonds>
2

> <HAC>
14

> <Collection>
Advanced

> <Reference_compound>
CHEMBL250205

> <Similarity>
0.8320

$$$$
F2189-0265
  -ISIS-  06222321442D

 11 12  0  0  0  0  0  0  0  0999 V2000
    1.6500    0.6958    0.0000 N   0  0  0  0  0  0  0  0  0  0  0  0
    1.1625    1.3708    0.0000 C   0  0  0  0  0  0  0  0  0  0  0  0
    2.4375    0.9500    0.0000 C   0  0  0  0  0  0  0  0  0  0  0  0
    2.4375    1.7833    0.0000 C   0  0  0  0  0  0  0  0  0  0  0  0
    1.6500    2.0375    0.0000 C   0  0  0  0  0  0  0  0  0  0  0  0
    3.1500    2.1958    0.0000 C   0  0  0  0  0  0  0  0  0  0  0  0
    0.3375    1.3708    0.0000 O   0  0  0  0  0  0  0  0  0  0  0  0
    3.1500    0.5375    0.0000 C   0  0  0  0  0  0  0  0  0  0  0  0
    3.8667    1.7833    0.0000 C   0  0  0  0  0  0  0  0  0  0  0  0
    4.5792    2.1958    0.0000 N   0  0  0  0  0  0  0  0  0  0  0  0
    3.8667    0.9500    0.0000 C   0  0  0  0  0  0  0  0  0  0  0  0
  2  1  1  0  0  0  0
  3  1  1  0  0  0  0
  4  3  2  0  0  0  0
  5  2  1  0  0  0  0
  6  4  1  0  0  0  0
  7  2  2  0  0  0  0
  8  3  1  0  0  0  0
  9 11  1  0  0  0  0
 10  9  1  0  0  0  0
 11  8  2  0  0  0  0
  5  4  1  0  0  0  0
  9  6  2  0  0  0  0
M  END
> <IDNUMBER>
F2189-0265

> <Chemical_Name>
5-amino-2,3-dihydro-1H-indol-2-one

> <CAS>
20876-36-2

> <PriceCoeff>
1.50

> <MW>
148.16

> <Description>
solid

> <FSP3>
0.12

> <clogP>
-0.52

> <TPSA>
55.12

> <Acceptor>
2

> <Donor>
2

> <RotBonds>
0

> <HAC>
11

> <Collection>
Advanced

> <Reference_compound>
CHEMBL40823

> <Similarity>
0.9330

$$$$
F3115-0097
  -ISIS-  06222321152D

 26 28  0  0  0  0  0  0  0  0999 V2000
    4.6917   -5.7417    0.0000 N   0  0  3  0  0  0  0  0  0  0  0  0
    5.1875   -6.4042    0.0000 C   0  0  0  0  0  0  0  0  0  0  0  0
    5.1792   -5.0667    0.0000 C   0  0  0  0  0  0  0  0  0  0  0  0
    5.9667   -6.1500    0.0000 C   0  0  3  0  0  0  0  0  0  0  0  0
    3.8667   -5.7417    0.0000 C   0  0  0  0  0  0  0  0  0  0  0  0
    5.9667   -5.3167    0.0000 C   0  0  0  0  0  0  0  0  0  0  0  0
    6.6375   -6.6250    0.0000 N   0  0  3  0  0  0  0  0  0  0  0  0
    7.9667   -7.5792    0.0000 N   0  0  3  0  0  0  0  0  0  0  0  0
    8.6292   -8.0667    0.0000 C   0  0  0  0  0  0  0  0  0  0  0  0
    3.4625   -5.0292    0.0000 C   0  0  0  0  0  0  0  0  0  0  0  0
    4.9292   -7.1917    0.0000 O   0  0  0  0  0  0  0  0  0  0  0  0
    4.9167   -4.2875    0.0000 O   0  0  0  0  0  0  0  0  0  0  0  0
    8.0500   -6.7667    0.0000 C   0  0  0  0  0  0  0  0  0  0  0  0
    7.2167   -7.9167    0.0000 C   0  0  0  0  0  0  0  0  0  0  0  0
    7.3792   -6.2792    0.0000 C   0  0  0  0  0  0  0  0  0  0  0  0
    6.5542   -7.4417    0.0000 C   0  0  0  0  0  0  0  0  0  0  0  0
    9.3875   -7.7292    0.0000 O   0  0  0  0  0  0  0  0  0  0  0  0
    2.6417   -5.0292    0.0000 C   0  0  0  0  0  0  0  0  0  0  0  0
    8.5500   -8.8875    0.0000 O   0  0  0  0  0  0  0  0  0  0  0  0
    3.4667   -6.4625    0.0000 C   0  0  0  0  0  0  0  0  0  0  0  0
    3.8750   -4.3167    0.0000 C   0  0  0  0  0  0  0  0  0  0  0  0
    2.6417   -6.4625    0.0000 C   0  0  0  0  0  0  0  0  0  0  0  0
    2.2292   -5.7500    0.0000 C   0  0  0  0  0  0  0  0  0  0  0  0
    2.2250   -4.3167    0.0000 C   0  0  0  0  0  0  0  0  0  0  0  0
    7.7917   -9.2250    0.0000 C   0  0  0  0  0  0  0  0  0  0  0  0
    7.7125  -10.0417    0.0000 C   0  0  0  0  0  0  0  0  0  0  0  0
  2  1  1  0  0  0  0
  3  1  1  0  0  0  0
  4  2  1  0  0  0  0
  5  1  1  0  0  0  0
  6  3  1  0  0  0  0
  7  4  1  0  0  0  0
  8 14  1  0  0  0  0
  9  8  1  0  0  0  0
 10  5  2  0  0  0  0
 11  2  2  0  0  0  0
 12  3  2  0  0  0  0
 13 15  1  0  0  0  0
 14 16  1  0  0  0  0
 15  7  1  0  0  0  0
 16  7  1  0  0  0  0
 17  9  2  0  0  0  0
 18 10  1  0  0  0  0
 19  9  1  0  0  0  0
 20  5  1  0  0  0  0
 21 10  1  0  0  0  0
 22 20  2  0  0  0  0
 23 22  1  0  0  0  0
 24 18  1  0  0  0  0
 25 19  1  0  0  0  0
 26 25  1  0  0  0  0
  4  6  1  0  0  0  0
 23 18  2  0  0  0  0
  8 13  1  0  0  0  0
M  END
> <IDNUMBER>
F3115-0097

> <Chemical_Name>
ethyl 4-[1-(2,3-dimethylphenyl)-2,5-dioxopyrrolidin-3-yl]piperazine-1-carboxylate

> <CAS>
839680-57-8

> <PriceCoeff>
1.00

> <MW>
359.42

> <Description>
solid

> <FSP3>
0.53

> <clogP>
2.93

> <TPSA>
70.16

> <Acceptor>
4

> <Donor>
1

> <RotBonds>
5

> <HAC>
26

> <Collection>
General

$$$$
F3205-0042
  -ISIS-  06222321152D

 20 21  0  0  0  0  0  0  0  0999 V2000
    4.6750   -6.4125    0.0000 N   0  0  3  0  0  0  0  0  0  0  0  0
    5.1667   -7.0792    0.0000 C   0  0  0  0  0  0  0  0  0  0  0  0
    5.1542   -5.7417    0.0000 C   0  0  0  0  0  0  0  0  0  0  0  0
    5.9500   -6.8167    0.0000 C   0  0  3  0  0  0  0  0  0  0  0  0
    5.9417   -5.9917    0.0000 C   0  0  0  0  0  0  0  0  0  0  0  0
    6.6125   -7.2917    0.0000 N   0  0  0  0  0  0  0  0  0  0  0  0
    4.9125   -7.8625    0.0000 O   0  0  0  0  0  0  0  0  0  0  0  0
    4.9000   -4.9542    0.0000 O   0  0  0  0  0  0  0  0  0  0  0  0
    3.8542   -6.4167    0.0000 C   0  0  0  0  0  0  0  0  0  0  0  0
    7.3625   -6.9542    0.0000 C   0  0  0  0  0  0  0  0  0  0  0  0
    8.8625   -6.2792    0.0000 C   0  0  0  0  0  0  0  0  0  0  0  0
    9.6125   -5.9375    0.0000 F   0  0  0  0  0  0  0  0  0  0  0  0
    7.4417   -6.1417    0.0000 C   0  0  0  0  0  0  0  0  0  0  0  0
    8.0292   -7.4375    0.0000 C   0  0  0  0  0  0  0  0  0  0  0  0
    8.1875   -5.8000    0.0000 C   0  0  0  0  0  0  0  0  0  0  0  0
    8.7792   -7.0917    0.0000 C   0  0  0  0  0  0  0  0  0  0  0  0
    3.4375   -5.7042    0.0000 C   0  0  0  0  0  0  0  0  0  0  0  0
    2.1917   -5.0000    0.0000 O   0  0  0  0  0  0  0  0  0  0  0  0
    2.6125   -5.7125    0.0000 C   0  0  0  0  0  0  0  0  0  0  0  0
    1.3667   -5.0042    0.0000 C   0  0  0  0  0  0  0  0  0  0  0  0
  2  1  1  0  0  0  0
  3  1  1  0  0  0  0
  4  2  1  0  0  0  0
  5  3  1  0  0  0  0
  6  4  1  0  0  0  0
  7  2  2  0  0  0  0
  8  3  2  0  0  0  0
  9  1  1  0  0  0  0
 10  6  1  0  0  0  0
 11 16  2  0  0  0  0
 12 11  1  0  0  0  0
 13 10  1  0  0  0  0
 14 10  2  0  0  0  0
 15 13  2  0  0  0  0
 16 14  1  0  0  0  0
 17  9  1  0  0  0  0
 18 19  1  0  0  0  0
 19 17  1  0  0  0  0
 20 18  1  0  0  0  0
  5  4  1  0  0  0  0
 11 15  1  0  0  0  0
M  END
> <IDNUMBER>
F3205-0042

> <Chemical_Name>
3-[(4-fluorophenyl)amino]-1-(3-methoxypropyl)pyrrolidine-2,5-dione

> <CAS>
1009261-02-2

> <PriceCoeff>
1.00

> <MW>
280.29

> <Description>
solid

> <FSP3>
0.43

> <clogP>
2.54

> <TPSA>
58.64

> <Acceptor>
4

> <Donor>
1

> <RotBonds>
6

> <HAC>
20

> <Collection>
General

$$$$
F0722-1840
  -ISIS-  06222321442D

 14 14  0  0  0  0  0  0  0  0999 V2000
    0.3292    1.6625    0.0000 C   0  0  0  0  0  0  0  0  0  0  0  0
   -0.0125   -1.2875    0.0000 C   0  0  0  0  0  0  0  0  0  0  0  0
   -0.5958    1.3208    0.0000 O   0  0  0  0  0  0  0  0  0  0  0  0
    0.7667   -1.8542    0.0000 O   0  0  0  0  0  0  0  0  0  0  0  0
   -0.9500   -1.7167    0.0000 C   0  0  0  0  0  0  0  0  0  0  0  0
    0.4042    2.6625    0.0000 O   0  0  0  0  0  0  0  0  0  0  0  0
    1.1292    1.0958    0.0000 C   0  0  0  0  0  0  0  0  0  0  0  0
    1.0000    0.1000    0.0000 C   0  0  0  0  0  0  0  0  0  0  0  0
    0.1000   -0.3000    0.0000 C   0  0  0  0  0  0  0  0  0  0  0  0
   -1.0458   -2.6542    0.0000 C   0  0  0  0  0  0  0  0  0  0  0  0
   -1.7333   -1.1167    0.0000 C   0  0  0  0  0  0  0  0  0  0  0  0
   -1.9333   -3.0792    0.0000 C   0  0  0  0  0  0  0  0  0  0  0  0
   -2.6333   -1.5167    0.0000 C   0  0  0  0  0  0  0  0  0  0  0  0
   -2.7458   -2.4875    0.0000 C   0  0  0  0  0  0  0  0  0  0  0  0
  2  9  1  0  0  0  0
  3  1  2  0  0  0  0
  4  2  2  0  0  0  0
  5  2  1  0  0  0  0
  6  1  1  0  0  0  0
  7  1  1  0  0  0  0
  8  7  1  0  0  0  0
  9  8  1  0  0  0  0
 10  5  2  0  0  0  0
 11  5  1  0  0  0  0
 12 10  1  0  0  0  0
 13 11  2  0  0  0  0
 14 13  1  0  0  0  0
 14 12  2  0  0  0  0
M  END
> <IDNUMBER>
F0722-1840

> <Chemical_Name>
5-oxo-5-phenylpentanoic acid

> <CAS>
1501-05-9

> <PriceCoeff>
1.00

> <MW>
192.21

> <Description>
solid

> <FSP3>
0.27

> <clogP>
1.65

> <TPSA>
54.37

> <Acceptor>
3

> <Donor>
0

> <RotBonds>
5

> <HAC>
14

> <Collection>
General

> <Reference_compound>
CHEMBL461681

> <Similarity>
0.9640

$$$$
F3260-0825
  -ISIS-  06222321462D

 19 20  0  0  0  0  0  0  0  0999 V2000
    3.6375    2.1083    0.0000 C   0  0  0  0  0  0  0  0  0  0  0  0
    3.6375    3.5083    0.0000 C   0  0  0  0  0  0  0  0  0  0  0  0
    2.4250    1.4000    0.0000 N   0  0  3  0  0  0  0  0  0  0  0  0
    1.2125    2.1083    0.0000 C   0  0  0  0  0  0  0  0  0  0  0  0
    1.2125    3.5083    0.0000 N   0  0  0  0  0  0  0  0  0  0  0  0
    4.9667    1.6708    0.0000 N   0  0  0  0  0  0  0  0  0  0  0  0
    2.4250    4.2000    0.0000 C   0  0  0  0  0  0  0  0  0  0  0  0
    4.9667    3.9375    0.0000 N   0  0  3  0  0  0  0  0  0  0  0  0
    5.7917    2.8083    0.0000 C   0  0  0  0  0  0  0  0  0  0  0  0
    5.7917    5.0667    0.0000 C   0  0  0  0  0  0  0  0  0  0  0  0
    5.2167    6.3417    0.0000 C   0  0  0  0  0  0  0  0  0  0  0  0
    0.0000    1.4083    0.0000 O   0  0  0  0  0  0  0  0  0  0  0  0
    2.4167    5.5917    0.0000 O   0  0  0  0  0  0  0  0  0  0  0  0
    3.8292    6.4917    0.0000 O   0  0  0  0  0  0  0  0  0  0  0  0
    2.4167   -0.0000    0.0000 C   0  0  0  0  0  0  0  0  0  0  0  0
    6.0417    7.4667    0.0000 N   0  0  0  0  0  0  0  0  0  0  0  0
    5.7250   11.1667    0.0000 O   0  0  0  0  0  0  0  0  0  0  0  0
    5.4750    8.7542    0.0000 C   0  0  0  0  0  0  0  0  0  0  0  0
    6.2917    9.8792    0.0000 C   0  0  0  0  0  0  0  0  0  0  0  0
  2  1  2  0  0  0  0
  3  1  1  0  0  0  0
  4  3  1  0  0  0  0
  5  4  1  0  0  0  0
  6  1  1  0  0  0  0
  7  2  1  0  0  0  0
  8  2  1  0  0  0  0
  9  6  2  0  0  0  0
 10  8  1  0  0  0  0
 11 10  1  0  0  0  0
 12  4  2  0  0  0  0
 13  7  2  0  0  0  0
 14 11  2  0  0  0  0
 15  3  1  0  0  0  0
 16 11  1  0  0  0  0
 17 19  1  0  0  0  0
 18 16  1  0  0  0  0
 19 18  1  0  0  0  0
  9  8  1  0  0  0  0
  5  7  1  0  0  0  0
M  END
> <IDNUMBER>
F3260-0825

> <Chemical_Name>
N-(2-hydroxyethyl)-2-(3-methyl-2,6-dioxo-2,3,6,7-tetrahydro-1H-purin-7-yl)acetamide

> <CAS>
1105245-14-4

> <PriceCoeff>
1.00

> <MW>
267.24

> <Description>
solid

> <FSP3>
0.40

> <clogP>
-2.08

> <TPSA>
116.56

> <Acceptor>
5

> <Donor>
4

> <RotBonds>
4

> <HAC>
19

> <Collection>
General

> <Reference_compound>
CHEMBL113

> <Similarity>
0.8170

$$$$
F3115-0100
  -ISIS-  06222321462D

 26 28  0  0  0  0  0  0  0  0999 V2000
    4.6917   -5.3792    0.0000 N   0  0  3  0  0  0  0  0  0  0  0  0
    5.1875   -6.0500    0.0000 C   0  0  0  0  0  0  0  0  0  0  0  0
    5.1792   -4.7125    0.0000 C   0  0  0  0  0  0  0  0  0  0  0  0
    5.9667   -5.7917    0.0000 C   0  0  3  0  0  0  0  0  0  0  0  0
    5.9667   -4.9625    0.0000 C   0  0  0  0  0  0  0  0  0  0  0  0
    3.8667   -5.3875    0.0000 C   0  0  0  0  0  0  0  0  0  0  0  0
    6.6375   -6.2667    0.0000 N   0  0  3  0  0  0  0  0  0  0  0  0
    7.9667   -7.2250    0.0000 N   0  0  3  0  0  0  0  0  0  0  0  0
    8.6292   -7.7125    0.0000 C   0  0  0  0  0  0  0  0  0  0  0  0
    3.4625   -4.6750    0.0000 C   0  0  0  0  0  0  0  0  0  0  0  0
    4.9292   -6.8292    0.0000 O   0  0  0  0  0  0  0  0  0  0  0  0
    3.4667   -6.1042    0.0000 C   0  0  0  0  0  0  0  0  0  0  0  0
    4.9167   -3.9292    0.0000 O   0  0  0  0  0  0  0  0  0  0  0  0
    8.0500   -6.4042    0.0000 C   0  0  0  0  0  0  0  0  0  0  0  0
    7.2167   -7.5542    0.0000 C   0  0  0  0  0  0  0  0  0  0  0  0
    7.3792   -5.9250    0.0000 C   0  0  0  0  0  0  0  0  0  0  0  0
    6.5542   -7.0792    0.0000 C   0  0  0  0  0  0  0  0  0  0  0  0
    9.3875   -7.3750    0.0000 O   0  0  0  0  0  0  0  0  0  0  0  0
    2.6417   -4.6750    0.0000 C   0  0  0  0  0  0  0  0  0  0  0  0
    8.5500   -8.5292    0.0000 O   0  0  0  0  0  0  0  0  0  0  0  0
    2.6417   -6.1042    0.0000 C   0  0  0  0  0  0  0  0  0  0  0  0
    2.2292   -5.3917    0.0000 C   0  0  0  0  0  0  0  0  0  0  0  0
    3.8750   -3.9542    0.0000 C   0  0  0  0  0  0  0  0  0  0  0  0
    7.7917   -8.8667    0.0000 C   0  0  0  0  0  0  0  0  0  0  0  0
    1.4042   -5.3917    0.0000 C   0  0  0  0  0  0  0  0  0  0  0  0
    7.7125   -9.6875    0.0000 C   0  0  0  0  0  0  0  0  0  0  0  0
  2  1  1  0  0  0  0
  3  1  1  0  0  0  0
  4  2  1  0  0  0  0
  5  3  1  0  0  0  0
  6  1  1  0  0  0  0
  7  4  1  0  0  0  0
  8 15  1  0  0  0  0
  9  8  1  0  0  0  0
 10  6  2  0  0  0  0
 11  2  2  0  0  0  0
 12  6  1  0  0  0  0
 13  3  2  0  0  0  0
 14 16  1  0  0  0  0
 15 17  1  0  0  0  0
 16  7  1  0  0  0  0
 17  7  1  0  0  0  0
 18  9  2  0  0  0  0
 19 10  1  0  0  0  0
 20  9  1  0  0  0  0
 21 12  2  0  0  0  0
 22 21  1  0  0  0  0
 23 10  1  0  0  0  0
 24 20  1  0  0  0  0
 25 22  1  0  0  0  0
 26 24  1  0  0  0  0
  4  5  1  0  0  0  0
 22 19  2  0  0  0  0
  8 14  1  0  0  0  0
M  END
> <IDNUMBER>
F3115-0100

> <Chemical_Name>
ethyl 4-[1-(2,4-dimethylphenyl)-2,5-dioxopyrrolidin-3-yl]piperazine-1-carboxylate

> <CAS>
857494-12-3

> <PriceCoeff>
1.00

> <MW>
359.42

> <Description>
solid

> <FSP3>
0.53

> <clogP>
2.98

> <TPSA>
70.16

> <Acceptor>
4

> <Donor>
1

> <RotBonds>
5

> <HAC>
26

> <Collection>
General

$$$$
F6416-5530
  -ISIS-  06222321462D

 24 26  0  0  0  0  0  0  0  0999 V2000
   -5.2833    2.5708    0.0000 N   0  0  3  0  0  0  0  0  0  0  0  0
   -2.4333    6.6917    0.0000 C   0  0  0  0  0  0  0  0  0  0  0  0
   -1.6833    6.3542    0.0000 O   0  0  0  0  0  0  0  0  0  0  0  0
   -5.3708    1.7458    0.0000 C   0  0  0  0  0  0  0  0  0  0  0  0
   -6.0292    2.9000    0.0000 C   0  0  0  0  0  0  0  0  0  0  0  0
   -2.3458    7.5167    0.0000 C   0  0  0  0  0  0  0  0  0  0  0  0
   -1.1208    6.9625    0.0000 C   0  0  0  0  0  0  0  0  0  0  0  0
   -1.5250    7.6792    0.0000 C   0  0  0  0  0  0  0  0  0  0  0  0
   -4.5792    2.9875    0.0000 C   0  0  0  0  0  0  0  0  0  0  0  0
   -4.5833    3.8000    0.0000 C   0  0  0  0  0  0  0  0  0  0  0  0
   -6.1667    1.5708    0.0000 C   0  0  0  0  0  0  0  0  0  0  0  0
   -6.5792    2.2833    0.0000 C   0  0  0  0  0  0  0  0  0  0  0  0
   -4.7500    1.1833    0.0000 O   0  0  0  0  0  0  0  0  0  0  0  0
   -6.2042    3.7083    0.0000 O   0  0  0  0  0  0  0  0  0  0  0  0
   -3.1458    6.2792    0.0000 C   0  0  3  0  0  0  0  0  0  0  0  0
   -5.2958    4.2125    0.0000 O   0  0  0  0  0  0  0  0  0  0  0  0
   -3.8625    4.2125    0.0000 N   0  0  0  0  0  0  0  0  0  0  0  0
   -3.1583    5.4417    0.0000 C   0  0  0  0  0  0  0  0  0  0  0  0
   -3.8625    5.0292    0.0000 C   0  0  0  0  0  0  0  0  0  0  0  0
   -3.8708    6.6792    0.0000 O   0  0  0  0  0  0  0  0  0  0  0  0
   -0.2958    6.9542    0.0000 C   0  0  0  0  0  0  0  0  0  0  0  0
   -1.0958    8.3917    0.0000 C   0  0  0  0  0  0  0  0  0  0  0  0
    0.1292    7.6583    0.0000 C   0  0  0  0  0  0  0  0  0  0  0  0
   -0.2833    8.3833    0.0000 C   0  0  0  0  0  0  0  0  0  0  0  0
  2 15  1  0  0  0  0
  3  2  1  0  0  0  0
  4  1  1  0  0  0  0
  5  1  1  0  0  0  0
  6  2  2  0  0  0  0
  7  3  1  0  0  0  0
  8  6  1  0  0  0  0
  9  1  1  0  0  0  0
 10  9  1  0  0  0  0
 11  4  1  0  0  0  0
 12  5  1  0  0  0  0
 13  4  2  0  0  0  0
 14  5  2  0  0  0  0
 15 18  1  0  0  0  0
 16 10  2  0  0  0  0
 17 10  1  0  0  0  0
 18 19  1  0  0  0  0
 19 17  1  0  0  0  0
 20 15  1  0  0  0  0
 21  7  2  0  0  0  0
 22  8  2  0  0  0  0
 23 21  1  0  0  0  0
 24 22  1  0  0  0  0
 12 11  1  0  0  0  0
  8  7  1  0  0  0  0
 24 23  2  0  0  0  0
M  END
> <IDNUMBER>
F6416-5530

> <Chemical_Name>
N-[3-(1-benzofuran-2-yl)-3-hydroxypropyl]-2-(2,5-dioxopyrrolidin-1-yl)acetamide

> <CAS>
1448030-80-5

> <PriceCoeff>
1.00

> <MW>
330.34

> <Description>
solid

> <FSP3>
0.35

> <clogP>
0.85

> <TPSA>
99.85

> <Acceptor>
5

> <Donor>
2

> <RotBonds>
6

> <HAC>
24

> <Collection>
General

$$$$
F3023-0829
  -ISIS-  06222321152D

 20 21  0  0  0  0  0  0  0  0999 V2000
    3.4375   -6.4042    0.0000 N   0  0  3  0  0  0  0  0  0  0  0  0
    3.8542   -5.8292    0.0000 C   0  0  0  0  0  0  0  0  0  0  0  0
    3.8542   -6.9750    0.0000 C   0  0  0  0  0  0  0  0  0  0  0  0
    4.5292   -6.7542    0.0000 C   0  0  3  0  0  0  0  0  0  0  0  0
    4.5292   -6.0417    0.0000 C   0  0  0  0  0  0  0  0  0  0  0  0
    5.1042   -7.1667    0.0000 N   0  0  0  0  0  0  0  0  0  0  0  0
    3.6292   -5.1542    0.0000 O   0  0  0  0  0  0  0  0  0  0  0  0
    3.6417   -7.6500    0.0000 O   0  0  0  0  0  0  0  0  0  0  0  0
    2.7292   -6.4042    0.0000 C   0  0  3  0  0  0  0  0  0  0  0  0
    5.7542   -6.8792    0.0000 C   0  0  0  0  0  0  0  0  0  0  0  0
    7.0417   -6.3042    0.0000 C   0  0  0  0  0  0  0  0  0  0  0  0
    6.3250   -7.2917    0.0000 C   0  0  0  0  0  0  0  0  0  0  0  0
    5.8167   -6.1750    0.0000 C   0  0  0  0  0  0  0  0  0  0  0  0
    6.4667   -5.8875    0.0000 C   0  0  0  0  0  0  0  0  0  0  0  0
    6.9750   -7.0042    0.0000 C   0  0  0  0  0  0  0  0  0  0  0  0
    7.6917   -6.0125    0.0000 O   0  0  0  0  0  0  0  0  0  0  0  0
    2.3750   -5.7917    0.0000 C   0  0  0  0  0  0  0  0  0  0  0  0
    2.3792   -7.0250    0.0000 C   0  0  0  0  0  0  0  0  0  0  0  0
    8.2667   -6.4292    0.0000 C   0  0  0  0  0  0  0  0  0  0  0  0
    8.9167   -6.1375    0.0000 C   0  0  0  0  0  0  0  0  0  0  0  0
  2  1  1  0  0  0  0
  3  1  1  0  0  0  0
  4  3  1  0  0  0  0
  5  2  1  0  0  0  0
  6  4  1  0  0  0  0
  7  2  2  0  0  0  0
  8  3  2  0  0  0  0
  9  1  1  0  0  0  0
 10  6  1  0  0  0  0
 11 14  1  0  0  0  0
 12 10  2  0  0  0  0
 13 10  1  0  0  0  0
 14 13  2  0  0  0  0
 15 12  1  0  0  0  0
 16 11  1  0  0  0  0
 17  9  1  0  0  0  0
 18  9  1  0  0  0  0
 19 16  1  0  0  0  0
 20 19  1  0  0  0  0
  5  4  1  0  0  0  0
 11 15  2  0  0  0  0
M  END
> <IDNUMBER>
F3023-0829

> <Chemical_Name>
3-[(4-ethoxyphenyl)amino]-1-(propan-2-yl)pyrrolidine-2,5-dione

> <CAS>
1009672-70-1

> <PriceCoeff>
1.00

> <MW>
276.33

> <Description>
solid

> <FSP3>
0.47

> <clogP>
3.12

> <TPSA>
58.64

> <Acceptor>
4

> <Donor>
1

> <RotBonds>
5

> <HAC>
20

> <Collection>
General

$$$$
F5079-0263
  -ISIS-  06222321442D

 28 31  0  0  0  0  0  0  0  0999 V2000
    4.1792    2.0500    0.0000 N   0  0  3  0  0  0  0  0  0  0  0  0
    0.0792    3.2708    0.0000 C   0  0  0  0  0  0  0  0  0  0  0  0
   -0.2333    2.5083    0.0000 O   0  0  0  0  0  0  0  0  0  0  0  0
    0.8875    3.4583    0.0000 N   0  0  0  0  0  0  0  0  0  0  0  0
   -0.5375    3.8000    0.0000 N   0  0  0  0  0  0  0  0  0  0  0  0
   -1.0500    2.5708    0.0000 C   0  0  0  0  0  0  0  0  0  0  0  0
   -1.2458    3.3750    0.0000 N   0  0  0  0  0  0  0  0  0  0  0  0
    3.6167    2.6583    0.0000 C   0  0  0  0  0  0  0  0  0  0  0  0
    1.4500    2.8625    0.0000 C   0  0  0  0  0  0  0  0  0  0  0  0
    5.0000    2.1250    0.0000 C   0  0  0  0  0  0  0  0  0  0  0  0
    3.9917    1.2500    0.0000 C   0  0  0  0  0  0  0  0  0  0  0  0
   -3.0958    1.7458    0.0000 S   0  0  0  0  0  0  0  0  0  0  0  0
   -2.4458    2.2500    0.0000 C   0  0  0  0  0  0  0  0  0  0  0  0
   -3.7750    2.2208    0.0000 C   0  0  0  0  0  0  0  0  0  0  0  0
   -1.6500    2.0083    0.0000 C   0  0  0  0  0  0  0  0  0  0  0  0
    2.8125    2.4625    0.0000 C   0  0  0  0  0  0  0  0  0  0  0  0
    2.2417    3.0583    0.0000 C   0  0  0  0  0  0  0  0  0  0  0  0
   -3.5458    3.0083    0.0000 C   0  0  0  0  0  0  0  0  0  0  0  0
   -2.7208    3.0333    0.0000 C   0  0  0  0  0  0  0  0  0  0  0  0
    1.2167    2.0708    0.0000 O   0  0  0  0  0  0  0  0  0  0  0  0
    5.3292    1.3708    0.0000 C   0  0  0  0  0  0  0  0  0  0  0  0
    4.7167    0.8333    0.0000 C   0  0  0  0  0  0  0  0  0  0  0  0
    5.4292    2.8208    0.0000 O   0  0  0  0  0  0  0  0  0  0  0  0
    3.2375    0.9333    0.0000 O   0  0  0  0  0  0  0  0  0  0  0  0
   -4.5583    1.9458    0.0000 Cl  0  0  0  0  0  0  0  0  0  0  0  0
    3.8542    3.4375    0.0000 C   0  0  0  0  0  0  0  0  0  0  0  0
    2.4792    3.8458    0.0000 C   0  0  0  0  0  0  0  0  0  0  0  0
    3.2875    4.0292    0.0000 C   0  0  0  0  0  0  0  0  0  0  0  0
  2  4  1  0  0  0  0
  3  2  1  0  0  0  0
  4  9  1  0  0  0  0
  5  2  2  0  0  0  0
  6  3  1  0  0  0  0
  7  5  1  0  0  0  0
  8  1  1  0  0  0  0
  9 17  1  0  0  0  0
 10  1  1  0  0  0  0
 11  1  1  0  0  0  0
 12 13  1  0  0  0  0
 13 15  1  0  0  0  0
 14 12  1  0  0  0  0
 15  6  1  0  0  0  0
 16  8  1  0  0  0  0
 17 16  2  0  0  0  0
 18 19  1  0  0  0  0
 19 13  2  0  0  0  0
 20  9  2  0  0  0  0
 21 10  1  0  0  0  0
 22 11  1  0  0  0  0
 23 10  2  0  0  0  0
 24 11  2  0  0  0  0
 25 14  1  0  0  0  0
 26  8  2  0  0  0  0
 27 28  2  0  0  0  0
 28 26  1  0  0  0  0
 22 21  1  0  0  0  0
 27 17  1  0  0  0  0
  6  7  2  0  0  0  0
 14 18  2  0  0  0  0
M  END
> <IDNUMBER>
F5079-0263

> <Chemical_Name>
N-{5-[(5-chlorothiophen-2-yl)methyl]-1,3,4-oxadiazol-2-yl}-3-(2,5-dioxopyrrolidin-1-yl)benzamide

> <CAS>
1021083-15-7

> <PriceCoeff>
1.00

> <MW>
416.84

> <Description>
solid

> <FSP3>
0.17

> <clogP>
0.95

> <TPSA>
133.64

> <Acceptor>
6

> <Donor>
1

> <RotBonds>
5

> <HAC>
28

> <Collection>
General

$$$$
F5577-0024
  -ISIS-  06222321152D

 24 26  0  0  0  0  0  0  0  0999 V2000
   -1.0083    2.5583    0.0000 C   0  0  0  0  0  0  0  0  0  0  0  0
   -2.4333    2.5583    0.0000 C   0  0  0  0  0  0  0  0  0  0  0  0
   -1.7208    2.9833    0.0000 C   0  0  0  0  0  0  0  0  0  0  0  0
   -2.4375    1.7333    0.0000 C   0  0  0  0  0  0  0  0  0  0  0  0
   -1.0083    1.7333    0.0000 C   0  0  0  0  0  0  0  0  0  0  0  0
   -1.7208    1.3208    0.0000 N   0  0  3  0  0  0  0  0  0  0  0  0
   -3.1500    1.3208    0.0000 C   0  0  0  0  0  0  0  0  0  0  0  0
   -3.8625    1.7333    0.0000 C   0  0  0  0  0  0  0  0  0  0  0  0
   -3.1500    2.9708    0.0000 C   0  0  0  0  0  0  0  0  0  0  0  0
   -4.5833    1.3208    0.0000 N   0  0  3  0  0  0  0  0  0  0  0  0
   -0.2875    2.9708    0.0000 C   0  0  0  0  0  0  0  0  0  0  0  0
   -3.8625    2.5583    0.0000 C   0  0  0  0  0  0  0  0  0  0  0  0
   -6.0125    0.4958    0.0000 N   0  0  3  0  0  0  0  0  0  0  0  0
   -1.7208    3.8000    0.0000 O   0  0  0  0  0  0  0  0  0  0  0  0
   -5.2958    1.7333    0.0000 C   0  0  0  0  0  0  0  0  0  0  0  0
   -4.5833    0.4958    0.0000 C   0  0  0  0  0  0  0  0  0  0  0  0
   -0.2875    3.7958    0.0000 O   0  0  0  0  0  0  0  0  0  0  0  0
   -6.0000    1.3208    0.0000 C   0  0  0  0  0  0  0  0  0  0  0  0
   -5.2958    0.0833    0.0000 C   0  0  0  0  0  0  0  0  0  0  0  0
   -4.5833    2.9708    0.0000 F   0  0  0  0  0  0  0  0  0  0  0  0
    0.4250    2.5583    0.0000 O   0  0  0  0  0  0  0  0  0  0  0  0
   -1.7250    0.4958    0.0000 C   0  0  0  0  0  0  0  0  0  0  0  0
   -6.7292    0.0833    0.0000 C   0  0  0  0  0  0  0  0  0  0  0  0
   -7.4417    0.4958    0.0000 C   0  0  0  0  0  0  0  0  0  0  0  0
  2  3  1  0  0  0  0
  3  1  1  0  0  0  0
  4  6  1  0  0  0  0
  5  1  2  0  0  0  0
  6  5  1  0  0  0  0
  7  4  2  0  0  0  0
  8  7  1  0  0  0  0
  9  2  2  0  0  0  0
 10  8  1  0  0  0  0
 11  1  1  0  0  0  0
 12  9  1  0  0  0  0
 13 19  1  0  0  0  0
 14  3  2  0  0  0  0
 15 10  1  0  0  0  0
 16 10  1  0  0  0  0
 17 11  2  0  0  0  0
 18 15  1  0  0  0  0
 19 16  1  0  0  0  0
 20 12  1  0  0  0  0
 21 11  1  0  0  0  0
 22  6  1  0  0  0  0
 23 13  1  0  0  0  0
 24 23  1  0  0  0  0
  4  2  1  0  0  0  0
  8 12  2  0  0  0  0
 13 18  1  0  0  0  0
M  END
> <IDNUMBER>
F5577-0024

> <Chemical_Name>
7-(4-ethylpiperazin-1-yl)-6-fluoro-1-methyl-4-oxo-1,4-dihydroquinoline-3-carboxylic acid

> <CAS>
1291486-74-2

> <PriceCoeff>
1.00

> <MW>
333.36

> <Description>
solid

> <FSP3>
0.41

> <clogP>
-0.21

> <TPSA>
64.09

> <Acceptor>
5

> <Donor>
3

> <RotBonds>
3

> <HAC>
24

> <Collection>
General

> <Reference_compound>
CHEMBL8

> <Similarity>
0.9030

$$$$
F1799-0236
  -ISIS-  06222321142D

 21 23  0  0  0  0  0  0  0  0999 V2000
    1.0167   -0.6500    0.0000 N   0  0  3  0  0  0  0  0  0  0  0  0
    0.4167   -0.0875    0.0000 C   0  0  0  0  0  0  0  0  0  0  0  0
    0.6542   -1.3875    0.0000 C   0  0  0  0  0  0  0  0  0  0  0  0
   -0.3000   -0.4875    0.0000 C   0  0  3  0  0  0  0  0  0  0  0  0
   -0.1625   -1.2875    0.0000 C   0  0  0  0  0  0  0  0  0  0  0  0
   -1.0833   -0.2042    0.0000 N   0  0  3  0  0  0  0  0  0  0  0  0
    1.8000   -0.3667    0.0000 C   0  0  0  0  0  0  0  0  0  0  0  0
    0.5167    0.7500    0.0000 O   0  0  0  0  0  0  0  0  0  0  0  0
    1.0542   -2.1292    0.0000 O   0  0  0  0  0  0  0  0  0  0  0  0
    2.4167   -0.8875    0.0000 C   0  0  0  0  0  0  0  0  0  0  0  0
    1.9375    0.4500    0.0000 C   0  0  0  0  0  0  0  0  0  0  0  0
    3.3375    0.1958    0.0000 C   0  0  0  0  0  0  0  0  0  0  0  0
    2.7000    0.7333    0.0000 C   0  0  0  0  0  0  0  0  0  0  0  0
    3.2000   -0.6042    0.0000 C   0  0  0  0  0  0  0  0  0  0  0  0
    4.1375    0.4500    0.0000 Br  0  0  0  0  0  0  0  0  0  0  0  0
   -0.7208   -0.9500    0.0000 C   0  0  0  0  0  0  0  0  0  0  0  0
   -1.8833   -0.0292    0.0000 C   0  0  0  0  0  0  0  0  0  0  0  0
   -1.0833   -1.6875    0.0000 C   0  0  0  0  0  0  0  0  0  0  0  0
   -2.5208   -0.5500    0.0000 C   0  0  0  0  0  0  0  0  0  0  0  0
   -2.5000   -1.3667    0.0000 C   0  0  0  0  0  0  0  0  0  0  0  0
   -1.8833   -1.8667    0.0000 C   0  0  0  0  0  0  0  0  0  0  0  0
  2  1  1  0  0  0  0
  3  1  1  0  0  0  0
  4  2  1  0  0  0  0
  5  3  1  0  0  0  0
  6  4  1  0  0  0  0
  7  1  1  0  0  0  0
  8  2  2  0  0  0  0
  9  3  2  0  0  0  0
 10  7  2  0  0  0  0
 11  7  1  0  0  0  0
 12 13  1  0  0  0  0
 13 11  2  0  0  0  0
 14 10  1  0  0  0  0
 15 12  1  0  0  0  0
 16  6  1  0  0  0  0
 17  6  1  0  0  0  0
 18 16  1  0  0  0  0
 19 17  1  0  0  0  0
 20 19  1  0  0  0  0
 21 18  1  0  0  0  0
  4  5  1  0  0  0  0
 14 12  2  0  0  0  0
 21 20  1  0  0  0  0
M  END
> <IDNUMBER>
F1799-0236

> <Chemical_Name>
3-(azepan-1-yl)-1-(4-bromophenyl)pyrrolidine-2,5-dione

> <CAS>
331422-89-0

> <PriceCoeff>
1.00

> <MW>
351.24

> <Description>
solid

> <FSP3>
0.50

> <clogP>
4.07

> <TPSA>
40.62

> <Acceptor>
2

> <Donor>
1

> <RotBonds>
2

> <HAC>
21

> <Collection>
General

$$$$
F1443-5720
  -ISIS-  06222321442D

 24 27  0  0  0  0  0  0  0  0999 V2000
    8.8417    3.3708    0.0000 C   0  0  0  0  0  0  0  0  0  0  0  0
    5.3042   -2.7750    0.0000 N   0  0  3  0  0  0  0  0  0  0  0  0
    1.7417    3.3708    0.0000 C   0  0  0  0  0  0  0  0  0  0  0  0
    1.7417   -0.6917    0.0000 C   0  0  0  0  0  0  0  0  0  0  0  0
    5.3042    5.4417    0.0000 C   0  0  0  0  0  0  0  0  0  0  0  0
    8.8417   -0.6917    0.0000 C   0  0  0  0  0  0  0  0  0  0  0  0
   -1.8500   -2.7750    0.0000 C   0  0  0  0  0  0  0  0  0  0  0  0
   -5.3833   -0.6917    0.0000 C   0  0  0  0  0  0  0  0  0  0  0  0
    5.3042   -6.9375    0.0000 C   0  0  3  0  0  0  0  0  0  0  0  0
   -1.8500    5.4417    0.0000 C   0  0  0  0  0  0  0  0  0  0  0  0
   12.3667    5.4417    0.0000 C   0  0  0  0  0  0  0  0  0  0  0  0
   -5.3833    3.3708    0.0000 C   0  0  0  0  0  0  0  0  0  0  0  0
   -8.9167   -2.7750    0.0000 N   0  0  3  0  0  0  0  0  0  0  0  0
    7.2917  -10.4625    0.0000 C   0  0  0  0  0  0  0  0  0  0  0  0
    3.2167  -10.4625    0.0000 C   0  0  0  0  0  0  0  0  0  0  0  0
    5.3042    9.5167    0.0000 O   0  0  0  0  0  0  0  0  0  0  0  0
  -16.0000   -6.9375    0.0000 N   0  0  0  0  0  0  0  0  0  0  0  0
   12.3667    9.5167    0.0000 O   0  0  0  0  0  0  0  0  0  0  0  0
   -8.9167    5.4417    0.0000 F   0  0  0  0  0  0  0  0  0  0  0  0
   15.9125    3.3708    0.0000 O   0  0  0  0  0  0  0  0  0  0  0  0
  -12.4667   -0.6917    0.0000 C   0  0  0  0  0  0  0  0  0  0  0  0
   -8.9167   -6.9375    0.0000 C   0  0  0  0  0  0  0  0  0  0  0  0
  -12.4667   -8.9000    0.0000 C   0  0  0  0  0  0  0  0  0  0  0  0
  -16.0000   -2.7750    0.0000 C   0  0  0  0  0  0  0  0  0  0  0  0
  2  6  1  0  0  0  0
  3  5  1  0  0  0  0
  4  2  1  0  0  0  0
  5  1  1  0  0  0  0
  6  1  2  0  0  0  0
  7  4  1  0  0  0  0
  8  7  2  0  0  0  0
  9  2  1  0  0  0  0
 10  3  1  0  0  0  0
 11  1  1  0  0  0  0
 12 10  2  0  0  0  0
 13  8  1  0  0  0  0
 14  9  1  0  0  0  0
 15  9  1  0  0  0  0
 16  5  2  0  0  0  0
 17 23  1  0  0  0  0
 18 11  2  0  0  0  0
 19 12  1  0  0  0  0
 20 11  1  0  0  0  0
 21 13  1  0  0  0  0
 22 13  1  0  0  0  0
 23 22  1  0  0  0  0
 24 21  1  0  0  0  0
  3  4  2  0  0  0  0
 14 15  1  0  0  0  0
 12  8  1  0  0  0  0
 24 17  1  0  0  0  0
M  END
> <IDNUMBER>
F1443-5720

> <Chemical_Name>
1-cyclopropyl-6-fluoro-4-oxo-7-(piperazin-1-yl)-1,4-dihydroquinoline-3-carboxylic acid

> <CAS>
85721-33-1

> <PriceCoeff>
1.00

> <MW>
331.34

> <Description>
solid

> <FSP3>
0.41

> <clogP>
-0.73

> <TPSA>
72.88

> <Acceptor>
5

> <Donor>
3

> <RotBonds>
3

> <HAC>
24

> <Collection>
General

> <Reference_compound>
CHEMBL8

> <Similarity>
1.0000

$$$$
F6064-2523
  -ISIS-  06222321442D

 26 29  0  0  0  0  0  0  0  0999 V2000
   10.1875   -8.6500    0.0000 N   0  0  0  0  0  0  0  0  0  0  0  0
   11.0042   -8.7667    0.0000 C   0  0  0  0  0  0  0  0  0  0  0  0
   10.0542   -7.8292    0.0000 C   0  0  0  0  0  0  0  0  0  0  0  0
    8.3167   -6.8625    0.0000 N   0  0  3  0  0  0  0  0  0  0  0  0
    7.6042   -6.4625    0.0000 C   0  0  0  0  0  0  0  0  0  0  0  0
   11.3792   -8.0292    0.0000 N   0  0  0  0  0  0  0  0  0  0  0  0
    9.3292   -7.4292    0.0000 C   0  0  3  0  0  0  0  0  0  0  0  0
   10.7917   -7.4542    0.0000 O   0  0  0  0  0  0  0  0  0  0  0  0
   11.3875   -9.5000    0.0000 C   0  0  0  0  0  0  0  0  0  0  0  0
    8.5417   -7.6542    0.0000 C   0  0  0  0  0  0  0  0  0  0  0  0
    9.1167   -6.6375    0.0000 C   0  0  0  0  0  0  0  0  0  0  0  0
    6.8917   -6.8792    0.0000 N   0  0  0  0  0  0  0  0  0  0  0  0
    5.4500   -5.2500    0.0000 C   0  0  0  0  0  0  0  0  0  0  0  0
    6.1667   -5.6542    0.0000 C   0  0  0  0  0  0  0  0  0  0  0  0
   10.9417  -10.1917    0.0000 N   0  0  0  0  0  0  0  0  0  0  0  0
    6.1750   -6.4792    0.0000 C   0  0  0  0  0  0  0  0  0  0  0  0
    7.5917   -5.6375    0.0000 O   0  0  0  0  0  0  0  0  0  0  0  0
    4.7375   -5.6667    0.0000 C   0  0  0  0  0  0  0  0  0  0  0  0
   12.5875  -10.2625    0.0000 N   0  0  0  0  0  0  0  0  0  0  0  0
    4.7417   -6.4917    0.0000 C   0  0  0  0  0  0  0  0  0  0  0  0
    5.4417   -4.4250    0.0000 Cl  0  0  0  0  0  0  0  0  0  0  0  0
   12.2042   -9.5292    0.0000 C   0  0  0  0  0  0  0  0  0  0  0  0
    5.4625   -6.9000    0.0000 C   0  0  0  0  0  0  0  0  0  0  0  0
    4.0167   -5.2625    0.0000 Cl  0  0  0  0  0  0  0  0  0  0  0  0
   11.3250  -10.9250    0.0000 C   0  0  0  0  0  0  0  0  0  0  0  0
   12.1417  -10.9542    0.0000 C   0  0  0  0  0  0  0  0  0  0  0  0
  2  1  1  0  0  0  0
  3  1  2  0  0  0  0
  4 11  1  0  0  0  0
  5  4  1  0  0  0  0
  6  2  2  0  0  0  0
  7  3  1  0  0  0  0
  8  3  1  0  0  0  0
  9  2  1  0  0  0  0
 10  7  1  0  0  0  0
 11  7  1  0  0  0  0
 12  5  1  0  0  0  0
 13 14  1  0  0  0  0
 14 16  2  0  0  0  0
 15  9  2  0  0  0  0
 16 12  1  0  0  0  0
 17  5  2  0  0  0  0
 18 20  1  0  0  0  0
 19 22  2  0  0  0  0
 20 23  2  0  0  0  0
 21 13  1  0  0  0  0
 22  9  1  0  0  0  0
 23 16  1  0  0  0  0
 24 18  1  0  0  0  0
 25 15  1  0  0  0  0
 26 19  1  0  0  0  0
  8  6  1  0  0  0  0
 10  4  1  0  0  0  0
 26 25  2  0  0  0  0
 13 18  2  0  0  0  0
M  END
> <IDNUMBER>
F6064-2523

> <Chemical_Name>
N-(3,4-dichlorophenyl)-3-[3-(pyrazin-2-yl)-1,2,4-oxadiazol-5-yl]azetidine-1-carboxamide

> <CAS>
1327231-84-4

> <PriceCoeff>
1.00

> <MW>
391.21

> <Description>
solid

> <FSP3>
0.19

> <clogP>
1.06

> <TPSA>
97.04

> <Acceptor>
6

> <Donor>
1

> <RotBonds>
4

> <HAC>
26

> <Collection>
General

$$$$
F0412-0123
  -ISIS-  06222321452D

 25 28  0  0  0  0  0  0  0  0999 V2000
   -0.3958    2.8125    0.0000 N   0  0  3  0  0  0  0  0  0  0  0  0
   -2.5458    2.1208    0.0000 N   0  0  3  0  0  0  0  0  0  0  0  0
   -2.1333    1.8500    0.0000 C   0  0  0  0  0  0  0  0  0  0  0  0
   -0.3125    3.2958    0.0000 C   0  0  0  0  0  0  0  0  0  0  0  0
    0.0542    2.5708    0.0000 C   0  0  0  0  0  0  0  0  0  0  0  0
   -2.9833    1.8958    0.0000 C   0  0  0  0  0  0  0  0  0  0  0  0
   -0.8333    2.5708    0.0000 C   0  0  0  0  0  0  0  0  0  0  0  0
   -3.4125    2.1458    0.0000 C   0  0  0  0  0  0  0  0  0  0  0  0
   -1.7125    2.0958    0.0000 C   0  0  0  0  0  0  0  0  0  0  0  0
   -2.5333    2.6208    0.0000 C   0  0  0  0  0  0  0  0  0  0  0  0
   -2.1500    1.3500    0.0000 O   0  0  0  0  0  0  0  0  0  0  0  0
    0.1792    3.3583    0.0000 C   0  0  0  0  0  0  0  0  0  0  0  0
    0.4000    2.9333    0.0000 C   0  0  0  0  0  0  0  0  0  0  0  0
   -3.4000    2.6458    0.0000 C   0  0  0  0  0  0  0  0  0  0  0  0
   -0.6500    3.6500    0.0000 O   0  0  0  0  0  0  0  0  0  0  0  0
    0.1542    2.0708    0.0000 O   0  0  0  0  0  0  0  0  0  0  0  0
   -2.9500    2.8833    0.0000 C   0  0  0  0  0  0  0  0  0  0  0  0
   -1.2708    2.8333    0.0000 C   0  0  0  0  0  0  0  0  0  0  0  0
   -0.8500    2.0708    0.0000 C   0  0  0  0  0  0  0  0  0  0  0  0
   -1.6958    2.5958    0.0000 C   0  0  0  0  0  0  0  0  0  0  0  0
   -1.2708    1.8333    0.0000 C   0  0  0  0  0  0  0  0  0  0  0  0
   -3.8500    1.9208    0.0000 C   0  0  0  0  0  0  0  0  0  0  0  0
   -3.8208    2.9125    0.0000 C   0  0  0  0  0  0  0  0  0  0  0  0
   -4.2708    2.1708    0.0000 C   0  0  0  0  0  0  0  0  0  0  0  0
   -4.2500    2.6833    0.0000 C   0  0  0  0  0  0  0  0  0  0  0  0
  2  3  1  0  0  0  0
  3  9  1  0  0  0  0
  4  1  1  0  0  0  0
  5  1  1  0  0  0  0
  6  2  1  0  0  0  0
  7  1  1  0  0  0  0
  8  6  1  0  0  0  0
  9 21  2  0  0  0  0
 10  2  1  0  0  0  0
 11  3  2  0  0  0  0
 12  4  1  0  0  0  0
 13  5  1  0  0  0  0
 14 17  1  0  0  0  0
 15  4  2  0  0  0  0
 16  5  2  0  0  0  0
 17 10  1  0  0  0  0
 18  7  1  0  0  0  0
 19  7  2  0  0  0  0
 20 18  2  0  0  0  0
 21 19  1  0  0  0  0
 22  8  1  0  0  0  0
 23 14  1  0  0  0  0
 24 22  2  0  0  0  0
 25 23  2  0  0  0  0
 13 12  1  0  0  0  0
  9 20  1  0  0  0  0
  8 14  2  0  0  0  0
 24 25  1  0  0  0  0
M  END
> <IDNUMBER>
F0412-0123

> <Chemical_Name>
1-[4-(1,2,3,4-tetrahydroisoquinoline-2-carbonyl)phenyl]pyrrolidine-2,5-dione

> <CAS>
392290-03-8

> <PriceCoeff>
1.00

> <MW>
334.37

> <Description>
solid

> <FSP3>
0.25

> <clogP>
1.41

> <TPSA>
57.69

> <Acceptor>
3

> <Donor>
0

> <RotBonds>
3

> <HAC>
25

> <Collection>
General

$$$$
F3284-7941
  -ISIS-  06222321462D

 13 14  0  0  0  0  0  0  0  0999 V2000
    2.1750    1.8958    0.0000 C   0  0  0  0  0  0  0  0  0  0  0  0
    1.4667    1.4750    0.0000 C   0  0  0  0  0  0  0  0  0  0  0  0
    2.1750    0.2375    0.0000 O   0  0  0  0  0  0  0  0  0  0  0  0
    1.4667    0.6458    0.0000 C   0  0  0  0  0  0  0  0  0  0  0  0
    2.8875    0.6458    0.0000 C   0  0  3  0  0  0  0  0  0  0  0  0
    2.8875    1.4708    0.0000 C   0  0  0  0  0  0  0  0  0  0  0  0
    2.1750    2.7125    0.0000 O   0  0  0  0  0  0  0  0  0  0  0  0
    0.7542    1.8958    0.0000 C   0  0  0  0  0  0  0  0  0  0  0  0
    0.7500    0.2375    0.0000 C   0  0  0  0  0  0  0  0  0  0  0  0
    2.8792   -0.1792    0.0000 C   0  0  0  0  0  0  0  0  0  0  0  0
    3.6042    0.2333    0.0000 C   0  0  0  0  0  0  0  0  0  0  0  0
    0.0375    1.4833    0.0000 C   0  0  0  0  0  0  0  0  0  0  0  0
    0.0375    0.6458    0.0000 C   0  0  0  0  0  0  0  0  0  0  0  0
  2  1  1  0  0  0  0
  3  5  1  0  0  0  0
  4  2  2  0  0  0  0
  5  6  1  0  0  0  0
  6  1  1  0  0  0  0
  7  1  2  0  0  0  0
  8  2  1  0  0  0  0
  9  4  1  0  0  0  0
 10  5  1  0  0  0  0
 11  5  1  0  0  0  0
 12  8  2  0  0  0  0
 13 12  1  0  0  0  0
  4  3  1  0  0  0  0
  9 13  2  0  0  0  0
M  END
> <IDNUMBER>
F3284-7941

> <Chemical_Name>
2,2-dimethyl-3,4-dihydro-2H-1-benzopyran-4-one

> <CAS>
3780-33-4

> <PriceCoeff>
1.50

> <MW>
176.21

> <Description>
solid

> <FSP3>
0.36

> <clogP>
2.75

> <TPSA>
26.30

> <Acceptor>
2

> <Donor>
0

> <RotBonds>
0

> <HAC>
13

> <Collection>
Advanced

> <Reference_compound>
CHEMBL274318

> <Similarity>
0.8320

$$$$
F3188-0121
  -ISIS-  06222321152D

 23 26  0  0  0  0  0  0  0  0999 V2000
    4.3542   -6.4125    0.0000 N   0  0  3  0  0  0  0  0  0  0  0  0
    4.8375   -5.7417    0.0000 C   0  0  0  0  0  0  0  0  0  0  0  0
    4.8417   -7.0792    0.0000 C   0  0  0  0  0  0  0  0  0  0  0  0
    5.6292   -6.8167    0.0000 C   0  0  3  0  0  0  0  0  0  0  0  0
    5.6250   -5.9917    0.0000 C   0  0  0  0  0  0  0  0  0  0  0  0
    6.2917   -7.2917    0.0000 N   0  0  0  0  0  0  0  0  0  0  0  0
    8.4625   -7.0917    0.0000 C   0  0  0  0  0  0  0  0  0  0  0  0
    7.7125   -7.4375    0.0000 C   0  0  0  0  0  0  0  0  0  0  0  0
    4.5792   -4.9542    0.0000 O   0  0  0  0  0  0  0  0  0  0  0  0
    8.5417   -6.2792    0.0000 C   0  0  0  0  0  0  0  0  0  0  0  0
    9.2167   -7.4250    0.0000 O   0  0  0  0  0  0  0  0  0  0  0  0
    7.0417   -6.9542    0.0000 C   0  0  0  0  0  0  0  0  0  0  0  0
    4.5917   -7.8625    0.0000 O   0  0  0  0  0  0  0  0  0  0  0  0
    3.5292   -6.4167    0.0000 C   0  0  3  0  0  0  0  0  0  0  0  0
    9.3417   -6.1000    0.0000 O   0  0  0  0  0  0  0  0  0  0  0  0
    9.7625   -6.8042    0.0000 C   0  0  0  0  0  0  0  0  0  0  0  0
    7.8667   -5.8000    0.0000 C   0  0  0  0  0  0  0  0  0  0  0  0
    7.1167   -6.1417    0.0000 C   0  0  0  0  0  0  0  0  0  0  0  0
    3.1167   -5.7042    0.0000 C   0  0  0  0  0  0  0  0  0  0  0  0
    3.1292   -7.1375    0.0000 C   0  0  0  0  0  0  0  0  0  0  0  0
    2.3042   -7.1375    0.0000 C   0  0  0  0  0  0  0  0  0  0  0  0
    2.3000   -5.7125    0.0000 C   0  0  0  0  0  0  0  0  0  0  0  0
    1.8875   -6.4250    0.0000 C   0  0  0  0  0  0  0  0  0  0  0  0
  2  1  1  0  0  0  0
  3  1  1  0  0  0  0
  4  3  1  0  0  0  0
  5  2  1  0  0  0  0
  6  4  1  0  0  0  0
  7  8  1  0  0  0  0
  8 12  2  0  0  0  0
  9  2  2  0  0  0  0
 10 17  1  0  0  0  0
 11  7  1  0  0  0  0
 12  6  1  0  0  0  0
 13  3  2  0  0  0  0
 14  1  1  0  0  0  0
 15 10  1  0  0  0  0
 16 11  1  0  0  0  0
 17 18  2  0  0  0  0
 18 12  1  0  0  0  0
 19 14  1  0  0  0  0
 20 14  1  0  0  0  0
 21 20  1  0  0  0  0
 22 19  1  0  0  0  0
 23 21  1  0  0  0  0
  5  4  1  0  0  0  0
 23 22  1  0  0  0  0
  7 10  2  0  0  0  0
 15 16  1  0  0  0  0
M  END
> <IDNUMBER>
F3188-0121

> <Chemical_Name>
3-[(2H-1,3-benzodioxol-5-yl)amino]-1-cyclohexylpyrrolidine-2,5-dione

> <CAS>
1008214-36-5

> <PriceCoeff>
1.00

> <MW>
316.35

> <Description>
solid

> <FSP3>
0.53

> <clogP>
3.69

> <TPSA>
67.87

> <Acceptor>
5

> <Donor>
1

> <RotBonds>
3

> <HAC>
23

> <Collection>
General

$$$$
F3325-0134
  -ISIS-  06222321442D

 20 21  0  0  0  0  0  0  0  0999 V2000
    3.0375   -3.0417    0.0000 N   0  0  3  0  0  0  0  0  0  0  0  0
    3.5542   -3.6917    0.0000 C   0  0  0  0  0  0  0  0  0  0  0  0
    3.4875   -2.3500    0.0000 C   0  0  0  0  0  0  0  0  0  0  0  0
    4.3250   -3.4000    0.0000 C   0  0  3  0  0  0  0  0  0  0  0  0
    4.2875   -2.5667    0.0000 C   0  0  0  0  0  0  0  0  0  0  0  0
    5.0625   -3.7792    0.0000 N   0  0  0  0  0  0  0  0  0  0  0  0
    3.3375   -4.4875    0.0000 O   0  0  0  0  0  0  0  0  0  0  0  0
    3.1917   -1.5792    0.0000 O   0  0  0  0  0  0  0  0  0  0  0  0
    7.1500   -2.4292    0.0000 C   0  0  0  0  0  0  0  0  0  0  0  0
    7.8417   -1.9875    0.0000 N   0  0  3  0  0  0  0  0  0  0  0  0
    2.2125   -3.0875    0.0000 C   0  0  0  0  0  0  0  0  0  0  0  0
    1.7667   -2.3917    0.0000 C   0  0  0  0  0  0  0  0  0  0  0  0
    5.7625   -3.3292    0.0000 C   0  0  0  0  0  0  0  0  0  0  0  0
    6.4167   -2.0542    0.0000 C   0  0  0  0  0  0  0  0  0  0  0  0
    7.1917   -3.2625    0.0000 C   0  0  0  0  0  0  0  0  0  0  0  0
    0.9417   -2.4292    0.0000 C   0  0  0  0  0  0  0  0  0  0  0  0
    6.4917   -3.7042    0.0000 C   0  0  0  0  0  0  0  0  0  0  0  0
    5.7250   -2.5042    0.0000 C   0  0  0  0  0  0  0  0  0  0  0  0
    8.5792   -2.3625    0.0000 C   0  0  0  0  0  0  0  0  0  0  0  0
    7.8042   -1.1625    0.0000 C   0  0  0  0  0  0  0  0  0  0  0  0
  2  1  1  0  0  0  0
  3  1  1  0  0  0  0
  4  2  1  0  0  0  0
  5  3  1  0  0  0  0
  6  4  1  0  0  0  0
  7  2  2  0  0  0  0
  8  3  2  0  0  0  0
  9 14  2  0  0  0  0
 10  9  1  0  0  0  0
 11  1  1  0  0  0  0
 12 11  1  0  0  0  0
 13  6  1  0  0  0  0
 14 18  1  0  0  0  0
 15 17  2  0  0  0  0
 16 12  2  0  0  0  0
 17 13  1  0  0  0  0
 18 13  2  0  0  0  0
 19 10  1  0  0  0  0
 20 10  1  0  0  0  0
  5  4  1  0  0  0  0
 15  9  1  0  0  0  0
M  END
> <IDNUMBER>
F3325-0134

> <Chemical_Name>
3-{[4-(dimethylamino)phenyl]amino}-1-(prop-2-en-1-yl)pyrrolidine-2,5-dione

> <CAS>
1025396-01-3

> <PriceCoeff>
1.00

> <MW>
273.33

> <Description>
solid

> <FSP3>
0.33

> <clogP>
2.59

> <TPSA>
52.65

> <Acceptor>
4

> <Donor>
2

> <RotBonds>
5

> <HAC>
20

> <Collection>
General

$$$$
F3188-0112
  -ISIS-  06222321462D

 25 28  0  0  0  0  0  0  0  0999 V2000
    3.8542   -6.0375    0.0000 N   0  0  3  0  0  0  0  0  0  0  0  0
    4.3417   -5.3667    0.0000 C   0  0  0  0  0  0  0  0  0  0  0  0
    4.3500   -6.7042    0.0000 C   0  0  0  0  0  0  0  0  0  0  0  0
    5.1292   -6.4417    0.0000 C   0  0  3  0  0  0  0  0  0  0  0  0
    5.1292   -5.6167    0.0000 C   0  0  0  0  0  0  0  0  0  0  0  0
    8.7917   -5.5625    0.0000 N   0  0  3  0  0  0  0  0  0  0  0  0
    5.7917   -6.9167    0.0000 N   0  0  0  0  0  0  0  0  0  0  0  0
    4.0792   -4.5792    0.0000 O   0  0  0  0  0  0  0  0  0  0  0  0
    8.0417   -5.9042    0.0000 C   0  0  0  0  0  0  0  0  0  0  0  0
    4.0917   -7.4875    0.0000 O   0  0  0  0  0  0  0  0  0  0  0  0
    3.0292   -6.0417    0.0000 C   0  0  3  0  0  0  0  0  0  0  0  0
    7.3667   -5.4250    0.0000 C   0  0  0  0  0  0  0  0  0  0  0  0
    7.9667   -6.7250    0.0000 C   0  0  0  0  0  0  0  0  0  0  0  0
    6.5417   -6.5792    0.0000 C   0  0  0  0  0  0  0  0  0  0  0  0
    6.6250   -5.7667    0.0000 C   0  0  0  0  0  0  0  0  0  0  0  0
    7.2167   -7.0625    0.0000 C   0  0  0  0  0  0  0  0  0  0  0  0
    9.4667   -6.0417    0.0000 C   0  0  0  0  0  0  0  0  0  0  0  0
    8.8667   -4.7417    0.0000 C   0  0  0  0  0  0  0  0  0  0  0  0
    2.5417   -5.3792    0.0000 C   0  0  0  0  0  0  0  0  0  0  0  0
    2.5542   -6.7167    0.0000 C   0  0  0  0  0  0  0  0  0  0  0  0
    9.6250   -4.4042    0.0000 C   0  0  0  0  0  0  0  0  0  0  0  0
   10.2042   -5.7042    0.0000 C   0  0  0  0  0  0  0  0  0  0  0  0
    1.7667   -6.4667    0.0000 C   0  0  0  0  0  0  0  0  0  0  0  0
    1.7625   -5.6417    0.0000 C   0  0  0  0  0  0  0  0  0  0  0  0
   10.2917   -4.8792    0.0000 C   0  0  0  0  0  0  0  0  0  0  0  0
  2  1  1  0  0  0  0
  3  1  1  0  0  0  0
  4  3  1  0  0  0  0
  5  2  1  0  0  0  0
  6  9  1  0  0  0  0
  7  4  1  0  0  0  0
  8  2  2  0  0  0  0
  9 13  2  0  0  0  0
 10  3  2  0  0  0  0
 11  1  1  0  0  0  0
 12 15  2  0  0  0  0
 13 16  1  0  0  0  0
 14  7  1  0  0  0  0
 15 14  1  0  0  0  0
 16 14  2  0  0  0  0
 17  6  1  0  0  0  0
 18  6  1  0  0  0  0
 19 11  1  0  0  0  0
 20 11  1  0  0  0  0
 21 18  1  0  0  0  0
 22 17  1  0  0  0  0
 23 20  1  0  0  0  0
 24 19  1  0  0  0  0
 25 21  1  0  0  0  0
  5  4  1  0  0  0  0
 23 24  1  0  0  0  0
  9 12  1  0  0  0  0
 25 22  1  0  0  0  0
M  END
> <IDNUMBER>
F3188-0112

> <Chemical_Name>
1-cyclopentyl-3-{[4-(piperidin-1-yl)phenyl]amino}pyrrolidine-2,5-dione

> <CAS>
1008091-55-1

> <PriceCoeff>
1.00

> <MW>
341.45

> <Description>
solid

> <FSP3>
0.60

> <clogP>
3.87

> <TPSA>
52.65

> <Acceptor>
4

> <Donor>
2

> <RotBonds>
4

> <HAC>
25

> <Collection>
General

$$$$
F5831-9881
  -ISIS-  06222321462D

 23 25  0  0  0  0  0  0  0  0999 V2000
   -4.5833    3.8000    0.0000 S   0  0  3  0  0  0  0  0  0  0  0  0
   -6.7167    3.3583    0.0000 N   0  0  3  0  0  0  0  0  0  0  0  0
   -3.1458    5.4500    0.0000 C   0  0  3  0  0  0  0  0  0  0  0  0
   -2.4375    5.0417    0.0000 C   0  0  0  0  0  0  0  0  0  0  0  0
   -7.4417    3.7583    0.0000 C   0  0  0  0  0  0  0  0  0  0  0  0
   -6.7042    2.5208    0.0000 C   0  0  0  0  0  0  0  0  0  0  0  0
   -5.2875    3.3833    0.0000 C   0  0  0  0  0  0  0  0  0  0  0  0
   -2.7375    6.1667    0.0000 C   0  0  0  0  0  0  0  0  0  0  0  0
   -3.5625    6.1667    0.0000 C   0  0  0  0  0  0  0  0  0  0  0  0
   -6.0042    3.7833    0.0000 C   0  0  0  0  0  0  0  0  0  0  0  0
   -3.8625    4.2125    0.0000 N   0  0  0  0  0  0  0  0  0  0  0  0
   -1.6500    5.2917    0.0000 S   0  0  0  0  0  0  0  0  0  0  0  0
   -3.8625    5.0417    0.0000 C   0  0  0  0  0  0  0  0  0  0  0  0
   -4.1583    3.1083    0.0000 O   0  0  0  0  0  0  0  0  0  0  0  0
   -5.0083    4.5042    0.0000 O   0  0  0  0  0  0  0  0  0  0  0  0
   -2.4333    4.2125    0.0000 C   0  0  0  0  0  0  0  0  0  0  0  0
   -5.9833    2.1208    0.0000 O   0  0  0  0  0  0  0  0  0  0  0  0
   -7.4667    4.5792    0.0000 O   0  0  0  0  0  0  0  0  0  0  0  0
   -1.1583    4.6292    0.0000 C   0  0  0  0  0  0  0  0  0  0  0  0
   -1.6458    3.9583    0.0000 C   0  0  0  0  0  0  0  0  0  0  0  0
   -7.4042    2.0958    0.0000 C   0  0  0  0  0  0  0  0  0  0  0  0
   -8.1542    3.3208    0.0000 C   0  0  0  0  0  0  0  0  0  0  0  0
   -8.1292    2.4875    0.0000 C   0  0  0  0  0  0  0  0  0  0  0  0
  2 10  1  0  0  0  0
  3 13  1  0  0  0  0
  4  3  1  0  0  0  0
  5  2  1  0  0  0  0
  6  2  1  0  0  0  0
  7  1  1  0  0  0  0
  8  3  1  0  0  0  0
  9  3  1  0  0  0  0
 10  7  1  0  0  0  0
 11  1  1  0  0  0  0
 12  4  1  0  0  0  0
 13 11  1  0  0  0  0
 14  1  2  0  0  0  0
 15  1  2  0  0  0  0
 16  4  2  0  0  0  0
 17  6  2  0  0  0  0
 18  5  2  0  0  0  0
 19 12  1  0  0  0  0
 20 16  1  0  0  0  0
 21  6  1  0  0  0  0
 22  5  1  0  0  0  0
 23 21  1  0  0  0  0
  8  9  1  0  0  0  0
 19 20  2  0  0  0  0
 22 23  1  0  0  0  0
M  END
> <IDNUMBER>
F5831-9881

> <Chemical_Name>
2-(2,6-dioxopiperidin-1-yl)-N-{[1-(thiophen-2-yl)cyclopropyl]methyl}ethane-1-sulfonamide

> <CAS>
1210886-93-3

> <PriceCoeff>
1.50

> <MW>
356.46

> <Description>
solid

> <FSP3>
0.60

> <clogP>
1.71

> <TPSA>
120.17

> <Acceptor>
4

> <Donor>
1

> <RotBonds>
7

> <HAC>
23

> <Collection>
Advanced

$$$$
F3023-0927
  -ISIS-  06222321442D

 21 22  0  0  0  0  0  0  0  0999 V2000
    3.7625   -6.4042    0.0000 N   0  0  3  0  0  0  0  0  0  0  0  0
    4.1792   -6.9750    0.0000 C   0  0  0  0  0  0  0  0  0  0  0  0
    4.1792   -5.8292    0.0000 C   0  0  0  0  0  0  0  0  0  0  0  0
    4.8542   -6.7542    0.0000 C   0  0  3  0  0  0  0  0  0  0  0  0
    4.8542   -6.0417    0.0000 C   0  0  0  0  0  0  0  0  0  0  0  0
    5.4292   -7.1667    0.0000 N   0  0  0  0  0  0  0  0  0  0  0  0
    3.0542   -6.4042    0.0000 C   0  0  0  0  0  0  0  0  0  0  0  0
    3.9667   -7.6500    0.0000 O   0  0  0  0  0  0  0  0  0  0  0  0
    3.9542   -5.1542    0.0000 O   0  0  0  0  0  0  0  0  0  0  0  0
    7.3667   -6.3042    0.0000 C   0  0  0  0  0  0  0  0  0  0  0  0
    8.0167   -6.0125    0.0000 N   0  0  3  0  0  0  0  0  0  0  0  0
    6.0792   -6.8792    0.0000 C   0  0  0  0  0  0  0  0  0  0  0  0
    6.7917   -5.8875    0.0000 C   0  0  0  0  0  0  0  0  0  0  0  0
    7.3000   -7.0042    0.0000 C   0  0  0  0  0  0  0  0  0  0  0  0
    6.1417   -6.1750    0.0000 C   0  0  0  0  0  0  0  0  0  0  0  0
    6.6500   -7.2917    0.0000 C   0  0  0  0  0  0  0  0  0  0  0  0
    2.7042   -7.0250    0.0000 C   0  0  3  0  0  0  0  0  0  0  0  0
    8.0917   -5.3042    0.0000 C   0  0  0  0  0  0  0  0  0  0  0  0
    8.5917   -6.4292    0.0000 C   0  0  0  0  0  0  0  0  0  0  0  0
    1.9917   -7.0292    0.0000 C   0  0  0  0  0  0  0  0  0  0  0  0
    3.0625   -7.6375    0.0000 C   0  0  0  0  0  0  0  0  0  0  0  0
  2  1  1  0  0  0  0
  3  1  1  0  0  0  0
  4  2  1  0  0  0  0
  5  3  1  0  0  0  0
  6  4  1  0  0  0  0
  7  1  1  0  0  0  0
  8  2  2  0  0  0  0
  9  3  2  0  0  0  0
 10 14  2  0  0  0  0
 11 10  1  0  0  0  0
 12  6  1  0  0  0  0
 13 15  2  0  0  0  0
 14 16  1  0  0  0  0
 15 12  1  0  0  0  0
 16 12  2  0  0  0  0
 17  7  1  0  0  0  0
 18 11  1  0  0  0  0
 19 11  1  0  0  0  0
 20 17  1  0  0  0  0
 21 17  1  0  0  0  0
  5  4  1  0  0  0  0
 10 13  1  0  0  0  0
M  END
> <IDNUMBER>
F3023-0927

> <Chemical_Name>
3-{[4-(dimethylamino)phenyl]amino}-1-(2-methylpropyl)pyrrolidine-2,5-dione

> <CAS>
1032268-11-3

> <PriceCoeff>
1.00

> <MW>
289.37

> <Description>
solid

> <FSP3>
0.50

> <clogP>
3.28

> <TPSA>
52.65

> <Acceptor>
4

> <Donor>
2

> <RotBonds>
5

> <HAC>
21

> <Collection>
General

$$$$
F1800-0179
  -ISIS-  06222321452D

 21 22  0  0  0  0  0  0  0  0999 V2000
   -3.7250    2.3000    0.0000 N   0  0  3  0  0  0  0  0  0  0  0  0
   -3.3500    2.9583    0.0000 C   0  0  0  0  0  0  0  0  0  0  0  0
   -3.3500    1.6583    0.0000 C   0  0  0  0  0  0  0  0  0  0  0  0
   -2.2250    2.3000    0.0000 S   0  0  0  0  0  0  0  0  0  0  0  0
   -4.8500    2.9458    0.0000 C   0  0  0  0  0  0  0  0  0  0  0  0
   -4.4750    2.3000    0.0000 C   0  0  0  0  0  0  0  0  0  0  0  0
   -2.6000    2.9583    0.0000 C   0  0  3  0  0  0  0  0  0  0  0  0
   -7.0917    4.2292    0.0000 C   0  0  0  0  0  0  0  0  0  0  0  0
   -6.7167    3.5958    0.0000 C   0  0  0  0  0  0  0  0  0  0  0  0
   -5.6000    2.9458    0.0000 N   0  0  0  0  0  0  0  0  0  0  0  0
   -2.6000    1.6583    0.0000 C   0  0  0  0  0  0  0  0  0  0  0  0
   -3.7333    3.6083    0.0000 O   0  0  0  0  0  0  0  0  0  0  0  0
   -5.9750    3.5958    0.0000 C   0  0  0  0  0  0  0  0  0  0  0  0
   -3.7333    1.0000    0.0000 O   0  0  0  0  0  0  0  0  0  0  0  0
   -6.7167    4.8917    0.0000 C   0  0  0  0  0  0  0  0  0  0  0  0
   -4.4750    3.5958    0.0000 O   0  0  0  0  0  0  0  0  0  0  0  0
   -5.9750    4.8917    0.0000 C   0  0  0  0  0  0  0  0  0  0  0  0
   -7.8417    4.2292    0.0000 Cl  0  0  0  0  0  0  0  0  0  0  0  0
   -5.6000    4.2417    0.0000 C   0  0  0  0  0  0  0  0  0  0  0  0
   -2.2208    3.6083    0.0000 C   0  0  0  0  0  0  0  0  0  0  0  0
   -7.0917    5.5417    0.0000 C   0  0  0  0  0  0  0  0  0  0  0  0
  2  1  1  0  0  0  0
  3  1  1  0  0  0  0
  4 11  1  0  0  0  0
  5  6  1  0  0  0  0
  6  1  1  0  0  0  0
  7  2  1  0  0  0  0
  8  9  1  0  0  0  0
  9 13  2  0  0  0  0
 10  5  1  0  0  0  0
 11  3  1  0  0  0  0
 12  2  2  0  0  0  0
 13 10  1  0  0  0  0
 14  3  2  0  0  0  0
 15 17  1  0  0  0  0
 16  5  2  0  0  0  0
 17 19  2  0  0  0  0
 18  8  1  0  0  0  0
 19 13  1  0  0  0  0
 20  7  1  0  0  0  0
 21 15  1  0  0  0  0
  7  4  1  0  0  0  0
 15  8  2  0  0  0  0
M  END
> <IDNUMBER>
F1800-0179

> <Chemical_Name>
N-(3-chloro-4-methylphenyl)-2-(2-methyl-3,5-dioxothiomorpholin-4-yl)acetamide

> <CAS>
868216-00-6

> <PriceCoeff>
1.00

> <MW>
326.80

> <Description>
solid

> <FSP3>
0.36

> <clogP>
3.44

> <TPSA>
91.78

> <Acceptor>
3

> <Donor>
1

> <RotBonds>
3

> <HAC>
21

> <Collection>
General

$$$$
F3205-0085
  -ISIS-  06222321462D

 23 25  0  0  0  0  0  0  0  0999 V2000
   -0.2750    0.1083    0.0000 N   0  0  3  0  0  0  0  0  0  0  0  0
    0.2167    0.7708    0.0000 C   0  0  0  0  0  0  0  0  0  0  0  0
    0.2042   -0.5667    0.0000 C   0  0  0  0  0  0  0  0  0  0  0  0
    1.0000   -0.3167    0.0000 C   0  0  3  0  0  0  0  0  0  0  0  0
    1.0042    0.5083    0.0000 C   0  0  0  0  0  0  0  0  0  0  0  0
    1.7125   -0.7417    0.0000 N   0  0  0  0  0  0  0  0  0  0  0  0
   -0.0333    1.5583    0.0000 O   0  0  0  0  0  0  0  0  0  0  0  0
   -0.0583   -1.3542    0.0000 O   0  0  0  0  0  0  0  0  0  0  0  0
   -1.1000    0.1125    0.0000 C   0  0  3  0  0  0  0  0  0  0  0  0
    3.8542    0.5000    0.0000 C   0  0  0  0  0  0  0  0  0  0  0  0
    4.5667    0.9208    0.0000 N   0  0  3  0  0  0  0  0  0  0  0  0
    2.4292   -0.3292    0.0000 C   0  0  0  0  0  0  0  0  0  0  0  0
    3.1417    0.9125    0.0000 C   0  0  0  0  0  0  0  0  0  0  0  0
    3.8542   -0.3292    0.0000 C   0  0  0  0  0  0  0  0  0  0  0  0
    3.1417   -0.7417    0.0000 C   0  0  0  0  0  0  0  0  0  0  0  0
    2.4292    0.5000    0.0000 C   0  0  0  0  0  0  0  0  0  0  0  0
    5.2875    0.5083    0.0000 C   0  0  0  0  0  0  0  0  0  0  0  0
    4.5667    1.7458    0.0000 C   0  0  0  0  0  0  0  0  0  0  0  0
   -1.5083    0.8333    0.0000 C   0  0  0  0  0  0  0  0  0  0  0  0
   -1.5208   -0.5917    0.0000 C   0  0  0  0  0  0  0  0  0  0  0  0
   -2.3500   -0.5875    0.0000 C   0  0  0  0  0  0  0  0  0  0  0  0
   -2.3333    0.8458    0.0000 C   0  0  0  0  0  0  0  0  0  0  0  0
   -2.7583    0.1333    0.0000 C   0  0  0  0  0  0  0  0  0  0  0  0
  2  1  1  0  0  0  0
  3  1  1  0  0  0  0
  4  3  1  0  0  0  0
  5  2  1  0  0  0  0
  6  4  1  0  0  0  0
  7  2  2  0  0  0  0
  8  3  2  0  0  0  0
  9  1  1  0  0  0  0
 10 13  2  0  0  0  0
 11 10  1  0  0  0  0
 12  6  1  0  0  0  0
 13 16  1  0  0  0  0
 14 15  2  0  0  0  0
 15 12  1  0  0  0  0
 16 12  2  0  0  0  0
 17 11  1  0  0  0  0
 18 11  1  0  0  0  0
 19  9  1  0  0  0  0
 20  9  1  0  0  0  0
 21 20  1  0  0  0  0
 22 19  1  0  0  0  0
 23 21  1  0  0  0  0
  5  4  1  0  0  0  0
 23 22  1  0  0  0  0
 10 14  1  0  0  0  0
M  END
> <IDNUMBER>
F3205-0085

> <Chemical_Name>
1-cyclohexyl-3-{[4-(dimethylamino)phenyl]amino}pyrrolidine-2,5-dione

> <CAS>
1025032-07-8

> <PriceCoeff>
1.00

> <MW>
315.41

> <Description>
solid

> <FSP3>
0.56

> <clogP>
3.76

> <TPSA>
52.65

> <Acceptor>
4

> <Donor>
2

> <RotBonds>
4

> <HAC>
23

> <Collection>
General

$$$$
F9995-1215
  -ISIS-  06222321472D

 11 11  0  0  0  0  0  0  0  0999 V2000
    2.0042   -1.6875    0.0000 C   0  0  0  0  0  0  0  0  0  0  0  0
    1.2917   -1.2750    0.0000 C   0  0  0  0  0  0  0  0  0  0  0  0
    4.1542   -0.4417    0.0000 C   0  0  0  0  0  0  0  0  0  0  0  0
    2.7250   -1.2750    0.0000 C   0  0  0  0  0  0  0  0  0  0  0  0
    4.1542   -1.2750    0.0000 C   0  0  0  0  0  0  0  0  0  0  0  0
    3.4375   -0.0292    0.0000 C   0  0  0  0  0  0  0  0  0  0  0  0
    4.8667   -0.0292    0.0000 C   0  0  3  0  0  0  0  0  0  0  0  0
    2.7250   -0.4500    0.0000 C   0  0  0  0  0  0  0  0  0  0  0  0
    3.4375   -1.6875    0.0000 C   0  0  0  0  0  0  0  0  0  0  0  0
    5.5792   -0.4375    0.0000 C   0  0  0  0  0  0  0  0  0  0  0  0
    4.8625    0.7958    0.0000 C   0  0  0  0  0  0  0  0  0  0  0  0
  2  1  3  0  0  0  0
  3  5  1  0  0  0  0
  4  1  1  0  0  0  0
  5  9  2  0  0  0  0
  6  8  1  0  0  0  0
  7  3  1  0  0  0  0
  8  4  2  0  0  0  0
  9  4  1  0  0  0  0
 10  7  1  0  0  0  0
 11  7  1  0  0  0  0
  6  3  2  0  0  0  0
M  END
> <IDNUMBER>
F9995-1215

> <Chemical_Name>
1-ethynyl-4-(propan-2-yl)benzene

> <CAS>
23152-99-0

> <PriceCoeff>
1.00

> <MW>
144.21

> <Description>
liquid

> <FSP3>
0.27

> <clogP>
3.84

> <TPSA>
0.00

> <Acceptor>
0

> <Donor>
0

> <RotBonds>
2

> <HAC>
11

> <Collection>
General

> <Reference_compound>
CHEMBL442915

> <Similarity>
0.8400

$$$$
F3023-0955
  -ISIS-  06222321152D

 24 26  0  0  0  0  0  0  0  0999 V2000
   -1.7958   -4.5500    0.0000 N   0  0  3  0  0  0  0  0  0  0  0  0
   -1.3708   -5.1167    0.0000 C   0  0  0  0  0  0  0  0  0  0  0  0
   -1.3750   -3.9750    0.0000 C   0  0  0  0  0  0  0  0  0  0  0  0
   -0.6958   -4.9000    0.0000 C   0  0  3  0  0  0  0  0  0  0  0  0
   -0.7000   -4.1917    0.0000 C   0  0  0  0  0  0  0  0  0  0  0  0
    2.4667   -4.1542    0.0000 N   0  0  3  0  0  0  0  0  0  0  0  0
   -0.1250   -5.3125    0.0000 N   0  0  0  0  0  0  0  0  0  0  0  0
    1.8167   -4.4417    0.0000 C   0  0  0  0  0  0  0  0  0  0  0  0
   -1.5833   -5.7917    0.0000 O   0  0  0  0  0  0  0  0  0  0  0  0
   -1.6000   -3.3042    0.0000 O   0  0  0  0  0  0  0  0  0  0  0  0
    3.7667   -3.5792    0.0000 O   0  0  0  0  0  0  0  0  0  0  0  0
    1.7417   -5.1542    0.0000 C   0  0  0  0  0  0  0  0  0  0  0  0
    1.2375   -4.0292    0.0000 C   0  0  0  0  0  0  0  0  0  0  0  0
    0.5250   -5.0250    0.0000 C   0  0  0  0  0  0  0  0  0  0  0  0
   -2.5000   -4.5542    0.0000 C   0  0  0  0  0  0  0  0  0  0  0  0
    1.0917   -5.4417    0.0000 C   0  0  0  0  0  0  0  0  0  0  0  0
    0.5917   -4.3167    0.0000 C   0  0  0  0  0  0  0  0  0  0  0  0
    3.0417   -4.5792    0.0000 C   0  0  0  0  0  0  0  0  0  0  0  0
    2.5375   -3.4542    0.0000 C   0  0  0  0  0  0  0  0  0  0  0  0
    3.1875   -3.1667    0.0000 C   0  0  0  0  0  0  0  0  0  0  0  0
    3.6875   -4.2875    0.0000 C   0  0  0  0  0  0  0  0  0  0  0  0
   -2.8500   -5.1667    0.0000 C   0  0  0  0  0  0  0  0  0  0  0  0
   -3.5583   -5.1750    0.0000 C   0  0  0  0  0  0  0  0  0  0  0  0
   -3.9083   -5.7917    0.0000 C   0  0  0  0  0  0  0  0  0  0  0  0
  2  1  1  0  0  0  0
  3  1  1  0  0  0  0
  4  2  1  0  0  0  0
  5  3  1  0  0  0  0
  6  8  1  0  0  0  0
  7  4  1  0  0  0  0
  8 13  1  0  0  0  0
  9  2  2  0  0  0  0
 10  3  2  0  0  0  0
 11 20  1  0  0  0  0
 12 16  1  0  0  0  0
 13 17  2  0  0  0  0
 14  7  1  0  0  0  0
 15  1  1  0  0  0  0
 16 14  2  0  0  0  0
 17 14  1  0  0  0  0
 18  6  1  0  0  0  0
 19  6  1  0  0  0  0
 20 19  1  0  0  0  0
 21 18  1  0  0  0  0
 22 15  1  0  0  0  0
 23 22  1  0  0  0  0
 24 23  1  0  0  0  0
  5  4  1  0  0  0  0
  8 12  2  0  0  0  0
 11 21  1  0  0  0  0
M  END
> <IDNUMBER>
F3023-0955

> <Chemical_Name>
1-butyl-3-{[4-(morpholin-4-yl)phenyl]amino}pyrrolidine-2,5-dione

> <CAS>
1008927-40-9

> <PriceCoeff>
1.00

> <MW>
331.41

> <Description>
solid

> <FSP3>
0.56

> <clogP>
2.70

> <TPSA>
61.88

> <Acceptor>
5

> <Donor>
2

> <RotBonds>
6

> <HAC>
24

> <Collection>
General

$$$$
F5323-0338
  -ISIS-  06222321442D

 25 28  0  0  0  0  0  0  0  0999 V2000
   -2.8333    2.0958    0.0000 C   0  0  0  0  0  0  0  0  0  0  0  0
   -2.1833    2.5708    0.0000 N   0  0  3  0  0  0  0  0  0  0  0  0
   -2.4333    3.3583    0.0000 N   0  0  0  0  0  0  0  0  0  0  0  0
   -3.5083    2.5708    0.0000 C   0  0  0  0  0  0  0  0  0  0  0  0
   -2.8333   -0.4750    0.0000 N   0  0  3  0  0  0  0  0  0  0  0  0
   -3.2500    3.3583    0.0000 C   0  0  0  0  0  0  0  0  0  0  0  0
   -2.8208    1.2708    0.0000 N   0  0  0  0  0  0  0  0  0  0  0  0
   -2.6708   -1.2917    0.0000 C   0  0  0  0  0  0  0  0  0  0  0  0
   -2.1125   -0.0542    0.0000 C   0  0  0  0  0  0  0  0  0  0  0  0
   -3.6750    0.7000    0.0000 C   0  0  0  0  0  0  0  0  0  0  0  0
   -3.5958   -0.1292    0.0000 C   0  0  0  0  0  0  0  0  0  0  0  0
   -1.3875    2.3208    0.0000 C   0  0  0  0  0  0  0  0  0  0  0  0
   -1.4958   -0.6167    0.0000 C   0  0  0  0  0  0  0  0  0  0  0  0
   -1.8333   -1.3792    0.0000 C   0  0  0  0  0  0  0  0  0  0  0  0
   -2.0125    0.7708    0.0000 O   0  0  0  0  0  0  0  0  0  0  0  0
   -3.2375   -1.9042    0.0000 O   0  0  0  0  0  0  0  0  0  0  0  0
   -4.4250    1.0125    0.0000 O   0  0  0  0  0  0  0  0  0  0  0  0
   -4.3208    2.5708    0.0000 C   0  0  0  0  0  0  0  0  0  0  0  0
   -3.9208    3.8333    0.0000 C   0  0  0  0  0  0  0  0  0  0  0  0
   -4.5833    3.3458    0.0000 C   0  0  0  0  0  0  0  0  0  0  0  0
   -0.7708    2.8833    0.0000 C   0  0  0  0  0  0  0  0  0  0  0  0
   -1.2125    1.5083    0.0000 C   0  0  0  0  0  0  0  0  0  0  0  0
   -0.4208    1.2458    0.0000 C   0  0  0  0  0  0  0  0  0  0  0  0
    0.0250    2.6250    0.0000 C   0  0  0  0  0  0  0  0  0  0  0  0
    0.2042    1.8083    0.0000 C   0  0  0  0  0  0  0  0  0  0  0  0
  2  1  1  0  0  0  0
  3  2  1  0  0  0  0
  4  1  2  0  0  0  0
  5 11  1  0  0  0  0
  6  4  1  0  0  0  0
  7  1  1  0  0  0  0
  8  5  1  0  0  0  0
  9  5  1  0  0  0  0
 10  7  1  0  0  0  0
 11 10  1  0  0  0  0
 12  2  1  0  0  0  0
 13  9  1  0  0  0  0
 14  8  1  0  0  0  0
 15  9  2  0  0  0  0
 16  8  2  0  0  0  0
 17 10  2  0  0  0  0
 18  4  1  0  0  0  0
 19  6  1  0  0  0  0
 20 18  1  0  0  0  0
 21 12  2  0  0  0  0
 22 12  1  0  0  0  0
 23 22  2  0  0  0  0
 24 21  1  0  0  0  0
 25 23  1  0  0  0  0
  3  6  2  0  0  0  0
 19 20  1  0  0  0  0
 25 24  2  0  0  0  0
 14 13  1  0  0  0  0
M  END
> <IDNUMBER>
F5323-0338

> <Chemical_Name>
2-(2,5-dioxopyrrolidin-1-yl)-N-{2-phenyl-2H,4H,5H,6H-cyclopenta[c]pyrazol-3-yl}acetamide

> <CAS>
1203204-82-3

> <PriceCoeff>
1.00

> <MW>
338.36

> <Description>
solid

> <FSP3>
0.33

> <clogP>
1.63

> <TPSA>
84.30

> <Acceptor>
4

> <Donor>
1

> <RotBonds>
4

> <HAC>
25

> <Collection>
General

$$$$
F2257-0235
  -ISIS-  06222321462D

 21 23  0  0  0  0  0  0  0  0999 V2000
   -2.8583    7.4917    0.0000 N   0  0  0  0  0  0  0  0  0  0  0  0
   -2.0333    7.5792    0.0000 C   0  0  0  0  0  0  0  0  0  0  0  0
   -3.0375    6.6875    0.0000 C   0  0  0  0  0  0  0  0  0  0  0  0
   -2.3208    6.2667    0.0000 C   0  0  0  0  0  0  0  0  0  0  0  0
   -3.7500    3.8000    0.0000 C   0  0  0  0  0  0  0  0  0  0  0  0
   -1.7083    6.8167    0.0000 C   0  0  0  0  0  0  0  0  0  0  0  0
   -3.0375    4.2125    0.0000 N   0  0  0  0  0  0  0  0  0  0  0  0
   -2.3250    5.4417    0.0000 C   0  0  0  0  0  0  0  0  0  0  0  0
   -3.0375    5.0292    0.0000 C   0  0  0  0  0  0  0  0  0  0  0  0
   -1.6208    8.2917    0.0000 O   0  0  0  0  0  0  0  0  0  0  0  0
   -4.4708    4.2042    0.0000 O   0  0  0  0  0  0  0  0  0  0  0  0
   -3.7583    6.2792    0.0000 C   0  0  0  0  0  0  0  0  0  0  0  0
   -3.7583    2.9833    0.0000 C   0  0  0  0  0  0  0  0  0  0  0  0
   -4.4833    2.5833    0.0000 C   0  0  0  0  0  0  0  0  0  0  0  0
   -3.7583    5.4500    0.0000 C   0  0  0  0  0  0  0  0  0  0  0  0
   -5.9083    1.7458    0.0000 C   0  0  0  0  0  0  0  0  0  0  0  0
   -6.6042    1.3250    0.0000 Cl  0  0  0  0  0  0  0  0  0  0  0  0
   -5.1958    1.3333    0.0000 C   0  0  0  0  0  0  0  0  0  0  0  0
   -5.9083    2.5625    0.0000 C   0  0  0  0  0  0  0  0  0  0  0  0
   -4.4708    1.7375    0.0000 C   0  0  0  0  0  0  0  0  0  0  0  0
   -5.1875    2.9875    0.0000 C   0  0  0  0  0  0  0  0  0  0  0  0
  2  1  1  0  0  0  0
  3  1  1  0  0  0  0
  4  3  2  0  0  0  0
  5  7  1  0  0  0  0
  6  2  1  0  0  0  0
  7  9  1  0  0  0  0
  8  4  1  0  0  0  0
  9 15  1  0  0  0  0
 10  2  2  0  0  0  0
 11  5  2  0  0  0  0
 12  3  1  0  0  0  0
 13  5  1  0  0  0  0
 14 13  1  0  0  0  0
 15 12  2  0  0  0  0
 16 19  1  0  0  0  0
 17 16  1  0  0  0  0
 18 20  1  0  0  0  0
 19 21  2  0  0  0  0
 20 14  2  0  0  0  0
 21 14  1  0  0  0  0
  4  6  1  0  0  0  0
  9  8  2  0  0  0  0
 18 16  2  0  0  0  0
M  END
> <IDNUMBER>
F2257-0235

> <Chemical_Name>
2-(4-chlorophenyl)-N-(2-oxo-2,3-dihydro-1H-indol-5-yl)acetamide

> <CAS>
921544-79-8

> <PriceCoeff>
1.00

> <MW>
300.74

> <Description>
solid

> <FSP3>
0.12

> <clogP>
1.98

> <TPSA>
58.20

> <Acceptor>
2

> <Donor>
2

> <RotBonds>
3

> <HAC>
21

> <Collection>
General

> <Reference_compound>
CHEMBL40823

> <Similarity>
0.8300

$$$$
F3325-0009
  -ISIS-  06222321152D

 27 29  0  0  0  0  0  0  0  0999 V2000
    3.8375   -1.5167    0.0000 N   0  0  3  0  0  0  0  0  0  0  0  0
    4.3167   -2.1875    0.0000 C   0  0  0  0  0  0  0  0  0  0  0  0
    4.3250   -0.8542    0.0000 C   0  0  0  0  0  0  0  0  0  0  0  0
    5.1042   -1.9292    0.0000 C   0  0  3  0  0  0  0  0  0  0  0  0
    5.1042   -1.1042    0.0000 C   0  0  0  0  0  0  0  0  0  0  0  0
    7.7625   -3.8792    0.0000 C   0  0  0  0  0  0  0  0  0  0  0  0
    7.1000   -3.3917    0.0000 N   0  0  3  0  0  0  0  0  0  0  0  0
    5.7750   -2.4167    0.0000 N   0  0  3  0  0  0  0  0  0  0  0  0
    3.0167   -1.5167    0.0000 C   0  0  0  0  0  0  0  0  0  0  0  0
    8.5167   -3.5542    0.0000 O   0  0  0  0  0  0  0  0  0  0  0  0
    4.0667   -2.9667    0.0000 O   0  0  0  0  0  0  0  0  0  0  0  0
    4.0667   -0.0667    0.0000 O   0  0  0  0  0  0  0  0  0  0  0  0
    7.6667   -4.7000    0.0000 O   0  0  0  0  0  0  0  0  0  0  0  0
    7.1917   -2.5750    0.0000 C   0  0  0  0  0  0  0  0  0  0  0  0
    6.3417   -3.7250    0.0000 C   0  0  0  0  0  0  0  0  0  0  0  0
    6.5250   -2.0792    0.0000 C   0  0  0  0  0  0  0  0  0  0  0  0
    5.6792   -3.2375    0.0000 C   0  0  0  0  0  0  0  0  0  0  0  0
    9.1792   -4.0417    0.0000 C   0  0  3  0  0  0  0  0  0  0  0  0
    2.6125   -0.8042    0.0000 C   0  0  0  0  0  0  0  0  0  0  0  0
    2.6042   -2.2292    0.0000 C   0  0  0  0  0  0  0  0  0  0  0  0
    1.3750   -1.5125    0.0000 C   0  0  0  0  0  0  0  0  0  0  0  0
    1.7792   -2.2292    0.0000 C   0  0  0  0  0  0  0  0  0  0  0  0
    1.7875   -0.8042    0.0000 C   0  0  0  0  0  0  0  0  0  0  0  0
    0.5500   -1.5042    0.0000 O   0  0  0  0  0  0  0  0  0  0  0  0
    9.0792   -4.8542    0.0000 C   0  0  0  0  0  0  0  0  0  0  0  0
    9.9292   -3.7125    0.0000 C   0  0  0  0  0  0  0  0  0  0  0  0
    9.8917   -4.4542    0.0000 C   0  0  0  0  0  0  0  0  0  0  0  0
  2  1  1  0  0  0  0
  3  1  1  0  0  0  0
  4  2  1  0  0  0  0
  5  3  1  0  0  0  0
  6  7  1  0  0  0  0
  7 15  1  0  0  0  0
  8  4  1  0  0  0  0
  9  1  1  0  0  0  0
 10  6  1  0  0  0  0
 11  2  2  0  0  0  0
 12  3  2  0  0  0  0
 13  6  2  0  0  0  0
 14 16  1  0  0  0  0
 15 17  1  0  0  0  0
 16  8  1  0  0  0  0
 17  8  1  0  0  0  0
 18 10  1  0  0  0  0
 19  9  1  0  0  0  0
 20  9  2  0  0  0  0
 21 22  2  0  0  0  0
 22 20  1  0  0  0  0
 23 19  2  0  0  0  0
 24 21  1  0  0  0  0
 25 18  1  0  0  0  0
 26 18  1  0  0  0  0
 27 18  1  0  0  0  0
  4  5  1  0  0  0  0
 23 21  1  0  0  0  0
 14  7  1  0  0  0  0
M  END
> <IDNUMBER>
F3325-0009

> <Chemical_Name>
tert-butyl 4-[1-(4-hydroxyphenyl)-2,5-dioxopyrrolidin-3-yl]piperazine-1-carboxylate

> <CAS>
881484-37-3

> <PriceCoeff>
1.00

> <MW>
375.42

> <Description>
solid

> <FSP3>
0.53

> <clogP>
2.42

> <TPSA>
90.39

> <Acceptor>
5

> <Donor>
2

> <RotBonds>
4

> <HAC>
27

> <Collection>
General

$$$$
F2257-0257
  -ISIS-  06222321442D

 21 23  0  0  0  0  0  0  0  0999 V2000
   -2.8583    7.4917    0.0000 N   0  0  0  0  0  0  0  0  0  0  0  0
   -2.0333    7.5792    0.0000 C   0  0  0  0  0  0  0  0  0  0  0  0
   -3.0375    6.6875    0.0000 C   0  0  0  0  0  0  0  0  0  0  0  0
   -2.3208    6.2667    0.0000 C   0  0  0  0  0  0  0  0  0  0  0  0
   -3.7500    3.8000    0.0000 C   0  0  0  0  0  0  0  0  0  0  0  0
   -1.7083    6.8167    0.0000 C   0  0  0  0  0  0  0  0  0  0  0  0
   -3.0375    4.2125    0.0000 N   0  0  0  0  0  0  0  0  0  0  0  0
   -2.3250    5.4417    0.0000 C   0  0  0  0  0  0  0  0  0  0  0  0
   -3.0375    5.0292    0.0000 C   0  0  0  0  0  0  0  0  0  0  0  0
   -1.6208    8.2917    0.0000 O   0  0  0  0  0  0  0  0  0  0  0  0
   -4.4833    4.2125    0.0000 O   0  0  0  0  0  0  0  0  0  0  0  0
   -3.7583    6.2792    0.0000 C   0  0  0  0  0  0  0  0  0  0  0  0
   -3.7583    2.9875    0.0000 C   0  0  0  0  0  0  0  0  0  0  0  0
   -4.4750    2.5708    0.0000 C   0  0  0  0  0  0  0  0  0  0  0  0
   -3.7583    5.4500    0.0000 C   0  0  0  0  0  0  0  0  0  0  0  0
   -5.8708    1.7208    0.0000 C   0  0  0  0  0  0  0  0  0  0  0  0
   -6.5917    1.3083    0.0000 F   0  0  0  0  0  0  0  0  0  0  0  0
   -5.8958    2.5500    0.0000 C   0  0  0  0  0  0  0  0  0  0  0  0
   -5.1708    1.3250    0.0000 C   0  0  0  0  0  0  0  0  0  0  0  0
   -4.4583    1.7500    0.0000 C   0  0  0  0  0  0  0  0  0  0  0  0
   -5.1750    2.9833    0.0000 C   0  0  0  0  0  0  0  0  0  0  0  0
  2  1  1  0  0  0  0
  3  1  1  0  0  0  0
  4  3  2  0  0  0  0
  5  7  1  0  0  0  0
  6  2  1  0  0  0  0
  7  9  1  0  0  0  0
  8  4  1  0  0  0  0
  9 15  1  0  0  0  0
 10  2  2  0  0  0  0
 11  5  2  0  0  0  0
 12  3  1  0  0  0  0
 13  5  1  0  0  0  0
 14 13  1  0  0  0  0
 15 12  2  0  0  0  0
 16 18  1  0  0  0  0
 17 16  1  0  0  0  0
 18 21  2  0  0  0  0
 19 20  1  0  0  0  0
 20 14  2  0  0  0  0
 21 14  1  0  0  0  0
  4  6  1  0  0  0  0
  9  8  2  0  0  0  0
 19 16  2  0  0  0  0
M  END
> <IDNUMBER>
F2257-0257

> <Chemical_Name>
2-(4-fluorophenyl)-N-(2-oxo-2,3-dihydro-1H-indol-5-yl)acetamide

> <CAS>
921838-61-1

> <PriceCoeff>
1.00

> <MW>
284.29

> <Description>
solid

> <FSP3>
0.12

> <clogP>
1.41

> <TPSA>
58.20

> <Acceptor>
2

> <Donor>
2

> <RotBonds>
3

> <HAC>
21

> <Collection>
General

> <Reference_compound>
CHEMBL40823

> <Similarity>
0.8120

$$$$
F1800-0194
  -ISIS-  06222321142D

 22 23  0  0  0  0  0  0  0  0999 V2000
   -3.7250    2.3000    0.0000 N   0  0  3  0  0  0  0  0  0  0  0  0
   -3.3500    2.9583    0.0000 C   0  0  0  0  0  0  0  0  0  0  0  0
   -7.1042    5.5417    0.0000 N   0  3  0  0  0  0  0  0  0  0  0  0
   -3.3500    1.6583    0.0000 C   0  0  0  0  0  0  0  0  0  0  0  0
   -2.2250    2.3000    0.0000 S   0  0  0  0  0  0  0  0  0  0  0  0
   -4.4750    2.3000    0.0000 C   0  0  0  0  0  0  0  0  0  0  0  0
   -4.8500    2.9458    0.0000 C   0  0  0  0  0  0  0  0  0  0  0  0
   -6.7167    4.8875    0.0000 C   0  0  0  0  0  0  0  0  0  0  0  0
   -2.6000    2.9583    0.0000 C   0  0  3  0  0  0  0  0  0  0  0  0
   -7.8542    5.5417    0.0000 O   0  5  0  0  0  0  0  0  0  0  0  0
   -2.6000    1.6583    0.0000 C   0  0  0  0  0  0  0  0  0  0  0  0
   -5.6000    2.9458    0.0000 N   0  0  0  0  0  0  0  0  0  0  0  0
   -6.7292    6.1917    0.0000 O   0  0  0  0  0  0  0  0  0  0  0  0
   -3.7333    3.6083    0.0000 O   0  0  0  0  0  0  0  0  0  0  0  0
   -3.7333    1.0000    0.0000 O   0  0  0  0  0  0  0  0  0  0  0  0
   -4.4750    3.5958    0.0000 O   0  0  0  0  0  0  0  0  0  0  0  0
   -5.9750    4.8875    0.0000 C   0  0  0  0  0  0  0  0  0  0  0  0
   -7.0917    4.2292    0.0000 C   0  0  0  0  0  0  0  0  0  0  0  0
   -5.9750    3.5958    0.0000 C   0  0  0  0  0  0  0  0  0  0  0  0
   -6.7167    3.5958    0.0000 C   0  0  0  0  0  0  0  0  0  0  0  0
   -5.6000    4.2292    0.0000 C   0  0  0  0  0  0  0  0  0  0  0  0
   -2.2208    3.6083    0.0000 C   0  0  0  0  0  0  0  0  0  0  0  0
  2  1  1  0  0  0  0
  3  8  1  0  0  0  0
  4  1  1  0  0  0  0
  5 11  1  0  0  0  0
  6  1  1  0  0  0  0
  7  6  1  0  0  0  0
  8 17  1  0  0  0  0
  9  2  1  0  0  0  0
 10  3  1  0  0  0  0
 11  4  1  0  0  0  0
 12  7  1  0  0  0  0
 13  3  2  0  0  0  0
 14  2  2  0  0  0  0
 15  4  2  0  0  0  0
 16  7  2  0  0  0  0
 17 21  2  0  0  0  0
 18 20  1  0  0  0  0
 19 12  1  0  0  0  0
 20 19  2  0  0  0  0
 21 19  1  0  0  0  0
 22  9  1  0  0  0  0
  9  5  1  0  0  0  0
 18  8  2  0  0  0  0
M  CHG  2   3   1  10  -1
M  END
> <IDNUMBER>
F1800-0194

> <Chemical_Name>
2-(2-methyl-3,5-dioxothiomorpholin-4-yl)-N-(4-nitrophenyl)acetamide

> <CAS>
868216-13-1

> <PriceCoeff>
1.00

> <MW>
323.32

> <Description>
solid

> <FSP3>
0.31

> <clogP>
2.27

> <TPSA>
134.92

> <Acceptor>
5

> <Donor>
1

> <RotBonds>
4

> <HAC>
22

> <Collection>
General

$$$$
F3023-0958
  -ISIS-  06222321152D

 24 26  0  0  0  0  0  0  0  0999 V2000
    3.5375   -6.4542    0.0000 N   0  0  3  0  0  0  0  0  0  0  0  0
    3.9542   -7.0250    0.0000 C   0  0  0  0  0  0  0  0  0  0  0  0
    3.9542   -5.8792    0.0000 C   0  0  0  0  0  0  0  0  0  0  0  0
    4.6292   -6.8042    0.0000 C   0  0  3  0  0  0  0  0  0  0  0  0
    4.6292   -6.0917    0.0000 C   0  0  0  0  0  0  0  0  0  0  0  0
    7.7917   -6.0625    0.0000 N   0  0  3  0  0  0  0  0  0  0  0  0
    5.2042   -7.2167    0.0000 N   0  0  0  0  0  0  0  0  0  0  0  0
    7.1417   -6.3542    0.0000 C   0  0  0  0  0  0  0  0  0  0  0  0
    3.7417   -7.7000    0.0000 O   0  0  0  0  0  0  0  0  0  0  0  0
    3.7292   -5.2042    0.0000 O   0  0  0  0  0  0  0  0  0  0  0  0
    9.0917   -5.4875    0.0000 O   0  0  0  0  0  0  0  0  0  0  0  0
    7.0750   -7.0542    0.0000 C   0  0  0  0  0  0  0  0  0  0  0  0
    6.5667   -5.9375    0.0000 C   0  0  0  0  0  0  0  0  0  0  0  0
    5.8542   -6.9292    0.0000 C   0  0  0  0  0  0  0  0  0  0  0  0
    2.8292   -6.4542    0.0000 C   0  0  0  0  0  0  0  0  0  0  0  0
    5.9167   -6.2250    0.0000 C   0  0  0  0  0  0  0  0  0  0  0  0
    6.4250   -7.3417    0.0000 C   0  0  0  0  0  0  0  0  0  0  0  0
    7.8667   -5.3542    0.0000 C   0  0  0  0  0  0  0  0  0  0  0  0
    8.3667   -6.4792    0.0000 C   0  0  0  0  0  0  0  0  0  0  0  0
    1.7625   -5.8500    0.0000 O   0  0  0  0  0  0  0  0  0  0  0  0
    8.5167   -5.0667    0.0000 C   0  0  0  0  0  0  0  0  0  0  0  0
    9.0167   -6.1917    0.0000 C   0  0  0  0  0  0  0  0  0  0  0  0
    2.4750   -5.8417    0.0000 C   0  0  0  0  0  0  0  0  0  0  0  0
    1.4042   -5.2417    0.0000 C   0  0  0  0  0  0  0  0  0  0  0  0
  2  1  1  0  0  0  0
  3  1  1  0  0  0  0
  4  2  1  0  0  0  0
  5  3  1  0  0  0  0
  6  8  1  0  0  0  0
  7  4  1  0  0  0  0
  8 12  2  0  0  0  0
  9  2  2  0  0  0  0
 10  3  2  0  0  0  0
 11 22  1  0  0  0  0
 12 17  1  0  0  0  0
 13 16  2  0  0  0  0
 14  7  1  0  0  0  0
 15  1  1  0  0  0  0
 16 14  1  0  0  0  0
 17 14  2  0  0  0  0
 18  6  1  0  0  0  0
 19  6  1  0  0  0  0
 20 23  1  0  0  0  0
 21 18  1  0  0  0  0
 22 19  1  0  0  0  0
 23 15  1  0  0  0  0
 24 20  1  0  0  0  0
  5  4  1  0  0  0  0
 13  8  1  0  0  0  0
 11 21  1  0  0  0  0
M  END
> <IDNUMBER>
F3023-0958

> <Chemical_Name>
1-(2-methoxyethyl)-3-{[4-(morpholin-4-yl)phenyl]amino}pyrrolidine-2,5-dione

> <CAS>
1008712-49-9

> <PriceCoeff>
1.00

> <MW>
333.38

> <Description>
solid

> <FSP3>
0.53

> <clogP>
1.37

> <TPSA>
71.11

> <Acceptor>
6

> <Donor>
2

> <RotBonds>
6

> <HAC>
24

> <Collection>
General

$$$$
F3188-0116
  -ISIS-  06222321152D

 21 23  0  0  0  0  0  0  0  0999 V2000
    3.1250   -6.4125    0.0000 N   0  0  3  0  0  0  0  0  0  0  0  0
    3.6167   -7.0792    0.0000 C   0  0  0  0  0  0  0  0  0  0  0  0
    3.6042   -5.7417    0.0000 C   0  0  0  0  0  0  0  0  0  0  0  0
    4.4000   -6.8167    0.0000 C   0  0  3  0  0  0  0  0  0  0  0  0
    4.3917   -5.9917    0.0000 C   0  0  0  0  0  0  0  0  0  0  0  0
    5.0625   -7.2917    0.0000 N   0  0  0  0  0  0  0  0  0  0  0  0
    7.2292   -7.0917    0.0000 C   0  0  0  0  0  0  0  0  0  0  0  0
    2.3000   -6.4167    0.0000 C   0  0  0  0  0  0  0  0  0  0  0  0
    6.4792   -7.4375    0.0000 C   0  0  0  0  0  0  0  0  0  0  0  0
    7.3125   -6.2792    0.0000 C   0  0  0  0  0  0  0  0  0  0  0  0
    7.9875   -7.4250    0.0000 O   0  0  0  0  0  0  0  0  0  0  0  0
    5.8125   -6.9542    0.0000 C   0  0  0  0  0  0  0  0  0  0  0  0
    3.3625   -7.8625    0.0000 O   0  0  0  0  0  0  0  0  0  0  0  0
    3.3500   -4.9542    0.0000 O   0  0  0  0  0  0  0  0  0  0  0  0
    8.1167   -6.1000    0.0000 O   0  0  0  0  0  0  0  0  0  0  0  0
    8.5292   -6.8042    0.0000 C   0  0  0  0  0  0  0  0  0  0  0  0
    6.6375   -5.8000    0.0000 C   0  0  0  0  0  0  0  0  0  0  0  0
    5.8917   -6.1417    0.0000 C   0  0  0  0  0  0  0  0  0  0  0  0
    1.8792   -5.7042    0.0000 C   0  0  3  0  0  0  0  0  0  0  0  0
    2.2917   -4.9875    0.0000 C   0  0  0  0  0  0  0  0  0  0  0  0
    1.0542   -5.7042    0.0000 C   0  0  0  0  0  0  0  0  0  0  0  0
  2  1  1  0  0  0  0
  3  1  1  0  0  0  0
  4  2  1  0  0  0  0
  5  3  1  0  0  0  0
  6  4  1  0  0  0  0
  7  9  1  0  0  0  0
  8  1  1  0  0  0  0
  9 12  2  0  0  0  0
 10 17  1  0  0  0  0
 11  7  1  0  0  0  0
 12  6  1  0  0  0  0
 13  2  2  0  0  0  0
 14  3  2  0  0  0  0
 15 10  1  0  0  0  0
 16 11  1  0  0  0  0
 17 18  2  0  0  0  0
 18 12  1  0  0  0  0
 19  8  1  0  0  0  0
 20 19  1  0  0  0  0
 21 19  1  0  0  0  0
  5  4  1  0  0  0  0
 10  7  2  0  0  0  0
 15 16  1  0  0  0  0
M  END
> <IDNUMBER>
F3188-0116

> <Chemical_Name>
3-[(2H-1,3-benzodioxol-5-yl)amino]-1-(2-methylpropyl)pyrrolidine-2,5-dione

> <CAS>
1008051-91-9

> <PriceCoeff>
1.00

> <MW>
290.31

> <Description>
solid

> <FSP3>
0.47

> <clogP>
3.21

> <TPSA>
67.87

> <Acceptor>
5

> <Donor>
1

> <RotBonds>
4

> <HAC>
21

> <Collection>
General

$$$$
F1800-0035
  -ISIS-  06222321442D

 21 22  0  0  0  0  0  0  0  0999 V2000
   -3.7583    2.3708    0.0000 N   0  0  3  0  0  0  0  0  0  0  0  0
   -6.2792   -1.8875    0.0000 N   0  3  0  0  0  0  0  0  0  0  0  0
   -3.3333    3.0833    0.0000 C   0  0  0  0  0  0  0  0  0  0  0  0
   -3.3500    1.6500    0.0000 C   0  0  0  0  0  0  0  0  0  0  0  0
   -4.9958    1.6708    0.0000 C   0  0  0  0  0  0  0  0  0  0  0  0
   -4.5833    2.3750    0.0000 C   0  0  0  0  0  0  0  0  0  0  0  0
   -5.8625   -1.1792    0.0000 C   0  0  0  0  0  0  0  0  0  0  0  0
   -5.8833   -2.6042    0.0000 O   0  5  0  0  0  0  0  0  0  0  0  0
   -2.1083    2.3458    0.0000 S   0  0  0  0  0  0  0  0  0  0  0  0
   -4.5958    0.9458    0.0000 N   0  0  0  0  0  0  0  0  0  0  0  0
   -7.1042   -1.8750    0.0000 O   0  0  0  0  0  0  0  0  0  0  0  0
   -3.7708    0.9375    0.0000 O   0  0  0  0  0  0  0  0  0  0  0  0
   -3.7375    3.8000    0.0000 O   0  0  0  0  0  0  0  0  0  0  0  0
   -5.8125    1.6833    0.0000 O   0  0  0  0  0  0  0  0  0  0  0  0
   -6.2542   -0.4667    0.0000 C   0  0  0  0  0  0  0  0  0  0  0  0
   -5.0458   -1.1875    0.0000 C   0  0  0  0  0  0  0  0  0  0  0  0
   -5.0208    0.2458    0.0000 C   0  0  0  0  0  0  0  0  0  0  0  0
   -2.5333    1.6458    0.0000 C   0  0  0  0  0  0  0  0  0  0  0  0
   -2.5083    3.0625    0.0000 C   0  0  0  0  0  0  0  0  0  0  0  0
   -4.6125   -0.4875    0.0000 C   0  0  0  0  0  0  0  0  0  0  0  0
   -5.8458    0.2500    0.0000 C   0  0  0  0  0  0  0  0  0  0  0  0
  2  7  1  0  0  0  0
  3  1  1  0  0  0  0
  4  1  1  0  0  0  0
  5  6  1  0  0  0  0
  6  1  1  0  0  0  0
  7 15  1  0  0  0  0
  8  2  1  0  0  0  0
  9 18  1  0  0  0  0
 10  5  1  0  0  0  0
 11  2  2  0  0  0  0
 12  4  2  0  0  0  0
 13  3  2  0  0  0  0
 14  5  2  0  0  0  0
 15 21  2  0  0  0  0
 16 20  1  0  0  0  0
 17 10  1  0  0  0  0
 18  4  1  0  0  0  0
 19  3  1  0  0  0  0
 20 17  2  0  0  0  0
 21 17  1  0  0  0  0
 19  9  1  0  0  0  0
 16  7  2  0  0  0  0
M  CHG  2   2   1   8  -1
M  END
> <IDNUMBER>
F1800-0035

> <Chemical_Name>
2-(3,5-dioxothiomorpholin-4-yl)-N-(4-nitrophenyl)acetamide

> <CAS>
868215-12-7

> <PriceCoeff>
1.00

> <MW>
309.30

> <Description>
solid

> <FSP3>
0.25

> <clogP>
1.75

> <TPSA>
134.92

> <Acceptor>
5

> <Donor>
1

> <RotBonds>
4

> <HAC>
21

> <Collection>
General

$$$$
F1918-0045
  -ISIS-  06222321442D

 17 19  0  0  0  0  0  0  0  0999 V2000
    0.3500    0.3333    0.0000 C   0  0  0  0  0  0  0  0  0  0  0  0
    0.3417   -0.5000    0.0000 C   0  0  0  0  0  0  0  0  0  0  0  0
   -0.3625   -0.9125    0.0000 N   0  0  0  0  0  0  0  0  0  0  0  0
    1.7667   -0.5042    0.0000 N   0  0  0  0  0  0  0  0  0  0  0  0
   -1.0750    0.3333    0.0000 C   0  0  0  0  0  0  0  0  0  0  0  0
    1.0667    0.7375    0.0000 C   0  0  0  0  0  0  0  0  0  0  0  0
    1.7792    0.3208    0.0000 C   0  0  3  0  0  0  0  0  0  0  0  0
   -1.0750   -0.4917    0.0000 C   0  0  0  0  0  0  0  0  0  0  0  0
    1.0542   -0.9167    0.0000 C   0  0  3  0  0  0  0  0  0  0  0  0
    2.4917    0.7250    0.0000 C   0  0  0  0  0  0  0  0  0  0  0  0
    3.2042    0.3083    0.0000 O   0  0  0  0  0  0  0  0  0  0  0  0
    2.5042    1.5500    0.0000 O   0  0  0  0  0  0  0  0  0  0  0  0
   -1.7958    0.7458    0.0000 C   0  0  0  0  0  0  0  0  0  0  0  0
   -1.7958   -0.9125    0.0000 C   0  0  0  0  0  0  0  0  0  0  0  0
    1.0417   -1.7417    0.0000 C   0  0  0  0  0  0  0  0  0  0  0  0
   -2.5083    0.3250    0.0000 C   0  0  0  0  0  0  0  0  0  0  0  0
   -2.5083   -0.5000    0.0000 C   0  0  0  0  0  0  0  0  0  0  0  0
  2  1  2  0  0  0  0
  3  2  1  0  0  0  0
  4  7  1  0  0  0  0
  5  1  1  0  0  0  0
  6  1  1  0  0  0  0
  7  6  1  0  0  0  0
  8  5  1  0  0  0  0
  9  2  1  0  0  0  0
 10  7  1  0  0  0  0
 11 10  2  0  0  0  0
 12 10  1  0  0  0  0
 13  5  2  0  0  0  0
 14  8  2  0  0  0  0
 15  9  1  0  0  0  0
 16 13  1  0  0  0  0
 17 16  2  0  0  0  0
  3  8  1  0  0  0  0
  4  9  1  0  0  0  0
 14 17  1  0  0  0  0
M  END
> <IDNUMBER>
F1918-0045

> <Chemical_Name>
1-methyl-1H,2H,3H,4H,9H-pyrido[3,4-b]indole-3-carboxylic acid

> <CAS>
5470-37-1

> <PriceCoeff>
1.00

> <MW>
230.26

> <Description>
solid

> <FSP3>
0.31

> <clogP>
-0.69

> <TPSA>
65.12

> <Acceptor>
2

> <Donor>
2

> <RotBonds>
1

> <HAC>
17

> <Collection>
General

> <Reference_compound>
CHEMBL149177

> <Similarity>
0.9270

$$$$
F3323-0590
  -ISIS-  06222321442D

 24 26  0  0  0  0  0  0  0  0999 V2000
    6.5750   -6.4542    0.0000 N   0  0  3  0  0  0  0  0  0  0  0  0
    5.7750   -6.2750    0.0000 C   0  0  0  0  0  0  0  0  0  0  0  0
    5.1292   -6.7792    0.0000 C   0  0  0  0  0  0  0  0  0  0  0  0
    6.9292   -7.1917    0.0000 C   0  0  0  0  0  0  0  0  0  0  0  0
    7.9042   -5.9375    0.0000 C   0  0  0  0  0  0  0  0  0  0  0  0
    7.0875   -5.8125    0.0000 C   0  0  0  0  0  0  0  0  0  0  0  0
    5.7667   -8.1250    0.0000 O   0  0  0  0  0  0  0  0  0  0  0  0
    8.4167   -5.2917    0.0000 N   0  0  0  0  0  0  0  0  0  0  0  0
    5.1250   -7.6042    0.0000 C   0  0  0  0  0  0  0  0  0  0  0  0
    9.2292   -5.4167    0.0000 C   0  0  0  0  0  0  0  0  0  0  0  0
    5.5917   -5.4667    0.0000 O   0  0  0  0  0  0  0  0  0  0  0  0
    6.5667   -7.9417    0.0000 C   0  0  0  0  0  0  0  0  0  0  0  0
    7.7542   -7.1917    0.0000 O   0  0  0  0  0  0  0  0  0  0  0  0
    8.2042   -6.7042    0.0000 O   0  0  0  0  0  0  0  0  0  0  0  0
    9.7417   -4.7667    0.0000 C   0  0  0  0  0  0  0  0  0  0  0  0
    4.4125   -6.3667    0.0000 C   0  0  0  0  0  0  0  0  0  0  0  0
    9.5292   -6.1792    0.0000 C   0  0  0  0  0  0  0  0  0  0  0  0
    4.4125   -8.0250    0.0000 C   0  0  0  0  0  0  0  0  0  0  0  0
    9.4417   -4.0042    0.0000 C   0  0  0  0  0  0  0  0  0  0  0  0
   10.5542   -4.8917    0.0000 C   0  0  0  0  0  0  0  0  0  0  0  0
    3.7000   -6.7875    0.0000 C   0  0  0  0  0  0  0  0  0  0  0  0
   10.3500   -6.3042    0.0000 C   0  0  0  0  0  0  0  0  0  0  0  0
    3.7000   -7.6125    0.0000 C   0  0  0  0  0  0  0  0  0  0  0  0
   10.8625   -5.6625    0.0000 C   0  0  0  0  0  0  0  0  0  0  0  0
  2  1  1  0  0  0  0
  3  2  1  0  0  0  0
  4  1  1  0  0  0  0
  5  6  1  0  0  0  0
  6  1  1  0  0  0  0
  7 12  1  0  0  0  0
  8  5  1  0  0  0  0
  9  3  1  0  0  0  0
 10  8  1  0  0  0  0
 11  2  2  0  0  0  0
 12  4  1  0  0  0  0
 13  4  2  0  0  0  0
 14  5  2  0  0  0  0
 15 10  1  0  0  0  0
 16  3  2  0  0  0  0
 17 10  2  0  0  0  0
 18  9  2  0  0  0  0
 19 15  1  0  0  0  0
 20 15  2  0  0  0  0
 21 16  1  0  0  0  0
 22 17  1  0  0  0  0
 23 21  2  0  0  0  0
 24 22  2  0  0  0  0
  9  7  1  0  0  0  0
 18 23  1  0  0  0  0
 20 24  1  0  0  0  0
M  END
> <IDNUMBER>
F3323-0590

> <Chemical_Name>
2-(3,5-dioxo-2,3,4,5-tetrahydro-1,4-benzoxazepin-4-yl)-N-(2-methylphenyl)acetamide

> <CAS>
903854-59-1

> <PriceCoeff>
1.00

> <MW>
324.33

> <Description>
solid

> <FSP3>
0.17

> <clogP>
2.11

> <TPSA>
75.71

> <Acceptor>
4

> <Donor>
1

> <RotBonds>
3

> <HAC>
24

> <Collection>
General

$$$$
F2191-0017
  -ISIS-  06222321142D

 15 16  0  0  0  0  0  0  0  0999 V2000
    4.6958   -0.4875    0.0000 C   0  0  0  0  0  0  0  0  0  0  0  0
    3.9833   -0.9042    0.0000 C   0  0  0  0  0  0  0  0  0  0  0  0
    3.2667   -0.4917    0.0000 C   0  0  0  0  0  0  0  0  0  0  0  0
    2.5542   -0.9083    0.0000 C   0  0  0  0  0  0  0  0  0  0  0  0
    2.5542   -1.7333    0.0000 C   0  0  0  0  0  0  0  0  0  0  0  0
    4.6917    0.3375    0.0000 O   0  0  0  0  0  0  0  0  0  0  0  0
    1.8417   -2.1458    0.0000 C   0  0  0  0  0  0  0  0  0  0  0  0
    3.9833   -1.7333    0.0000 C   0  0  0  0  0  0  0  0  0  0  0  0
    3.2667   -2.1458    0.0000 C   0  0  0  0  0  0  0  0  0  0  0  0
    1.8417   -0.4958    0.0000 C   0  0  0  0  0  0  0  0  0  0  0  0
    1.1292   -1.7333    0.0000 C   0  0  0  0  0  0  0  0  0  0  0  0
    5.4125   -0.8958    0.0000 O   0  0  0  0  0  0  0  0  0  0  0  0
    1.1292   -0.9083    0.0000 C   0  0  0  0  0  0  0  0  0  0  0  0
    0.4167   -2.1458    0.0000 O   0  0  0  0  0  0  0  0  0  0  0  0
    0.4208   -2.9708    0.0000 C   0  0  0  0  0  0  0  0  0  0  0  0
  2  1  1  0  0  0  0
  3  2  2  0  0  0  0
  4  3  1  0  0  0  0
  5  9  1  0  0  0  0
  6  1  2  0  0  0  0
  7  5  2  0  0  0  0
  8  2  1  0  0  0  0
  9  8  2  0  0  0  0
 10  4  2  0  0  0  0
 11  7  1  0  0  0  0
 12  1  1  0  0  0  0
 13 10  1  0  0  0  0
 14 11  1  0  0  0  0
 15 14  1  0  0  0  0
  4  5  1  0  0  0  0
 11 13  2  0  0  0  0
M  END
> <IDNUMBER>
F2191-0017

> <Chemical_Name>
6-methoxynaphthalene-2-carboxylic acid

> <CAS>
2471-70-7

> <PriceCoeff>
1.00

> <MW>
202.21

> <Description>
solid

> <FSP3>
0.08

> <clogP>
3.14

> <TPSA>
46.53

> <Acceptor>
3

> <Donor>
0

> <RotBonds>
2

> <HAC>
15

> <Collection>
General

> <Reference_compound>
CHEMBL21932

> <Similarity>
0.8870

$$$$
F2668-0038
  -ISIS-  06222321152D

 24 27  0  0  0  0  0  0  0  0999 V2000
   -3.8625    7.4417    0.0000 N   0  0  3  0  0  0  0  0  0  0  0  0
   -3.8625    6.6917    0.0000 C   0  0  0  0  0  0  0  0  0  0  0  0
   -4.5208    6.3167    0.0000 C   0  0  0  0  0  0  0  0  0  0  0  0
   -4.5083    7.8167    0.0000 C   0  0  0  0  0  0  0  0  0  0  0  0
   -3.2208    6.3167    0.0000 C   0  0  0  0  0  0  0  0  0  0  0  0
   -4.5083    4.0667    0.0000 C   0  0  0  0  0  0  0  0  0  0  0  0
   -3.8625    4.4417    0.0000 N   0  0  0  0  0  0  0  0  0  0  0  0
   -3.8625    5.1917    0.0000 C   0  0  0  0  0  0  0  0  0  0  0  0
   -4.5208    5.5667    0.0000 C   0  0  0  0  0  0  0  0  0  0  0  0
   -3.2208    5.5667    0.0000 C   0  0  0  0  0  0  0  0  0  0  0  0
   -4.5083    3.3208    0.0000 C   0  0  0  0  0  0  0  0  0  0  0  0
   -5.1625    6.6917    0.0000 C   0  0  0  0  0  0  0  0  0  0  0  0
   -5.1625    7.4417    0.0000 C   0  0  0  0  0  0  0  0  0  0  0  0
   -5.1583    4.4417    0.0000 O   0  0  0  0  0  0  0  0  0  0  0  0
   -4.5000    8.5667    0.0000 O   0  0  0  0  0  0  0  0  0  0  0  0
   -3.8625    2.9458    0.0000 C   0  0  0  0  0  0  0  0  0  0  0  0
   -5.1583    2.9458    0.0000 C   0  0  0  0  0  0  0  0  0  0  0  0
   -3.2208    7.8167    0.0000 C   0  0  0  0  0  0  0  0  0  0  0  0
   -4.5083    1.8208    0.0000 C   0  0  0  0  0  0  0  0  0  0  0  0
   -5.1583    2.1958    0.0000 C   0  0  0  0  0  0  0  0  0  0  0  0
   -3.8625    2.1958    0.0000 C   0  0  0  0  0  0  0  0  0  0  0  0
   -2.5708    6.6917    0.0000 C   0  0  0  0  0  0  0  0  0  0  0  0
   -4.5083    1.0708    0.0000 Cl  0  0  0  0  0  0  0  0  0  0  0  0
   -2.5708    7.4417    0.0000 C   0  0  0  0  0  0  0  0  0  0  0  0
  2  1  1  0  0  0  0
  3  2  1  0  0  0  0
  4  1  1  0  0  0  0
  5  2  2  0  0  0  0
  6  7  1  0  0  0  0
  7  8  1  0  0  0  0
  8 10  2  0  0  0  0
  9  3  2  0  0  0  0
 10  5  1  0  0  0  0
 11  6  1  0  0  0  0
 12 13  1  0  0  0  0
 13  4  1  0  0  0  0
 14  6  2  0  0  0  0
 15  4  2  0  0  0  0
 16 11  1  0  0  0  0
 17 11  2  0  0  0  0
 18  1  1  0  0  0  0
 19 20  2  0  0  0  0
 20 17  1  0  0  0  0
 21 16  2  0  0  0  0
 22 24  1  0  0  0  0
 23 19  1  0  0  0  0
 24 18  1  0  0  0  0
 22  5  1  0  0  0  0
 12  3  1  0  0  0  0
  8  9  1  0  0  0  0
 19 21  1  0  0  0  0
M  END
> <IDNUMBER>
F2668-0038

> <Chemical_Name>
4-chloro-N-{2-oxo-1-azatricyclo[7.3.1.0^{5,13}]trideca-5,7,9(13)-trien-7-yl}benzamide

> <CAS>
898411-92-2

> <PriceCoeff>
1.00

> <MW>
340.80

> <Description>
solid

> <FSP3>
0.26

> <clogP>
3.48

> <TPSA>
49.41

> <Acceptor>
2

> <Donor>
1

> <RotBonds>
2

> <HAC>
24

> <Collection>
General

> <Reference_compound>
CHEMBL2286415

> <Similarity>
0.8010

$$$$
F2106-0149
  -ISIS-  06222321462D

 12 13  0  0  0  0  0  0  0  0999 V2000
    2.1292   -1.7375    0.0000 C   0  0  0  0  0  0  0  0  0  0  0  0
    2.8542   -2.1500    0.0000 C   0  0  0  0  0  0  0  0  0  0  0  0
    2.1417   -0.9042    0.0000 C   0  0  0  0  0  0  0  0  0  0  0  0
    3.5792   -1.7375    0.0000 C   0  0  0  0  0  0  0  0  0  0  0  0
    3.5792   -0.9042    0.0000 C   0  0  0  0  0  0  0  0  0  0  0  0
    2.8542   -0.4792    0.0000 O   0  0  0  0  0  0  0  0  0  0  0  0
    1.4250   -2.1417    0.0000 C   0  0  0  0  0  0  0  0  0  0  0  0
    2.8542   -2.9750    0.0000 O   0  0  0  0  0  0  0  0  0  0  0  0
    1.4250   -0.4917    0.0000 C   0  0  0  0  0  0  0  0  0  0  0  0
    0.7125   -1.7292    0.0000 C   0  0  0  0  0  0  0  0  0  0  0  0
   -0.0083   -2.1417    0.0000 N   0  0  0  0  0  0  0  0  0  0  0  0
    0.7125   -0.9042    0.0000 C   0  0  0  0  0  0  0  0  0  0  0  0
  2  1  1  0  0  0  0
  3  1  1  0  0  0  0
  4  2  1  0  0  0  0
  5  6  1  0  0  0  0
  6  3  1  0  0  0  0
  7  1  2  0  0  0  0
  8  2  2  0  0  0  0
  9  3  2  0  0  0  0
 10  7  1  0  0  0  0
 11 10  1  0  0  0  0
 12 10  2  0  0  0  0
  9 12  1  0  0  0  0
  4  5  2  0  0  0  0
M  END
> <IDNUMBER>
F2106-0149

> <Chemical_Name>
6-amino-4H-chromen-4-one

> <CAS>
98589-40-3

> <PriceCoeff>
1.50

> <MW>
161.16

> <Description>
solid

> <FSP3>
0.00

> <clogP>
0.53

> <TPSA>
52.32

> <Acceptor>
3

> <Donor>
1

> <RotBonds>
0

> <HAC>
12

> <Collection>
Advanced

> <Reference_compound>
CHEMBL13311

> <Similarity>
0.8810

$$$$
F5791-0108
  -ISIS-  06222321462D

 22 24  0  0  0  0  0  0  0  0999 V2000
    3.8292   -5.5375    0.0000 N   0  0  3  0  0  0  0  0  0  0  0  0
    3.7500   -4.7125    0.0000 C   0  0  0  0  0  0  0  0  0  0  0  0
    3.0667   -5.8625    0.0000 C   0  0  0  0  0  0  0  0  0  0  0  0
    7.4292   -5.9667    0.0000 C   0  0  0  0  0  0  0  0  0  0  0  0
    8.8625   -5.9792    0.0000 N   0  0  0  0  0  0  0  0  0  0  0  0
    5.2667   -5.5417    0.0000 C   0  0  0  0  0  0  0  0  0  0  0  0
    6.7042   -5.5500    0.0000 C   0  0  0  0  0  0  0  0  0  0  0  0
    8.1500   -5.5625    0.0000 C   0  0  0  0  0  0  0  0  0  0  0  0
    5.9792   -5.9625    0.0000 N   0  0  0  0  0  0  0  0  0  0  0  0
    4.5417   -5.9542    0.0000 C   0  0  0  0  0  0  0  0  0  0  0  0
    7.4167   -6.7917    0.0000 C   0  0  0  0  0  0  0  0  0  0  0  0
    2.9417   -4.5292    0.0000 C   0  0  0  0  0  0  0  0  0  0  0  0
    2.5250   -5.2375    0.0000 C   0  0  0  0  0  0  0  0  0  0  0  0
    4.3667   -4.1542    0.0000 O   0  0  0  0  0  0  0  0  0  0  0  0
    2.8917   -6.6792    0.0000 O   0  0  0  0  0  0  0  0  0  0  0  0
    5.2667   -4.7125    0.0000 O   0  0  0  0  0  0  0  0  0  0  0  0
    8.8542   -6.8042    0.0000 C   0  0  0  0  0  0  0  0  0  0  0  0
    8.1292   -7.2167    0.0000 C   0  0  0  0  0  0  0  0  0  0  0  0
    6.7042   -4.7167    0.0000 C   0  0  0  0  0  0  0  0  0  0  0  0
    8.1500   -4.7250    0.0000 C   0  0  0  0  0  0  0  0  0  0  0  0
    7.4292   -4.3042    0.0000 C   0  0  0  0  0  0  0  0  0  0  0  0
    9.5750   -7.2250    0.0000 C   0  0  0  0  0  0  0  0  0  0  0  0
  2  1  1  0  0  0  0
  3  1  1  0  0  0  0
  4  7  2  0  0  0  0
  5  8  1  0  0  0  0
  6 10  1  0  0  0  0
  7  9  1  0  0  0  0
  8  4  1  0  0  0  0
  9  6  1  0  0  0  0
 10  1  1  0  0  0  0
 11  4  1  0  0  0  0
 12  2  1  0  0  0  0
 13  3  1  0  0  0  0
 14  2  2  0  0  0  0
 15  3  2  0  0  0  0
 16  6  2  0  0  0  0
 17 18  1  0  0  0  0
 18 11  2  0  0  0  0
 19  7  1  0  0  0  0
 20 21  1  0  0  0  0
 21 19  2  0  0  0  0
 22 17  1  0  0  0  0
 13 12  1  0  0  0  0
 20  8  2  0  0  0  0
  5 17  2  0  0  0  0
M  END
> <IDNUMBER>
F5791-0108

> <Chemical_Name>
2-(2,5-dioxopyrrolidin-1-yl)-N-(2-methylquinolin-5-yl)acetamide

> <CAS>
1207008-59-0

> <PriceCoeff>
1.50

> <MW>
297.31

> <Description>
solid

> <FSP3>
0.25

> <clogP>
1.62

> <TPSA>
79.37

> <Acceptor>
4

> <Donor>
2

> <RotBonds>
3

> <HAC>
22

> <Collection>
Advanced

$$$$
F6414-3168
  -ISIS-  06222321462D

 25 26  0  0  0  0  0  0  0  0999 V2000
   -2.4375    6.6917    0.0000 C   0  0  0  0  0  0  0  0  0  0  0  0
   -3.1583    6.2667    0.0000 C   0  0  0  0  0  0  0  0  0  0  0  0
   -2.4375    7.5167    0.0000 C   0  0  0  0  0  0  0  0  0  0  0  0
   -4.5833    3.8000    0.0000 C   0  0  0  0  0  0  0  0  0  0  0  0
   -3.8625    4.2125    0.0000 N   0  0  0  0  0  0  0  0  0  0  0  0
   -3.1500    7.9292    0.0000 C   0  0  0  0  0  0  0  0  0  0  0  0
   -3.8750    6.6875    0.0000 C   0  0  0  0  0  0  0  0  0  0  0  0
   -5.2833    4.2042    0.0000 O   0  0  0  0  0  0  0  0  0  0  0  0
   -3.8625    5.0292    0.0000 C   0  0  0  0  0  0  0  0  0  0  0  0
   -3.8708    7.5167    0.0000 C   0  0  0  0  0  0  0  0  0  0  0  0
   -3.1500    5.4500    0.0000 C   0  0  3  0  0  0  0  0  0  0  0  0
   -5.2833    2.5500    0.0000 O   0  0  0  0  0  0  0  0  0  0  0  0
   -4.5833    2.9625    0.0000 C   0  0  0  0  0  0  0  0  0  0  0  0
   -5.2708    1.7333    0.0000 C   0  0  0  0  0  0  0  0  0  0  0  0
   -5.2708    0.0750    0.0000 C   0  0  0  0  0  0  0  0  0  0  0  0
   -1.7208    7.9250    0.0000 O   0  0  0  0  0  0  0  0  0  0  0  0
   -5.2667   -0.7625    0.0000 Cl  0  0  0  0  0  0  0  0  0  0  0  0
   -5.9875    1.3083    0.0000 C   0  0  0  0  0  0  0  0  0  0  0  0
   -4.5625    1.3208    0.0000 C   0  0  0  0  0  0  0  0  0  0  0  0
   -3.1583    8.7583    0.0000 O   0  0  0  0  0  0  0  0  0  0  0  0
   -4.5583    0.4875    0.0000 C   0  0  0  0  0  0  0  0  0  0  0  0
   -5.9750    0.4833    0.0000 C   0  0  0  0  0  0  0  0  0  0  0  0
   -2.4333    5.0417    0.0000 O   0  0  0  0  0  0  0  0  0  0  0  0
   -1.7125    8.7542    0.0000 C   0  0  0  0  0  0  0  0  0  0  0  0
   -2.4250    9.1667    0.0000 C   0  0  0  0  0  0  0  0  0  0  0  0
  2  1  2  0  0  0  0
  3  1  1  0  0  0  0
  4  5  1  0  0  0  0
  5  9  1  0  0  0  0
  6  3  2  0  0  0  0
  7  2  1  0  0  0  0
  8  4  2  0  0  0  0
  9 11  1  0  0  0  0
 10  6  1  0  0  0  0
 11  2  1  0  0  0  0
 12 13  1  0  0  0  0
 13  4  1  0  0  0  0
 14 12  1  0  0  0  0
 15 21  1  0  0  0  0
 16  3  1  0  0  0  0
 17 15  1  0  0  0  0
 18 14  2  0  0  0  0
 19 14  1  0  0  0  0
 20  6  1  0  0  0  0
 21 19  2  0  0  0  0
 22 18  1  0  0  0  0
 23 11  1  0  0  0  0
 24 16  1  0  0  0  0
 25 20  1  0  0  0  0
  7 10  2  0  0  0  0
 22 15  2  0  0  0  0
M  END
> <IDNUMBER>
F6414-3168

> <Chemical_Name>
2-(4-chlorophenoxy)-N-[2-(3,4-dimethoxyphenyl)-2-hydroxyethyl]acetamide

> <CAS>
1797142-23-4

> <PriceCoeff>
1.00

> <MW>
365.81

> <Description>
solid

> <FSP3>
0.28

> <clogP>
2.58

> <TPSA>
77.02

> <Acceptor>
5

> <Donor>
2

> <RotBonds>
8

> <HAC>
25

> <Collection>
General

> <Reference_compound>
CHEMBL552027

> <Similarity>
0.8460

$$$$
F0412-0104
  -ISIS-  06222321142D

 24 27  0  0  0  0  0  0  0  0999 V2000
   -2.5458    2.1208    0.0000 N   0  0  3  0  0  0  0  0  0  0  0  0
   -0.3958    2.8125    0.0000 N   0  0  3  0  0  0  0  0  0  0  0  0
   -2.1333    1.8500    0.0000 C   0  0  0  0  0  0  0  0  0  0  0  0
    0.0542    2.5708    0.0000 C   0  0  0  0  0  0  0  0  0  0  0  0
   -0.3125    3.2958    0.0000 C   0  0  0  0  0  0  0  0  0  0  0  0
   -3.0125    1.9458    0.0000 C   0  0  0  0  0  0  0  0  0  0  0  0
   -2.5833    2.6458    0.0000 C   0  0  0  0  0  0  0  0  0  0  0  0
   -0.8333    2.5708    0.0000 C   0  0  0  0  0  0  0  0  0  0  0  0
   -1.7125    2.0958    0.0000 C   0  0  0  0  0  0  0  0  0  0  0  0
   -2.1500    1.3500    0.0000 O   0  0  0  0  0  0  0  0  0  0  0  0
   -3.3333    2.3208    0.0000 C   0  0  0  0  0  0  0  0  0  0  0  0
    0.1792    3.3583    0.0000 C   0  0  0  0  0  0  0  0  0  0  0  0
    0.4000    2.9333    0.0000 C   0  0  0  0  0  0  0  0  0  0  0  0
    0.1542    2.0708    0.0000 O   0  0  0  0  0  0  0  0  0  0  0  0
   -0.6500    3.6500    0.0000 O   0  0  0  0  0  0  0  0  0  0  0  0
   -3.0708    2.7458    0.0000 C   0  0  0  0  0  0  0  0  0  0  0  0
   -1.2708    2.8333    0.0000 C   0  0  0  0  0  0  0  0  0  0  0  0
   -0.8500    2.0708    0.0000 C   0  0  0  0  0  0  0  0  0  0  0  0
   -1.6958    2.5958    0.0000 C   0  0  0  0  0  0  0  0  0  0  0  0
   -1.2708    1.8333    0.0000 C   0  0  0  0  0  0  0  0  0  0  0  0
   -3.1958    1.4500    0.0000 C   0  0  0  0  0  0  0  0  0  0  0  0
   -3.8500    2.2458    0.0000 C   0  0  0  0  0  0  0  0  0  0  0  0
   -3.7000    1.3708    0.0000 C   0  0  0  0  0  0  0  0  0  0  0  0
   -4.0208    1.7708    0.0000 C   0  0  0  0  0  0  0  0  0  0  0  0
  2  8  1  0  0  0  0
  3  1  1  0  0  0  0
  4  2  1  0  0  0  0
  5  2  1  0  0  0  0
  6  1  1  0  0  0  0
  7  1  1  0  0  0  0
  8 18  2  0  0  0  0
  9  3  1  0  0  0  0
 10  3  2  0  0  0  0
 11  6  2  0  0  0  0
 12  5  1  0  0  0  0
 13  4  1  0  0  0  0
 14  4  2  0  0  0  0
 15  5  2  0  0  0  0
 16  7  1  0  0  0  0
 17 19  2  0  0  0  0
 18 20  1  0  0  0  0
 19  9  1  0  0  0  0
 20  9  2  0  0  0  0
 21  6  1  0  0  0  0
 22 11  1  0  0  0  0
 23 21  2  0  0  0  0
 24 23  1  0  0  0  0
 16 11  1  0  0  0  0
 22 24  2  0  0  0  0
 17  8  1  0  0  0  0
 12 13  1  0  0  0  0
M  END
> <IDNUMBER>
F0412-0104

> <Chemical_Name>
1-[4-(2,3-dihydro-1H-indole-1-carbonyl)phenyl]pyrrolidine-2,5-dione

> <CAS>
392289-97-3

> <PriceCoeff>
1.00

> <MW>
320.34

> <Description>
solid

> <FSP3>
0.21

> <clogP>
0.96

> <TPSA>
57.69

> <Acceptor>
3

> <Donor>
0

> <RotBonds>
3

> <HAC>
24

> <Collection>
General

$$$$
F1800-0178
  -ISIS-  06222321142D

 21 22  0  0  0  0  0  0  0  0999 V2000
   -3.7250    2.3000    0.0000 N   0  0  3  0  0  0  0  0  0  0  0  0
   -3.3500    2.9583    0.0000 C   0  0  0  0  0  0  0  0  0  0  0  0
   -3.3500    1.6583    0.0000 C   0  0  0  0  0  0  0  0  0  0  0  0
   -2.2250    2.3000    0.0000 S   0  0  0  0  0  0  0  0  0  0  0  0
   -4.8500    2.9458    0.0000 C   0  0  0  0  0  0  0  0  0  0  0  0
   -4.4750    2.3000    0.0000 C   0  0  0  0  0  0  0  0  0  0  0  0
   -2.6000    2.9583    0.0000 C   0  0  3  0  0  0  0  0  0  0  0  0
   -7.0917    4.2292    0.0000 C   0  0  0  0  0  0  0  0  0  0  0  0
   -6.7167    3.5958    0.0000 C   0  0  0  0  0  0  0  0  0  0  0  0
   -5.6000    2.9458    0.0000 N   0  0  0  0  0  0  0  0  0  0  0  0
   -2.6000    1.6583    0.0000 C   0  0  0  0  0  0  0  0  0  0  0  0
   -3.7333    3.6083    0.0000 O   0  0  0  0  0  0  0  0  0  0  0  0
   -5.9750    3.5958    0.0000 C   0  0  0  0  0  0  0  0  0  0  0  0
   -6.7167    4.8917    0.0000 C   0  0  0  0  0  0  0  0  0  0  0  0
   -3.7333    1.0000    0.0000 O   0  0  0  0  0  0  0  0  0  0  0  0
   -4.4750    3.5958    0.0000 O   0  0  0  0  0  0  0  0  0  0  0  0
   -5.9750    4.8917    0.0000 C   0  0  0  0  0  0  0  0  0  0  0  0
   -7.8417    4.2292    0.0000 Cl  0  0  0  0  0  0  0  0  0  0  0  0
   -5.6000    4.2417    0.0000 C   0  0  0  0  0  0  0  0  0  0  0  0
   -7.0917    5.5417    0.0000 Cl  0  0  0  0  0  0  0  0  0  0  0  0
   -2.2208    3.6083    0.0000 C   0  0  0  0  0  0  0  0  0  0  0  0
  2  1  1  0  0  0  0
  3  1  1  0  0  0  0
  4 11  1  0  0  0  0
  5  6  1  0  0  0  0
  6  1  1  0  0  0  0
  7  2  1  0  0  0  0
  8  9  1  0  0  0  0
  9 13  2  0  0  0  0
 10  5  1  0  0  0  0
 11  3  1  0  0  0  0
 12  2  2  0  0  0  0
 13 10  1  0  0  0  0
 14 17  1  0  0  0  0
 15  3  2  0  0  0  0
 16  5  2  0  0  0  0
 17 19  2  0  0  0  0
 18  8  1  0  0  0  0
 19 13  1  0  0  0  0
 20 14  1  0  0  0  0
 21  7  1  0  0  0  0
  7  4  1  0  0  0  0
 14  8  2  0  0  0  0
M  END
> <IDNUMBER>
F1800-0178

> <Chemical_Name>
N-(3,4-dichlorophenyl)-2-(2-methyl-3,5-dioxothiomorpholin-4-yl)acetamide

> <CAS>
868215-99-0

> <PriceCoeff>
1.00

> <MW>
347.22

> <Description>
solid

> <FSP3>
0.31

> <clogP>
3.62

> <TPSA>
91.78

> <Acceptor>
3

> <Donor>
1

> <RotBonds>
3

> <HAC>
21

> <Collection>
General

$$$$
F6401-0082
  -ISIS-  06222321442D

 22 24  0  0  0  0  0  0  0  0999 V2000
    3.6417   -0.9875    0.0000 N   0  0  3  0  0  0  0  0  0  0  0  0
    4.0500   -0.0667    0.0000 C   0  0  0  0  0  0  0  0  0  0  0  0
    2.6500   -1.0917    0.0000 C   0  0  0  0  0  0  0  0  0  0  0  0
    4.3542   -1.9542    0.0000 C   0  0  0  0  0  0  0  0  0  0  0  0
    5.3500   -1.8417    0.0000 C   0  0  0  0  0  0  0  0  0  0  0  0
    2.4667    0.6333    0.0000 C   0  0  3  0  0  0  0  0  0  0  0  0
    1.8792    1.4375    0.0000 C   0  0  0  0  0  0  0  0  0  0  0  0
    3.4625    0.7333    0.0000 C   0  0  0  0  0  0  0  0  0  0  0  0
    2.0625   -0.2792    0.0000 C   0  0  0  0  0  0  0  0  0  0  0  0
    2.1875    2.3958    0.0000 S   0  0  0  0  0  0  0  0  0  0  0  0
    5.9417   -2.6542    0.0000 C   0  0  0  0  0  0  0  0  0  0  0  0
    2.2417   -2.0042    0.0000 O   0  0  0  0  0  0  0  0  0  0  0  0
    4.6417   -0.0000    0.0000 O   0  0  0  0  0  0  0  0  0  0  0  0
    5.7500   -0.9375    0.0000 C   0  0  0  0  0  0  0  0  0  0  0  0
    0.8792    1.4375    0.0000 C   0  0  0  0  0  0  0  0  0  0  0  0
    1.3792    2.9792    0.0000 C   0  0  0  0  0  0  0  0  0  0  0  0
    0.5667    2.3958    0.0000 C   0  0  0  0  0  0  0  0  0  0  0  0
    6.9292   -2.5417    0.0000 C   0  0  0  0  0  0  0  0  0  0  0  0
    6.7417   -0.8250    0.0000 C   0  0  0  0  0  0  0  0  0  0  0  0
    5.5375   -3.5667    0.0000 F   0  0  0  0  0  0  0  0  0  0  0  0
    7.3375   -1.6250    0.0000 C   0  0  0  0  0  0  0  0  0  0  0  0
    7.1417    0.0958    0.0000 F   0  0  0  0  0  0  0  0  0  0  0  0
  2  1  1  0  0  0  0
  3  1  1  0  0  0  0
  4  1  1  0  0  0  0
  5  4  1  0  0  0  0
  6  9  1  0  0  0  0
  7  6  1  0  0  0  0
  8  2  1  0  0  0  0
  9  3  1  0  0  0  0
 10  7  1  0  0  0  0
 11  5  2  0  0  0  0
 12  3  2  0  0  0  0
 13  2  2  0  0  0  0
 14  5  1  0  0  0  0
 15  7  2  0  0  0  0
 16 10  1  0  0  0  0
 17 15  1  0  0  0  0
 18 11  1  0  0  0  0
 19 14  2  0  0  0  0
 20 11  1  0  0  0  0
 21 19  1  0  0  0  0
 22 19  1  0  0  0  0
  8  6  1  0  0  0  0
 21 18  2  0  0  0  0
 16 17  2  0  0  0  0
M  END
> <IDNUMBER>
F6401-0082

> <Chemical_Name>
1-[(2,5-difluorophenyl)methyl]-4-(thiophen-2-yl)piperidine-2,6-dione

> <CAS>
1396849-53-8

> <PriceCoeff>
1.50

> <MW>
321.34

> <Description>
solid

> <FSP3>
0.25

> <clogP>
3.02

> <TPSA>
65.62

> <Acceptor>
2

> <Donor>
0

> <RotBonds>
3

> <HAC>
22

> <Collection>
Advanced

$$$$
F5577-0009
  -ISIS-  06222321462D

 21 23  0  0  0  0  0  0  0  0999 V2000
   -1.0083    2.5583    0.0000 C   0  0  0  0  0  0  0  0  0  0  0  0
   -2.4333    2.5583    0.0000 C   0  0  0  0  0  0  0  0  0  0  0  0
   -1.7208    2.9833    0.0000 C   0  0  0  0  0  0  0  0  0  0  0  0
   -2.4375    1.7333    0.0000 C   0  0  0  0  0  0  0  0  0  0  0  0
   -1.0083    1.7333    0.0000 C   0  0  0  0  0  0  0  0  0  0  0  0
   -1.7208    1.3208    0.0000 N   0  0  3  0  0  0  0  0  0  0  0  0
   -3.1500    1.3208    0.0000 C   0  0  0  0  0  0  0  0  0  0  0  0
   -3.8625    1.7333    0.0000 C   0  0  0  0  0  0  0  0  0  0  0  0
   -3.1500    2.9708    0.0000 C   0  0  0  0  0  0  0  0  0  0  0  0
   -0.2875    2.9708    0.0000 C   0  0  0  0  0  0  0  0  0  0  0  0
   -3.8625    2.5583    0.0000 C   0  0  0  0  0  0  0  0  0  0  0  0
   -4.5833    1.3208    0.0000 N   0  0  3  0  0  0  0  0  0  0  0  0
   -1.7208    3.8000    0.0000 O   0  0  0  0  0  0  0  0  0  0  0  0
   -0.2875    3.7958    0.0000 O   0  0  0  0  0  0  0  0  0  0  0  0
   -4.5833    2.9708    0.0000 F   0  0  0  0  0  0  0  0  0  0  0  0
    0.4250    2.5583    0.0000 O   0  0  0  0  0  0  0  0  0  0  0  0
   -1.7250    0.4958    0.0000 C   0  0  0  0  0  0  0  0  0  0  0  0
   -4.6625    0.4958    0.0000 C   0  0  0  0  0  0  0  0  0  0  0  0
   -5.3333    1.6583    0.0000 C   0  0  0  0  0  0  0  0  0  0  0  0
   -5.8833    1.0375    0.0000 C   0  0  0  0  0  0  0  0  0  0  0  0
   -5.4708    0.3250    0.0000 C   0  0  0  0  0  0  0  0  0  0  0  0
  2  3  1  0  0  0  0
  3  1  1  0  0  0  0
  4  6  1  0  0  0  0
  5  1  2  0  0  0  0
  6  5  1  0  0  0  0
  7  4  2  0  0  0  0
  8  7  1  0  0  0  0
  9  2  2  0  0  0  0
 10  1  1  0  0  0  0
 11  9  1  0  0  0  0
 12  8  1  0  0  0  0
 13  3  2  0  0  0  0
 14 10  2  0  0  0  0
 15 11  1  0  0  0  0
 16 10  1  0  0  0  0
 17  6  1  0  0  0  0
 18 12  1  0  0  0  0
 19 12  1  0  0  0  0
 20 19  1  0  0  0  0
 21 18  1  0  0  0  0
  4  2  1  0  0  0  0
  8 11  2  0  0  0  0
 21 20  1  0  0  0  0
M  END
> <IDNUMBER>
F5577-0009

> <Chemical_Name>
6-fluoro-1-methyl-4-oxo-7-(pyrrolidin-1-yl)-1,4-dihydroquinoline-3-carboxylic acid

> <CAS>
1291486-62-8

> <PriceCoeff>
1.00

> <MW>
290.29

> <Description>
solid

> <FSP3>
0.33

> <clogP>
1.80

> <TPSA>
60.85

> <Acceptor>
5

> <Donor>
2

> <RotBonds>
2

> <HAC>
21

> <Collection>
General

> <Reference_compound>
CHEMBL8

> <Similarity>
0.8730

$$$$
F1800-0052
  -ISIS-  06222321142D

 20 21  0  0  0  0  0  0  0  0999 V2000
   -3.7583    2.3708    0.0000 N   0  0  3  0  0  0  0  0  0  0  0  0
   -3.3500    1.6500    0.0000 C   0  0  0  0  0  0  0  0  0  0  0  0
   -3.3333    3.0833    0.0000 C   0  0  0  0  0  0  0  0  0  0  0  0
   -4.9958    1.6708    0.0000 C   0  0  0  0  0  0  0  0  0  0  0  0
   -4.5833    2.3750    0.0000 C   0  0  0  0  0  0  0  0  0  0  0  0
   -7.4625    0.2625    0.0000 C   0  0  0  0  0  0  0  0  0  0  0  0
   -7.0417    0.9708    0.0000 C   0  0  0  0  0  0  0  0  0  0  0  0
   -5.8125    1.6833    0.0000 N   0  0  0  0  0  0  0  0  0  0  0  0
   -2.1083    2.3458    0.0000 S   0  0  0  0  0  0  0  0  0  0  0  0
   -6.2167    0.9625    0.0000 C   0  0  0  0  0  0  0  0  0  0  0  0
   -7.0542   -0.4542    0.0000 C   0  0  0  0  0  0  0  0  0  0  0  0
   -3.7708    0.9375    0.0000 O   0  0  0  0  0  0  0  0  0  0  0  0
   -3.7375    3.8000    0.0000 O   0  0  0  0  0  0  0  0  0  0  0  0
   -4.5958    0.9500    0.0000 O   0  0  0  0  0  0  0  0  0  0  0  0
   -6.2292   -0.4667    0.0000 C   0  0  0  0  0  0  0  0  0  0  0  0
   -2.5333    1.6458    0.0000 C   0  0  0  0  0  0  0  0  0  0  0  0
   -2.5083    3.0625    0.0000 C   0  0  0  0  0  0  0  0  0  0  0  0
   -8.2792    0.2708    0.0000 Cl  0  0  0  0  0  0  0  0  0  0  0  0
   -5.8208    0.2458    0.0000 C   0  0  0  0  0  0  0  0  0  0  0  0
   -7.4792   -1.1667    0.0000 Cl  0  0  0  0  0  0  0  0  0  0  0  0
  2  1  1  0  0  0  0
  3  1  1  0  0  0  0
  4  5  1  0  0  0  0
  5  1  1  0  0  0  0
  6  7  1  0  0  0  0
  7 10  2  0  0  0  0
  8  4  1  0  0  0  0
  9 17  1  0  0  0  0
 10  8  1  0  0  0  0
 11 15  1  0  0  0  0
 12  2  2  0  0  0  0
 13  3  2  0  0  0  0
 14  4  2  0  0  0  0
 15 19  2  0  0  0  0
 16  2  1  0  0  0  0
 17  3  1  0  0  0  0
 18  6  1  0  0  0  0
 19 10  1  0  0  0  0
 20 11  1  0  0  0  0
 16  9  1  0  0  0  0
 11  6  2  0  0  0  0
M  END
> <IDNUMBER>
F1800-0052

> <Chemical_Name>
N-(3,4-dichlorophenyl)-2-(3,5-dioxothiomorpholin-4-yl)acetamide

> <CAS>
868215-20-7

> <PriceCoeff>
1.00

> <MW>
333.19

> <Description>
solid

> <FSP3>
0.25

> <clogP>
3.11

> <TPSA>
91.78

> <Acceptor>
3

> <Donor>
1

> <RotBonds>
3

> <HAC>
20

> <Collection>
General

$$$$
F2749-0202
  -ISIS-  06222321152D

 25 27  0  0  0  0  0  0  0  0999 V2000
   -2.3625    1.8250    0.0000 S   0  0  3  0  0  0  0  0  0  0  0  0
   -1.8750    2.5000    0.0000 N   0  0  3  0  0  0  0  0  0  0  0  0
   -2.3708    3.1708    0.0000 C   0  0  0  0  0  0  0  0  0  0  0  0
   -3.1583    2.9125    0.0000 C   0  0  0  0  0  0  0  0  0  0  0  0
   -3.1583    2.0833    0.0000 C   0  0  0  0  0  0  0  0  0  0  0  0
   -1.3625    3.1083    0.0000 C   0  0  0  0  0  0  0  0  0  0  0  0
    1.1042    1.8708    0.0000 C   0  0  0  0  0  0  0  0  0  0  0  0
   -2.0458    1.0583    0.0000 O   0  0  0  0  0  0  0  0  0  0  0  0
   -3.0583    1.3083    0.0000 O   0  0  0  0  0  0  0  0  0  0  0  0
    0.3042    2.0458    0.0000 N   0  0  0  0  0  0  0  0  0  0  0  0
    0.0667    2.8208    0.0000 C   0  0  0  0  0  0  0  0  0  0  0  0
   -0.5583    3.1958    0.0000 C   0  0  0  0  0  0  0  0  0  0  0  0
    1.3500    1.0958    0.0000 C   0  0  0  0  0  0  0  0  0  0  0  0
   -2.0708    3.8000    0.0000 O   0  0  0  0  0  0  0  0  0  0  0  0
    1.6625    2.4708    0.0000 C   0  0  0  0  0  0  0  0  0  0  0  0
    0.3792    3.5083    0.0000 O   0  0  0  0  0  0  0  0  0  0  0  0
    2.4542    2.2958    0.0000 C   0  0  0  0  0  0  0  0  0  0  0  0
    2.1417    0.9125    0.0000 C   0  0  0  0  0  0  0  0  0  0  0  0
   -3.8750    3.3333    0.0000 C   0  0  0  0  0  0  0  0  0  0  0  0
    2.6917    1.5125    0.0000 C   0  0  0  0  0  0  0  0  0  0  0  0
   -3.8750    1.6708    0.0000 C   0  0  0  0  0  0  0  0  0  0  0  0
    2.3792    0.1333    0.0000 Cl  0  0  0  0  0  0  0  0  0  0  0  0
    1.4167    3.2500    0.0000 O   0  0  0  0  0  0  0  0  0  0  0  0
   -4.5833    2.9125    0.0000 C   0  0  0  0  0  0  0  0  0  0  0  0
   -4.5833    2.0833    0.0000 C   0  0  0  0  0  0  0  0  0  0  0  0
  2  1  1  0  0  0  0
  3  2  1  0  0  0  0
  4  5  2  0  0  0  0
  5  1  1  0  0  0  0
  6  2  1  0  0  0  0
  7 10  1  0  0  0  0
  8  1  2  0  0  0  0
  9  1  2  0  0  0  0
 10 11  1  0  0  0  0
 11 12  1  0  0  0  0
 12  6  1  0  0  0  0
 13  7  2  0  0  0  0
 14  3  2  0  0  0  0
 15  7  1  0  0  0  0
 16 11  2  0  0  0  0
 17 15  2  0  0  0  0
 18 13  1  0  0  0  0
 19  4  1  0  0  0  0
 20 17  1  0  0  0  0
 21  5  1  0  0  0  0
 22 18  1  0  0  0  0
 23 15  1  0  0  0  0
 24 25  1  0  0  0  0
 25 21  2  0  0  0  0
  3  4  1  0  0  0  0
 24 19  2  0  0  0  0
 18 20  2  0  0  0  0
M  END
> <IDNUMBER>
F2749-0202

> <Chemical_Name>
N-(5-chloro-2-hydroxyphenyl)-3-(1,1,3-trioxo-2,3-dihydro-1lambda6,2-benzothiazol-2-yl)propanamide

> <CAS>
899757-48-3

> <PriceCoeff>
1.00

> <MW>
380.80

> <Description>
solid

> <FSP3>
0.12

> <clogP>
2.47

> <TPSA>
112.16

> <Acceptor>
5

> <Donor>
2

> <RotBonds>
4

> <HAC>
25

> <Collection>
General

$$$$
F3205-0045
  -ISIS-  06222321442D

 23 25  0  0  0  0  0  0  0  0999 V2000
    5.1792   -6.1167    0.0000 N   0  0  3  0  0  0  0  0  0  0  0  0
    5.6750   -6.7875    0.0000 C   0  0  0  0  0  0  0  0  0  0  0  0
    5.6667   -5.4500    0.0000 C   0  0  0  0  0  0  0  0  0  0  0  0
    6.4542   -6.5250    0.0000 C   0  0  3  0  0  0  0  0  0  0  0  0
    6.4542   -5.7000    0.0000 C   0  0  0  0  0  0  0  0  0  0  0  0
   10.0917   -5.6292    0.0000 N   0  0  3  0  0  0  0  0  0  0  0  0
    7.1167   -7.0042    0.0000 N   0  0  0  0  0  0  0  0  0  0  0  0
    9.3417   -5.9792    0.0000 C   0  0  0  0  0  0  0  0  0  0  0  0
    5.4167   -7.5667    0.0000 O   0  0  0  0  0  0  0  0  0  0  0  0
    5.4042   -4.6667    0.0000 O   0  0  0  0  0  0  0  0  0  0  0  0
    4.3625   -6.1250    0.0000 C   0  0  0  0  0  0  0  0  0  0  0  0
    3.9417   -5.4125    0.0000 C   0  0  0  0  0  0  0  0  0  0  0  0
    8.6750   -5.5042    0.0000 C   0  0  0  0  0  0  0  0  0  0  0  0
    9.2667   -6.7917    0.0000 C   0  0  0  0  0  0  0  0  0  0  0  0
    7.8667   -6.6625    0.0000 C   0  0  0  0  0  0  0  0  0  0  0  0
    3.1167   -5.4167    0.0000 C   0  0  0  0  0  0  0  0  0  0  0  0
    7.9292   -5.8500    0.0000 C   0  0  0  0  0  0  0  0  0  0  0  0
    8.5292   -7.1292    0.0000 C   0  0  0  0  0  0  0  0  0  0  0  0
   10.7667   -6.1042    0.0000 C   0  0  0  0  0  0  0  0  0  0  0  0
   10.1625   -4.8042    0.0000 C   0  0  0  0  0  0  0  0  0  0  0  0
   10.9167   -4.4625    0.0000 C   0  0  0  0  0  0  0  0  0  0  0  0
   11.5125   -5.7625    0.0000 C   0  0  0  0  0  0  0  0  0  0  0  0
   11.5917   -4.9417    0.0000 C   0  0  0  0  0  0  0  0  0  0  0  0
  2  1  1  0  0  0  0
  3  1  1  0  0  0  0
  4  2  1  0  0  0  0
  5  3  1  0  0  0  0
  6  8  1  0  0  0  0
  7  4  1  0  0  0  0
  8 14  2  0  0  0  0
  9  2  2  0  0  0  0
 10  3  2  0  0  0  0
 11  1  1  0  0  0  0
 12 11  1  0  0  0  0
 13 17  2  0  0  0  0
 14 18  1  0  0  0  0
 15  7  1  0  0  0  0
 16 12  2  0  0  0  0
 17 15  1  0  0  0  0
 18 15  2  0  0  0  0
 19  6  1  0  0  0  0
 20  6  1  0  0  0  0
 21 20  1  0  0  0  0
 22 19  1  0  0  0  0
 23 21  1  0  0  0  0
  5  4  1  0  0  0  0
  8 13  1  0  0  0  0
 23 22  1  0  0  0  0
M  END
> <IDNUMBER>
F3205-0045

> <Chemical_Name>
3-{[4-(piperidin-1-yl)phenyl]amino}-1-(prop-2-en-1-yl)pyrrolidine-2,5-dione

> <CAS>
1009697-81-7

> <PriceCoeff>
1.00

> <MW>
313.39

> <Description>
solid

> <FSP3>
0.44

> <clogP>
3.27

> <TPSA>
52.65

> <Acceptor>
4

> <Donor>
2

> <RotBonds>
5

> <HAC>
23

> <Collection>
General

$$$$
F3115-0088
  -ISIS-  06222321462D

 26 28  0  0  0  0  0  0  0  0999 V2000
    4.3625   -1.6625    0.0000 N   0  0  3  0  0  0  0  0  0  0  0  0
    4.8542   -2.3292    0.0000 C   0  0  0  0  0  0  0  0  0  0  0  0
    4.8417   -0.9917    0.0000 C   0  0  0  0  0  0  0  0  0  0  0  0
    5.6375   -2.0667    0.0000 C   0  0  3  0  0  0  0  0  0  0  0  0
    5.6292   -1.2417    0.0000 C   0  0  0  0  0  0  0  0  0  0  0  0
    3.5375   -1.6667    0.0000 C   0  0  0  0  0  0  0  0  0  0  0  0
    6.3042   -2.5417    0.0000 N   0  0  3  0  0  0  0  0  0  0  0  0
    7.6375   -3.5167    0.0000 N   0  0  3  0  0  0  0  0  0  0  0  0
    8.3042   -4.0000    0.0000 C   0  0  0  0  0  0  0  0  0  0  0  0
    3.1250   -0.9542    0.0000 C   0  0  0  0  0  0  0  0  0  0  0  0
    4.6000   -3.1125    0.0000 O   0  0  0  0  0  0  0  0  0  0  0  0
    2.3000   -0.9542    0.0000 C   0  0  0  0  0  0  0  0  0  0  0  0
    4.5875   -0.2042    0.0000 O   0  0  0  0  0  0  0  0  0  0  0  0
    7.7167   -2.6917    0.0000 C   0  0  0  0  0  0  0  0  0  0  0  0
    6.8792   -3.8500    0.0000 C   0  0  0  0  0  0  0  0  0  0  0  0
    7.0542   -2.2042    0.0000 C   0  0  0  0  0  0  0  0  0  0  0  0
    6.2167   -3.3667    0.0000 C   0  0  0  0  0  0  0  0  0  0  0  0
    3.1292   -2.3792    0.0000 C   0  0  0  0  0  0  0  0  0  0  0  0
    9.0542   -3.6625    0.0000 O   0  0  0  0  0  0  0  0  0  0  0  0
    1.8917   -1.6750    0.0000 C   0  0  0  0  0  0  0  0  0  0  0  0
    2.3125   -2.3875    0.0000 C   0  0  0  0  0  0  0  0  0  0  0  0
    8.2167   -4.8167    0.0000 O   0  0  0  0  0  0  0  0  0  0  0  0
    1.8792   -0.2417    0.0000 C   0  0  0  0  0  0  0  0  0  0  0  0
    1.0667   -1.6792    0.0000 C   0  0  0  0  0  0  0  0  0  0  0  0
    8.8875   -5.3042    0.0000 C   0  0  0  0  0  0  0  0  0  0  0  0
    8.8042   -6.1250    0.0000 C   0  0  0  0  0  0  0  0  0  0  0  0
  2  1  1  0  0  0  0
  3  1  1  0  0  0  0
  4  2  1  0  0  0  0
  5  3  1  0  0  0  0
  6  1  1  0  0  0  0
  7  4  1  0  0  0  0
  8 15  1  0  0  0  0
  9  8  1  0  0  0  0
 10  6  2  0  0  0  0
 11  2  2  0  0  0  0
 12 10  1  0  0  0  0
 13  3  2  0  0  0  0
 14 16  1  0  0  0  0
 15 17  1  0  0  0  0
 16  7  1  0  0  0  0
 17  7  1  0  0  0  0
 18  6  1  0  0  0  0
 19  9  2  0  0  0  0
 20 21  1  0  0  0  0
 21 18  2  0  0  0  0
 22  9  1  0  0  0  0
 23 12  1  0  0  0  0
 24 20  1  0  0  0  0
 25 22  1  0  0  0  0
 26 25  1  0  0  0  0
  4  5  1  0  0  0  0
 20 12  2  0  0  0  0
  8 14  1  0  0  0  0
M  END
> <IDNUMBER>
F3115-0088

> <Chemical_Name>
ethyl 4-[1-(3,4-dimethylphenyl)-2,5-dioxopyrrolidin-3-yl]piperazine-1-carboxylate

> <CAS>
838885-96-4

> <PriceCoeff>
1.00

> <MW>
359.42

> <Description>
solid

> <FSP3>
0.53

> <clogP>
3.33

> <TPSA>
70.16

> <Acceptor>
4

> <Donor>
1

> <RotBonds>
5

> <HAC>
26

> <Collection>
General

$$$$
F3188-0079
  -ISIS-  06222321462D

 27 29  0  0  0  0  0  0  0  0999 V2000
    4.1542   -7.1917    0.0000 N   0  0  3  0  0  0  0  0  0  0  0  0
    4.6417   -7.8542    0.0000 C   0  0  0  0  0  0  0  0  0  0  0  0
    4.6375   -6.5167    0.0000 C   0  0  0  0  0  0  0  0  0  0  0  0
    5.4292   -7.5917    0.0000 C   0  0  3  0  0  0  0  0  0  0  0  0
    5.4250   -6.7667    0.0000 C   0  0  0  0  0  0  0  0  0  0  0  0
    8.5750   -8.5917    0.0000 C   0  0  0  0  0  0  0  0  0  0  0  0
    7.7875   -8.3417    0.0000 N   0  0  3  0  0  0  0  0  0  0  0  0
    6.2167   -7.8417    0.0000 N   0  0  3  0  0  0  0  0  0  0  0  0
    3.3292   -7.1917    0.0000 C   0  0  0  0  0  0  0  0  0  0  0  0
    8.7500   -9.4000    0.0000 O   0  0  0  0  0  0  0  0  0  0  0  0
    4.3917   -8.6417    0.0000 O   0  0  0  0  0  0  0  0  0  0  0  0
    4.3792   -5.7375    0.0000 O   0  0  0  0  0  0  0  0  0  0  0  0
    9.1792   -8.0375    0.0000 O   0  0  0  0  0  0  0  0  0  0  0  0
    7.1750   -8.9000    0.0000 C   0  0  0  0  0  0  0  0  0  0  0  0
    7.6042   -7.5375    0.0000 C   0  0  0  0  0  0  0  0  0  0  0  0
    6.3917   -8.6500    0.0000 C   0  0  0  0  0  0  0  0  0  0  0  0
    6.8167   -7.2875    0.0000 C   0  0  0  0  0  0  0  0  0  0  0  0
    2.9167   -6.4792    0.0000 C   0  0  0  0  0  0  0  0  0  0  0  0
    9.4625   -9.8125    0.0000 C   0  0  3  0  0  0  0  0  0  0  0  0
    2.9250   -7.9125    0.0000 C   0  0  0  0  0  0  0  0  0  0  0  0
    3.3250   -5.7667    0.0000 C   0  0  0  0  0  0  0  0  0  0  0  0
    9.4542  -10.6375    0.0000 C   0  0  0  0  0  0  0  0  0  0  0  0
   10.1750  -10.2250    0.0000 C   0  0  0  0  0  0  0  0  0  0  0  0
   10.1750   -9.4000    0.0000 C   0  0  0  0  0  0  0  0  0  0  0  0
    2.0917   -6.4875    0.0000 C   0  0  0  0  0  0  0  0  0  0  0  0
    2.1042   -7.9167    0.0000 C   0  0  0  0  0  0  0  0  0  0  0  0
    1.6792   -7.2042    0.0000 C   0  0  0  0  0  0  0  0  0  0  0  0
  2  1  1  0  0  0  0
  3  1  1  0  0  0  0
  4  2  1  0  0  0  0
  5  3  1  0  0  0  0
  6  7  1  0  0  0  0
  7 15  1  0  0  0  0
  8  4  1  0  0  0  0
  9  1  1  0  0  0  0
 10  6  1  0  0  0  0
 11  2  2  0  0  0  0
 12  3  2  0  0  0  0
 13  6  2  0  0  0  0
 14 16  1  0  0  0  0
 15 17  1  0  0  0  0
 16  8  1  0  0  0  0
 17  8  1  0  0  0  0
 18  9  2  0  0  0  0
 19 10  1  0  0  0  0
 20  9  1  0  0  0  0
 21 18  1  0  0  0  0
 22 19  1  0  0  0  0
 23 19  1  0  0  0  0
 24 19  1  0  0  0  0
 25 18  1  0  0  0  0
 26 20  2  0  0  0  0
 27 26  1  0  0  0  0
  4  5  1  0  0  0  0
 27 25  2  0  0  0  0
  7 14  1  0  0  0  0
M  END
> <IDNUMBER>
F3188-0079

> <Chemical_Name>
tert-butyl 4-[1-(2-methylphenyl)-2,5-dioxopyrrolidin-3-yl]piperazine-1-carboxylate

> <CAS>
887847-48-5

> <PriceCoeff>
1.00

> <MW>
373.45

> <Description>
solid

> <FSP3>
0.55

> <clogP>
3.22

> <TPSA>
70.16

> <Acceptor>
4

> <Donor>
1

> <RotBonds>
4

> <HAC>
27

> <Collection>
General

$$$$
F0440-0407
  -ISIS-  06222321142D

 22 23  0  0  0  0  0  0  0  0999 V2000
   -0.9333    0.0958    0.0000 N   0  0  3  0  0  0  0  0  0  0  0  0
   -0.6125    0.2458    0.0000 C   0  0  0  0  0  0  0  0  0  0  0  0
   -0.8958   -0.2292    0.0000 C   0  0  0  0  0  0  0  0  0  0  0  0
   -1.2500    0.5833    0.0000 C   0  0  0  0  0  0  0  0  0  0  0  0
   -1.2333    0.2458    0.0000 C   0  0  0  0  0  0  0  0  0  0  0  0
   -1.6333    2.1208    0.0000 C   0  0  0  0  0  0  0  0  0  0  0  0
   -1.5500    0.7458    0.0000 N   0  0  0  0  0  0  0  0  0  0  0  0
   -1.6125    1.7625    0.0000 C   0  0  0  0  0  0  0  0  0  0  0  0
   -0.3833   -0.0000    0.0000 C   0  0  0  0  0  0  0  0  0  0  0  0
   -0.5500   -0.3000    0.0000 C   0  0  0  0  0  0  0  0  0  0  0  0
   -0.5625    0.6125    0.0000 O   0  0  0  0  0  0  0  0  0  0  0  0
   -1.1625   -0.4542    0.0000 O   0  0  0  0  0  0  0  0  0  0  0  0
   -0.9708    0.7625    0.0000 O   0  0  0  0  0  0  0  0  0  0  0  0
   -1.3500    2.3000    0.0000 O   0  0  0  0  0  0  0  0  0  0  0  0
   -1.9125    1.5833    0.0000 C   0  0  0  0  0  0  0  0  0  0  0  0
   -1.3125    1.6000    0.0000 C   0  0  0  0  0  0  0  0  0  0  0  0
   -1.5708    1.0833    0.0000 C   0  0  0  0  0  0  0  0  0  0  0  0
   -1.9500    2.2833    0.0000 O   0  0  0  0  0  0  0  0  0  0  0  0
   -1.2958    1.2625    0.0000 C   0  0  0  0  0  0  0  0  0  0  0  0
   -1.8958    1.2458    0.0000 C   0  0  0  0  0  0  0  0  0  0  0  0
   -1.9708    2.6208    0.0000 C   0  0  0  0  0  0  0  0  0  0  0  0
   -2.2708    2.7833    0.0000 C   0  0  0  0  0  0  0  0  0  0  0  0
  2  1  1  0  0  0  0
  3  1  1  0  0  0  0
  4  5  1  0  0  0  0
  5  1  1  0  0  0  0
  6  8  1  0  0  0  0
  7  4  1  0  0  0  0
  8 15  1  0  0  0  0
  9  2  1  0  0  0  0
 10  3  1  0  0  0  0
 11  2  2  0  0  0  0
 12  3  2  0  0  0  0
 13  4  2  0  0  0  0
 14  6  2  0  0  0  0
 15 20  2  0  0  0  0
 16 19  1  0  0  0  0
 17  7  1  0  0  0  0
 18  6  1  0  0  0  0
 19 17  2  0  0  0  0
 20 17  1  0  0  0  0
 21 18  1  0  0  0  0
 22 21  1  0  0  0  0
 10  9  1  0  0  0  0
  8 16  2  0  0  0  0
M  END
> <IDNUMBER>
F0440-0407

> <Chemical_Name>
ethyl 4-[2-(2,5-dioxopyrrolidin-1-yl)acetamido]benzoate

> <CAS>
328003-82-3

> <PriceCoeff>
1.00

> <MW>
304.30

> <Description>
solid

> <FSP3>
0.33

> <clogP>
1.58

> <TPSA>
92.78

> <Acceptor>
5

> <Donor>
1

> <RotBonds>
6

> <HAC>
22

> <Collection>
General

$$$$
F1243-0065
  -ISIS-  06222321142D

 18 19  0  0  0  0  0  0  0  0999 V2000
    3.9000   -5.4792    0.0000 N   0  3  0  0  0  0  0  0  0  0  0  0
    7.6042   -4.7792    0.0000 C   0  0  0  0  0  0  0  0  0  0  0  0
    8.4292   -4.7792    0.0000 N   0  0  3  0  0  0  0  0  0  0  0  0
    7.1792   -5.4792    0.0000 O   0  0  0  0  0  0  0  0  0  0  0  0
    4.7292   -5.4792    0.0000 C   0  0  0  0  0  0  0  0  0  0  0  0
    3.4875   -4.7625    0.0000 O   0  5  0  0  0  0  0  0  0  0  0  0
    3.4875   -6.1917    0.0000 O   0  0  0  0  0  0  0  0  0  0  0  0
    7.1792   -4.0542    0.0000 O   0  0  0  0  0  0  0  0  0  0  0  0
    5.1417   -6.1875    0.0000 C   0  0  0  0  0  0  0  0  0  0  0  0
    5.1375   -4.7667    0.0000 C   0  0  0  0  0  0  0  0  0  0  0  0
    6.3625   -5.4792    0.0000 C   0  0  0  0  0  0  0  0  0  0  0  0
    5.9542   -6.1875    0.0000 C   0  0  0  0  0  0  0  0  0  0  0  0
    5.9542   -4.7667    0.0000 C   0  0  0  0  0  0  0  0  0  0  0  0
    8.8542   -5.4917    0.0000 C   0  0  0  0  0  0  0  0  0  0  0  0
    8.8417   -4.0542    0.0000 C   0  0  0  0  0  0  0  0  0  0  0  0
    9.6750   -5.4917    0.0000 C   0  0  0  0  0  0  0  0  0  0  0  0
    9.6750   -4.0542    0.0000 C   0  0  0  0  0  0  0  0  0  0  0  0
   10.0917   -4.7792    0.0000 C   0  0  0  0  0  0  0  0  0  0  0  0
  2  4  1  0  0  0  0
  3  2  1  0  0  0  0
  4 11  1  0  0  0  0
  5  1  1  0  0  0  0
  6  1  1  0  0  0  0
  7  1  2  0  0  0  0
  8  2  2  0  0  0  0
  9  5  1  0  0  0  0
 10  5  2  0  0  0  0
 11 13  2  0  0  0  0
 12  9  2  0  0  0  0
 13 10  1  0  0  0  0
 14  3  1  0  0  0  0
 15  3  1  0  0  0  0
 16 14  1  0  0  0  0
 17 15  1  0  0  0  0
 18 17  1  0  0  0  0
 12 11  1  0  0  0  0
 18 16  1  0  0  0  0
M  CHG  2   1   1   6  -1
M  END
> <IDNUMBER>
F1243-0065

> <Chemical_Name>
4-nitrophenyl piperidine-1-carboxylate

> <CAS>
65815-76-1

> <PriceCoeff>
1.00

> <MW>
250.25

> <Description>
solid

> <FSP3>
0.42

> <clogP>
2.66

> <TPSA>
72.68

> <Acceptor>
4

> <Donor>
0

> <RotBonds>
4

> <HAC>
18

> <Collection>
General

> <Reference_compound>
CHEMBL2288473

> <Similarity>
0.8790

$$$$
F2257-0267
  -ISIS-  06222321442D

 21 23  0  0  0  0  0  0  0  0999 V2000
   -2.8583    7.4917    0.0000 N   0  0  0  0  0  0  0  0  0  0  0  0
   -2.0333    7.5792    0.0000 C   0  0  0  0  0  0  0  0  0  0  0  0
   -3.0375    6.6875    0.0000 C   0  0  0  0  0  0  0  0  0  0  0  0
   -2.3208    6.2667    0.0000 C   0  0  0  0  0  0  0  0  0  0  0  0
   -3.7500    3.8000    0.0000 C   0  0  0  0  0  0  0  0  0  0  0  0
   -1.7083    6.8167    0.0000 C   0  0  0  0  0  0  0  0  0  0  0  0
   -3.0375    4.2125    0.0000 N   0  0  0  0  0  0  0  0  0  0  0  0
   -2.3250    5.4417    0.0000 C   0  0  0  0  0  0  0  0  0  0  0  0
   -3.0375    5.0292    0.0000 C   0  0  0  0  0  0  0  0  0  0  0  0
   -1.6208    8.2917    0.0000 O   0  0  0  0  0  0  0  0  0  0  0  0
   -4.4583    4.2167    0.0000 O   0  0  0  0  0  0  0  0  0  0  0  0
   -3.7583    6.2792    0.0000 C   0  0  0  0  0  0  0  0  0  0  0  0
   -3.7458    2.9708    0.0000 C   0  0  0  0  0  0  0  0  0  0  0  0
   -3.7583    5.4500    0.0000 C   0  0  0  0  0  0  0  0  0  0  0  0
   -4.4458    2.5333    0.0000 C   0  0  0  0  0  0  0  0  0  0  0  0
   -4.4458    1.7208    0.0000 C   0  0  0  0  0  0  0  0  0  0  0  0
   -5.1625    1.3083    0.0000 C   0  0  0  0  0  0  0  0  0  0  0  0
   -3.7250    1.3000    0.0000 C   0  0  0  0  0  0  0  0  0  0  0  0
   -3.7208    0.4708    0.0000 C   0  0  0  0  0  0  0  0  0  0  0  0
   -5.1583    0.4583    0.0000 C   0  0  0  0  0  0  0  0  0  0  0  0
   -4.4583    0.0583    0.0000 C   0  0  0  0  0  0  0  0  0  0  0  0
  2  1  1  0  0  0  0
  3  1  1  0  0  0  0
  4  3  2  0  0  0  0
  5  7  1  0  0  0  0
  6  2  1  0  0  0  0
  7  9  1  0  0  0  0
  8  4  1  0  0  0  0
  9 14  1  0  0  0  0
 10  2  2  0  0  0  0
 11  5  2  0  0  0  0
 12  3  1  0  0  0  0
 13  5  1  0  0  0  0
 14 12  2  0  0  0  0
 15 13  1  0  0  0  0
 16 15  1  0  0  0  0
 17 16  2  0  0  0  0
 18 16  1  0  0  0  0
 19 18  2  0  0  0  0
 20 17  1  0  0  0  0
 21 19  1  0  0  0  0
  4  6  1  0  0  0  0
  9  8  2  0  0  0  0
 21 20  2  0  0  0  0
M  END
> <IDNUMBER>
F2257-0267

> <Chemical_Name>
N-(2-oxo-2,3-dihydro-1H-indol-5-yl)-3-phenylpropanamide

> <CAS>
921774-73-4

> <PriceCoeff>
1.00

> <MW>
280.32

> <Description>
solid

> <FSP3>
0.18

> <clogP>
1.82

> <TPSA>
58.20

> <Acceptor>
2

> <Donor>
2

> <RotBonds>
4

> <HAC>
21

> <Collection>
General

> <Reference_compound>
CHEMBL40823

> <Similarity>
0.8300

$$$$
F0440-0352
  -ISIS-  06222321452D

 22 24  0  0  0  0  0  0  0  0999 V2000
    2.1500    0.4958    0.0000 N   0  0  3  0  0  0  0  0  0  0  0  0
   -0.1458   -0.0500    0.0000 N   0  0  0  0  0  0  0  0  0  0  0  0
    0.2292    0.4958    0.0000 C   0  0  0  0  0  0  0  0  0  0  0  0
   -0.7625    0.1500    0.0000 C   0  0  0  0  0  0  0  0  0  0  0  0
   -1.2458   -0.2542    0.0000 C   0  0  0  0  0  0  0  0  0  0  0  0
   -1.2625   -0.9000    0.0000 S   0  0  0  0  0  0  0  0  0  0  0  0
    0.8667    0.4958    0.0000 N   0  0  0  0  0  0  0  0  0  0  0  0
    2.8000    0.3500    0.0000 C   0  0  0  0  0  0  0  0  0  0  0  0
    1.8500   -0.0542    0.0000 C   0  0  0  0  0  0  0  0  0  0  0  0
   -0.1833    0.9958    0.0000 S   0  0  0  0  0  0  0  0  0  0  0  0
   -1.8833   -1.1000    0.0000 C   0  0  0  0  0  0  0  0  0  0  0  0
   -0.7833    0.7500    0.0000 C   0  0  0  0  0  0  0  0  0  0  0  0
    1.2000    1.0500    0.0000 C   0  0  0  0  0  0  0  0  0  0  0  0
   -1.8625   -0.0500    0.0000 C   0  0  0  0  0  0  0  0  0  0  0  0
    1.8292    1.0500    0.0000 C   0  0  0  0  0  0  0  0  0  0  0  0
   -2.2458   -0.5542    0.0000 C   0  0  0  0  0  0  0  0  0  0  0  0
    2.8667   -0.2792    0.0000 C   0  0  0  0  0  0  0  0  0  0  0  0
    2.3042   -0.5500    0.0000 C   0  0  0  0  0  0  0  0  0  0  0  0
    3.3042    0.7958    0.0000 O   0  0  0  0  0  0  0  0  0  0  0  0
    1.2042   -0.1167    0.0000 O   0  0  0  0  0  0  0  0  0  0  0  0
    0.8500    1.6125    0.0000 O   0  0  0  0  0  0  0  0  0  0  0  0
   -2.1000   -1.7000    0.0000 Cl  0  0  0  0  0  0  0  0  0  0  0  0
  2  3  2  0  0  0  0
  3  7  1  0  0  0  0
  4  2  1  0  0  0  0
  5  4  1  0  0  0  0
  6  5  1  0  0  0  0
  7 13  1  0  0  0  0
  8  1  1  0  0  0  0
  9  1  1  0  0  0  0
 10  3  1  0  0  0  0
 11  6  1  0  0  0  0
 12 10  1  0  0  0  0
 13 15  1  0  0  0  0
 14  5  2  0  0  0  0
 15  1  1  0  0  0  0
 16 14  1  0  0  0  0
 17  8  1  0  0  0  0
 18  9  1  0  0  0  0
 19  8  2  0  0  0  0
 20  9  2  0  0  0  0
 21 13  2  0  0  0  0
 22 11  1  0  0  0  0
 18 17  1  0  0  0  0
 12  4  2  0  0  0  0
 16 11  2  0  0  0  0
M  END
> <IDNUMBER>
F0440-0352

> <Chemical_Name>
N-[4-(5-chlorothiophen-2-yl)-1,3-thiazol-2-yl]-2-(2,5-dioxopyrrolidin-1-yl)acetamide

> <CAS>
392324-77-5

> <PriceCoeff>
1.00

> <MW>
355.82

> <Description>
solid

> <FSP3>
0.23

> <clogP>
2.55

> <TPSA>
135.85

> <Acceptor>
4

> <Donor>
1

> <RotBonds>
4

> <HAC>
22

> <Collection>
General

$$$$
F5854-2938
  -ISIS-  06222321462D

 24 26  0  0  0  0  0  0  0  0999 V2000
   -5.2833    2.5708    0.0000 N   0  0  3  0  0  0  0  0  0  0  0  0
   -4.5708    2.9875    0.0000 C   0  0  0  0  0  0  0  0  0  0  0  0
   -4.5708    3.8000    0.0000 C   0  0  0  0  0  0  0  0  0  0  0  0
   -5.3625    1.7458    0.0000 C   0  0  0  0  0  0  0  0  0  0  0  0
   -6.0292    2.9000    0.0000 C   0  0  0  0  0  0  0  0  0  0  0  0
   -2.4250    4.2042    0.0000 C   0  0  0  0  0  0  0  0  0  0  0  0
   -3.8583    4.2125    0.0000 N   0  0  3  0  0  0  0  0  0  0  0  0
   -1.6833    3.8750    0.0000 N   0  0  3  0  0  0  0  0  0  0  0  0
   -3.1458    3.8083    0.0000 C   0  0  0  0  0  0  0  0  0  0  0  0
   -4.5833    5.4417    0.0000 C   0  0  0  0  0  0  0  0  0  0  0  0
   -5.3333    5.1042    0.0000 S   0  0  0  0  0  0  0  0  0  0  0  0
   -3.8583    5.0292    0.0000 C   0  0  0  0  0  0  0  0  0  0  0  0
   -1.1125    4.4625    0.0000 C   0  0  0  0  0  0  0  0  0  0  0  0
   -2.3333    5.0250    0.0000 C   0  0  0  0  0  0  0  0  0  0  0  0
   -1.5250    5.1667    0.0000 C   0  0  0  0  0  0  0  0  0  0  0  0
   -5.2958    4.2125    0.0000 O   0  0  0  0  0  0  0  0  0  0  0  0
   -6.5750    2.2833    0.0000 C   0  0  0  0  0  0  0  0  0  0  0  0
   -6.1667    1.5708    0.0000 C   0  0  0  0  0  0  0  0  0  0  0  0
   -6.2042    3.7083    0.0000 O   0  0  0  0  0  0  0  0  0  0  0  0
   -4.7458    1.1833    0.0000 O   0  0  0  0  0  0  0  0  0  0  0  0
   -5.8958    5.7167    0.0000 C   0  0  0  0  0  0  0  0  0  0  0  0
   -4.6583    6.2750    0.0000 C   0  0  0  0  0  0  0  0  0  0  0  0
   -5.4708    6.4417    0.0000 C   0  0  0  0  0  0  0  0  0  0  0  0
   -1.5083    3.0583    0.0000 C   0  0  0  0  0  0  0  0  0  0  0  0
  2  1  1  0  0  0  0
  3  2  1  0  0  0  0
  4  1  1  0  0  0  0
  5  1  1  0  0  0  0
  6  9  1  0  0  0  0
  7  3  1  0  0  0  0
  8  6  1  0  0  0  0
  9  7  1  0  0  0  0
 10 12  1  0  0  0  0
 11 10  1  0  0  0  0
 12  7  1  0  0  0  0
 13  8  1  0  0  0  0
 14  6  2  0  0  0  0
 15 14  1  0  0  0  0
 16  3  2  0  0  0  0
 17  5  1  0  0  0  0
 18  4  1  0  0  0  0
 19  5  2  0  0  0  0
 20  4  2  0  0  0  0
 21 11  1  0  0  0  0
 22 10  2  0  0  0  0
 23 22  1  0  0  0  0
 24  8  1  0  0  0  0
 18 17  1  0  0  0  0
 21 23  2  0  0  0  0
 15 13  2  0  0  0  0
M  END
> <IDNUMBER>
F5854-2938

> <Chemical_Name>
2-(2,5-dioxopyrrolidin-1-yl)-N-[(1-methyl-1H-pyrrol-2-yl)methyl]-N-[(thiophen-2-yl)methyl]acetamide

> <CAS>
1286704-02-6

> <PriceCoeff>
1.00

> <MW>
345.42

> <Description>
solid

> <FSP3>
0.35

> <clogP>
1.24

> <TPSA>
90.86

> <Acceptor>
3

> <Donor>
0

> <RotBonds>
7

> <HAC>
24

> <Collection>
General

$$$$
F1374-1139
  -ISIS-  06222321142D

 22 24  0  0  0  0  0  0  0  0999 V2000
   -0.0958    2.2583    0.0000 N   0  0  3  0  0  0  0  0  0  0  0  0
   -3.7958    3.0208    0.0000 C   0  0  0  0  0  0  0  0  0  0  0  0
   -3.1250    2.5333    0.0000 O   0  0  0  0  0  0  0  0  0  0  0  0
   -2.4583    3.0208    0.0000 C   0  0  0  0  0  0  0  0  0  0  0  0
   -3.5375    3.8000    0.0000 N   0  0  0  0  0  0  0  0  0  0  0  0
   -4.5833    2.7583    0.0000 C   0  0  0  0  0  0  0  0  0  0  0  0
   -2.7125    3.8000    0.0000 N   0  0  0  0  0  0  0  0  0  0  0  0
   -4.8333    1.9750    0.0000 S   0  0  0  0  0  0  0  0  0  0  0  0
   -1.6750    2.7583    0.0000 N   0  0  0  0  0  0  0  0  0  0  0  0
    0.7042    2.0708    0.0000 C   0  0  0  0  0  0  0  0  0  0  0  0
   -0.1958    3.0708    0.0000 C   0  0  0  0  0  0  0  0  0  0  0  0
   -5.6583    1.9708    0.0000 C   0  0  0  0  0  0  0  0  0  0  0  0
   -1.5083    1.9583    0.0000 C   0  0  0  0  0  0  0  0  0  0  0  0
   -5.2500    3.2458    0.0000 C   0  0  0  0  0  0  0  0  0  0  0  0
   -0.7208    1.6958    0.0000 C   0  0  0  0  0  0  0  0  0  0  0  0
   -5.9125    2.7583    0.0000 C   0  0  0  0  0  0  0  0  0  0  0  0
    0.5625    3.4083    0.0000 C   0  0  0  0  0  0  0  0  0  0  0  0
    1.1167    2.7958    0.0000 C   0  0  0  0  0  0  0  0  0  0  0  0
   -0.9000    3.4833    0.0000 O   0  0  0  0  0  0  0  0  0  0  0  0
    1.0417    1.3208    0.0000 O   0  0  0  0  0  0  0  0  0  0  0  0
   -2.1208    1.4000    0.0000 O   0  0  0  0  0  0  0  0  0  0  0  0
   -6.1375    1.2958    0.0000 Cl  0  0  0  0  0  0  0  0  0  0  0  0
  2  3  1  0  0  0  0
  3  4  1  0  0  0  0
  4  9  1  0  0  0  0
  5  7  1  0  0  0  0
  6  2  1  0  0  0  0
  7  4  2  0  0  0  0
  8  6  1  0  0  0  0
  9 13  1  0  0  0  0
 10  1  1  0  0  0  0
 11  1  1  0  0  0  0
 12  8  1  0  0  0  0
 13 15  1  0  0  0  0
 14  6  2  0  0  0  0
 15  1  1  0  0  0  0
 16 14  1  0  0  0  0
 17 11  1  0  0  0  0
 18 10  1  0  0  0  0
 19 11  2  0  0  0  0
 20 10  2  0  0  0  0
 21 13  2  0  0  0  0
 22 12  1  0  0  0  0
 18 17  1  0  0  0  0
  2  5  2  0  0  0  0
 12 16  2  0  0  0  0
M  END
> <IDNUMBER>
F1374-1139

> <Chemical_Name>
N-[5-(5-chlorothiophen-2-yl)-1,3,4-oxadiazol-2-yl]-2-(2,5-dioxopyrrolidin-1-yl)acetamide

> <CAS>
865543-74-4

> <PriceCoeff>
1.00

> <MW>
340.74

> <Description>
solid

> <FSP3>
0.25

> <clogP>
1.01

> <TPSA>
133.64

> <Acceptor>
6

> <Donor>
1

> <RotBonds>
4

> <HAC>
22

> <Collection>
General

$$$$
F6241-0243
  -ISIS-  06222321152D

 25 27  0  0  0  0  0  0  0  0999 V2000
   -2.4000    2.1208    0.0000 N   0  0  3  0  0  0  0  0  0  0  0  0
   -1.6708    2.5333    0.0000 C   0  0  3  0  0  0  0  0  0  0  0  0
   -0.9458    2.1125    0.0000 C   0  0  0  0  0  0  0  0  0  0  0  0
   -0.2083    2.5333    0.0000 N   0  0  0  0  0  0  0  0  0  0  0  0
   -3.1208    2.5333    0.0000 C   0  0  0  0  0  0  0  0  0  0  0  0
    0.5292    2.9583    0.0000 C   0  0  0  0  0  0  0  0  0  0  0  0
   -2.4000    1.2750    0.0000 C   0  0  0  0  0  0  0  0  0  0  0  0
    1.2542    2.5333    0.0000 C   0  0  0  0  0  0  0  0  0  0  0  0
    0.5292    3.8083    0.0000 C   0  0  0  0  0  0  0  0  0  0  0  0
   -0.9458    1.2708    0.0000 O   0  0  0  0  0  0  0  0  0  0  0  0
   -2.4000    3.8000    0.0000 O   0  0  0  0  0  0  0  0  0  0  0  0
   -3.8583    2.1125    0.0000 O   0  0  0  0  0  0  0  0  0  0  0  0
   -1.6708    3.3750    0.0000 C   0  0  0  0  0  0  0  0  0  0  0  0
    1.2625    4.2167    0.0000 C   0  0  0  0  0  0  0  0  0  0  0  0
    1.9875    2.9583    0.0000 C   0  0  0  0  0  0  0  0  0  0  0  0
   -3.1208    3.3750    0.0000 C   0  0  0  0  0  0  0  0  0  0  0  0
   -3.1250    0.8583    0.0000 C   0  0  0  0  0  0  0  0  0  0  0  0
    1.9917    3.8000    0.0000 C   0  0  0  0  0  0  0  0  0  0  0  0
    2.7167    2.5250    0.0000 Cl  0  0  0  0  0  0  0  0  0  0  0  0
   -0.2083    4.2292    0.0000 O   0  0  0  0  0  0  0  0  0  0  0  0
   -3.1208    0.0208    0.0000 C   0  0  0  0  0  0  0  0  0  0  0  0
   -3.8583    1.2833    0.0000 C   0  0  0  0  0  0  0  0  0  0  0  0
   -4.5833    0.8625    0.0000 C   0  0  0  0  0  0  0  0  0  0  0  0
   -3.8500   -0.4000    0.0000 C   0  0  0  0  0  0  0  0  0  0  0  0
   -4.5833    0.0208    0.0000 C   0  0  0  0  0  0  0  0  0  0  0  0
  2  1  1  0  0  0  0
  3  2  1  0  0  0  0
  4  3  1  0  0  0  0
  5  1  1  0  0  0  0
  6  4  1  0  0  0  0
  7  1  1  0  0  0  0
  8  6  2  0  0  0  0
  9  6  1  0  0  0  0
 10  3  2  0  0  0  0
 11 16  1  0  0  0  0
 12  5  2  0  0  0  0
 13  2  1  0  0  0  0
 14  9  2  0  0  0  0
 15  8  1  0  0  0  0
 16  5  1  0  0  0  0
 17  7  1  0  0  0  0
 18 14  1  0  0  0  0
 19 15  1  0  0  0  0
 20  9  1  0  0  0  0
 21 17  1  0  0  0  0
 22 17  2  0  0  0  0
 23 22  1  0  0  0  0
 24 21  2  0  0  0  0
 25 23  2  0  0  0  0
 13 11  1  0  0  0  0
 25 24  1  0  0  0  0
 15 18  2  0  0  0  0
M  END
> <IDNUMBER>
F6241-0243

> <Chemical_Name>
4-benzyl-N-(5-chloro-2-hydroxyphenyl)-5-oxomorpholine-3-carboxamide

> <CAS>
1351589-24-6

> <PriceCoeff>
1.00

> <MW>
360.79

> <Description>
solid

> <FSP3>
0.22

> <clogP>
3.38

> <TPSA>
78.87

> <Acceptor>
4

> <Donor>
2

> <RotBonds>
4

> <HAC>
25

> <Collection>
General

$$$$
F6401-0051
  -ISIS-  06222321462D

 26 29  0  0  0  0  0  0  0  0999 V2000
    5.0375   -2.0375    0.0000 N   0  0  3  0  0  0  0  0  0  0  0  0
    4.8292   -3.0125    0.0000 C   0  0  0  0  0  0  0  0  0  0  0  0
    4.2917   -1.3667    0.0000 C   0  0  0  0  0  0  0  0  0  0  0  0
    3.1375   -2.6542    0.0000 C   0  0  3  0  0  0  0  0  0  0  0  0
    2.1875   -2.9750    0.0000 C   0  0  0  0  0  0  0  0  0  0  0  0
    6.3792   -0.6792    0.0000 C   0  0  0  0  0  0  0  0  0  0  0  0
    3.3417   -1.6792    0.0000 C   0  0  0  0  0  0  0  0  0  0  0  0
    3.8875   -3.3292    0.0000 C   0  0  0  0  0  0  0  0  0  0  0  0
    6.1750   -1.6625    0.0000 C   0  0  0  0  0  0  0  0  0  0  0  0
    6.9917    2.2500    0.0000 C   0  0  0  0  0  0  0  0  0  0  0  0
    1.8792   -3.9292    0.0000 S   0  0  0  0  0  0  0  0  0  0  0  0
    6.7917    1.2833    0.0000 C   0  0  0  0  0  0  0  0  0  0  0  0
    7.3292   -0.3667    0.0000 N   0  0  0  0  0  0  0  0  0  0  0  0
    7.9542    2.5708    0.0000 C   0  0  0  0  0  0  0  0  0  0  0  0
    6.4042    3.0583    0.0000 O   0  0  0  0  0  0  0  0  0  0  0  0
    4.4167   -0.7792    0.0000 O   0  0  0  0  0  0  0  0  0  0  0  0
    5.5792   -3.6792    0.0000 O   0  0  0  0  0  0  0  0  0  0  0  0
    7.9417    3.5625    0.0000 O   0  0  0  0  0  0  0  0  0  0  0  0
    7.5375    0.6083    0.0000 C   0  0  0  0  0  0  0  0  0  0  0  0
    7.0000    3.8750    0.0000 C   0  0  0  0  0  0  0  0  0  0  0  0
    1.3792   -2.3917    0.0000 C   0  0  0  0  0  0  0  0  0  0  0  0
    0.8792   -3.9292    0.0000 C   0  0  0  0  0  0  0  0  0  0  0  0
    5.6417   -0.0167    0.0000 O   0  0  0  0  0  0  0  0  0  0  0  0
    0.5667   -2.9750    0.0000 C   0  0  0  0  0  0  0  0  0  0  0  0
    8.6917    1.9083    0.0000 C   0  0  0  0  0  0  0  0  0  0  0  0
    8.4875    0.9208    0.0000 C   0  0  0  0  0  0  0  0  0  0  0  0
  2  1  1  0  0  0  0
  3  1  1  0  0  0  0
  4  7  1  0  0  0  0
  5  4  1  0  0  0  0
  6  9  1  0  0  0  0
  7  3  1  0  0  0  0
  8  2  1  0  0  0  0
  9  1  1  0  0  0  0
 10 12  1  0  0  0  0
 11  5  1  0  0  0  0
 12 19  2  0  0  0  0
 13  6  1  0  0  0  0
 14 25  1  0  0  0  0
 15 10  1  0  0  0  0
 16  3  2  0  0  0  0
 17  2  2  0  0  0  0
 18 14  1  0  0  0  0
 19 13  1  0  0  0  0
 20 15  1  0  0  0  0
 21  5  2  0  0  0  0
 22 11  1  0  0  0  0
 23  6  2  0  0  0  0
 24 21  1  0  0  0  0
 25 26  2  0  0  0  0
 26 19  1  0  0  0  0
  4  8  1  0  0  0  0
 24 22  2  0  0  0  0
 10 14  2  0  0  0  0
 18 20  1  0  0  0  0
M  END
> <IDNUMBER>
F6401-0051

> <Chemical_Name>
N-(2H-1,3-benzodioxol-5-yl)-2-[2,6-dioxo-4-(thiophen-2-yl)piperidin-1-yl]acetamide

> <CAS>
1396635-24-7

> <PriceCoeff>
1.00

> <MW>
372.40

> <Description>
solid

> <FSP3>
0.28

> <clogP>
2.43

> <TPSA>
113.18

> <Acceptor>
5

> <Donor>
1

> <RotBonds>
4

> <HAC>
26

> <Collection>
General

$$$$
F3115-0101
  -ISIS-  06222321442D

 25 27  0  0  0  0  0  0  0  0999 V2000
    4.6917   -5.3792    0.0000 N   0  0  3  0  0  0  0  0  0  0  0  0
    5.1875   -6.0500    0.0000 C   0  0  0  0  0  0  0  0  0  0  0  0
    5.1792   -4.7125    0.0000 C   0  0  0  0  0  0  0  0  0  0  0  0
    5.9667   -5.7917    0.0000 C   0  0  3  0  0  0  0  0  0  0  0  0
    5.9667   -4.9625    0.0000 C   0  0  0  0  0  0  0  0  0  0  0  0
    6.6375   -6.2667    0.0000 N   0  0  3  0  0  0  0  0  0  0  0  0
    7.9667   -7.2250    0.0000 N   0  0  3  0  0  0  0  0  0  0  0  0
    8.6292   -7.7125    0.0000 C   0  0  0  0  0  0  0  0  0  0  0  0
    3.8667   -5.3875    0.0000 C   0  0  0  0  0  0  0  0  0  0  0  0
    4.9292   -6.8292    0.0000 O   0  0  0  0  0  0  0  0  0  0  0  0
    4.9167   -3.9292    0.0000 O   0  0  0  0  0  0  0  0  0  0  0  0
    8.0500   -6.4042    0.0000 C   0  0  0  0  0  0  0  0  0  0  0  0
    7.2167   -7.5542    0.0000 C   0  0  0  0  0  0  0  0  0  0  0  0
    7.3792   -5.9250    0.0000 C   0  0  0  0  0  0  0  0  0  0  0  0
    6.5542   -7.0792    0.0000 C   0  0  0  0  0  0  0  0  0  0  0  0
    9.3875   -7.3750    0.0000 O   0  0  0  0  0  0  0  0  0  0  0  0
    3.4625   -4.6750    0.0000 C   0  0  0  0  0  0  0  0  0  0  0  0
    8.5500   -8.5292    0.0000 O   0  0  0  0  0  0  0  0  0  0  0  0
    3.8750   -3.9542    0.0000 Cl  0  0  0  0  0  0  0  0  0  0  0  0
    3.4667   -6.1042    0.0000 C   0  0  0  0  0  0  0  0  0  0  0  0
    2.6417   -4.6750    0.0000 C   0  0  0  0  0  0  0  0  0  0  0  0
    7.7917   -8.8667    0.0000 C   0  0  0  0  0  0  0  0  0  0  0  0
    2.6417   -6.1042    0.0000 C   0  0  0  0  0  0  0  0  0  0  0  0
    7.7125   -9.6875    0.0000 C   0  0  0  0  0  0  0  0  0  0  0  0
    2.2292   -5.3917    0.0000 C   0  0  0  0  0  0  0  0  0  0  0  0
  2  1  1  0  0  0  0
  3  1  1  0  0  0  0
  4  2  1  0  0  0  0
  5  3  1  0  0  0  0
  6  4  1  0  0  0  0
  7 13  1  0  0  0  0
  8  7  1  0  0  0  0
  9  1  1  0  0  0  0
 10  2  2  0  0  0  0
 11  3  2  0  0  0  0
 12 14  1  0  0  0  0
 13 15  1  0  0  0  0
 14  6  1  0  0  0  0
 15  6  1  0  0  0  0
 16  8  2  0  0  0  0
 17  9  2  0  0  0  0
 18  8  1  0  0  0  0
 19 17  1  0  0  0  0
 20  9  1  0  0  0  0
 21 17  1  0  0  0  0
 22 18  1  0  0  0  0
 23 20  2  0  0  0  0
 24 22  1  0  0  0  0
 25 23  1  0  0  0  0
  4  5  1  0  0  0  0
 25 21  2  0  0  0  0
  7 12  1  0  0  0  0
M  END
> <IDNUMBER>
F3115-0101

> <Chemical_Name>
ethyl 4-[1-(2-chlorophenyl)-2,5-dioxopyrrolidin-3-yl]piperazine-1-carboxylate

> <CAS>
838886-84-3

> <PriceCoeff>
1.00

> <MW>
365.81

> <Description>
solid

> <FSP3>
0.47

> <clogP>
2.97

> <TPSA>
70.16

> <Acceptor>
4

> <Donor>
1

> <RotBonds>
5

> <HAC>
25

> <Collection>
General

$$$$
F0700-0138
  -ISIS-  06222321452D

 22 24  0  0  0  0  0  0  0  0999 V2000
    0.9167    0.8708    0.0000 N   0  0  3  0  0  0  0  0  0  0  0  0
   -0.9458    1.9708    0.0000 C   0  0  0  0  0  0  0  0  0  0  0  0
   -1.3000    1.5125    0.0000 N   0  0  0  0  0  0  0  0  0  0  0  0
   -1.9083    1.7125    0.0000 C   0  0  0  0  0  0  0  0  0  0  0  0
   -0.3333    1.9708    0.0000 N   0  0  0  0  0  0  0  0  0  0  0  0
    0.6000    0.3500    0.0000 C   0  0  0  0  0  0  0  0  0  0  0  0
    1.5292    0.7208    0.0000 C   0  0  0  0  0  0  0  0  0  0  0  0
   -1.2958    2.4833    0.0000 S   0  0  0  0  0  0  0  0  0  0  0  0
   -0.0125    1.4458    0.0000 C   0  0  0  0  0  0  0  0  0  0  0  0
   -1.8958    2.3000    0.0000 C   0  0  0  0  0  0  0  0  0  0  0  0
    0.6042    1.4208    0.0000 C   0  0  0  0  0  0  0  0  0  0  0  0
   -2.4125    1.3833    0.0000 C   0  0  0  0  0  0  0  0  0  0  0  0
    1.5792    0.1333    0.0000 C   0  0  0  0  0  0  0  0  0  0  0  0
    1.0167   -0.1167    0.0000 C   0  0  0  0  0  0  0  0  0  0  0  0
    2.0292    1.1208    0.0000 O   0  0  0  0  0  0  0  0  0  0  0  0
   -0.0333    0.2708    0.0000 O   0  0  0  0  0  0  0  0  0  0  0  0
   -0.3458    0.9125    0.0000 O   0  0  0  0  0  0  0  0  0  0  0  0
   -2.9000    0.4458    0.0000 N   0  0  0  0  0  0  0  0  0  0  0  0
   -2.3833    0.7708    0.0000 C   0  0  0  0  0  0  0  0  0  0  0  0
   -2.9500    1.6625    0.0000 C   0  0  0  0  0  0  0  0  0  0  0  0
   -3.4500    0.7208    0.0000 C   0  0  0  0  0  0  0  0  0  0  0  0
   -3.4708    1.3458    0.0000 C   0  0  0  0  0  0  0  0  0  0  0  0
  2  5  1  0  0  0  0
  3  2  2  0  0  0  0
  4  3  1  0  0  0  0
  5  9  1  0  0  0  0
  6  1  1  0  0  0  0
  7  1  1  0  0  0  0
  8  2  1  0  0  0  0
  9 11  1  0  0  0  0
 10  8  1  0  0  0  0
 11  1  1  0  0  0  0
 12  4  1  0  0  0  0
 13  7  1  0  0  0  0
 14  6  1  0  0  0  0
 15  7  2  0  0  0  0
 16  6  2  0  0  0  0
 17  9  2  0  0  0  0
 18 19  2  0  0  0  0
 19 12  1  0  0  0  0
 20 12  2  0  0  0  0
 21 22  2  0  0  0  0
 22 20  1  0  0  0  0
 13 14  1  0  0  0  0
  4 10  2  0  0  0  0
 21 18  1  0  0  0  0
M  END
> <IDNUMBER>
F0700-0138

> <Chemical_Name>
2-(2,5-dioxopyrrolidin-1-yl)-N-[4-(pyridin-3-yl)-1,3-thiazol-2-yl]acetamide

> <CAS>
393837-53-1

> <PriceCoeff>
1.00

> <MW>
316.34

> <Description>
solid

> <FSP3>
0.21

> <clogP>
0.56

> <TPSA>
120.50

> <Acceptor>
5

> <Donor>
2

> <RotBonds>
4

> <HAC>
22

> <Collection>
General

$$$$
F2767-0093
  -ISIS-  06222321462D

 24 26  0  0  0  0  0  0  0  0999 V2000
    0.7917    4.0750    0.0000 N   0  0  3  0  0  0  0  0  0  0  0  0
   -1.5583    3.3208    0.0000 C   0  0  0  0  0  0  0  0  0  0  0  0
   -1.8125    2.5333    0.0000 O   0  0  0  0  0  0  0  0  0  0  0  0
   -2.6375    2.5333    0.0000 C   0  0  0  0  0  0  0  0  0  0  0  0
   -2.8958    3.3208    0.0000 N   0  0  0  0  0  0  0  0  0  0  0  0
   -2.2250    3.8000    0.0000 N   0  0  0  0  0  0  0  0  0  0  0  0
   -0.7708    3.5708    0.0000 N   0  0  0  0  0  0  0  0  0  0  0  0
    1.5500    4.3917    0.0000 C   0  0  0  0  0  0  0  0  0  0  0  0
    0.2417    4.6792    0.0000 C   0  0  0  0  0  0  0  0  0  0  0  0
   -0.1625    3.0208    0.0000 C   0  0  0  0  0  0  0  0  0  0  0  0
   -3.1250    1.8708    0.0000 C   0  0  0  0  0  0  0  0  0  0  0  0
    0.6167    3.2708    0.0000 C   0  0  0  0  0  0  0  0  0  0  0  0
   -2.7958    1.1208    0.0000 C   0  0  0  0  0  0  0  0  0  0  0  0
   -3.2708    0.4500    0.0000 C   0  0  0  0  0  0  0  0  0  0  0  0
    0.6542    5.3917    0.0000 C   0  0  0  0  0  0  0  0  0  0  0  0
    1.4667    5.2167    0.0000 C   0  0  0  0  0  0  0  0  0  0  0  0
   -0.5708    4.6042    0.0000 O   0  0  0  0  0  0  0  0  0  0  0  0
    2.2542    3.9875    0.0000 O   0  0  0  0  0  0  0  0  0  0  0  0
   -4.0958    0.5333    0.0000 C   0  0  0  0  0  0  0  0  0  0  0  0
   -0.3333    2.2083    0.0000 O   0  0  0  0  0  0  0  0  0  0  0  0
   -3.9458    1.9583    0.0000 C   0  0  0  0  0  0  0  0  0  0  0  0
   -4.4333    1.2958    0.0000 C   0  0  0  0  0  0  0  0  0  0  0  0
   -2.9333   -0.3042    0.0000 C   0  0  0  0  0  0  0  0  0  0  0  0
   -4.5833   -0.1292    0.0000 C   0  0  0  0  0  0  0  0  0  0  0  0
  2  7  1  0  0  0  0
  3  2  1  0  0  0  0
  4  3  1  0  0  0  0
  5  6  1  0  0  0  0
  6  2  2  0  0  0  0
  7 10  1  0  0  0  0
  8  1  1  0  0  0  0
  9  1  1  0  0  0  0
 10 12  1  0  0  0  0
 11  4  1  0  0  0  0
 12  1  1  0  0  0  0
 13 11  1  0  0  0  0
 14 13  2  0  0  0  0
 15  9  1  0  0  0  0
 16  8  1  0  0  0  0
 17  9  2  0  0  0  0
 18  8  2  0  0  0  0
 19 22  2  0  0  0  0
 20 10  2  0  0  0  0
 21 11  2  0  0  0  0
 22 21  1  0  0  0  0
 23 14  1  0  0  0  0
 24 19  1  0  0  0  0
 15 16  1  0  0  0  0
  5  4  2  0  0  0  0
 14 19  1  0  0  0  0
M  END
> <IDNUMBER>
F2767-0093

> <Chemical_Name>
N-[5-(3,4-dimethylphenyl)-1,3,4-oxadiazol-2-yl]-2-(2,5-dioxopyrrolidin-1-yl)acetamide

> <CAS>
922873-96-9

> <PriceCoeff>
1.00

> <MW>
328.32

> <Description>
solid

> <FSP3>
0.31

> <clogP>
1.35

> <TPSA>
105.40

> <Acceptor>
6

> <Donor>
1

> <RotBonds>
4

> <HAC>
24

> <Collection>
General

$$$$
F0327-0367
  -ISIS-  06222321142D

 24 26  0  0  0  0  0  0  0  0999 V2000
    4.5500   -0.9000    0.0000 N   0  0  3  0  0  0  0  0  0  0  0  0
    5.0167   -0.3167    0.0000 C   0  0  0  0  0  0  0  0  0  0  0  0
    4.9375   -1.5542    0.0000 C   0  0  0  0  0  0  0  0  0  0  0  0
    1.4792   -0.9000    0.0000 C   0  0  0  0  0  0  0  0  0  0  0  0
    1.1000   -0.2375    0.0000 N   0  0  0  0  0  0  0  0  0  0  0  0
    0.3167   -0.2375    0.0000 C   0  0  0  0  0  0  0  0  0  0  0  0
    3.7792   -0.9000    0.0000 C   0  0  0  0  0  0  0  0  0  0  0  0
   -0.0625    0.4208    0.0000 C   0  0  0  0  0  0  0  0  0  0  0  0
   -0.8458    0.4208    0.0000 C   0  0  0  0  0  0  0  0  0  0  0  0
    2.2375   -0.9000    0.0000 C   0  0  0  0  0  0  0  0  0  0  0  0
    1.1000   -1.5542    0.0000 O   0  0  0  0  0  0  0  0  0  0  0  0
    5.6792   -1.3792    0.0000 C   0  0  0  0  0  0  0  0  0  0  0  0
    5.7375   -0.6000    0.0000 C   0  0  0  0  0  0  0  0  0  0  0  0
    4.8375    0.4208    0.0000 O   0  0  0  0  0  0  0  0  0  0  0  0
    4.6542   -2.3000    0.0000 O   0  0  0  0  0  0  0  0  0  0  0  0
    3.4000   -1.5542    0.0000 C   0  0  0  0  0  0  0  0  0  0  0  0
    3.4167   -0.2375    0.0000 C   0  0  0  0  0  0  0  0  0  0  0  0
   -0.0625   -0.9000    0.0000 C   0  0  0  0  0  0  0  0  0  0  0  0
    2.6375   -0.2375    0.0000 C   0  0  0  0  0  0  0  0  0  0  0  0
    2.6167   -1.5542    0.0000 C   0  0  0  0  0  0  0  0  0  0  0  0
   -1.2000   -0.2375    0.0000 C   0  0  0  0  0  0  0  0  0  0  0  0
    0.3292    1.0708    0.0000 F   0  0  0  0  0  0  0  0  0  0  0  0
   -0.8208   -0.9000    0.0000 C   0  0  0  0  0  0  0  0  0  0  0  0
   -1.9708   -0.2375    0.0000 F   0  0  0  0  0  0  0  0  0  0  0  0
  2  1  1  0  0  0  0
  3  1  1  0  0  0  0
  4 10  1  0  0  0  0
  5  4  1  0  0  0  0
  6  5  1  0  0  0  0
  7  1  1  0  0  0  0
  8  6  2  0  0  0  0
  9  8  1  0  0  0  0
 10 19  1  0  0  0  0
 11  4  2  0  0  0  0
 12  3  1  0  0  0  0
 13  2  1  0  0  0  0
 14  2  2  0  0  0  0
 15  3  2  0  0  0  0
 16  7  2  0  0  0  0
 17  7  1  0  0  0  0
 18  6  1  0  0  0  0
 19 17  2  0  0  0  0
 20 16  1  0  0  0  0
 21 23  1  0  0  0  0
 22  8  1  0  0  0  0
 23 18  2  0  0  0  0
 24 21  1  0  0  0  0
 12 13  1  0  0  0  0
 20 10  2  0  0  0  0
  9 21  2  0  0  0  0
M  END
> <IDNUMBER>
F0327-0367

> <Chemical_Name>
N-(2,4-difluorophenyl)-4-(2,5-dioxopyrrolidin-1-yl)benzamide

> <CAS>
330200-90-3

> <PriceCoeff>
1.00

> <MW>
330.29

> <Description>
solid

> <FSP3>
0.12

> <clogP>
0.82

> <TPSA>
66.48

> <Acceptor>
3

> <Donor>
1

> <RotBonds>
3

> <HAC>
24

> <Collection>
General

$$$$
F0715-0490
  -ISIS-  06222321142D

 22 24  0  0  0  0  0  0  0  0999 V2000
   -3.1958   -2.5042    0.0000 N   0  0  3  0  0  0  0  0  0  0  0  0
   -1.4708   -1.6292    0.0000 C   0  0  0  0  0  0  0  0  0  0  0  0
   -0.8833   -1.8667    0.0000 N   0  0  0  0  0  0  0  0  0  0  0  0
   -0.4625   -1.4042    0.0000 C   0  0  0  0  0  0  0  0  0  0  0  0
   -2.0208   -1.9292    0.0000 N   0  0  0  0  0  0  0  0  0  0  0  0
   -2.7208   -2.9292    0.0000 C   0  0  0  0  0  0  0  0  0  0  0  0
   -3.7333   -2.8167    0.0000 C   0  0  0  0  0  0  0  0  0  0  0  0
   -1.3958   -0.9875    0.0000 S   0  0  0  0  0  0  0  0  0  0  0  0
   -2.5500   -1.6042    0.0000 C   0  0  0  0  0  0  0  0  0  0  0  0
   -0.7708   -0.8667    0.0000 C   0  0  0  0  0  0  0  0  0  0  0  0
   -3.1458   -1.8875    0.0000 C   0  0  0  0  0  0  0  0  0  0  0  0
   -3.0000   -3.4875    0.0000 C   0  0  0  0  0  0  0  0  0  0  0  0
   -3.6125   -3.4167    0.0000 C   0  0  0  0  0  0  0  0  0  0  0  0
   -2.0625   -2.7875    0.0000 O   0  0  0  0  0  0  0  0  0  0  0  0
   -4.3125   -2.5167    0.0000 O   0  0  0  0  0  0  0  0  0  0  0  0
    0.1667   -1.4042    0.0000 C   0  0  0  0  0  0  0  0  0  0  0  0
   -2.5208   -0.9875    0.0000 O   0  0  0  0  0  0  0  0  0  0  0  0
    1.4500   -1.3875    0.0000 N   0  0  0  0  0  0  0  0  0  0  0  0
    1.1375   -1.9542    0.0000 C   0  0  0  0  0  0  0  0  0  0  0  0
    1.1375   -0.8500    0.0000 C   0  0  0  0  0  0  0  0  0  0  0  0
    0.4875   -0.8500    0.0000 C   0  0  0  0  0  0  0  0  0  0  0  0
    0.4875   -1.9292    0.0000 C   0  0  0  0  0  0  0  0  0  0  0  0
  2  5  1  0  0  0  0
  3  2  2  0  0  0  0
  4  3  1  0  0  0  0
  5  9  1  0  0  0  0
  6  1  1  0  0  0  0
  7  1  1  0  0  0  0
  8  2  1  0  0  0  0
  9 11  1  0  0  0  0
 10  8  1  0  0  0  0
 11  1  1  0  0  0  0
 12  6  1  0  0  0  0
 13  7  1  0  0  0  0
 14  6  2  0  0  0  0
 15  7  2  0  0  0  0
 16  4  1  0  0  0  0
 17  9  2  0  0  0  0
 18 19  1  0  0  0  0
 19 22  2  0  0  0  0
 20 21  1  0  0  0  0
 21 16  2  0  0  0  0
 22 16  1  0  0  0  0
 13 12  1  0  0  0  0
 10  4  2  0  0  0  0
 20 18  2  0  0  0  0
M  END
> <IDNUMBER>
F0715-0490

> <Chemical_Name>
2-(2,5-dioxopyrrolidin-1-yl)-N-[4-(pyridin-4-yl)-1,3-thiazol-2-yl]acetamide

> <CAS>
441289-96-9

> <PriceCoeff>
1.00

> <MW>
316.34

> <Description>
solid

> <FSP3>
0.21

> <clogP>
0.56

> <TPSA>
120.50

> <Acceptor>
5

> <Donor>
2

> <RotBonds>
4

> <HAC>
22

> <Collection>
General

$$$$
F1300-0285
  -ISIS-  06222321142D

 22 24  0  0  0  0  0  0  0  0999 V2000
   -1.4958    3.2750    0.0000 C   0  0  0  0  0  0  0  0  0  0  0  0
    0.2417    1.5208    0.0000 N   0  0  3  0  0  0  0  0  0  0  0  0
   -1.7958    2.5083    0.0000 N   0  0  0  0  0  0  0  0  0  0  0  0
   -2.6208    2.5583    0.0000 C   0  0  0  0  0  0  0  0  0  0  0  0
   -2.1333    3.8000    0.0000 S   0  0  0  0  0  0  0  0  0  0  0  0
   -0.6958    3.4833    0.0000 N   0  0  0  0  0  0  0  0  0  0  0  0
    0.1042    0.7125    0.0000 C   0  0  0  0  0  0  0  0  0  0  0  0
    1.0542    1.6500    0.0000 C   0  0  0  0  0  0  0  0  0  0  0  0
   -2.8208    3.3583    0.0000 C   0  0  0  0  0  0  0  0  0  0  0  0
   -0.1208    2.9000    0.0000 C   0  0  0  0  0  0  0  0  0  0  0  0
   -3.2000    1.9750    0.0000 C   0  0  0  0  0  0  0  0  0  0  0  0
   -0.3375    2.0958    0.0000 C   0  0  0  0  0  0  0  0  0  0  0  0
   -3.9958    2.1958    0.0000 C   0  0  0  0  0  0  0  0  0  0  0  0
    1.4250    0.9208    0.0000 C   0  0  0  0  0  0  0  0  0  0  0  0
    0.8417    0.3333    0.0000 C   0  0  0  0  0  0  0  0  0  0  0  0
    1.4250    2.3708    0.0000 O   0  0  0  0  0  0  0  0  0  0  0  0
   -0.6208    0.3458    0.0000 O   0  0  0  0  0  0  0  0  0  0  0  0
   -3.6208    3.5708    0.0000 C   0  0  0  0  0  0  0  0  0  0  0  0
    0.6667    3.1083    0.0000 O   0  0  0  0  0  0  0  0  0  0  0  0
   -4.2083    2.9958    0.0000 C   0  0  0  0  0  0  0  0  0  0  0  0
   -2.9875    1.1750    0.0000 C   0  0  0  0  0  0  0  0  0  0  0  0
   -4.5833    1.6125    0.0000 C   0  0  0  0  0  0  0  0  0  0  0  0
  2 12  1  0  0  0  0
  3  1  2  0  0  0  0
  4  3  1  0  0  0  0
  5  1  1  0  0  0  0
  6  1  1  0  0  0  0
  7  2  1  0  0  0  0
  8  2  1  0  0  0  0
  9  5  1  0  0  0  0
 10  6  1  0  0  0  0
 11  4  1  0  0  0  0
 12 10  1  0  0  0  0
 13 11  2  0  0  0  0
 14  8  1  0  0  0  0
 15  7  1  0  0  0  0
 16  8  2  0  0  0  0
 17  7  2  0  0  0  0
 18  9  1  0  0  0  0
 19 10  2  0  0  0  0
 20 18  2  0  0  0  0
 21 11  1  0  0  0  0
 22 13  1  0  0  0  0
  9  4  2  0  0  0  0
 20 13  1  0  0  0  0
 14 15  1  0  0  0  0
M  END
> <IDNUMBER>
F1300-0285

> <Chemical_Name>
N-(4,5-dimethyl-1,3-benzothiazol-2-yl)-2-(2,5-dioxopyrrolidin-1-yl)acetamide

> <CAS>
888409-79-8

> <PriceCoeff>
1.00

> <MW>
317.36

> <Description>
solid

> <FSP3>
0.33

> <clogP>
2.39

> <TPSA>
107.61

> <Acceptor>
4

> <Donor>
1

> <RotBonds>
3

> <HAC>
22

> <Collection>
General

$$$$
F0327-0395
  -ISIS-  06222321452D

 28 31  0  0  0  0  0  0  0  0999 V2000
    0.3792   -0.2500    0.0000 C   0  0  0  0  0  0  0  0  0  0  0  0
   -0.0208    0.3500    0.0000 C   0  0  0  0  0  0  0  0  0  0  0  0
   -0.7500    0.1625    0.0000 C   0  0  0  0  0  0  0  0  0  0  0  0
    4.4792   -0.8875    0.0000 N   0  0  3  0  0  0  0  0  0  0  0  0
   -0.0833   -0.8500    0.0000 S   0  0  0  0  0  0  0  0  0  0  0  0
   -0.7500   -0.5500    0.0000 C   0  0  0  0  0  0  0  0  0  0  0  0
    1.1167   -0.2500    0.0000 N   0  0  0  0  0  0  0  0  0  0  0  0
    1.4792   -0.8875    0.0000 C   0  0  0  0  0  0  0  0  0  0  0  0
    4.8375   -1.5292    0.0000 C   0  0  0  0  0  0  0  0  0  0  0  0
    4.9792   -0.3292    0.0000 C   0  0  0  0  0  0  0  0  0  0  0  0
    0.2542    1.0208    0.0000 C   0  0  0  0  0  0  0  0  0  0  0  0
    0.5292    1.6833    0.0000 N   0  0  0  0  0  0  0  0  0  0  0  0
    3.7167   -0.8875    0.0000 C   0  0  0  0  0  0  0  0  0  0  0  0
   -1.3958    0.5500    0.0000 C   0  0  0  0  0  0  0  0  0  0  0  0
    2.2375   -0.8875    0.0000 C   0  0  0  0  0  0  0  0  0  0  0  0
   -1.3958   -0.9292    0.0000 C   0  0  0  0  0  0  0  0  0  0  0  0
    1.1167   -1.5292    0.0000 O   0  0  0  0  0  0  0  0  0  0  0  0
    5.6542   -0.6292    0.0000 C   0  0  0  0  0  0  0  0  0  0  0  0
    5.5542   -1.3667    0.0000 C   0  0  0  0  0  0  0  0  0  0  0  0
    4.8167    0.4333    0.0000 O   0  0  0  0  0  0  0  0  0  0  0  0
    4.5542   -2.2292    0.0000 O   0  0  0  0  0  0  0  0  0  0  0  0
    3.3542   -1.5292    0.0000 C   0  0  0  0  0  0  0  0  0  0  0  0
    3.3542   -0.2500    0.0000 C   0  0  0  0  0  0  0  0  0  0  0  0
    2.6000   -0.2500    0.0000 C   0  0  0  0  0  0  0  0  0  0  0  0
    2.6000   -1.5292    0.0000 C   0  0  0  0  0  0  0  0  0  0  0  0
   -2.0208    0.1833    0.0000 C   0  0  3  0  0  0  0  0  0  0  0  0
   -2.0208   -0.5542    0.0000 C   0  0  0  0  0  0  0  0  0  0  0  0
   -2.6500    0.5500    0.0000 C   0  0  0  0  0  0  0  0  0  0  0  0
  2  1  2  0  0  0  0
  3  2  1  0  0  0  0
  4 13  1  0  0  0  0
  5  1  1  0  0  0  0
  6  5  1  0  0  0  0
  7  1  1  0  0  0  0
  8  7  1  0  0  0  0
  9  4  1  0  0  0  0
 10  4  1  0  0  0  0
 11  2  1  0  0  0  0
 12 11  3  0  0  0  0
 13 22  2  0  0  0  0
 14  3  1  0  0  0  0
 15  8  1  0  0  0  0
 16  6  1  0  0  0  0
 17  8  2  0  0  0  0
 18 10  1  0  0  0  0
 19  9  1  0  0  0  0
 20 10  2  0  0  0  0
 21  9  2  0  0  0  0
 22 25  1  0  0  0  0
 23 24  2  0  0  0  0
 24 15  1  0  0  0  0
 25 15  2  0  0  0  0
 26 14  1  0  0  0  0
 27 16  1  0  0  0  0
 28 26  1  0  0  0  0
  3  6  2  0  0  0  0
 26 27  1  0  0  0  0
 13 23  1  0  0  0  0
 19 18  1  0  0  0  0
M  END
> <IDNUMBER>
F0327-0395

> <Chemical_Name>
N-(3-cyano-5-methyl-4,5,6,7-tetrahydro-1-benzothiophen-2-yl)-4-(2,5-dioxopyrrolidin-1-yl)benzamide

> <CAS>
330201-01-9

> <PriceCoeff>
1.00

> <MW>
393.46

> <Description>
solid

> <FSP3>
0.33

> <clogP>
1.95

> <TPSA>
118.51

> <Acceptor>
4

> <Donor>
1

> <RotBonds>
3

> <HAC>
28

> <Collection>
General

$$$$
F3205-0102
  -ISIS-  06222321462D

 24 26  0  0  0  0  0  0  0  0999 V2000
   -0.5708    1.6250    0.0000 N   0  0  3  0  0  0  0  0  0  0  0  0
   -0.1583    0.9125    0.0000 C   0  0  0  0  0  0  0  0  0  0  0  0
   -0.0208    2.2333    0.0000 C   0  0  0  0  0  0  0  0  0  0  0  0
    0.6417    1.0833    0.0000 C   0  0  3  0  0  0  0  0  0  0  0  0
    0.7292    1.8958    0.0000 C   0  0  0  0  0  0  0  0  0  0  0  0
    1.2542    0.5250    0.0000 N   0  0  3  0  0  0  0  0  0  0  0  0
    2.4750   -0.5875    0.0000 N   0  0  3  0  0  0  0  0  0  0  0  0
   -1.3875    1.7125    0.0000 C   0  0  0  0  0  0  0  0  0  0  0  0
    3.0792   -1.1417    0.0000 C   0  0  0  0  0  0  0  0  0  0  0  0
   -0.4958    0.1583    0.0000 O   0  0  0  0  0  0  0  0  0  0  0  0
   -0.1833    3.0458    0.0000 O   0  0  0  0  0  0  0  0  0  0  0  0
    1.0792   -0.2792    0.0000 C   0  0  0  0  0  0  0  0  0  0  0  0
    2.0375    0.7750    0.0000 C   0  0  0  0  0  0  0  0  0  0  0  0
    2.6500    0.2208    0.0000 C   0  0  0  0  0  0  0  0  0  0  0  0
    1.6875   -0.8375    0.0000 C   0  0  0  0  0  0  0  0  0  0  0  0
    3.8625   -0.8917    0.0000 C   0  0  0  0  0  0  0  0  0  0  0  0
    2.9000   -1.9500    0.0000 C   0  0  0  0  0  0  0  0  0  0  0  0
    4.2917   -2.2542    0.0000 C   0  0  0  0  0  0  0  0  0  0  0  0
    3.5042   -2.5042    0.0000 C   0  0  0  0  0  0  0  0  0  0  0  0
    4.4667   -1.4417    0.0000 C   0  0  0  0  0  0  0  0  0  0  0  0
    4.9042   -2.8125    0.0000 F   0  0  0  0  0  0  0  0  0  0  0  0
   -1.8750    1.0458    0.0000 C   0  0  3  0  0  0  0  0  0  0  0  0
   -2.6958    1.1333    0.0000 C   0  0  0  0  0  0  0  0  0  0  0  0
   -1.5458    0.2958    0.0000 C   0  0  0  0  0  0  0  0  0  0  0  0
  2  1  1  0  0  0  0
  3  1  1  0  0  0  0
  4  2  1  0  0  0  0
  5  3  1  0  0  0  0
  6  4  1  0  0  0  0
  7 14  1  0  0  0  0
  8  1  1  0  0  0  0
  9  7  1  0  0  0  0
 10  2  2  0  0  0  0
 11  3  2  0  0  0  0
 12  6  1  0  0  0  0
 13  6  1  0  0  0  0
 14 13  1  0  0  0  0
 15 12  1  0  0  0  0
 16  9  1  0  0  0  0
 17  9  2  0  0  0  0
 18 19  2  0  0  0  0
 19 17  1  0  0  0  0
 20 16  2  0  0  0  0
 21 18  1  0  0  0  0
 22  8  1  0  0  0  0
 23 22  1  0  0  0  0
 24 22  1  0  0  0  0
  5  4  1  0  0  0  0
  7 15  1  0  0  0  0
 18 20  1  0  0  0  0
M  END
> <IDNUMBER>
F3205-0102

> <Chemical_Name>
3-[4-(4-fluorophenyl)piperazin-1-yl]-1-(2-methylpropyl)pyrrolidine-2,5-dione

> <CAS>
881485-25-2

> <PriceCoeff>
1.00

> <MW>
333.40

> <Description>
solid

> <FSP3>
0.56

> <clogP>
4.12

> <TPSA>
43.86

> <Acceptor>
3

> <Donor>
2

> <RotBonds>
4

> <HAC>
24

> <Collection>
General

$$$$
F1374-2793
  -ISIS-  06222321142D

 23 25  0  0  0  0  0  0  0  0999 V2000
    3.2667   -3.5667    0.0000 C   0  0  0  0  0  0  0  0  0  0  0  0
    4.0542   -3.3125    0.0000 C   0  0  0  0  0  0  0  0  0  0  0  0
    7.9625   -2.1500    0.0000 N   0  0  3  0  0  0  0  0  0  0  0  0
    2.9375   -4.3167    0.0000 C   0  0  0  0  0  0  0  0  0  0  0  0
    4.7292   -3.7917    0.0000 O   0  0  0  0  0  0  0  0  0  0  0  0
    5.4000   -3.3125    0.0000 C   0  0  0  0  0  0  0  0  0  0  0  0
    2.1167   -4.2417    0.0000 S   0  0  0  0  0  0  0  0  0  0  0  0
    4.3167   -2.5167    0.0000 N   0  0  0  0  0  0  0  0  0  0  0  0
    5.1417   -2.5167    0.0000 N   0  0  0  0  0  0  0  0  0  0  0  0
    1.9417   -3.4417    0.0000 C   0  0  0  0  0  0  0  0  0  0  0  0
    2.6500   -3.0250    0.0000 C   0  0  0  0  0  0  0  0  0  0  0  0
    6.1875   -3.5667    0.0000 N   0  0  0  0  0  0  0  0  0  0  0  0
    8.7667   -1.9667    0.0000 C   0  0  0  0  0  0  0  0  0  0  0  0
    7.5292   -1.4417    0.0000 C   0  0  0  0  0  0  0  0  0  0  0  0
    6.8042   -3.0167    0.0000 C   0  0  0  0  0  0  0  0  0  0  0  0
    7.6417   -2.9167    0.0000 C   0  0  0  0  0  0  0  0  0  0  0  0
    8.0750   -0.8167    0.0000 C   0  0  0  0  0  0  0  0  0  0  0  0
    8.8417   -1.1375    0.0000 C   0  0  0  0  0  0  0  0  0  0  0  0
    6.7125   -1.3667    0.0000 O   0  0  0  0  0  0  0  0  0  0  0  0
    9.3917   -2.5042    0.0000 O   0  0  0  0  0  0  0  0  0  0  0  0
    6.1875   -2.4417    0.0000 O   0  0  0  0  0  0  0  0  0  0  0  0
    3.3542   -5.0292    0.0000 Cl  0  0  0  0  0  0  0  0  0  0  0  0
    1.1917   -3.1125    0.0000 Cl  0  0  0  0  0  0  0  0  0  0  0  0
  2  1  1  0  0  0  0
  3 16  1  0  0  0  0
  4  1  2  0  0  0  0
  5  2  1  0  0  0  0
  6  5  1  0  0  0  0
  7  4  1  0  0  0  0
  8  2  2  0  0  0  0
  9  8  1  0  0  0  0
 10 11  2  0  0  0  0
 11  1  1  0  0  0  0
 12  6  1  0  0  0  0
 13  3  1  0  0  0  0
 14  3  1  0  0  0  0
 15 12  1  0  0  0  0
 16 15  1  0  0  0  0
 17 14  1  0  0  0  0
 18 13  1  0  0  0  0
 19 14  2  0  0  0  0
 20 13  2  0  0  0  0
 21 15  2  0  0  0  0
 22  4  1  0  0  0  0
 23 10  1  0  0  0  0
  7 10  1  0  0  0  0
  9  6  2  0  0  0  0
 18 17  1  0  0  0  0
M  END
> <IDNUMBER>
F1374-2793

> <Chemical_Name>
N-[5-(2,5-dichlorothiophen-3-yl)-1,3,4-oxadiazol-2-yl]-2-(2,5-dioxopyrrolidin-1-yl)acetamide

> <CAS>
1171413-46-9

> <PriceCoeff>
1.00

> <MW>
375.19

> <Description>
solid

> <FSP3>
0.25

> <clogP>
1.26

> <TPSA>
133.64

> <Acceptor>
6

> <Donor>
1

> <RotBonds>
4

> <HAC>
23

> <Collection>
General

$$$$
F3083-0083
  -ISIS-  06222321152D

 27 29  0  0  0  0  0  0  0  0999 V2000
    7.5667   -3.7042    0.0000 S   0  0  3  0  0  0  0  0  0  0  0  0
    2.4042   -2.9500    0.0000 N   0  0  3  0  0  0  0  0  0  0  0  0
    1.5792   -2.9500    0.0000 N   0  0  0  0  0  0  0  0  0  0  0  0
    1.9917   -1.6792    0.0000 C   0  0  0  0  0  0  0  0  0  0  0  0
    2.6542   -2.1625    0.0000 C   0  0  0  0  0  0  0  0  0  0  0  0
    1.3167   -2.1625    0.0000 C   0  0  0  0  0  0  0  0  0  0  0  0
    6.7417   -3.7042    0.0000 N   0  0  3  0  0  0  0  0  0  0  0  0
    5.1042   -3.7000    0.0000 N   0  0  3  0  0  0  0  0  0  0  0  0
    4.2792   -3.7000    0.0000 C   0  0  0  0  0  0  0  0  0  0  0  0
    3.7000   -3.1167    0.0000 C   0  0  0  0  0  0  0  0  0  0  0  0
    7.5667   -2.8792    0.0000 O   0  0  0  0  0  0  0  0  0  0  0  0
    7.5667   -4.5292    0.0000 O   0  0  0  0  0  0  0  0  0  0  0  0
    2.9875   -3.5292    0.0000 C   0  0  0  0  0  0  0  0  0  0  0  0
    6.3375   -2.9917    0.0000 C   0  0  0  0  0  0  0  0  0  0  0  0
    6.3292   -4.4125    0.0000 C   0  0  0  0  0  0  0  0  0  0  0  0
    8.3917   -3.7042    0.0000 C   0  0  0  0  0  0  0  0  0  0  0  0
    5.5167   -2.9875    0.0000 C   0  0  0  0  0  0  0  0  0  0  0  0
    5.5167   -4.4125    0.0000 C   0  0  0  0  0  0  0  0  0  0  0  0
    4.0667   -4.4917    0.0000 O   0  0  0  0  0  0  0  0  0  0  0  0
    1.9875   -0.8542    0.0000 Br  0  0  0  0  0  0  0  0  0  0  0  0
    3.3667   -1.7417    0.0000 C   0  0  0  0  0  0  0  0  0  0  0  0
    0.5167   -1.9417    0.0000 C   0  0  0  0  0  0  0  0  0  0  0  0
    8.8042   -3.0000    0.0000 C   0  0  0  0  0  0  0  0  0  0  0  0
    8.8000   -4.4167    0.0000 C   0  0  0  0  0  0  0  0  0  0  0  0
    9.6167   -4.4167    0.0000 C   0  0  0  0  0  0  0  0  0  0  0  0
    9.6167   -3.0000    0.0000 C   0  0  0  0  0  0  0  0  0  0  0  0
   10.0292   -3.7125    0.0000 C   0  0  0  0  0  0  0  0  0  0  0  0
  2 13  1  0  0  0  0
  3  2  1  0  0  0  0
  4  5  2  0  0  0  0
  5  2  1  0  0  0  0
  6  3  2  0  0  0  0
  7  1  1  0  0  0  0
  8 18  1  0  0  0  0
  9  8  1  0  0  0  0
 10  9  1  0  0  0  0
 11  1  2  0  0  0  0
 12  1  2  0  0  0  0
 13 10  1  0  0  0  0
 14  7  1  0  0  0  0
 15  7  1  0  0  0  0
 16  1  1  0  0  0  0
 17 14  1  0  0  0  0
 18 15  1  0  0  0  0
 19  9  2  0  0  0  0
 20  4  1  0  0  0  0
 21  5  1  0  0  0  0
 22  6  1  0  0  0  0
 23 16  1  0  0  0  0
 24 16  2  0  0  0  0
 25 24  1  0  0  0  0
 26 23  2  0  0  0  0
 27 25  2  0  0  0  0
  8 17  1  0  0  0  0
 27 26  1  0  0  0  0
  6  4  1  0  0  0  0
M  END
> <IDNUMBER>
F3083-0083

> <Chemical_Name>
1-[4-(benzenesulfonyl)piperazin-1-yl]-3-(4-bromo-3,5-dimethyl-1H-pyrazol-1-yl)propan-1-one

> <CAS>
890596-35-7

> <PriceCoeff>
1.00

> <MW>
455.37

> <Description>
solid

> <FSP3>
0.44

> <clogP>
3.14

> <TPSA>
83.89

> <Acceptor>
4

> <Donor>
0

> <RotBonds>
6

> <HAC>
27

> <Collection>
General

$$$$
F3205-0092
  -ISIS-  06222321152D

 22 23  0  0  0  0  0  0  0  0999 V2000
    0.0750   -0.3292    0.0000 N   0  0  3  0  0  0  0  0  0  0  0  0
    0.5542   -1.0042    0.0000 C   0  0  0  0  0  0  0  0  0  0  0  0
    0.5667    0.3333    0.0000 C   0  0  0  0  0  0  0  0  0  0  0  0
    1.3417   -0.7542    0.0000 C   0  0  3  0  0  0  0  0  0  0  0  0
    1.3542    0.0708    0.0000 C   0  0  0  0  0  0  0  0  0  0  0  0
    2.0542   -1.1750    0.0000 N   0  0  0  0  0  0  0  0  0  0  0  0
    0.2917   -1.7875    0.0000 O   0  0  0  0  0  0  0  0  0  0  0  0
    0.3167    1.1208    0.0000 O   0  0  0  0  0  0  0  0  0  0  0  0
    4.2042    0.0708    0.0000 C   0  0  0  0  0  0  0  0  0  0  0  0
    4.9167    0.4833    0.0000 N   0  0  3  0  0  0  0  0  0  0  0  0
   -0.7500   -0.3250    0.0000 C   0  0  0  0  0  0  0  0  0  0  0  0
    2.7750   -0.7625    0.0000 C   0  0  0  0  0  0  0  0  0  0  0  0
    3.4875    0.4833    0.0000 C   0  0  0  0  0  0  0  0  0  0  0  0
    4.2042   -0.7625    0.0000 C   0  0  0  0  0  0  0  0  0  0  0  0
    3.4875   -1.1750    0.0000 C   0  0  0  0  0  0  0  0  0  0  0  0
    2.7792    0.0708    0.0000 C   0  0  0  0  0  0  0  0  0  0  0  0
   -1.1583    0.3958    0.0000 C   0  0  0  0  0  0  0  0  0  0  0  0
   -2.3833    1.1208    0.0000 O   0  0  0  0  0  0  0  0  0  0  0  0
    5.6292    0.0750    0.0000 C   0  0  0  0  0  0  0  0  0  0  0  0
    4.9125    1.3083    0.0000 C   0  0  0  0  0  0  0  0  0  0  0  0
   -1.9833    0.4083    0.0000 C   0  0  0  0  0  0  0  0  0  0  0  0
   -3.2083    1.1333    0.0000 C   0  0  0  0  0  0  0  0  0  0  0  0
  2  1  1  0  0  0  0
  3  1  1  0  0  0  0
  4  2  1  0  0  0  0
  5  3  1  0  0  0  0
  6  4  1  0  0  0  0
  7  2  2  0  0  0  0
  8  3  2  0  0  0  0
  9 13  2  0  0  0  0
 10  9  1  0  0  0  0
 11  1  1  0  0  0  0
 12  6  1  0  0  0  0
 13 16  1  0  0  0  0
 14 15  2  0  0  0  0
 15 12  1  0  0  0  0
 16 12  2  0  0  0  0
 17 11  1  0  0  0  0
 18 21  1  0  0  0  0
 19 10  1  0  0  0  0
 20 10  1  0  0  0  0
 21 17  1  0  0  0  0
 22 18  1  0  0  0  0
  5  4  1  0  0  0  0
  9 14  1  0  0  0  0
M  END
> <IDNUMBER>
F3205-0092

> <Chemical_Name>
3-{[4-(dimethylamino)phenyl]amino}-1-(3-methoxypropyl)pyrrolidine-2,5-dione

> <CAS>
1009697-83-9

> <PriceCoeff>
1.00

> <MW>
305.37

> <Description>
solid

> <FSP3>
0.50

> <clogP>
2.26

> <TPSA>
61.88

> <Acceptor>
5

> <Donor>
2

> <RotBonds>
7

> <HAC>
22

> <Collection>
General

$$$$
F5610-0213
  -ISIS-  06222321152D

 26 28  0  0  0  0  0  0  0  0999 V2000
    2.8917    0.3500    0.0000 C   0  0  0  0  0  0  0  0  0  0  0  0
    1.9667   -1.2542    0.0000 N   0  0  0  0  0  0  0  0  0  0  0  0
    3.4917   -0.2167    0.0000 N   0  0  0  0  0  0  0  0  0  0  0  0
    2.0708    0.2333    0.0000 C   0  0  0  0  0  0  0  0  0  0  0  0
    2.7542   -1.4917    0.0000 C   0  0  0  0  0  0  0  0  0  0  0  0
    1.6625   -0.4792    0.0000 C   0  0  0  0  0  0  0  0  0  0  0  0
    3.4292   -1.0292    0.0000 C   0  0  3  0  0  0  0  0  0  0  0  0
    4.8667   -2.6917    0.0000 C   0  0  0  0  0  0  0  0  0  0  0  0
    3.1542    1.1458    0.0000 O   0  0  0  0  0  0  0  0  0  0  0  0
    2.8875   -2.3167    0.0000 O   0  0  0  0  0  0  0  0  0  0  0  0
    4.8667   -3.5167    0.0000 O   0  0  0  0  0  0  0  0  0  0  0  0
    4.1542   -1.4417    0.0000 C   0  0  0  0  0  0  0  0  0  0  0  0
    5.5875   -2.2792    0.0000 N   0  0  0  0  0  0  0  0  0  0  0  0
    4.1542   -2.2792    0.0000 C   0  0  0  0  0  0  0  0  0  0  0  0
    1.6625    0.9458    0.0000 C   0  0  0  0  0  0  0  0  0  0  0  0
    6.2917   -2.7167    0.0000 C   0  0  0  0  0  0  0  0  0  0  0  0
    0.8292   -0.4792    0.0000 C   0  0  0  0  0  0  0  0  0  0  0  0
    7.7125   -2.7667    0.0000 C   0  0  0  0  0  0  0  0  0  0  0  0
    7.0250   -2.3417    0.0000 C   0  0  0  0  0  0  0  0  0  0  0  0
    7.6917   -3.5917    0.0000 C   0  0  0  0  0  0  0  0  0  0  0  0
    8.4542   -2.3875    0.0000 C   0  0  0  0  0  0  0  0  0  0  0  0
    0.8292    0.9458    0.0000 C   0  0  0  0  0  0  0  0  0  0  0  0
    0.4167    0.2250    0.0000 C   0  0  0  0  0  0  0  0  0  0  0  0
    9.1542   -2.8250    0.0000 C   0  0  0  0  0  0  0  0  0  0  0  0
    8.4000   -4.0292    0.0000 C   0  0  0  0  0  0  0  0  0  0  0  0
    9.1375   -3.6500    0.0000 C   0  0  0  0  0  0  0  0  0  0  0  0
  2  6  1  0  0  0  0
  3  1  1  0  0  0  0
  4  1  1  0  0  0  0
  5  7  1  0  0  0  0
  6  4  1  0  0  0  0
  7  3  1  0  0  0  0
  8 14  1  0  0  0  0
  9  1  2  0  0  0  0
 10  5  2  0  0  0  0
 11  8  2  0  0  0  0
 12  7  1  0  0  0  0
 13  8  1  0  0  0  0
 14 12  1  0  0  0  0
 15  4  2  0  0  0  0
 16 13  1  0  0  0  0
 17  6  2  0  0  0  0
 18 19  1  0  0  0  0
 19 16  1  0  0  0  0
 20 18  1  0  0  0  0
 21 18  2  0  0  0  0
 22 15  1  0  0  0  0
 23 22  2  0  0  0  0
 24 21  1  0  0  0  0
 25 20  2  0  0  0  0
 26 24  2  0  0  0  0
  2  5  1  0  0  0  0
 17 23  1  0  0  0  0
 26 25  1  0  0  0  0
M  END
> <IDNUMBER>
F5610-0213

> <Chemical_Name>
3-(2,5-dioxo-2,3,4,5-tetrahydro-1H-1,4-benzodiazepin-3-yl)-N-(2-phenylethyl)propanamide

> <CAS>
1190844-90-6

> <PriceCoeff>
1.00

> <MW>
351.40

> <Description>
solid

> <FSP3>
0.25

> <clogP>
1.04

> <TPSA>
87.30

> <Acceptor>
3

> <Donor>
3

> <RotBonds>
6

> <HAC>
26

> <Collection>
General

> <Reference_compound>
CHEMBL510253

> <Similarity>
0.8510

$$$$
F3205-0039
  -ISIS-  06222321442D

 21 22  0  0  0  0  0  0  0  0999 V2000
    4.2417   -6.4875    0.0000 N   0  0  3  0  0  0  0  0  0  0  0  0
    4.7375   -7.1542    0.0000 C   0  0  0  0  0  0  0  0  0  0  0  0
    4.7292   -5.8167    0.0000 C   0  0  0  0  0  0  0  0  0  0  0  0
    5.5167   -6.8917    0.0000 C   0  0  3  0  0  0  0  0  0  0  0  0
    5.5167   -6.0667    0.0000 C   0  0  0  0  0  0  0  0  0  0  0  0
    6.1792   -7.3667    0.0000 N   0  0  0  0  0  0  0  0  0  0  0  0
    4.4792   -7.9375    0.0000 O   0  0  0  0  0  0  0  0  0  0  0  0
    4.4667   -5.0292    0.0000 O   0  0  0  0  0  0  0  0  0  0  0  0
    3.4250   -6.4917    0.0000 C   0  0  0  0  0  0  0  0  0  0  0  0
    6.9292   -7.0292    0.0000 C   0  0  0  0  0  0  0  0  0  0  0  0
    8.4292   -6.3542    0.0000 C   0  0  0  0  0  0  0  0  0  0  0  0
    7.6042   -7.5125    0.0000 C   0  0  0  0  0  0  0  0  0  0  0  0
    7.0125   -6.2167    0.0000 C   0  0  0  0  0  0  0  0  0  0  0  0
    8.3542   -7.1667    0.0000 C   0  0  0  0  0  0  0  0  0  0  0  0
    7.7542   -5.8750    0.0000 C   0  0  0  0  0  0  0  0  0  0  0  0
    3.0042   -5.7792    0.0000 C   0  0  0  0  0  0  0  0  0  0  0  0
    9.1792   -6.0125    0.0000 O   0  0  0  0  0  0  0  0  0  0  0  0
    1.7625   -5.0750    0.0000 O   0  0  0  0  0  0  0  0  0  0  0  0
    2.1792   -5.7875    0.0000 C   0  0  0  0  0  0  0  0  0  0  0  0
    9.8542   -6.4917    0.0000 C   0  0  0  0  0  0  0  0  0  0  0  0
    0.9375   -5.0792    0.0000 C   0  0  0  0  0  0  0  0  0  0  0  0
  2  1  1  0  0  0  0
  3  1  1  0  0  0  0
  4  2  1  0  0  0  0
  5  3  1  0  0  0  0
  6  4  1  0  0  0  0
  7  2  2  0  0  0  0
  8  3  2  0  0  0  0
  9  1  1  0  0  0  0
 10  6  1  0  0  0  0
 11 15  1  0  0  0  0
 12 10  2  0  0  0  0
 13 10  1  0  0  0  0
 14 12  1  0  0  0  0
 15 13  2  0  0  0  0
 16  9  1  0  0  0  0
 17 11  1  0  0  0  0
 18 19  1  0  0  0  0
 19 16  1  0  0  0  0
 20 17  1  0  0  0  0
 21 18  1  0  0  0  0
  5  4  1  0  0  0  0
 14 11  2  0  0  0  0
M  END
> <IDNUMBER>
F3205-0039

> <Chemical_Name>
3-[(4-methoxyphenyl)amino]-1-(3-methoxypropyl)pyrrolidine-2,5-dione

> <CAS>
1009339-08-5

> <PriceCoeff>
1.00

> <MW>
292.33

> <Description>
solid

> <FSP3>
0.47

> <clogP>
2.20

> <TPSA>
67.87

> <Acceptor>
5

> <Donor>
1

> <RotBonds>
7

> <HAC>
21

> <Collection>
General

$$$$
F3325-0153
  -ISIS-  06222321442D

 27 30  0  0  0  0  0  0  0  0999 V2000
    2.0042   -2.4417    0.0000 N   0  0  3  0  0  0  0  0  0  0  0  0
    2.5292   -3.0875    0.0000 C   0  0  0  0  0  0  0  0  0  0  0  0
    2.4625   -1.7417    0.0000 C   0  0  0  0  0  0  0  0  0  0  0  0
    3.3042   -2.7917    0.0000 C   0  0  3  0  0  0  0  0  0  0  0  0
    3.2667   -1.9667    0.0000 C   0  0  0  0  0  0  0  0  0  0  0  0
    1.1875   -2.4792    0.0000 C   0  0  0  0  0  0  0  0  0  0  0  0
    4.0417   -3.1667    0.0000 N   0  0  3  0  0  0  0  0  0  0  0  0
    5.5042   -3.9167    0.0000 N   0  0  3  0  0  0  0  0  0  0  0  0
    0.7417   -1.7792    0.0000 C   0  0  0  0  0  0  0  0  0  0  0  0
    2.3167   -3.8792    0.0000 O   0  0  0  0  0  0  0  0  0  0  0  0
    0.8167   -3.2125    0.0000 C   0  0  0  0  0  0  0  0  0  0  0  0
    2.1667   -0.9750    0.0000 O   0  0  0  0  0  0  0  0  0  0  0  0
    4.7292   -2.7167    0.0000 C   0  0  0  0  0  0  0  0  0  0  0  0
    4.0792   -3.9875    0.0000 C   0  0  0  0  0  0  0  0  0  0  0  0
    4.8042   -4.3625    0.0000 C   0  0  0  0  0  0  0  0  0  0  0  0
    5.4625   -3.0917    0.0000 C   0  0  0  0  0  0  0  0  0  0  0  0
   -0.0833   -1.8250    0.0000 C   0  0  0  0  0  0  0  0  0  0  0  0
    6.2292   -4.2917    0.0000 C   0  0  0  0  0  0  0  0  0  0  0  0
   -0.0083   -3.2542    0.0000 C   0  0  0  0  0  0  0  0  0  0  0  0
   -0.4583   -2.5625    0.0000 C   0  0  0  0  0  0  0  0  0  0  0  0
    1.1167   -1.0542    0.0000 C   0  0  0  0  0  0  0  0  0  0  0  0
    6.9250   -3.8500    0.0000 C   0  0  0  0  0  0  0  0  0  0  0  0
    6.2667   -5.1167    0.0000 C   0  0  0  0  0  0  0  0  0  0  0  0
   -1.2833   -2.6042    0.0000 C   0  0  0  0  0  0  0  0  0  0  0  0
    7.6542   -4.2167    0.0000 C   0  0  0  0  0  0  0  0  0  0  0  0
    7.0042   -5.4917    0.0000 C   0  0  0  0  0  0  0  0  0  0  0  0
    7.7000   -5.0500    0.0000 C   0  0  0  0  0  0  0  0  0  0  0  0
  2  1  1  0  0  0  0
  3  1  1  0  0  0  0
  4  2  1  0  0  0  0
  5  3  1  0  0  0  0
  6  1  1  0  0  0  0
  7  4  1  0  0  0  0
  8 15  1  0  0  0  0
  9  6  2  0  0  0  0
 10  2  2  0  0  0  0
 11  6  1  0  0  0  0
 12  3  2  0  0  0  0
 13  7  1  0  0  0  0
 14  7  1  0  0  0  0
 15 14  1  0  0  0  0
 16 13  1  0  0  0  0
 17  9  1  0  0  0  0
 18  8  1  0  0  0  0
 19 11  2  0  0  0  0
 20 19  1  0  0  0  0
 21  9  1  0  0  0  0
 22 18  1  0  0  0  0
 23 18  2  0  0  0  0
 24 20  1  0  0  0  0
 25 22  2  0  0  0  0
 26 23  1  0  0  0  0
 27 26  2  0  0  0  0
  5  4  1  0  0  0  0
 17 20  2  0  0  0  0
 16  8  1  0  0  0  0
 27 25  1  0  0  0  0
M  END
> <IDNUMBER>
F3325-0153

> <Chemical_Name>
1-(2,4-dimethylphenyl)-3-(4-phenylpiperazin-1-yl)pyrrolidine-2,5-dione

> <CAS>
313377-73-0

> <PriceCoeff>
1.00

> <MW>
363.45

> <Description>
solid

> <FSP3>
0.36

> <clogP>
3.74

> <TPSA>
43.86

> <Acceptor>
3

> <Donor>
2

> <RotBonds>
3

> <HAC>
27

> <Collection>
General

$$$$
F6401-0048
  -ISIS-  06222321462D

 25 28  0  0  0  0  0  0  0  0999 V2000
    5.0375   -1.2417    0.0000 N   0  0  3  0  0  0  0  0  0  0  0  0
    7.3292    0.4250    0.0000 N   0  0  3  0  0  0  0  0  0  0  0  0
    4.2917   -0.5792    0.0000 C   0  0  0  0  0  0  0  0  0  0  0  0
    4.8292   -2.2167    0.0000 C   0  0  0  0  0  0  0  0  0  0  0  0
    6.3792    0.1125    0.0000 C   0  0  0  0  0  0  0  0  0  0  0  0
    6.1750   -0.8667    0.0000 C   0  0  0  0  0  0  0  0  0  0  0  0
    7.6417    1.3750    0.0000 C   0  0  0  0  0  0  0  0  0  0  0  0
    3.1375   -1.8667    0.0000 C   0  0  3  0  0  0  0  0  0  0  0  0
    2.1875   -2.1792    0.0000 C   0  0  0  0  0  0  0  0  0  0  0  0
    3.8875   -2.5292    0.0000 C   0  0  0  0  0  0  0  0  0  0  0  0
    3.3417   -0.8875    0.0000 C   0  0  0  0  0  0  0  0  0  0  0  0
    8.1500   -0.1667    0.0000 C   0  0  0  0  0  0  0  0  0  0  0  0
    1.8792   -3.1417    0.0000 S   0  0  0  0  0  0  0  0  0  0  0  0
    4.4167    0.0083    0.0000 O   0  0  0  0  0  0  0  0  0  0  0  0
    5.5792   -2.8875    0.0000 O   0  0  0  0  0  0  0  0  0  0  0  0
    8.6500    1.3750    0.0000 C   0  0  0  0  0  0  0  0  0  0  0  0
    5.6417    0.7750    0.0000 O   0  0  0  0  0  0  0  0  0  0  0  0
    1.3792   -1.6000    0.0000 C   0  0  0  0  0  0  0  0  0  0  0  0
    0.8792   -3.1417    0.0000 C   0  0  0  0  0  0  0  0  0  0  0  0
    8.9542    0.4250    0.0000 C   0  0  0  0  0  0  0  0  0  0  0  0
    0.5667   -2.1792    0.0000 C   0  0  0  0  0  0  0  0  0  0  0  0
    7.1417    2.2458    0.0000 C   0  0  0  0  0  0  0  0  0  0  0  0
    9.1417    2.2375    0.0000 C   0  0  0  0  0  0  0  0  0  0  0  0
    7.6500    3.1083    0.0000 C   0  0  0  0  0  0  0  0  0  0  0  0
    8.6542    3.1083    0.0000 C   0  0  0  0  0  0  0  0  0  0  0  0
  2  5  1  0  0  0  0
  3  1  1  0  0  0  0
  4  1  1  0  0  0  0
  5  6  1  0  0  0  0
  6  1  1  0  0  0  0
  7  2  1  0  0  0  0
  8 10  1  0  0  0  0
  9  8  1  0  0  0  0
 10  4  1  0  0  0  0
 11  3  1  0  0  0  0
 12  2  1  0  0  0  0
 13  9  1  0  0  0  0
 14  3  2  0  0  0  0
 15  4  2  0  0  0  0
 16  7  2  0  0  0  0
 17  5  2  0  0  0  0
 18  9  2  0  0  0  0
 19 13  1  0  0  0  0
 20 12  1  0  0  0  0
 21 18  1  0  0  0  0
 22  7  1  0  0  0  0
 23 16  1  0  0  0  0
 24 22  2  0  0  0  0
 25 24  1  0  0  0  0
 11  8  1  0  0  0  0
 20 16  1  0  0  0  0
 21 19  2  0  0  0  0
 25 23  2  0  0  0  0
M  END
> <IDNUMBER>
F6401-0048

> <Chemical_Name>
1-[2-(2,3-dihydro-1H-indol-1-yl)-2-oxoethyl]-4-(thiophen-2-yl)piperidine-2,6-dione

> <CAS>
1396860-46-0

> <PriceCoeff>
1.00

> <MW>
354.42

> <Description>
solid

> <FSP3>
0.32

> <clogP>
2.83

> <TPSA>
85.93

> <Acceptor>
3

> <Donor>
0

> <RotBonds>
4

> <HAC>
25

> <Collection>
General

$$$$
F3325-0108
  -ISIS-  06222321152D

 27 30  0  0  0  0  0  0  0  0999 V2000
    4.8792   -1.3250    0.0000 N   0  0  3  0  0  0  0  0  0  0  0  0
    5.3667   -1.9917    0.0000 C   0  0  0  0  0  0  0  0  0  0  0  0
    5.3625   -0.6542    0.0000 C   0  0  0  0  0  0  0  0  0  0  0  0
    6.1542   -1.7292    0.0000 C   0  0  3  0  0  0  0  0  0  0  0  0
    6.1417   -0.9042    0.0000 C   0  0  0  0  0  0  0  0  0  0  0  0
    6.8167   -2.2125    0.0000 N   0  0  3  0  0  0  0  0  0  0  0  0
    4.0542   -1.3292    0.0000 C   0  0  0  0  0  0  0  0  0  0  0  0
    8.1542   -3.1750    0.0000 N   0  0  3  0  0  0  0  0  0  0  0  0
    5.1167   -2.7750    0.0000 O   0  0  0  0  0  0  0  0  0  0  0  0
    8.8250   -3.6542    0.0000 C   0  0  0  0  0  0  0  0  0  0  0  0
    5.1042    0.1333    0.0000 O   0  0  0  0  0  0  0  0  0  0  0  0
    6.7292   -3.0292    0.0000 C   0  0  0  0  0  0  0  0  0  0  0  0
    7.5667   -1.8667    0.0000 C   0  0  0  0  0  0  0  0  0  0  0  0
    8.2375   -2.3542    0.0000 C   0  0  0  0  0  0  0  0  0  0  0  0
    7.4000   -3.5125    0.0000 C   0  0  0  0  0  0  0  0  0  0  0  0
    3.6417   -0.6167    0.0000 C   0  0  0  0  0  0  0  0  0  0  0  0
    8.7375   -4.4792    0.0000 C   0  0  0  0  0  0  0  0  0  0  0  0
    9.5667   -3.3167    0.0000 C   0  0  0  0  0  0  0  0  0  0  0  0
   10.1542   -4.6250    0.0000 C   0  0  0  0  0  0  0  0  0  0  0  0
   10.2417   -3.8000    0.0000 C   0  0  0  0  0  0  0  0  0  0  0  0
    9.4042   -4.9625    0.0000 C   0  0  0  0  0  0  0  0  0  0  0  0
   10.8250   -5.1042    0.0000 F   0  0  0  0  0  0  0  0  0  0  0  0
    3.6500   -2.0417    0.0000 C   0  0  0  0  0  0  0  0  0  0  0  0
    4.0500    0.0958    0.0000 C   0  0  0  0  0  0  0  0  0  0  0  0
    2.8167   -0.6250    0.0000 C   0  0  0  0  0  0  0  0  0  0  0  0
    2.8292   -2.0542    0.0000 C   0  0  0  0  0  0  0  0  0  0  0  0
    2.4042   -1.3417    0.0000 C   0  0  0  0  0  0  0  0  0  0  0  0
  2  1  1  0  0  0  0
  3  1  1  0  0  0  0
  4  2  1  0  0  0  0
  5  3  1  0  0  0  0
  6  4  1  0  0  0  0
  7  1  1  0  0  0  0
  8 14  1  0  0  0  0
  9  2  2  0  0  0  0
 10  8  1  0  0  0  0
 11  3  2  0  0  0  0
 12  6  1  0  0  0  0
 13  6  1  0  0  0  0
 14 13  1  0  0  0  0
 15 12  1  0  0  0  0
 16  7  2  0  0  0  0
 17 10  2  0  0  0  0
 18 10  1  0  0  0  0
 19 20  1  0  0  0  0
 20 18  2  0  0  0  0
 21 17  1  0  0  0  0
 22 19  1  0  0  0  0
 23  7  1  0  0  0  0
 24 16  1  0  0  0  0
 25 16  1  0  0  0  0
 26 23  2  0  0  0  0
 27 26  1  0  0  0  0
  4  5  1  0  0  0  0
 25 27  2  0  0  0  0
 15  8  1  0  0  0  0
 21 19  2  0  0  0  0
M  END
> <IDNUMBER>
F3325-0108

> <Chemical_Name>
3-[4-(4-fluorophenyl)piperazin-1-yl]-1-(2-methylphenyl)pyrrolidine-2,5-dione

> <CAS>
924861-16-5

> <PriceCoeff>
1.00

> <MW>
367.42

> <Description>
solid

> <FSP3>
0.33

> <clogP>
3.56

> <TPSA>
43.86

> <Acceptor>
3

> <Donor>
2

> <RotBonds>
3

> <HAC>
27

> <Collection>
General

$$$$
F5065-0059
  -ISIS-  06222321462D

 28 31  0  0  0  0  0  0  0  0999 V2000
   -3.3125   -1.1417    0.0000 C   0  0  0  0  0  0  0  0  0  0  0  0
   -4.0958   -0.8917    0.0000 N   0  0  0  0  0  0  0  0  0  0  0  0
   -3.3083   -1.9667    0.0000 C   0  0  0  0  0  0  0  0  0  0  0  0
   -4.5833   -1.5625    0.0000 N   0  0  0  0  0  0  0  0  0  0  0  0
   -4.0958   -2.2292    0.0000 N   0  0  3  0  0  0  0  0  0  0  0  0
   -2.5958   -0.7292    0.0000 C   0  0  0  0  0  0  0  0  0  0  0  0
   -2.6000    2.5625    0.0000 C   0  0  0  0  0  0  0  0  0  0  0  0
   -2.6000    1.7375    0.0000 N   0  0  3  0  0  0  0  0  0  0  0  0
   -2.6000    0.0875    0.0000 N   0  0  3  0  0  0  0  0  0  0  0  0
   -2.5958   -2.3792    0.0000 N   0  0  0  0  0  0  0  0  0  0  0  0
   -1.8833   -1.1417    0.0000 N   0  0  0  0  0  0  0  0  0  0  0  0
   -1.8833    2.9833    0.0000 N   0  0  0  0  0  0  0  0  0  0  0  0
   -0.4583    1.3208    0.0000 C   0  0  0  0  0  0  0  0  0  0  0  0
   -1.1708    1.7333    0.0000 C   0  0  0  0  0  0  0  0  0  0  0  0
   -1.8833   -1.9667    0.0000 C   0  0  0  0  0  0  0  0  0  0  0  0
   -1.1708    2.5625    0.0000 C   0  0  0  0  0  0  0  0  0  0  0  0
   -3.3125    2.9833    0.0000 O   0  0  0  0  0  0  0  0  0  0  0  0
   -1.8875    1.3250    0.0000 C   0  0  0  0  0  0  0  0  0  0  0  0
   -3.3208    1.3250    0.0000 C   0  0  0  0  0  0  0  0  0  0  0  0
   -1.8833    0.5000    0.0000 C   0  0  0  0  0  0  0  0  0  0  0  0
   -3.3208    0.4958    0.0000 C   0  0  0  0  0  0  0  0  0  0  0  0
    0.2667    1.7333    0.0000 C   0  0  0  0  0  0  0  0  0  0  0  0
    0.2667    2.5500    0.0000 C   0  0  0  0  0  0  0  0  0  0  0  0
   -0.4583    0.4958    0.0000 Cl  0  0  0  0  0  0  0  0  0  0  0  0
   -0.4458    2.9833    0.0000 C   0  0  0  0  0  0  0  0  0  0  0  0
    0.9792    1.3208    0.0000 Cl  0  0  0  0  0  0  0  0  0  0  0  0
   -4.3458   -3.0125    0.0000 C   0  0  0  0  0  0  0  0  0  0  0  0
   -3.7875   -3.6250    0.0000 C   0  0  0  0  0  0  0  0  0  0  0  0
  2  1  1  0  0  0  0
  3  1  2  0  0  0  0
  4  2  2  0  0  0  0
  5  3  1  0  0  0  0
  6  1  1  0  0  0  0
  7  8  1  0  0  0  0
  8 19  1  0  0  0  0
  9  6  1  0  0  0  0
 10  3  1  0  0  0  0
 11  6  2  0  0  0  0
 12  7  1  0  0  0  0
 13 14  1  0  0  0  0
 14 16  2  0  0  0  0
 15 11  1  0  0  0  0
 16 12  1  0  0  0  0
 17  7  2  0  0  0  0
 18 20  1  0  0  0  0
 19 21  1  0  0  0  0
 20  9  1  0  0  0  0
 21  9  1  0  0  0  0
 22 23  1  0  0  0  0
 23 25  2  0  0  0  0
 24 13  1  0  0  0  0
 25 16  1  0  0  0  0
 26 22  1  0  0  0  0
 27  5  1  0  0  0  0
 28 27  1  0  0  0  0
  5  4  1  0  0  0  0
 15 10  2  0  0  0  0
  8 18  1  0  0  0  0
 22 13  2  0  0  0  0
M  END
> <IDNUMBER>
F5065-0059

> <Chemical_Name>
N-(3,4-dichlorophenyl)-4-{3-ethyl-3H-[1,2,3]triazolo[4,5-d]pyrimidin-7-yl}piperazine-1-carboxamide

> <CAS>
1060163-33-8

> <PriceCoeff>
1.50

> <MW>
421.28

> <Description>
solid

> <FSP3>
0.35

> <clogP>
2.89

> <TPSA>
92.07

> <Acceptor>
5

> <Donor>
2

> <RotBonds>
4

> <HAC>
28

> <Collection>
Advanced

$$$$
F1318-0212
  -ISIS-  06222321452D

 18 19  0  0  0  0  0  0  0  0999 V2000
    7.3250   -7.2167    0.0000 N   0  3  0  0  0  0  0  0  0  0  0  0
   10.2167   -5.0917    0.0000 C   0  0  0  0  0  0  0  0  0  0  0  0
   11.0500   -5.0917    0.0000 N   0  0  3  0  0  0  0  0  0  0  0  0
    7.7417   -6.5042    0.0000 C   0  0  0  0  0  0  0  0  0  0  0  0
    9.7917   -5.7917    0.0000 O   0  0  0  0  0  0  0  0  0  0  0  0
    8.5625   -6.5042    0.0000 C   0  0  0  0  0  0  0  0  0  0  0  0
    6.5000   -7.2167    0.0000 O   0  5  0  0  0  0  0  0  0  0  0  0
    7.7417   -7.9292    0.0000 O   0  0  0  0  0  0  0  0  0  0  0  0
    9.7917   -4.3667    0.0000 O   0  0  0  0  0  0  0  0  0  0  0  0
    8.9667   -5.7917    0.0000 C   0  0  0  0  0  0  0  0  0  0  0  0
   11.4667   -4.3667    0.0000 C   0  0  0  0  0  0  0  0  0  0  0  0
   11.4792   -5.8042    0.0000 C   0  0  0  0  0  0  0  0  0  0  0  0
    7.3292   -5.7917    0.0000 C   0  0  0  0  0  0  0  0  0  0  0  0
    7.7417   -5.0875    0.0000 C   0  0  0  0  0  0  0  0  0  0  0  0
    8.5625   -5.0875    0.0000 C   0  0  0  0  0  0  0  0  0  0  0  0
   12.3042   -4.3667    0.0000 C   0  0  0  0  0  0  0  0  0  0  0  0
   12.3042   -5.8042    0.0000 C   0  0  0  0  0  0  0  0  0  0  0  0
   12.7167   -5.0917    0.0000 C   0  0  0  0  0  0  0  0  0  0  0  0
  2  5  1  0  0  0  0
  3  2  1  0  0  0  0
  4  1  1  0  0  0  0
  5 10  1  0  0  0  0
  6  4  2  0  0  0  0
  7  1  1  0  0  0  0
  8  1  2  0  0  0  0
  9  2  2  0  0  0  0
 10  6  1  0  0  0  0
 11  3  1  0  0  0  0
 12  3  1  0  0  0  0
 13  4  1  0  0  0  0
 14 13  2  0  0  0  0
 15 14  1  0  0  0  0
 16 11  1  0  0  0  0
 17 12  1  0  0  0  0
 18 17  1  0  0  0  0
 15 10  2  0  0  0  0
 18 16  1  0  0  0  0
M  CHG  2   1   1   7  -1
M  END
> <IDNUMBER>
F1318-0212

> <Chemical_Name>
3-nitrophenyl piperidine-1-carboxylate

> <CAS>
501104-92-3

> <PriceCoeff>
1.00

> <MW>
250.25

> <Description>
solid

> <FSP3>
0.42

> <clogP>
2.66

> <TPSA>
72.68

> <Acceptor>
4

> <Donor>
0

> <RotBonds>
4

> <HAC>
18

> <Collection>
General

> <Reference_compound>
CHEMBL2288473

> <Similarity>
0.8600

$$$$
F3385-3831
  -ISIS-  06222321462D

 26 29  0  0  0  0  0  0  0  0999 V2000
    5.1167   -2.0167    0.0000 C   0  0  0  0  0  0  0  0  0  0  0  0
    4.3917   -2.4292    0.0000 C   0  0  0  0  0  0  0  0  0  0  0  0
    3.6750   -2.0167    0.0000 C   0  0  0  0  0  0  0  0  0  0  0  0
    5.1167   -1.1875    0.0000 C   0  0  0  0  0  0  0  0  0  0  0  0
    3.6792   -1.1875    0.0000 C   0  0  0  0  0  0  0  0  0  0  0  0
    4.3917   -0.7667    0.0000 O   0  0  0  0  0  0  0  0  0  0  0  0
    2.9625   -2.4292    0.0000 C   0  0  0  0  0  0  0  0  0  0  0  0
    2.9625   -0.7750    0.0000 C   0  0  0  0  0  0  0  0  0  0  0  0
   -0.6083   -1.1917    0.0000 N   0  0  3  0  0  0  0  0  0  0  0  0
    5.8250   -2.4375    0.0000 C   0  0  0  0  0  0  0  0  0  0  0  0
    4.3917   -3.2542    0.0000 O   0  0  0  0  0  0  0  0  0  0  0  0
   -2.0458   -2.0042    0.0000 O   0  0  0  0  0  0  0  0  0  0  0  0
    2.2500   -1.1875    0.0000 C   0  0  0  0  0  0  0  0  0  0  0  0
    2.2500   -2.0167    0.0000 C   0  0  0  0  0  0  0  0  0  0  0  0
    1.5375   -0.7750    0.0000 O   0  0  0  0  0  0  0  0  0  0  0  0
    0.1042   -0.7792    0.0000 C   0  0  0  0  0  0  0  0  0  0  0  0
    0.8167   -1.1917    0.0000 C   0  0  0  0  0  0  0  0  0  0  0  0
   -0.6083   -2.0125    0.0000 C   0  0  0  0  0  0  0  0  0  0  0  0
   -1.3250   -0.7750    0.0000 C   0  0  0  0  0  0  0  0  0  0  0  0
   -2.0375   -1.1792    0.0000 C   0  0  0  0  0  0  0  0  0  0  0  0
   -1.3250   -2.4167    0.0000 C   0  0  0  0  0  0  0  0  0  0  0  0
    5.8167   -3.2625    0.0000 C   0  0  0  0  0  0  0  0  0  0  0  0
    6.5375   -2.0250    0.0000 C   0  0  0  0  0  0  0  0  0  0  0  0
    7.2500   -2.4375    0.0000 C   0  0  0  0  0  0  0  0  0  0  0  0
    6.5292   -3.6750    0.0000 C   0  0  0  0  0  0  0  0  0  0  0  0
    7.2500   -3.2667    0.0000 C   0  0  0  0  0  0  0  0  0  0  0  0
  2  1  1  0  0  0  0
  3  2  1  0  0  0  0
  4  1  2  0  0  0  0
  5  6  1  0  0  0  0
  6  4  1  0  0  0  0
  7  3  2  0  0  0  0
  8  5  2  0  0  0  0
  9 16  1  0  0  0  0
 10  1  1  0  0  0  0
 11  2  2  0  0  0  0
 12 20  1  0  0  0  0
 13  8  1  0  0  0  0
 14  7  1  0  0  0  0
 15 13  1  0  0  0  0
 16 17  1  0  0  0  0
 17 15  1  0  0  0  0
 18  9  1  0  0  0  0
 19  9  1  0  0  0  0
 20 19  1  0  0  0  0
 21 18  1  0  0  0  0
 22 10  2  0  0  0  0
 23 10  1  0  0  0  0
 24 23  2  0  0  0  0
 25 22  1  0  0  0  0
 26 24  1  0  0  0  0
  3  5  1  0  0  0  0
 26 25  2  0  0  0  0
 14 13  2  0  0  0  0
 12 21  1  0  0  0  0
M  END
> <IDNUMBER>
F3385-3831

> <Chemical_Name>
7-[2-(morpholin-4-yl)ethoxy]-3-phenyl-4H-chromen-4-one

> <CAS>
903184-91-8

> <PriceCoeff>
1.00

> <MW>
351.40

> <Description>
solid

> <FSP3>
0.29

> <clogP>
3.21

> <TPSA>
48.00

> <Acceptor>
4

> <Donor>
1

> <RotBonds>
5

> <HAC>
26

> <Collection>
General

> <Reference_compound>
CHEMBL44

> <Similarity>
0.8270

$$$$
F0266-0124
  -ISIS-  06222321442D

 14 14  0  0  0  0  0  0  0  0999 V2000
   -0.6458    0.6333    0.0000 C   0  0  0  0  0  0  0  0  0  0  0  0
   -1.7000    0.0125    0.0000 C   0  0  0  0  0  0  0  0  0  0  0  0
   -0.6458    1.8500    0.0000 O   0  0  0  0  0  0  0  0  0  0  0  0
   -2.7625    0.6125    0.0000 C   0  0  0  0  0  0  0  0  0  0  0  0
   -1.7000   -1.2042    0.0000 C   0  0  0  0  0  0  0  0  0  0  0  0
    0.4000    0.0125    0.0000 O   0  0  0  0  0  0  0  0  0  0  0  0
   -3.8208   -1.2042    0.0000 C   0  0  0  0  0  0  0  0  0  0  0  0
   -3.8208    0.0125    0.0000 C   0  0  0  0  0  0  0  0  0  0  0  0
   -2.7625   -1.8000    0.0000 C   0  0  0  0  0  0  0  0  0  0  0  0
   -4.8708   -1.8500    0.0000 O   0  0  0  0  0  0  0  0  0  0  0  0
    1.4500    0.6333    0.0000 C   0  0  0  0  0  0  0  0  0  0  0  0
    2.5000    0.0125    0.0000 C   0  0  0  0  0  0  0  0  0  0  0  0
    3.5500    0.6125    0.0000 C   0  0  0  0  0  0  0  0  0  0  0  0
    4.6000   -0.0000    0.0000 C   0  0  0  0  0  0  0  0  0  0  0  0
  2  1  1  0  0  0  0
  3  1  2  0  0  0  0
  4  2  1  0  0  0  0
  5  2  2  0  0  0  0
  6  1  1  0  0  0  0
  7  9  2  0  0  0  0
  8  4  2  0  0  0  0
  9  5  1  0  0  0  0
 10  7  1  0  0  0  0
 11  6  1  0  0  0  0
 12 11  1  0  0  0  0
 13 12  1  0  0  0  0
 14 13  1  0  0  0  0
  8  7  1  0  0  0  0
M  END
> <IDNUMBER>
F0266-0124

> <Chemical_Name>
butyl 4-hydroxybenzoate

> <CAS>
94-26-8

> <PriceCoeff>
1.00

> <MW>
194.23

> <Description>
solid

> <FSP3>
0.36

> <clogP>
3.57

> <TPSA>
46.53

> <Acceptor>
3

> <Donor>
1

> <RotBonds>
5

> <HAC>
14

> <Collection>
General

> <Reference_compound>
CHEMBL129353

> <Similarity>
0.8800

$$$$
F0440-0329
  -ISIS-  06222321142D

 21 23  0  0  0  0  0  0  0  0999 V2000
   -0.3000   -0.6500    0.0000 C   0  0  0  0  0  0  0  0  0  0  0  0
    2.1042   -2.0500    0.0000 N   0  0  3  0  0  0  0  0  0  0  0  0
   -0.7625   -1.3000    0.0000 N   0  0  0  0  0  0  0  0  0  0  0  0
   -0.7625   -0.0000    0.0000 S   0  0  0  0  0  0  0  0  0  0  0  0
    0.5042   -0.6500    0.0000 N   0  0  0  0  0  0  0  0  0  0  0  0
    2.9000   -2.2292    0.0000 C   0  0  0  0  0  0  0  0  0  0  0  0
    1.7042   -2.7500    0.0000 C   0  0  0  0  0  0  0  0  0  0  0  0
   -1.5458   -0.2292    0.0000 C   0  0  0  0  0  0  0  0  0  0  0  0
   -1.5458   -1.0500    0.0000 C   0  0  0  0  0  0  0  0  0  0  0  0
    0.9042   -1.3500    0.0000 C   0  0  0  0  0  0  0  0  0  0  0  0
    1.7042   -1.3500    0.0000 C   0  0  0  0  0  0  0  0  0  0  0  0
   -2.2458    0.1625    0.0000 C   0  0  0  0  0  0  0  0  0  0  0  0
    2.9667   -3.0292    0.0000 C   0  0  0  0  0  0  0  0  0  0  0  0
    2.2500   -3.3500    0.0000 C   0  0  0  0  0  0  0  0  0  0  0  0
    3.5042   -1.7000    0.0000 O   0  0  0  0  0  0  0  0  0  0  0  0
    0.9000   -2.8500    0.0000 O   0  0  0  0  0  0  0  0  0  0  0  0
    0.5042   -2.0500    0.0000 O   0  0  0  0  0  0  0  0  0  0  0  0
   -2.2458   -1.4500    0.0000 C   0  0  0  0  0  0  0  0  0  0  0  0
   -2.9458   -0.2500    0.0000 C   0  0  0  0  0  0  0  0  0  0  0  0
   -2.9458   -1.0292    0.0000 C   0  0  0  0  0  0  0  0  0  0  0  0
   -3.6625    0.1458    0.0000 F   0  0  0  0  0  0  0  0  0  0  0  0
  2 11  1  0  0  0  0
  3  1  2  0  0  0  0
  4  1  1  0  0  0  0
  5  1  1  0  0  0  0
  6  2  1  0  0  0  0
  7  2  1  0  0  0  0
  8  4  1  0  0  0  0
  9  3  1  0  0  0  0
 10  5  1  0  0  0  0
 11 10  1  0  0  0  0
 12  8  1  0  0  0  0
 13  6  1  0  0  0  0
 14  7  1  0  0  0  0
 15  6  2  0  0  0  0
 16  7  2  0  0  0  0
 17 10  2  0  0  0  0
 18  9  1  0  0  0  0
 19 12  2  0  0  0  0
 20 18  2  0  0  0  0
 21 19  1  0  0  0  0
  9  8  2  0  0  0  0
 20 19  1  0  0  0  0
 14 13  1  0  0  0  0
M  END
> <IDNUMBER>
F0440-0329

> <Chemical_Name>
2-(2,5-dioxopyrrolidin-1-yl)-N-(6-fluoro-1,3-benzothiazol-2-yl)acetamide

> <CAS>
476308-64-2

> <PriceCoeff>
1.00

> <MW>
307.30

> <Description>
solid

> <FSP3>
0.23

> <clogP>
1.59

> <TPSA>
107.61

> <Acceptor>
4

> <Donor>
1

> <RotBonds>
3

> <HAC>
21

> <Collection>
General

$$$$
F3205-0034
  -ISIS-  06222321152D

 25 27  0  0  0  0  0  0  0  0999 V2000
    5.3792   -5.9667    0.0000 N   0  0  3  0  0  0  0  0  0  0  0  0
    5.8750   -6.6375    0.0000 C   0  0  0  0  0  0  0  0  0  0  0  0
    5.8667   -5.3000    0.0000 C   0  0  0  0  0  0  0  0  0  0  0  0
    6.6542   -6.3750    0.0000 C   0  0  3  0  0  0  0  0  0  0  0  0
    6.6542   -5.5500    0.0000 C   0  0  0  0  0  0  0  0  0  0  0  0
   10.3167   -5.4917    0.0000 N   0  0  3  0  0  0  0  0  0  0  0  0
    7.3167   -6.8542    0.0000 N   0  0  0  0  0  0  0  0  0  0  0  0
    9.5667   -5.8375    0.0000 C   0  0  0  0  0  0  0  0  0  0  0  0
    5.6167   -7.4167    0.0000 O   0  0  0  0  0  0  0  0  0  0  0  0
    5.6042   -4.5167    0.0000 O   0  0  0  0  0  0  0  0  0  0  0  0
   11.8167   -4.8167    0.0000 O   0  0  0  0  0  0  0  0  0  0  0  0
    4.5625   -5.9750    0.0000 C   0  0  0  0  0  0  0  0  0  0  0  0
    9.4917   -6.6542    0.0000 C   0  0  0  0  0  0  0  0  0  0  0  0
    8.8917   -5.3542    0.0000 C   0  0  0  0  0  0  0  0  0  0  0  0
    8.0667   -6.5167    0.0000 C   0  0  0  0  0  0  0  0  0  0  0  0
    8.1500   -5.7000    0.0000 C   0  0  0  0  0  0  0  0  0  0  0  0
    8.7417   -6.9917    0.0000 C   0  0  0  0  0  0  0  0  0  0  0  0
   10.9917   -5.9792    0.0000 C   0  0  0  0  0  0  0  0  0  0  0  0
   10.3917   -4.6750    0.0000 C   0  0  0  0  0  0  0  0  0  0  0  0
    4.1417   -5.2625    0.0000 C   0  0  0  0  0  0  0  0  0  0  0  0
    2.9000   -4.5542    0.0000 O   0  0  0  0  0  0  0  0  0  0  0  0
   11.1500   -4.3375    0.0000 C   0  0  0  0  0  0  0  0  0  0  0  0
   11.7375   -5.6375    0.0000 C   0  0  0  0  0  0  0  0  0  0  0  0
    3.3167   -5.2667    0.0000 C   0  0  0  0  0  0  0  0  0  0  0  0
    2.0667   -4.5625    0.0000 C   0  0  0  0  0  0  0  0  0  0  0  0
  2  1  1  0  0  0  0
  3  1  1  0  0  0  0
  4  2  1  0  0  0  0
  5  3  1  0  0  0  0
  6  8  1  0  0  0  0
  7  4  1  0  0  0  0
  8 13  2  0  0  0  0
  9  2  2  0  0  0  0
 10  3  2  0  0  0  0
 11 22  1  0  0  0  0
 12  1  1  0  0  0  0
 13 17  1  0  0  0  0
 14 16  2  0  0  0  0
 15  7  1  0  0  0  0
 16 15  1  0  0  0  0
 17 15  2  0  0  0  0
 18  6  1  0  0  0  0
 19  6  1  0  0  0  0
 20 12  1  0  0  0  0
 21 24  1  0  0  0  0
 22 19  1  0  0  0  0
 23 18  1  0  0  0  0
 24 20  1  0  0  0  0
 25 21  1  0  0  0  0
  5  4  1  0  0  0  0
 14  8  1  0  0  0  0
 11 23  1  0  0  0  0
M  END
> <IDNUMBER>
F3205-0034

> <Chemical_Name>
1-(3-methoxypropyl)-3-{[4-(morpholin-4-yl)phenyl]amino}pyrrolidine-2,5-dione

> <CAS>
1009609-11-3

> <PriceCoeff>
1.00

> <MW>
347.41

> <Description>
solid

> <FSP3>
0.56

> <clogP>
1.55

> <TPSA>
71.11

> <Acceptor>
6

> <Donor>
2

> <RotBonds>
7

> <HAC>
25

> <Collection>
General

$$$$
F5577-0089
  -ISIS-  06222321152D

 23 25  0  0  0  0  0  0  0  0999 V2000
   -1.0083    2.5583    0.0000 C   0  0  0  0  0  0  0  0  0  0  0  0
   -2.4333    2.5583    0.0000 C   0  0  0  0  0  0  0  0  0  0  0  0
   -1.7208    2.9833    0.0000 C   0  0  0  0  0  0  0  0  0  0  0  0
   -2.4375    1.7333    0.0000 C   0  0  0  0  0  0  0  0  0  0  0  0
   -1.0083    1.7333    0.0000 C   0  0  0  0  0  0  0  0  0  0  0  0
   -1.7208    1.3208    0.0000 N   0  0  3  0  0  0  0  0  0  0  0  0
   -3.1500    1.3208    0.0000 C   0  0  0  0  0  0  0  0  0  0  0  0
   -3.8625    1.7333    0.0000 C   0  0  0  0  0  0  0  0  0  0  0  0
   -3.1500    2.9708    0.0000 C   0  0  0  0  0  0  0  0  0  0  0  0
   -0.2875    2.9708    0.0000 C   0  0  0  0  0  0  0  0  0  0  0  0
   -3.8625    2.5583    0.0000 C   0  0  0  0  0  0  0  0  0  0  0  0
   -4.5833    1.3208    0.0000 N   0  0  3  0  0  0  0  0  0  0  0  0
   -1.7208    3.8000    0.0000 O   0  0  0  0  0  0  0  0  0  0  0  0
   -0.2875    3.7958    0.0000 O   0  0  0  0  0  0  0  0  0  0  0  0
   -6.0125    0.4958    0.0000 O   0  0  0  0  0  0  0  0  0  0  0  0
   -4.5833    2.9708    0.0000 F   0  0  0  0  0  0  0  0  0  0  0  0
    0.4250    2.5583    0.0000 O   0  0  0  0  0  0  0  0  0  0  0  0
   -1.7250    0.4958    0.0000 C   0  0  0  0  0  0  0  0  0  0  0  0
   -5.2958    1.7333    0.0000 C   0  0  0  0  0  0  0  0  0  0  0  0
   -4.5833    0.4958    0.0000 C   0  0  0  0  0  0  0  0  0  0  0  0
   -6.0000    1.3208    0.0000 C   0  0  0  0  0  0  0  0  0  0  0  0
   -5.2958    0.0833    0.0000 C   0  0  0  0  0  0  0  0  0  0  0  0
   -1.0083    0.0833    0.0000 C   0  0  0  0  0  0  0  0  0  0  0  0
  2  3  1  0  0  0  0
  3  1  1  0  0  0  0
  4  6  1  0  0  0  0
  5  1  2  0  0  0  0
  6  5  1  0  0  0  0
  7  4  2  0  0  0  0
  8  7  1  0  0  0  0
  9  2  2  0  0  0  0
 10  1  1  0  0  0  0
 11  9  1  0  0  0  0
 12  8  1  0  0  0  0
 13  3  2  0  0  0  0
 14 10  2  0  0  0  0
 15 22  1  0  0  0  0
 16 11  1  0  0  0  0
 17 10  1  0  0  0  0
 18  6  1  0  0  0  0
 19 12  1  0  0  0  0
 20 12  1  0  0  0  0
 21 19  1  0  0  0  0
 22 20  1  0  0  0  0
 23 18  1  0  0  0  0
  4  2  1  0  0  0  0
  8 11  2  0  0  0  0
 15 21  1  0  0  0  0
M  END
> <IDNUMBER>
F5577-0089

> <Chemical_Name>
1-ethyl-6-fluoro-7-(morpholin-4-yl)-4-oxo-1,4-dihydroquinoline-3-carboxylic acid

> <CAS>
70458-98-9

> <PriceCoeff>
1.00

> <MW>
320.32

> <Description>
solid

> <FSP3>
0.38

> <clogP>
1.50

> <TPSA>
70.08

> <Acceptor>
6

> <Donor>
2

> <RotBonds>
3

> <HAC>
23

> <Collection>
General

> <Reference_compound>
CHEMBL8

> <Similarity>
0.8490

$$$$
F1318-0211
  -ISIS-  06222321142D

 18 19  0  0  0  0  0  0  0  0999 V2000
   -2.1583   -1.4417    0.0000 N   0  3  0  0  0  0  0  0  0  0  0  0
    0.7375    0.6833    0.0000 C   0  0  0  0  0  0  0  0  0  0  0  0
    1.5667    0.6833    0.0000 N   0  0  3  0  0  0  0  0  0  0  0  0
   -1.7375   -0.7292    0.0000 C   0  0  0  0  0  0  0  0  0  0  0  0
    0.3042   -0.0167    0.0000 O   0  0  0  0  0  0  0  0  0  0  0  0
   -0.9208   -0.7292    0.0000 C   0  0  0  0  0  0  0  0  0  0  0  0
   -2.9833   -1.4417    0.0000 O   0  5  0  0  0  0  0  0  0  0  0  0
   -1.7458   -2.1542    0.0000 O   0  0  0  0  0  0  0  0  0  0  0  0
    0.3042    1.4083    0.0000 O   0  0  0  0  0  0  0  0  0  0  0  0
   -0.5125   -0.0167    0.0000 C   0  0  0  0  0  0  0  0  0  0  0  0
    3.2375    0.6833    0.0000 O   0  0  0  0  0  0  0  0  0  0  0  0
    1.9917   -0.0292    0.0000 C   0  0  0  0  0  0  0  0  0  0  0  0
    1.9792    1.4083    0.0000 C   0  0  0  0  0  0  0  0  0  0  0  0
   -2.1500   -0.0167    0.0000 C   0  0  0  0  0  0  0  0  0  0  0  0
   -1.7458    0.6875    0.0000 C   0  0  0  0  0  0  0  0  0  0  0  0
   -0.9208    0.6875    0.0000 C   0  0  0  0  0  0  0  0  0  0  0  0
    2.8167   -0.0292    0.0000 C   0  0  0  0  0  0  0  0  0  0  0  0
    2.8167    1.4083    0.0000 C   0  0  0  0  0  0  0  0  0  0  0  0
  2  5  1  0  0  0  0
  3  2  1  0  0  0  0
  4  1  1  0  0  0  0
  5 10  1  0  0  0  0
  6  4  2  0  0  0  0
  7  1  1  0  0  0  0
  8  1  2  0  0  0  0
  9  2  2  0  0  0  0
 10  6  1  0  0  0  0
 11 18  1  0  0  0  0
 12  3  1  0  0  0  0
 13  3  1  0  0  0  0
 14  4  1  0  0  0  0
 15 14  2  0  0  0  0
 16 15  1  0  0  0  0
 17 12  1  0  0  0  0
 18 13  1  0  0  0  0
 16 10  2  0  0  0  0
 11 17  1  0  0  0  0
M  CHG  2   1   1   7  -1
M  END
> <IDNUMBER>
F1318-0211

> <Chemical_Name>
3-nitrophenyl morpholine-4-carboxylate

> <CAS>
501104-91-2

> <PriceCoeff>
1.00

> <MW>
252.22

> <Description>
solid

> <FSP3>
0.36

> <clogP>
1.39

> <TPSA>
81.91

> <Acceptor>
5

> <Donor>
0

> <RotBonds>
4

> <HAC>
18

> <Collection>
General

> <Reference_compound>
CHEMBL2288473

> <Similarity>
0.8260

$$$$
F2191-0037
  -ISIS-  06222321442D

 16 17  0  0  0  0  0  0  0  0999 V2000
   11.5917   -9.0750    0.0000 C   0  0  0  0  0  0  0  0  0  0  0  0
   11.5917   -9.9000    0.0000 C   0  0  0  0  0  0  0  0  0  0  0  0
   10.8750   -8.6625    0.0000 O   0  0  0  0  0  0  0  0  0  0  0  0
   11.5917  -12.3792    0.0000 O   0  0  0  0  0  0  0  0  0  0  0  0
   10.8792  -10.3125    0.0000 C   0  0  0  0  0  0  0  0  0  0  0  0
   12.3125  -10.3125    0.0000 C   0  0  0  0  0  0  0  0  0  0  0  0
   11.5917  -11.5542    0.0000 C   0  0  0  0  0  0  0  0  0  0  0  0
   12.3042   -8.6542    0.0000 O   0  0  0  0  0  0  0  0  0  0  0  0
   10.8792  -11.1417    0.0000 C   0  0  0  0  0  0  0  0  0  0  0  0
   12.3125  -11.1417    0.0000 C   0  0  0  0  0  0  0  0  0  0  0  0
   12.3042  -12.7917    0.0000 C   0  0  0  0  0  0  0  0  0  0  0  0
   12.3000  -13.6167    0.0000 C   0  0  0  0  0  0  0  0  0  0  0  0
   13.0167  -12.3875    0.0000 C   0  0  0  0  0  0  0  0  0  0  0  0
   13.7250  -12.7917    0.0000 C   0  0  0  0  0  0  0  0  0  0  0  0
   13.0042  -14.0292    0.0000 C   0  0  0  0  0  0  0  0  0  0  0  0
   13.7250  -13.6250    0.0000 C   0  0  0  0  0  0  0  0  0  0  0  0
  2  1  1  0  0  0  0
  3  1  2  0  0  0  0
  4  7  1  0  0  0  0
  5  2  1  0  0  0  0
  6  2  2  0  0  0  0
  7 10  2  0  0  0  0
  8  1  1  0  0  0  0
  9  5  2  0  0  0  0
 10  6  1  0  0  0  0
 11  4  1  0  0  0  0
 12 11  2  0  0  0  0
 13 11  1  0  0  0  0
 14 13  2  0  0  0  0
 15 12  1  0  0  0  0
 16 14  1  0  0  0  0
  7  9  1  0  0  0  0
 16 15  2  0  0  0  0
M  END
> <IDNUMBER>
F2191-0037

> <Chemical_Name>
4-phenoxybenzoic acid

> <CAS>
2215-77-2

> <PriceCoeff>
1.00

> <MW>
214.21

> <Description>
solid

> <FSP3>
0.00

> <clogP>
3.98

> <TPSA>
46.53

> <Acceptor>
3

> <Donor>
0

> <RotBonds>
3

> <HAC>
16

> <Collection>
General

> <Reference_compound>
CHEMBL21932

> <Similarity>
0.9080

$$$$
F3230-0012
  -ISIS-  06222321442D

 29 31  0  0  0  0  0  0  0  0999 V2000
    4.1917   -3.7542    0.0000 N   0  0  3  0  0  0  0  0  0  0  0  0
    9.4917   -4.3375    0.0000 S   0  0  3  0  0  0  0  0  0  0  0  0
    3.3667   -3.7542    0.0000 N   0  0  0  0  0  0  0  0  0  0  0  0
    4.4500   -2.9667    0.0000 C   0  0  0  0  0  0  0  0  0  0  0  0
    3.7792   -2.4792    0.0000 C   0  0  0  0  0  0  0  0  0  0  0  0
    3.1125   -2.9667    0.0000 C   0  0  0  0  0  0  0  0  0  0  0  0
    8.6667   -4.3375    0.0000 N   0  0  3  0  0  0  0  0  0  0  0  0
    6.3167   -3.9167    0.0000 C   0  0  0  0  0  0  0  0  0  0  0  0
    5.6042   -4.3375    0.0000 C   0  0  0  0  0  0  0  0  0  0  0  0
    7.0292   -4.3292    0.0000 N   0  0  3  0  0  0  0  0  0  0  0  0
    4.7792   -4.3375    0.0000 C   0  0  3  0  0  0  0  0  0  0  0  0
   10.3167   -4.3375    0.0000 C   0  0  0  0  0  0  0  0  0  0  0  0
    9.4875   -3.5125    0.0000 O   0  0  0  0  0  0  0  0  0  0  0  0
    9.4875   -5.1625    0.0000 O   0  0  0  0  0  0  0  0  0  0  0  0
    8.2542   -3.6250    0.0000 C   0  0  0  0  0  0  0  0  0  0  0  0
    8.2542   -5.0417    0.0000 C   0  0  0  0  0  0  0  0  0  0  0  0
    7.4375   -3.6167    0.0000 C   0  0  0  0  0  0  0  0  0  0  0  0
    7.4375   -5.0417    0.0000 C   0  0  0  0  0  0  0  0  0  0  0  0
    6.3125   -3.0917    0.0000 O   0  0  0  0  0  0  0  0  0  0  0  0
    3.7792   -1.6542    0.0000 Cl  0  0  0  0  0  0  0  0  0  0  0  0
   10.7250   -3.6292    0.0000 C   0  0  0  0  0  0  0  0  0  0  0  0
   10.7167   -5.0500    0.0000 C   0  0  0  0  0  0  0  0  0  0  0  0
    5.1625   -2.5500    0.0000 C   0  0  0  0  0  0  0  0  0  0  0  0
    2.3125   -2.7500    0.0000 C   0  0  0  0  0  0  0  0  0  0  0  0
   11.5375   -5.0500    0.0000 C   0  0  0  0  0  0  0  0  0  0  0  0
   11.5375   -3.6292    0.0000 C   0  0  0  0  0  0  0  0  0  0  0  0
   11.9500   -4.3417    0.0000 C   0  0  0  0  0  0  0  0  0  0  0  0
    4.3625   -5.0500    0.0000 C   0  0  0  0  0  0  0  0  0  0  0  0
   12.7750   -4.3417    0.0000 C   0  0  0  0  0  0  0  0  0  0  0  0
  2  7  1  0  0  0  0
  3  1  1  0  0  0  0
  4  1  1  0  0  0  0
  5  4  2  0  0  0  0
  6  3  2  0  0  0  0
  7 16  1  0  0  0  0
  8  9  1  0  0  0  0
  9 11  1  0  0  0  0
 10  8  1  0  0  0  0
 11  1  1  0  0  0  0
 12  2  1  0  0  0  0
 13  2  2  0  0  0  0
 14  2  2  0  0  0  0
 15 17  1  0  0  0  0
 16 18  1  0  0  0  0
 17 10  1  0  0  0  0
 18 10  1  0  0  0  0
 19  8  2  0  0  0  0
 20  5  1  0  0  0  0
 21 12  1  0  0  0  0
 22 12  2  0  0  0  0
 23  4  1  0  0  0  0
 24  6  1  0  0  0  0
 25 22  1  0  0  0  0
 26 21  2  0  0  0  0
 27 25  2  0  0  0  0
 28 11  1  0  0  0  0
 29 27  1  0  0  0  0
  6  5  1  0  0  0  0
 15  7  1  0  0  0  0
 26 27  1  0  0  0  0
M  END
> <IDNUMBER>
F3230-0012

> <Chemical_Name>
3-(4-chloro-3,5-dimethyl-1H-pyrazol-1-yl)-1-[4-(4-methylbenzenesulfonyl)piperazin-1-yl]butan-1-one

> <CAS>
890596-96-0

> <PriceCoeff>
1.00

> <MW>
438.97

> <Description>
solid

> <FSP3>
0.50

> <clogP>
3.80

> <TPSA>
83.89

> <Acceptor>
4

> <Donor>
0

> <RotBonds>
6

> <HAC>
29

> <Collection>
General

$$$$
F0440-0330
  -ISIS-  06222321142D

 24 27  0  0  0  0  0  0  0  0999 V2000
   -1.2958   -0.3667    0.0000 C   0  0  0  0  0  0  0  0  0  0  0  0
   -2.3958   -0.7500    0.0000 C   0  0  0  0  0  0  0  0  0  0  0  0
    0.8792    0.9000    0.0000 N   0  0  3  0  0  0  0  0  0  0  0  0
   -1.7125   -0.9667    0.0000 N   0  0  0  0  0  0  0  0  0  0  0  0
   -2.3958   -0.0042    0.0000 C   0  0  0  0  0  0  0  0  0  0  0  0
   -1.7125    0.2000    0.0000 S   0  0  0  0  0  0  0  0  0  0  0  0
   -0.5500   -0.3667    0.0000 N   0  0  0  0  0  0  0  0  0  0  0  0
    0.6542    1.5833    0.0000 C   0  0  0  0  0  0  0  0  0  0  0  0
    1.6167    0.9000    0.0000 C   0  0  0  0  0  0  0  0  0  0  0  0
   -3.0333   -1.1042    0.0000 C   0  0  0  0  0  0  0  0  0  0  0  0
   -0.1958    0.2625    0.0000 C   0  0  0  0  0  0  0  0  0  0  0  0
    0.5167    0.2625    0.0000 C   0  0  0  0  0  0  0  0  0  0  0  0
   -3.0333    0.3458    0.0000 C   0  0  0  0  0  0  0  0  0  0  0  0
   -3.6708   -0.7500    0.0000 C   0  0  0  0  0  0  0  0  0  0  0  0
    1.2542    2.0000    0.0000 C   0  0  0  0  0  0  0  0  0  0  0  0
    1.8500    1.5833    0.0000 C   0  0  0  0  0  0  0  0  0  0  0  0
   -0.0125    1.8208    0.0000 O   0  0  0  0  0  0  0  0  0  0  0  0
    2.0542    0.3000    0.0000 O   0  0  0  0  0  0  0  0  0  0  0  0
   -0.5708    0.9000    0.0000 O   0  0  0  0  0  0  0  0  0  0  0  0
   -3.6708   -0.0292    0.0000 C   0  0  0  0  0  0  0  0  0  0  0  0
   -3.0333   -1.8500    0.0000 C   0  0  0  0  0  0  0  0  0  0  0  0
   -4.3125   -1.1292    0.0000 C   0  0  0  0  0  0  0  0  0  0  0  0
   -3.6708   -2.2042    0.0000 C   0  0  0  0  0  0  0  0  0  0  0  0
   -4.3125   -1.8500    0.0000 C   0  0  0  0  0  0  0  0  0  0  0  0
  2  4  1  0  0  0  0
  3 12  1  0  0  0  0
  4  1  2  0  0  0  0
  5  6  1  0  0  0  0
  6  1  1  0  0  0  0
  7  1  1  0  0  0  0
  8  3  1  0  0  0  0
  9  3  1  0  0  0  0
 10  2  1  0  0  0  0
 11  7  1  0  0  0  0
 12 11  1  0  0  0  0
 13  5  1  0  0  0  0
 14 10  2  0  0  0  0
 15  8  1  0  0  0  0
 16  9  1  0  0  0  0
 17  8  2  0  0  0  0
 18  9  2  0  0  0  0
 19 11  2  0  0  0  0
 20 13  1  0  0  0  0
 21 10  1  0  0  0  0
 22 14  1  0  0  0  0
 23 21  2  0  0  0  0
 24 23  1  0  0  0  0
  5  2  2  0  0  0  0
 20 14  1  0  0  0  0
 16 15  1  0  0  0  0
 22 24  2  0  0  0  0
M  END
> <IDNUMBER>
F0440-0330

> <Chemical_Name>
2-(2,5-dioxopyrrolidin-1-yl)-N-{4H,5H-naphtho[1,2-d][1,3]thiazol-2-yl}acetamide

> <CAS>
392324-50-4

> <PriceCoeff>
1.00

> <MW>
341.38

> <Description>
solid

> <FSP3>
0.29

> <clogP>
2.40

> <TPSA>
107.61

> <Acceptor>
4

> <Donor>
1

> <RotBonds>
3

> <HAC>
24

> <Collection>
General

$$$$
F0700-0160
  -ISIS-  06222321142D

 28 31  0  0  0  0  0  0  0  0999 V2000
    0.1167    1.9125    0.0000 C   0  0  0  0  0  0  0  0  0  0  0  0
   -0.2625    2.3333    0.0000 C   0  0  0  0  0  0  0  0  0  0  0  0
    3.3375    0.3708    0.0000 N   0  0  3  0  0  0  0  0  0  0  0  0
    0.6792    1.9583    0.0000 C   0  0  0  0  0  0  0  0  0  0  0  0
    1.5542    2.2333    0.0000 C   0  0  0  0  0  0  0  0  0  0  0  0
    1.0167    2.4125    0.0000 N   0  0  0  0  0  0  0  0  0  0  0  0
   -0.7625    2.0958    0.0000 S   0  0  0  0  0  0  0  0  0  0  0  0
    2.0375    2.4958    0.0000 N   0  0  0  0  0  0  0  0  0  0  0  0
   -0.7000    1.5500    0.0000 C   0  0  0  0  0  0  0  0  0  0  0  0
    2.8792    0.7125    0.0000 C   0  0  0  0  0  0  0  0  0  0  0  0
   -0.1625    1.4333    0.0000 C   0  0  0  0  0  0  0  0  0  0  0  0
    2.5167    2.1958    0.0000 C   0  0  0  0  0  0  0  0  0  0  0  0
    3.3792   -0.1875    0.0000 C   0  0  0  0  0  0  0  0  0  0  0  0
    3.8375    0.5958    0.0000 C   0  0  0  0  0  0  0  0  0  0  0  0
    1.5375    1.6500    0.0000 S   0  0  0  0  0  0  0  0  0  0  0  0
    1.0000    1.4958    0.0000 C   0  0  0  0  0  0  0  0  0  0  0  0
    2.9542    1.2708    0.0000 C   0  0  0  0  0  0  0  0  0  0  0  0
    2.5000    1.6125    0.0000 C   0  0  0  0  0  0  0  0  0  0  0  0
    3.0167    2.4583    0.0000 O   0  0  0  0  0  0  0  0  0  0  0  0
    3.9167   -0.3292    0.0000 C   0  0  0  0  0  0  0  0  0  0  0  0
    4.2000    0.1333    0.0000 C   0  0  0  0  0  0  0  0  0  0  0  0
    2.9375   -0.5667    0.0000 O   0  0  0  0  0  0  0  0  0  0  0  0
    3.9792    1.1500    0.0000 O   0  0  0  0  0  0  0  0  0  0  0  0
   -0.1625    2.8958    0.0000 Cl  0  0  0  0  0  0  0  0  0  0  0  0
   -1.1458    1.1708    0.0000 Cl  0  0  0  0  0  0  0  0  0  0  0  0
    2.3542    0.4958    0.0000 C   0  0  0  0  0  0  0  0  0  0  0  0
    1.9792    1.3708    0.0000 C   0  0  0  0  0  0  0  0  0  0  0  0
    1.9167    0.8333    0.0000 C   0  0  0  0  0  0  0  0  0  0  0  0
  2  1  2  0  0  0  0
  3 10  1  0  0  0  0
  4  1  1  0  0  0  0
  5  6  2  0  0  0  0
  6  4  1  0  0  0  0
  7  2  1  0  0  0  0
  8  5  1  0  0  0  0
  9 11  2  0  0  0  0
 10 17  2  0  0  0  0
 11  1  1  0  0  0  0
 12  8  1  0  0  0  0
 13  3  1  0  0  0  0
 14  3  1  0  0  0  0
 15 16  1  0  0  0  0
 16  4  2  0  0  0  0
 17 18  1  0  0  0  0
 18 12  1  0  0  0  0
 19 12  2  0  0  0  0
 20 13  1  0  0  0  0
 21 14  1  0  0  0  0
 22 13  2  0  0  0  0
 23 14  2  0  0  0  0
 24  2  1  0  0  0  0
 25  9  1  0  0  0  0
 26 28  2  0  0  0  0
 27 18  2  0  0  0  0
 28 27  1  0  0  0  0
  9  7  1  0  0  0  0
  5 15  1  0  0  0  0
 10 26  1  0  0  0  0
 21 20  1  0  0  0  0
M  END
> <IDNUMBER>
F0700-0160

> <Chemical_Name>
N-[4-(2,5-dichlorothiophen-3-yl)-1,3-thiazol-2-yl]-3-(2,5-dioxopyrrolidin-1-yl)benzamide

> <CAS>
393837-56-4

> <PriceCoeff>
1.00

> <MW>
452.33

> <Description>
solid

> <FSP3>
0.11

> <clogP>
2.98

> <TPSA>
135.85

> <Acceptor>
4

> <Donor>
1

> <RotBonds>
4

> <HAC>
28

> <Collection>
General

$$$$
F0440-0328
  -ISIS-  06222321452D

 22 24  0  0  0  0  0  0  0  0999 V2000
    0.0000   -1.3500    0.0000 C   0  0  0  0  0  0  0  0  0  0  0  0
    2.4417   -2.7500    0.0000 N   0  0  3  0  0  0  0  0  0  0  0  0
   -0.4625   -2.0042    0.0000 N   0  0  0  0  0  0  0  0  0  0  0  0
   -0.4625   -0.7000    0.0000 S   0  0  0  0  0  0  0  0  0  0  0  0
   -1.2458   -1.7667    0.0000 C   0  0  0  0  0  0  0  0  0  0  0  0
   -1.2458   -0.9500    0.0000 C   0  0  0  0  0  0  0  0  0  0  0  0
    0.8042   -1.3292    0.0000 N   0  0  0  0  0  0  0  0  0  0  0  0
    3.2292   -2.9292    0.0000 C   0  0  0  0  0  0  0  0  0  0  0  0
    2.0292   -3.4500    0.0000 C   0  0  0  0  0  0  0  0  0  0  0  0
    1.2292   -2.0500    0.0000 C   0  0  0  0  0  0  0  0  0  0  0  0
   -1.9708   -2.1667    0.0000 C   0  0  0  0  0  0  0  0  0  0  0  0
    2.0292   -2.0500    0.0000 C   0  0  0  0  0  0  0  0  0  0  0  0
   -1.9708   -0.5292    0.0000 C   0  0  0  0  0  0  0  0  0  0  0  0
   -2.6625   -1.7667    0.0000 C   0  0  0  0  0  0  0  0  0  0  0  0
    3.3042   -3.7500    0.0000 C   0  0  0  0  0  0  0  0  0  0  0  0
    2.6000   -4.0500    0.0000 C   0  0  0  0  0  0  0  0  0  0  0  0
    3.8500   -2.4000    0.0000 O   0  0  0  0  0  0  0  0  0  0  0  0
    1.2042   -3.5292    0.0000 O   0  0  0  0  0  0  0  0  0  0  0  0
    0.8042   -2.7500    0.0000 O   0  0  0  0  0  0  0  0  0  0  0  0
   -2.6625   -0.9500    0.0000 C   0  0  0  0  0  0  0  0  0  0  0  0
   -1.9833   -3.0000    0.0000 C   0  0  0  0  0  0  0  0  0  0  0  0
   -3.3625   -0.5042    0.0000 C   0  0  0  0  0  0  0  0  0  0  0  0
  2 12  1  0  0  0  0
  3  1  2  0  0  0  0
  4  1  1  0  0  0  0
  5  3  1  0  0  0  0
  6  4  1  0  0  0  0
  7  1  1  0  0  0  0
  8  2  1  0  0  0  0
  9  2  1  0  0  0  0
 10  7  1  0  0  0  0
 11  5  1  0  0  0  0
 12 10  1  0  0  0  0
 13  6  1  0  0  0  0
 14 11  2  0  0  0  0
 15  8  1  0  0  0  0
 16  9  1  0  0  0  0
 17  8  2  0  0  0  0
 18  9  2  0  0  0  0
 19 10  2  0  0  0  0
 20 13  2  0  0  0  0
 21 11  1  0  0  0  0
 22 20  1  0  0  0  0
  6  5  2  0  0  0  0
 20 14  1  0  0  0  0
 16 15  1  0  0  0  0
M  END
> <IDNUMBER>
F0440-0328

> <Chemical_Name>
N-(4,6-dimethyl-1,3-benzothiazol-2-yl)-2-(2,5-dioxopyrrolidin-1-yl)acetamide

> <CAS>
476308-63-1

> <PriceCoeff>
1.00

> <MW>
317.36

> <Description>
solid

> <FSP3>
0.33

> <clogP>
2.44

> <TPSA>
107.61

> <Acceptor>
4

> <Donor>
1

> <RotBonds>
3

> <HAC>
22

> <Collection>
General

$$$$
F2190-0411
  -ISIS-  06222321462D

 13 14  0  0  0  0  0  0  0  0999 V2000
    6.2792   -4.4917    0.0000 N   0  0  0  0  0  0  0  0  0  0  0  0
    5.8625   -3.7667    0.0000 C   0  0  0  0  0  0  0  0  0  0  0  0
    5.8625   -5.2042    0.0000 C   0  0  0  0  0  0  0  0  0  0  0  0
    6.2792   -3.0542    0.0000 C   0  0  0  0  0  0  0  0  0  0  0  0
    5.0292   -3.7750    0.0000 C   0  0  0  0  0  0  0  0  0  0  0  0
    5.0292   -5.2042    0.0000 C   0  0  0  0  0  0  0  0  0  0  0  0
    6.2750   -5.9250    0.0000 C   0  0  0  0  0  0  0  0  0  0  0  0
    4.6167   -3.0542    0.0000 C   0  0  0  0  0  0  0  0  0  0  0  0
    4.6125   -5.9167    0.0000 C   0  0  0  0  0  0  0  0  0  0  0  0
    5.8625   -6.6417    0.0000 C   0  0  0  0  0  0  0  0  0  0  0  0
    5.8625   -2.3375    0.0000 C   0  0  0  0  0  0  0  0  0  0  0  0
    5.0292   -2.3375    0.0000 C   0  0  0  0  0  0  0  0  0  0  0  0
    5.0292   -6.6417    0.0000 C   0  0  0  0  0  0  0  0  0  0  0  0
  2  1  1  0  0  0  0
  3  1  1  0  0  0  0
  4  2  2  0  0  0  0
  5  2  1  0  0  0  0
  6  3  2  0  0  0  0
  7  3  1  0  0  0  0
  8  5  2  0  0  0  0
  9  6  1  0  0  0  0
 10  7  2  0  0  0  0
 11  4  1  0  0  0  0
 12  8  1  0  0  0  0
 13 10  1  0  0  0  0
 13  9  2  0  0  0  0
 12 11  2  0  0  0  0
M  END
> <IDNUMBER>
F2190-0411

> <Chemical_Name>
N-phenylaniline

> <CAS>
122-39-4

> <PriceCoeff>
1.00

> <MW>
169.22

> <Description>
solid

> <FSP3>
0.00

> <clogP>
3.62

> <TPSA>
12.03

> <Acceptor>
1

> <Donor>
1

> <RotBonds>
2

> <HAC>
13

> <Collection>
General

> <Reference_compound>
PRI2829

> <Similarity>
1.0000

$$$$
F3325-0130
  -ISIS-  06222321462D

 21 22  0  0  0  0  0  0  0  0999 V2000
    3.0375   -3.0417    0.0000 N   0  0  3  0  0  0  0  0  0  0  0  0
    3.5542   -3.6917    0.0000 C   0  0  0  0  0  0  0  0  0  0  0  0
    3.4875   -2.3500    0.0000 C   0  0  0  0  0  0  0  0  0  0  0  0
    4.3250   -3.4000    0.0000 C   0  0  3  0  0  0  0  0  0  0  0  0
    4.2875   -2.5667    0.0000 C   0  0  0  0  0  0  0  0  0  0  0  0
    5.0625   -3.7792    0.0000 N   0  0  0  0  0  0  0  0  0  0  0  0
    3.3375   -4.4875    0.0000 O   0  0  0  0  0  0  0  0  0  0  0  0
    3.1917   -1.5792    0.0000 O   0  0  0  0  0  0  0  0  0  0  0  0
    7.1500   -2.4292    0.0000 C   0  0  0  0  0  0  0  0  0  0  0  0
    7.8417   -1.9875    0.0000 N   0  0  3  0  0  0  0  0  0  0  0  0
    5.7625   -3.3292    0.0000 C   0  0  0  0  0  0  0  0  0  0  0  0
    6.4167   -2.0542    0.0000 C   0  0  0  0  0  0  0  0  0  0  0  0
    7.1917   -3.2625    0.0000 C   0  0  0  0  0  0  0  0  0  0  0  0
    2.2125   -3.0875    0.0000 C   0  0  0  0  0  0  0  0  0  0  0  0
    6.4917   -3.7042    0.0000 C   0  0  0  0  0  0  0  0  0  0  0  0
    5.7250   -2.5042    0.0000 C   0  0  0  0  0  0  0  0  0  0  0  0
    8.5792   -2.3625    0.0000 C   0  0  0  0  0  0  0  0  0  0  0  0
    7.8042   -1.1625    0.0000 C   0  0  0  0  0  0  0  0  0  0  0  0
    1.7667   -2.3917    0.0000 C   0  0  0  0  0  0  0  0  0  0  0  0
    0.9417   -2.4292    0.0000 C   0  0  0  0  0  0  0  0  0  0  0  0
    0.4917   -1.7417    0.0000 C   0  0  0  0  0  0  0  0  0  0  0  0
  2  1  1  0  0  0  0
  3  1  1  0  0  0  0
  4  2  1  0  0  0  0
  5  3  1  0  0  0  0
  6  4  1  0  0  0  0
  7  2  2  0  0  0  0
  8  3  2  0  0  0  0
  9 12  2  0  0  0  0
 10  9  1  0  0  0  0
 11  6  1  0  0  0  0
 12 16  1  0  0  0  0
 13 15  2  0  0  0  0
 14  1  1  0  0  0  0
 15 11  1  0  0  0  0
 16 11  2  0  0  0  0
 17 10  1  0  0  0  0
 18 10  1  0  0  0  0
 19 14  1  0  0  0  0
 20 19  1  0  0  0  0
 21 20  1  0  0  0  0
  5  4  1  0  0  0  0
 13  9  1  0  0  0  0
M  END
> <IDNUMBER>
F3325-0130

> <Chemical_Name>
1-butyl-3-{[4-(dimethylamino)phenyl]amino}pyrrolidine-2,5-dione

> <CAS>
1025395-87-2

> <PriceCoeff>
1.00

> <MW>
289.37

> <Description>
solid

> <FSP3>
0.50

> <clogP>
3.41

> <TPSA>
52.65

> <Acceptor>
4

> <Donor>
2

> <RotBonds>
6

> <HAC>
21

> <Collection>
General

$$$$
F1813-0844
  -ISIS-  06222321442D

 22 24  0  0  0  0  0  0  0  0999 V2000
   -6.0000    3.3958    0.0000 C   0  0  0  0  0  0  0  0  0  0  0  0
   -3.8708    4.6250    0.0000 N   0  0  3  0  0  0  0  0  0  0  0  0
   -6.0792    2.5625    0.0000 N   0  0  0  0  0  0  0  0  0  0  0  0
   -6.8917    2.3958    0.0000 C   0  0  0  0  0  0  0  0  0  0  0  0
   -6.7542    3.7333    0.0000 S   0  0  0  0  0  0  0  0  0  0  0  0
   -7.3042    3.1125    0.0000 C   0  0  0  0  0  0  0  0  0  0  0  0
   -5.2958    3.8083    0.0000 N   0  0  0  0  0  0  0  0  0  0  0  0
   -3.2000    5.0917    0.0000 C   0  0  0  0  0  0  0  0  0  0  0  0
   -4.5333    5.0917    0.0000 C   0  0  0  0  0  0  0  0  0  0  0  0
   -4.5833    3.3958    0.0000 C   0  0  0  0  0  0  0  0  0  0  0  0
   -3.8708    3.8000    0.0000 C   0  0  0  0  0  0  0  0  0  0  0  0
   -7.3042    1.6833    0.0000 C   0  0  0  0  0  0  0  0  0  0  0  0
   -8.1292    3.1083    0.0000 C   0  0  0  0  0  0  0  0  0  0  0  0
   -3.4583    5.8875    0.0000 C   0  0  0  0  0  0  0  0  0  0  0  0
   -4.2833    5.8792    0.0000 C   0  0  0  0  0  0  0  0  0  0  0  0
   -2.4208    4.8375    0.0000 O   0  0  0  0  0  0  0  0  0  0  0  0
   -5.3208    4.8542    0.0000 O   0  0  0  0  0  0  0  0  0  0  0  0
   -4.5833    2.5708    0.0000 O   0  0  0  0  0  0  0  0  0  0  0  0
   -8.5292    2.3958    0.0000 C   0  0  0  0  0  0  0  0  0  0  0  0
   -8.1292    1.6833    0.0000 C   0  0  0  0  0  0  0  0  0  0  0  0
   -6.8917    0.9750    0.0000 C   0  0  0  0  0  0  0  0  0  0  0  0
   -8.5417    3.8208    0.0000 C   0  0  0  0  0  0  0  0  0  0  0  0
  2 11  1  0  0  0  0
  3  1  2  0  0  0  0
  4  3  1  0  0  0  0
  5  1  1  0  0  0  0
  6  5  1  0  0  0  0
  7  1  1  0  0  0  0
  8  2  1  0  0  0  0
  9  2  1  0  0  0  0
 10  7  1  0  0  0  0
 11 10  1  0  0  0  0
 12  4  2  0  0  0  0
 13  6  2  0  0  0  0
 14  8  1  0  0  0  0
 15  9  1  0  0  0  0
 16  8  2  0  0  0  0
 17  9  2  0  0  0  0
 18 10  2  0  0  0  0
 19 13  1  0  0  0  0
 20 12  1  0  0  0  0
 21 12  1  0  0  0  0
 22 13  1  0  0  0  0
  6  4  1  0  0  0  0
 19 20  2  0  0  0  0
 14 15  1  0  0  0  0
M  END
> <IDNUMBER>
F1813-0844

> <Chemical_Name>
N-(4,7-dimethyl-1,3-benzothiazol-2-yl)-2-(2,5-dioxopyrrolidin-1-yl)acetamide

> <CAS>
897759-68-1

> <PriceCoeff>
1.00

> <MW>
317.36

> <Description>
solid

> <FSP3>
0.33

> <clogP>
2.44

> <TPSA>
107.61

> <Acceptor>
4

> <Donor>
1

> <RotBonds>
3

> <HAC>
22

> <Collection>
General

$$$$
F3115-0098
  -ISIS-  06222321462D

 26 28  0  0  0  0  0  0  0  0999 V2000
    4.8667   -0.9292    0.0000 N   0  0  3  0  0  0  0  0  0  0  0  0
    5.3542   -1.5917    0.0000 C   0  0  0  0  0  0  0  0  0  0  0  0
    5.3500   -0.2542    0.0000 C   0  0  0  0  0  0  0  0  0  0  0  0
    6.1417   -1.3375    0.0000 C   0  0  3  0  0  0  0  0  0  0  0  0
    6.1375   -0.5042    0.0000 C   0  0  0  0  0  0  0  0  0  0  0  0
    6.8042   -1.8125    0.0000 N   0  0  3  0  0  0  0  0  0  0  0  0
    8.1375   -2.7667    0.0000 N   0  0  3  0  0  0  0  0  0  0  0  0
    8.8042   -3.2542    0.0000 C   0  0  0  0  0  0  0  0  0  0  0  0
    4.0417   -0.9292    0.0000 C   0  0  0  0  0  0  0  0  0  0  0  0
    5.1042   -2.3792    0.0000 O   0  0  0  0  0  0  0  0  0  0  0  0
    5.0917    0.5250    0.0000 O   0  0  0  0  0  0  0  0  0  0  0  0
    8.2167   -1.9542    0.0000 C   0  0  0  0  0  0  0  0  0  0  0  0
    7.3875   -3.1042    0.0000 C   0  0  0  0  0  0  0  0  0  0  0  0
    7.5542   -1.4667    0.0000 C   0  0  0  0  0  0  0  0  0  0  0  0
    6.7250   -2.6292    0.0000 C   0  0  0  0  0  0  0  0  0  0  0  0
    9.5542   -2.9167    0.0000 O   0  0  0  0  0  0  0  0  0  0  0  0
    3.6292   -0.2167    0.0000 C   0  0  0  0  0  0  0  0  0  0  0  0
    8.7167   -4.0667    0.0000 O   0  0  0  0  0  0  0  0  0  0  0  0
    3.6417   -1.6500    0.0000 C   0  0  0  0  0  0  0  0  0  0  0  0
    4.0417    0.4958    0.0000 C   0  0  0  0  0  0  0  0  0  0  0  0
    2.8125   -0.2167    0.0000 C   0  0  0  0  0  0  0  0  0  0  0  0
    7.9667   -4.4125    0.0000 C   0  0  0  0  0  0  0  0  0  0  0  0
    3.6292    1.2083    0.0000 C   0  0  0  0  0  0  0  0  0  0  0  0
    2.8125   -1.6500    0.0000 C   0  0  0  0  0  0  0  0  0  0  0  0
    7.8792   -5.2292    0.0000 C   0  0  0  0  0  0  0  0  0  0  0  0
    2.4000   -0.9375    0.0000 C   0  0  0  0  0  0  0  0  0  0  0  0
  2  1  1  0  0  0  0
  3  1  1  0  0  0  0
  4  2  1  0  0  0  0
  5  3  1  0  0  0  0
  6  4  1  0  0  0  0
  7 13  1  0  0  0  0
  8  7  1  0  0  0  0
  9  1  1  0  0  0  0
 10  2  2  0  0  0  0
 11  3  2  0  0  0  0
 12 14  1  0  0  0  0
 13 15  1  0  0  0  0
 14  6  1  0  0  0  0
 15  6  1  0  0  0  0
 16  8  2  0  0  0  0
 17  9  2  0  0  0  0
 18  8  1  0  0  0  0
 19  9  1  0  0  0  0
 20 17  1  0  0  0  0
 21 17  1  0  0  0  0
 22 18  1  0  0  0  0
 23 20  1  0  0  0  0
 24 19  2  0  0  0  0
 25 22  1  0  0  0  0
 26 24  1  0  0  0  0
  4  5  1  0  0  0  0
 26 21  2  0  0  0  0
  7 12  1  0  0  0  0
M  END
> <IDNUMBER>
F3115-0098

> <Chemical_Name>
ethyl 4-[1-(2-ethylphenyl)-2,5-dioxopyrrolidin-3-yl]piperazine-1-carboxylate

> <CAS>
857494-05-4

> <PriceCoeff>
1.00

> <MW>
359.42

> <Description>
solid

> <FSP3>
0.53

> <clogP>
3.01

> <TPSA>
70.16

> <Acceptor>
4

> <Donor>
1

> <RotBonds>
6

> <HAC>
26

> <Collection>
General

$$$$
F1142-6543
  -ISIS-  06222321142D

 22 23  0  0  0  0  0  0  0  0999 V2000
    2.4542    0.9500    0.0000 N   0  0  3  0  0  0  0  0  0  0  0  0
    2.4000    0.4500    0.0000 C   0  0  0  0  0  0  0  0  0  0  0  0
    2.8167    0.1333    0.0000 C   0  0  0  0  0  0  0  0  0  0  0  0
    2.9167    1.1500    0.0000 C   0  0  0  0  0  0  0  0  0  0  0  0
    3.6000   -0.4875    0.0000 C   0  0  0  0  0  0  0  0  0  0  0  0
    3.7000   -0.0042    0.0000 C   0  0  0  0  0  0  0  0  0  0  0  0
    3.1375   -0.6875    0.0000 C   0  0  0  0  0  0  0  0  0  0  0  0
    2.7375   -0.3667    0.0000 C   0  0  0  0  0  0  0  0  0  0  0  0
    3.3000    0.3333    0.0000 C   0  0  0  0  0  0  0  0  0  0  0  0
    1.9375    0.2333    0.0000 O   0  0  0  0  0  0  0  0  0  0  0  0
    3.3167    0.8500    0.0000 O   0  0  0  0  0  0  0  0  0  0  0  0
    2.0167    1.1708    0.0000 C   0  0  0  0  0  0  0  0  0  0  0  0
    4.0000   -0.8292    0.0000 O   0  0  0  0  0  0  0  0  0  0  0  0
    4.2000    0.1500    0.0000 O   0  0  0  0  0  0  0  0  0  0  0  0
    3.0792   -1.1875    0.0000 O   0  0  0  0  0  0  0  0  0  0  0  0
    3.0375    1.6333    0.0000 C   0  0  0  0  0  0  0  0  0  0  0  0
    4.4542   -0.6500    0.0000 C   0  0  0  0  0  0  0  0  0  0  0  0
    2.6167   -1.3875    0.0000 C   0  0  0  0  0  0  0  0  0  0  0  0
    4.5542   -0.2042    0.0000 C   0  0  0  0  0  0  0  0  0  0  0  0
    1.9000    1.6500    0.0000 C   0  0  0  0  0  0  0  0  0  0  0  0
    2.7167    2.0333    0.0000 C   0  0  0  0  0  0  0  0  0  0  0  0
    2.2167    2.0333    0.0000 C   0  0  0  0  0  0  0  0  0  0  0  0
  2  1  1  0  0  0  0
  3  2  1  0  0  0  0
  4  1  1  0  0  0  0
  5  6  1  0  0  0  0
  6  9  2  0  0  0  0
  7  8  1  0  0  0  0
  8  3  2  0  0  0  0
  9  3  1  0  0  0  0
 10  2  2  0  0  0  0
 11  4  2  0  0  0  0
 12  1  1  0  0  0  0
 13  5  1  0  0  0  0
 14  6  1  0  0  0  0
 15  7  1  0  0  0  0
 16  4  1  0  0  0  0
 17 13  1  0  0  0  0
 18 15  1  0  0  0  0
 19 14  1  0  0  0  0
 20 12  1  0  0  0  0
 21 16  1  0  0  0  0
 22 20  1  0  0  0  0
 22 21  1  0  0  0  0
  7  5  2  0  0  0  0
M  END
> <IDNUMBER>
F1142-6543

> <Chemical_Name>
1-(3,4,5-trimethoxybenzoyl)azepan-2-one

> <CAS>
35782-95-7

> <PriceCoeff>
1.00

> <MW>
307.34

> <Description>
solid

> <FSP3>
0.50

> <clogP>
1.12

> <TPSA>
65.07

> <Acceptor>
5

> <Donor>
0

> <RotBonds>
5

> <HAC>
22

> <Collection>
General

$$$$
F2183-0479
  -ISIS-  06222321142D

 18 19  0  0  0  0  0  0  0  0999 V2000
    3.0375    1.1208    0.0000 C   0  0  0  0  0  0  0  0  0  0  0  0
    1.6125    1.1083    0.0000 C   0  0  0  0  0  0  0  0  0  0  0  0
    2.3167    1.5250    0.0000 C   0  0  0  0  0  0  0  0  0  0  0  0
    3.0417    0.2875    0.0000 C   0  0  0  0  0  0  0  0  0  0  0  0
    2.3292   -0.1292    0.0000 N   0  0  3  0  0  0  0  0  0  0  0  0
    1.6125    0.2833    0.0000 C   0  0  0  0  0  0  0  0  0  0  0  0
    3.7500    1.5333    0.0000 C   0  0  0  0  0  0  0  0  0  0  0  0
    0.8917   -0.1292    0.0000 C   0  0  0  0  0  0  0  0  0  0  0  0
    0.8917    1.5208    0.0000 C   0  0  0  0  0  0  0  0  0  0  0  0
    2.3167    2.3500    0.0000 O   0  0  0  0  0  0  0  0  0  0  0  0
    3.7417    2.3583    0.0000 O   0  0  0  0  0  0  0  0  0  0  0  0
    0.1792    1.1083    0.0000 C   0  0  0  0  0  0  0  0  0  0  0  0
    4.4667    1.1250    0.0000 O   0  0  0  0  0  0  0  0  0  0  0  0
    0.1792    0.2833    0.0000 C   0  0  0  0  0  0  0  0  0  0  0  0
    2.3292   -0.9542    0.0000 C   0  0  0  0  0  0  0  0  0  0  0  0
   -0.5333    1.5208    0.0000 F   0  0  0  0  0  0  0  0  0  0  0  0
    3.0417   -1.3625    0.0000 C   0  0  0  0  0  0  0  0  0  0  0  0
    3.0417   -2.1875    0.0000 C   0  0  0  0  0  0  0  0  0  0  0  0
  2  3  1  0  0  0  0
  3  1  1  0  0  0  0
  4  1  2  0  0  0  0
  5  4  1  0  0  0  0
  6  5  1  0  0  0  0
  7  1  1  0  0  0  0
  8  6  2  0  0  0  0
  9  2  2  0  0  0  0
 10  3  2  0  0  0  0
 11  7  2  0  0  0  0
 12  9  1  0  0  0  0
 13  7  1  0  0  0  0
 14  8  1  0  0  0  0
 15  5  1  0  0  0  0
 16 12  1  0  0  0  0
 17 15  1  0  0  0  0
 18 17  1  0  0  0  0
  6  2  1  0  0  0  0
 14 12  2  0  0  0  0
M  END
> <IDNUMBER>
F2183-0479

> <Chemical_Name>
6-fluoro-4-oxo-1-propyl-1,4-dihydroquinoline-3-carboxylic acid

> <CAS>


> <PriceCoeff>
1.00

> <MW>
249.24

> <Description>
solid

> <FSP3>
0.23

> <clogP>
2.46

> <TPSA>
57.61

> <Acceptor>
4

> <Donor>
1

> <RotBonds>
3

> <HAC>
18

> <Collection>
General

> <Reference_compound>
CHEMBL8

> <Similarity>
0.8460

$$$$
F0412-0066
  -ISIS-  06222321452D

 27 29  0  0  0  0  0  0  0  0999 V2000
   -0.3958    2.8125    0.0000 N   0  0  3  0  0  0  0  0  0  0  0  0
   -4.3125    2.1125    0.0000 C   0  0  3  0  0  0  0  0  0  0  0  0
    0.0542    2.5708    0.0000 C   0  0  0  0  0  0  0  0  0  0  0  0
   -0.3125    3.2958    0.0000 C   0  0  0  0  0  0  0  0  0  0  0  0
   -2.1333    1.8500    0.0000 C   0  0  0  0  0  0  0  0  0  0  0  0
   -2.5708    2.1125    0.0000 N   0  0  0  0  0  0  0  0  0  0  0  0
   -3.0125    1.8500    0.0000 C   0  0  0  0  0  0  0  0  0  0  0  0
   -3.8708    1.8500    0.0000 C   0  0  0  0  0  0  0  0  0  0  0  0
   -0.8333    2.5708    0.0000 C   0  0  0  0  0  0  0  0  0  0  0  0
   -3.4500    2.0958    0.0000 C   0  0  0  0  0  0  0  0  0  0  0  0
   -1.7125    2.0958    0.0000 C   0  0  0  0  0  0  0  0  0  0  0  0
   -3.0125    1.3500    0.0000 C   0  0  0  0  0  0  0  0  0  0  0  0
   -2.1500    1.3500    0.0000 O   0  0  0  0  0  0  0  0  0  0  0  0
    0.1792    3.3583    0.0000 C   0  0  0  0  0  0  0  0  0  0  0  0
    0.4000    2.9333    0.0000 C   0  0  0  0  0  0  0  0  0  0  0  0
   -0.6500    3.6500    0.0000 O   0  0  0  0  0  0  0  0  0  0  0  0
    0.1542    2.0708    0.0000 O   0  0  0  0  0  0  0  0  0  0  0  0
   -3.8708    1.3500    0.0000 C   0  0  0  0  0  0  0  0  0  0  0  0
   -0.8500    2.0708    0.0000 C   0  0  0  0  0  0  0  0  0  0  0  0
   -1.2708    2.8333    0.0000 C   0  0  0  0  0  0  0  0  0  0  0  0
   -1.2708    1.8333    0.0000 C   0  0  0  0  0  0  0  0  0  0  0  0
   -1.6958    2.5958    0.0000 C   0  0  0  0  0  0  0  0  0  0  0  0
   -3.4500    1.0958    0.0000 C   0  0  0  0  0  0  0  0  0  0  0  0
   -4.0708    2.5500    0.0000 F   0  0  0  0  0  0  0  0  0  0  0  0
   -4.5708    1.6708    0.0000 F   0  0  0  0  0  0  0  0  0  0  0  0
   -4.7500    2.3500    0.0000 F   0  0  0  0  0  0  0  0  0  0  0  0
   -2.5958    1.0708    0.0000 Cl  0  0  0  0  0  0  0  0  0  0  0  0
  2  8  1  0  0  0  0
  3  1  1  0  0  0  0
  4  1  1  0  0  0  0
  5 11  1  0  0  0  0
  6  5  1  0  0  0  0
  7  6  1  0  0  0  0
  8 10  2  0  0  0  0
  9  1  1  0  0  0  0
 10  7  1  0  0  0  0
 11 22  1  0  0  0  0
 12  7  2  0  0  0  0
 13  5  2  0  0  0  0
 14  4  1  0  0  0  0
 15  3  1  0  0  0  0
 16  4  2  0  0  0  0
 17  3  2  0  0  0  0
 18 23  2  0  0  0  0
 19  9  2  0  0  0  0
 20  9  1  0  0  0  0
 21 19  1  0  0  0  0
 22 20  2  0  0  0  0
 23 12  1  0  0  0  0
 24  2  1  0  0  0  0
 25  2  1  0  0  0  0
 26  2  1  0  0  0  0
 27 12  1  0  0  0  0
 14 15  1  0  0  0  0
 21 11  2  0  0  0  0
 18  8  1  0  0  0  0
M  END
> <IDNUMBER>
F0412-0066

> <Chemical_Name>
N-[2-chloro-5-(trifluoromethyl)phenyl]-4-(2,5-dioxopyrrolidin-1-yl)benzamide

> <CAS>
392289-90-6

> <PriceCoeff>
1.00

> <MW>
396.75

> <Description>
solid

> <FSP3>
0.17

> <clogP>
2.08

> <TPSA>
66.48

> <Acceptor>
3

> <Donor>
1

> <RotBonds>
3

> <HAC>
27

> <Collection>
General

$$$$
F1800-0007
  -ISIS-  06222321142D

 23 24  0  0  0  0  0  0  0  0999 V2000
   -3.7583    2.3708    0.0000 N   0  0  3  0  0  0  0  0  0  0  0  0
   -3.3500    1.6500    0.0000 C   0  0  0  0  0  0  0  0  0  0  0  0
   -3.3333    3.0833    0.0000 C   0  0  0  0  0  0  0  0  0  0  0  0
   -4.9958    1.6708    0.0000 C   0  0  0  0  0  0  0  0  0  0  0  0
   -4.5833    2.3750    0.0000 C   0  0  0  0  0  0  0  0  0  0  0  0
   -6.2792   -1.8917    0.0000 C   0  0  0  0  0  0  0  0  0  0  0  0
   -2.1083    2.3458    0.0000 S   0  0  0  0  0  0  0  0  0  0  0  0
   -4.5958    0.9458    0.0000 N   0  0  0  0  0  0  0  0  0  0  0  0
   -5.8583   -1.1792    0.0000 C   0  0  0  0  0  0  0  0  0  0  0  0
   -3.7708    0.9375    0.0000 O   0  0  0  0  0  0  0  0  0  0  0  0
   -3.7375    3.8000    0.0000 O   0  0  0  0  0  0  0  0  0  0  0  0
   -5.8208    1.6833    0.0000 O   0  0  0  0  0  0  0  0  0  0  0  0
   -7.1042   -1.8792    0.0000 O   0  0  0  0  0  0  0  0  0  0  0  0
   -5.0333   -1.1875    0.0000 C   0  0  0  0  0  0  0  0  0  0  0  0
   -6.2542   -0.4625    0.0000 C   0  0  0  0  0  0  0  0  0  0  0  0
   -5.0208    0.2375    0.0000 C   0  0  0  0  0  0  0  0  0  0  0  0
   -2.5083    3.0625    0.0000 C   0  0  0  0  0  0  0  0  0  0  0  0
   -2.5333    1.6458    0.0000 C   0  0  0  0  0  0  0  0  0  0  0  0
   -5.8833   -2.6042    0.0000 O   0  0  0  0  0  0  0  0  0  0  0  0
   -5.8458    0.2500    0.0000 C   0  0  0  0  0  0  0  0  0  0  0  0
   -4.6083   -0.4792    0.0000 C   0  0  0  0  0  0  0  0  0  0  0  0
   -6.2917   -3.3167    0.0000 C   0  0  0  0  0  0  0  0  0  0  0  0
   -5.8958   -4.0292    0.0000 C   0  0  0  0  0  0  0  0  0  0  0  0
  2  1  1  0  0  0  0
  3  1  1  0  0  0  0
  4  5  1  0  0  0  0
  5  1  1  0  0  0  0
  6  9  1  0  0  0  0
  7 17  1  0  0  0  0
  8  4  1  0  0  0  0
  9 14  1  0  0  0  0
 10  2  2  0  0  0  0
 11  3  2  0  0  0  0
 12  4  2  0  0  0  0
 13  6  2  0  0  0  0
 14 21  2  0  0  0  0
 15 20  1  0  0  0  0
 16  8  1  0  0  0  0
 17  3  1  0  0  0  0
 18  2  1  0  0  0  0
 19  6  1  0  0  0  0
 20 16  2  0  0  0  0
 21 16  1  0  0  0  0
 22 19  1  0  0  0  0
 23 22  1  0  0  0  0
 18  7  1  0  0  0  0
 15  9  2  0  0  0  0
M  END
> <IDNUMBER>
F1800-0007

> <Chemical_Name>
ethyl 4-[2-(3,5-dioxothiomorpholin-4-yl)acetamido]benzoate

> <CAS>
868215-01-4

> <PriceCoeff>
1.00

> <MW>
336.36

> <Description>
solid

> <FSP3>
0.33

> <clogP>
2.42

> <TPSA>
118.08

> <Acceptor>
5

> <Donor>
1

> <RotBonds>
6

> <HAC>
23

> <Collection>
General

$$$$
F0907-0036
  -ISIS-  06222321452D

 24 26  0  0  0  0  0  0  0  0999 V2000
    1.9042    4.3542    0.0000 C   0  0  0  0  0  0  0  0  0  0  0  0
   -3.2458    4.3542    0.0000 C   0  0  0  0  0  0  0  0  0  0  0  0
   -0.6708    5.8167    0.0000 C   0  0  0  0  0  0  0  0  0  0  0  0
   -3.2458    1.4250    0.0000 C   0  0  0  0  0  0  0  0  0  0  0  0
    1.9042    1.4250    0.0000 C   0  0  0  0  0  0  0  0  0  0  0  0
   -0.6708   -0.0417    0.0000 N   0  0  3  0  0  0  0  0  0  0  0  0
   -5.8333   -0.0417    0.0000 C   0  0  0  0  0  0  0  0  0  0  0  0
   -8.4000    1.4250    0.0000 C   0  0  0  0  0  0  0  0  0  0  0  0
   -5.8333    5.8167    0.0000 C   0  0  0  0  0  0  0  0  0  0  0  0
    4.4417    5.7750    0.0000 C   0  0  0  0  0  0  0  0  0  0  0  0
   -8.4000    4.3542    0.0000 C   0  0  0  0  0  0  0  0  0  0  0  0
  -10.9292   -0.0000    0.0000 N   0  0  3  0  0  0  0  0  0  0  0  0
   -0.6708    8.7542    0.0000 O   0  0  0  0  0  0  0  0  0  0  0  0
    6.8417    4.2167    0.0000 O   0  0  0  0  0  0  0  0  0  0  0  0
  -10.9750    5.8167    0.0000 F   0  0  0  0  0  0  0  0  0  0  0  0
    4.4875    8.7042    0.0000 O   0  0  0  0  0  0  0  0  0  0  0  0
   -0.6708   -2.9292    0.0000 C   0  0  0  0  0  0  0  0  0  0  0  0
  -10.9750   -2.8875    0.0000 C   0  0  0  0  0  0  0  0  0  0  0  0
  -13.4625    1.4250    0.0000 C   0  0  0  0  0  0  0  0  0  0  0  0
    7.0625   10.1292    0.0000 C   0  0  0  0  0  0  0  0  0  0  0  0
    1.6417   -4.8417    0.0000 C   0  0  0  0  0  0  0  0  0  0  0  0
  -16.0000   -0.0000    0.0000 C   0  0  0  0  0  0  0  0  0  0  0  0
  -13.5042   -4.3542    0.0000 C   0  0  0  0  0  0  0  0  0  0  0  0
    7.0167   13.0167    0.0000 C   0  0  0  0  0  0  0  0  0  0  0  0
  2  3  1  0  0  0  0
  3  1  1  0  0  0  0
  4  6  1  0  0  0  0
  5  1  2  0  0  0  0
  6  5  1  0  0  0  0
  7  4  1  0  0  0  0
  8  7  2  0  0  0  0
  9  2  1  0  0  0  0
 10  1  1  0  0  0  0
 11  9  2  0  0  0  0
 12  8  1  0  0  0  0
 13  3  2  0  0  0  0
 14 10  2  0  0  0  0
 15 11  1  0  0  0  0
 16 10  1  0  0  0  0
 17  6  1  0  0  0  0
 18 12  1  0  0  0  0
 19 12  1  0  0  0  0
 20 16  1  0  0  0  0
 21 17  1  0  0  0  0
 22 19  1  0  0  0  0
 23 18  1  0  0  0  0
 24 20  1  0  0  0  0
  2  4  2  0  0  0  0
 11  8  1  0  0  0  0
 23 22  1  0  0  0  0
M  END
> <IDNUMBER>
F0907-0036

> <Chemical_Name>
ethyl 1-ethyl-6-fluoro-4-oxo-7-(pyrrolidin-1-yl)-1,4-dihydroquinoline-3-carboxylate

> <CAS>
340746-30-7

> <PriceCoeff>
1.00

> <MW>
332.38

> <Description>
solid

> <FSP3>
0.44

> <clogP>
2.07

> <TPSA>
49.85

> <Acceptor>
5

> <Donor>
2

> <RotBonds>
5

> <HAC>
24

> <Collection>
General

> <Reference_compound>
CHEMBL8

> <Similarity>
0.8290

$$$$
F0466-0057
  -ISIS-  06222321452D

 27 30  0  0  0  0  0  0  0  0999 V2000
    0.0000    0.4500    0.0000 C   0  0  0  0  0  0  0  0  0  0  0  0
    0.3042    0.0708    0.0000 C   0  0  0  0  0  0  0  0  0  0  0  0
   -2.2125    1.6458    0.0000 N   0  0  3  0  0  0  0  0  0  0  0  0
    0.2500    0.8625    0.0000 S   0  0  0  0  0  0  0  0  0  0  0  0
    0.7500    0.2708    0.0000 C   0  0  0  0  0  0  0  0  0  0  0  0
   -0.5125    0.4333    0.0000 N   0  0  0  0  0  0  0  0  0  0  0  0
    0.7042    0.7500    0.0000 C   0  0  0  0  0  0  0  0  0  0  0  0
   -1.9833    1.2125    0.0000 C   0  0  0  0  0  0  0  0  0  0  0  0
   -0.7625    0.8208    0.0000 C   0  0  0  0  0  0  0  0  0  0  0  0
   -2.6958    1.7208    0.0000 C   0  0  0  0  0  0  0  0  0  0  0  0
   -1.9833    2.0500    0.0000 C   0  0  0  0  0  0  0  0  0  0  0  0
    0.1792   -0.4000    0.0000 C   0  0  0  0  0  0  0  0  0  0  0  0
    0.0542   -0.8792    0.0000 N   0  0  0  0  0  0  0  0  0  0  0  0
   -1.5125    1.2208    0.0000 C   0  0  0  0  0  0  0  0  0  0  0  0
   -1.2458    0.8208    0.0000 C   0  0  0  0  0  0  0  0  0  0  0  0
   -0.5208    1.2500    0.0000 O   0  0  0  0  0  0  0  0  0  0  0  0
   -2.7458    2.1958    0.0000 C   0  0  0  0  0  0  0  0  0  0  0  0
   -2.3000    2.3958    0.0000 C   0  0  0  0  0  0  0  0  0  0  0  0
   -3.0500    1.3625    0.0000 O   0  0  0  0  0  0  0  0  0  0  0  0
   -1.5000    2.1000    0.0000 O   0  0  0  0  0  0  0  0  0  0  0  0
    1.2000    0.0625    0.0000 C   0  0  0  0  0  0  0  0  0  0  0  0
   -2.2458    0.7958    0.0000 C   0  0  0  0  0  0  0  0  0  0  0  0
    1.1000    1.0333    0.0000 C   0  0  0  0  0  0  0  0  0  0  0  0
   -1.4958    0.3958    0.0000 C   0  0  0  0  0  0  0  0  0  0  0  0
   -1.9708    0.3625    0.0000 C   0  0  0  0  0  0  0  0  0  0  0  0
    1.5792    0.3500    0.0000 C   0  0  0  0  0  0  0  0  0  0  0  0
    1.5292    0.8333    0.0000 C   0  0  0  0  0  0  0  0  0  0  0  0
  2  1  2  0  0  0  0
  3  8  1  0  0  0  0
  4  1  1  0  0  0  0
  5  2  1  0  0  0  0
  6  1  1  0  0  0  0
  7  4  1  0  0  0  0
  8 14  2  0  0  0  0
  9  6  1  0  0  0  0
 10  3  1  0  0  0  0
 11  3  1  0  0  0  0
 12  2  1  0  0  0  0
 13 12  3  0  0  0  0
 14 15  1  0  0  0  0
 15  9  1  0  0  0  0
 16  9  2  0  0  0  0
 17 10  1  0  0  0  0
 18 11  1  0  0  0  0
 19 10  2  0  0  0  0
 20 11  2  0  0  0  0
 21  5  1  0  0  0  0
 22 25  2  0  0  0  0
 23  7  1  0  0  0  0
 24 15  2  0  0  0  0
 25 24  1  0  0  0  0
 26 21  1  0  0  0  0
 27 23  1  0  0  0  0
  7  5  2  0  0  0  0
 27 26  1  0  0  0  0
  8 22  1  0  0  0  0
 17 18  1  0  0  0  0
M  END
> <IDNUMBER>
F0466-0057

> <Chemical_Name>
N-(3-cyano-4,5,6,7-tetrahydro-1-benzothiophen-2-yl)-3-(2,5-dioxopyrrolidin-1-yl)benzamide

> <CAS>
391867-82-6

> <PriceCoeff>
1.00

> <MW>
379.43

> <Description>
solid

> <FSP3>
0.30

> <clogP>
1.43

> <TPSA>
118.51

> <Acceptor>
4

> <Donor>
1

> <RotBonds>
3

> <HAC>
27

> <Collection>
General

$$$$
F0550-0115
  -ISIS-  06222321452D

 23 25  0  0  0  0  0  0  0  0999 V2000
   -3.2500    2.8458    0.0000 N   0  0  3  0  0  0  0  0  0  0  0  0
   -1.8875    2.3958    0.0000 C   0  0  0  0  0  0  0  0  0  0  0  0
   -2.4458    3.0208    0.0000 C   0  0  0  0  0  0  0  0  0  0  0  0
   -3.5083    2.0500    0.0000 C   0  0  0  0  0  0  0  0  0  0  0  0
   -1.0833    2.5625    0.0000 C   0  0  0  0  0  0  0  0  0  0  0  0
   -2.9583    1.4375    0.0000 N   0  0  0  0  0  0  0  0  0  0  0  0
    2.6917    2.6833    0.0000 N   0  3  0  0  0  0  0  0  0  0  0  0
   -2.1458    1.6083    0.0000 C   0  0  0  0  0  0  0  0  0  0  0  0
   -0.5333    1.9583    0.0000 N   0  0  0  0  0  0  0  0  0  0  0  0
    1.9042    2.4750    0.0000 C   0  0  0  0  0  0  0  0  0  0  0  0
    1.6417    1.6833    0.0000 C   0  0  0  0  0  0  0  0  0  0  0  0
    0.2917    2.1208    0.0000 C   0  0  0  0  0  0  0  0  0  0  0  0
   -4.3333    2.0583    0.0000 S   0  0  0  0  0  0  0  0  0  0  0  0
    0.8375    1.5125    0.0000 C   0  0  0  0  0  0  0  0  0  0  0  0
    3.3375    2.1458    0.0000 O   0  5  0  0  0  0  0  0  0  0  0  0
   -2.1833    3.8000    0.0000 O   0  0  0  0  0  0  0  0  0  0  0  0
    2.9792    3.4583    0.0000 O   0  0  0  0  0  0  0  0  0  0  0  0
   -0.8208    3.3458    0.0000 O   0  0  0  0  0  0  0  0  0  0  0  0
    1.3417    3.0708    0.0000 C   0  0  0  0  0  0  0  0  0  0  0  0
    0.5292    2.9125    0.0000 C   0  0  0  0  0  0  0  0  0  0  0  0
   -3.9208    3.3333    0.0000 C   0  0  0  0  0  0  0  0  0  0  0  0
    0.5917    0.7583    0.0000 Cl  0  0  0  0  0  0  0  0  0  0  0  0
   -4.5833    2.8458    0.0000 C   0  0  0  0  0  0  0  0  0  0  0  0
  2  3  1  0  0  0  0
  3  1  1  0  0  0  0
  4  1  1  0  0  0  0
  5  2  1  0  0  0  0
  6  4  2  0  0  0  0
  7 10  1  0  0  0  0
  8  6  1  0  0  0  0
  9  5  1  0  0  0  0
 10 19  2  0  0  0  0
 11 14  2  0  0  0  0
 12  9  1  0  0  0  0
 13  4  1  0  0  0  0
 14 12  1  0  0  0  0
 15  7  1  0  0  0  0
 16  3  2  0  0  0  0
 17  7  2  0  0  0  0
 18  5  2  0  0  0  0
 19 20  1  0  0  0  0
 20 12  2  0  0  0  0
 21  1  1  0  0  0  0
 22 14  1  0  0  0  0
 23 21  1  0  0  0  0
 23 13  1  0  0  0  0
  2  8  2  0  0  0  0
 10 11  1  0  0  0  0
M  CHG  2   7   1  15  -1
M  END
> <IDNUMBER>
F0550-0115

> <Chemical_Name>
N-(2-chloro-4-nitrophenyl)-5-oxo-2H,3H,5H-[1,3]thiazolo[3,2-a]pyrimidine-6-carboxamide

> <CAS>
532965-75-6

> <PriceCoeff>
1.00

> <MW>
352.75

> <Description>
solid

> <FSP3>
0.15

> <clogP>
0.61

> <TPSA>
130.21

> <Acceptor>
5

> <Donor>
1

> <RotBonds>
3

> <HAC>
23

> <Collection>
General

$$$$
F0550-0116
  -ISIS-  06222321452D

 23 25  0  0  0  0  0  0  0  0999 V2000
   -3.2500    2.8458    0.0000 N   0  0  3  0  0  0  0  0  0  0  0  0
   -1.8875    2.3958    0.0000 C   0  0  0  0  0  0  0  0  0  0  0  0
   -2.4458    3.0208    0.0000 C   0  0  0  0  0  0  0  0  0  0  0  0
   -3.5083    2.0500    0.0000 C   0  0  0  0  0  0  0  0  0  0  0  0
    0.8417    1.5125    0.0000 C   0  0  0  0  0  0  0  0  0  0  0  0
    0.5792    0.7458    0.0000 N   0  3  0  0  0  0  0  0  0  0  0  0
   -1.0833    2.5625    0.0000 C   0  0  0  0  0  0  0  0  0  0  0  0
   -2.9583    1.4375    0.0000 N   0  0  0  0  0  0  0  0  0  0  0  0
   -2.1458    1.6083    0.0000 C   0  0  0  0  0  0  0  0  0  0  0  0
    0.2917    2.1208    0.0000 C   0  0  0  0  0  0  0  0  0  0  0  0
   -0.5333    1.9583    0.0000 N   0  0  0  0  0  0  0  0  0  0  0  0
    1.6375    1.6833    0.0000 C   0  0  0  0  0  0  0  0  0  0  0  0
   -4.3333    2.0583    0.0000 S   0  0  0  0  0  0  0  0  0  0  0  0
   -0.2125    0.4833    0.0000 O   0  5  0  0  0  0  0  0  0  0  0  0
   -2.1833    3.8000    0.0000 O   0  0  0  0  0  0  0  0  0  0  0  0
    1.0917    0.0958    0.0000 O   0  0  0  0  0  0  0  0  0  0  0  0
   -0.8208    3.3458    0.0000 O   0  0  0  0  0  0  0  0  0  0  0  0
    0.5292    2.9125    0.0000 C   0  0  0  0  0  0  0  0  0  0  0  0
   -3.9208    3.3333    0.0000 C   0  0  0  0  0  0  0  0  0  0  0  0
    1.9042    2.4750    0.0000 C   0  0  0  0  0  0  0  0  0  0  0  0
   -4.5833    2.8458    0.0000 C   0  0  0  0  0  0  0  0  0  0  0  0
    1.3375    3.0708    0.0000 C   0  0  0  0  0  0  0  0  0  0  0  0
    2.6917    2.6833    0.0000 Cl  0  0  0  0  0  0  0  0  0  0  0  0
  2  3  1  0  0  0  0
  3  1  1  0  0  0  0
  4  1  1  0  0  0  0
  5 10  1  0  0  0  0
  6  5  1  0  0  0  0
  7  2  1  0  0  0  0
  8  4  2  0  0  0  0
  9  8  1  0  0  0  0
 10 11  1  0  0  0  0
 11  7  1  0  0  0  0
 12  5  2  0  0  0  0
 13  4  1  0  0  0  0
 14  6  1  0  0  0  0
 15  3  2  0  0  0  0
 16  6  2  0  0  0  0
 17  7  2  0  0  0  0
 18 10  2  0  0  0  0
 19  1  1  0  0  0  0
 20 22  2  0  0  0  0
 21 19  1  0  0  0  0
 22 18  1  0  0  0  0
 23 20  1  0  0  0  0
 21 13  1  0  0  0  0
  2  9  2  0  0  0  0
 20 12  1  0  0  0  0
M  CHG  2   6   1  14  -1
M  END
> <IDNUMBER>
F0550-0116

> <Chemical_Name>
N-(4-chloro-2-nitrophenyl)-5-oxo-2H,3H,5H-[1,3]thiazolo[3,2-a]pyrimidine-6-carboxamide

> <CAS>
443329-78-0

> <PriceCoeff>
1.00

> <MW>
352.75

> <Description>
solid

> <FSP3>
0.15

> <clogP>
1.00

> <TPSA>
130.21

> <Acceptor>
5

> <Donor>
1

> <RotBonds>
3

> <HAC>
23

> <Collection>
General

$$$$
F0440-0372
  -ISIS-  06222321142D

 22 23  0  0  0  0  0  0  0  0999 V2000
    1.3792   -0.6167    0.0000 N   0  0  3  0  0  0  0  0  0  0  0  0
   -0.9708   -1.6167    0.0000 C   0  0  0  0  0  0  0  0  0  0  0  0
   -0.8333   -2.2167    0.0000 N   0  3  0  0  0  0  0  0  0  0  0  0
    1.3167   -0.0500    0.0000 C   0  0  0  0  0  0  0  0  0  0  0  0
    1.9500   -0.7500    0.0000 C   0  0  0  0  0  0  0  0  0  0  0  0
   -0.5500   -1.2167    0.0000 C   0  0  0  0  0  0  0  0  0  0  0  0
    0.4167   -0.9167    0.0000 C   0  0  0  0  0  0  0  0  0  0  0  0
    0.0167   -1.3542    0.0000 N   0  0  0  0  0  0  0  0  0  0  0  0
    1.0000   -1.0500    0.0000 C   0  0  0  0  0  0  0  0  0  0  0  0
   -1.5333   -1.4792    0.0000 C   0  0  0  0  0  0  0  0  0  0  0  0
   -1.2708   -2.6000    0.0000 O   0  5  0  0  0  0  0  0  0  0  0  0
   -0.2708   -2.4000    0.0000 O   0  0  0  0  0  0  0  0  0  0  0  0
    1.8792    0.1708    0.0000 C   0  0  0  0  0  0  0  0  0  0  0  0
    2.2167   -0.2167    0.0000 C   0  0  0  0  0  0  0  0  0  0  0  0
    0.8000    0.2333    0.0000 O   0  0  0  0  0  0  0  0  0  0  0  0
    2.1917   -1.2792    0.0000 O   0  0  0  0  0  0  0  0  0  0  0  0
    0.2500   -0.3542    0.0000 O   0  0  0  0  0  0  0  0  0  0  0  0
   -0.7125   -0.6542    0.0000 C   0  0  0  0  0  0  0  0  0  0  0  0
   -1.6958   -0.9167    0.0000 C   0  0  0  0  0  0  0  0  0  0  0  0
   -1.2708   -0.5000    0.0000 C   0  0  0  0  0  0  0  0  0  0  0  0
   -2.2708   -0.7542    0.0000 O   0  0  0  0  0  0  0  0  0  0  0  0
   -2.4500   -0.1792    0.0000 C   0  0  0  0  0  0  0  0  0  0  0  0
  2  6  1  0  0  0  0
  3  2  1  0  0  0  0
  4  1  1  0  0  0  0
  5  1  1  0  0  0  0
  6  8  1  0  0  0  0
  7  9  1  0  0  0  0
  8  7  1  0  0  0  0
  9  1  1  0  0  0  0
 10  2  2  0  0  0  0
 11  3  1  0  0  0  0
 12  3  2  0  0  0  0
 13  4  1  0  0  0  0
 14  5  1  0  0  0  0
 15  4  2  0  0  0  0
 16  5  2  0  0  0  0
 17  7  2  0  0  0  0
 18  6  2  0  0  0  0
 19 20  2  0  0  0  0
 20 18  1  0  0  0  0
 21 19  1  0  0  0  0
 22 21  1  0  0  0  0
 14 13  1  0  0  0  0
 19 10  1  0  0  0  0
M  CHG  2   3   1  11  -1
M  END
> <IDNUMBER>
F0440-0372

> <Chemical_Name>
2-(2,5-dioxopyrrolidin-1-yl)-N-(4-methoxy-2-nitrophenyl)acetamide

> <CAS>
329903-05-1

> <PriceCoeff>
1.00

> <MW>
307.26

> <Description>
solid

> <FSP3>
0.31

> <clogP>
0.51

> <TPSA>
118.85

> <Acceptor>
6

> <Donor>
1

> <RotBonds>
5

> <HAC>
22

> <Collection>
General

$$$$
F0440-0322
  -ISIS-  06222321442D

 20 22  0  0  0  0  0  0  0  0999 V2000
   -0.9000   -0.7000    0.0000 C   0  0  0  0  0  0  0  0  0  0  0  0
    1.6292   -2.1292    0.0000 N   0  0  3  0  0  0  0  0  0  0  0  0
   -1.4000   -1.3667    0.0000 N   0  0  0  0  0  0  0  0  0  0  0  0
   -1.4000   -0.0042    0.0000 S   0  0  0  0  0  0  0  0  0  0  0  0
   -0.0625   -0.6667    0.0000 N   0  0  0  0  0  0  0  0  0  0  0  0
    2.4417   -2.3042    0.0000 C   0  0  0  0  0  0  0  0  0  0  0  0
    1.2000   -2.8667    0.0000 C   0  0  0  0  0  0  0  0  0  0  0  0
    0.3500   -1.4042    0.0000 C   0  0  0  0  0  0  0  0  0  0  0  0
   -2.2000   -1.1042    0.0000 C   0  0  0  0  0  0  0  0  0  0  0  0
    1.2042   -1.4042    0.0000 C   0  0  0  0  0  0  0  0  0  0  0  0
   -2.2000   -0.2667    0.0000 C   0  0  0  0  0  0  0  0  0  0  0  0
    2.5292   -3.1500    0.0000 C   0  0  0  0  0  0  0  0  0  0  0  0
    1.7667   -3.5000    0.0000 C   0  0  0  0  0  0  0  0  0  0  0  0
    3.1042   -1.7667    0.0000 O   0  0  0  0  0  0  0  0  0  0  0  0
    0.3500   -2.9667    0.0000 O   0  0  0  0  0  0  0  0  0  0  0  0
   -0.0625   -2.1292    0.0000 O   0  0  0  0  0  0  0  0  0  0  0  0
   -2.9458   -1.5292    0.0000 C   0  0  0  0  0  0  0  0  0  0  0  0
   -2.9458    0.1458    0.0000 C   0  0  0  0  0  0  0  0  0  0  0  0
   -3.6833   -0.2667    0.0000 C   0  0  0  0  0  0  0  0  0  0  0  0
   -3.6833   -1.1042    0.0000 C   0  0  0  0  0  0  0  0  0  0  0  0
  2 10  1  0  0  0  0
  3  1  2  0  0  0  0
  4  1  1  0  0  0  0
  5  1  1  0  0  0  0
  6  2  1  0  0  0  0
  7  2  1  0  0  0  0
  8  5  1  0  0  0  0
  9  3  1  0  0  0  0
 10  8  1  0  0  0  0
 11  4  1  0  0  0  0
 12  6  1  0  0  0  0
 13  7  1  0  0  0  0
 14  6  2  0  0  0  0
 15  7  2  0  0  0  0
 16  8  2  0  0  0  0
 17  9  1  0  0  0  0
 18 11  1  0  0  0  0
 19 18  2  0  0  0  0
 20 17  2  0  0  0  0
  9 11  2  0  0  0  0
 20 19  1  0  0  0  0
 13 12  1  0  0  0  0
M  END
> <IDNUMBER>
F0440-0322

> <Chemical_Name>
N-(1,3-benzothiazol-2-yl)-2-(2,5-dioxopyrrolidin-1-yl)acetamide

> <CAS>
476308-57-3

> <PriceCoeff>
1.00

> <MW>
289.31

> <Description>
solid

> <FSP3>
0.23

> <clogP>
1.44

> <TPSA>
107.61

> <Acceptor>
4

> <Donor>
1

> <RotBonds>
3

> <HAC>
20

> <Collection>
General

$$$$
F1813-0847
  -ISIS-  06222321442D

 22 24  0  0  0  0  0  0  0  0999 V2000
   -6.0000    3.3958    0.0000 C   0  0  0  0  0  0  0  0  0  0  0  0
   -3.8708    4.6250    0.0000 N   0  0  3  0  0  0  0  0  0  0  0  0
   -6.0792    2.5625    0.0000 N   0  0  0  0  0  0  0  0  0  0  0  0
   -6.8917    2.3958    0.0000 C   0  0  0  0  0  0  0  0  0  0  0  0
   -6.7542    3.7333    0.0000 S   0  0  0  0  0  0  0  0  0  0  0  0
   -7.3042    3.1083    0.0000 C   0  0  0  0  0  0  0  0  0  0  0  0
   -5.2958    3.8083    0.0000 N   0  0  0  0  0  0  0  0  0  0  0  0
   -3.2000    5.0917    0.0000 C   0  0  0  0  0  0  0  0  0  0  0  0
   -4.5333    5.0917    0.0000 C   0  0  0  0  0  0  0  0  0  0  0  0
   -4.5833    3.3958    0.0000 C   0  0  0  0  0  0  0  0  0  0  0  0
   -8.1292    3.1125    0.0000 C   0  0  0  0  0  0  0  0  0  0  0  0
   -3.8708    3.8000    0.0000 C   0  0  0  0  0  0  0  0  0  0  0  0
   -7.3042    1.6833    0.0000 C   0  0  0  0  0  0  0  0  0  0  0  0
   -8.5292    2.3958    0.0000 C   0  0  0  0  0  0  0  0  0  0  0  0
   -4.2833    5.8792    0.0000 C   0  0  0  0  0  0  0  0  0  0  0  0
   -3.4583    5.8875    0.0000 C   0  0  0  0  0  0  0  0  0  0  0  0
   -5.3208    4.8542    0.0000 O   0  0  0  0  0  0  0  0  0  0  0  0
   -2.4208    4.8375    0.0000 O   0  0  0  0  0  0  0  0  0  0  0  0
   -4.5833    2.5708    0.0000 O   0  0  0  0  0  0  0  0  0  0  0  0
   -8.1250    1.6833    0.0000 C   0  0  0  0  0  0  0  0  0  0  0  0
   -8.5292    3.8333    0.0000 C   0  0  0  0  0  0  0  0  0  0  0  0
   -8.5292    0.9708    0.0000 C   0  0  0  0  0  0  0  0  0  0  0  0
  2 12  1  0  0  0  0
  3  1  2  0  0  0  0
  4  3  1  0  0  0  0
  5  1  1  0  0  0  0
  6  5  1  0  0  0  0
  7  1  1  0  0  0  0
  8  2  1  0  0  0  0
  9  2  1  0  0  0  0
 10  7  1  0  0  0  0
 11  6  2  0  0  0  0
 12 10  1  0  0  0  0
 13  4  2  0  0  0  0
 14 11  1  0  0  0  0
 15  9  1  0  0  0  0
 16  8  1  0  0  0  0
 17  9  2  0  0  0  0
 18  8  2  0  0  0  0
 19 10  2  0  0  0  0
 20 13  1  0  0  0  0
 21 11  1  0  0  0  0
 22 20  1  0  0  0  0
  6  4  1  0  0  0  0
 14 20  2  0  0  0  0
 16 15  1  0  0  0  0
M  END
> <IDNUMBER>
F1813-0847

> <Chemical_Name>
N-(5,7-dimethyl-1,3-benzothiazol-2-yl)-2-(2,5-dioxopyrrolidin-1-yl)acetamide

> <CAS>
897618-14-3

> <PriceCoeff>
1.00

> <MW>
317.36

> <Description>
solid

> <FSP3>
0.33

> <clogP>
2.44

> <TPSA>
107.61

> <Acceptor>
4

> <Donor>
1

> <RotBonds>
3

> <HAC>
22

> <Collection>
General

$$$$
F2880-0243
  -ISIS-  06222321462D

 23 24  0  0  0  0  0  0  0  0999 V2000
   -4.5833    0.7333    0.0000 N   0  3  0  0  0  0  0  0  0  0  0  0
   -4.5833    2.9833    0.0000 C   0  0  0  0  0  0  0  0  0  0  0  0
   -4.5833    3.7333    0.0000 C   0  0  0  0  0  0  0  0  0  0  0  0
   -3.9375    2.6083    0.0000 C   0  0  0  0  0  0  0  0  0  0  0  0
   -4.5833    1.4833    0.0000 C   0  0  0  0  0  0  0  0  0  0  0  0
   -1.9875    3.7333    0.0000 C   0  0  0  0  0  0  0  0  0  0  0  0
   -2.6375    4.1042    0.0000 C   0  0  3  0  0  0  0  0  0  0  0  0
   -3.9375    1.8583    0.0000 C   0  0  0  0  0  0  0  0  0  0  0  0
   -3.9375    4.1042    0.0000 N   0  0  0  0  0  0  0  0  0  0  0  0
   -5.2333    2.6083    0.0000 C   0  0  0  0  0  0  0  0  0  0  0  0
   -3.2875    3.7333    0.0000 C   0  0  0  0  0  0  0  0  0  0  0  0
   -1.3375    4.1042    0.0000 S   0  0  0  0  0  0  0  0  0  0  0  0
   -5.2333    0.3583    0.0000 O   0  5  0  0  0  0  0  0  0  0  0  0
   -3.9333    0.3583    0.0000 O   0  0  0  0  0  0  0  0  0  0  0  0
   -2.6375    4.8542    0.0000 N   0  0  3  0  0  0  0  0  0  0  0  0
   -5.2333    1.8583    0.0000 C   0  0  0  0  0  0  0  0  0  0  0  0
   -1.8333    2.9958    0.0000 C   0  0  0  0  0  0  0  0  0  0  0  0
   -0.7833    3.6083    0.0000 C   0  0  0  0  0  0  0  0  0  0  0  0
   -5.2333    4.1042    0.0000 O   0  0  0  0  0  0  0  0  0  0  0  0
   -1.0833    2.9208    0.0000 C   0  0  0  0  0  0  0  0  0  0  0  0
   -3.2833    2.9833    0.0000 Cl  0  0  0  0  0  0  0  0  0  0  0  0
   -3.2875    5.2292    0.0000 C   0  0  0  0  0  0  0  0  0  0  0  0
   -1.9958    5.2292    0.0000 C   0  0  0  0  0  0  0  0  0  0  0  0
  2 10  2  0  0  0  0
  3  2  1  0  0  0  0
  4  8  2  0  0  0  0
  5  1  1  0  0  0  0
  6  7  1  0  0  0  0
  7 11  1  0  0  0  0
  8  5  1  0  0  0  0
  9  3  1  0  0  0  0
 10 16  1  0  0  0  0
 11  9  1  0  0  0  0
 12  6  1  0  0  0  0
 13  1  1  0  0  0  0
 14  1  2  0  0  0  0
 15  7  1  0  0  0  0
 16  5  2  0  0  0  0
 17  6  2  0  0  0  0
 18 12  1  0  0  0  0
 19  3  2  0  0  0  0
 20 17  1  0  0  0  0
 21  4  1  0  0  0  0
 22 15  1  0  0  0  0
 23 15  1  0  0  0  0
  2  4  1  0  0  0  0
 20 18  2  0  0  0  0
M  CHG  2   1   1  13  -1
M  END
> <IDNUMBER>
F2880-0243

> <Chemical_Name>
2-chloro-N-[2-(dimethylamino)-2-(thiophen-2-yl)ethyl]-4-nitrobenzamide

> <CAS>
942010-18-6

> <PriceCoeff>
1.00

> <MW>
353.82

> <Description>
solid

> <FSP3>
0.27

> <clogP>
2.68

> <TPSA>
103.72

> <Acceptor>
3

> <Donor>
2

> <RotBonds>
6

> <HAC>
23

> <Collection>
General

$$$$
F1318-0213
  -ISIS-  06222321142D

 15 15  0  0  0  0  0  0  0  0999 V2000
    7.3250   -7.2167    0.0000 N   0  3  0  0  0  0  0  0  0  0  0  0
   10.2167   -5.0917    0.0000 C   0  0  0  0  0  0  0  0  0  0  0  0
    7.7417   -6.5042    0.0000 C   0  0  0  0  0  0  0  0  0  0  0  0
    9.7917   -5.7917    0.0000 O   0  0  0  0  0  0  0  0  0  0  0  0
    8.5625   -6.5042    0.0000 C   0  0  0  0  0  0  0  0  0  0  0  0
   11.0500   -5.0917    0.0000 N   0  0  3  0  0  0  0  0  0  0  0  0
    6.5000   -7.2167    0.0000 O   0  5  0  0  0  0  0  0  0  0  0  0
    7.7417   -7.9292    0.0000 O   0  0  0  0  0  0  0  0  0  0  0  0
    9.7917   -4.3667    0.0000 O   0  0  0  0  0  0  0  0  0  0  0  0
    8.9667   -5.7917    0.0000 C   0  0  0  0  0  0  0  0  0  0  0  0
    7.3292   -5.7917    0.0000 C   0  0  0  0  0  0  0  0  0  0  0  0
    7.7417   -5.0875    0.0000 C   0  0  0  0  0  0  0  0  0  0  0  0
   11.4667   -4.3667    0.0000 C   0  0  0  0  0  0  0  0  0  0  0  0
   11.4792   -5.8042    0.0000 C   0  0  0  0  0  0  0  0  0  0  0  0
    8.5625   -5.0875    0.0000 C   0  0  0  0  0  0  0  0  0  0  0  0
  2  4  1  0  0  0  0
  3  1  1  0  0  0  0
  4 10  1  0  0  0  0
  5  3  2  0  0  0  0
  6  2  1  0  0  0  0
  7  1  1  0  0  0  0
  8  1  2  0  0  0  0
  9  2  2  0  0  0  0
 10  5  1  0  0  0  0
 11  3  1  0  0  0  0
 12 11  2  0  0  0  0
 13  6  1  0  0  0  0
 14  6  1  0  0  0  0
 15 12  1  0  0  0  0
 15 10  2  0  0  0  0
M  CHG  2   1   1   7  -1
M  END
> <IDNUMBER>
F1318-0213

> <Chemical_Name>
3-nitrophenyl N,N-dimethylcarbamate

> <CAS>
7304-99-6

> <PriceCoeff>
1.00

> <MW>
210.19

> <Description>
solid

> <FSP3>
0.22

> <clogP>
1.47

> <TPSA>
72.68

> <Acceptor>
4

> <Donor>
0

> <RotBonds>
4

> <HAC>
15

> <Collection>
General

> <Reference_compound>
CHEMBL2288473

> <Similarity>
0.8580

$$$$
F3023-0908
  -ISIS-  06222321462D

 24 26  0  0  0  0  0  0  0  0999 V2000
    3.5167   -6.0292    0.0000 N   0  0  3  0  0  0  0  0  0  0  0  0
    3.9375   -6.6000    0.0000 C   0  0  0  0  0  0  0  0  0  0  0  0
    3.9292   -5.4542    0.0000 C   0  0  0  0  0  0  0  0  0  0  0  0
    4.6125   -6.3792    0.0000 C   0  0  3  0  0  0  0  0  0  0  0  0
    4.6042   -5.6667    0.0000 C   0  0  0  0  0  0  0  0  0  0  0  0
    5.1792   -6.7917    0.0000 N   0  0  3  0  0  0  0  0  0  0  0  0
    6.3292   -7.6250    0.0000 N   0  0  3  0  0  0  0  0  0  0  0  0
    2.8042   -6.0292    0.0000 C   0  0  0  0  0  0  0  0  0  0  0  0
    3.7250   -7.2750    0.0000 O   0  0  0  0  0  0  0  0  0  0  0  0
    3.7042   -4.7792    0.0000 O   0  0  0  0  0  0  0  0  0  0  0  0
    5.1042   -7.4917    0.0000 C   0  0  0  0  0  0  0  0  0  0  0  0
    5.8292   -6.5000    0.0000 C   0  0  0  0  0  0  0  0  0  0  0  0
    6.9000   -8.0417    0.0000 C   0  0  0  0  0  0  0  0  0  0  0  0
    5.6792   -7.9125    0.0000 C   0  0  0  0  0  0  0  0  0  0  0  0
    6.4042   -6.9167    0.0000 C   0  0  0  0  0  0  0  0  0  0  0  0
    7.5417   -7.7500    0.0000 C   0  0  0  0  0  0  0  0  0  0  0  0
    2.4542   -6.6500    0.0000 C   0  0  3  0  0  0  0  0  0  0  0  0
    7.6167   -7.0500    0.0000 C   0  0  0  0  0  0  0  0  0  0  0  0
    8.1167   -8.1667    0.0000 C   0  0  0  0  0  0  0  0  0  0  0  0
    1.7500   -6.6542    0.0000 C   0  0  0  0  0  0  0  0  0  0  0  0
    2.8167   -7.2625    0.0000 C   0  0  0  0  0  0  0  0  0  0  0  0
    8.7625   -7.8792    0.0000 C   0  0  0  0  0  0  0  0  0  0  0  0
    8.2542   -6.7542    0.0000 C   0  0  0  0  0  0  0  0  0  0  0  0
    8.8375   -7.1750    0.0000 C   0  0  0  0  0  0  0  0  0  0  0  0
  2  1  1  0  0  0  0
  3  1  1  0  0  0  0
  4  2  1  0  0  0  0
  5  3  1  0  0  0  0
  6  4  1  0  0  0  0
  7 15  1  0  0  0  0
  8  1  1  0  0  0  0
  9  2  2  0  0  0  0
 10  3  2  0  0  0  0
 11  6  1  0  0  0  0
 12  6  1  0  0  0  0
 13  7  1  0  0  0  0
 14 11  1  0  0  0  0
 15 12  1  0  0  0  0
 16 13  1  0  0  0  0
 17  8  1  0  0  0  0
 18 16  1  0  0  0  0
 19 16  2  0  0  0  0
 20 17  1  0  0  0  0
 21 17  1  0  0  0  0
 22 19  1  0  0  0  0
 23 18  2  0  0  0  0
 24 22  2  0  0  0  0
  5  4  1  0  0  0  0
  7 14  1  0  0  0  0
 24 23  1  0  0  0  0
M  END
> <IDNUMBER>
F3023-0908

> <Chemical_Name>
3-(4-benzylpiperazin-1-yl)-1-(2-methylpropyl)pyrrolidine-2,5-dione

> <CAS>
857494-21-4

> <PriceCoeff>
1.00

> <MW>
329.44

> <Description>
solid

> <FSP3>
0.58

> <clogP>
4.10

> <TPSA>
43.86

> <Acceptor>
4

> <Donor>
2

> <RotBonds>
5

> <HAC>
24

> <Collection>
General

$$$$
F5893-0231
  -ISIS-  06222321152D

 23 25  0  0  0  0  0  0  0  0999 V2000
   -3.0708    0.0458    0.0000 N   0  0  3  0  0  0  0  0  0  0  0  0
   -2.9083   -0.6917    0.0000 C   0  0  0  0  0  0  0  0  0  0  0  0
   -2.4208    0.4208    0.0000 C   0  0  0  0  0  0  0  0  0  0  0  0
   -1.7833    2.2958    0.0000 N   0  0  0  0  0  0  0  0  0  0  0  0
   -2.4208    2.6708    0.0000 C   0  0  0  0  0  0  0  0  0  0  0  0
   -3.7125    1.1708    0.0000 C   0  0  0  0  0  0  0  0  0  0  0  0
   -3.0708    2.2958    0.0000 C   0  0  0  0  0  0  0  0  0  0  0  0
   -3.0708    1.5458    0.0000 N   0  0  0  0  0  0  0  0  0  0  0  0
   -3.7125    0.4208    0.0000 C   0  0  0  0  0  0  0  0  0  0  0  0
   -1.1250    2.6708    0.0000 C   0  0  0  0  0  0  0  0  0  0  0  0
   -2.1625   -0.7667    0.0000 C   0  0  0  0  0  0  0  0  0  0  0  0
   -1.8583   -0.0875    0.0000 C   0  0  0  0  0  0  0  0  0  0  0  0
   -3.4083   -1.2542    0.0000 O   0  0  0  0  0  0  0  0  0  0  0  0
   -2.3458    1.1708    0.0000 O   0  0  0  0  0  0  0  0  0  0  0  0
   -4.3625    1.5458    0.0000 O   0  0  0  0  0  0  0  0  0  0  0  0
   -2.4208    3.4208    0.0000 C   0  0  0  0  0  0  0  0  0  0  0  0
   -1.7833    3.7958    0.0000 C   0  0  0  0  0  0  0  0  0  0  0  0
   -1.1250    3.4208    0.0000 C   0  0  0  0  0  0  0  0  0  0  0  0
   -0.4708    2.2875    0.0000 O   0  0  0  0  0  0  0  0  0  0  0  0
   -3.7208    2.6708    0.0000 C   0  0  0  0  0  0  0  0  0  0  0  0
   -3.7208    3.4208    0.0000 C   0  0  0  0  0  0  0  0  0  0  0  0
   -3.0708    3.7958    0.0000 C   0  0  0  0  0  0  0  0  0  0  0  0
   -0.4708    1.5375    0.0000 C   0  0  0  0  0  0  0  0  0  0  0  0
  2  1  1  0  0  0  0
  3  1  1  0  0  0  0
  4  5  1  0  0  0  0
  5  7  2  0  0  0  0
  6  9  1  0  0  0  0
  7  8  1  0  0  0  0
  8  6  1  0  0  0  0
  9  1  1  0  0  0  0
 10  4  2  0  0  0  0
 11  2  1  0  0  0  0
 12  3  1  0  0  0  0
 13  2  2  0  0  0  0
 14  3  2  0  0  0  0
 15  6  2  0  0  0  0
 16  5  1  0  0  0  0
 17 16  1  0  0  0  0
 18 17  2  0  0  0  0
 19 10  1  0  0  0  0
 20  7  1  0  0  0  0
 21 20  2  0  0  0  0
 22 21  1  0  0  0  0
 23 19  1  0  0  0  0
 12 11  1  0  0  0  0
 22 16  2  0  0  0  0
 18 10  1  0  0  0  0
M  END
> <IDNUMBER>
F5893-0231

> <Chemical_Name>
2-(2,5-dioxopyrrolidin-1-yl)-N-(2-methoxyquinolin-8-yl)acetamide

> <CAS>
1226440-24-9

> <PriceCoeff>
1.00

> <MW>
313.31

> <Description>
solid

> <FSP3>
0.25

> <clogP>
1.94

> <TPSA>
88.60

> <Acceptor>
5

> <Donor>
2

> <RotBonds>
4

> <HAC>
23

> <Collection>
General

$$$$
F3325-0099
  -ISIS-  06222321462D

 27 30  0  0  0  0  0  0  0  0999 V2000
    4.8792   -1.3250    0.0000 N   0  0  3  0  0  0  0  0  0  0  0  0
    5.3667   -1.9917    0.0000 C   0  0  0  0  0  0  0  0  0  0  0  0
    5.3625   -0.6542    0.0000 C   0  0  0  0  0  0  0  0  0  0  0  0
    6.1542   -1.7292    0.0000 C   0  0  3  0  0  0  0  0  0  0  0  0
    6.1417   -0.9042    0.0000 C   0  0  0  0  0  0  0  0  0  0  0  0
    4.0542   -1.3292    0.0000 C   0  0  0  0  0  0  0  0  0  0  0  0
    6.8167   -2.2125    0.0000 N   0  0  3  0  0  0  0  0  0  0  0  0
    8.1542   -3.1750    0.0000 N   0  0  3  0  0  0  0  0  0  0  0  0
    5.1167   -2.7750    0.0000 O   0  0  0  0  0  0  0  0  0  0  0  0
    8.8250   -3.6542    0.0000 C   0  0  0  0  0  0  0  0  0  0  0  0
    5.1042    0.1333    0.0000 O   0  0  0  0  0  0  0  0  0  0  0  0
    3.6417   -0.6167    0.0000 C   0  0  0  0  0  0  0  0  0  0  0  0
    7.5667   -1.8667    0.0000 C   0  0  0  0  0  0  0  0  0  0  0  0
    6.7292   -3.0292    0.0000 C   0  0  0  0  0  0  0  0  0  0  0  0
    7.4000   -3.5125    0.0000 C   0  0  0  0  0  0  0  0  0  0  0  0
    8.2375   -2.3542    0.0000 C   0  0  0  0  0  0  0  0  0  0  0  0
    8.7375   -4.4792    0.0000 C   0  0  0  0  0  0  0  0  0  0  0  0
    9.5667   -3.3167    0.0000 C   0  0  0  0  0  0  0  0  0  0  0  0
   10.1542   -4.6250    0.0000 C   0  0  0  0  0  0  0  0  0  0  0  0
    2.8167   -0.6250    0.0000 C   0  0  0  0  0  0  0  0  0  0  0  0
    9.4042   -4.9625    0.0000 C   0  0  0  0  0  0  0  0  0  0  0  0
   10.2417   -3.8000    0.0000 C   0  0  0  0  0  0  0  0  0  0  0  0
    3.6500   -2.0417    0.0000 C   0  0  0  0  0  0  0  0  0  0  0  0
   10.8250   -5.1042    0.0000 F   0  0  0  0  0  0  0  0  0  0  0  0
    2.8292   -2.0542    0.0000 C   0  0  0  0  0  0  0  0  0  0  0  0
    2.4042   -1.3417    0.0000 C   0  0  0  0  0  0  0  0  0  0  0  0
    2.4000    0.0875    0.0000 C   0  0  0  0  0  0  0  0  0  0  0  0
  2  1  1  0  0  0  0
  3  1  1  0  0  0  0
  4  2  1  0  0  0  0
  5  3  1  0  0  0  0
  6  1  1  0  0  0  0
  7  4  1  0  0  0  0
  8 15  1  0  0  0  0
  9  2  2  0  0  0  0
 10  8  1  0  0  0  0
 11  3  2  0  0  0  0
 12  6  2  0  0  0  0
 13  7  1  0  0  0  0
 14  7  1  0  0  0  0
 15 14  1  0  0  0  0
 16 13  1  0  0  0  0
 17 10  2  0  0  0  0
 18 10  1  0  0  0  0
 19 22  1  0  0  0  0
 20 12  1  0  0  0  0
 21 17  1  0  0  0  0
 22 18  2  0  0  0  0
 23  6  1  0  0  0  0
 24 19  1  0  0  0  0
 25 23  2  0  0  0  0
 26 25  1  0  0  0  0
 27 20  1  0  0  0  0
  4  5  1  0  0  0  0
 20 26  2  0  0  0  0
 16  8  1  0  0  0  0
 21 19  2  0  0  0  0
M  END
> <IDNUMBER>
F3325-0099

> <Chemical_Name>
3-[4-(4-fluorophenyl)piperazin-1-yl]-1-(3-methylphenyl)pyrrolidine-2,5-dione

> <CAS>
296797-95-0

> <PriceCoeff>
1.00

> <MW>
367.42

> <Description>
solid

> <FSP3>
0.33

> <clogP>
3.96

> <TPSA>
43.86

> <Acceptor>
3

> <Donor>
2

> <RotBonds>
3

> <HAC>
27

> <Collection>
General

$$$$
F1813-1253
  -ISIS-  06222321142D

 22 24  0  0  0  0  0  0  0  0999 V2000
   -1.7250    2.5708    0.0000 C   0  0  0  0  0  0  0  0  0  0  0  0
   -3.1583    5.0417    0.0000 N   0  0  3  0  0  0  0  0  0  0  0  0
   -0.9625    2.9000    0.0000 N   0  0  0  0  0  0  0  0  0  0  0  0
   -0.4083    2.2833    0.0000 C   0  0  0  0  0  0  0  0  0  0  0  0
   -0.8208    1.5708    0.0000 C   0  0  0  0  0  0  0  0  0  0  0  0
   -1.6333    1.7375    0.0000 S   0  0  0  0  0  0  0  0  0  0  0  0
   -2.4375    2.9833    0.0000 N   0  0  0  0  0  0  0  0  0  0  0  0
   -2.4833    5.5167    0.0000 C   0  0  0  0  0  0  0  0  0  0  0  0
   -3.8208    5.5167    0.0000 C   0  0  0  0  0  0  0  0  0  0  0  0
    0.4167    2.2875    0.0000 C   0  0  0  0  0  0  0  0  0  0  0  0
   -2.4375    3.8000    0.0000 C   0  0  0  0  0  0  0  0  0  0  0  0
   -3.1583    4.2125    0.0000 C   0  0  0  0  0  0  0  0  0  0  0  0
   -0.4083    0.8583    0.0000 C   0  0  0  0  0  0  0  0  0  0  0  0
    0.8292    1.5708    0.0000 C   0  0  0  0  0  0  0  0  0  0  0  0
    0.4167    0.8583    0.0000 C   0  0  0  0  0  0  0  0  0  0  0  0
   -2.7458    6.3125    0.0000 C   0  0  0  0  0  0  0  0  0  0  0  0
   -3.5708    6.3042    0.0000 C   0  0  0  0  0  0  0  0  0  0  0  0
   -1.6958    5.2625    0.0000 O   0  0  0  0  0  0  0  0  0  0  0  0
   -4.6083    5.2750    0.0000 O   0  0  0  0  0  0  0  0  0  0  0  0
   -1.7250    4.2042    0.0000 O   0  0  0  0  0  0  0  0  0  0  0  0
    0.8250    3.0083    0.0000 F   0  0  0  0  0  0  0  0  0  0  0  0
    0.8292    0.1458    0.0000 F   0  0  0  0  0  0  0  0  0  0  0  0
  2 12  1  0  0  0  0
  3  1  2  0  0  0  0
  4  3  1  0  0  0  0
  5  6  1  0  0  0  0
  6  1  1  0  0  0  0
  7  1  1  0  0  0  0
  8  2  1  0  0  0  0
  9  2  1  0  0  0  0
 10  4  2  0  0  0  0
 11  7  1  0  0  0  0
 12 11  1  0  0  0  0
 13  5  2  0  0  0  0
 14 10  1  0  0  0  0
 15 13  1  0  0  0  0
 16  8  1  0  0  0  0
 17  9  1  0  0  0  0
 18  8  2  0  0  0  0
 19  9  2  0  0  0  0
 20 11  2  0  0  0  0
 21 10  1  0  0  0  0
 22 15  1  0  0  0  0
  5  4  1  0  0  0  0
 15 14  2  0  0  0  0
 16 17  1  0  0  0  0
M  END
> <IDNUMBER>
F1813-1253

> <Chemical_Name>
N-(4,6-difluoro-1,3-benzothiazol-2-yl)-2-(2,5-dioxopyrrolidin-1-yl)acetamide

> <CAS>
897618-21-2

> <PriceCoeff>
1.00

> <MW>
325.29

> <Description>
solid

> <FSP3>
0.23

> <clogP>
1.74

> <TPSA>
107.61

> <Acceptor>
4

> <Donor>
1

> <RotBonds>
3

> <HAC>
22

> <Collection>
General

$$$$
F3205-0043
  -ISIS-  06222321152D

 19 20  0  0  0  0  0  0  0  0999 V2000
    4.6750   -6.4125    0.0000 N   0  0  3  0  0  0  0  0  0  0  0  0
    5.1667   -7.0792    0.0000 C   0  0  0  0  0  0  0  0  0  0  0  0
    5.1542   -5.7417    0.0000 C   0  0  0  0  0  0  0  0  0  0  0  0
    5.9500   -6.8167    0.0000 C   0  0  3  0  0  0  0  0  0  0  0  0
    5.9417   -5.9917    0.0000 C   0  0  0  0  0  0  0  0  0  0  0  0
    6.6125   -7.2917    0.0000 N   0  0  0  0  0  0  0  0  0  0  0  0
    4.9125   -7.8625    0.0000 O   0  0  0  0  0  0  0  0  0  0  0  0
    4.9000   -4.9542    0.0000 O   0  0  0  0  0  0  0  0  0  0  0  0
    3.8542   -6.4167    0.0000 C   0  0  0  0  0  0  0  0  0  0  0  0
    3.4375   -5.7042    0.0000 C   0  0  0  0  0  0  0  0  0  0  0  0
    7.3625   -6.9542    0.0000 C   0  0  0  0  0  0  0  0  0  0  0  0
    2.6125   -5.7125    0.0000 C   0  0  0  0  0  0  0  0  0  0  0  0
    8.8625   -6.2792    0.0000 C   0  0  0  0  0  0  0  0  0  0  0  0
    8.0292   -7.4375    0.0000 C   0  0  0  0  0  0  0  0  0  0  0  0
    7.4417   -6.1417    0.0000 C   0  0  0  0  0  0  0  0  0  0  0  0
    8.7792   -7.0917    0.0000 C   0  0  0  0  0  0  0  0  0  0  0  0
    8.1875   -5.8000    0.0000 C   0  0  0  0  0  0  0  0  0  0  0  0
    9.6125   -5.9375    0.0000 C   0  0  0  0  0  0  0  0  0  0  0  0
   10.2792   -6.4167    0.0000 C   0  0  0  0  0  0  0  0  0  0  0  0
  2  1  1  0  0  0  0
  3  1  1  0  0  0  0
  4  2  1  0  0  0  0
  5  3  1  0  0  0  0
  6  4  1  0  0  0  0
  7  2  2  0  0  0  0
  8  3  2  0  0  0  0
  9  1  1  0  0  0  0
 10  9  1  0  0  0  0
 11  6  1  0  0  0  0
 12 10  2  0  0  0  0
 13 17  1  0  0  0  0
 14 11  2  0  0  0  0
 15 11  1  0  0  0  0
 16 14  1  0  0  0  0
 17 15  2  0  0  0  0
 18 13  1  0  0  0  0
 19 18  1  0  0  0  0
  5  4  1  0  0  0  0
 16 13  2  0  0  0  0
M  END
> <IDNUMBER>
F3205-0043

> <Chemical_Name>
3-[(4-ethylphenyl)amino]-1-(prop-2-en-1-yl)pyrrolidine-2,5-dione

> <CAS>
1008668-03-8

> <PriceCoeff>
1.00

> <MW>
258.32

> <Description>
solid

> <FSP3>
0.33

> <clogP>
3.46

> <TPSA>
49.41

> <Acceptor>
3

> <Donor>
1

> <RotBonds>
5

> <HAC>
19

> <Collection>
General

$$$$
F3395-0160
  -ISIS-  06222321462D

 12 13  0  0  0  0  0  0  0  0999 V2000
    2.3667   -1.9417    0.0000 C   0  0  0  0  0  0  0  0  0  0  0  0
    3.0792   -1.5250    0.0000 C   0  0  0  0  0  0  0  0  0  0  0  0
    2.3667   -2.7667    0.0000 C   0  0  0  0  0  0  0  0  0  0  0  0
    3.0792   -3.1792    0.0000 C   0  0  0  0  0  0  0  0  0  0  0  0
    3.7958   -1.9375    0.0000 C   0  0  0  0  0  0  0  0  0  0  0  0
    3.7958   -2.7667    0.0000 C   0  0  0  0  0  0  0  0  0  0  0  0
    5.2250   -1.9292    0.0000 O   0  0  0  0  0  0  0  0  0  0  0  0
    1.6542   -1.5292    0.0000 C   0  0  0  0  0  0  0  0  0  0  0  0
    4.5083   -1.5208    0.0000 C   0  0  0  0  0  0  0  0  0  0  0  0
    1.6542   -3.1792    0.0000 C   0  0  0  0  0  0  0  0  0  0  0  0
    0.9417   -1.9417    0.0000 C   0  0  0  0  0  0  0  0  0  0  0  0
    0.9417   -2.7667    0.0000 C   0  0  0  0  0  0  0  0  0  0  0  0
  2  1  1  0  0  0  0
  3  1  1  0  0  0  0
  4  3  1  0  0  0  0
  5  2  2  0  0  0  0
  6  5  1  0  0  0  0
  7  9  1  0  0  0  0
  8  1  2  0  0  0  0
  9  5  1  0  0  0  0
 10  3  2  0  0  0  0
 11  8  1  0  0  0  0
 12 11  2  0  0  0  0
  6  4  2  0  0  0  0
 10 12  1  0  0  0  0
M  END
> <IDNUMBER>
F3395-0160

> <Chemical_Name>
(naphthalen-2-yl)methanol

> <CAS>
1592-38-7

> <PriceCoeff>
1.00

> <MW>
158.20

> <Description>
solid

> <FSP3>
0.09

> <clogP>
2.28

> <TPSA>
37.05

> <Acceptor>
1

> <Donor>
1

> <RotBonds>
1

> <HAC>
12

> <Collection>
General

> <Reference_compound>
PRI1596

> <Similarity>
0.8260

$$$$
F1813-0840
  -ISIS-  06222321452D

 22 24  0  0  0  0  0  0  0  0999 V2000
   -6.0000    3.3958    0.0000 C   0  0  0  0  0  0  0  0  0  0  0  0
   -3.8708    4.6250    0.0000 N   0  0  3  0  0  0  0  0  0  0  0  0
   -6.0875    2.5625    0.0000 N   0  0  0  0  0  0  0  0  0  0  0  0
   -6.7542    3.7333    0.0000 S   0  0  0  0  0  0  0  0  0  0  0  0
   -7.3042    3.1083    0.0000 C   0  0  0  0  0  0  0  0  0  0  0  0
   -6.8917    2.3958    0.0000 C   0  0  0  0  0  0  0  0  0  0  0  0
   -5.2958    3.8000    0.0000 N   0  0  0  0  0  0  0  0  0  0  0  0
   -3.2000    5.0917    0.0000 C   0  0  0  0  0  0  0  0  0  0  0  0
   -4.5333    5.0917    0.0000 C   0  0  0  0  0  0  0  0  0  0  0  0
   -4.5833    3.3958    0.0000 C   0  0  0  0  0  0  0  0  0  0  0  0
   -7.3042    1.6833    0.0000 C   0  0  0  0  0  0  0  0  0  0  0  0
   -3.8708    3.8000    0.0000 C   0  0  0  0  0  0  0  0  0  0  0  0
   -8.1292    3.1083    0.0000 C   0  0  0  0  0  0  0  0  0  0  0  0
   -8.5417    2.3958    0.0000 C   0  0  0  0  0  0  0  0  0  0  0  0
   -8.1292    1.6833    0.0000 C   0  0  0  0  0  0  0  0  0  0  0  0
   -3.4583    5.8875    0.0000 C   0  0  0  0  0  0  0  0  0  0  0  0
   -4.2833    5.8792    0.0000 C   0  0  0  0  0  0  0  0  0  0  0  0
   -2.4208    4.8375    0.0000 O   0  0  0  0  0  0  0  0  0  0  0  0
   -5.3208    4.8542    0.0000 O   0  0  0  0  0  0  0  0  0  0  0  0
   -4.5833    2.5708    0.0000 O   0  0  0  0  0  0  0  0  0  0  0  0
   -9.3625    2.3958    0.0000 Cl  0  0  0  0  0  0  0  0  0  0  0  0
   -6.8917    0.9708    0.0000 C   0  0  0  0  0  0  0  0  0  0  0  0
  2 12  1  0  0  0  0
  3  1  2  0  0  0  0
  4  1  1  0  0  0  0
  5  4  1  0  0  0  0
  6  3  1  0  0  0  0
  7  1  1  0  0  0  0
  8  2  1  0  0  0  0
  9  2  1  0  0  0  0
 10  7  1  0  0  0  0
 11  6  2  0  0  0  0
 12 10  1  0  0  0  0
 13  5  2  0  0  0  0
 14 13  1  0  0  0  0
 15 11  1  0  0  0  0
 16  8  1  0  0  0  0
 17  9  1  0  0  0  0
 18  8  2  0  0  0  0
 19  9  2  0  0  0  0
 20 10  2  0  0  0  0
 21 14  1  0  0  0  0
 22 11  1  0  0  0  0
  5  6  1  0  0  0  0
 14 15  2  0  0  0  0
 16 17  1  0  0  0  0
M  END
> <IDNUMBER>
F1813-0840

> <Chemical_Name>
N-(6-chloro-4-methyl-1,3-benzothiazol-2-yl)-2-(2,5-dioxopyrrolidin-1-yl)acetamide

> <CAS>
897618-12-1

> <PriceCoeff>
1.00

> <MW>
337.78

> <Description>
solid

> <FSP3>
0.29

> <clogP>
2.66

> <TPSA>
107.61

> <Acceptor>
4

> <Donor>
1

> <RotBonds>
3

> <HAC>
22

> <Collection>
General

$$$$
F1813-0839
  -ISIS-  06222321142D

 22 24  0  0  0  0  0  0  0  0999 V2000
   -6.0000    3.3958    0.0000 C   0  0  0  0  0  0  0  0  0  0  0  0
   -3.8708    4.6250    0.0000 N   0  0  3  0  0  0  0  0  0  0  0  0
   -6.0792    2.5625    0.0000 N   0  0  0  0  0  0  0  0  0  0  0  0
   -6.8917    2.3958    0.0000 C   0  0  0  0  0  0  0  0  0  0  0  0
   -6.7542    3.7333    0.0000 S   0  0  0  0  0  0  0  0  0  0  0  0
   -5.2958    3.8083    0.0000 N   0  0  0  0  0  0  0  0  0  0  0  0
   -4.5333    5.0917    0.0000 C   0  0  0  0  0  0  0  0  0  0  0  0
   -3.2000    5.0917    0.0000 C   0  0  0  0  0  0  0  0  0  0  0  0
   -7.3042    3.1083    0.0000 C   0  0  0  0  0  0  0  0  0  0  0  0
   -7.3042    1.6833    0.0000 C   0  0  0  0  0  0  0  0  0  0  0  0
   -4.5833    3.3958    0.0000 C   0  0  0  0  0  0  0  0  0  0  0  0
   -3.8708    3.8000    0.0000 C   0  0  0  0  0  0  0  0  0  0  0  0
   -8.1292    1.6833    0.0000 C   0  0  0  0  0  0  0  0  0  0  0  0
   -3.4583    5.8875    0.0000 C   0  0  0  0  0  0  0  0  0  0  0  0
   -4.2833    5.8792    0.0000 C   0  0  0  0  0  0  0  0  0  0  0  0
   -2.4208    4.8375    0.0000 O   0  0  0  0  0  0  0  0  0  0  0  0
   -5.3208    4.8542    0.0000 O   0  0  0  0  0  0  0  0  0  0  0  0
   -8.1292    3.1083    0.0000 C   0  0  0  0  0  0  0  0  0  0  0  0
   -4.5833    2.5708    0.0000 O   0  0  0  0  0  0  0  0  0  0  0  0
   -8.5292    2.3958    0.0000 C   0  0  0  0  0  0  0  0  0  0  0  0
   -8.5292    0.9708    0.0000 Cl  0  0  0  0  0  0  0  0  0  0  0  0
   -6.8917    0.9708    0.0000 C   0  0  0  0  0  0  0  0  0  0  0  0
  2 12  1  0  0  0  0
  3  1  2  0  0  0  0
  4  3  1  0  0  0  0
  5  1  1  0  0  0  0
  6  1  1  0  0  0  0
  7  2  1  0  0  0  0
  8  2  1  0  0  0  0
  9  5  1  0  0  0  0
 10  4  2  0  0  0  0
 11  6  1  0  0  0  0
 12 11  1  0  0  0  0
 13 10  1  0  0  0  0
 14  8  1  0  0  0  0
 15  7  1  0  0  0  0
 16  8  2  0  0  0  0
 17  7  2  0  0  0  0
 18  9  2  0  0  0  0
 19 11  2  0  0  0  0
 20 18  1  0  0  0  0
 21 13  1  0  0  0  0
 22 10  1  0  0  0  0
  9  4  1  0  0  0  0
 20 13  2  0  0  0  0
 14 15  1  0  0  0  0
M  END
> <IDNUMBER>
F1813-0839

> <Chemical_Name>
N-(5-chloro-4-methyl-1,3-benzothiazol-2-yl)-2-(2,5-dioxopyrrolidin-1-yl)acetamide

> <CAS>
897759-64-7

> <PriceCoeff>
1.00

> <MW>
337.78

> <Description>
solid

> <FSP3>
0.29

> <clogP>
2.66

> <TPSA>
107.61

> <Acceptor>
4

> <Donor>
1

> <RotBonds>
3

> <HAC>
22

> <Collection>
General

$$$$
F0327-0394
  -ISIS-  06222321442D

 26 29  0  0  0  0  0  0  0  0999 V2000
    0.3792   -0.2500    0.0000 C   0  0  0  0  0  0  0  0  0  0  0  0
   -0.0208    0.3500    0.0000 C   0  0  0  0  0  0  0  0  0  0  0  0
    4.4792   -0.8875    0.0000 N   0  0  3  0  0  0  0  0  0  0  0  0
   -0.0833   -0.8500    0.0000 S   0  0  0  0  0  0  0  0  0  0  0  0
   -0.7500    0.1625    0.0000 C   0  0  0  0  0  0  0  0  0  0  0  0
    1.1167   -0.2500    0.0000 N   0  0  0  0  0  0  0  0  0  0  0  0
   -0.7500   -0.5500    0.0000 C   0  0  0  0  0  0  0  0  0  0  0  0
    1.4792   -0.8875    0.0000 C   0  0  0  0  0  0  0  0  0  0  0  0
    4.8375   -1.5292    0.0000 C   0  0  0  0  0  0  0  0  0  0  0  0
    4.9792   -0.3292    0.0000 C   0  0  0  0  0  0  0  0  0  0  0  0
    0.2542    1.0208    0.0000 C   0  0  0  0  0  0  0  0  0  0  0  0
    0.5292    1.6833    0.0000 N   0  0  0  0  0  0  0  0  0  0  0  0
    3.7167   -0.8875    0.0000 C   0  0  0  0  0  0  0  0  0  0  0  0
    2.2375   -0.8875    0.0000 C   0  0  0  0  0  0  0  0  0  0  0  0
    1.1167   -1.5292    0.0000 O   0  0  0  0  0  0  0  0  0  0  0  0
    5.6542   -0.6292    0.0000 C   0  0  0  0  0  0  0  0  0  0  0  0
    5.5542   -1.3667    0.0000 C   0  0  0  0  0  0  0  0  0  0  0  0
    4.8167    0.4333    0.0000 O   0  0  0  0  0  0  0  0  0  0  0  0
    4.5542   -2.2292    0.0000 O   0  0  0  0  0  0  0  0  0  0  0  0
    3.3542   -1.5292    0.0000 C   0  0  0  0  0  0  0  0  0  0  0  0
    3.3542   -0.2500    0.0000 C   0  0  0  0  0  0  0  0  0  0  0  0
    2.6000   -0.2500    0.0000 C   0  0  0  0  0  0  0  0  0  0  0  0
    2.6000   -1.5292    0.0000 C   0  0  0  0  0  0  0  0  0  0  0  0
   -1.4500    0.3958    0.0000 C   0  0  0  0  0  0  0  0  0  0  0  0
   -1.4333   -0.7875    0.0000 C   0  0  0  0  0  0  0  0  0  0  0  0
   -1.8833   -0.2292    0.0000 C   0  0  0  0  0  0  0  0  0  0  0  0
  2  1  2  0  0  0  0
  3 13  1  0  0  0  0
  4  1  1  0  0  0  0
  5  2  1  0  0  0  0
  6  1  1  0  0  0  0
  7  4  1  0  0  0  0
  8  6  1  0  0  0  0
  9  3  1  0  0  0  0
 10  3  1  0  0  0  0
 11  2  1  0  0  0  0
 12 11  3  0  0  0  0
 13 20  2  0  0  0  0
 14  8  1  0  0  0  0
 15  8  2  0  0  0  0
 16 10  1  0  0  0  0
 17  9  1  0  0  0  0
 18 10  2  0  0  0  0
 19  9  2  0  0  0  0
 20 23  1  0  0  0  0
 21 22  2  0  0  0  0
 22 14  1  0  0  0  0
 23 14  2  0  0  0  0
 24  5  1  0  0  0  0
 25  7  1  0  0  0  0
 26 25  1  0  0  0  0
  7  5  2  0  0  0  0
 24 26  1  0  0  0  0
 21 13  1  0  0  0  0
 16 17  1  0  0  0  0
M  END
> <IDNUMBER>
F0327-0394

> <Chemical_Name>
N-{3-cyano-4H,5H,6H-cyclopenta[b]thiophen-2-yl}-4-(2,5-dioxopyrrolidin-1-yl)benzamide

> <CAS>
313405-99-1

> <PriceCoeff>
1.00

> <MW>
365.41

> <Description>
solid

> <FSP3>
0.26

> <clogP>
0.87

> <TPSA>
118.51

> <Acceptor>
4

> <Donor>
1

> <RotBonds>
3

> <HAC>
26

> <Collection>
General

$$$$
F0466-0060
  -ISIS-  06222321442D

 28 31  0  0  0  0  0  0  0  0999 V2000
    0.2792    1.8708    0.0000 C   0  0  0  0  0  0  0  0  0  0  0  0
    0.8500    1.8625    0.0000 C   0  0  0  0  0  0  0  0  0  0  0  0
   -2.0958    1.2833    0.0000 N   0  0  3  0  0  0  0  0  0  0  0  0
    0.1292    1.3333    0.0000 S   0  0  0  0  0  0  0  0  0  0  0  0
    1.0042    1.3625    0.0000 C   0  0  0  0  0  0  0  0  0  0  0  0
    0.0167    2.3125    0.0000 N   0  0  0  0  0  0  0  0  0  0  0  0
    0.6000    1.0333    0.0000 C   0  0  0  0  0  0  0  0  0  0  0  0
   -1.5833    1.3333    0.0000 C   0  0  0  0  0  0  0  0  0  0  0  0
   -0.5125    2.3125    0.0000 C   0  0  0  0  0  0  0  0  0  0  0  0
   -2.3958    0.8458    0.0000 C   0  0  0  0  0  0  0  0  0  0  0  0
   -2.4208    1.6958    0.0000 C   0  0  0  0  0  0  0  0  0  0  0  0
    1.1500    2.2958    0.0000 C   0  0  0  0  0  0  0  0  0  0  0  0
    1.4792    2.7208    0.0000 N   0  0  0  0  0  0  0  0  0  0  0  0
   -1.3125    1.8125    0.0000 C   0  0  0  0  0  0  0  0  0  0  0  0
   -0.7708    1.8333    0.0000 C   0  0  0  0  0  0  0  0  0  0  0  0
   -0.7833    2.7708    0.0000 O   0  0  0  0  0  0  0  0  0  0  0  0
   -2.8958    0.9958    0.0000 C   0  0  0  0  0  0  0  0  0  0  0  0
   -2.9208    1.4958    0.0000 C   0  0  0  0  0  0  0  0  0  0  0  0
   -2.1833    0.3208    0.0000 O   0  0  0  0  0  0  0  0  0  0  0  0
   -2.2500    2.2125    0.0000 O   0  0  0  0  0  0  0  0  0  0  0  0
    1.5292    1.1958    0.0000 C   0  0  0  0  0  0  0  0  0  0  0  0
   -1.2708    0.8958    0.0000 C   0  0  0  0  0  0  0  0  0  0  0  0
    0.5542    0.5000    0.0000 C   0  0  0  0  0  0  0  0  0  0  0  0
   -0.4958    1.4000    0.0000 C   0  0  0  0  0  0  0  0  0  0  0  0
   -0.7333    0.9333    0.0000 C   0  0  0  0  0  0  0  0  0  0  0  0
    1.7292    0.7000    0.0000 C   0  0  0  0  0  0  0  0  0  0  0  0
    0.9792    0.1500    0.0000 C   0  0  0  0  0  0  0  0  0  0  0  0
    1.4542    0.2458    0.0000 C   0  0  0  0  0  0  0  0  0  0  0  0
  2  1  2  0  0  0  0
  3  8  1  0  0  0  0
  4  1  1  0  0  0  0
  5  2  1  0  0  0  0
  6  1  1  0  0  0  0
  7  4  1  0  0  0  0
  8 14  2  0  0  0  0
  9  6  1  0  0  0  0
 10  3  1  0  0  0  0
 11  3  1  0  0  0  0
 12  2  1  0  0  0  0
 13 12  3  0  0  0  0
 14 15  1  0  0  0  0
 15  9  1  0  0  0  0
 16  9  2  0  0  0  0
 17 10  1  0  0  0  0
 18 11  1  0  0  0  0
 19 10  2  0  0  0  0
 20 11  2  0  0  0  0
 21  5  1  0  0  0  0
 22 25  2  0  0  0  0
 23  7  1  0  0  0  0
 24 15  2  0  0  0  0
 25 24  1  0  0  0  0
 26 21  1  0  0  0  0
 27 23  1  0  0  0  0
 28 27  1  0  0  0  0
  7  5  2  0  0  0  0
 28 26  1  0  0  0  0
 22  8  1  0  0  0  0
 17 18  1  0  0  0  0
M  END
> <IDNUMBER>
F0466-0060

> <Chemical_Name>
N-{3-cyano-4H,5H,6H,7H,8H-cyclohepta[b]thiophen-2-yl}-3-(2,5-dioxopyrrolidin-1-yl)benzamide

> <CAS>
391867-83-7

> <PriceCoeff>
1.00

> <MW>
393.46

> <Description>
solid

> <FSP3>
0.33

> <clogP>
1.99

> <TPSA>
118.51

> <Acceptor>
4

> <Donor>
1

> <RotBonds>
3

> <HAC>
28

> <Collection>
General

$$$$
F0017-0155
  -ISIS-  06222304342D

 33 34  0  0  0  0  0  0  0  0999 V2000
    2.0250   -0.7417    0.0000 C   0  0  0  0  0  0  0  0  0  0  0  0
    1.2125   -0.8042    0.0000 N   0  0  0  0  0  0  0  0  0  0  0  0
    2.3667   -1.4667    0.0000 N   0  0  0  0  0  0  0  0  0  0  0  0
    1.0542   -1.6167    0.0000 C   0  0  0  0  0  0  0  0  0  0  0  0
    1.7625   -2.0417    0.0000 C   0  0  0  0  0  0  0  0  0  0  0  0
    2.4250   -0.0167    0.0000 S   0  0  0  0  0  0  0  0  0  0  0  0
    3.6792    0.7083    0.0000 C   0  0  0  0  0  0  0  0  0  0  0  0
    3.2500    1.4208    0.0000 C   0  0  3  0  0  0  0  0  0  0  0  0
    3.2500    0.0083    0.0000 C   0  0  0  0  0  0  0  0  0  0  0  0
    4.5125    0.7333    0.0000 O   0  0  0  0  0  0  0  0  0  0  0  0
    0.3500   -2.0417    0.0000 C   0  0  0  0  0  0  0  0  0  0  0  0
    1.7625   -2.8542    0.0000 C   0  0  0  0  0  0  0  0  0  0  0  0
    2.8292    2.1458    0.0000 C   0  0  0  0  0  0  0  0  0  0  0  0
    2.5417    0.9958    0.0000 C   0  0  0  0  0  0  0  0  0  0  0  0
    3.9875    1.8458    0.0000 C   0  0  0  0  0  0  0  0  0  0  0  0
    0.3500   -2.8667    0.0000 C   0  0  0  0  0  0  0  0  0  0  0  0
    1.0542   -3.2792    0.0000 C   0  0  0  0  0  0  0  0  0  0  0  0
    7.5625    0.0416    0.0000 C   0  0  0  0  0  0  0  0  0  0  0  0
    7.3958   -1.3542    0.0000 C   0  0  0  0  0  0  0  0  0  0  0  0
    7.0833   -0.6084    0.0000 C   0  0  0  0  0  0  0  0  0  0  0  0
    7.2250    0.8166    0.0000 N   0  3  0  0  0  0  0  0  0  0  0  0
    6.8750   -2.0334    0.0000 N   0  3  0  0  0  0  0  0  0  0  0  0
    9.5375   -0.8834    0.0000 N   0  3  0  0  0  0  0  0  0  0  0  0
    8.7125   -0.7959    0.0000 C   0  0  0  0  0  0  0  0  0  0  0  0
    8.2208   -1.4834    0.0000 C   0  0  0  0  0  0  0  0  0  0  0  0
    8.3875   -0.0584    0.0000 C   0  0  0  0  0  0  0  0  0  0  0  0
    6.0666   -1.9167    0.0000 O   0  5  0  0  0  0  0  0  0  0  0  0
    7.7208    1.4708    0.0000 O   0  5  0  0  0  0  0  0  0  0  0  0
    9.8875   -1.6209    0.0000 O   0  5  0  0  0  0  0  0  0  0  0  0
    6.4250    0.8916    0.0000 O   0  0  0  0  0  0  0  0  0  0  0  0
    7.2000   -2.7959    0.0000 O   0  0  0  0  0  0  0  0  0  0  0  0
   10.0125   -0.1959    0.0000 O   0  0  0  0  0  0  0  0  0  0  0  0
    6.2541   -0.5084    0.0000 O   0  0  0  0  0  0  0  0  0  0  0  0
  5  4  2  0  0  0  0
 17 16  1  0  0  0  0
  2  1  2  0  0  0  0
  3  1  1  0  0  0  0
  4  2  1  0  0  0  0
  5  3  1  0  0  0  0
  6  1  1  0  0  0  0
  7  9  1  0  0  0  0
  8  7  1  0  0  0  0
  9  6  1  0  0  0  0
 10  7  2  0  0  0  0
 11  4  1  0  0  0  0
 12  5  1  0  0  0  0
 13  8  1  0  0  0  0
 14  8  1  0  0  0  0
 15  8  1  0  0  0  0
 16 11  2  0  0  0  0
 17 12  2  0  0  0  0
 19 20  2  0  0  0  0
 20 18  1  0  0  0  0
 21 18  1  0  0  0  0
 22 19  1  0  0  0  0
 23 24  1  0  0  0  0
 24 26  1  0  0  0  0
 25 24  2  0  0  0  0
 26 18  2  0  0  0  0
 27 22  1  0  0  0  0
 28 21  1  0  0  0  0
 29 23  1  0  0  0  0
 30 21  2  0  0  0  0
 31 22  2  0  0  0  0
 32 23  2  0  0  0  0
 33 20  1  0  0  0  0
 19 25  1  0  0  0  0
M  CHG  6  21   1  22   1  23   1  27  -1  28  -1  29  -1
M  END
> <IDNUMBER>
F0017-0155

> <Chemical_Name>
1-(1H-1,3-benzodiazol-2-ylsulfanyl)-3,3-dimethylbutan-2-one; 2,4,6-trinitrophenol

> <CAS>
381165-89-5

> <PriceCoeff>
1.50

> <MW>
248.34

> <Description>
solid

> <FSP3>
0.38

> <clogP>
3.33

> <TPSA>
71.05

> <Acceptor>
3

> <Donor>
2

> <RotBonds>
3

> <HAC>
17

> <Collection>
Advanced

> <Reference_compound>
CHEMBL273386

> <Similarity>
0.9070

$$$$
F2266-0069
  -ISIS-  06222321462D

 23 25  0  0  0  0  0  0  0  0999 V2000
   -3.0458    7.5250    0.0000 N   0  0  3  0  0  0  0  0  0  0  0  0
   -3.0458    6.7000    0.0000 C   0  0  0  0  0  0  0  0  0  0  0  0
   -2.3250    7.9375    0.0000 C   0  0  0  0  0  0  0  0  0  0  0  0
   -3.7500    3.8000    0.0000 C   0  0  0  0  0  0  0  0  0  0  0  0
   -2.3333    6.2792    0.0000 C   0  0  0  0  0  0  0  0  0  0  0  0
   -3.0375    4.2125    0.0000 N   0  0  0  0  0  0  0  0  0  0  0  0
   -3.7583    2.9833    0.0000 C   0  0  0  0  0  0  0  0  0  0  0  0
   -3.7625    6.2792    0.0000 C   0  0  0  0  0  0  0  0  0  0  0  0
   -3.0375    5.0417    0.0000 C   0  0  0  0  0  0  0  0  0  0  0  0
   -2.3208    5.4542    0.0000 C   0  0  0  0  0  0  0  0  0  0  0  0
   -4.4708    4.2042    0.0000 O   0  0  0  0  0  0  0  0  0  0  0  0
   -1.6125    7.5250    0.0000 C   0  0  0  0  0  0  0  0  0  0  0  0
   -2.3250    8.7667    0.0000 O   0  0  0  0  0  0  0  0  0  0  0  0
   -1.6125    6.7000    0.0000 C   0  0  0  0  0  0  0  0  0  0  0  0
   -4.4750    2.5625    0.0000 C   0  0  0  0  0  0  0  0  0  0  0  0
   -3.7583    5.4542    0.0000 C   0  0  0  0  0  0  0  0  0  0  0  0
   -3.7708    7.9417    0.0000 C   0  0  0  0  0  0  0  0  0  0  0  0
   -4.4833    1.7375    0.0000 C   0  0  0  0  0  0  0  0  0  0  0  0
   -5.1958    1.3333    0.0000 Cl  0  0  0  0  0  0  0  0  0  0  0  0
   -3.0458    2.5583    0.0000 C   0  0  0  0  0  0  0  0  0  0  0  0
   -3.0458    1.7250    0.0000 C   0  0  0  0  0  0  0  0  0  0  0  0
   -3.7625    1.3208    0.0000 C   0  0  0  0  0  0  0  0  0  0  0  0
   -3.7708    8.7667    0.0000 C   0  0  0  0  0  0  0  0  0  0  0  0
  2  1  1  0  0  0  0
  3  1  1  0  0  0  0
  4  6  1  0  0  0  0
  5  2  2  0  0  0  0
  6  9  1  0  0  0  0
  7  4  1  0  0  0  0
  8  2  1  0  0  0  0
  9 16  1  0  0  0  0
 10  5  1  0  0  0  0
 11  4  2  0  0  0  0
 12  3  1  0  0  0  0
 13  3  2  0  0  0  0
 14 12  1  0  0  0  0
 15  7  2  0  0  0  0
 16  8  2  0  0  0  0
 17  1  1  0  0  0  0
 18 15  1  0  0  0  0
 19 18  1  0  0  0  0
 20  7  1  0  0  0  0
 21 20  2  0  0  0  0
 22 21  1  0  0  0  0
 23 17  1  0  0  0  0
  5 14  1  0  0  0  0
 10  9  2  0  0  0  0
 22 18  2  0  0  0  0
M  END
> <IDNUMBER>
F2266-0069

> <Chemical_Name>
3-chloro-N-(1-ethyl-2-oxo-1,2,3,4-tetrahydroquinolin-6-yl)benzamide

> <CAS>
922053-37-0

> <PriceCoeff>
1.00

> <MW>
328.79

> <Description>
solid

> <FSP3>
0.22

> <clogP>
3.31

> <TPSA>
49.41

> <Acceptor>
2

> <Donor>
1

> <RotBonds>
3

> <HAC>
23

> <Collection>
General

> <Reference_compound>
CHEMBL2286415

> <Similarity>
0.8010

$$$$
F0327-0365
  -ISIS-  06222321142D

 24 26  0  0  0  0  0  0  0  0999 V2000
    5.0500   -0.8292    0.0000 N   0  0  3  0  0  0  0  0  0  0  0  0
    5.4500   -1.5042    0.0000 C   0  0  0  0  0  0  0  0  0  0  0  0
    5.5875   -0.2292    0.0000 C   0  0  0  0  0  0  0  0  0  0  0  0
    1.9042   -0.8292    0.0000 C   0  0  0  0  0  0  0  0  0  0  0  0
    1.5042   -1.5042    0.0000 N   0  0  0  0  0  0  0  0  0  0  0  0
    0.7042   -1.5042    0.0000 C   0  0  0  0  0  0  0  0  0  0  0  0
    4.2667   -0.8292    0.0000 C   0  0  0  0  0  0  0  0  0  0  0  0
    2.6875   -0.8292    0.0000 C   0  0  0  0  0  0  0  0  0  0  0  0
    0.3292   -0.8292    0.0000 C   0  0  0  0  0  0  0  0  0  0  0  0
    0.3292   -2.1875    0.0000 C   0  0  0  0  0  0  0  0  0  0  0  0
   -0.4708   -2.1875    0.0000 C   0  0  0  0  0  0  0  0  0  0  0  0
   -0.4708   -0.8292    0.0000 C   0  0  0  0  0  0  0  0  0  0  0  0
    6.2042   -1.3292    0.0000 C   0  0  0  0  0  0  0  0  0  0  0  0
    6.3042   -0.5500    0.0000 C   0  0  0  0  0  0  0  0  0  0  0  0
    1.5042   -0.1500    0.0000 O   0  0  0  0  0  0  0  0  0  0  0  0
   -0.8500   -1.5042    0.0000 C   0  0  0  0  0  0  0  0  0  0  0  0
    5.4292    0.5500    0.0000 O   0  0  0  0  0  0  0  0  0  0  0  0
    5.1292   -2.2292    0.0000 O   0  0  0  0  0  0  0  0  0  0  0  0
    3.8667   -1.5042    0.0000 C   0  0  0  0  0  0  0  0  0  0  0  0
    3.8667   -0.1500    0.0000 C   0  0  0  0  0  0  0  0  0  0  0  0
    3.0875   -1.5042    0.0000 C   0  0  0  0  0  0  0  0  0  0  0  0
    3.0875   -0.1500    0.0000 C   0  0  0  0  0  0  0  0  0  0  0  0
   -0.8833   -0.1542    0.0000 Cl  0  0  0  0  0  0  0  0  0  0  0  0
   -0.8833   -2.8542    0.0000 Cl  0  0  0  0  0  0  0  0  0  0  0  0
  2  1  1  0  0  0  0
  3  1  1  0  0  0  0
  4  8  1  0  0  0  0
  5  4  1  0  0  0  0
  6  5  1  0  0  0  0
  7  1  1  0  0  0  0
  8 22  1  0  0  0  0
  9  6  2  0  0  0  0
 10  6  1  0  0  0  0
 11 10  2  0  0  0  0
 12  9  1  0  0  0  0
 13  2  1  0  0  0  0
 14  3  1  0  0  0  0
 15  4  2  0  0  0  0
 16 11  1  0  0  0  0
 17  3  2  0  0  0  0
 18  2  2  0  0  0  0
 19  7  2  0  0  0  0
 20  7  1  0  0  0  0
 21 19  1  0  0  0  0
 22 20  2  0  0  0  0
 23 12  1  0  0  0  0
 24 11  1  0  0  0  0
 14 13  1  0  0  0  0
 21  8  2  0  0  0  0
 16 12  2  0  0  0  0
M  END
> <IDNUMBER>
F0327-0365

> <Chemical_Name>
N-(3,5-dichlorophenyl)-4-(2,5-dioxopyrrolidin-1-yl)benzamide

> <CAS>
313405-91-3

> <PriceCoeff>
1.00

> <MW>
363.19

> <Description>
solid

> <FSP3>
0.12

> <clogP>
2.56

> <TPSA>
66.48

> <Acceptor>
3

> <Donor>
1

> <RotBonds>
3

> <HAC>
24

> <Collection>
General

$$$$
F0440-0318
  -ISIS-  06222321442D

 21 23  0  0  0  0  0  0  0  0999 V2000
    0.1792   -0.9500    0.0000 C   0  0  0  0  0  0  0  0  0  0  0  0
    2.7167   -2.4292    0.0000 N   0  0  3  0  0  0  0  0  0  0  0  0
   -0.2958   -1.6292    0.0000 N   0  0  0  0  0  0  0  0  0  0  0  0
   -0.2958   -0.2667    0.0000 S   0  0  0  0  0  0  0  0  0  0  0  0
    1.0500   -0.9667    0.0000 N   0  0  0  0  0  0  0  0  0  0  0  0
    3.5542   -2.6042    0.0000 C   0  0  0  0  0  0  0  0  0  0  0  0
    2.3000   -3.1667    0.0000 C   0  0  0  0  0  0  0  0  0  0  0  0
   -1.1125   -0.5292    0.0000 C   0  0  0  0  0  0  0  0  0  0  0  0
   -1.1125   -1.3667    0.0000 C   0  0  0  0  0  0  0  0  0  0  0  0
    1.4542   -1.7000    0.0000 C   0  0  0  0  0  0  0  0  0  0  0  0
    2.3000   -1.7000    0.0000 C   0  0  0  0  0  0  0  0  0  0  0  0
   -1.8333   -0.1042    0.0000 C   0  0  0  0  0  0  0  0  0  0  0  0
    3.6500   -3.4292    0.0000 C   0  0  0  0  0  0  0  0  0  0  0  0
    2.8542   -3.8000    0.0000 C   0  0  0  0  0  0  0  0  0  0  0  0
    4.2000   -2.0500    0.0000 O   0  0  0  0  0  0  0  0  0  0  0  0
    1.4500   -3.2667    0.0000 O   0  0  0  0  0  0  0  0  0  0  0  0
    1.0500   -2.4292    0.0000 O   0  0  0  0  0  0  0  0  0  0  0  0
   -1.8333   -1.8000    0.0000 C   0  0  0  0  0  0  0  0  0  0  0  0
   -2.5708   -0.5292    0.0000 C   0  0  0  0  0  0  0  0  0  0  0  0
   -2.5708   -1.3667    0.0000 C   0  0  0  0  0  0  0  0  0  0  0  0
   -3.3333   -0.1292    0.0000 Cl  0  0  0  0  0  0  0  0  0  0  0  0
  2 11  1  0  0  0  0
  3  1  2  0  0  0  0
  4  1  1  0  0  0  0
  5  1  1  0  0  0  0
  6  2  1  0  0  0  0
  7  2  1  0  0  0  0
  8  4  1  0  0  0  0
  9  3  1  0  0  0  0
 10  5  1  0  0  0  0
 11 10  1  0  0  0  0
 12  8  1  0  0  0  0
 13  6  1  0  0  0  0
 14  7  1  0  0  0  0
 15  6  2  0  0  0  0
 16  7  2  0  0  0  0
 17 10  2  0  0  0  0
 18  9  1  0  0  0  0
 19 12  2  0  0  0  0
 20 18  2  0  0  0  0
 21 19  1  0  0  0  0
  9  8  2  0  0  0  0
 20 19  1  0  0  0  0
 14 13  1  0  0  0  0
M  END
> <IDNUMBER>
F0440-0318

> <Chemical_Name>
N-(6-chloro-1,3-benzothiazol-2-yl)-2-(2,5-dioxopyrrolidin-1-yl)acetamide

> <CAS>
392324-48-0

> <PriceCoeff>
1.00

> <MW>
323.75

> <Description>
solid

> <FSP3>
0.23

> <clogP>
2.16

> <TPSA>
107.61

> <Acceptor>
4

> <Donor>
1

> <RotBonds>
3

> <HAC>
21

> <Collection>
General

$$$$
F2158-0861
  -ISIS-  06222321442D

 17 17  0  0  0  0  0  0  0  0999 V2000
    1.8792   -0.9167    0.0000 C   0  0  0  0  0  0  0  0  0  0  0  0
    5.4542    0.3250    0.0000 C   0  0  0  0  0  0  0  0  0  0  0  0
    2.5917   -1.3292    0.0000 O   0  0  0  0  0  0  0  0  0  0  0  0
    1.1667   -1.3292    0.0000 N   0  0  3  0  0  0  0  0  0  0  0  0
    4.7417   -0.0917    0.0000 C   0  0  0  0  0  0  0  0  0  0  0  0
    1.8792   -0.0917    0.0000 O   0  0  0  0  0  0  0  0  0  0  0  0
    5.4500    1.1500    0.0000 O   0  0  0  0  0  0  0  0  0  0  0  0
    4.7417   -0.9167    0.0000 C   0  0  0  0  0  0  0  0  0  0  0  0
    4.0250    0.3208    0.0000 C   0  0  0  0  0  0  0  0  0  0  0  0
    3.3125   -0.9167    0.0000 C   0  0  0  0  0  0  0  0  0  0  0  0
    6.1667   -0.0792    0.0000 O   0  0  0  0  0  0  0  0  0  0  0  0
    3.3125   -0.0917    0.0000 C   0  0  0  0  0  0  0  0  0  0  0  0
    4.0250   -1.3292    0.0000 C   0  0  0  0  0  0  0  0  0  0  0  0
    0.4542   -0.9167    0.0000 C   0  0  0  0  0  0  0  0  0  0  0  0
    1.1667   -2.1542    0.0000 C   0  0  0  0  0  0  0  0  0  0  0  0
   -0.2625   -1.3292    0.0000 C   0  0  0  0  0  0  0  0  0  0  0  0
    0.4542   -2.5667    0.0000 C   0  0  0  0  0  0  0  0  0  0  0  0
  2  5  1  0  0  0  0
  3  1  1  0  0  0  0
  4  1  1  0  0  0  0
  5  8  1  0  0  0  0
  6  1  2  0  0  0  0
  7  2  2  0  0  0  0
  8 13  2  0  0  0  0
  9 12  1  0  0  0  0
 10  3  1  0  0  0  0
 11  2  1  0  0  0  0
 12 10  2  0  0  0  0
 13 10  1  0  0  0  0
 14  4  1  0  0  0  0
 15  4  1  0  0  0  0
 16 14  1  0  0  0  0
 17 15  1  0  0  0  0
  9  5  2  0  0  0  0
M  END
> <IDNUMBER>
F2158-0861

> <Chemical_Name>
4-[(diethylcarbamoyl)oxy]benzoic acid

> <CAS>
1204297-93-7

> <PriceCoeff>
1.00

> <MW>
237.25

> <Description>
solid

> <FSP3>
0.33

> <clogP>
2.45

> <TPSA>
66.84

> <Acceptor>
4

> <Donor>
0

> <RotBonds>
6

> <HAC>
17

> <Collection>
General

> <Reference_compound>
CHEMBL2288668

> <Similarity>
0.8200

$$$$
F3083-0086
  -ISIS-  06222321442D

 28 30  0  0  0  0  0  0  0  0999 V2000
    2.4042   -2.9500    0.0000 N   0  0  3  0  0  0  0  0  0  0  0  0
    7.5667   -3.7042    0.0000 S   0  0  3  0  0  0  0  0  0  0  0  0
    1.5792   -2.9500    0.0000 N   0  0  0  0  0  0  0  0  0  0  0  0
    2.6542   -2.1625    0.0000 C   0  0  0  0  0  0  0  0  0  0  0  0
    1.9917   -1.6792    0.0000 C   0  0  0  0  0  0  0  0  0  0  0  0
    1.3167   -2.1625    0.0000 C   0  0  0  0  0  0  0  0  0  0  0  0
    6.7417   -3.7042    0.0000 N   0  0  3  0  0  0  0  0  0  0  0  0
    4.2792   -3.7000    0.0000 C   0  0  0  0  0  0  0  0  0  0  0  0
    3.7000   -3.1167    0.0000 C   0  0  0  0  0  0  0  0  0  0  0  0
    5.1042   -3.7000    0.0000 N   0  0  3  0  0  0  0  0  0  0  0  0
    2.9875   -3.5292    0.0000 C   0  0  3  0  0  0  0  0  0  0  0  0
    7.5667   -2.8792    0.0000 O   0  0  0  0  0  0  0  0  0  0  0  0
    7.5667   -4.5292    0.0000 O   0  0  0  0  0  0  0  0  0  0  0  0
    6.3375   -2.9917    0.0000 C   0  0  0  0  0  0  0  0  0  0  0  0
    6.3292   -4.4125    0.0000 C   0  0  0  0  0  0  0  0  0  0  0  0
    8.3917   -3.7042    0.0000 C   0  0  0  0  0  0  0  0  0  0  0  0
    5.5167   -2.9875    0.0000 C   0  0  0  0  0  0  0  0  0  0  0  0
    5.5167   -4.4125    0.0000 C   0  0  0  0  0  0  0  0  0  0  0  0
    4.0667   -4.4917    0.0000 O   0  0  0  0  0  0  0  0  0  0  0  0
    1.9875   -0.8542    0.0000 Br  0  0  0  0  0  0  0  0  0  0  0  0
    3.3667   -1.7417    0.0000 C   0  0  0  0  0  0  0  0  0  0  0  0
    0.5167   -1.9417    0.0000 C   0  0  0  0  0  0  0  0  0  0  0  0
    2.7667   -4.3292    0.0000 C   0  0  0  0  0  0  0  0  0  0  0  0
    8.8000   -4.4167    0.0000 C   0  0  0  0  0  0  0  0  0  0  0  0
    8.8042   -3.0000    0.0000 C   0  0  0  0  0  0  0  0  0  0  0  0
    9.6167   -3.0000    0.0000 C   0  0  0  0  0  0  0  0  0  0  0  0
    9.6167   -4.4167    0.0000 C   0  0  0  0  0  0  0  0  0  0  0  0
   10.0292   -3.7125    0.0000 C   0  0  0  0  0  0  0  0  0  0  0  0
  2  7  1  0  0  0  0
  3  1  1  0  0  0  0
  4  1  1  0  0  0  0
  5  4  2  0  0  0  0
  6  3  2  0  0  0  0
  7 15  1  0  0  0  0
  8  9  1  0  0  0  0
  9 11  1  0  0  0  0
 10  8  1  0  0  0  0
 11  1  1  0  0  0  0
 12  2  2  0  0  0  0
 13  2  2  0  0  0  0
 14 17  1  0  0  0  0
 15 18  1  0  0  0  0
 16  2  1  0  0  0  0
 17 10  1  0  0  0  0
 18 10  1  0  0  0  0
 19  8  2  0  0  0  0
 20  5  1  0  0  0  0
 21  4  1  0  0  0  0
 22  6  1  0  0  0  0
 23 11  1  0  0  0  0
 24 16  2  0  0  0  0
 25 16  1  0  0  0  0
 26 25  2  0  0  0  0
 27 24  1  0  0  0  0
 28 26  1  0  0  0  0
  6  5  1  0  0  0  0
 14  7  1  0  0  0  0
 28 27  2  0  0  0  0
M  END
> <IDNUMBER>
F3083-0086

> <Chemical_Name>
1-[4-(benzenesulfonyl)piperazin-1-yl]-3-(4-bromo-3,5-dimethyl-1H-pyrazol-1-yl)butan-1-one

> <CAS>
890596-44-8

> <PriceCoeff>
1.00

> <MW>
469.40

> <Description>
solid

> <FSP3>
0.47

> <clogP>
3.45

> <TPSA>
83.89

> <Acceptor>
4

> <Donor>
0

> <RotBonds>
6

> <HAC>
28

> <Collection>
General

$$$$
F2995-0094
  -ISIS-  06222321462D

 19 20  0  0  0  0  0  0  0  0999 V2000
    3.5042    0.4958    0.0000 C   0  0  0  0  0  0  0  0  0  0  0  0
    2.7875    0.9083    0.0000 N   0  0  0  0  0  0  0  0  0  0  0  0
    3.5042   -1.1792    0.0000 N   0  0  0  0  0  0  0  0  0  0  0  0
    2.7875   -0.7542    0.0000 C   0  0  0  0  0  0  0  0  0  0  0  0
    2.0667    0.4958    0.0000 C   0  0  0  0  0  0  0  0  0  0  0  0
    2.0667   -0.3292    0.0000 C   0  0  0  0  0  0  0  0  0  0  0  0
    3.5042   -0.3292    0.0000 O   0  0  0  0  0  0  0  0  0  0  0  0
    4.2167    0.9083    0.0000 C   0  0  0  0  0  0  0  0  0  0  0  0
    4.2167    1.7375    0.0000 C   0  0  0  0  0  0  0  0  0  0  0  0
    4.2167    3.3958    0.0000 C   0  0  0  0  0  0  0  0  0  0  0  0
    4.9292    2.1500    0.0000 C   0  0  0  0  0  0  0  0  0  0  0  0
    3.5042    2.1500    0.0000 C   0  0  0  0  0  0  0  0  0  0  0  0
    4.9292    2.9833    0.0000 C   0  0  0  0  0  0  0  0  0  0  0  0
    3.5042    2.9833    0.0000 C   0  0  0  0  0  0  0  0  0  0  0  0
    1.3542   -0.7417    0.0000 C   0  0  0  0  0  0  0  0  0  0  0  0
    1.3542    0.9083    0.0000 C   0  0  0  0  0  0  0  0  0  0  0  0
    4.2167    4.2167    0.0000 C   0  0  0  0  0  0  0  0  0  0  0  0
    0.6375   -0.3292    0.0000 C   0  0  0  0  0  0  0  0  0  0  0  0
    0.6375    0.4958    0.0000 C   0  0  0  0  0  0  0  0  0  0  0  0
  2  1  1  0  0  0  0
  3  4  3  0  0  0  0
  4  6  1  0  0  0  0
  5  2  1  0  0  0  0
  6  5  1  0  0  0  0
  7  1  2  0  0  0  0
  8  1  1  0  0  0  0
  9  8  1  0  0  0  0
 10 14  1  0  0  0  0
 11  9  2  0  0  0  0
 12  9  1  0  0  0  0
 13 11  1  0  0  0  0
 14 12  2  0  0  0  0
 15  6  2  0  0  0  0
 16  5  2  0  0  0  0
 17 10  1  0  0  0  0
 18 19  2  0  0  0  0
 19 16  1  0  0  0  0
 13 10  2  0  0  0  0
 18 15  1  0  0  0  0
M  END
> <IDNUMBER>
F2995-0094

> <Chemical_Name>
N-(2-cyanophenyl)-2-(4-methylphenyl)acetamide

> <CAS>
599162-84-2

> <PriceCoeff>
1.00

> <MW>
250.30

> <Description>
solid

> <FSP3>
0.12

> <clogP>
2.53

> <TPSA>
52.89

> <Acceptor>
2

> <Donor>
1

> <RotBonds>
3

> <HAC>
19

> <Collection>
General

> <Reference_compound>
CHEMBL40823

> <Similarity>
0.8130

$$$$
F0327-0355
  -ISIS-  06222321142D

 27 30  0  0  0  0  0  0  0  0999 V2000
    4.1042   -0.1167    0.0000 N   0  0  3  0  0  0  0  0  0  0  0  0
   -0.5500   -0.8542    0.0000 C   0  0  0  0  0  0  0  0  0  0  0  0
   -1.1333   -1.4792    0.0000 N   0  0  0  0  0  0  0  0  0  0  0  0
   -1.8708   -1.1167    0.0000 C   0  0  0  0  0  0  0  0  0  0  0  0
    0.2875   -0.8542    0.0000 N   0  0  0  0  0  0  0  0  0  0  0  0
   -2.6000   -1.5375    0.0000 C   0  0  0  0  0  0  0  0  0  0  0  0
   -2.7208   -2.4000    0.0000 S   0  0  0  0  0  0  0  0  0  0  0  0
    0.7042   -0.1167    0.0000 C   0  0  0  0  0  0  0  0  0  0  0  0
    4.7042    0.4833    0.0000 C   0  0  0  0  0  0  0  0  0  0  0  0
    4.5042   -0.8792    0.0000 C   0  0  0  0  0  0  0  0  0  0  0  0
   -0.9708   -0.1167    0.0000 S   0  0  0  0  0  0  0  0  0  0  0  0
   -3.5333   -2.5500    0.0000 C   0  0  0  0  0  0  0  0  0  0  0  0
   -1.8125   -0.3000    0.0000 C   0  0  0  0  0  0  0  0  0  0  0  0
   -3.3458   -1.1792    0.0000 C   0  0  0  0  0  0  0  0  0  0  0  0
   -3.9458   -1.7667    0.0000 C   0  0  0  0  0  0  0  0  0  0  0  0
    3.2667   -0.1167    0.0000 C   0  0  0  0  0  0  0  0  0  0  0  0
    1.5667   -0.1167    0.0000 C   0  0  0  0  0  0  0  0  0  0  0  0
    0.2875    0.6208    0.0000 O   0  0  0  0  0  0  0  0  0  0  0  0
    5.3500   -0.7375    0.0000 C   0  0  0  0  0  0  0  0  0  0  0  0
    5.4667    0.0833    0.0000 C   0  0  0  0  0  0  0  0  0  0  0  0
    4.1292   -1.6542    0.0000 O   0  0  0  0  0  0  0  0  0  0  0  0
    4.6042    1.3208    0.0000 O   0  0  0  0  0  0  0  0  0  0  0  0
    2.8500   -0.8542    0.0000 C   0  0  0  0  0  0  0  0  0  0  0  0
    2.8292    0.6208    0.0000 C   0  0  0  0  0  0  0  0  0  0  0  0
    1.9875   -0.8542    0.0000 C   0  0  0  0  0  0  0  0  0  0  0  0
    1.9667    0.6208    0.0000 C   0  0  0  0  0  0  0  0  0  0  0  0
   -3.8625   -3.3167    0.0000 Br  0  0  0  0  0  0  0  0  0  0  0  0
  2  5  1  0  0  0  0
  3  2  2  0  0  0  0
  4  3  1  0  0  0  0
  5  8  1  0  0  0  0
  6  4  1  0  0  0  0
  7  6  1  0  0  0  0
  8 17  1  0  0  0  0
  9  1  1  0  0  0  0
 10  1  1  0  0  0  0
 11  2  1  0  0  0  0
 12  7  1  0  0  0  0
 13 11  1  0  0  0  0
 14  6  2  0  0  0  0
 15 14  1  0  0  0  0
 16  1  1  0  0  0  0
 17 26  1  0  0  0  0
 18  8  2  0  0  0  0
 19 10  1  0  0  0  0
 20  9  1  0  0  0  0
 21 10  2  0  0  0  0
 22  9  2  0  0  0  0
 23 16  2  0  0  0  0
 24 16  1  0  0  0  0
 25 23  1  0  0  0  0
 26 24  2  0  0  0  0
 27 12  1  0  0  0  0
 20 19  1  0  0  0  0
 25 17  2  0  0  0  0
  4 13  2  0  0  0  0
 15 12  2  0  0  0  0
M  END
> <IDNUMBER>
F0327-0355

> <Chemical_Name>
N-[4-(5-bromothiophen-2-yl)-1,3-thiazol-2-yl]-4-(2,5-dioxopyrrolidin-1-yl)benzamide

> <CAS>
313405-90-2

> <PriceCoeff>
1.00

> <MW>
462.34

> <Description>
solid

> <FSP3>
0.11

> <clogP>
2.88

> <TPSA>
135.85

> <Acceptor>
4

> <Donor>
1

> <RotBonds>
4

> <HAC>
27

> <Collection>
General

$$$$
F0440-0374
  -ISIS-  06222321452D

 22 23  0  0  0  0  0  0  0  0999 V2000
    0.2292   -0.6792    0.0000 N   0  0  3  0  0  0  0  0  0  0  0  0
   -3.4458   -0.9000    0.0000 N   0  3  0  0  0  0  0  0  0  0  0  0
    0.1667   -0.1167    0.0000 C   0  0  0  0  0  0  0  0  0  0  0  0
    0.8000   -0.8000    0.0000 C   0  0  0  0  0  0  0  0  0  0  0  0
   -2.8625   -1.0167    0.0000 C   0  0  0  0  0  0  0  0  0  0  0  0
   -0.7208   -0.9792    0.0000 C   0  0  0  0  0  0  0  0  0  0  0  0
   -2.6833   -1.5792    0.0000 C   0  0  0  0  0  0  0  0  0  0  0  0
   -1.1208   -1.4167    0.0000 N   0  0  0  0  0  0  0  0  0  0  0  0
   -0.1458   -1.1167    0.0000 C   0  0  0  0  0  0  0  0  0  0  0  0
   -1.7208   -1.2792    0.0000 C   0  0  0  0  0  0  0  0  0  0  0  0
   -2.1000   -1.7167    0.0000 C   0  0  0  0  0  0  0  0  0  0  0  0
   -3.6458   -0.3542    0.0000 O   0  5  0  0  0  0  0  0  0  0  0  0
   -3.8208   -1.3542    0.0000 O   0  0  0  0  0  0  0  0  0  0  0  0
    0.7292    0.1125    0.0000 C   0  0  0  0  0  0  0  0  0  0  0  0
    1.0667   -0.3000    0.0000 C   0  0  0  0  0  0  0  0  0  0  0  0
   -0.3458    0.1708    0.0000 O   0  0  0  0  0  0  0  0  0  0  0  0
    1.0500   -1.3542    0.0000 O   0  0  0  0  0  0  0  0  0  0  0  0
   -0.9000   -0.4167    0.0000 O   0  0  0  0  0  0  0  0  0  0  0  0
   -2.4625   -0.6000    0.0000 C   0  0  0  0  0  0  0  0  0  0  0  0
   -1.9083   -0.7167    0.0000 C   0  0  0  0  0  0  0  0  0  0  0  0
   -1.9208   -2.2792    0.0000 O   0  0  0  0  0  0  0  0  0  0  0  0
   -2.3208   -2.7000    0.0000 C   0  0  0  0  0  0  0  0  0  0  0  0
  2  5  1  0  0  0  0
  3  1  1  0  0  0  0
  4  1  1  0  0  0  0
  5 19  2  0  0  0  0
  6  9  1  0  0  0  0
  7 11  2  0  0  0  0
  8  6  1  0  0  0  0
  9  1  1  0  0  0  0
 10  8  1  0  0  0  0
 11 10  1  0  0  0  0
 12  2  1  0  0  0  0
 13  2  2  0  0  0  0
 14  3  1  0  0  0  0
 15  4  1  0  0  0  0
 16  3  2  0  0  0  0
 17  4  2  0  0  0  0
 18  6  2  0  0  0  0
 19 20  1  0  0  0  0
 20 10  2  0  0  0  0
 21 11  1  0  0  0  0
 22 21  1  0  0  0  0
 15 14  1  0  0  0  0
  7  5  1  0  0  0  0
M  CHG  2   2   1  12  -1
M  END
> <IDNUMBER>
F0440-0374

> <Chemical_Name>
2-(2,5-dioxopyrrolidin-1-yl)-N-(2-methoxy-4-nitrophenyl)acetamide

> <CAS>
329905-30-8

> <PriceCoeff>
1.00

> <MW>
307.26

> <Description>
solid

> <FSP3>
0.31

> <clogP>
0.38

> <TPSA>
118.85

> <Acceptor>
6

> <Donor>
1

> <RotBonds>
5

> <HAC>
22

> <Collection>
General

$$$$
F3023-0961
  -ISIS-  06222321462D

 27 29  0  0  0  0  0  0  0  0999 V2000
    3.5375   -6.4542    0.0000 N   0  0  3  0  0  0  0  0  0  0  0  0
    3.9542   -7.0250    0.0000 C   0  0  0  0  0  0  0  0  0  0  0  0
    3.9542   -5.8792    0.0000 C   0  0  0  0  0  0  0  0  0  0  0  0
    4.6292   -6.8042    0.0000 C   0  0  3  0  0  0  0  0  0  0  0  0
    4.6292   -6.0917    0.0000 C   0  0  0  0  0  0  0  0  0  0  0  0
    7.7917   -6.0625    0.0000 N   0  0  3  0  0  0  0  0  0  0  0  0
    5.2042   -7.2167    0.0000 N   0  0  0  0  0  0  0  0  0  0  0  0
    7.1417   -6.3542    0.0000 C   0  0  0  0  0  0  0  0  0  0  0  0
    3.7417   -7.7000    0.0000 O   0  0  0  0  0  0  0  0  0  0  0  0
    3.7292   -5.2042    0.0000 O   0  0  0  0  0  0  0  0  0  0  0  0
    9.0917   -5.4875    0.0000 O   0  0  0  0  0  0  0  0  0  0  0  0
    2.8292   -6.4542    0.0000 C   0  0  0  0  0  0  0  0  0  0  0  0
    7.0750   -7.0542    0.0000 C   0  0  0  0  0  0  0  0  0  0  0  0
    6.5667   -5.9375    0.0000 C   0  0  0  0  0  0  0  0  0  0  0  0
    5.8542   -6.9292    0.0000 C   0  0  0  0  0  0  0  0  0  0  0  0
    6.4250   -7.3417    0.0000 C   0  0  0  0  0  0  0  0  0  0  0  0
    5.9167   -6.2250    0.0000 C   0  0  0  0  0  0  0  0  0  0  0  0
    8.3667   -6.4792    0.0000 C   0  0  0  0  0  0  0  0  0  0  0  0
    7.8667   -5.3542    0.0000 C   0  0  0  0  0  0  0  0  0  0  0  0
    2.4750   -5.8417    0.0000 C   0  0  0  0  0  0  0  0  0  0  0  0
    1.4042   -5.2417    0.0000 O   0  0  0  0  0  0  0  0  0  0  0  0
    8.5167   -5.0667    0.0000 C   0  0  0  0  0  0  0  0  0  0  0  0
    9.0167   -6.1917    0.0000 C   0  0  0  0  0  0  0  0  0  0  0  0
    1.7625   -5.8500    0.0000 C   0  0  0  0  0  0  0  0  0  0  0  0
    0.7000   -5.2417    0.0000 C   0  0  3  0  0  0  0  0  0  0  0  0
    0.3417   -4.6292    0.0000 C   0  0  0  0  0  0  0  0  0  0  0  0
    0.3417   -5.8542    0.0000 C   0  0  0  0  0  0  0  0  0  0  0  0
  2  1  1  0  0  0  0
  3  1  1  0  0  0  0
  4  2  1  0  0  0  0
  5  3  1  0  0  0  0
  6  8  1  0  0  0  0
  7  4  1  0  0  0  0
  8 14  1  0  0  0  0
  9  2  2  0  0  0  0
 10  3  2  0  0  0  0
 11 22  1  0  0  0  0
 12  1  1  0  0  0  0
 13 16  1  0  0  0  0
 14 17  2  0  0  0  0
 15  7  1  0  0  0  0
 16 15  2  0  0  0  0
 17 15  1  0  0  0  0
 18  6  1  0  0  0  0
 19  6  1  0  0  0  0
 20 12  1  0  0  0  0
 21 24  1  0  0  0  0
 22 19  1  0  0  0  0
 23 18  1  0  0  0  0
 24 20  1  0  0  0  0
 25 21  1  0  0  0  0
 26 25  1  0  0  0  0
 27 25  1  0  0  0  0
  5  4  1  0  0  0  0
  8 13  2  0  0  0  0
 11 23  1  0  0  0  0
M  END
> <IDNUMBER>
F3023-0961

> <Chemical_Name>
3-{[4-(morpholin-4-yl)phenyl]amino}-1-[3-(propan-2-yloxy)propyl]pyrrolidine-2,5-dione

> <CAS>
1008712-50-2

> <PriceCoeff>
1.00

> <MW>
375.46

> <Description>
solid

> <FSP3>
0.60

> <clogP>
2.25

> <TPSA>
71.11

> <Acceptor>
6

> <Donor>
2

> <RotBonds>
8

> <HAC>
27

> <Collection>
General

$$$$
F6617-3965
  -ISIS-  06222321162D

 17 17  0  0  0  0  0  0  0  0999 V2000
    5.8417   -6.0625    0.0000 C   0  0  0  0  0  0  0  0  0  0  0  0
    5.1292   -6.4750    0.0000 C   0  0  0  0  0  0  0  0  0  0  0  0
    4.4167   -6.0667    0.0000 C   0  0  0  0  0  0  0  0  0  0  0  0
    7.9917   -6.4667    0.0000 C   0  0  0  0  0  0  0  0  0  0  0  0
    6.5625   -6.4667    0.0000 N   0  0  0  0  0  0  0  0  0  0  0  0
    5.8417   -5.2375    0.0000 O   0  0  0  0  0  0  0  0  0  0  0  0
    7.9917   -7.2917    0.0000 O   0  0  0  0  0  0  0  0  0  0  0  0
    7.2750   -6.0542    0.0000 C   0  0  0  0  0  0  0  0  0  0  0  0
    3.7042   -6.4792    0.0000 C   0  0  0  0  0  0  0  0  0  0  0  0
    2.2750   -7.3125    0.0000 C   0  0  0  0  0  0  0  0  0  0  0  0
    8.7042   -6.0500    0.0000 O   0  0  0  0  0  0  0  0  0  0  0  0
    2.9875   -6.0667    0.0000 C   0  0  0  0  0  0  0  0  0  0  0  0
    3.7042   -7.3125    0.0000 C   0  0  0  0  0  0  0  0  0  0  0  0
    2.2750   -6.4792    0.0000 C   0  0  0  0  0  0  0  0  0  0  0  0
    2.9875   -7.7250    0.0000 C   0  0  0  0  0  0  0  0  0  0  0  0
    1.5625   -7.7167    0.0000 O   0  0  0  0  0  0  0  0  0  0  0  0
    1.5625   -8.5417    0.0000 C   0  0  0  0  0  0  0  0  0  0  0  0
  2  1  1  0  0  0  0
  3  2  2  0  0  0  0
  4  8  1  0  0  0  0
  5  1  1  0  0  0  0
  6  1  2  0  0  0  0
  7  4  2  0  0  0  0
  8  5  1  0  0  0  0
  9  3  1  0  0  0  0
 10 15  1  0  0  0  0
 11  4  1  0  0  0  0
 12  9  2  0  0  0  0
 13  9  1  0  0  0  0
 14 12  1  0  0  0  0
 15 13  2  0  0  0  0
 16 10  1  0  0  0  0
 17 16  1  0  0  0  0
 14 10  2  0  0  0  0
M  END
> <IDNUMBER>
F6617-3965

> <Chemical_Name>
2-[(2E)-3-(4-methoxyphenyl)prop-2-enamido]acetic acid

> <CAS>
100192-91-4

> <PriceCoeff>
1.00

> <MW>
235.24

> <Description>
solid

> <FSP3>
0.17

> <clogP>
1.44

> <TPSA>
75.63

> <Acceptor>
4

> <Donor>
1

> <RotBonds>
5

> <HAC>
17

> <Collection>
General

> <Reference_compound>
CHEMBL456606

> <Similarity>
0.8210

$$$$
F3205-0035
  -ISIS-  06222321442D

 25 27  0  0  0  0  0  0  0  0999 V2000
    4.2417   -6.4875    0.0000 N   0  0  3  0  0  0  0  0  0  0  0  0
    4.7375   -7.1542    0.0000 C   0  0  0  0  0  0  0  0  0  0  0  0
    4.7292   -5.8167    0.0000 C   0  0  0  0  0  0  0  0  0  0  0  0
    5.5167   -6.8917    0.0000 C   0  0  3  0  0  0  0  0  0  0  0  0
    5.5167   -6.0667    0.0000 C   0  0  0  0  0  0  0  0  0  0  0  0
    9.1792   -6.0125    0.0000 N   0  0  3  0  0  0  0  0  0  0  0  0
    6.1792   -7.3667    0.0000 N   0  0  0  0  0  0  0  0  0  0  0  0
    8.4292   -6.3542    0.0000 C   0  0  0  0  0  0  0  0  0  0  0  0
    4.4792   -7.9375    0.0000 O   0  0  0  0  0  0  0  0  0  0  0  0
    4.4667   -5.0292    0.0000 O   0  0  0  0  0  0  0  0  0  0  0  0
    3.4250   -6.4917    0.0000 C   0  0  0  0  0  0  0  0  0  0  0  0
    7.7542   -5.8750    0.0000 C   0  0  0  0  0  0  0  0  0  0  0  0
    8.3542   -7.1667    0.0000 C   0  0  0  0  0  0  0  0  0  0  0  0
    6.9292   -7.0292    0.0000 C   0  0  0  0  0  0  0  0  0  0  0  0
    7.6042   -7.5125    0.0000 C   0  0  0  0  0  0  0  0  0  0  0  0
    7.0125   -6.2167    0.0000 C   0  0  0  0  0  0  0  0  0  0  0  0
    3.0042   -5.7792    0.0000 C   0  0  0  0  0  0  0  0  0  0  0  0
    9.8542   -6.4917    0.0000 C   0  0  0  0  0  0  0  0  0  0  0  0
    9.2542   -5.1917    0.0000 C   0  0  0  0  0  0  0  0  0  0  0  0
    1.7625   -5.0750    0.0000 O   0  0  0  0  0  0  0  0  0  0  0  0
    2.1792   -5.7875    0.0000 C   0  0  0  0  0  0  0  0  0  0  0  0
    0.9375   -5.0792    0.0000 C   0  0  0  0  0  0  0  0  0  0  0  0
   10.0125   -4.8542    0.0000 C   0  0  0  0  0  0  0  0  0  0  0  0
   10.6000   -6.1542    0.0000 C   0  0  0  0  0  0  0  0  0  0  0  0
   10.6792   -5.3292    0.0000 C   0  0  0  0  0  0  0  0  0  0  0  0
  2  1  1  0  0  0  0
  3  1  1  0  0  0  0
  4  2  1  0  0  0  0
  5  3  1  0  0  0  0
  6  8  1  0  0  0  0
  7  4  1  0  0  0  0
  8 12  1  0  0  0  0
  9  2  2  0  0  0  0
 10  3  2  0  0  0  0
 11  1  1  0  0  0  0
 12 16  2  0  0  0  0
 13 15  1  0  0  0  0
 14  7  1  0  0  0  0
 15 14  2  0  0  0  0
 16 14  1  0  0  0  0
 17 11  1  0  0  0  0
 18  6  1  0  0  0  0
 19  6  1  0  0  0  0
 20 21  1  0  0  0  0
 21 17  1  0  0  0  0
 22 20  1  0  0  0  0
 23 19  1  0  0  0  0
 24 18  1  0  0  0  0
 25 23  1  0  0  0  0
  5  4  1  0  0  0  0
  8 13  2  0  0  0  0
 25 24  1  0  0  0  0
M  END
> <IDNUMBER>
F3205-0035

> <Chemical_Name>
1-(3-methoxypropyl)-3-{[4-(piperidin-1-yl)phenyl]amino}pyrrolidine-2,5-dione

> <CAS>
1009270-29-4

> <PriceCoeff>
1.00

> <MW>
345.44

> <Description>
solid

> <FSP3>
0.58

> <clogP>
2.93

> <TPSA>
61.88

> <Acceptor>
5

> <Donor>
2

> <RotBonds>
7

> <HAC>
25

> <Collection>
General

$$$$
F2590-0186
  -ISIS-  06222321462D

 26 28  0  0  0  0  0  0  0  0999 V2000
   -3.8500    2.9833    0.0000 C   0  0  0  0  0  0  0  0  0  0  0  0
   -4.5208    2.5000    0.0000 C   0  0  0  0  0  0  0  0  0  0  0  0
   -1.7125    6.6667    0.0000 N   0  0  3  0  0  0  0  0  0  0  0  0
   -3.1958    2.5000    0.0000 S   0  0  0  0  0  0  0  0  0  0  0  0
   -4.2708    1.7208    0.0000 C   0  0  0  0  0  0  0  0  0  0  0  0
   -3.8500    3.8000    0.0000 N   0  0  0  0  0  0  0  0  0  0  0  0
   -3.4458    1.7208    0.0000 C   0  0  0  0  0  0  0  0  0  0  0  0
   -2.4333    6.2542    0.0000 C   0  0  0  0  0  0  0  0  0  0  0  0
   -3.1375    4.2042    0.0000 C   0  0  0  0  0  0  0  0  0  0  0  0
   -0.9833    6.2917    0.0000 C   0  0  0  0  0  0  0  0  0  0  0  0
   -1.6000    7.4667    0.0000 C   0  0  0  0  0  0  0  0  0  0  0  0
   -5.2958    2.7583    0.0000 C   0  0  0  0  0  0  0  0  0  0  0  0
   -2.4333    5.4292    0.0000 C   0  0  0  0  0  0  0  0  0  0  0  0
   -3.1375    5.0250    0.0000 C   0  0  0  0  0  0  0  0  0  0  0  0
   -2.4333    3.8083    0.0000 O   0  0  0  0  0  0  0  0  0  0  0  0
   -0.7875    7.6167    0.0000 C   0  0  0  0  0  0  0  0  0  0  0  0
   -0.4083    6.9000    0.0000 C   0  0  0  0  0  0  0  0  0  0  0  0
   -2.1708    8.0542    0.0000 O   0  0  0  0  0  0  0  0  0  0  0  0
   -0.8500    5.4792    0.0000 O   0  0  0  0  0  0  0  0  0  0  0  0
   -5.9125    2.2083    0.0000 O   0  0  0  0  0  0  0  0  0  0  0  0
   -5.4708    3.5625    0.0000 N   0  0  0  0  0  0  0  0  0  0  0  0
   -4.7458    1.0583    0.0000 C   0  0  0  0  0  0  0  0  0  0  0  0
   -3.1333    6.6667    0.0000 C   0  0  0  0  0  0  0  0  0  0  0  0
   -2.9708    1.0583    0.0000 C   0  0  0  0  0  0  0  0  0  0  0  0
   -3.8500    5.4292    0.0000 C   0  0  0  0  0  0  0  0  0  0  0  0
   -3.8500    6.2542    0.0000 C   0  0  0  0  0  0  0  0  0  0  0  0
  2  1  2  0  0  0  0
  3  8  1  0  0  0  0
  4  1  1  0  0  0  0
  5  2  1  0  0  0  0
  6  1  1  0  0  0  0
  7  4  1  0  0  0  0
  8 13  1  0  0  0  0
  9  6  1  0  0  0  0
 10  3  1  0  0  0  0
 11  3  1  0  0  0  0
 12  2  1  0  0  0  0
 13 14  2  0  0  0  0
 14  9  1  0  0  0  0
 15  9  2  0  0  0  0
 16 11  1  0  0  0  0
 17 10  1  0  0  0  0
 18 11  2  0  0  0  0
 19 10  2  0  0  0  0
 20 12  2  0  0  0  0
 21 12  1  0  0  0  0
 22  5  1  0  0  0  0
 23 26  1  0  0  0  0
 24  7  1  0  0  0  0
 25 14  1  0  0  0  0
 26 25  2  0  0  0  0
  5  7  2  0  0  0  0
  8 23  2  0  0  0  0
 16 17  1  0  0  0  0
M  END
> <IDNUMBER>
F2590-0186

> <Chemical_Name>
2-[3-(2,5-dioxopyrrolidin-1-yl)benzamido]-4,5-dimethylthiophene-3-carboxamide

> <CAS>
896308-52-4

> <PriceCoeff>
1.00

> <MW>
371.41

> <Description>
solid

> <FSP3>
0.22

> <clogP>
0.35

> <TPSA>
137.81

> <Acceptor>
4

> <Donor>
2

> <RotBonds>
4

> <HAC>
26

> <Collection>
General

$$$$
F2266-0010
  -ISIS-  06222321142D

 23 25  0  0  0  0  0  0  0  0999 V2000
   -3.0458    7.5250    0.0000 N   0  0  3  0  0  0  0  0  0  0  0  0
   -3.0458    6.7000    0.0000 C   0  0  0  0  0  0  0  0  0  0  0  0
   -2.3250    7.9375    0.0000 C   0  0  0  0  0  0  0  0  0  0  0  0
   -3.7500    3.8000    0.0000 C   0  0  0  0  0  0  0  0  0  0  0  0
   -2.3333    6.2792    0.0000 C   0  0  0  0  0  0  0  0  0  0  0  0
   -3.0375    4.2125    0.0000 N   0  0  0  0  0  0  0  0  0  0  0  0
   -3.7625    6.2792    0.0000 C   0  0  0  0  0  0  0  0  0  0  0  0
   -3.7583    2.9833    0.0000 C   0  0  0  0  0  0  0  0  0  0  0  0
   -3.0375    5.0417    0.0000 C   0  0  0  0  0  0  0  0  0  0  0  0
   -2.3208    5.4542    0.0000 C   0  0  0  0  0  0  0  0  0  0  0  0
   -1.6125    7.5250    0.0000 C   0  0  0  0  0  0  0  0  0  0  0  0
   -4.4708    4.2042    0.0000 O   0  0  0  0  0  0  0  0  0  0  0  0
   -2.3250    8.7667    0.0000 O   0  0  0  0  0  0  0  0  0  0  0  0
   -1.6125    6.7000    0.0000 C   0  0  0  0  0  0  0  0  0  0  0  0
   -3.0458    2.5583    0.0000 C   0  0  0  0  0  0  0  0  0  0  0  0
   -4.4708    2.5708    0.0000 C   0  0  0  0  0  0  0  0  0  0  0  0
   -3.7583    5.4542    0.0000 C   0  0  0  0  0  0  0  0  0  0  0  0
   -3.7708    7.9417    0.0000 C   0  0  0  0  0  0  0  0  0  0  0  0
   -3.7625    1.3208    0.0000 C   0  0  0  0  0  0  0  0  0  0  0  0
   -3.0458    1.7333    0.0000 C   0  0  0  0  0  0  0  0  0  0  0  0
   -4.4750    1.7375    0.0000 C   0  0  0  0  0  0  0  0  0  0  0  0
   -3.7708    0.4958    0.0000 Cl  0  0  0  0  0  0  0  0  0  0  0  0
   -3.7708    8.7667    0.0000 C   0  0  0  0  0  0  0  0  0  0  0  0
  2  1  1  0  0  0  0
  3  1  1  0  0  0  0
  4  6  1  0  0  0  0
  5  2  2  0  0  0  0
  6  9  1  0  0  0  0
  7  2  1  0  0  0  0
  8  4  1  0  0  0  0
  9 17  1  0  0  0  0
 10  5  1  0  0  0  0
 11  3  1  0  0  0  0
 12  4  2  0  0  0  0
 13  3  2  0  0  0  0
 14 11  1  0  0  0  0
 15  8  1  0  0  0  0
 16  8  2  0  0  0  0
 17  7  2  0  0  0  0
 18  1  1  0  0  0  0
 19 21  2  0  0  0  0
 20 15  2  0  0  0  0
 21 16  1  0  0  0  0
 22 19  1  0  0  0  0
 23 18  1  0  0  0  0
  5 14  1  0  0  0  0
 10  9  2  0  0  0  0
 20 19  1  0  0  0  0
M  END
> <IDNUMBER>
F2266-0010

> <Chemical_Name>
4-chloro-N-(1-ethyl-2-oxo-1,2,3,4-tetrahydroquinolin-6-yl)benzamide

> <CAS>
922129-56-4

> <PriceCoeff>
1.00

> <MW>
328.79

> <Description>
solid

> <FSP3>
0.22

> <clogP>
3.31

> <TPSA>
49.41

> <Acceptor>
2

> <Donor>
1

> <RotBonds>
3

> <HAC>
23

> <Collection>
General

> <Reference_compound>
CHEMBL2286415

> <Similarity>
0.8180

$$$$
F3115-0084
  -ISIS-  06222321152D

 26 28  0  0  0  0  0  0  0  0999 V2000
    5.7042   -5.6292    0.0000 N   0  0  3  0  0  0  0  0  0  0  0  0
    6.2000   -6.2917    0.0000 C   0  0  0  0  0  0  0  0  0  0  0  0
    6.1917   -4.9542    0.0000 C   0  0  0  0  0  0  0  0  0  0  0  0
    6.9792   -6.0375    0.0000 C   0  0  3  0  0  0  0  0  0  0  0  0
    6.9792   -5.2042    0.0000 C   0  0  0  0  0  0  0  0  0  0  0  0
    7.6500   -6.5125    0.0000 N   0  0  3  0  0  0  0  0  0  0  0  0
    8.9792   -7.4792    0.0000 N   0  0  3  0  0  0  0  0  0  0  0  0
    9.6500   -7.9667    0.0000 C   0  0  0  0  0  0  0  0  0  0  0  0
    4.8792   -5.6292    0.0000 C   0  0  0  0  0  0  0  0  0  0  0  0
    5.9417   -7.0792    0.0000 O   0  0  0  0  0  0  0  0  0  0  0  0
    5.9292   -4.1750    0.0000 O   0  0  0  0  0  0  0  0  0  0  0  0
    9.0667   -6.6542    0.0000 C   0  0  0  0  0  0  0  0  0  0  0  0
    8.2292   -7.8167    0.0000 C   0  0  0  0  0  0  0  0  0  0  0  0
    8.4000   -6.1750    0.0000 C   0  0  0  0  0  0  0  0  0  0  0  0
    7.5625   -7.3375    0.0000 C   0  0  0  0  0  0  0  0  0  0  0  0
   10.4042   -7.6292    0.0000 O   0  0  0  0  0  0  0  0  0  0  0  0
    4.4667   -4.9167    0.0000 C   0  0  0  0  0  0  0  0  0  0  0  0
    4.4792   -6.3500    0.0000 C   0  0  0  0  0  0  0  0  0  0  0  0
    9.5667   -8.7875    0.0000 O   0  0  0  0  0  0  0  0  0  0  0  0
    3.6417   -4.9250    0.0000 C   0  0  0  0  0  0  0  0  0  0  0  0
    3.6542   -6.3542    0.0000 C   0  0  0  0  0  0  0  0  0  0  0  0
    3.2375   -5.6417    0.0000 C   0  0  0  0  0  0  0  0  0  0  0  0
   10.2292   -9.2667    0.0000 C   0  0  0  0  0  0  0  0  0  0  0  0
    2.4125   -5.6417    0.0000 C   0  0  0  0  0  0  0  0  0  0  0  0
    2.0042   -6.3625    0.0000 C   0  0  0  0  0  0  0  0  0  0  0  0
   10.1417  -10.0917    0.0000 C   0  0  0  0  0  0  0  0  0  0  0  0
  2  1  1  0  0  0  0
  3  1  1  0  0  0  0
  4  2  1  0  0  0  0
  5  3  1  0  0  0  0
  6  4  1  0  0  0  0
  7 13  1  0  0  0  0
  8  7  1  0  0  0  0
  9  1  1  0  0  0  0
 10  2  2  0  0  0  0
 11  3  2  0  0  0  0
 12 14  1  0  0  0  0
 13 15  1  0  0  0  0
 14  6  1  0  0  0  0
 15  6  1  0  0  0  0
 16  8  2  0  0  0  0
 17  9  2  0  0  0  0
 18  9  1  0  0  0  0
 19  8  1  0  0  0  0
 20 17  1  0  0  0  0
 21 18  2  0  0  0  0
 22 21  1  0  0  0  0
 23 19  1  0  0  0  0
 24 22  1  0  0  0  0
 25 24  1  0  0  0  0
 26 23  1  0  0  0  0
  4  5  1  0  0  0  0
 22 20  2  0  0  0  0
  7 12  1  0  0  0  0
M  END
> <IDNUMBER>
F3115-0084

> <Chemical_Name>
ethyl 4-[1-(4-ethylphenyl)-2,5-dioxopyrrolidin-3-yl]piperazine-1-carboxylate

> <CAS>
838887-36-8

> <PriceCoeff>
1.00

> <MW>
359.42

> <Description>
solid

> <FSP3>
0.53

> <clogP>
3.41

> <TPSA>
70.16

> <Acceptor>
4

> <Donor>
1

> <RotBonds>
6

> <HAC>
26

> <Collection>
General

$$$$
F3325-0127
  -ISIS-  06222321462D

 27 30  0  0  0  0  0  0  0  0999 V2000
    4.8792   -1.3250    0.0000 N   0  0  3  0  0  0  0  0  0  0  0  0
    5.3667   -1.9917    0.0000 C   0  0  0  0  0  0  0  0  0  0  0  0
    5.3625   -0.6542    0.0000 C   0  0  0  0  0  0  0  0  0  0  0  0
    6.1542   -1.7292    0.0000 C   0  0  3  0  0  0  0  0  0  0  0  0
    6.1417   -0.9042    0.0000 C   0  0  0  0  0  0  0  0  0  0  0  0
    6.8167   -2.2125    0.0000 N   0  0  3  0  0  0  0  0  0  0  0  0
    4.0542   -1.3292    0.0000 C   0  0  0  0  0  0  0  0  0  0  0  0
    8.1542   -3.1750    0.0000 N   0  0  3  0  0  0  0  0  0  0  0  0
    5.1167   -2.7750    0.0000 O   0  0  0  0  0  0  0  0  0  0  0  0
    5.1042    0.1333    0.0000 O   0  0  0  0  0  0  0  0  0  0  0  0
    7.5667   -1.8667    0.0000 C   0  0  0  0  0  0  0  0  0  0  0  0
    6.7292   -3.0292    0.0000 C   0  0  0  0  0  0  0  0  0  0  0  0
    3.6417   -0.6167    0.0000 C   0  0  0  0  0  0  0  0  0  0  0  0
    3.6500   -2.0417    0.0000 C   0  0  0  0  0  0  0  0  0  0  0  0
    8.8250   -3.6542    0.0000 C   0  0  0  0  0  0  0  0  0  0  0  0
    8.2375   -2.3542    0.0000 C   0  0  0  0  0  0  0  0  0  0  0  0
    7.4000   -3.5125    0.0000 C   0  0  0  0  0  0  0  0  0  0  0  0
    2.8292   -2.0542    0.0000 C   0  0  0  0  0  0  0  0  0  0  0  0
    2.8167   -0.6250    0.0000 C   0  0  0  0  0  0  0  0  0  0  0  0
    2.4042   -1.3417    0.0000 C   0  0  0  0  0  0  0  0  0  0  0  0
    9.5750   -3.3250    0.0000 C   0  0  0  0  0  0  0  0  0  0  0  0
    1.5792   -1.3417    0.0000 C   0  0  0  0  0  0  0  0  0  0  0  0
   10.2417   -3.8042    0.0000 C   0  0  0  0  0  0  0  0  0  0  0  0
    9.6542   -2.5042    0.0000 C   0  0  0  0  0  0  0  0  0  0  0  0
   10.4042   -2.1667    0.0000 C   0  0  0  0  0  0  0  0  0  0  0  0
   10.9917   -3.4667    0.0000 C   0  0  0  0  0  0  0  0  0  0  0  0
   11.0792   -2.6500    0.0000 C   0  0  0  0  0  0  0  0  0  0  0  0
  2  1  1  0  0  0  0
  3  1  1  0  0  0  0
  4  2  1  0  0  0  0
  5  3  1  0  0  0  0
  6  4  1  0  0  0  0
  7  1  1  0  0  0  0
  8 17  1  0  0  0  0
  9  2  2  0  0  0  0
 10  3  2  0  0  0  0
 11  6  1  0  0  0  0
 12  6  1  0  0  0  0
 13  7  2  0  0  0  0
 14  7  1  0  0  0  0
 15  8  1  0  0  0  0
 16 11  1  0  0  0  0
 17 12  1  0  0  0  0
 18 14  2  0  0  0  0
 19 13  1  0  0  0  0
 20 18  1  0  0  0  0
 21 15  1  0  0  0  0
 22 20  1  0  0  0  0
 23 21  2  0  0  0  0
 24 21  1  0  0  0  0
 25 24  2  0  0  0  0
 26 23  1  0  0  0  0
 27 25  1  0  0  0  0
  4  5  1  0  0  0  0
 19 20  2  0  0  0  0
 16  8  1  0  0  0  0
 26 27  2  0  0  0  0
M  END
> <IDNUMBER>
F3325-0127

> <Chemical_Name>
3-(4-benzylpiperazin-1-yl)-1-(4-methylphenyl)pyrrolidine-2,5-dione

> <CAS>
354786-18-8

> <PriceCoeff>
1.00

> <MW>
363.45

> <Description>
solid

> <FSP3>
0.36

> <clogP>
3.93

> <TPSA>
43.86

> <Acceptor>
4

> <Donor>
2

> <RotBonds>
4

> <HAC>
27

> <Collection>
General

$$$$
F0700-0157
  -ISIS-  06222321142D

 27 30  0  0  0  0  0  0  0  0999 V2000
    3.7875    1.9125    0.0000 N   0  0  3  0  0  0  0  0  0  0  0  0
    1.2292    0.3500    0.0000 C   0  0  0  0  0  0  0  0  0  0  0  0
    0.8167    0.7708    0.0000 N   0  0  0  0  0  0  0  0  0  0  0  0
    0.3042    0.5000    0.0000 C   0  0  0  0  0  0  0  0  0  0  0  0
    1.8000    0.3833    0.0000 N   0  0  0  0  0  0  0  0  0  0  0  0
   -0.1833    0.8125    0.0000 C   0  0  0  0  0  0  0  0  0  0  0  0
   -0.7333    0.5958    0.0000 S   0  0  0  0  0  0  0  0  0  0  0  0
    3.5167    1.4125    0.0000 C   0  0  0  0  0  0  0  0  0  0  0  0
    2.0792    0.8958    0.0000 C   0  0  0  0  0  0  0  0  0  0  0  0
    3.5042    2.4000    0.0000 C   0  0  0  0  0  0  0  0  0  0  0  0
    4.3667    2.0208    0.0000 C   0  0  0  0  0  0  0  0  0  0  0  0
    0.9542   -0.1500    0.0000 S   0  0  0  0  0  0  0  0  0  0  0  0
   -1.0833    1.0458    0.0000 C   0  0  0  0  0  0  0  0  0  0  0  0
    0.3875   -0.0292    0.0000 C   0  0  0  0  0  0  0  0  0  0  0  0
   -0.2208    1.3833    0.0000 C   0  0  0  0  0  0  0  0  0  0  0  0
    2.9500    1.4000    0.0000 C   0  0  0  0  0  0  0  0  0  0  0  0
    2.6667    0.8958    0.0000 C   0  0  0  0  0  0  0  0  0  0  0  0
   -0.7833    1.5208    0.0000 C   0  0  0  0  0  0  0  0  0  0  0  0
    1.7667    1.3708    0.0000 O   0  0  0  0  0  0  0  0  0  0  0  0
    3.9167    2.8208    0.0000 C   0  0  0  0  0  0  0  0  0  0  0  0
    4.4167    2.5708    0.0000 C   0  0  0  0  0  0  0  0  0  0  0  0
    2.9167    2.4958    0.0000 O   0  0  0  0  0  0  0  0  0  0  0  0
    4.8042    1.6125    0.0000 O   0  0  0  0  0  0  0  0  0  0  0  0
   -1.6625    1.0208    0.0000 Br  0  0  0  0  0  0  0  0  0  0  0  0
    3.8292    0.9208    0.0000 C   0  0  0  0  0  0  0  0  0  0  0  0
    2.9792    0.4000    0.0000 C   0  0  0  0  0  0  0  0  0  0  0  0
    3.5500    0.4125    0.0000 C   0  0  0  0  0  0  0  0  0  0  0  0
  2  5  1  0  0  0  0
  3  2  2  0  0  0  0
  4  3  1  0  0  0  0
  5  9  1  0  0  0  0
  6  4  1  0  0  0  0
  7  6  1  0  0  0  0
  8  1  1  0  0  0  0
  9 17  1  0  0  0  0
 10  1  1  0  0  0  0
 11  1  1  0  0  0  0
 12  2  1  0  0  0  0
 13  7  1  0  0  0  0
 14 12  1  0  0  0  0
 15  6  2  0  0  0  0
 16  8  2  0  0  0  0
 17 16  1  0  0  0  0
 18 15  1  0  0  0  0
 19  9  2  0  0  0  0
 20 10  1  0  0  0  0
 21 11  1  0  0  0  0
 22 10  2  0  0  0  0
 23 11  2  0  0  0  0
 24 13  1  0  0  0  0
 25  8  1  0  0  0  0
 26 27  1  0  0  0  0
 27 25  2  0  0  0  0
 21 20  1  0  0  0  0
 26 17  2  0  0  0  0
 14  4  2  0  0  0  0
 13 18  2  0  0  0  0
M  END
> <IDNUMBER>
F0700-0157

> <Chemical_Name>
N-[4-(5-bromothiophen-2-yl)-1,3-thiazol-2-yl]-3-(2,5-dioxopyrrolidin-1-yl)benzamide

> <CAS>
361479-49-4

> <PriceCoeff>
1.00

> <MW>
462.34

> <Description>
solid

> <FSP3>
0.11

> <clogP>
2.88

> <TPSA>
135.85

> <Acceptor>
4

> <Donor>
1

> <RotBonds>
4

> <HAC>
27

> <Collection>
General

$$$$
F0911-2383
  -ISIS-  06222321142D

 24 26  0  0  0  0  0  0  0  0999 V2000
   -2.0708   -0.4167    0.0000 C   0  0  0  0  0  0  0  0  0  0  0  0
   -2.0708    0.5833    0.0000 C   0  0  0  0  0  0  0  0  0  0  0  0
   -2.9500   -0.9167    0.0000 N   0  0  3  0  0  0  0  0  0  0  0  0
   -3.8208    0.5833    0.0000 N   0  0  3  0  0  0  0  0  0  0  0  0
   -3.8208   -0.4167    0.0000 C   0  0  0  0  0  0  0  0  0  0  0  0
   -2.9500    1.0708    0.0000 C   0  0  0  0  0  0  0  0  0  0  0  0
   -1.1833   -0.9167    0.0000 N   0  0  0  0  0  0  0  0  0  0  0  0
   -0.3125    0.5833    0.0000 N   0  0  3  0  0  0  0  0  0  0  0  0
   -0.3125   -0.4167    0.0000 C   0  0  0  0  0  0  0  0  0  0  0  0
    0.6167    1.0958    0.0000 C   0  0  0  0  0  0  0  0  0  0  0  0
    1.5292    0.5500    0.0000 C   0  0  0  0  0  0  0  0  0  0  0  0
   -4.7708   -0.9375    0.0000 O   0  0  0  0  0  0  0  0  0  0  0  0
   -2.9500    2.1458    0.0000 O   0  0  0  0  0  0  0  0  0  0  0  0
    1.5292   -0.5042    0.0000 N   0  0  0  0  0  0  0  0  0  0  0  0
    2.4875    1.0708    0.0000 O   0  0  0  0  0  0  0  0  0  0  0  0
   -2.9500   -1.9875    0.0000 C   0  0  0  0  0  0  0  0  0  0  0  0
   -4.7708    1.0958    0.0000 C   0  0  0  0  0  0  0  0  0  0  0  0
    2.4667   -1.0667    0.0000 C   0  0  0  0  0  0  0  0  0  0  0  0
    3.4000   -0.5500    0.0000 C   0  0  0  0  0  0  0  0  0  0  0  0
    4.3167   -1.1000    0.0000 C   0  0  0  0  0  0  0  0  0  0  0  0
    3.4000    0.5208    0.0000 C   0  0  0  0  0  0  0  0  0  0  0  0
    5.2375   -0.5500    0.0000 C   0  0  0  0  0  0  0  0  0  0  0  0
    4.3167    1.0500    0.0000 C   0  0  0  0  0  0  0  0  0  0  0  0
    5.2375    0.5208    0.0000 C   0  0  0  0  0  0  0  0  0  0  0  0
  2  1  2  0  0  0  0
  3  1  1  0  0  0  0
  4  5  1  0  0  0  0
  5  3  1  0  0  0  0
  6  2  1  0  0  0  0
  7  1  1  0  0  0  0
  8  2  1  0  0  0  0
  9  7  2  0  0  0  0
 10  8  1  0  0  0  0
 11 10  1  0  0  0  0
 12  5  2  0  0  0  0
 13  6  2  0  0  0  0
 14 11  1  0  0  0  0
 15 11  2  0  0  0  0
 16  3  1  0  0  0  0
 17  4  1  0  0  0  0
 18 14  1  0  0  0  0
 19 18  1  0  0  0  0
 20 19  2  0  0  0  0
 21 19  1  0  0  0  0
 22 20  1  0  0  0  0
 23 21  2  0  0  0  0
 24 23  1  0  0  0  0
  9  8  1  0  0  0  0
  4  6  1  0  0  0  0
 24 22  2  0  0  0  0
M  END
> <IDNUMBER>
F0911-2383

> <Chemical_Name>
N-benzyl-2-(1,3-dimethyl-2,6-dioxo-2,3,6,7-tetrahydro-1H-purin-7-yl)acetamide

> <CAS>
332117-36-9

> <PriceCoeff>
1.00

> <MW>
327.34

> <Description>
solid

> <FSP3>
0.25

> <clogP>
0.76

> <TPSA>
87.54

> <Acceptor>
4

> <Donor>
2

> <RotBonds>
4

> <HAC>
24

> <Collection>
General

> <Reference_compound>
CHEMBL113

> <Similarity>
0.8050

$$$$
F0849-3787
  -ISIS-  06222321442D

 28 31  0  0  0  0  0  0  0  0999 V2000
   -1.7708    0.2208    0.0000 N   0  0  3  0  0  0  0  0  0  0  0  0
   -1.0833   -0.2542    0.0000 C   0  0  0  0  0  0  0  0  0  0  0  0
   -1.5000    1.0125    0.0000 C   0  0  0  0  0  0  0  0  0  0  0  0
   -0.4000    0.2208    0.0000 C   0  0  3  0  0  0  0  0  0  0  0  0
   -0.6708    1.0125    0.0000 C   0  0  0  0  0  0  0  0  0  0  0  0
    0.3792   -0.0167    0.0000 N   0  0  3  0  0  0  0  0  0  0  0  0
   -2.5708    0.0458    0.0000 C   0  0  0  0  0  0  0  0  0  0  0  0
    2.0000   -0.5375    0.0000 N   0  0  3  0  0  0  0  0  0  0  0  0
   -1.0708   -1.1292    0.0000 O   0  0  0  0  0  0  0  0  0  0  0  0
    2.8000   -0.7792    0.0000 C   0  0  0  0  0  0  0  0  0  0  0  0
   -1.9958    1.7208    0.0000 O   0  0  0  0  0  0  0  0  0  0  0  0
    1.0167    0.5333    0.0000 C   0  0  0  0  0  0  0  0  0  0  0  0
    0.5667   -0.8500    0.0000 C   0  0  0  0  0  0  0  0  0  0  0  0
    1.8167    0.2625    0.0000 C   0  0  0  0  0  0  0  0  0  0  0  0
    1.3542   -1.1042    0.0000 C   0  0  0  0  0  0  0  0  0  0  0  0
   -2.8458   -0.7667    0.0000 C   0  0  0  0  0  0  0  0  0  0  0  0
    2.9875   -1.6042    0.0000 C   0  0  0  0  0  0  0  0  0  0  0  0
    3.4292   -0.2000    0.0000 C   0  0  0  0  0  0  0  0  0  0  0  0
    4.4375   -1.2542    0.0000 C   0  0  0  0  0  0  0  0  0  0  0  0
    3.8167   -1.8542    0.0000 C   0  0  0  0  0  0  0  0  0  0  0  0
    4.2375   -0.4500    0.0000 C   0  0  0  0  0  0  0  0  0  0  0  0
    5.2375   -1.4875    0.0000 F   0  0  0  0  0  0  0  0  0  0  0  0
   -2.2458   -1.3792    0.0000 O   0  0  0  0  0  0  0  0  0  0  0  0
   -3.1458    0.6708    0.0000 C   0  0  0  0  0  0  0  0  0  0  0  0
   -3.6500   -0.9667    0.0000 C   0  0  0  0  0  0  0  0  0  0  0  0
   -1.4208   -1.1667    0.0000 C   0  0  0  0  0  0  0  0  0  0  0  0
   -3.9708    0.5000    0.0000 C   0  0  0  0  0  0  0  0  0  0  0  0
   -4.2208   -0.3042    0.0000 C   0  0  0  0  0  0  0  0  0  0  0  0
  2  1  1  0  0  0  0
  3  1  1  0  0  0  0
  4  2  1  0  0  0  0
  5  3  1  0  0  0  0
  6  4  1  0  0  0  0
  7  1  1  0  0  0  0
  8 15  1  0  0  0  0
  9  2  2  0  0  0  0
 10  8  1  0  0  0  0
 11  3  2  0  0  0  0
 12  6  1  0  0  0  0
 13  6  1  0  0  0  0
 14 12  1  0  0  0  0
 15 13  1  0  0  0  0
 16  7  2  0  0  0  0
 17 10  1  0  0  0  0
 18 10  2  0  0  0  0
 19 21  2  0  0  0  0
 20 17  2  0  0  0  0
 21 18  1  0  0  0  0
 22 19  1  0  0  0  0
 23 16  1  0  0  0  0
 24  7  1  0  0  0  0
 25 16  1  0  0  0  0
 26 23  1  0  0  0  0
 27 24  2  0  0  0  0
 28 27  1  0  0  0  0
  5  4  1  0  0  0  0
 25 28  2  0  0  0  0
  8 14  1  0  0  0  0
 19 20  1  0  0  0  0
M  END
> <IDNUMBER>
F0849-3787

> <Chemical_Name>
3-[4-(4-fluorophenyl)piperazin-1-yl]-1-(2-methoxyphenyl)pyrrolidine-2,5-dione

> <CAS>
299408-81-4

> <PriceCoeff>
1.00

> <MW>
383.42

> <Description>
solid

> <FSP3>
0.33

> <clogP>
3.55

> <TPSA>
53.09

> <Acceptor>
4

> <Donor>
2

> <RotBonds>
4

> <HAC>
28

> <Collection>
General

$$$$
F1813-0843
  -ISIS-  06222321452D

 22 24  0  0  0  0  0  0  0  0999 V2000
   -6.0000    3.3958    0.0000 C   0  0  0  0  0  0  0  0  0  0  0  0
   -3.8708    4.6250    0.0000 N   0  0  3  0  0  0  0  0  0  0  0  0
   -6.0792    2.5583    0.0000 N   0  0  0  0  0  0  0  0  0  0  0  0
   -7.3125    3.1083    0.0000 C   0  0  0  0  0  0  0  0  0  0  0  0
   -6.8917    2.3958    0.0000 C   0  0  0  0  0  0  0  0  0  0  0  0
   -6.7542    3.7208    0.0000 S   0  0  0  0  0  0  0  0  0  0  0  0
   -5.2958    3.8000    0.0000 N   0  0  0  0  0  0  0  0  0  0  0  0
   -3.2000    5.0917    0.0000 C   0  0  0  0  0  0  0  0  0  0  0  0
   -4.5333    5.0917    0.0000 C   0  0  0  0  0  0  0  0  0  0  0  0
   -4.5833    3.3958    0.0000 C   0  0  0  0  0  0  0  0  0  0  0  0
   -3.8708    3.8000    0.0000 C   0  0  0  0  0  0  0  0  0  0  0  0
   -8.1292    3.1083    0.0000 C   0  0  0  0  0  0  0  0  0  0  0  0
   -7.3042    1.6833    0.0000 C   0  0  0  0  0  0  0  0  0  0  0  0
   -3.4583    5.8875    0.0000 C   0  0  0  0  0  0  0  0  0  0  0  0
   -4.2833    5.8792    0.0000 C   0  0  0  0  0  0  0  0  0  0  0  0
   -2.4208    4.8375    0.0000 O   0  0  0  0  0  0  0  0  0  0  0  0
   -5.3208    4.8542    0.0000 O   0  0  0  0  0  0  0  0  0  0  0  0
   -4.5833    2.5708    0.0000 O   0  0  0  0  0  0  0  0  0  0  0  0
   -8.5417    2.3958    0.0000 C   0  0  0  0  0  0  0  0  0  0  0  0
   -8.1292    1.6750    0.0000 C   0  0  0  0  0  0  0  0  0  0  0  0
   -8.5417    3.8125    0.0000 Cl  0  0  0  0  0  0  0  0  0  0  0  0
   -6.8917    0.9708    0.0000 C   0  0  0  0  0  0  0  0  0  0  0  0
  2 11  1  0  0  0  0
  3  1  2  0  0  0  0
  4  6  1  0  0  0  0
  5  3  1  0  0  0  0
  6  1  1  0  0  0  0
  7  1  1  0  0  0  0
  8  2  1  0  0  0  0
  9  2  1  0  0  0  0
 10  7  1  0  0  0  0
 11 10  1  0  0  0  0
 12  4  2  0  0  0  0
 13  5  2  0  0  0  0
 14  8  1  0  0  0  0
 15  9  1  0  0  0  0
 16  8  2  0  0  0  0
 17  9  2  0  0  0  0
 18 10  2  0  0  0  0
 19 12  1  0  0  0  0
 20 13  1  0  0  0  0
 21 12  1  0  0  0  0
 22 13  1  0  0  0  0
  4  5  1  0  0  0  0
 19 20  2  0  0  0  0
 14 15  1  0  0  0  0
M  END
> <IDNUMBER>
F1813-0843

> <Chemical_Name>
N-(7-chloro-4-methyl-1,3-benzothiazol-2-yl)-2-(2,5-dioxopyrrolidin-1-yl)acetamide

> <CAS>
897618-13-2

> <PriceCoeff>
1.00

> <MW>
337.78

> <Description>
solid

> <FSP3>
0.29

> <clogP>
2.66

> <TPSA>
107.61

> <Acceptor>
4

> <Donor>
1

> <RotBonds>
3

> <HAC>
22

> <Collection>
General

$$$$
F2769-0049
  -ISIS-  06222321462D

 23 25  0  0  0  0  0  0  0  0999 V2000
   -3.0375    7.5250    0.0000 N   0  0  3  0  0  0  0  0  0  0  0  0
   -3.0458    6.6917    0.0000 C   0  0  0  0  0  0  0  0  0  0  0  0
   -3.7583    3.8000    0.0000 C   0  0  0  0  0  0  0  0  0  0  0  0
   -3.7583    7.9417    0.0000 C   0  0  0  0  0  0  0  0  0  0  0  0
   -2.3250    6.2750    0.0000 C   0  0  0  0  0  0  0  0  0  0  0  0
   -3.0458    4.2125    0.0000 N   0  0  0  0  0  0  0  0  0  0  0  0
   -3.7625    6.2792    0.0000 C   0  0  0  0  0  0  0  0  0  0  0  0
   -3.7500    2.9625    0.0000 C   0  0  0  0  0  0  0  0  0  0  0  0
   -3.0458    5.0292    0.0000 C   0  0  0  0  0  0  0  0  0  0  0  0
   -2.3250    5.4500    0.0000 C   0  0  0  0  0  0  0  0  0  0  0  0
   -4.4708    4.2042    0.0000 O   0  0  0  0  0  0  0  0  0  0  0  0
   -4.4833    7.5292    0.0000 O   0  0  0  0  0  0  0  0  0  0  0  0
   -3.0208    2.5625    0.0000 C   0  0  0  0  0  0  0  0  0  0  0  0
   -4.4583    2.5583    0.0000 C   0  0  0  0  0  0  0  0  0  0  0  0
   -3.7583    5.4542    0.0000 C   0  0  0  0  0  0  0  0  0  0  0  0
   -2.3125    7.9292    0.0000 C   0  0  0  0  0  0  0  0  0  0  0  0
   -3.7500    1.3208    0.0000 C   0  0  0  0  0  0  0  0  0  0  0  0
   -4.4583    1.7375    0.0000 C   0  0  0  0  0  0  0  0  0  0  0  0
   -3.0208    1.7458    0.0000 C   0  0  0  0  0  0  0  0  0  0  0  0
   -3.7458    0.4833    0.0000 Cl  0  0  0  0  0  0  0  0  0  0  0  0
   -1.6083    6.6875    0.0000 C   0  0  0  0  0  0  0  0  0  0  0  0
   -3.7458    8.7750    0.0000 C   0  0  0  0  0  0  0  0  0  0  0  0
   -1.6000    7.5125    0.0000 C   0  0  0  0  0  0  0  0  0  0  0  0
  2  1  1  0  0  0  0
  3  6  1  0  0  0  0
  4  1  1  0  0  0  0
  5  2  2  0  0  0  0
  6  9  1  0  0  0  0
  7  2  1  0  0  0  0
  8  3  1  0  0  0  0
  9 15  1  0  0  0  0
 10  5  1  0  0  0  0
 11  3  2  0  0  0  0
 12  4  2  0  0  0  0
 13  8  1  0  0  0  0
 14  8  2  0  0  0  0
 15  7  2  0  0  0  0
 16  1  1  0  0  0  0
 17 18  2  0  0  0  0
 18 14  1  0  0  0  0
 19 13  2  0  0  0  0
 20 17  1  0  0  0  0
 21 23  1  0  0  0  0
 22  4  1  0  0  0  0
 23 16  1  0  0  0  0
  5 21  1  0  0  0  0
  9 10  2  0  0  0  0
 17 19  1  0  0  0  0
M  END
> <IDNUMBER>
F2769-0049

> <Chemical_Name>
N-(1-acetyl-1,2,3,4-tetrahydroquinolin-6-yl)-4-chlorobenzamide

> <CAS>
941960-19-6

> <PriceCoeff>
1.00

> <MW>
328.79

> <Description>
solid

> <FSP3>
0.22

> <clogP>
3.19

> <TPSA>
49.41

> <Acceptor>
2

> <Donor>
1

> <RotBonds>
3

> <HAC>
23

> <Collection>
General

> <Reference_compound>
CHEMBL2286415

> <Similarity>
0.8460

$$$$
F0327-0357
  -ISIS-  06222321142D

 25 27  0  0  0  0  0  0  0  0999 V2000
   -0.5500   -0.8542    0.0000 C   0  0  0  0  0  0  0  0  0  0  0  0
   -1.8125   -0.3000    0.0000 C   0  0  0  0  0  0  0  0  0  0  0  0
    4.1042   -0.1167    0.0000 N   0  0  3  0  0  0  0  0  0  0  0  0
   -1.1333   -1.4792    0.0000 N   0  0  0  0  0  0  0  0  0  0  0  0
   -0.9708   -0.1167    0.0000 S   0  0  0  0  0  0  0  0  0  0  0  0
   -1.8708   -1.1167    0.0000 C   0  0  0  0  0  0  0  0  0  0  0  0
    0.2875   -0.8542    0.0000 N   0  0  0  0  0  0  0  0  0  0  0  0
    0.7042   -0.1167    0.0000 C   0  0  0  0  0  0  0  0  0  0  0  0
    4.7042    0.4833    0.0000 C   0  0  0  0  0  0  0  0  0  0  0  0
    4.5042   -0.8792    0.0000 C   0  0  0  0  0  0  0  0  0  0  0  0
   -2.4625    0.2333    0.0000 C   0  0  0  0  0  0  0  0  0  0  0  0
    3.2667   -0.1167    0.0000 C   0  0  0  0  0  0  0  0  0  0  0  0
    1.5667   -0.1167    0.0000 C   0  0  0  0  0  0  0  0  0  0  0  0
    0.2875    0.6208    0.0000 O   0  0  0  0  0  0  0  0  0  0  0  0
    5.4667    0.0833    0.0000 C   0  0  0  0  0  0  0  0  0  0  0  0
    5.3500   -0.7375    0.0000 C   0  0  0  0  0  0  0  0  0  0  0  0
    4.6042    1.3208    0.0000 O   0  0  0  0  0  0  0  0  0  0  0  0
    4.1292   -1.6542    0.0000 O   0  0  0  0  0  0  0  0  0  0  0  0
   -2.3833    1.0708    0.0000 O   0  0  0  0  0  0  0  0  0  0  0  0
    2.8500   -0.8542    0.0000 C   0  0  0  0  0  0  0  0  0  0  0  0
    2.8292    0.6208    0.0000 C   0  0  0  0  0  0  0  0  0  0  0  0
    1.9875   -0.8542    0.0000 C   0  0  0  0  0  0  0  0  0  0  0  0
    1.9667    0.6208    0.0000 C   0  0  0  0  0  0  0  0  0  0  0  0
   -2.6000   -1.5375    0.0000 C   0  0  0  0  0  0  0  0  0  0  0  0
   -3.2708   -0.0042    0.0000 C   0  0  0  0  0  0  0  0  0  0  0  0
  2  5  1  0  0  0  0
  3 12  1  0  0  0  0
  4  1  2  0  0  0  0
  5  1  1  0  0  0  0
  6  4  1  0  0  0  0
  7  1  1  0  0  0  0
  8  7  1  0  0  0  0
  9  3  1  0  0  0  0
 10  3  1  0  0  0  0
 11  2  1  0  0  0  0
 12 21  1  0  0  0  0
 13  8  1  0  0  0  0
 14  8  2  0  0  0  0
 15  9  1  0  0  0  0
 16 10  1  0  0  0  0
 17  9  2  0  0  0  0
 18 10  2  0  0  0  0
 19 11  2  0  0  0  0
 20 22  1  0  0  0  0
 21 23  2  0  0  0  0
 22 13  2  0  0  0  0
 23 13  1  0  0  0  0
 24  6  1  0  0  0  0
 25 11  1  0  0  0  0
  2  6  2  0  0  0  0
 12 20  2  0  0  0  0
 15 16  1  0  0  0  0
M  END
> <IDNUMBER>
F0327-0357

> <Chemical_Name>
N-(5-acetyl-4-methyl-1,3-thiazol-2-yl)-4-(2,5-dioxopyrrolidin-1-yl)benzamide

> <CAS>
330200-88-9

> <PriceCoeff>
1.00

> <MW>
357.38

> <Description>
solid

> <FSP3>
0.24

> <clogP>
0.36

> <TPSA>
124.68

> <Acceptor>
5

> <Donor>
1

> <RotBonds>
4

> <HAC>
25

> <Collection>
General

$$$$
F2769-0037
  -ISIS-  06222321152D

 23 25  0  0  0  0  0  0  0  0999 V2000
   -3.0375    7.5250    0.0000 N   0  0  3  0  0  0  0  0  0  0  0  0
   -3.0458    6.6917    0.0000 C   0  0  0  0  0  0  0  0  0  0  0  0
   -3.7583    3.8000    0.0000 C   0  0  0  0  0  0  0  0  0  0  0  0
   -3.7583    7.9417    0.0000 C   0  0  0  0  0  0  0  0  0  0  0  0
   -2.3250    6.2750    0.0000 C   0  0  0  0  0  0  0  0  0  0  0  0
   -3.0458    4.2125    0.0000 N   0  0  0  0  0  0  0  0  0  0  0  0
   -3.7625    2.9833    0.0000 C   0  0  0  0  0  0  0  0  0  0  0  0
   -3.7625    6.2792    0.0000 C   0  0  0  0  0  0  0  0  0  0  0  0
   -3.0458    5.0292    0.0000 C   0  0  0  0  0  0  0  0  0  0  0  0
   -2.3250    5.4500    0.0000 C   0  0  0  0  0  0  0  0  0  0  0  0
   -4.4833    4.2042    0.0000 O   0  0  0  0  0  0  0  0  0  0  0  0
   -4.4833    7.5292    0.0000 O   0  0  0  0  0  0  0  0  0  0  0  0
   -4.4833    2.5708    0.0000 C   0  0  0  0  0  0  0  0  0  0  0  0
   -3.7583    5.4542    0.0000 C   0  0  0  0  0  0  0  0  0  0  0  0
   -2.3125    7.9292    0.0000 C   0  0  0  0  0  0  0  0  0  0  0  0
   -4.4875    1.7375    0.0000 C   0  0  0  0  0  0  0  0  0  0  0  0
   -5.2083    1.3333    0.0000 Cl  0  0  0  0  0  0  0  0  0  0  0  0
   -1.6083    6.6875    0.0000 C   0  0  0  0  0  0  0  0  0  0  0  0
   -3.7458    8.7750    0.0000 C   0  0  0  0  0  0  0  0  0  0  0  0
   -3.0458    2.5583    0.0000 C   0  0  0  0  0  0  0  0  0  0  0  0
   -1.6000    7.5125    0.0000 C   0  0  0  0  0  0  0  0  0  0  0  0
   -3.0500    1.7250    0.0000 C   0  0  0  0  0  0  0  0  0  0  0  0
   -3.7708    1.3208    0.0000 C   0  0  0  0  0  0  0  0  0  0  0  0
  2  1  1  0  0  0  0
  3  6  1  0  0  0  0
  4  1  1  0  0  0  0
  5  2  2  0  0  0  0
  6  9  1  0  0  0  0
  7  3  1  0  0  0  0
  8  2  1  0  0  0  0
  9 14  1  0  0  0  0
 10  5  1  0  0  0  0
 11  3  2  0  0  0  0
 12  4  2  0  0  0  0
 13  7  2  0  0  0  0
 14  8  2  0  0  0  0
 15  1  1  0  0  0  0
 16 13  1  0  0  0  0
 17 16  1  0  0  0  0
 18 21  1  0  0  0  0
 19  4  1  0  0  0  0
 20  7  1  0  0  0  0
 21 15  1  0  0  0  0
 22 20  2  0  0  0  0
 23 22  1  0  0  0  0
  5 18  1  0  0  0  0
  9 10  2  0  0  0  0
 23 16  2  0  0  0  0
M  END
> <IDNUMBER>
F2769-0037

> <Chemical_Name>
N-(1-acetyl-1,2,3,4-tetrahydroquinolin-6-yl)-3-chlorobenzamide

> <CAS>
941996-82-3

> <PriceCoeff>
1.00

> <MW>
328.79

> <Description>
solid

> <FSP3>
0.22

> <clogP>
3.19

> <TPSA>
49.41

> <Acceptor>
2

> <Donor>
1

> <RotBonds>
3

> <HAC>
23

> <Collection>
General

> <Reference_compound>
CHEMBL2286415

> <Similarity>
0.8280

$$$$
F1105-0086
  -ISIS-  06222321442D

 28 31  0  0  0  0  0  0  0  0999 V2000
   -1.7375    5.2167    0.0000 C   0  0  0  0  0  0  0  0  0  0  0  0
   -1.3000    5.8375    0.0000 N   0  0  3  0  0  0  0  0  0  0  0  0
   -2.4500    5.4542    0.0000 C   0  0  0  0  0  0  0  0  0  0  0  0
   -1.7375    6.4292    0.0000 C   0  0  0  0  0  0  0  0  0  0  0  0
   -5.0458    1.7083    0.0000 N   0  0  3  0  0  0  0  0  0  0  0  0
   -2.4500    6.2042    0.0000 C   0  0  0  0  0  0  0  0  0  0  0  0
   -3.0958    5.0792    0.0000 C   0  0  0  0  0  0  0  0  0  0  0  0
   -4.3958    2.0833    0.0000 C   0  0  0  0  0  0  0  0  0  0  0  0
   -5.1583    0.9625    0.0000 C   0  0  0  0  0  0  0  0  0  0  0  0
   -5.7208    2.0333    0.0000 C   0  0  0  0  0  0  0  0  0  0  0  0
   -3.7458    3.9583    0.0000 C   0  0  0  0  0  0  0  0  0  0  0  0
   -3.0958    4.3292    0.0000 N   0  0  0  0  0  0  0  0  0  0  0  0
   -4.3958    2.8333    0.0000 C   0  0  0  0  0  0  0  0  0  0  0  0
   -3.7458    3.2083    0.0000 C   0  0  0  0  0  0  0  0  0  0  0  0
   -1.5083    4.5042    0.0000 O   0  0  0  0  0  0  0  0  0  0  0  0
   -1.5000    7.1542    0.0000 O   0  0  0  0  0  0  0  0  0  0  0  0
   -4.3958    4.3292    0.0000 O   0  0  0  0  0  0  0  0  0  0  0  0
   -6.2292    1.4875    0.0000 C   0  0  0  0  0  0  0  0  0  0  0  0
   -5.8833    0.8333    0.0000 C   0  0  0  0  0  0  0  0  0  0  0  0
   -5.8458    2.7750    0.0000 O   0  0  0  0  0  0  0  0  0  0  0  0
   -4.6208    0.4458    0.0000 O   0  0  0  0  0  0  0  0  0  0  0  0
   -0.5500    5.8417    0.0000 C   0  0  0  0  0  0  0  0  0  0  0  0
   -3.0958    6.5792    0.0000 C   0  0  0  0  0  0  0  0  0  0  0  0
   -3.7458    5.4542    0.0000 C   0  0  0  0  0  0  0  0  0  0  0  0
   -3.7458    1.7083    0.0000 C   0  0  0  0  0  0  0  0  0  0  0  0
   -3.0958    2.8333    0.0000 C   0  0  0  0  0  0  0  0  0  0  0  0
   -3.7458    6.2042    0.0000 C   0  0  0  0  0  0  0  0  0  0  0  0
   -3.0958    2.0833    0.0000 C   0  0  0  0  0  0  0  0  0  0  0  0
  2  1  1  0  0  0  0
  3  1  1  0  0  0  0
  4  2  1  0  0  0  0
  5  8  1  0  0  0  0
  6  3  2  0  0  0  0
  7  3  1  0  0  0  0
  8 13  1  0  0  0  0
  9  5  1  0  0  0  0
 10  5  1  0  0  0  0
 11 12  1  0  0  0  0
 12  7  1  0  0  0  0
 13 14  2  0  0  0  0
 14 11  1  0  0  0  0
 15  1  2  0  0  0  0
 16  4  2  0  0  0  0
 17 11  2  0  0  0  0
 18 10  1  0  0  0  0
 19  9  1  0  0  0  0
 20 10  2  0  0  0  0
 21  9  2  0  0  0  0
 22  2  1  0  0  0  0
 23  6  1  0  0  0  0
 24  7  2  0  0  0  0
 25 28  1  0  0  0  0
 26 14  1  0  0  0  0
 27 24  1  0  0  0  0
 28 26  2  0  0  0  0
  6  4  1  0  0  0  0
 23 27  2  0  0  0  0
  8 25  2  0  0  0  0
 19 18  1  0  0  0  0
M  END
> <IDNUMBER>
F1105-0086

> <Chemical_Name>
3-(2,5-dioxopyrrolidin-1-yl)-N-(2-methyl-1,3-dioxo-2,3-dihydro-1H-isoindol-4-yl)benzamide

> <CAS>
683232-43-1

> <PriceCoeff>
1.00

> <MW>
377.35

> <Description>
solid

> <FSP3>
0.15

> <clogP>
0.63

> <TPSA>
103.86

> <Acceptor>
5

> <Donor>
1

> <RotBonds>
3

> <HAC>
28

> <Collection>
General

$$$$
F3083-0082
  -ISIS-  06222321442D

 28 30  0  0  0  0  0  0  0  0999 V2000
    7.5667   -3.7042    0.0000 S   0  0  3  0  0  0  0  0  0  0  0  0
    2.4042   -2.9500    0.0000 N   0  0  3  0  0  0  0  0  0  0  0  0
    1.5792   -2.9500    0.0000 N   0  0  0  0  0  0  0  0  0  0  0  0
    1.9917   -1.6792    0.0000 C   0  0  0  0  0  0  0  0  0  0  0  0
    2.6542   -2.1625    0.0000 C   0  0  0  0  0  0  0  0  0  0  0  0
    1.3167   -2.1625    0.0000 C   0  0  0  0  0  0  0  0  0  0  0  0
    6.7417   -3.7042    0.0000 N   0  0  3  0  0  0  0  0  0  0  0  0
    5.1042   -3.7000    0.0000 N   0  0  3  0  0  0  0  0  0  0  0  0
    4.2792   -3.7000    0.0000 C   0  0  0  0  0  0  0  0  0  0  0  0
    3.7000   -3.1167    0.0000 C   0  0  0  0  0  0  0  0  0  0  0  0
    8.3917   -3.7042    0.0000 C   0  0  0  0  0  0  0  0  0  0  0  0
    7.5667   -2.8792    0.0000 O   0  0  0  0  0  0  0  0  0  0  0  0
    7.5667   -4.5292    0.0000 O   0  0  0  0  0  0  0  0  0  0  0  0
    2.9875   -3.5292    0.0000 C   0  0  0  0  0  0  0  0  0  0  0  0
    6.3375   -2.9917    0.0000 C   0  0  0  0  0  0  0  0  0  0  0  0
    6.3292   -4.4125    0.0000 C   0  0  0  0  0  0  0  0  0  0  0  0
    5.5167   -2.9875    0.0000 C   0  0  0  0  0  0  0  0  0  0  0  0
    5.5167   -4.4125    0.0000 C   0  0  0  0  0  0  0  0  0  0  0  0
    4.0667   -4.4917    0.0000 O   0  0  0  0  0  0  0  0  0  0  0  0
    1.9875   -0.8542    0.0000 Br  0  0  0  0  0  0  0  0  0  0  0  0
    8.8042   -3.0000    0.0000 C   0  0  0  0  0  0  0  0  0  0  0  0
    8.8000   -4.4167    0.0000 C   0  0  0  0  0  0  0  0  0  0  0  0
    3.3667   -1.7417    0.0000 C   0  0  0  0  0  0  0  0  0  0  0  0
    0.5167   -1.9417    0.0000 C   0  0  0  0  0  0  0  0  0  0  0  0
    9.6167   -4.4167    0.0000 C   0  0  0  0  0  0  0  0  0  0  0  0
    9.6167   -3.0000    0.0000 C   0  0  0  0  0  0  0  0  0  0  0  0
   10.0292   -3.7125    0.0000 C   0  0  0  0  0  0  0  0  0  0  0  0
   10.8542   -3.7125    0.0000 C   0  0  0  0  0  0  0  0  0  0  0  0
  2 14  1  0  0  0  0
  3  2  1  0  0  0  0
  4  5  2  0  0  0  0
  5  2  1  0  0  0  0
  6  3  2  0  0  0  0
  7  1  1  0  0  0  0
  8 18  1  0  0  0  0
  9  8  1  0  0  0  0
 10  9  1  0  0  0  0
 11  1  1  0  0  0  0
 12  1  2  0  0  0  0
 13  1  2  0  0  0  0
 14 10  1  0  0  0  0
 15  7  1  0  0  0  0
 16  7  1  0  0  0  0
 17 15  1  0  0  0  0
 18 16  1  0  0  0  0
 19  9  2  0  0  0  0
 20  4  1  0  0  0  0
 21 11  1  0  0  0  0
 22 11  2  0  0  0  0
 23  5  1  0  0  0  0
 24  6  1  0  0  0  0
 25 22  1  0  0  0  0
 26 21  2  0  0  0  0
 27 25  2  0  0  0  0
 28 27  1  0  0  0  0
  8 17  1  0  0  0  0
 26 27  1  0  0  0  0
  6  4  1  0  0  0  0
M  END
> <IDNUMBER>
F3083-0082

> <Chemical_Name>
3-(4-bromo-3,5-dimethyl-1H-pyrazol-1-yl)-1-[4-(4-methylbenzenesulfonyl)piperazin-1-yl]propan-1-one

> <CAS>
890596-32-4

> <PriceCoeff>
1.00

> <MW>
469.40

> <Description>
solid

> <FSP3>
0.47

> <clogP>
3.64

> <TPSA>
83.89

> <Acceptor>
4

> <Donor>
0

> <RotBonds>
6

> <HAC>
28

> <Collection>
General

$$$$
F1800-0036
  -ISIS-  06222321142D

 22 23  0  0  0  0  0  0  0  0999 V2000
   -3.7583    2.3708    0.0000 N   0  0  3  0  0  0  0  0  0  0  0  0
   -3.3500    1.6500    0.0000 C   0  0  0  0  0  0  0  0  0  0  0  0
   -3.3333    3.0833    0.0000 C   0  0  0  0  0  0  0  0  0  0  0  0
   -4.9958    1.6708    0.0000 C   0  0  0  0  0  0  0  0  0  0  0  0
   -4.5833    2.3750    0.0000 C   0  0  0  0  0  0  0  0  0  0  0  0
   -2.1083    2.3458    0.0000 S   0  0  0  0  0  0  0  0  0  0  0  0
   -5.8125    1.6625    0.0000 N   0  0  0  0  0  0  0  0  0  0  0  0
   -3.7708    0.9375    0.0000 O   0  0  0  0  0  0  0  0  0  0  0  0
   -3.7375    3.8000    0.0000 O   0  0  0  0  0  0  0  0  0  0  0  0
   -4.5833    0.9500    0.0000 O   0  0  0  0  0  0  0  0  0  0  0  0
   -6.2167    0.9500    0.0000 C   0  0  0  0  0  0  0  0  0  0  0  0
   -2.5333    1.6458    0.0000 C   0  0  0  0  0  0  0  0  0  0  0  0
   -2.5083    3.0625    0.0000 C   0  0  0  0  0  0  0  0  0  0  0  0
   -7.0542   -0.4667    0.0000 C   0  0  0  0  0  0  0  0  0  0  0  0
   -5.8208    0.2333    0.0000 C   0  0  0  0  0  0  0  0  0  0  0  0
   -7.0417    0.9583    0.0000 C   0  0  0  0  0  0  0  0  0  0  0  0
   -6.2292   -0.4750    0.0000 C   0  0  0  0  0  0  0  0  0  0  0  0
   -7.4625    0.2458    0.0000 C   0  0  0  0  0  0  0  0  0  0  0  0
   -7.4667   -1.1792    0.0000 C   0  0  0  0  0  0  0  0  0  0  0  0
   -8.2917   -1.1750    0.0000 C   0  0  0  0  0  0  0  0  0  0  0  0
   -8.7167   -1.8917    0.0000 C   0  0  0  0  0  0  0  0  0  0  0  0
   -9.5417   -1.8875    0.0000 C   0  0  0  0  0  0  0  0  0  0  0  0
  2  1  1  0  0  0  0
  3  1  1  0  0  0  0
  4  5  1  0  0  0  0
  5  1  1  0  0  0  0
  6 13  1  0  0  0  0
  7  4  1  0  0  0  0
  8  2  2  0  0  0  0
  9  3  2  0  0  0  0
 10  4  2  0  0  0  0
 11  7  1  0  0  0  0
 12  2  1  0  0  0  0
 13  3  1  0  0  0  0
 14 18  2  0  0  0  0
 15 11  1  0  0  0  0
 16 11  2  0  0  0  0
 17 15  2  0  0  0  0
 18 16  1  0  0  0  0
 19 14  1  0  0  0  0
 20 19  1  0  0  0  0
 21 20  1  0  0  0  0
 22 21  1  0  0  0  0
 12  6  1  0  0  0  0
 17 14  1  0  0  0  0
M  END
> <IDNUMBER>
F1800-0036

> <Chemical_Name>
N-(4-butylphenyl)-2-(3,5-dioxothiomorpholin-4-yl)acetamide

> <CAS>
868215-13-8

> <PriceCoeff>
1.00

> <MW>
320.41

> <Description>
solid

> <FSP3>
0.44

> <clogP>
3.54

> <TPSA>
91.78

> <Acceptor>
3

> <Donor>
1

> <RotBonds>
6

> <HAC>
22

> <Collection>
General

$$$$
F3325-0112
  -ISIS-  06222321462D

 28 31  0  0  0  0  0  0  0  0999 V2000
    4.8792   -1.3250    0.0000 N   0  0  3  0  0  0  0  0  0  0  0  0
    5.3667   -1.9917    0.0000 C   0  0  0  0  0  0  0  0  0  0  0  0
    5.3625   -0.6542    0.0000 C   0  0  0  0  0  0  0  0  0  0  0  0
    6.1542   -1.7292    0.0000 C   0  0  3  0  0  0  0  0  0  0  0  0
    6.1417   -0.9042    0.0000 C   0  0  0  0  0  0  0  0  0  0  0  0
    4.0542   -1.3292    0.0000 C   0  0  0  0  0  0  0  0  0  0  0  0
    6.8167   -2.2125    0.0000 N   0  0  3  0  0  0  0  0  0  0  0  0
    8.1542   -3.1750    0.0000 N   0  0  3  0  0  0  0  0  0  0  0  0
    3.6417   -0.6167    0.0000 C   0  0  0  0  0  0  0  0  0  0  0  0
    5.1167   -2.7750    0.0000 O   0  0  0  0  0  0  0  0  0  0  0  0
    8.8250   -3.6542    0.0000 C   0  0  0  0  0  0  0  0  0  0  0  0
    5.1042    0.1333    0.0000 O   0  0  0  0  0  0  0  0  0  0  0  0
    7.5667   -1.8667    0.0000 C   0  0  0  0  0  0  0  0  0  0  0  0
    6.7292   -3.0292    0.0000 C   0  0  0  0  0  0  0  0  0  0  0  0
    7.4000   -3.5125    0.0000 C   0  0  0  0  0  0  0  0  0  0  0  0
    8.2375   -2.3542    0.0000 C   0  0  0  0  0  0  0  0  0  0  0  0
    8.7375   -4.4792    0.0000 C   0  0  0  0  0  0  0  0  0  0  0  0
    9.5667   -3.3167    0.0000 C   0  0  0  0  0  0  0  0  0  0  0  0
    2.8167   -0.6250    0.0000 C   0  0  0  0  0  0  0  0  0  0  0  0
   10.1542   -4.6250    0.0000 C   0  0  0  0  0  0  0  0  0  0  0  0
    9.4042   -4.9625    0.0000 C   0  0  0  0  0  0  0  0  0  0  0  0
   10.2417   -3.8000    0.0000 C   0  0  0  0  0  0  0  0  0  0  0  0
    3.6500   -2.0417    0.0000 C   0  0  0  0  0  0  0  0  0  0  0  0
   10.8250   -5.1042    0.0000 F   0  0  0  0  0  0  0  0  0  0  0  0
    2.4000    0.0875    0.0000 O   0  0  0  0  0  0  0  0  0  0  0  0
    2.8292   -2.0542    0.0000 C   0  0  0  0  0  0  0  0  0  0  0  0
    2.4042   -1.3417    0.0000 C   0  0  0  0  0  0  0  0  0  0  0  0
    2.8042    0.8083    0.0000 C   0  0  0  0  0  0  0  0  0  0  0  0
  2  1  1  0  0  0  0
  3  1  1  0  0  0  0
  4  2  1  0  0  0  0
  5  3  1  0  0  0  0
  6  1  1  0  0  0  0
  7  4  1  0  0  0  0
  8 15  1  0  0  0  0
  9  6  2  0  0  0  0
 10  2  2  0  0  0  0
 11  8  1  0  0  0  0
 12  3  2  0  0  0  0
 13  7  1  0  0  0  0
 14  7  1  0  0  0  0
 15 14  1  0  0  0  0
 16 13  1  0  0  0  0
 17 11  2  0  0  0  0
 18 11  1  0  0  0  0
 19  9  1  0  0  0  0
 20 22  1  0  0  0  0
 21 17  1  0  0  0  0
 22 18  2  0  0  0  0
 23  6  1  0  0  0  0
 24 20  1  0  0  0  0
 25 19  1  0  0  0  0
 26 23  2  0  0  0  0
 27 26  1  0  0  0  0
 28 25  1  0  0  0  0
  4  5  1  0  0  0  0
 19 27  2  0  0  0  0
 16  8  1  0  0  0  0
 21 20  2  0  0  0  0
M  END
> <IDNUMBER>
F3325-0112

> <Chemical_Name>
3-[4-(4-fluorophenyl)piperazin-1-yl]-1-(3-methoxyphenyl)pyrrolidine-2,5-dione

> <CAS>
333398-51-9

> <PriceCoeff>
1.00

> <MW>
383.42

> <Description>
solid

> <FSP3>
0.33

> <clogP>
3.55

> <TPSA>
53.09

> <Acceptor>
4

> <Donor>
2

> <RotBonds>
4

> <HAC>
28

> <Collection>
General

$$$$
F1822-0643
  -ISIS-  06222321452D

 22 24  0  0  0  0  0  0  0  0999 V2000
   -2.4708    2.1875    0.0000 C   0  0  0  0  0  0  0  0  0  0  0  0
   -3.8708    4.6250    0.0000 N   0  0  3  0  0  0  0  0  0  0  0  0
   -1.7000    2.5250    0.0000 N   0  0  0  0  0  0  0  0  0  0  0  0
   -2.3833    1.3583    0.0000 S   0  0  0  0  0  0  0  0  0  0  0  0
   -3.1583    2.5958    0.0000 N   0  0  0  0  0  0  0  0  0  0  0  0
   -1.1458    1.9083    0.0000 C   0  0  0  0  0  0  0  0  0  0  0  0
   -4.5333    5.0917    0.0000 C   0  0  0  0  0  0  0  0  0  0  0  0
   -3.2000    5.0917    0.0000 C   0  0  0  0  0  0  0  0  0  0  0  0
   -1.5625    1.1833    0.0000 C   0  0  0  0  0  0  0  0  0  0  0  0
   -3.1583    3.3958    0.0000 C   0  0  0  0  0  0  0  0  0  0  0  0
   -3.8708    3.8000    0.0000 C   0  0  0  0  0  0  0  0  0  0  0  0
   -3.4583    5.8875    0.0000 C   0  0  0  0  0  0  0  0  0  0  0  0
   -4.2833    5.8792    0.0000 C   0  0  0  0  0  0  0  0  0  0  0  0
   -2.4208    4.8375    0.0000 O   0  0  0  0  0  0  0  0  0  0  0  0
   -5.3208    4.8542    0.0000 O   0  0  0  0  0  0  0  0  0  0  0  0
   -0.3125    1.9083    0.0000 C   0  0  0  0  0  0  0  0  0  0  0  0
   -2.4708    3.7958    0.0000 O   0  0  0  0  0  0  0  0  0  0  0  0
   -1.1500    0.4500    0.0000 C   0  0  0  0  0  0  0  0  0  0  0  0
   -0.3083    0.4583    0.0000 C   0  0  0  0  0  0  0  0  0  0  0  0
    0.1125    1.1875    0.0000 C   0  0  0  0  0  0  0  0  0  0  0  0
    0.0792    2.6000    0.0000 C   0  0  0  0  0  0  0  0  0  0  0  0
    0.8792    2.6083    0.0000 C   0  0  0  0  0  0  0  0  0  0  0  0
  2 11  1  0  0  0  0
  3  1  2  0  0  0  0
  4  1  1  0  0  0  0
  5  1  1  0  0  0  0
  6  3  1  0  0  0  0
  7  2  1  0  0  0  0
  8  2  1  0  0  0  0
  9  4  1  0  0  0  0
 10  5  1  0  0  0  0
 11 10  1  0  0  0  0
 12  8  1  0  0  0  0
 13  7  1  0  0  0  0
 14  8  2  0  0  0  0
 15  7  2  0  0  0  0
 16  6  1  0  0  0  0
 17 10  2  0  0  0  0
 18  9  1  0  0  0  0
 19 18  2  0  0  0  0
 20 16  2  0  0  0  0
 21 16  1  0  0  0  0
 22 21  1  0  0  0  0
  9  6  2  0  0  0  0
 20 19  1  0  0  0  0
 13 12  1  0  0  0  0
M  END
> <IDNUMBER>
F1822-0643

> <Chemical_Name>
2-(2,5-dioxopyrrolidin-1-yl)-N-(4-ethyl-1,3-benzothiazol-2-yl)acetamide

> <CAS>
892851-36-4

> <PriceCoeff>
1.00

> <MW>
317.36

> <Description>
solid

> <FSP3>
0.33

> <clogP>
2.47

> <TPSA>
107.61

> <Acceptor>
4

> <Donor>
1

> <RotBonds>
4

> <HAC>
22

> <Collection>
General

$$$$
F1822-0644
  -ISIS-  06222321452D

 23 26  0  0  0  0  0  0  0  0999 V2000
   -5.9583    3.3958    0.0000 C   0  0  0  0  0  0  0  0  0  0  0  0
   -3.8708    4.6250    0.0000 N   0  0  3  0  0  0  0  0  0  0  0  0
   -6.0292    2.5625    0.0000 N   0  0  0  0  0  0  0  0  0  0  0  0
   -6.7042    3.7208    0.0000 S   0  0  0  0  0  0  0  0  0  0  0  0
   -5.2708    3.7833    0.0000 N   0  0  0  0  0  0  0  0  0  0  0  0
   -6.8417    2.3958    0.0000 C   0  0  0  0  0  0  0  0  0  0  0  0
   -7.2667    3.1083    0.0000 C   0  0  0  0  0  0  0  0  0  0  0  0
   -3.2000    5.0917    0.0000 C   0  0  0  0  0  0  0  0  0  0  0  0
   -4.5333    5.0917    0.0000 C   0  0  0  0  0  0  0  0  0  0  0  0
   -4.5833    3.3958    0.0000 C   0  0  0  0  0  0  0  0  0  0  0  0
   -7.2542    1.6708    0.0000 C   0  0  0  0  0  0  0  0  0  0  0  0
   -8.0917    3.1083    0.0000 C   0  0  0  0  0  0  0  0  0  0  0  0
   -8.0792    1.6625    0.0000 C   0  0  0  0  0  0  0  0  0  0  0  0
   -8.5042    2.3833    0.0000 C   0  0  0  0  0  0  0  0  0  0  0  0
   -3.8708    3.8000    0.0000 C   0  0  0  0  0  0  0  0  0  0  0  0
   -9.3167    2.2083    0.0000 O   0  0  0  0  0  0  0  0  0  0  0  0
   -8.6417    1.0458    0.0000 O   0  0  0  0  0  0  0  0  0  0  0  0
   -9.4042    1.3833    0.0000 C   0  0  0  0  0  0  0  0  0  0  0  0
   -4.2833    5.8792    0.0000 C   0  0  0  0  0  0  0  0  0  0  0  0
   -3.4583    5.8875    0.0000 C   0  0  0  0  0  0  0  0  0  0  0  0
   -5.3208    4.8542    0.0000 O   0  0  0  0  0  0  0  0  0  0  0  0
   -2.4208    4.8375    0.0000 O   0  0  0  0  0  0  0  0  0  0  0  0
   -4.5958    2.5958    0.0000 O   0  0  0  0  0  0  0  0  0  0  0  0
  2 15  1  0  0  0  0
  3  1  2  0  0  0  0
  4  1  1  0  0  0  0
  5  1  1  0  0  0  0
  6  3  1  0  0  0  0
  7  4  1  0  0  0  0
  8  2  1  0  0  0  0
  9  2  1  0  0  0  0
 10  5  1  0  0  0  0
 11  6  1  0  0  0  0
 12  7  1  0  0  0  0
 13 11  2  0  0  0  0
 14 12  2  0  0  0  0
 15 10  1  0  0  0  0
 16 14  1  0  0  0  0
 17 13  1  0  0  0  0
 18 16  1  0  0  0  0
 19  9  1  0  0  0  0
 20  8  1  0  0  0  0
 21  9  2  0  0  0  0
 22  8  2  0  0  0  0
 23 10  2  0  0  0  0
  7  6  2  0  0  0  0
 14 13  1  0  0  0  0
 19 20  1  0  0  0  0
 17 18  1  0  0  0  0
M  END
> <IDNUMBER>
F1822-0644

> <Chemical_Name>
N-{4,6-dioxa-10-thia-12-azatricyclo[7.3.0.0^{3,7}]dodeca-1(9),2,7,11-tetraen-11-yl}-2-(2,5-dioxopyrrolidin-1-yl)acetamide

> <CAS>
892851-42-2

> <PriceCoeff>
1.00

> <MW>
333.32

> <Description>
solid

> <FSP3>
0.29

> <clogP>
1.97

> <TPSA>
126.07

> <Acceptor>
6

> <Donor>
1

> <RotBonds>
3

> <HAC>
23

> <Collection>
General

$$$$
F2670-0050
  -ISIS-  06222321462D

 23 25  0  0  0  0  0  0  0  0999 V2000
   -5.2958    6.7000    0.0000 N   0  0  3  0  0  0  0  0  0  0  0  0
   -4.5833    6.2792    0.0000 C   0  0  0  0  0  0  0  0  0  0  0  0
   -4.5708    3.8000    0.0000 C   0  0  0  0  0  0  0  0  0  0  0  0
   -6.0042    6.2792    0.0000 C   0  0  0  0  0  0  0  0  0  0  0  0
   -3.8583    4.2125    0.0000 N   0  0  0  0  0  0  0  0  0  0  0  0
   -4.5833    5.4542    0.0000 C   0  0  0  0  0  0  0  0  0  0  0  0
   -4.5833    2.9708    0.0000 C   0  0  0  0  0  0  0  0  0  0  0  0
   -3.8583    5.0417    0.0000 C   0  0  0  0  0  0  0  0  0  0  0  0
   -3.8583    6.6917    0.0000 C   0  0  0  0  0  0  0  0  0  0  0  0
   -5.3000    4.2042    0.0000 O   0  0  0  0  0  0  0  0  0  0  0  0
   -6.0042    5.4542    0.0000 O   0  0  0  0  0  0  0  0  0  0  0  0
   -5.2833    2.5625    0.0000 C   0  0  0  0  0  0  0  0  0  0  0  0
   -3.1375    6.2792    0.0000 C   0  0  0  0  0  0  0  0  0  0  0  0
   -5.2875    7.5292    0.0000 C   0  0  0  0  0  0  0  0  0  0  0  0
   -3.1458    5.4542    0.0000 C   0  0  0  0  0  0  0  0  0  0  0  0
   -5.2833    1.7250    0.0000 C   0  0  0  0  0  0  0  0  0  0  0  0
   -6.7167    6.7042    0.0000 C   0  0  0  0  0  0  0  0  0  0  0  0
   -3.8583    2.5625    0.0000 C   0  0  0  0  0  0  0  0  0  0  0  0
   -4.5708    7.9375    0.0000 C   0  0  0  0  0  0  0  0  0  0  0  0
   -3.8583    1.7333    0.0000 C   0  0  0  0  0  0  0  0  0  0  0  0
   -3.8583    7.5250    0.0000 C   0  0  0  0  0  0  0  0  0  0  0  0
   -4.5708    1.3208    0.0000 C   0  0  0  0  0  0  0  0  0  0  0  0
   -6.0000    1.3000    0.0000 C   0  0  0  0  0  0  0  0  0  0  0  0
  2  1  1  0  0  0  0
  3  5  1  0  0  0  0
  4  1  1  0  0  0  0
  5  8  1  0  0  0  0
  6  2  1  0  0  0  0
  7  3  1  0  0  0  0
  8  6  2  0  0  0  0
  9  2  2  0  0  0  0
 10  3  2  0  0  0  0
 11  4  2  0  0  0  0
 12  7  2  0  0  0  0
 13  9  1  0  0  0  0
 14  1  1  0  0  0  0
 15 13  2  0  0  0  0
 16 12  1  0  0  0  0
 17  4  1  0  0  0  0
 18  7  1  0  0  0  0
 19 14  1  0  0  0  0
 20 18  2  0  0  0  0
 21 19  1  0  0  0  0
 22 20  1  0  0  0  0
 23 16  1  0  0  0  0
  9 21  1  0  0  0  0
  8 15  1  0  0  0  0
 22 16  2  0  0  0  0
M  END
> <IDNUMBER>
F2670-0050

> <Chemical_Name>
N-(1-acetyl-1,2,3,4-tetrahydroquinolin-7-yl)-3-methylbenzamide

> <CAS>
898465-11-7

> <PriceCoeff>
1.00

> <MW>
308.37

> <Description>
solid

> <FSP3>
0.26

> <clogP>
2.78

> <TPSA>
49.41

> <Acceptor>
2

> <Donor>
1

> <RotBonds>
3

> <HAC>
23

> <Collection>
General

> <Reference_compound>
CHEMBL2286417

> <Similarity>
0.8010

$$$$
F5882-5135
  -ISIS-  06222321462D

 23 25  0  0  0  0  0  0  0  0999 V2000
    3.8292   -5.5375    0.0000 N   0  0  3  0  0  0  0  0  0  0  0  0
    9.6417   -4.7000    0.0000 N   0  0  0  0  0  0  0  0  0  0  0  0
    8.9042   -4.3000    0.0000 C   0  0  0  0  0  0  0  0  0  0  0  0
    9.8792   -3.3792    0.0000 N   0  0  0  0  0  0  0  0  0  0  0  0
    3.0667   -5.8625    0.0000 C   0  0  0  0  0  0  0  0  0  0  0  0
    3.7500   -4.7125    0.0000 C   0  0  0  0  0  0  0  0  0  0  0  0
    9.0625   -3.4792    0.0000 O   0  0  0  0  0  0  0  0  0  0  0  0
   10.2375   -4.1250    0.0000 C   0  0  0  0  0  0  0  0  0  0  0  0
    5.2667   -5.5417    0.0000 C   0  0  0  0  0  0  0  0  0  0  0  0
    4.5417   -5.9542    0.0000 C   0  0  0  0  0  0  0  0  0  0  0  0
    8.1417   -4.7125    0.0000 C   0  0  0  0  0  0  0  0  0  0  0  0
    5.9875   -5.9667    0.0000 N   0  0  0  0  0  0  0  0  0  0  0  0
    2.5250   -5.2375    0.0000 C   0  0  0  0  0  0  0  0  0  0  0  0
    2.9417   -4.5292    0.0000 C   0  0  0  0  0  0  0  0  0  0  0  0
    2.8917   -6.6792    0.0000 O   0  0  0  0  0  0  0  0  0  0  0  0
    4.3667   -4.1542    0.0000 O   0  0  0  0  0  0  0  0  0  0  0  0
    5.2667   -4.7125    0.0000 O   0  0  0  0  0  0  0  0  0  0  0  0
    7.4167   -4.3042    0.0000 C   0  0  0  0  0  0  0  0  0  0  0  0
    8.1417   -5.5417    0.0000 C   0  0  0  0  0  0  0  0  0  0  0  0
    6.7125   -5.5500    0.0000 C   0  0  0  0  0  0  0  0  0  0  0  0
    7.4292   -5.9542    0.0000 C   0  0  0  0  0  0  0  0  0  0  0  0
    6.7000   -4.7167    0.0000 C   0  0  0  0  0  0  0  0  0  0  0  0
   11.0542   -4.2667    0.0000 C   0  0  0  0  0  0  0  0  0  0  0  0
  2  3  2  0  0  0  0
  3 11  1  0  0  0  0
  4  7  1  0  0  0  0
  5  1  1  0  0  0  0
  6  1  1  0  0  0  0
  7  3  1  0  0  0  0
  8  2  1  0  0  0  0
  9 10  1  0  0  0  0
 10  1  1  0  0  0  0
 11 18  2  0  0  0  0
 12  9  1  0  0  0  0
 13  5  1  0  0  0  0
 14  6  1  0  0  0  0
 15  5  2  0  0  0  0
 16  6  2  0  0  0  0
 17  9  2  0  0  0  0
 18 22  1  0  0  0  0
 19 21  2  0  0  0  0
 20 12  1  0  0  0  0
 21 20  1  0  0  0  0
 22 20  2  0  0  0  0
 23  8  1  0  0  0  0
 14 13  1  0  0  0  0
 19 11  1  0  0  0  0
  4  8  2  0  0  0  0
M  END
> <IDNUMBER>
F5882-5135

> <Chemical_Name>
2-(2,5-dioxopyrrolidin-1-yl)-N-[4-(3-methyl-1,2,4-oxadiazol-5-yl)phenyl]acetamide

> <CAS>
1251706-39-4

> <PriceCoeff>
1.00

> <MW>
314.30

> <Description>
solid

> <FSP3>
0.27

> <clogP>
0.55

> <TPSA>
105.40

> <Acceptor>
6

> <Donor>
1

> <RotBonds>
4

> <HAC>
23

> <Collection>
General

$$$$
F0327-0381
  -ISIS-  06222321142D

 28 31  0  0  0  0  0  0  0  0999 V2000
   -3.5125    0.9708    0.0000 N   0  0  3  0  0  0  0  0  0  0  0  0
   -2.7958    1.3125    0.0000 C   0  0  0  0  0  0  0  0  0  0  0  0
   -3.4333    0.1958    0.0000 C   0  0  0  0  0  0  0  0  0  0  0  0
   -2.2500    0.7333    0.0000 C   0  0  0  0  0  0  0  0  0  0  0  0
    3.4042   -0.6875    0.0000 N   0  0  3  0  0  0  0  0  0  0  0  0
   -2.6500    0.0333    0.0000 C   0  0  0  0  0  0  0  0  0  0  0  0
    3.9875   -0.1042    0.0000 C   0  0  0  0  0  0  0  0  0  0  0  0
    3.7875   -1.3875    0.0000 C   0  0  0  0  0  0  0  0  0  0  0  0
    0.1875   -0.6875    0.0000 C   0  0  0  0  0  0  0  0  0  0  0  0
   -0.2333    0.0333    0.0000 N   0  0  0  0  0  0  0  0  0  0  0  0
    2.6042   -0.6875    0.0000 C   0  0  0  0  0  0  0  0  0  0  0  0
   -2.2333   -0.6875    0.0000 C   0  0  0  0  0  0  0  0  0  0  0  0
   -1.4333    0.7333    0.0000 C   0  0  0  0  0  0  0  0  0  0  0  0
   -2.6708    2.1333    0.0000 O   0  0  0  0  0  0  0  0  0  0  0  0
   -4.0500   -0.3500    0.0000 O   0  0  0  0  0  0  0  0  0  0  0  0
    0.9875   -0.6875    0.0000 C   0  0  0  0  0  0  0  0  0  0  0  0
   -1.0333    0.0333    0.0000 C   0  0  0  0  0  0  0  0  0  0  0  0
    4.6875   -0.4875    0.0000 C   0  0  0  0  0  0  0  0  0  0  0  0
    4.5667   -1.2667    0.0000 C   0  0  0  0  0  0  0  0  0  0  0  0
   -0.2333   -1.3875    0.0000 O   0  0  0  0  0  0  0  0  0  0  0  0
    3.8667    0.7125    0.0000 O   0  0  0  0  0  0  0  0  0  0  0  0
    3.4292   -2.1292    0.0000 O   0  0  0  0  0  0  0  0  0  0  0  0
    2.2042    0.0333    0.0000 C   0  0  0  0  0  0  0  0  0  0  0  0
    2.2042   -1.3875    0.0000 C   0  0  0  0  0  0  0  0  0  0  0  0
    1.3875    0.0333    0.0000 C   0  0  0  0  0  0  0  0  0  0  0  0
    1.4042   -1.3875    0.0000 C   0  0  0  0  0  0  0  0  0  0  0  0
   -4.2333    1.3708    0.0000 C   0  0  0  0  0  0  0  0  0  0  0  0
   -1.4333   -0.6875    0.0000 C   0  0  0  0  0  0  0  0  0  0  0  0
  2  1  1  0  0  0  0
  3  1  1  0  0  0  0
  4  2  1  0  0  0  0
  5 11  1  0  0  0  0
  6  3  1  0  0  0  0
  7  5  1  0  0  0  0
  8  5  1  0  0  0  0
  9 10  1  0  0  0  0
 10 17  1  0  0  0  0
 11 24  2  0  0  0  0
 12  6  1  0  0  0  0
 13  4  1  0  0  0  0
 14  2  2  0  0  0  0
 15  3  2  0  0  0  0
 16  9  1  0  0  0  0
 17 13  2  0  0  0  0
 18  7  1  0  0  0  0
 19  8  1  0  0  0  0
 20  9  2  0  0  0  0
 21  7  2  0  0  0  0
 22  8  2  0  0  0  0
 23 25  2  0  0  0  0
 24 26  1  0  0  0  0
 25 16  1  0  0  0  0
 26 16  2  0  0  0  0
 27  1  1  0  0  0  0
 28 12  2  0  0  0  0
  4  6  2  0  0  0  0
 17 28  1  0  0  0  0
 23 11  1  0  0  0  0
 18 19  1  0  0  0  0
M  END
> <IDNUMBER>
F0327-0381

> <Chemical_Name>
4-(2,5-dioxopyrrolidin-1-yl)-N-(2-methyl-1,3-dioxo-2,3-dihydro-1H-isoindol-5-yl)benzamide

> <CAS>
330200-95-8

> <PriceCoeff>
1.00

> <MW>
377.35

> <Description>
solid

> <FSP3>
0.15

> <clogP>
0.63

> <TPSA>
103.86

> <Acceptor>
5

> <Donor>
1

> <RotBonds>
3

> <HAC>
28

> <Collection>
General

$$$$
F5577-0081
  -ISIS-  06222321442D

 24 26  0  0  0  0  0  0  0  0999 V2000
   -1.0083    2.5583    0.0000 C   0  0  0  0  0  0  0  0  0  0  0  0
   -2.4333    2.5583    0.0000 C   0  0  0  0  0  0  0  0  0  0  0  0
   -1.7208    2.9833    0.0000 C   0  0  0  0  0  0  0  0  0  0  0  0
   -2.4375    1.7333    0.0000 C   0  0  0  0  0  0  0  0  0  0  0  0
   -1.0083    1.7333    0.0000 C   0  0  0  0  0  0  0  0  0  0  0  0
   -1.7208    1.3208    0.0000 N   0  0  3  0  0  0  0  0  0  0  0  0
   -3.1500    1.3208    0.0000 C   0  0  0  0  0  0  0  0  0  0  0  0
   -3.8625    1.7333    0.0000 C   0  0  0  0  0  0  0  0  0  0  0  0
   -3.1500    2.9708    0.0000 C   0  0  0  0  0  0  0  0  0  0  0  0
   -4.5833    1.3208    0.0000 N   0  0  3  0  0  0  0  0  0  0  0  0
   -0.2875    2.9708    0.0000 C   0  0  0  0  0  0  0  0  0  0  0  0
   -3.8625    2.5583    0.0000 C   0  0  0  0  0  0  0  0  0  0  0  0
   -1.7208    3.8000    0.0000 O   0  0  0  0  0  0  0  0  0  0  0  0
   -4.5833    0.4958    0.0000 C   0  0  0  0  0  0  0  0  0  0  0  0
   -5.2958    1.7333    0.0000 C   0  0  0  0  0  0  0  0  0  0  0  0
   -0.2875    3.7958    0.0000 O   0  0  0  0  0  0  0  0  0  0  0  0
   -4.5833    2.9708    0.0000 F   0  0  0  0  0  0  0  0  0  0  0  0
    0.4250    2.5583    0.0000 O   0  0  0  0  0  0  0  0  0  0  0  0
   -1.7250    0.4958    0.0000 C   0  0  0  0  0  0  0  0  0  0  0  0
   -5.2958    0.0833    0.0000 C   0  0  0  0  0  0  0  0  0  0  0  0
   -6.0000    1.3208    0.0000 C   0  0  0  0  0  0  0  0  0  0  0  0
   -6.0125    0.4958    0.0000 C   0  0  3  0  0  0  0  0  0  0  0  0
   -6.7292    0.0833    0.0000 C   0  0  0  0  0  0  0  0  0  0  0  0
   -1.0083    0.0833    0.0000 C   0  0  0  0  0  0  0  0  0  0  0  0
  2  3  1  0  0  0  0
  3  1  1  0  0  0  0
  4  6  1  0  0  0  0
  5  1  2  0  0  0  0
  6  5  1  0  0  0  0
  7  4  2  0  0  0  0
  8  7  1  0  0  0  0
  9  2  2  0  0  0  0
 10  8  1  0  0  0  0
 11  1  1  0  0  0  0
 12  9  1  0  0  0  0
 13  3  2  0  0  0  0
 14 10  1  0  0  0  0
 15 10  1  0  0  0  0
 16 11  2  0  0  0  0
 17 12  1  0  0  0  0
 18 11  1  0  0  0  0
 19  6  1  0  0  0  0
 20 14  1  0  0  0  0
 21 15  1  0  0  0  0
 22 21  1  0  0  0  0
 23 22  1  0  0  0  0
 24 19  1  0  0  0  0
  4  2  1  0  0  0  0
  8 12  2  0  0  0  0
 22 20  1  0  0  0  0
M  END
> <IDNUMBER>
F5577-0081

> <Chemical_Name>
1-ethyl-6-fluoro-7-(4-methylpiperidin-1-yl)-4-oxo-1,4-dihydroquinoline-3-carboxylic acid

> <CAS>
153114-24-0

> <PriceCoeff>
1.00

> <MW>
332.38

> <Description>
solid

> <FSP3>
0.44

> <clogP>
3.40

> <TPSA>
60.85

> <Acceptor>
5

> <Donor>
2

> <RotBonds>
3

> <HAC>
24

> <Collection>
General

> <Reference_compound>
CHEMBL8

> <Similarity>
0.8860

$$$$
F3385-0896
  -ISIS-  06222321462D

 23 25  0  0  0  0  0  0  0  0999 V2000
    5.5792   -2.0167    0.0000 C   0  0  0  0  0  0  0  0  0  0  0  0
    4.8542   -2.4292    0.0000 C   0  0  0  0  0  0  0  0  0  0  0  0
    4.1417   -2.0167    0.0000 C   0  0  0  0  0  0  0  0  0  0  0  0
    5.5792   -1.1875    0.0000 C   0  0  0  0  0  0  0  0  0  0  0  0
    4.1417   -1.1875    0.0000 C   0  0  0  0  0  0  0  0  0  0  0  0
    4.8625   -0.7667    0.0000 O   0  0  0  0  0  0  0  0  0  0  0  0
   -0.1458   -0.3667    0.0000 N   0  0  0  0  0  0  0  0  0  0  0  0
    6.2917   -2.4375    0.0000 C   0  0  0  0  0  0  0  0  0  0  0  0
    3.4292   -2.4292    0.0000 C   0  0  0  0  0  0  0  0  0  0  0  0
    3.4292   -0.7750    0.0000 C   0  0  0  0  0  0  0  0  0  0  0  0
    0.5750   -0.7792    0.0000 C   0  0  0  0  0  0  0  0  0  0  0  0
    4.8542   -3.2542    0.0000 O   0  0  0  0  0  0  0  0  0  0  0  0
    7.0042   -2.0250    0.0000 C   0  0  0  0  0  0  0  0  0  0  0  0
    6.2875   -3.2625    0.0000 C   0  0  0  0  0  0  0  0  0  0  0  0
    2.7167   -1.1875    0.0000 C   0  0  0  0  0  0  0  0  0  0  0  0
    2.7167   -2.0167    0.0000 C   0  0  0  0  0  0  0  0  0  0  0  0
    7.7167   -3.2667    0.0000 C   0  0  0  0  0  0  0  0  0  0  0  0
    7.0000   -3.6750    0.0000 C   0  0  0  0  0  0  0  0  0  0  0  0
    7.7167   -2.4375    0.0000 C   0  0  0  0  0  0  0  0  0  0  0  0
    2.0042   -0.7750    0.0000 O   0  0  0  0  0  0  0  0  0  0  0  0
    8.4292   -3.6792    0.0000 O   0  0  0  0  0  0  0  0  0  0  0  0
    1.2875   -1.1917    0.0000 C   0  0  0  0  0  0  0  0  0  0  0  0
    9.1417   -3.2667    0.0000 C   0  0  0  0  0  0  0  0  0  0  0  0
  2  1  1  0  0  0  0
  3  2  1  0  0  0  0
  4  1  2  0  0  0  0
  5  6  1  0  0  0  0
  6  4  1  0  0  0  0
  7 11  3  0  0  0  0
  8  1  1  0  0  0  0
  9  3  2  0  0  0  0
 10  5  2  0  0  0  0
 11 22  1  0  0  0  0
 12  2  2  0  0  0  0
 13  8  1  0  0  0  0
 14  8  2  0  0  0  0
 15 10  1  0  0  0  0
 16  9  1  0  0  0  0
 17 18  2  0  0  0  0
 18 14  1  0  0  0  0
 19 13  2  0  0  0  0
 20 15  1  0  0  0  0
 21 17  1  0  0  0  0
 22 20  1  0  0  0  0
 23 21  1  0  0  0  0
 19 17  1  0  0  0  0
  5  3  1  0  0  0  0
 15 16  2  0  0  0  0
M  END
> <IDNUMBER>
F3385-0896

> <Chemical_Name>
2-{[3-(4-methoxyphenyl)-4-oxo-4H-chromen-7-yl]oxy}acetonitrile

> <CAS>
845809-52-1

> <PriceCoeff>
1.00

> <MW>
307.30

> <Description>
solid

> <FSP3>
0.11

> <clogP>
2.01

> <TPSA>
68.55

> <Acceptor>
5

> <Donor>
0

> <RotBonds>
4

> <HAC>
23

> <Collection>
General

> <Reference_compound>
CHEMBL44

> <Similarity>
0.8950

$$$$
F1800-0195
  -ISIS-  06222321142D

 24 25  0  0  0  0  0  0  0  0999 V2000
   -3.7250    2.3000    0.0000 N   0  0  3  0  0  0  0  0  0  0  0  0
   -3.3500    2.9583    0.0000 C   0  0  0  0  0  0  0  0  0  0  0  0
   -3.3500    1.6583    0.0000 C   0  0  0  0  0  0  0  0  0  0  0  0
   -2.2250    2.3000    0.0000 S   0  0  0  0  0  0  0  0  0  0  0  0
   -4.4750    2.3000    0.0000 C   0  0  0  0  0  0  0  0  0  0  0  0
   -4.8500    2.9458    0.0000 C   0  0  0  0  0  0  0  0  0  0  0  0
   -7.0917    5.5417    0.0000 C   0  0  0  0  0  0  0  0  0  0  0  0
   -2.6000    2.9583    0.0000 C   0  0  3  0  0  0  0  0  0  0  0  0
   -2.6000    1.6583    0.0000 C   0  0  0  0  0  0  0  0  0  0  0  0
   -5.6000    2.9458    0.0000 N   0  0  0  0  0  0  0  0  0  0  0  0
   -3.7333    3.6083    0.0000 O   0  0  0  0  0  0  0  0  0  0  0  0
   -6.7167    4.8917    0.0000 C   0  0  0  0  0  0  0  0  0  0  0  0
   -3.7333    1.0000    0.0000 O   0  0  0  0  0  0  0  0  0  0  0  0
   -4.4750    3.5958    0.0000 O   0  0  0  0  0  0  0  0  0  0  0  0
   -6.7167    6.2000    0.0000 O   0  0  0  0  0  0  0  0  0  0  0  0
   -7.0917    4.2292    0.0000 C   0  0  0  0  0  0  0  0  0  0  0  0
   -5.9750    4.8917    0.0000 C   0  0  0  0  0  0  0  0  0  0  0  0
   -5.9750    3.5958    0.0000 C   0  0  0  0  0  0  0  0  0  0  0  0
   -7.8542    5.5542    0.0000 O   0  0  0  0  0  0  0  0  0  0  0  0
   -5.6000    4.2417    0.0000 C   0  0  0  0  0  0  0  0  0  0  0  0
   -6.7167    3.5958    0.0000 C   0  0  0  0  0  0  0  0  0  0  0  0
   -2.2208    3.6083    0.0000 C   0  0  0  0  0  0  0  0  0  0  0  0
   -8.2292    6.2000    0.0000 C   0  0  0  0  0  0  0  0  0  0  0  0
   -8.9792    6.2000    0.0000 C   0  0  0  0  0  0  0  0  0  0  0  0
  2  1  1  0  0  0  0
  3  1  1  0  0  0  0
  4  9  1  0  0  0  0
  5  1  1  0  0  0  0
  6  5  1  0  0  0  0
  7 12  1  0  0  0  0
  8  2  1  0  0  0  0
  9  3  1  0  0  0  0
 10  6  1  0  0  0  0
 11  2  2  0  0  0  0
 12 16  1  0  0  0  0
 13  3  2  0  0  0  0
 14  6  2  0  0  0  0
 15  7  2  0  0  0  0
 16 21  2  0  0  0  0
 17 20  1  0  0  0  0
 18 10  1  0  0  0  0
 19  7  1  0  0  0  0
 20 18  2  0  0  0  0
 21 18  1  0  0  0  0
 22  8  1  0  0  0  0
 23 19  1  0  0  0  0
 24 23  1  0  0  0  0
  4  8  1  0  0  0  0
 17 12  2  0  0  0  0
M  END
> <IDNUMBER>
F1800-0195

> <Chemical_Name>
ethyl 4-[2-(2-methyl-3,5-dioxothiomorpholin-4-yl)acetamido]benzoate

> <CAS>
868216-14-2

> <PriceCoeff>
1.00

> <MW>
350.39

> <Description>
solid

> <FSP3>
0.38

> <clogP>
2.94

> <TPSA>
118.08

> <Acceptor>
5

> <Donor>
1

> <RotBonds>
6

> <HAC>
24

> <Collection>
General

$$$$
F3385-4482
  -ISIS-  06222321462D

 21 23  0  0  0  0  0  0  0  0999 V2000
    2.6417   -3.1375    0.0000 C   0  0  0  0  0  0  0  0  0  0  0  0
    3.3542   -3.5542    0.0000 C   0  0  0  0  0  0  0  0  0  0  0  0
    4.0750   -3.1417    0.0000 C   0  0  0  0  0  0  0  0  0  0  0  0
    4.0750   -2.3125    0.0000 C   0  0  0  0  0  0  0  0  0  0  0  0
    2.6417   -2.3125    0.0000 C   0  0  0  0  0  0  0  0  0  0  0  0
    3.3542   -1.8917    0.0000 O   0  0  0  0  0  0  0  0  0  0  0  0
    1.9292   -3.5542    0.0000 C   0  0  0  0  0  0  0  0  0  0  0  0
    1.9292   -1.9000    0.0000 C   0  0  0  0  0  0  0  0  0  0  0  0
    1.2167   -3.1417    0.0000 C   0  0  0  0  0  0  0  0  0  0  0  0
    1.2167   -2.3125    0.0000 C   0  0  0  0  0  0  0  0  0  0  0  0
    3.3542   -4.3792    0.0000 O   0  0  0  0  0  0  0  0  0  0  0  0
    4.7917   -1.9042    0.0000 C   0  0  0  0  0  0  0  0  0  0  0  0
    1.9292   -4.3792    0.0000 O   0  0  0  0  0  0  0  0  0  0  0  0
    0.5042   -1.9042    0.0000 O   0  0  0  0  0  0  0  0  0  0  0  0
    4.7917   -1.0792    0.0000 C   0  0  0  0  0  0  0  0  0  0  0  0
    5.5042   -2.3167    0.0000 C   0  0  0  0  0  0  0  0  0  0  0  0
    1.2167   -4.7917    0.0000 C   0  0  0  0  0  0  0  0  0  0  0  0
    0.5042   -4.3792    0.0000 C   0  0  0  0  0  0  0  0  0  0  0  0
    6.2167   -1.9125    0.0000 C   0  0  0  0  0  0  0  0  0  0  0  0
    5.5042   -0.6667    0.0000 C   0  0  0  0  0  0  0  0  0  0  0  0
    6.2167   -1.0792    0.0000 C   0  0  0  0  0  0  0  0  0  0  0  0
  2  1  1  0  0  0  0
  3  2  1  0  0  0  0
  4  6  1  0  0  0  0
  5  1  1  0  0  0  0
  6  5  1  0  0  0  0
  7  1  2  0  0  0  0
  8  5  2  0  0  0  0
  9  7  1  0  0  0  0
 10  9  2  0  0  0  0
 11  2  2  0  0  0  0
 12  4  1  0  0  0  0
 13  7  1  0  0  0  0
 14 10  1  0  0  0  0
 15 12  1  0  0  0  0
 16 12  2  0  0  0  0
 17 13  1  0  0  0  0
 18 17  1  0  0  0  0
 19 16  1  0  0  0  0
 20 15  2  0  0  0  0
 21 19  2  0  0  0  0
 10  8  1  0  0  0  0
  4  3  2  0  0  0  0
 21 20  1  0  0  0  0
M  END
> <IDNUMBER>
F3385-4482

> <Chemical_Name>
5-ethoxy-7-hydroxy-2-phenyl-4H-chromen-4-one

> <CAS>
929513-93-9

> <PriceCoeff>
1.00

> <MW>
282.29

> <Description>
solid

> <FSP3>
0.12

> <clogP>
3.78

> <TPSA>
55.76

> <Acceptor>
4

> <Donor>
1

> <RotBonds>
3

> <HAC>
21

> <Collection>
General

> <Reference_compound>
CHEMBL275638

> <Similarity>
0.9090

$$$$
F3182-0011
  -ISIS-  06222321442D

 20 20  0  0  0  0  0  0  0  0999 V2000
    2.0042   -0.5417    0.0000 N   0  0  3  0  0  0  0  0  0  0  0  0
    1.7500   -1.3292    0.0000 C   0  0  0  0  0  0  0  0  0  0  0  0
    1.3375   -0.0667    0.0000 C   0  0  0  0  0  0  0  0  0  0  0  0
    9.7667   -1.8042    0.0000 C   0  0  0  0  0  0  0  0  0  0  0  0
    0.6792   -0.5417    0.0000 C   0  0  0  0  0  0  0  0  0  0  0  0
    0.9292   -1.3292    0.0000 C   0  0  0  0  0  0  0  0  0  0  0  0
    2.2542   -2.0417    0.0000 O   0  0  0  0  0  0  0  0  0  0  0  0
    1.3375    0.7583    0.0000 O   0  0  0  0  0  0  0  0  0  0  0  0
    9.9417   -1.0042    0.0000 O   0  0  0  0  0  0  0  0  0  0  0  0
    2.7917   -0.2917    0.0000 C   0  0  0  0  0  0  0  0  0  0  0  0
   10.3792   -2.3625    0.0000 O   0  0  0  0  0  0  0  0  0  0  0  0
    8.9792   -2.0625    0.0000 C   0  0  0  0  0  0  0  0  0  0  0  0
    3.3917   -0.8417    0.0000 C   0  0  0  0  0  0  0  0  0  0  0  0
    8.3667   -1.5042    0.0000 C   0  0  0  0  0  0  0  0  0  0  0  0
    7.5875   -1.7542    0.0000 C   0  0  0  0  0  0  0  0  0  0  0  0
    4.1792   -0.5917    0.0000 C   0  0  0  0  0  0  0  0  0  0  0  0
    4.7917   -1.1500    0.0000 C   0  0  0  0  0  0  0  0  0  0  0  0
    5.5792   -0.9000    0.0000 C   0  0  0  0  0  0  0  0  0  0  0  0
    6.1917   -1.4542    0.0000 C   0  0  0  0  0  0  0  0  0  0  0  0
    6.9750   -1.2042    0.0000 C   0  0  0  0  0  0  0  0  0  0  0  0
  2  1  1  0  0  0  0
  3  1  1  0  0  0  0
  4 12  1  0  0  0  0
  5  3  1  0  0  0  0
  6  2  1  0  0  0  0
  7  2  2  0  0  0  0
  8  3  2  0  0  0  0
  9  4  2  0  0  0  0
 10  1  1  0  0  0  0
 11  4  1  0  0  0  0
 12 14  1  0  0  0  0
 13 10  1  0  0  0  0
 14 15  1  0  0  0  0
 15 20  1  0  0  0  0
 16 13  1  0  0  0  0
 17 16  1  0  0  0  0
 18 17  1  0  0  0  0
 19 18  1  0  0  0  0
 20 19  1  0  0  0  0
  5  6  1  0  0  0  0
M  END
> <IDNUMBER>
F3182-0011

> <Chemical_Name>
11-(2,5-dioxopyrrolidin-1-yl)undecanoic acid

> <CAS>
501074-27-7

> <PriceCoeff>
1.00

> <MW>
283.36

> <Description>
solid

> <FSP3>
0.80

> <clogP>
2.73

> <TPSA>
74.68

> <Acceptor>
4

> <Donor>
0

> <RotBonds>
11

> <HAC>
20

> <Collection>
General

$$$$
F5123-0411
  -ISIS-  06222321462D

 28 31  0  0  0  0  0  0  0  0999 V2000
    0.4000    5.5292    0.0000 N   0  0  3  0  0  0  0  0  0  0  0  0
   -0.2458    5.1542    0.0000 N   0  0  0  0  0  0  0  0  0  0  0  0
    0.4000    6.2792    0.0000 C   0  0  0  0  0  0  0  0  0  0  0  0
   -0.8958    5.5292    0.0000 C   0  0  0  0  0  0  0  0  0  0  0  0
    1.1125    6.5125    0.0000 N   0  0  0  0  0  0  0  0  0  0  0  0
    1.5500    5.9000    0.0000 N   0  0  0  0  0  0  0  0  0  0  0  0
    1.1125    5.3042    0.0000 C   0  0  0  0  0  0  0  0  0  0  0  0
   -3.4958    4.0292    0.0000 C   0  0  0  0  0  0  0  0  0  0  0  0
   -2.8375    4.4042    0.0000 N   0  0  3  0  0  0  0  0  0  0  0  0
   -1.5458    5.1542    0.0000 N   0  0  3  0  0  0  0  0  0  0  0  0
   -0.2458    6.6542    0.0000 C   0  0  0  0  0  0  0  0  0  0  0  0
   -0.8958    6.2792    0.0000 C   0  0  0  0  0  0  0  0  0  0  0  0
   -4.1458    4.4042    0.0000 N   0  0  0  0  0  0  0  0  0  0  0  0
   -5.4375    2.9083    0.0000 C   0  0  0  0  0  0  0  0  0  0  0  0
   -4.7958    3.2833    0.0000 C   0  0  0  0  0  0  0  0  0  0  0  0
   -4.7958    4.0292    0.0000 C   0  0  0  0  0  0  0  0  0  0  0  0
   -3.4958    3.2833    0.0000 O   0  0  0  0  0  0  0  0  0  0  0  0
   -2.8375    5.1542    0.0000 C   0  0  0  0  0  0  0  0  0  0  0  0
   -2.1875    4.0292    0.0000 C   0  0  0  0  0  0  0  0  0  0  0  0
   -2.1875    5.5292    0.0000 C   0  0  0  0  0  0  0  0  0  0  0  0
   -1.5458    4.4042    0.0000 C   0  0  0  0  0  0  0  0  0  0  0  0
   -6.0917    3.2833    0.0000 C   0  0  0  0  0  0  0  0  0  0  0  0
   -6.0917    4.0292    0.0000 C   0  0  0  0  0  0  0  0  0  0  0  0
   -5.4333    2.1583    0.0000 Cl  0  0  0  0  0  0  0  0  0  0  0  0
   -5.4458    4.4042    0.0000 C   0  0  0  0  0  0  0  0  0  0  0  0
   -6.7500    2.9083    0.0000 Cl  0  0  0  0  0  0  0  0  0  0  0  0
    1.3500    4.5792    0.0000 C   0  0  0  0  0  0  0  0  0  0  0  0
    2.0792    4.4167    0.0000 C   0  0  0  0  0  0  0  0  0  0  0  0
  2  1  1  0  0  0  0
  3  1  1  0  0  0  0
  4  2  2  0  0  0  0
  5  3  2  0  0  0  0
  6  7  2  0  0  0  0
  7  1  1  0  0  0  0
  8  9  1  0  0  0  0
  9 19  1  0  0  0  0
 10  4  1  0  0  0  0
 11  3  1  0  0  0  0
 12 11  2  0  0  0  0
 13  8  1  0  0  0  0
 14 15  2  0  0  0  0
 15 16  1  0  0  0  0
 16 13  1  0  0  0  0
 17  8  2  0  0  0  0
 18 20  1  0  0  0  0
 19 21  1  0  0  0  0
 20 10  1  0  0  0  0
 21 10  1  0  0  0  0
 22 23  2  0  0  0  0
 23 25  1  0  0  0  0
 24 14  1  0  0  0  0
 25 16  2  0  0  0  0
 26 22  1  0  0  0  0
 27  7  1  0  0  0  0
 28 27  1  0  0  0  0
  5  6  1  0  0  0  0
  4 12  1  0  0  0  0
  9 18  1  0  0  0  0
 14 22  1  0  0  0  0
M  END
> <IDNUMBER>
F5123-0411

> <Chemical_Name>
N-(3,4-dichlorophenyl)-4-{3-ethyl-[1,2,4]triazolo[4,3-b]pyridazin-6-yl}piperazine-1-carboxamide

> <CAS>
1058255-91-6

> <PriceCoeff>
1.50

> <MW>
420.30

> <Description>
solid

> <FSP3>
0.33

> <clogP>
3.04

> <TPSA>
78.66

> <Acceptor>
4

> <Donor>
2

> <RotBonds>
4

> <HAC>
28

> <Collection>
Advanced

$$$$
F0440-0332
  -ISIS-  06222321142D

 23 25  0  0  0  0  0  0  0  0999 V2000
    1.9667    1.6833    0.0000 N   0  0  3  0  0  0  0  0  0  0  0  0
   -0.3833    0.3208    0.0000 C   0  0  0  0  0  0  0  0  0  0  0  0
   -0.8208   -0.3292    0.0000 N   0  0  0  0  0  0  0  0  0  0  0  0
   -1.5833   -0.0875    0.0000 C   0  0  0  0  0  0  0  0  0  0  0  0
    0.4042    0.3208    0.0000 N   0  0  0  0  0  0  0  0  0  0  0  0
    1.7292    2.4458    0.0000 C   0  0  0  0  0  0  0  0  0  0  0  0
    2.7667    1.6833    0.0000 C   0  0  0  0  0  0  0  0  0  0  0  0
   -0.8208    0.9458    0.0000 S   0  0  0  0  0  0  0  0  0  0  0  0
    0.8000    1.0000    0.0000 C   0  0  0  0  0  0  0  0  0  0  0  0
   -1.5833    0.7000    0.0000 C   0  0  0  0  0  0  0  0  0  0  0  0
    1.6000    1.0000    0.0000 C   0  0  0  0  0  0  0  0  0  0  0  0
   -2.2625   -0.4667    0.0000 C   0  0  0  0  0  0  0  0  0  0  0  0
    2.3667    2.8833    0.0000 C   0  0  0  0  0  0  0  0  0  0  0  0
    3.0042    2.4458    0.0000 C   0  0  0  0  0  0  0  0  0  0  0  0
    1.0000    2.6833    0.0000 O   0  0  0  0  0  0  0  0  0  0  0  0
    3.2500    1.0625    0.0000 O   0  0  0  0  0  0  0  0  0  0  0  0
    0.4042    1.6833    0.0000 O   0  0  0  0  0  0  0  0  0  0  0  0
   -2.2625   -1.2667    0.0000 C   0  0  0  0  0  0  0  0  0  0  0  0
   -2.9458   -0.0875    0.0000 C   0  0  0  0  0  0  0  0  0  0  0  0
   -2.9458   -1.6500    0.0000 C   0  0  0  0  0  0  0  0  0  0  0  0
   -3.6208   -0.4667    0.0000 C   0  0  0  0  0  0  0  0  0  0  0  0
   -3.6208   -1.2667    0.0000 C   0  0  0  0  0  0  0  0  0  0  0  0
   -4.3000   -1.6667    0.0000 C   0  0  0  0  0  0  0  0  0  0  0  0
  2  5  1  0  0  0  0
  3  2  2  0  0  0  0
  4  3  1  0  0  0  0
  5  9  1  0  0  0  0
  6  1  1  0  0  0  0
  7  1  1  0  0  0  0
  8  2  1  0  0  0  0
  9 11  1  0  0  0  0
 10  8  1  0  0  0  0
 11  1  1  0  0  0  0
 12  4  1  0  0  0  0
 13  6  1  0  0  0  0
 14  7  1  0  0  0  0
 15  6  2  0  0  0  0
 16  7  2  0  0  0  0
 17  9  2  0  0  0  0
 18 12  1  0  0  0  0
 19 12  2  0  0  0  0
 20 18  2  0  0  0  0
 21 19  1  0  0  0  0
 22 21  2  0  0  0  0
 23 22  1  0  0  0  0
 14 13  1  0  0  0  0
 10  4  2  0  0  0  0
 22 20  1  0  0  0  0
M  END
> <IDNUMBER>
F0440-0332

> <Chemical_Name>
2-(2,5-dioxopyrrolidin-1-yl)-N-[4-(4-methylphenyl)-1,3-thiazol-2-yl]acetamide

> <CAS>
361167-67-1

> <PriceCoeff>
1.00

> <MW>
329.37

> <Description>
solid

> <FSP3>
0.25

> <clogP>
2.45

> <TPSA>
107.61

> <Acceptor>
4

> <Donor>
1

> <RotBonds>
4

> <HAC>
23

> <Collection>
General

$$$$
F0873-0006
  -ISIS-  06222321142D

 16 16  0  0  0  0  0  0  0  0999 V2000
   -1.9333    0.9000    0.0000 N   0  3  0  0  0  0  0  0  0  0  0  0
    0.3667    0.5458    0.0000 C   0  0  0  0  0  0  0  0  0  0  0  0
   -1.3500    0.8000    0.0000 C   0  0  0  0  0  0  0  0  0  0  0  0
    0.7292    1.0000    0.0000 N   0  0  0  0  0  0  0  0  0  0  0  0
   -2.1500    1.4458    0.0000 O   0  5  0  0  0  0  0  0  0  0  0  0
   -2.2958    0.4458    0.0000 O   0  0  0  0  0  0  0  0  0  0  0  0
   -0.2125    0.6208    0.0000 C   0  0  0  0  0  0  0  0  0  0  0  0
    0.8500    2.0000    0.0000 C   0  0  0  0  0  0  0  0  0  0  0  0
    0.5875    0.0208    0.0000 O   0  0  0  0  0  0  0  0  0  0  0  0
    1.4292    1.9208    0.0000 O   0  0  0  0  0  0  0  0  0  0  0  0
   -1.1333    0.2625    0.0000 C   0  0  0  0  0  0  0  0  0  0  0  0
   -0.9708    1.2625    0.0000 C   0  0  0  0  0  0  0  0  0  0  0  0
   -0.4125    1.1625    0.0000 C   0  0  0  0  0  0  0  0  0  0  0  0
   -0.5708    0.1833    0.0000 C   0  0  0  0  0  0  0  0  0  0  0  0
    0.5042    1.5458    0.0000 C   0  0  0  0  0  0  0  0  0  0  0  0
    0.6292    2.5208    0.0000 O   0  0  0  0  0  0  0  0  0  0  0  0
  2  7  1  0  0  0  0
  3  1  1  0  0  0  0
  4  2  1  0  0  0  0
  5  1  1  0  0  0  0
  6  1  2  0  0  0  0
  7 13  2  0  0  0  0
  8 15  1  0  0  0  0
  9  2  2  0  0  0  0
 10  8  2  0  0  0  0
 11  3  1  0  0  0  0
 12  3  2  0  0  0  0
 13 12  1  0  0  0  0
 14 11  2  0  0  0  0
 15  4  1  0  0  0  0
 16  8  1  0  0  0  0
  7 14  1  0  0  0  0
M  CHG  2   1   1   5  -1
M  END
> <IDNUMBER>
F0873-0006

> <Chemical_Name>
2-[(4-nitrophenyl)formamido]acetic acid

> <CAS>
2645-07-0

> <PriceCoeff>
1.00

> <MW>
224.17

> <Description>
solid

> <FSP3>
0.11

> <clogP>
0.83

> <TPSA>
109.54

> <Acceptor>
5

> <Donor>
1

> <RotBonds>
4

> <HAC>
16

> <Collection>
General

> <Reference_compound>
CHEMBL463

> <Similarity>
0.8080

$$$$
F2158-0864
  -ISIS-  06222321462D

 16 17  0  0  0  0  0  0  0  0999 V2000
    5.6875    0.1333    0.0000 N   0  0  0  0  0  0  0  0  0  0  0  0
    4.9292   -0.2042    0.0000 C   0  0  0  0  0  0  0  0  0  0  0  0
    5.0167   -1.0292    0.0000 N   0  0  0  0  0  0  0  0  0  0  0  0
    6.2417   -0.4792    0.0000 C   0  0  0  0  0  0  0  0  0  0  0  0
    5.8292   -1.2000    0.0000 O   0  0  0  0  0  0  0  0  0  0  0  0
    7.0542   -0.3917    0.0000 C   0  0  0  0  0  0  0  0  0  0  0  0
    4.2167    0.2000    0.0000 C   0  0  0  0  0  0  0  0  0  0  0  0
    7.5417   -1.0625    0.0000 C   0  0  0  0  0  0  0  0  0  0  0  0
    8.3667   -0.9750    0.0000 O   0  0  0  0  0  0  0  0  0  0  0  0
    3.5042   -0.2125    0.0000 C   0  0  0  0  0  0  0  0  0  0  0  0
    4.2167    1.0333    0.0000 C   0  0  0  0  0  0  0  0  0  0  0  0
    2.7917    1.0250    0.0000 C   0  0  0  0  0  0  0  0  0  0  0  0
    2.7917    0.2000    0.0000 C   0  0  0  0  0  0  0  0  0  0  0  0
    3.5042    1.4458    0.0000 C   0  0  0  0  0  0  0  0  0  0  0  0
    2.0792    1.4375    0.0000 Cl  0  0  0  0  0  0  0  0  0  0  0  0
    7.2125   -1.8167    0.0000 C   0  0  0  0  0  0  0  0  0  0  0  0
  2  1  1  0  0  0  0
  3  2  2  0  0  0  0
  4  1  2  0  0  0  0
  5  4  1  0  0  0  0
  6  4  1  0  0  0  0
  7  2  1  0  0  0  0
  8  6  1  0  0  0  0
  9  8  2  0  0  0  0
 10  7  2  0  0  0  0
 11  7  1  0  0  0  0
 12 14  1  0  0  0  0
 13 10  1  0  0  0  0
 14 11  2  0  0  0  0
 15 12  1  0  0  0  0
 16  8  1  0  0  0  0
  3  5  1  0  0  0  0
 13 12  2  0  0  0  0
M  END
> <IDNUMBER>
F2158-0864

> <Chemical_Name>
1-[3-(4-chlorophenyl)-1,2,4-oxadiazol-5-yl]propan-2-one

> <CAS>
286841-24-5

> <PriceCoeff>
1.00

> <MW>
236.66

> <Description>
solid

> <FSP3>
0.18

> <clogP>
1.60

> <TPSA>
55.99

> <Acceptor>
4

> <Donor>
0

> <RotBonds>
3

> <HAC>
16

> <Collection>
General

> <Reference_compound>
CHEMBL4781421

> <Similarity>
0.8720

$$$$
F2313-0092
  -ISIS-  06222321462D

 26 28  0  0  0  0  0  0  0  0999 V2000
    3.7125    2.6875    0.0000 N   0  0  3  0  0  0  0  0  0  0  0  0
    0.8542    2.3708    0.0000 C   0  0  0  0  0  0  0  0  0  0  0  0
    0.1417    1.9458    0.0000 O   0  0  0  0  0  0  0  0  0  0  0  0
   -0.4833    2.4958    0.0000 C   0  0  0  0  0  0  0  0  0  0  0  0
   -0.1458    3.2583    0.0000 N   0  0  0  0  0  0  0  0  0  0  0  0
    0.6792    3.1750    0.0000 N   0  0  0  0  0  0  0  0  0  0  0  0
    1.6167    2.0333    0.0000 N   0  0  0  0  0  0  0  0  0  0  0  0
    4.4917    2.4333    0.0000 C   0  0  0  0  0  0  0  0  0  0  0  0
    3.6917    3.5083    0.0000 C   0  0  0  0  0  0  0  0  0  0  0  0
    2.2875    2.5208    0.0000 C   0  0  0  0  0  0  0  0  0  0  0  0
    3.0417    2.1958    0.0000 C   0  0  0  0  0  0  0  0  0  0  0  0
   -1.2333    2.8333    0.0000 C   0  0  0  0  0  0  0  0  0  0  0  0
   -1.8125    2.2458    0.0000 C   0  0  0  0  0  0  0  0  0  0  0  0
    4.4750    3.7708    0.0000 C   0  0  0  0  0  0  0  0  0  0  0  0
    4.9750    3.1125    0.0000 C   0  0  0  0  0  0  0  0  0  0  0  0
    3.0292    3.9958    0.0000 O   0  0  0  0  0  0  0  0  0  0  0  0
    4.7542    1.6500    0.0000 O   0  0  0  0  0  0  0  0  0  0  0  0
   -3.2083    1.8958    0.0000 S   0  0  0  0  0  0  0  0  0  0  0  0
    2.1917    3.3458    0.0000 O   0  0  0  0  0  0  0  0  0  0  0  0
   -2.6208    2.4625    0.0000 C   0  0  0  0  0  0  0  0  0  0  0  0
   -1.4500    3.6208    0.0000 C   0  0  0  0  0  0  0  0  0  0  0  0
   -3.9958    2.1208    0.0000 C   0  0  3  0  0  0  0  0  0  0  0  0
   -2.2458    3.8333    0.0000 C   0  0  0  0  0  0  0  0  0  0  0  0
   -2.8333    3.2458    0.0000 C   0  0  0  0  0  0  0  0  0  0  0  0
   -4.1958    2.9208    0.0000 C   0  0  0  0  0  0  0  0  0  0  0  0
   -4.5833    1.5500    0.0000 C   0  0  0  0  0  0  0  0  0  0  0  0
  2  7  1  0  0  0  0
  3  2  1  0  0  0  0
  4  3  1  0  0  0  0
  5  6  1  0  0  0  0
  6  2  2  0  0  0  0
  7 10  1  0  0  0  0
  8  1  1  0  0  0  0
  9  1  1  0  0  0  0
 10 11  1  0  0  0  0
 11  1  1  0  0  0  0
 12  4  1  0  0  0  0
 13 12  2  0  0  0  0
 14  9  1  0  0  0  0
 15  8  1  0  0  0  0
 16  9  2  0  0  0  0
 17  8  2  0  0  0  0
 18 20  1  0  0  0  0
 19 10  2  0  0  0  0
 20 13  1  0  0  0  0
 21 12  1  0  0  0  0
 22 18  1  0  0  0  0
 23 21  2  0  0  0  0
 24 23  1  0  0  0  0
 25 22  1  0  0  0  0
 26 22  1  0  0  0  0
 15 14  1  0  0  0  0
  5  4  2  0  0  0  0
 24 20  2  0  0  0  0
M  END
> <IDNUMBER>
F2313-0092

> <Chemical_Name>
2-(2,5-dioxopyrrolidin-1-yl)-N-{5-[3-(propan-2-ylsulfanyl)phenyl]-1,3,4-oxadiazol-2-yl}acetamide

> <CAS>
922004-13-5

> <PriceCoeff>
1.00

> <MW>
374.41

> <Description>
solid

> <FSP3>
0.35

> <clogP>
1.85

> <TPSA>
130.70

> <Acceptor>
6

> <Donor>
1

> <RotBonds>
6

> <HAC>
26

> <Collection>
General

$$$$
F0440-0315
  -ISIS-  06222321452D

 22 24  0  0  0  0  0  0  0  0999 V2000
    0.5000    2.1000    0.0000 C   0  0  0  0  0  0  0  0  0  0  0  0
    1.4500    0.4333    0.0000 N   0  0  3  0  0  0  0  0  0  0  0  0
    0.1000    1.5833    0.0000 N   0  0  0  0  0  0  0  0  0  0  0  0
    0.1000    2.6208    0.0000 S   0  0  0  0  0  0  0  0  0  0  0  0
    1.1292    2.1000    0.0000 N   0  0  0  0  0  0  0  0  0  0  0  0
    2.1167    0.3500    0.0000 C   0  0  0  0  0  0  0  0  0  0  0  0
    1.1667   -0.1292    0.0000 C   0  0  0  0  0  0  0  0  0  0  0  0
   -0.5000    2.4208    0.0000 C   0  0  0  0  0  0  0  0  0  0  0  0
   -0.5000    1.7833    0.0000 C   0  0  0  0  0  0  0  0  0  0  0  0
    1.4500    1.5458    0.0000 C   0  0  0  0  0  0  0  0  0  0  0  0
    1.1292    0.9833    0.0000 C   0  0  0  0  0  0  0  0  0  0  0  0
   -1.0625    2.7458    0.0000 C   0  0  0  0  0  0  0  0  0  0  0  0
    2.1917   -0.3000    0.0000 C   0  0  0  0  0  0  0  0  0  0  0  0
    1.6167   -0.6000    0.0000 C   0  0  0  0  0  0  0  0  0  0  0  0
    2.6000    0.8458    0.0000 O   0  0  0  0  0  0  0  0  0  0  0  0
    0.5042   -0.2042    0.0000 O   0  0  0  0  0  0  0  0  0  0  0  0
    2.1042    1.5458    0.0000 O   0  0  0  0  0  0  0  0  0  0  0  0
   -1.0625    1.4625    0.0000 C   0  0  0  0  0  0  0  0  0  0  0  0
   -1.6208    2.4208    0.0000 C   0  0  0  0  0  0  0  0  0  0  0  0
   -1.6208    1.7833    0.0000 C   0  0  0  0  0  0  0  0  0  0  0  0
   -2.2000    2.7208    0.0000 O   0  0  0  0  0  0  0  0  0  0  0  0
   -2.2458    3.3833    0.0000 C   0  0  0  0  0  0  0  0  0  0  0  0
  2 11  1  0  0  0  0
  3  1  2  0  0  0  0
  4  1  1  0  0  0  0
  5  1  1  0  0  0  0
  6  2  1  0  0  0  0
  7  2  1  0  0  0  0
  8  4  1  0  0  0  0
  9  3  1  0  0  0  0
 10  5  1  0  0  0  0
 11 10  1  0  0  0  0
 12  8  1  0  0  0  0
 13  6  1  0  0  0  0
 14  7  1  0  0  0  0
 15  6  2  0  0  0  0
 16  7  2  0  0  0  0
 17 10  2  0  0  0  0
 18  9  1  0  0  0  0
 19 12  2  0  0  0  0
 20 18  2  0  0  0  0
 21 19  1  0  0  0  0
 22 21  1  0  0  0  0
  9  8  2  0  0  0  0
 20 19  1  0  0  0  0
 14 13  1  0  0  0  0
M  END
> <IDNUMBER>
F0440-0315

> <Chemical_Name>
2-(2,5-dioxopyrrolidin-1-yl)-N-(6-methoxy-1,3-benzothiazol-2-yl)acetamide

> <CAS>
360762-04-5

> <PriceCoeff>
1.00

> <MW>
319.34

> <Description>
solid

> <FSP3>
0.29

> <clogP>
1.74

> <TPSA>
116.84

> <Acceptor>
5

> <Donor>
1

> <RotBonds>
4

> <HAC>
22

> <Collection>
General

$$$$
F0440-0331
  -ISIS-  06222321452D

 22 24  0  0  0  0  0  0  0  0999 V2000
    1.0000   -1.4500    0.0000 N   0  0  3  0  0  0  0  0  0  0  0  0
   -1.4125   -2.8292    0.0000 C   0  0  0  0  0  0  0  0  0  0  0  0
   -1.8500   -3.5000    0.0000 N   0  0  0  0  0  0  0  0  0  0  0  0
   -2.6125   -3.2500    0.0000 C   0  0  0  0  0  0  0  0  0  0  0  0
   -0.5958   -2.8292    0.0000 N   0  0  0  0  0  0  0  0  0  0  0  0
    0.7542   -0.7000    0.0000 C   0  0  0  0  0  0  0  0  0  0  0  0
    1.8000   -1.4500    0.0000 C   0  0  0  0  0  0  0  0  0  0  0  0
   -1.8500   -2.2042    0.0000 S   0  0  0  0  0  0  0  0  0  0  0  0
   -0.1958   -2.1292    0.0000 C   0  0  0  0  0  0  0  0  0  0  0  0
   -2.6125   -2.4500    0.0000 C   0  0  0  0  0  0  0  0  0  0  0  0
    0.6000   -2.1500    0.0000 C   0  0  0  0  0  0  0  0  0  0  0  0
    1.4000   -0.2500    0.0000 C   0  0  0  0  0  0  0  0  0  0  0  0
    2.0500   -0.7000    0.0000 C   0  0  0  0  0  0  0  0  0  0  0  0
    0.0000   -0.4292    0.0000 O   0  0  0  0  0  0  0  0  0  0  0  0
    2.2792   -2.1042    0.0000 O   0  0  0  0  0  0  0  0  0  0  0  0
   -3.3125   -3.6500    0.0000 C   0  0  0  0  0  0  0  0  0  0  0  0
   -0.5958   -1.4292    0.0000 O   0  0  0  0  0  0  0  0  0  0  0  0
   -4.0208   -3.2500    0.0000 C   0  0  0  0  0  0  0  0  0  0  0  0
   -3.3125   -4.4417    0.0000 C   0  0  0  0  0  0  0  0  0  0  0  0
   -4.0208   -4.8500    0.0000 C   0  0  0  0  0  0  0  0  0  0  0  0
   -4.7208   -3.6500    0.0000 C   0  0  0  0  0  0  0  0  0  0  0  0
   -4.7208   -4.4417    0.0000 C   0  0  0  0  0  0  0  0  0  0  0  0
  2  5  1  0  0  0  0
  3  2  2  0  0  0  0
  4  3  1  0  0  0  0
  5  9  1  0  0  0  0
  6  1  1  0  0  0  0
  7  1  1  0  0  0  0
  8  2  1  0  0  0  0
  9 11  1  0  0  0  0
 10  8  1  0  0  0  0
 11  1  1  0  0  0  0
 12  6  1  0  0  0  0
 13  7  1  0  0  0  0
 14  6  2  0  0  0  0
 15  7  2  0  0  0  0
 16  4  1  0  0  0  0
 17  9  2  0  0  0  0
 18 16  2  0  0  0  0
 19 16  1  0  0  0  0
 20 19  2  0  0  0  0
 21 18  1  0  0  0  0
 22 20  1  0  0  0  0
 13 12  1  0  0  0  0
  4 10  2  0  0  0  0
 22 21  2  0  0  0  0
M  END
> <IDNUMBER>
F0440-0331

> <Chemical_Name>
2-(2,5-dioxopyrrolidin-1-yl)-N-(4-phenyl-1,3-thiazol-2-yl)acetamide

> <CAS>
313699-31-9

> <PriceCoeff>
1.00

> <MW>
315.35

> <Description>
solid

> <FSP3>
0.20

> <clogP>
1.95

> <TPSA>
107.61

> <Acceptor>
4

> <Donor>
1

> <RotBonds>
4

> <HAC>
22

> <Collection>
General

$$$$
F1916-0010
  -ISIS-  06222321452D

 23 24  0  0  0  0  0  0  0  0999 V2000
    2.1292   -9.1000    0.0000 C   0  0  0  0  0  0  0  0  0  0  0  0
   10.7042   -9.0667    0.0000 C   0  0  0  0  0  0  0  0  0  0  0  0
    1.4167   -8.6875    0.0000 O   0  0  0  0  0  0  0  0  0  0  0  0
   11.4167   -8.6542    0.0000 O   0  0  0  0  0  0  0  0  0  0  0  0
    6.4167   -7.4417    0.0000 O   0  0  0  0  0  0  0  0  0  0  0  0
    5.7042   -7.8542    0.0000 C   0  0  0  0  0  0  0  0  0  0  0  0
    7.1375   -7.8500    0.0000 C   0  0  0  0  0  0  0  0  0  0  0  0
    2.8500   -8.6875    0.0000 C   0  0  0  0  0  0  0  0  0  0  0  0
    9.9917   -8.6625    0.0000 C   0  0  0  0  0  0  0  0  0  0  0  0
    4.2792   -8.6875    0.0000 C   0  0  0  0  0  0  0  0  0  0  0  0
    8.5667   -8.6667    0.0000 C   0  0  0  0  0  0  0  0  0  0  0  0
    2.1292   -9.9250    0.0000 O   0  0  0  0  0  0  0  0  0  0  0  0
   10.7042   -9.8917    0.0000 O   0  0  0  0  0  0  0  0  0  0  0  0
    3.5625   -9.1000    0.0000 C   0  0  0  0  0  0  0  0  0  0  0  0
    9.2792   -9.0792    0.0000 C   0  0  0  0  0  0  0  0  0  0  0  0
    5.7042   -8.6875    0.0000 C   0  0  0  0  0  0  0  0  0  0  0  0
    7.8417   -7.4292    0.0000 C   0  0  0  0  0  0  0  0  0  0  0  0
    4.9917   -7.4417    0.0000 C   0  0  0  0  0  0  0  0  0  0  0  0
    7.1375   -8.6750    0.0000 C   0  0  0  0  0  0  0  0  0  0  0  0
    8.5542   -7.8375    0.0000 C   0  0  0  0  0  0  0  0  0  0  0  0
    4.9917   -9.1000    0.0000 C   0  0  0  0  0  0  0  0  0  0  0  0
    7.8500   -9.0792    0.0000 C   0  0  0  0  0  0  0  0  0  0  0  0
    4.2792   -7.8625    0.0000 C   0  0  0  0  0  0  0  0  0  0  0  0
  2  9  1  0  0  0  0
  3  1  2  0  0  0  0
  4  2  2  0  0  0  0
  5  6  1  0  0  0  0
  6 18  2  0  0  0  0
  7  5  1  0  0  0  0
  8  1  1  0  0  0  0
  9 15  1  0  0  0  0
 10 14  1  0  0  0  0
 11 22  2  0  0  0  0
 12  1  1  0  0  0  0
 13  2  1  0  0  0  0
 14  8  1  0  0  0  0
 15 11  1  0  0  0  0
 16 21  2  0  0  0  0
 17  7  1  0  0  0  0
 18 23  1  0  0  0  0
 19  7  2  0  0  0  0
 20 17  2  0  0  0  0
 21 10  1  0  0  0  0
 22 19  1  0  0  0  0
 23 10  2  0  0  0  0
  6 16  1  0  0  0  0
 20 11  1  0  0  0  0
M  END
> <IDNUMBER>
F1916-0010

> <Chemical_Name>
3-{4-[4-(2-carboxyethyl)phenoxy]phenyl}propanoic acid

> <CAS>
13655-10-2

> <PriceCoeff>
1.00

> <MW>
314.33

> <Description>
solid

> <FSP3>
0.22

> <clogP>
3.76

> <TPSA>
83.83

> <Acceptor>
5

> <Donor>
0

> <RotBonds>
8

> <HAC>
23

> <Collection>
General

> <Reference_compound>
CHEMBL1172560

> <Similarity>
0.8280

$$$$
F2073-0219
  -ISIS-  06222321142D

 26 28  0  0  0  0  0  0  0  0999 V2000
   -2.3750    4.4542    0.0000 C   0  0  0  0  0  0  0  0  0  0  0  0
   -2.2083    5.2667    0.0000 C   0  0  0  0  0  0  0  0  0  0  0  0
   -1.4208    5.5167    0.0000 N   0  0  3  0  0  0  0  0  0  0  0  0
   -0.8083    4.9667    0.0000 C   0  0  0  0  0  0  0  0  0  0  0  0
   -0.9750    4.1542    0.0000 N   0  0  0  0  0  0  0  0  0  0  0  0
   -1.7625    3.9083    0.0000 C   0  0  0  0  0  0  0  0  0  0  0  0
   -3.1583    4.2042    0.0000 N   0  0  0  0  0  0  0  0  0  0  0  0
   -6.2667    6.8792    0.0000 N   0  3  0  0  0  0  0  0  0  0  0  0
   -3.7625    4.7625    0.0000 C   0  0  0  0  0  0  0  0  0  0  0  0
   -4.3958    5.2917    0.0000 C   0  0  0  0  0  0  0  0  0  0  0  0
   -4.2458    6.0917    0.0000 C   0  0  0  0  0  0  0  0  0  0  0  0
   -1.2583    6.3125    0.0000 C   0  0  0  0  0  0  0  0  0  0  0  0
   -5.6458    6.3417    0.0000 C   0  0  0  0  0  0  0  0  0  0  0  0
   -4.8708    6.6292    0.0000 C   0  0  0  0  0  0  0  0  0  0  0  0
   -5.1583    5.0125    0.0000 C   0  0  0  0  0  0  0  0  0  0  0  0
   -0.0375    5.2167    0.0000 C   0  0  0  0  0  0  0  0  0  0  0  0
   -2.8125    5.8125    0.0000 O   0  0  0  0  0  0  0  0  0  0  0  0
   -6.1167    7.6917    0.0000 O   0  5  0  0  0  0  0  0  0  0  0  0
   -7.0417    6.5917    0.0000 O   0  0  0  0  0  0  0  0  0  0  0  0
    0.1292    6.0250    0.0000 C   0  0  0  0  0  0  0  0  0  0  0  0
   -3.9083    3.9583    0.0000 O   0  0  0  0  0  0  0  0  0  0  0  0
   -0.4750    6.5667    0.0000 C   0  0  0  0  0  0  0  0  0  0  0  0
   -5.7833    5.5292    0.0000 C   0  0  0  0  0  0  0  0  0  0  0  0
   -3.4708    6.3750    0.0000 Cl  0  0  0  0  0  0  0  0  0  0  0  0
   -1.9333    3.1125    0.0000 C   0  0  0  0  0  0  0  0  0  0  0  0
   -1.8708    6.8542    0.0000 C   0  0  0  0  0  0  0  0  0  0  0  0
  2  1  1  0  0  0  0
  3  2  1  0  0  0  0
  4  5  2  0  0  0  0
  5  6  1  0  0  0  0
  6  1  2  0  0  0  0
  7  1  1  0  0  0  0
  8 13  1  0  0  0  0
  9  7  1  0  0  0  0
 10  9  1  0  0  0  0
 11 10  2  0  0  0  0
 12  3  1  0  0  0  0
 13 23  1  0  0  0  0
 14 11  1  0  0  0  0
 15 10  1  0  0  0  0
 16  4  1  0  0  0  0
 17  2  2  0  0  0  0
 18  8  1  0  0  0  0
 19  8  2  0  0  0  0
 20 16  2  0  0  0  0
 21  9  2  0  0  0  0
 22 12  2  0  0  0  0
 23 15  2  0  0  0  0
 24 11  1  0  0  0  0
 25  6  1  0  0  0  0
 26 12  1  0  0  0  0
  3  4  1  0  0  0  0
 22 20  1  0  0  0  0
 13 14  2  0  0  0  0
M  CHG  2   8   1  18  -1
M  END
> <IDNUMBER>
F2073-0219

> <Chemical_Name>
2-chloro-N-{2,6-dimethyl-4-oxo-4H-pyrido[1,2-a]pyrimidin-3-yl}-4-nitrobenzamide

> <CAS>
941923-28-0

> <PriceCoeff>
1.00

> <MW>
372.76

> <Description>
solid

> <FSP3>
0.12

> <clogP>
1.76

> <TPSA>
104.91

> <Acceptor>
5

> <Donor>
1

> <RotBonds>
3

> <HAC>
26

> <Collection>
General

$$$$
F1813-0845
  -ISIS-  06222321452D

 23 25  0  0  0  0  0  0  0  0999 V2000
   -5.9958    3.3958    0.0000 C   0  0  0  0  0  0  0  0  0  0  0  0
   -3.8708    4.6250    0.0000 N   0  0  3  0  0  0  0  0  0  0  0  0
   -6.0750    2.5708    0.0000 N   0  0  0  0  0  0  0  0  0  0  0  0
   -6.8792    2.3958    0.0000 C   0  0  0  0  0  0  0  0  0  0  0  0
   -7.2917    3.1125    0.0000 C   0  0  0  0  0  0  0  0  0  0  0  0
   -6.7417    3.7208    0.0000 S   0  0  0  0  0  0  0  0  0  0  0  0
   -5.2875    3.8000    0.0000 N   0  0  0  0  0  0  0  0  0  0  0  0
   -3.2000    5.0917    0.0000 C   0  0  0  0  0  0  0  0  0  0  0  0
   -4.5333    5.0917    0.0000 C   0  0  0  0  0  0  0  0  0  0  0  0
   -4.5833    3.3958    0.0000 C   0  0  0  0  0  0  0  0  0  0  0  0
   -3.8708    3.8000    0.0000 C   0  0  0  0  0  0  0  0  0  0  0  0
   -7.2792    1.6958    0.0000 C   0  0  0  0  0  0  0  0  0  0  0  0
   -8.1042    3.1083    0.0000 C   0  0  0  0  0  0  0  0  0  0  0  0
   -3.4583    5.8875    0.0000 C   0  0  0  0  0  0  0  0  0  0  0  0
   -4.2833    5.8792    0.0000 C   0  0  0  0  0  0  0  0  0  0  0  0
   -2.4208    4.8375    0.0000 O   0  0  0  0  0  0  0  0  0  0  0  0
   -5.3208    4.8542    0.0000 O   0  0  0  0  0  0  0  0  0  0  0  0
   -4.5833    2.5708    0.0000 O   0  0  0  0  0  0  0  0  0  0  0  0
   -8.1042    1.6958    0.0000 C   0  0  0  0  0  0  0  0  0  0  0  0
   -8.5167    2.4083    0.0000 C   0  0  0  0  0  0  0  0  0  0  0  0
   -6.8750    0.9875    0.0000 O   0  0  0  0  0  0  0  0  0  0  0  0
   -8.5042    3.8208    0.0000 C   0  0  0  0  0  0  0  0  0  0  0  0
   -7.1917    0.1458    0.0000 C   0  0  0  0  0  0  0  0  0  0  0  0
  2 11  1  0  0  0  0
  3  1  2  0  0  0  0
  4  3  1  0  0  0  0
  5  6  1  0  0  0  0
  6  1  1  0  0  0  0
  7  1  1  0  0  0  0
  8  2  1  0  0  0  0
  9  2  1  0  0  0  0
 10  7  1  0  0  0  0
 11 10  1  0  0  0  0
 12  4  2  0  0  0  0
 13  5  2  0  0  0  0
 14  8  1  0  0  0  0
 15  9  1  0  0  0  0
 16  8  2  0  0  0  0
 17  9  2  0  0  0  0
 18 10  2  0  0  0  0
 19 12  1  0  0  0  0
 20 13  1  0  0  0  0
 21 12  1  0  0  0  0
 22 13  1  0  0  0  0
 23 21  1  0  0  0  0
  5  4  1  0  0  0  0
 20 19  2  0  0  0  0
 14 15  1  0  0  0  0
M  END
> <IDNUMBER>
F1813-0845

> <Chemical_Name>
2-(2,5-dioxopyrrolidin-1-yl)-N-(4-methoxy-7-methyl-1,3-benzothiazol-2-yl)acetamide

> <CAS>
868368-49-4

> <PriceCoeff>
1.00

> <MW>
333.36

> <Description>
solid

> <FSP3>
0.33

> <clogP>
2.24

> <TPSA>
116.84

> <Acceptor>
5

> <Donor>
1

> <RotBonds>
4

> <HAC>
23

> <Collection>
General

$$$$
F0001-2724
  -ISIS-  06222321142D

 15 15  0  0  0  0  0  0  0  0999 V2000
    1.2417   -2.3292    0.0000 C   0  0  0  0  0  0  0  0  0  0  0  0
    2.6708   -2.3292    0.0000 C   0  0  0  0  0  0  0  0  0  0  0  0
    1.9542   -1.0875    0.0000 C   0  0  0  0  0  0  0  0  0  0  0  0
    1.2417   -1.5000    0.0000 C   0  0  0  0  0  0  0  0  0  0  0  0
    2.6708   -1.5000    0.0000 C   0  0  0  0  0  0  0  0  0  0  0  0
    1.9542   -2.7417    0.0000 C   0  0  0  0  0  0  0  0  0  0  0  0
    1.9500   -0.2625    0.0000 C   0  0  3  0  0  0  0  0  0  0  0  0
    0.5250   -2.7417    0.0000 C   0  0  3  0  0  0  0  0  0  0  0  0
    3.3875   -2.7417    0.0000 C   0  0  3  0  0  0  0  0  0  0  0  0
    2.6667    0.1500    0.0000 C   0  0  0  0  0  0  0  0  0  0  0  0
   -0.1875   -2.3292    0.0000 C   0  0  0  0  0  0  0  0  0  0  0  0
    0.5250   -3.5667    0.0000 C   0  0  0  0  0  0  0  0  0  0  0  0
    1.2375    0.1458    0.0000 C   0  0  0  0  0  0  0  0  0  0  0  0
    3.3875   -3.5667    0.0000 C   0  0  0  0  0  0  0  0  0  0  0  0
    4.1000   -2.3250    0.0000 C   0  0  0  0  0  0  0  0  0  0  0  0
  2  6  2  0  0  0  0
  3  4  1  0  0  0  0
  4  1  2  0  0  0  0
  5  3  2  0  0  0  0
  6  1  1  0  0  0  0
  7  3  1  0  0  0  0
  8  1  1  0  0  0  0
  9  2  1  0  0  0  0
 10  7  1  0  0  0  0
 11  8  1  0  0  0  0
 12  8  1  0  0  0  0
 13  7  1  0  0  0  0
 14  9  1  0  0  0  0
 15  9  1  0  0  0  0
  5  2  1  0  0  0  0
M  END
> <IDNUMBER>
F0001-2724

> <Chemical_Name>
1,3,5-tris(propan-2-yl)benzene

> <CAS>
717-74-8

> <PriceCoeff>
1.00

> <MW>
204.35

> <Description>
oil

> <FSP3>
0.60

> <clogP>
6.42

> <TPSA>
0.00

> <Acceptor>
0

> <Donor>
0

> <RotBonds>
3

> <HAC>
15

> <Collection>
General

> <Reference_compound>
CHEMBL442915

> <Similarity>
0.8890

$$$$
F0349-4092
  -ISIS-  06222321142D

 19 19  0  0  0  0  0  0  0  0999 V2000
    0.3000    0.9000    0.0000 C   0  0  0  0  0  0  0  0  0  0  0  0
    0.3000    1.8000    0.0000 C   0  0  0  0  0  0  0  0  0  0  0  0
   -0.4625    0.4458    0.0000 C   0  0  0  0  0  0  0  0  0  0  0  0
   -0.4625    2.2708    0.0000 C   0  0  0  0  0  0  0  0  0  0  0  0
   -1.2458    0.8833    0.0000 C   0  0  0  0  0  0  0  0  0  0  0  0
   -1.2625    1.7833    0.0000 C   0  0  0  0  0  0  0  0  0  0  0  0
    1.1000    0.4458    0.0000 C   0  0  0  0  0  0  0  0  0  0  0  0
    1.8500   -1.8000    0.0000 C   0  0  0  0  0  0  0  0  0  0  0  0
    2.6292   -2.2500    0.0000 O   0  0  0  0  0  0  0  0  0  0  0  0
    1.8667    0.8833    0.0000 O   0  0  0  0  0  0  0  0  0  0  0  0
    1.1000   -0.4500    0.0000 C   0  0  0  0  0  0  0  0  0  0  0  0
    1.8500   -0.9000    0.0000 C   0  0  0  0  0  0  0  0  0  0  0  0
    1.0542    2.2500    0.0000 O   0  0  0  0  0  0  0  0  0  0  0  0
    1.0667   -2.2292    0.0000 O   0  0  0  0  0  0  0  0  0  0  0  0
   -2.0000    0.4208    0.0000 O   0  0  0  0  0  0  0  0  0  0  0  0
   -2.0500    2.1833    0.0000 O   0  0  0  0  0  0  0  0  0  0  0  0
    1.8500    1.8000    0.0000 C   0  0  0  0  0  0  0  0  0  0  0  0
   -2.0833    3.0708    0.0000 C   0  0  0  0  0  0  0  0  0  0  0  0
   -2.7958    0.8625    0.0000 C   0  0  0  0  0  0  0  0  0  0  0  0
  2  1  2  0  0  0  0
  3  1  1  0  0  0  0
  4  2  1  0  0  0  0
  5  3  2  0  0  0  0
  6  5  1  0  0  0  0
  7  1  1  0  0  0  0
  8 12  1  0  0  0  0
  9  8  2  0  0  0  0
 10  7  2  0  0  0  0
 11  7  1  0  0  0  0
 12 11  1  0  0  0  0
 13  2  1  0  0  0  0
 14  8  1  0  0  0  0
 15  5  1  0  0  0  0
 16  6  1  0  0  0  0
 17 13  1  0  0  0  0
 18 16  1  0  0  0  0
 19 15  1  0  0  0  0
  6  4  2  0  0  0  0
M  END
> <IDNUMBER>
F0349-4092

> <Chemical_Name>
4-oxo-4-(2,4,5-trimethoxyphenyl)butanoic acid

> <CAS>
31914-19-9

> <PriceCoeff>
1.00

> <MW>
268.26

> <Description>
solid

> <FSP3>
0.38

> <clogP>
1.11

> <TPSA>
82.06

> <Acceptor>
6

> <Donor>
0

> <RotBonds>
7

> <HAC>
19

> <Collection>
General

> <Reference_compound>
CHEMBL3092474

> <Similarity>
0.8180

$$$$
F0440-0319
  -ISIS-  06222321142D

 21 23  0  0  0  0  0  0  0  0999 V2000
    0.0500   -0.9167    0.0000 C   0  0  0  0  0  0  0  0  0  0  0  0
    2.5792   -2.3792    0.0000 N   0  0  3  0  0  0  0  0  0  0  0  0
   -0.4500   -1.6000    0.0000 N   0  0  0  0  0  0  0  0  0  0  0  0
   -0.4500   -0.2167    0.0000 S   0  0  0  0  0  0  0  0  0  0  0  0
    0.8792   -0.9167    0.0000 N   0  0  0  0  0  0  0  0  0  0  0  0
    3.4000   -2.5542    0.0000 C   0  0  0  0  0  0  0  0  0  0  0  0
    2.1500   -3.1167    0.0000 C   0  0  0  0  0  0  0  0  0  0  0  0
   -1.2500   -0.4792    0.0000 C   0  0  0  0  0  0  0  0  0  0  0  0
   -1.2500   -1.3500    0.0000 C   0  0  0  0  0  0  0  0  0  0  0  0
    1.3000   -1.6542    0.0000 C   0  0  0  0  0  0  0  0  0  0  0  0
    2.1542   -1.6542    0.0000 C   0  0  0  0  0  0  0  0  0  0  0  0
   -1.9958   -0.0542    0.0000 C   0  0  0  0  0  0  0  0  0  0  0  0
    3.4792   -3.4000    0.0000 C   0  0  0  0  0  0  0  0  0  0  0  0
    2.7167   -3.7500    0.0000 C   0  0  0  0  0  0  0  0  0  0  0  0
    4.0542   -2.0167    0.0000 O   0  0  0  0  0  0  0  0  0  0  0  0
    1.3000   -3.2167    0.0000 O   0  0  0  0  0  0  0  0  0  0  0  0
    0.8792   -2.3792    0.0000 O   0  0  0  0  0  0  0  0  0  0  0  0
   -1.9958   -1.7542    0.0000 C   0  0  0  0  0  0  0  0  0  0  0  0
   -2.7333   -0.5000    0.0000 C   0  0  0  0  0  0  0  0  0  0  0  0
   -2.7333   -1.3167    0.0000 C   0  0  0  0  0  0  0  0  0  0  0  0
   -3.4958   -0.0792    0.0000 Br  0  0  0  0  0  0  0  0  0  0  0  0
  2 11  1  0  0  0  0
  3  1  2  0  0  0  0
  4  1  1  0  0  0  0
  5  1  1  0  0  0  0
  6  2  1  0  0  0  0
  7  2  1  0  0  0  0
  8  4  1  0  0  0  0
  9  3  1  0  0  0  0
 10  5  1  0  0  0  0
 11 10  1  0  0  0  0
 12  8  1  0  0  0  0
 13  6  1  0  0  0  0
 14  7  1  0  0  0  0
 15  6  2  0  0  0  0
 16  7  2  0  0  0  0
 17 10  2  0  0  0  0
 18  9  1  0  0  0  0
 19 12  2  0  0  0  0
 20 18  2  0  0  0  0
 21 19  1  0  0  0  0
  8  9  2  0  0  0  0
 19 20  1  0  0  0  0
 14 13  1  0  0  0  0
M  END
> <IDNUMBER>
F0440-0319

> <Chemical_Name>
N-(6-bromo-1,3-benzothiazol-2-yl)-2-(2,5-dioxopyrrolidin-1-yl)acetamide

> <CAS>
304003-68-7

> <PriceCoeff>
1.00

> <MW>
368.21

> <Description>
solid

> <FSP3>
0.23

> <clogP>
2.31

> <TPSA>
107.61

> <Acceptor>
4

> <Donor>
1

> <RotBonds>
3

> <HAC>
21

> <Collection>
General

$$$$
F0440-0338
  -ISIS-  06222321452D

 24 26  0  0  0  0  0  0  0  0999 V2000
    3.1542   -2.1042    0.0000 N   0  0  3  0  0  0  0  0  0  0  0  0
    0.8500   -3.4292    0.0000 C   0  0  0  0  0  0  0  0  0  0  0  0
    0.4167   -4.0500    0.0000 N   0  0  0  0  0  0  0  0  0  0  0  0
   -0.3125   -3.8292    0.0000 C   0  0  0  0  0  0  0  0  0  0  0  0
    1.6167   -3.4292    0.0000 N   0  0  0  0  0  0  0  0  0  0  0  0
    2.9167   -1.3667    0.0000 C   0  0  0  0  0  0  0  0  0  0  0  0
    3.9167   -2.1042    0.0000 C   0  0  0  0  0  0  0  0  0  0  0  0
   -0.9708   -4.2042    0.0000 C   0  0  0  0  0  0  0  0  0  0  0  0
    0.4000   -2.8042    0.0000 S   0  0  0  0  0  0  0  0  0  0  0  0
   -0.3125   -3.0500    0.0000 C   0  0  0  0  0  0  0  0  0  0  0  0
    2.0000   -2.7667    0.0000 C   0  0  0  0  0  0  0  0  0  0  0  0
    2.7792   -2.7667    0.0000 C   0  0  0  0  0  0  0  0  0  0  0  0
   -0.9708   -5.0000    0.0000 C   0  0  0  0  0  0  0  0  0  0  0  0
   -1.6333   -3.8292    0.0000 C   0  0  0  0  0  0  0  0  0  0  0  0
    3.5500   -0.9500    0.0000 C   0  0  0  0  0  0  0  0  0  0  0  0
    4.1542   -1.3667    0.0000 C   0  0  0  0  0  0  0  0  0  0  0  0
    2.1917   -1.1042    0.0000 O   0  0  0  0  0  0  0  0  0  0  0  0
    4.4000   -2.7292    0.0000 O   0  0  0  0  0  0  0  0  0  0  0  0
    1.6000   -2.1042    0.0000 O   0  0  0  0  0  0  0  0  0  0  0  0
   -1.6333   -5.3667    0.0000 C   0  0  0  0  0  0  0  0  0  0  0  0
   -2.2958   -4.2292    0.0000 C   0  0  0  0  0  0  0  0  0  0  0  0
   -2.2958   -4.9667    0.0000 C   0  0  0  0  0  0  0  0  0  0  0  0
   -0.3125   -5.4000    0.0000 C   0  0  0  0  0  0  0  0  0  0  0  0
   -2.9708   -3.8500    0.0000 C   0  0  0  0  0  0  0  0  0  0  0  0
  2  5  1  0  0  0  0
  3  2  2  0  0  0  0
  4  3  1  0  0  0  0
  5 11  1  0  0  0  0
  6  1  1  0  0  0  0
  7  1  1  0  0  0  0
  8  4  1  0  0  0  0
  9  2  1  0  0  0  0
 10  9  1  0  0  0  0
 11 12  1  0  0  0  0
 12  1  1  0  0  0  0
 13  8  1  0  0  0  0
 14  8  2  0  0  0  0
 15  6  1  0  0  0  0
 16  7  1  0  0  0  0
 17  6  2  0  0  0  0
 18  7  2  0  0  0  0
 19 11  2  0  0  0  0
 20 13  2  0  0  0  0
 21 14  1  0  0  0  0
 22 21  2  0  0  0  0
 23 13  1  0  0  0  0
 24 21  1  0  0  0  0
 16 15  1  0  0  0  0
 10  4  2  0  0  0  0
 20 22  1  0  0  0  0
M  END
> <IDNUMBER>
F0440-0338

> <Chemical_Name>
N-[4-(2,5-dimethylphenyl)-1,3-thiazol-2-yl]-2-(2,5-dioxopyrrolidin-1-yl)acetamide

> <CAS>
441289-44-7

> <PriceCoeff>
1.00

> <MW>
343.40

> <Description>
solid

> <FSP3>
0.29

> <clogP>
2.64

> <TPSA>
107.61

> <Acceptor>
4

> <Donor>
1

> <RotBonds>
4

> <HAC>
24

> <Collection>
General

$$$$
F0440-0347
  -ISIS-  06222321142D

 23 25  0  0  0  0  0  0  0  0999 V2000
    1.8000   -1.9667    0.0000 N   0  0  3  0  0  0  0  0  0  0  0  0
   -0.3833   -3.2292    0.0000 C   0  0  0  0  0  0  0  0  0  0  0  0
   -0.7833   -3.8292    0.0000 N   0  0  0  0  0  0  0  0  0  0  0  0
   -1.4833   -3.6042    0.0000 C   0  0  0  0  0  0  0  0  0  0  0  0
    0.3500   -3.2292    0.0000 N   0  0  0  0  0  0  0  0  0  0  0  0
    1.5667   -1.2667    0.0000 C   0  0  0  0  0  0  0  0  0  0  0  0
    2.5292   -1.9667    0.0000 C   0  0  0  0  0  0  0  0  0  0  0  0
   -0.7833   -2.6500    0.0000 S   0  0  0  0  0  0  0  0  0  0  0  0
    0.7042   -2.6000    0.0000 C   0  0  0  0  0  0  0  0  0  0  0  0
   -1.4833   -2.8667    0.0000 C   0  0  0  0  0  0  0  0  0  0  0  0
    1.4292   -2.6000    0.0000 C   0  0  0  0  0  0  0  0  0  0  0  0
   -2.1208   -3.9667    0.0000 C   0  0  0  0  0  0  0  0  0  0  0  0
    2.1667   -0.8667    0.0000 C   0  0  0  0  0  0  0  0  0  0  0  0
    2.7500   -1.2667    0.0000 C   0  0  0  0  0  0  0  0  0  0  0  0
    0.9000   -1.0292    0.0000 O   0  0  0  0  0  0  0  0  0  0  0  0
    2.9667   -2.5500    0.0000 O   0  0  0  0  0  0  0  0  0  0  0  0
    0.3292   -1.9500    0.0000 O   0  0  0  0  0  0  0  0  0  0  0  0
   -2.7625   -3.6042    0.0000 C   0  0  0  0  0  0  0  0  0  0  0  0
   -2.1208   -4.7042    0.0000 C   0  0  0  0  0  0  0  0  0  0  0  0
   -3.4000   -4.7042    0.0000 C   0  0  0  0  0  0  0  0  0  0  0  0
   -3.4000   -4.0000    0.0000 C   0  0  0  0  0  0  0  0  0  0  0  0
   -2.7625   -5.0667    0.0000 C   0  0  0  0  0  0  0  0  0  0  0  0
   -4.0458   -5.1000    0.0000 F   0  0  0  0  0  0  0  0  0  0  0  0
  2  5  1  0  0  0  0
  3  2  2  0  0  0  0
  4  3  1  0  0  0  0
  5  9  1  0  0  0  0
  6  1  1  0  0  0  0
  7  1  1  0  0  0  0
  8  2  1  0  0  0  0
  9 11  1  0  0  0  0
 10  8  1  0  0  0  0
 11  1  1  0  0  0  0
 12  4  1  0  0  0  0
 13  6  1  0  0  0  0
 14  7  1  0  0  0  0
 15  6  2  0  0  0  0
 16  7  2  0  0  0  0
 17  9  2  0  0  0  0
 18 12  2  0  0  0  0
 19 12  1  0  0  0  0
 20 22  1  0  0  0  0
 21 18  1  0  0  0  0
 22 19  2  0  0  0  0
 23 20  1  0  0  0  0
 14 13  1  0  0  0  0
  4 10  2  0  0  0  0
 20 21  2  0  0  0  0
M  END
> <IDNUMBER>
F0440-0347

> <Chemical_Name>
2-(2,5-dioxopyrrolidin-1-yl)-N-[4-(4-fluorophenyl)-1,3-thiazol-2-yl]acetamide

> <CAS>
361167-75-1

> <PriceCoeff>
1.00

> <MW>
333.34

> <Description>
solid

> <FSP3>
0.20

> <clogP>
2.10

> <TPSA>
107.61

> <Acceptor>
4

> <Donor>
1

> <RotBonds>
4

> <HAC>
23

> <Collection>
General

$$$$
F0440-0337
  -ISIS-  06222321442D

 24 26  0  0  0  0  0  0  0  0999 V2000
    2.6500    1.8125    0.0000 N   0  0  3  0  0  0  0  0  0  0  0  0
    0.3042    0.4958    0.0000 C   0  0  0  0  0  0  0  0  0  0  0  0
   -0.1208   -0.1500    0.0000 N   0  0  0  0  0  0  0  0  0  0  0  0
   -0.8625    0.1125    0.0000 C   0  0  0  0  0  0  0  0  0  0  0  0
    1.1000    0.5125    0.0000 N   0  0  0  0  0  0  0  0  0  0  0  0
    2.4292    2.5500    0.0000 C   0  0  0  0  0  0  0  0  0  0  0  0
    3.4292    1.7958    0.0000 C   0  0  0  0  0  0  0  0  0  0  0  0
   -0.1000    1.1125    0.0000 S   0  0  0  0  0  0  0  0  0  0  0  0
   -1.5625   -0.2542    0.0000 C   0  0  0  0  0  0  0  0  0  0  0  0
   -0.8458    0.8958    0.0000 C   0  0  0  0  0  0  0  0  0  0  0  0
    1.5000    1.1708    0.0000 C   0  0  0  0  0  0  0  0  0  0  0  0
    2.2500    1.1500    0.0000 C   0  0  0  0  0  0  0  0  0  0  0  0
   -1.5625   -1.0500    0.0000 C   0  0  0  0  0  0  0  0  0  0  0  0
   -2.2208    0.1125    0.0000 C   0  0  0  0  0  0  0  0  0  0  0  0
    3.0500    2.9958    0.0000 C   0  0  0  0  0  0  0  0  0  0  0  0
    3.7000    2.5333    0.0000 C   0  0  0  0  0  0  0  0  0  0  0  0
   -2.2208   -1.4500    0.0000 C   0  0  0  0  0  0  0  0  0  0  0  0
    1.7000    2.8333    0.0000 O   0  0  0  0  0  0  0  0  0  0  0  0
    3.9000    1.1500    0.0000 O   0  0  0  0  0  0  0  0  0  0  0  0
    1.1042    1.8500    0.0000 O   0  0  0  0  0  0  0  0  0  0  0  0
   -2.9000   -0.2542    0.0000 C   0  0  0  0  0  0  0  0  0  0  0  0
   -2.9000   -1.0542    0.0000 C   0  0  0  0  0  0  0  0  0  0  0  0
   -0.8833   -1.4542    0.0000 C   0  0  0  0  0  0  0  0  0  0  0  0
   -3.5833   -1.4792    0.0000 C   0  0  0  0  0  0  0  0  0  0  0  0
  2  5  1  0  0  0  0
  3  2  2  0  0  0  0
  4  3  1  0  0  0  0
  5 11  1  0  0  0  0
  6  1  1  0  0  0  0
  7  1  1  0  0  0  0
  8  2  1  0  0  0  0
  9  4  1  0  0  0  0
 10  8  1  0  0  0  0
 11 12  1  0  0  0  0
 12  1  1  0  0  0  0
 13  9  1  0  0  0  0
 14  9  2  0  0  0  0
 15  6  1  0  0  0  0
 16  7  1  0  0  0  0
 17 13  2  0  0  0  0
 18  6  2  0  0  0  0
 19  7  2  0  0  0  0
 20 11  2  0  0  0  0
 21 14  1  0  0  0  0
 22 21  2  0  0  0  0
 23 13  1  0  0  0  0
 24 22  1  0  0  0  0
 16 15  1  0  0  0  0
  4 10  2  0  0  0  0
 22 17  1  0  0  0  0
M  END
> <IDNUMBER>
F0440-0337

> <Chemical_Name>
N-[4-(2,4-dimethylphenyl)-1,3-thiazol-2-yl]-2-(2,5-dioxopyrrolidin-1-yl)acetamide

> <CAS>
392324-57-1

> <PriceCoeff>
1.00

> <MW>
343.40

> <Description>
solid

> <FSP3>
0.29

> <clogP>
2.64

> <TPSA>
107.61

> <Acceptor>
4

> <Donor>
1

> <RotBonds>
4

> <HAC>
24

> <Collection>
General

$$$$
F6443-5308
  -ISIS-  06222321442D

 26 29  0  0  0  0  0  0  0  0999 V2000
   -1.7250    4.2042    0.0000 C   0  0  3  0  0  0  0  0  0  0  0  0
   -0.4125    4.4042    0.0000 C   0  0  0  0  0  0  0  0  0  0  0  0
   -3.8708    3.8000    0.0000 C   0  0  0  0  0  0  0  0  0  0  0  0
   -1.1458    4.7792    0.0000 O   0  0  0  0  0  0  0  0  0  0  0  0
   -3.1583    4.2042    0.0000 N   0  0  3  0  0  0  0  0  0  0  0  0
   -1.3583    3.4833    0.0000 C   0  0  0  0  0  0  0  0  0  0  0  0
   -0.5458    3.6083    0.0000 C   0  0  0  0  0  0  0  0  0  0  0  0
   -2.4458    3.8000    0.0000 C   0  0  0  0  0  0  0  0  0  0  0  0
   -4.5833    4.2042    0.0000 N   0  0  0  0  0  0  0  0  0  0  0  0
   -6.7000    3.8125    0.0000 C   0  0  0  0  0  0  0  0  0  0  0  0
   -6.0000    4.2125    0.0000 C   0  0  0  0  0  0  0  0  0  0  0  0
   -5.2833    3.8083    0.0000 C   0  0  0  0  0  0  0  0  0  0  0  0
   -3.8708    2.9833    0.0000 O   0  0  0  0  0  0  0  0  0  0  0  0
    0.3292    4.7792    0.0000 O   0  0  0  0  0  0  0  0  0  0  0  0
   -6.7042    2.9875    0.0000 C   0  0  0  0  0  0  0  0  0  0  0  0
   -6.0042    2.5708    0.0000 C   0  0  0  0  0  0  0  0  0  0  0  0
   -7.4042    4.2167    0.0000 Cl  0  0  0  0  0  0  0  0  0  0  0  0
   -1.7333    5.0292    0.0000 C   0  0  0  0  0  0  0  0  0  0  0  0
   -5.2833    2.9833    0.0000 C   0  0  0  0  0  0  0  0  0  0  0  0
   -7.4167    2.5833    0.0000 Cl  0  0  0  0  0  0  0  0  0  0  0  0
   -3.1583    5.0292    0.0000 C   0  0  0  0  0  0  0  0  0  0  0  0
   -1.6583    2.7208    0.0000 C   0  0  0  0  0  0  0  0  0  0  0  0
   -0.0250    2.9708    0.0000 C   0  0  0  0  0  0  0  0  0  0  0  0
   -2.4375    5.4417    0.0000 C   0  0  0  0  0  0  0  0  0  0  0  0
   -1.1333    2.0708    0.0000 C   0  0  0  0  0  0  0  0  0  0  0  0
   -0.3250    2.1958    0.0000 C   0  0  0  0  0  0  0  0  0  0  0  0
  2  4  1  0  0  0  0
  3  5  1  0  0  0  0
  4  1  1  0  0  0  0
  5  8  1  0  0  0  0
  6  1  1  0  0  0  0
  7  6  1  0  0  0  0
  8  1  1  0  0  0  0
  9  3  1  0  0  0  0
 10 11  1  0  0  0  0
 11 12  2  0  0  0  0
 12  9  1  0  0  0  0
 13  3  2  0  0  0  0
 14  2  2  0  0  0  0
 15 16  1  0  0  0  0
 16 19  2  0  0  0  0
 17 10  1  0  0  0  0
 18  1  1  0  0  0  0
 19 12  1  0  0  0  0
 20 15  1  0  0  0  0
 21 24  1  0  0  0  0
 22  6  2  0  0  0  0
 23  7  2  0  0  0  0
 24 18  1  0  0  0  0
 25 22  1  0  0  0  0
 26 25  2  0  0  0  0
  2  7  1  0  0  0  0
  5 21  1  0  0  0  0
 23 26  1  0  0  0  0
 15 10  2  0  0  0  0
M  END
> <IDNUMBER>
F6443-5308

> <Chemical_Name>
N-(3,4-dichlorophenyl)-3-oxo-3H-spiro[2-benzofuran-1,3'-piperidine]-1'-carboxamide

> <CAS>
1797319-37-9

> <PriceCoeff>
1.00

> <MW>
391.25

> <Description>
solid

> <FSP3>
0.26

> <clogP>
3.46

> <TPSA>
58.64

> <Acceptor>
3

> <Donor>
1

> <RotBonds>
2

> <HAC>
26

> <Collection>
General

$$$$
F0608-0631
  -ISIS-  06222321142D

 26 29  0  0  0  0  0  0  0  0999 V2000
   -1.9500    0.5833    0.0000 N   0  0  3  0  0  0  0  0  0  0  0  0
   -2.4583    3.0208    0.0000 C   0  0  0  0  0  0  0  0  0  0  0  0
   -3.1250    2.5333    0.0000 O   0  0  0  0  0  0  0  0  0  0  0  0
   -3.7958    3.0208    0.0000 C   0  0  0  0  0  0  0  0  0  0  0  0
   -3.5375    3.8000    0.0000 N   0  0  0  0  0  0  0  0  0  0  0  0
   -2.7125    3.8000    0.0000 N   0  0  0  0  0  0  0  0  0  0  0  0
   -1.6750    2.7583    0.0000 N   0  0  0  0  0  0  0  0  0  0  0  0
   -2.5083   -0.0250    0.0000 C   0  0  0  0  0  0  0  0  0  0  0  0
   -1.1958    0.2583    0.0000 C   0  0  0  0  0  0  0  0  0  0  0  0
   -1.5083    1.9583    0.0000 C   0  0  0  0  0  0  0  0  0  0  0  0
   -4.5833    2.7583    0.0000 C   0  0  0  0  0  0  0  0  0  0  0  0
   -2.1250    1.3875    0.0000 C   0  0  0  0  0  0  0  0  0  0  0  0
   -5.1958    3.3083    0.0000 C   0  0  0  0  0  0  0  0  0  0  0  0
   -5.9708    3.0500    0.0000 C   0  0  0  0  0  0  0  0  0  0  0  0
   -1.2833   -0.5667    0.0000 C   0  0  0  0  0  0  0  0  0  0  0  0
   -2.0833   -0.7417    0.0000 C   0  0  0  0  0  0  0  0  0  0  0  0
   -6.1292    2.2458    0.0000 C   0  0  0  0  0  0  0  0  0  0  0  0
   -0.4833    0.6625    0.0000 O   0  0  0  0  0  0  0  0  0  0  0  0
   -3.3208    0.0583    0.0000 O   0  0  0  0  0  0  0  0  0  0  0  0
   -0.7250    1.6958    0.0000 O   0  0  0  0  0  0  0  0  0  0  0  0
   -4.7583    1.9458    0.0000 C   0  0  0  0  0  0  0  0  0  0  0  0
   -5.5375    1.6958    0.0000 C   0  0  0  0  0  0  0  0  0  0  0  0
   -6.5792    3.6083    0.0000 C   0  0  0  0  0  0  0  0  0  0  0  0
   -6.9292    1.9875    0.0000 C   0  0  0  0  0  0  0  0  0  0  0  0
   -7.3542    3.3583    0.0000 C   0  0  0  0  0  0  0  0  0  0  0  0
   -7.5292    2.5500    0.0000 C   0  0  0  0  0  0  0  0  0  0  0  0
  2  7  1  0  0  0  0
  3  2  1  0  0  0  0
  4  3  1  0  0  0  0
  5  6  1  0  0  0  0
  6  2  2  0  0  0  0
  7 10  1  0  0  0  0
  8  1  1  0  0  0  0
  9  1  1  0  0  0  0
 10 12  1  0  0  0  0
 11  4  1  0  0  0  0
 12  1  1  0  0  0  0
 13 11  2  0  0  0  0
 14 13  1  0  0  0  0
 15  9  1  0  0  0  0
 16  8  1  0  0  0  0
 17 22  1  0  0  0  0
 18  9  2  0  0  0  0
 19  8  2  0  0  0  0
 20 10  2  0  0  0  0
 21 11  1  0  0  0  0
 22 21  2  0  0  0  0
 23 14  1  0  0  0  0
 24 17  1  0  0  0  0
 25 23  1  0  0  0  0
 26 24  1  0  0  0  0
 15 16  1  0  0  0  0
  5  4  2  0  0  0  0
 17 14  2  0  0  0  0
 25 26  1  0  0  0  0
M  END
> <IDNUMBER>
F0608-0631

> <Chemical_Name>
2-(2,5-dioxopyrrolidin-1-yl)-N-[5-(5,6,7,8-tetrahydronaphthalen-2-yl)-1,3,4-oxadiazol-2-yl]acetamide

> <CAS>
887222-78-8

> <PriceCoeff>
1.00

> <MW>
354.36

> <Description>
solid

> <FSP3>
0.39

> <clogP>
1.98

> <TPSA>
105.40

> <Acceptor>
6

> <Donor>
1

> <RotBonds>
4

> <HAC>
26

> <Collection>
General

$$$$
F5889-0027
  -ISIS-  06222321462D

 21 23  0  0  0  0  0  0  0  0999 V2000
   -2.0833    0.8208    0.0000 C   0  0  0  0  0  0  0  0  0  0  0  0
   -1.3375    0.4833    0.0000 C   0  0  0  0  0  0  0  0  0  0  0  0
   -2.2375    1.6333    0.0000 C   0  0  0  0  0  0  0  0  0  0  0  0
   -2.6458    0.2000    0.0000 C   0  0  0  0  0  0  0  0  0  0  0  0
   -1.4208   -0.3375    0.0000 N   0  0  0  0  0  0  0  0  0  0  0  0
   -3.9375    2.9958    0.0000 C   0  0  0  0  0  0  0  0  0  0  0  0
   -4.0833    3.8000    0.0000 N   0  0  3  0  0  0  0  0  0  0  0  0
   -3.0125    1.9083    0.0000 N   0  0  0  0  0  0  0  0  0  0  0  0
   -2.2333   -0.5125    0.0000 C   0  0  0  0  0  0  0  0  0  0  0  0
   -3.1625    2.7208    0.0000 C   0  0  0  0  0  0  0  0  0  0  0  0
   -1.6125    2.1708    0.0000 O   0  0  0  0  0  0  0  0  0  0  0  0
   -4.5625    2.4583    0.0000 O   0  0  0  0  0  0  0  0  0  0  0  0
   -4.3833    5.4167    0.0000 O   0  0  0  0  0  0  0  0  0  0  0  0
   -3.4500    4.3250    0.0000 C   0  0  0  0  0  0  0  0  0  0  0  0
   -4.8583    4.0667    0.0000 C   0  0  0  0  0  0  0  0  0  0  0  0
   -3.4708    0.2000    0.0000 C   0  0  0  0  0  0  0  0  0  0  0  0
   -3.6000    5.1375    0.0000 C   0  0  0  0  0  0  0  0  0  0  0  0
   -5.0083    4.8792    0.0000 C   0  0  0  0  0  0  0  0  0  0  0  0
   -2.6458   -1.2292    0.0000 C   0  0  0  0  0  0  0  0  0  0  0  0
   -3.8833   -0.5125    0.0000 C   0  0  0  0  0  0  0  0  0  0  0  0
   -3.4708   -1.2292    0.0000 C   0  0  0  0  0  0  0  0  0  0  0  0
  2  1  2  0  0  0  0
  3  1  1  0  0  0  0
  4  1  1  0  0  0  0
  5  2  1  0  0  0  0
  6 10  1  0  0  0  0
  7  6  1  0  0  0  0
  8  3  1  0  0  0  0
  9  4  2  0  0  0  0
 10  8  1  0  0  0  0
 11  3  2  0  0  0  0
 12  6  2  0  0  0  0
 13 18  1  0  0  0  0
 14  7  1  0  0  0  0
 15  7  1  0  0  0  0
 16  4  1  0  0  0  0
 17 14  1  0  0  0  0
 18 15  1  0  0  0  0
 19  9  1  0  0  0  0
 20 16  2  0  0  0  0
 21 20  1  0  0  0  0
  5  9  1  0  0  0  0
 21 19  2  0  0  0  0
 17 13  1  0  0  0  0
M  END
> <IDNUMBER>
F5889-0027

> <Chemical_Name>
N-[2-(morpholin-4-yl)-2-oxoethyl]-1H-indole-3-carboxamide

> <CAS>
1251576-35-8

> <PriceCoeff>
1.50

> <MW>
287.31

> <Description>
solid

> <FSP3>
0.33

> <clogP>
0.80

> <TPSA>
74.43

> <Acceptor>
3

> <Donor>
2

> <RotBonds>
4

> <HAC>
21

> <Collection>
Advanced

> <Reference_compound>
CHEMBL443132

> <Similarity>
0.8020

$$$$
F6369-0505
  -ISIS-  06222321462D

 28 31  0  0  0  0  0  0  0  0999 V2000
    6.7875    0.2000    0.0000 C   0  0  0  0  0  0  0  0  0  0  0  0
    7.7667    0.3625    0.0000 N   0  0  0  0  0  0  0  0  0  0  0  0
    2.1792    1.1333    0.0000 N   0  0  3  0  0  0  0  0  0  0  0  0
    8.2292   -0.5375    0.0000 C   0  0  0  0  0  0  0  0  0  0  0  0
    6.0792    0.9083    0.0000 N   0  0  3  0  0  0  0  0  0  0  0  0
    9.1917   -0.8000    0.0000 C   0  0  0  0  0  0  0  0  0  0  0  0
    6.6250   -0.7792    0.0000 S   0  0  0  0  0  0  0  0  0  0  0  0
    9.9042   -0.0917    0.0000 C   0  0  3  0  0  0  0  0  0  0  0  0
    1.8167    0.1875    0.0000 C   0  0  0  0  0  0  0  0  0  0  0  0
    1.4000    1.7583    0.0000 C   0  0  0  0  0  0  0  0  0  0  0  0
    7.5250   -1.2417    0.0000 C   0  0  0  0  0  0  0  0  0  0  0  0
    5.0792    1.9083    0.0000 C   0  0  3  0  0  0  0  0  0  0  0  0
    3.4042    2.3583    0.0000 C   0  0  0  0  0  0  0  0  0  0  0  0
    3.1417    1.3875    0.0000 C   0  0  0  0  0  0  0  0  0  0  0  0
    5.0792    0.9083    0.0000 C   0  0  0  0  0  0  0  0  0  0  0  0
    6.0792    1.9083    0.0000 C   0  0  0  0  0  0  0  0  0  0  0  0
    4.3750    2.6125    0.0000 O   0  0  0  0  0  0  0  0  0  0  0  0
    0.5542    1.2083    0.0000 C   0  0  0  0  0  0  0  0  0  0  0  0
    0.8167    0.2458    0.0000 C   0  0  0  0  0  0  0  0  0  0  0  0
    1.4542    2.7583    0.0000 O   0  0  0  0  0  0  0  0  0  0  0  0
    2.3542   -0.6542    0.0000 O   0  0  0  0  0  0  0  0  0  0  0  0
    2.7000    3.0583    0.0000 O   0  0  0  0  0  0  0  0  0  0  0  0
   10.6167    0.6083    0.0000 F   0  0  0  0  0  0  0  0  0  0  0  0
   10.6125   -0.8042    0.0000 F   0  0  0  0  0  0  0  0  0  0  0  0
    9.2000    0.6125    0.0000 F   0  0  0  0  0  0  0  0  0  0  0  0
    9.4542   -1.7667    0.0000 C   0  0  0  0  0  0  0  0  0  0  0  0
    7.7792   -2.2042    0.0000 C   0  0  0  0  0  0  0  0  0  0  0  0
    8.7417   -2.4667    0.0000 C   0  0  0  0  0  0  0  0  0  0  0  0
  2  1  2  0  0  0  0
  3 14  1  0  0  0  0
  4  2  1  0  0  0  0
  5  1  1  0  0  0  0
  6  4  2  0  0  0  0
  7  1  1  0  0  0  0
  8  6  1  0  0  0  0
  9  3  1  0  0  0  0
 10  3  1  0  0  0  0
 11  7  1  0  0  0  0
 12 16  1  0  0  0  0
 13 17  1  0  0  0  0
 14 13  1  0  0  0  0
 15  5  1  0  0  0  0
 16  5  1  0  0  0  0
 17 12  1  0  0  0  0
 18 10  1  0  0  0  0
 19  9  1  0  0  0  0
 20 10  2  0  0  0  0
 21  9  2  0  0  0  0
 22 13  2  0  0  0  0
 23  8  1  0  0  0  0
 24  8  1  0  0  0  0
 25  8  1  0  0  0  0
 26  6  1  0  0  0  0
 27 11  2  0  0  0  0
 28 27  1  0  0  0  0
 11  4  1  0  0  0  0
 15 12  1  0  0  0  0
 28 26  2  0  0  0  0
 19 18  1  0  0  0  0
M  END
> <IDNUMBER>
F6369-0505

> <Chemical_Name>
1-[4-(trifluoromethyl)-1,3-benzothiazol-2-yl]azetidin-3-yl 2-(2,5-dioxopyrrolidin-1-yl)acetate

> <CAS>
1396717-88-6

> <PriceCoeff>
1.50

> <MW>
413.37

> <Description>
solid

> <FSP3>
0.41

> <clogP>
3.03

> <TPSA>
108.05

> <Acceptor>
5

> <Donor>
1

> <RotBonds>
5

> <HAC>
28

> <Collection>
Advanced

$$$$
F0440-0339
  -ISIS-  06222321142D

 24 26  0  0  0  0  0  0  0  0999 V2000
    2.3792   -2.4167    0.0000 N   0  0  3  0  0  0  0  0  0  0  0  0
    0.0542   -3.7500    0.0000 C   0  0  0  0  0  0  0  0  0  0  0  0
   -0.3500   -4.3542    0.0000 N   0  0  0  0  0  0  0  0  0  0  0  0
   -1.0958   -4.1500    0.0000 C   0  0  0  0  0  0  0  0  0  0  0  0
    0.8500   -3.7500    0.0000 N   0  0  0  0  0  0  0  0  0  0  0  0
    2.1500   -1.6792    0.0000 C   0  0  0  0  0  0  0  0  0  0  0  0
    3.1500   -2.4167    0.0000 C   0  0  0  0  0  0  0  0  0  0  0  0
   -0.3708   -3.1167    0.0000 S   0  0  0  0  0  0  0  0  0  0  0  0
    1.2167   -3.0792    0.0000 C   0  0  0  0  0  0  0  0  0  0  0  0
   -1.0958   -3.3542    0.0000 C   0  0  0  0  0  0  0  0  0  0  0  0
   -1.7500   -4.5167    0.0000 C   0  0  0  0  0  0  0  0  0  0  0  0
    2.0000   -3.0792    0.0000 C   0  0  0  0  0  0  0  0  0  0  0  0
   -1.7500   -5.3000    0.0000 C   0  0  0  0  0  0  0  0  0  0  0  0
   -2.4125   -5.6792    0.0000 C   0  0  0  0  0  0  0  0  0  0  0  0
    2.7542   -1.2542    0.0000 C   0  0  0  0  0  0  0  0  0  0  0  0
    3.3792   -1.6792    0.0000 C   0  0  0  0  0  0  0  0  0  0  0  0
    1.4167   -1.4167    0.0000 O   0  0  0  0  0  0  0  0  0  0  0  0
    3.6167   -3.0500    0.0000 O   0  0  0  0  0  0  0  0  0  0  0  0
   -3.0708   -5.3167    0.0000 C   0  0  0  0  0  0  0  0  0  0  0  0
    0.8167   -2.4167    0.0000 O   0  0  0  0  0  0  0  0  0  0  0  0
   -2.4125   -4.1500    0.0000 C   0  0  0  0  0  0  0  0  0  0  0  0
   -3.0708   -4.5500    0.0000 C   0  0  0  0  0  0  0  0  0  0  0  0
   -2.4333   -6.4500    0.0000 C   0  0  0  0  0  0  0  0  0  0  0  0
   -3.7333   -5.7500    0.0000 C   0  0  0  0  0  0  0  0  0  0  0  0
  2  5  1  0  0  0  0
  3  2  2  0  0  0  0
  4  3  1  0  0  0  0
  5  9  1  0  0  0  0
  6  1  1  0  0  0  0
  7  1  1  0  0  0  0
  8  2  1  0  0  0  0
  9 12  1  0  0  0  0
 10  8  1  0  0  0  0
 11  4  1  0  0  0  0
 12  1  1  0  0  0  0
 13 11  1  0  0  0  0
 14 13  2  0  0  0  0
 15  6  1  0  0  0  0
 16  7  1  0  0  0  0
 17  6  2  0  0  0  0
 18  7  2  0  0  0  0
 19 22  2  0  0  0  0
 20  9  2  0  0  0  0
 21 11  2  0  0  0  0
 22 21  1  0  0  0  0
 23 14  1  0  0  0  0
 24 19  1  0  0  0  0
 16 15  1  0  0  0  0
  4 10  2  0  0  0  0
 19 14  1  0  0  0  0
M  END
> <IDNUMBER>
F0440-0339

> <Chemical_Name>
N-[4-(3,4-dimethylphenyl)-1,3-thiazol-2-yl]-2-(2,5-dioxopyrrolidin-1-yl)acetamide

> <CAS>
361167-72-8

> <PriceCoeff>
1.00

> <MW>
343.40

> <Description>
solid

> <FSP3>
0.29

> <clogP>
2.89

> <TPSA>
107.61

> <Acceptor>
4

> <Donor>
1

> <RotBonds>
4

> <HAC>
24

> <Collection>
General

$$$$
F2518-0396
  -ISIS-  06222321142D

 24 26  0  0  0  0  0  0  0  0999 V2000
   -5.3083    3.8000    0.0000 N   0  0  3  0  0  0  0  0  0  0  0  0
   -3.5750    6.2917    0.0000 C   0  0  0  0  0  0  0  0  0  0  0  0
   -3.8250    5.5167    0.0000 O   0  0  0  0  0  0  0  0  0  0  0  0
   -3.1583    5.0292    0.0000 C   0  0  0  0  0  0  0  0  0  0  0  0
   -2.7458    6.2917    0.0000 N   0  0  0  0  0  0  0  0  0  0  0  0
   -2.4833    5.5042    0.0000 N   0  0  0  0  0  0  0  0  0  0  0  0
   -3.1583    4.2042    0.0000 N   0  0  0  0  0  0  0  0  0  0  0  0
   -6.0417    4.1292    0.0000 C   0  0  0  0  0  0  0  0  0  0  0  0
   -5.3833    2.9833    0.0000 C   0  0  0  0  0  0  0  0  0  0  0  0
   -4.0583    6.9542    0.0000 C   0  0  0  0  0  0  0  0  0  0  0  0
   -3.8708    3.8000    0.0000 C   0  0  0  0  0  0  0  0  0  0  0  0
   -4.5958    4.2125    0.0000 C   0  0  0  0  0  0  0  0  0  0  0  0
   -3.7125    7.7042    0.0000 C   0  0  0  0  0  0  0  0  0  0  0  0
   -4.8583    6.8667    0.0000 C   0  0  0  0  0  0  0  0  0  0  0  0
   -6.1792    2.8083    0.0000 C   0  0  0  0  0  0  0  0  0  0  0  0
   -6.5917    3.5208    0.0000 C   0  0  0  0  0  0  0  0  0  0  0  0
   -4.7833    2.4333    0.0000 O   0  0  0  0  0  0  0  0  0  0  0  0
   -6.2167    4.9375    0.0000 O   0  0  0  0  0  0  0  0  0  0  0  0
   -3.8708    2.9833    0.0000 O   0  0  0  0  0  0  0  0  0  0  0  0
   -4.1958    8.3750    0.0000 C   0  0  0  0  0  0  0  0  0  0  0  0
   -5.3500    7.5292    0.0000 C   0  0  0  0  0  0  0  0  0  0  0  0
   -5.0208    8.2875    0.0000 C   0  0  0  0  0  0  0  0  0  0  0  0
   -2.9000    7.7917    0.0000 C   0  0  0  0  0  0  0  0  0  0  0  0
   -6.1542    7.4375    0.0000 C   0  0  0  0  0  0  0  0  0  0  0  0
  2  3  1  0  0  0  0
  3  4  1  0  0  0  0
  4  7  1  0  0  0  0
  5  6  1  0  0  0  0
  6  4  2  0  0  0  0
  7 11  1  0  0  0  0
  8  1  1  0  0  0  0
  9  1  1  0  0  0  0
 10  2  1  0  0  0  0
 11 12  1  0  0  0  0
 12  1  1  0  0  0  0
 13 10  2  0  0  0  0
 14 10  1  0  0  0  0
 15  9  1  0  0  0  0
 16  8  1  0  0  0  0
 17  9  2  0  0  0  0
 18  8  2  0  0  0  0
 19 11  2  0  0  0  0
 20 13  1  0  0  0  0
 21 14  2  0  0  0  0
 22 21  1  0  0  0  0
 23 13  1  0  0  0  0
 24 21  1  0  0  0  0
 16 15  1  0  0  0  0
  5  2  2  0  0  0  0
 20 22  2  0  0  0  0
M  END
> <IDNUMBER>
F2518-0396

> <Chemical_Name>
N-[5-(2,5-dimethylphenyl)-1,3,4-oxadiazol-2-yl]-2-(2,5-dioxopyrrolidin-1-yl)acetamide

> <CAS>
891124-17-7

> <PriceCoeff>
1.00

> <MW>
328.32

> <Description>
solid

> <FSP3>
0.31

> <clogP>
1.10

> <TPSA>
105.40

> <Acceptor>
6

> <Donor>
1

> <RotBonds>
4

> <HAC>
24

> <Collection>
General

$$$$
F3385-0894
  -ISIS-  06222321152D

 23 25  0  0  0  0  0  0  0  0999 V2000
    1.8625   -1.3542    0.0000 C   0  0  0  0  0  0  0  0  0  0  0  0
    1.1417   -1.7667    0.0000 C   0  0  0  0  0  0  0  0  0  0  0  0
    0.4292   -1.3542    0.0000 C   0  0  0  0  0  0  0  0  0  0  0  0
    1.8625   -0.5292    0.0000 C   0  0  0  0  0  0  0  0  0  0  0  0
    0.4292   -0.5292    0.0000 C   0  0  0  0  0  0  0  0  0  0  0  0
    2.5750   -1.7750    0.0000 C   0  0  0  0  0  0  0  0  0  0  0  0
    1.1417   -0.1167    0.0000 O   0  0  0  0  0  0  0  0  0  0  0  0
    3.2917   -1.3542    0.0000 C   0  0  0  0  0  0  0  0  0  0  0  0
   -0.2833   -1.7667    0.0000 C   0  0  0  0  0  0  0  0  0  0  0  0
   -0.2833   -0.1167    0.0000 C   0  0  0  0  0  0  0  0  0  0  0  0
    4.0042   -1.7667    0.0000 C   0  0  0  0  0  0  0  0  0  0  0  0
    1.1417   -2.5917    0.0000 O   0  0  0  0  0  0  0  0  0  0  0  0
    4.0042   -2.6000    0.0000 C   0  0  0  0  0  0  0  0  0  0  0  0
    2.5750   -2.6000    0.0000 C   0  0  0  0  0  0  0  0  0  0  0  0
    3.2875   -3.0125    0.0000 C   0  0  0  0  0  0  0  0  0  0  0  0
   -1.0000   -0.5292    0.0000 C   0  0  0  0  0  0  0  0  0  0  0  0
   -0.9958   -1.3542    0.0000 C   0  0  0  0  0  0  0  0  0  0  0  0
    4.7250   -1.3542    0.0000 O   0  0  0  0  0  0  0  0  0  0  0  0
    4.7292   -3.0167    0.0000 O   0  0  0  0  0  0  0  0  0  0  0  0
   -1.7208   -0.1167    0.0000 O   0  0  0  0  0  0  0  0  0  0  0  0
    5.4375   -1.7750    0.0000 C   0  0  0  0  0  0  0  0  0  0  0  0
    4.7375   -3.8500    0.0000 C   0  0  0  0  0  0  0  0  0  0  0  0
   -2.4333   -0.5250    0.0000 C   0  0  0  0  0  0  0  0  0  0  0  0
  2  1  1  0  0  0  0
  3  2  1  0  0  0  0
  4  1  2  0  0  0  0
  5  7  1  0  0  0  0
  6  1  1  0  0  0  0
  7  4  1  0  0  0  0
  8  6  1  0  0  0  0
  9  3  2  0  0  0  0
 10  5  2  0  0  0  0
 11  8  2  0  0  0  0
 12  2  2  0  0  0  0
 13 15  2  0  0  0  0
 14  6  2  0  0  0  0
 15 14  1  0  0  0  0
 16 10  1  0  0  0  0
 17  9  1  0  0  0  0
 18 11  1  0  0  0  0
 19 13  1  0  0  0  0
 20 16  1  0  0  0  0
 21 18  1  0  0  0  0
 22 19  1  0  0  0  0
 23 20  1  0  0  0  0
  3  5  1  0  0  0  0
 11 13  1  0  0  0  0
 17 16  2  0  0  0  0
M  END
> <IDNUMBER>
F3385-0894

> <Chemical_Name>
3-(3,4-dimethoxyphenyl)-7-methoxy-4H-chromen-4-one

> <CAS>
1621-61-0

> <PriceCoeff>
1.00

> <MW>
312.32

> <Description>
solid

> <FSP3>
0.17

> <clogP>
2.75

> <TPSA>
53.99

> <Acceptor>
5

> <Donor>
0

> <RotBonds>
4

> <HAC>
23

> <Collection>
General

> <Reference_compound>
CHEMBL44

> <Similarity>
0.9060

$$$$
F0466-0033
  -ISIS-  06222321452D

 25 27  0  0  0  0  0  0  0  0999 V2000
   -0.8958   -0.7292    0.0000 C   0  0  0  0  0  0  0  0  0  0  0  0
    1.2792   -2.8000    0.0000 N   0  0  3  0  0  0  0  0  0  0  0  0
   -1.6500   -0.2042    0.0000 C   0  0  0  0  0  0  0  0  0  0  0  0
   -1.3708   -1.0667    0.0000 N   0  0  0  0  0  0  0  0  0  0  0  0
   -1.0708   -0.2000    0.0000 S   0  0  0  0  0  0  0  0  0  0  0  0
   -1.8333   -0.7042    0.0000 C   0  0  0  0  0  0  0  0  0  0  0  0
   -0.3333   -0.8500    0.0000 N   0  0  0  0  0  0  0  0  0  0  0  0
    1.1167   -2.2292    0.0000 C   0  0  0  0  0  0  0  0  0  0  0  0
   -0.1500   -1.4000    0.0000 C   0  0  0  0  0  0  0  0  0  0  0  0
    1.8500   -2.9500    0.0000 C   0  0  0  0  0  0  0  0  0  0  0  0
    0.9542   -3.2667    0.0000 C   0  0  0  0  0  0  0  0  0  0  0  0
    0.5792   -2.1000    0.0000 C   0  0  0  0  0  0  0  0  0  0  0  0
    0.4167   -1.5292    0.0000 C   0  0  0  0  0  0  0  0  0  0  0  0
   -2.0125    0.2625    0.0000 C   0  0  0  0  0  0  0  0  0  0  0  0
   -0.5500   -1.8292    0.0000 O   0  0  0  0  0  0  0  0  0  0  0  0
    1.3500   -3.7042    0.0000 C   0  0  0  0  0  0  0  0  0  0  0  0
    1.8500   -3.5042    0.0000 C   0  0  0  0  0  0  0  0  0  0  0  0
    0.3792   -3.3000    0.0000 O   0  0  0  0  0  0  0  0  0  0  0  0
    2.3000   -2.6000    0.0000 O   0  0  0  0  0  0  0  0  0  0  0  0
   -1.7958    0.8000    0.0000 O   0  0  0  0  0  0  0  0  0  0  0  0
    1.5500   -1.8292    0.0000 C   0  0  0  0  0  0  0  0  0  0  0  0
   -2.4125   -0.8500    0.0000 C   0  0  0  0  0  0  0  0  0  0  0  0
    0.8500   -1.1042    0.0000 C   0  0  0  0  0  0  0  0  0  0  0  0
    1.4000   -1.2667    0.0000 C   0  0  0  0  0  0  0  0  0  0  0  0
   -2.5958    0.1625    0.0000 C   0  0  0  0  0  0  0  0  0  0  0  0
  2  8  1  0  0  0  0
  3  5  1  0  0  0  0
  4  1  2  0  0  0  0
  5  1  1  0  0  0  0
  6  4  1  0  0  0  0
  7  1  1  0  0  0  0
  8 12  2  0  0  0  0
  9  7  1  0  0  0  0
 10  2  1  0  0  0  0
 11  2  1  0  0  0  0
 12 13  1  0  0  0  0
 13  9  1  0  0  0  0
 14  3  1  0  0  0  0
 15  9  2  0  0  0  0
 16 11  1  0  0  0  0
 17 10  1  0  0  0  0
 18 11  2  0  0  0  0
 19 10  2  0  0  0  0
 20 14  2  0  0  0  0
 21 24  2  0  0  0  0
 22  6  1  0  0  0  0
 23 13  2  0  0  0  0
 24 23  1  0  0  0  0
 25 14  1  0  0  0  0
  3  6  2  0  0  0  0
 21  8  1  0  0  0  0
 16 17  1  0  0  0  0
M  END
> <IDNUMBER>
F0466-0033

> <Chemical_Name>
N-(5-acetyl-4-methyl-1,3-thiazol-2-yl)-3-(2,5-dioxopyrrolidin-1-yl)benzamide

> <CAS>
391867-72-4

> <PriceCoeff>
1.50

> <MW>
357.38

> <Description>
solid

> <FSP3>
0.24

> <clogP>
0.36

> <TPSA>
124.68

> <Acceptor>
5

> <Donor>
1

> <RotBonds>
4

> <HAC>
25

> <Collection>
Advanced

$$$$
F2073-0017
  -ISIS-  06222321462D

 25 27  0  0  0  0  0  0  0  0999 V2000
   -2.3958    4.5125    0.0000 C   0  0  0  0  0  0  0  0  0  0  0  0
   -1.5125    5.6375    0.0000 N   0  0  3  0  0  0  0  0  0  0  0  0
   -2.2708    5.3292    0.0000 C   0  0  0  0  0  0  0  0  0  0  0  0
   -0.8625    5.1250    0.0000 C   0  0  0  0  0  0  0  0  0  0  0  0
   -0.9708    4.3042    0.0000 N   0  0  0  0  0  0  0  0  0  0  0  0
   -1.7458    4.0000    0.0000 C   0  0  0  0  0  0  0  0  0  0  0  0
   -3.1583    4.2042    0.0000 N   0  0  0  0  0  0  0  0  0  0  0  0
   -6.4417    6.6417    0.0000 N   0  3  0  0  0  0  0  0  0  0  0  0
   -3.8000    4.7167    0.0000 C   0  0  0  0  0  0  0  0  0  0  0  0
   -4.4708    5.2000    0.0000 C   0  0  0  0  0  0  0  0  0  0  0  0
   -4.3708    6.0167    0.0000 C   0  0  0  0  0  0  0  0  0  0  0  0
   -5.7833    6.1667    0.0000 C   0  0  0  0  0  0  0  0  0  0  0  0
   -5.0333    6.5000    0.0000 C   0  0  0  0  0  0  0  0  0  0  0  0
   -5.2083    4.8667    0.0000 C   0  0  0  0  0  0  0  0  0  0  0  0
   -1.3958    6.4375    0.0000 C   0  0  0  0  0  0  0  0  0  0  0  0
   -6.3542    7.4667    0.0000 O   0  5  0  0  0  0  0  0  0  0  0  0
   -2.9208    5.8375    0.0000 O   0  0  0  0  0  0  0  0  0  0  0  0
   -0.1083    5.4167    0.0000 C   0  0  0  0  0  0  0  0  0  0  0  0
   -7.2000    6.3125    0.0000 O   0  0  0  0  0  0  0  0  0  0  0  0
   -3.8833    3.9083    0.0000 O   0  0  0  0  0  0  0  0  0  0  0  0
   -5.8708    5.3417    0.0000 C   0  0  0  0  0  0  0  0  0  0  0  0
   -0.6333    6.7500    0.0000 C   0  0  0  0  0  0  0  0  0  0  0  0
    0.0167    6.2417    0.0000 C   0  0  0  0  0  0  0  0  0  0  0  0
   -3.6208    6.3417    0.0000 Cl  0  0  0  0  0  0  0  0  0  0  0  0
   -1.8625    3.1958    0.0000 C   0  0  0  0  0  0  0  0  0  0  0  0
  2  3  1  0  0  0  0
  3  1  1  0  0  0  0
  4  5  2  0  0  0  0
  5  6  1  0  0  0  0
  6  1  2  0  0  0  0
  7  1  1  0  0  0  0
  8 12  1  0  0  0  0
  9  7  1  0  0  0  0
 10  9  1  0  0  0  0
 11 10  2  0  0  0  0
 12 21  1  0  0  0  0
 13 11  1  0  0  0  0
 14 10  1  0  0  0  0
 15  2  1  0  0  0  0
 16  8  1  0  0  0  0
 17  3  2  0  0  0  0
 18  4  1  0  0  0  0
 19  8  2  0  0  0  0
 20  9  2  0  0  0  0
 21 14  2  0  0  0  0
 22 15  2  0  0  0  0
 23 18  2  0  0  0  0
 24 11  1  0  0  0  0
 25  6  1  0  0  0  0
  2  4  1  0  0  0  0
 12 13  2  0  0  0  0
 22 23  1  0  0  0  0
M  CHG  2   8   1  16  -1
M  END
> <IDNUMBER>
F2073-0017

> <Chemical_Name>
2-chloro-N-{2-methyl-4-oxo-4H-pyrido[1,2-a]pyrimidin-3-yl}-4-nitrobenzamide

> <CAS>
921111-06-0

> <PriceCoeff>
1.00

> <MW>
358.74

> <Description>
solid

> <FSP3>
0.06

> <clogP>
1.26

> <TPSA>
104.91

> <Acceptor>
5

> <Donor>
1

> <RotBonds>
3

> <HAC>
25

> <Collection>
General

$$$$
F3228-0188
  -ISIS-  06222321442D

 23 25  0  0  0  0  0  0  0  0999 V2000
    4.1292   -1.2167    0.0000 C   0  0  0  0  0  0  0  0  0  0  0  0
    3.6167   -1.5125    0.0000 C   0  0  0  0  0  0  0  0  0  0  0  0
    3.1042   -1.2167    0.0000 C   0  0  0  0  0  0  0  0  0  0  0  0
    3.1042   -0.6250    0.0000 C   0  0  0  0  0  0  0  0  0  0  0  0
    4.1292   -0.6250    0.0000 C   0  0  0  0  0  0  0  0  0  0  0  0
    2.6000   -1.5042    0.0000 C   0  0  0  0  0  0  0  0  0  0  0  0
    3.6167   -0.3250    0.0000 O   0  0  0  0  0  0  0  0  0  0  0  0
    4.6417   -1.5125    0.0000 C   0  0  0  0  0  0  0  0  0  0  0  0
    2.6000   -0.3292    0.0000 C   0  0  0  0  0  0  0  0  0  0  0  0
    2.0917   -1.2167    0.0000 C   0  0  0  0  0  0  0  0  0  0  0  0
    3.6167   -2.1000    0.0000 O   0  0  0  0  0  0  0  0  0  0  0  0
    2.0917   -0.6250    0.0000 C   0  0  0  0  0  0  0  0  0  0  0  0
    4.6417   -2.1000    0.0000 C   0  0  0  0  0  0  0  0  0  0  0  0
    2.6042   -2.0917    0.0000 O   0  0  0  0  0  0  0  0  0  0  0  0
    1.5875   -0.3292    0.0000 O   0  0  0  0  0  0  0  0  0  0  0  0
    4.1292   -2.3917    0.0000 O   0  0  0  0  0  0  0  0  0  0  0  0
    5.1500   -1.2167    0.0000 C   0  0  0  0  0  0  0  0  0  0  0  0
    5.1500   -2.3917    0.0000 C   0  0  0  0  0  0  0  0  0  0  0  0
    3.1125   -2.3875    0.0000 C   0  0  0  0  0  0  0  0  0  0  0  0
    4.1292   -2.9792    0.0000 C   0  0  0  0  0  0  0  0  0  0  0  0
    1.0792   -0.6250    0.0000 C   0  0  0  0  0  0  0  0  0  0  0  0
    5.6542   -1.5042    0.0000 C   0  0  0  0  0  0  0  0  0  0  0  0
    5.6542   -2.1000    0.0000 C   0  0  0  0  0  0  0  0  0  0  0  0
  2  1  1  0  0  0  0
  3  2  1  0  0  0  0
  4  7  1  0  0  0  0
  5  1  2  0  0  0  0
  6  3  2  0  0  0  0
  7  5  1  0  0  0  0
  8  1  1  0  0  0  0
  9  4  2  0  0  0  0
 10  6  1  0  0  0  0
 11  2  2  0  0  0  0
 12  9  1  0  0  0  0
 13  8  2  0  0  0  0
 14  6  1  0  0  0  0
 15 12  1  0  0  0  0
 16 13  1  0  0  0  0
 17  8  1  0  0  0  0
 18 13  1  0  0  0  0
 19 14  1  0  0  0  0
 20 16  1  0  0  0  0
 21 15  1  0  0  0  0
 22 17  2  0  0  0  0
 23 22  1  0  0  0  0
  3  4  1  0  0  0  0
 23 18  2  0  0  0  0
 10 12  2  0  0  0  0
M  END
> <IDNUMBER>
F3228-0188

> <Chemical_Name>
5,7-dimethoxy-3-(2-methoxyphenyl)-4H-chromen-4-one

> <CAS>
5065-01-0

> <PriceCoeff>
1.00

> <MW>
312.32

> <Description>
solid

> <FSP3>
0.17

> <clogP>
2.48

> <TPSA>
53.99

> <Acceptor>
5

> <Donor>
0

> <RotBonds>
4

> <HAC>
23

> <Collection>
General

> <Reference_compound>
CHEMBL44

> <Similarity>
0.9530

$$$$
F0789-0023
  -ISIS-  06222321452D

 28 31  0  0  0  0  0  0  0  0999 V2000
   -2.0208   -1.4000    0.0000 C   0  0  0  0  0  0  0  0  0  0  0  0
   -0.7000   -0.9542    0.0000 C   0  0  0  0  0  0  0  0  0  0  0  0
   -2.0208   -0.5167    0.0000 C   0  0  0  0  0  0  0  0  0  0  0  0
    3.2792   -1.7167    0.0000 N   0  0  3  0  0  0  0  0  0  0  0  0
   -1.2000   -0.2375    0.0000 N   0  0  0  0  0  0  0  0  0  0  0  0
   -1.2000   -1.6542    0.0000 S   0  0  0  0  0  0  0  0  0  0  0  0
    0.2000   -0.9542    0.0000 N   0  0  0  0  0  0  0  0  0  0  0  0
   -2.7833   -1.8375    0.0000 C   0  0  0  0  0  0  0  0  0  0  0  0
    2.8375   -0.9542    0.0000 C   0  0  0  0  0  0  0  0  0  0  0  0
    0.6375   -0.2000    0.0000 C   0  0  0  0  0  0  0  0  0  0  0  0
    3.0000   -2.5375    0.0000 C   0  0  0  0  0  0  0  0  0  0  0  0
    4.1542   -1.7167    0.0000 C   0  0  0  0  0  0  0  0  0  0  0  0
    1.9542   -0.9542    0.0000 C   0  0  0  0  0  0  0  0  0  0  0  0
    1.5167   -0.2000    0.0000 C   0  0  0  0  0  0  0  0  0  0  0  0
   -2.7833   -0.0792    0.0000 C   0  0  0  0  0  0  0  0  0  0  0  0
   -3.5458   -0.5167    0.0000 C   0  0  3  0  0  0  0  0  0  0  0  0
   -3.5458   -1.4000    0.0000 C   0  0  0  0  0  0  0  0  0  0  0  0
   -2.7833   -2.7167    0.0000 O   0  0  0  0  0  0  0  0  0  0  0  0
    0.2000    0.5833    0.0000 O   0  0  0  0  0  0  0  0  0  0  0  0
    3.7167   -3.0375    0.0000 C   0  0  0  0  0  0  0  0  0  0  0  0
    4.4167   -2.5375    0.0000 C   0  0  0  0  0  0  0  0  0  0  0  0
    2.1542   -2.8375    0.0000 O   0  0  0  0  0  0  0  0  0  0  0  0
    4.6792   -1.0167    0.0000 O   0  0  0  0  0  0  0  0  0  0  0  0
    3.2792   -0.2000    0.0000 C   0  0  0  0  0  0  0  0  0  0  0  0
    1.9542    0.5833    0.0000 C   0  0  0  0  0  0  0  0  0  0  0  0
    2.8375    0.5833    0.0000 C   0  0  0  0  0  0  0  0  0  0  0  0
   -4.3208   -0.1167    0.0000 C   0  0  0  0  0  0  0  0  0  0  0  0
   -4.1833   -1.1375    0.0000 C   0  0  0  0  0  0  0  0  0  0  0  0
  2  6  1  0  0  0  0
  3  1  2  0  0  0  0
  4  9  1  0  0  0  0
  5  3  1  0  0  0  0
  6  1  1  0  0  0  0
  7  2  1  0  0  0  0
  8  1  1  0  0  0  0
  9 13  1  0  0  0  0
 10  7  1  0  0  0  0
 11  4  1  0  0  0  0
 12  4  1  0  0  0  0
 13 14  2  0  0  0  0
 14 10  1  0  0  0  0
 15  3  1  0  0  0  0
 16 17  1  0  0  0  0
 17  8  1  0  0  0  0
 18  8  2  0  0  0  0
 19 10  2  0  0  0  0
 20 11  1  0  0  0  0
 21 12  1  0  0  0  0
 22 11  2  0  0  0  0
 23 12  2  0  0  0  0
 24 26  1  0  0  0  0
 25 14  1  0  0  0  0
 26 25  2  0  0  0  0
 27 16  1  0  0  0  0
 28 16  1  0  0  0  0
  5  2  2  0  0  0  0
 15 16  1  0  0  0  0
 24  9  2  0  0  0  0
 20 21  1  0  0  0  0
M  END
> <IDNUMBER>
F0789-0023

> <Chemical_Name>
N-(5,5-dimethyl-7-oxo-4,5,6,7-tetrahydro-1,3-benzothiazol-2-yl)-3-(2,5-dioxopyrrolidin-1-yl)benzamide

> <CAS>
361479-61-0

> <PriceCoeff>
1.50

> <MW>
397.45

> <Description>
solid

> <FSP3>
0.35

> <clogP>
1.44

> <TPSA>
124.68

> <Acceptor>
5

> <Donor>
1

> <RotBonds>
3

> <HAC>
28

> <Collection>
Advanced

$$$$
F6401-0075
  -ISIS-  06222321462D

 24 26  0  0  0  0  0  0  0  0999 V2000
    5.0375   -1.2167    0.0000 N   0  0  3  0  0  0  0  0  0  0  0  0
    4.8292   -2.2000    0.0000 C   0  0  0  0  0  0  0  0  0  0  0  0
    4.2917   -0.5542    0.0000 C   0  0  0  0  0  0  0  0  0  0  0  0
    3.1375   -1.8417    0.0000 C   0  0  3  0  0  0  0  0  0  0  0  0
    2.1875   -2.1542    0.0000 C   0  0  0  0  0  0  0  0  0  0  0  0
    3.8875   -2.5125    0.0000 C   0  0  0  0  0  0  0  0  0  0  0  0
    3.3417   -0.8667    0.0000 C   0  0  0  0  0  0  0  0  0  0  0  0
    6.1750   -0.8500    0.0000 C   0  0  0  0  0  0  0  0  0  0  0  0
    1.8792   -3.1167    0.0000 S   0  0  0  0  0  0  0  0  0  0  0  0
    6.3792    0.1333    0.0000 C   0  0  0  0  0  0  0  0  0  0  0  0
    4.4167    0.0333    0.0000 O   0  0  0  0  0  0  0  0  0  0  0  0
    5.5792   -2.8667    0.0000 O   0  0  0  0  0  0  0  0  0  0  0  0
    1.3792   -1.5792    0.0000 C   0  0  0  0  0  0  0  0  0  0  0  0
    0.8792   -3.1167    0.0000 C   0  0  0  0  0  0  0  0  0  0  0  0
    0.5667   -2.1542    0.0000 C   0  0  0  0  0  0  0  0  0  0  0  0
    5.6375    0.8000    0.0000 O   0  0  0  0  0  0  0  0  0  0  0  0
    7.3292    0.4458    0.0000 O   0  0  0  0  0  0  0  0  0  0  0  0
    7.5375    1.4250    0.0000 C   0  0  0  0  0  0  0  0  0  0  0  0
    8.4875    1.7333    0.0000 C   0  0  0  0  0  0  0  0  0  0  0  0
    8.6917    2.7125    0.0000 C   0  0  0  0  0  0  0  0  0  0  0  0
    9.2292    1.0708    0.0000 C   0  0  0  0  0  0  0  0  0  0  0  0
   10.1792    1.3750    0.0000 C   0  0  0  0  0  0  0  0  0  0  0  0
    9.6417    3.0208    0.0000 C   0  0  0  0  0  0  0  0  0  0  0  0
   10.3875    2.3583    0.0000 C   0  0  0  0  0  0  0  0  0  0  0  0
  2  1  1  0  0  0  0
  3  1  1  0  0  0  0
  4  7  1  0  0  0  0
  5  4  1  0  0  0  0
  6  2  1  0  0  0  0
  7  3  1  0  0  0  0
  8  1  1  0  0  0  0
  9  5  1  0  0  0  0
 10  8  1  0  0  0  0
 11  3  2  0  0  0  0
 12  2  2  0  0  0  0
 13  5  2  0  0  0  0
 14  9  1  0  0  0  0
 15 13  1  0  0  0  0
 16 10  2  0  0  0  0
 17 10  1  0  0  0  0
 18 17  1  0  0  0  0
 19 18  1  0  0  0  0
 20 19  1  0  0  0  0
 21 19  2  0  0  0  0
 22 21  1  0  0  0  0
 23 20  2  0  0  0  0
 24 22  2  0  0  0  0
  4  6  1  0  0  0  0
 15 14  2  0  0  0  0
 23 24  1  0  0  0  0
M  END
> <IDNUMBER>
F6401-0075

> <Chemical_Name>
benzyl 2-[2,6-dioxo-4-(thiophen-2-yl)piperidin-1-yl]acetate

> <CAS>
1421584-52-2

> <PriceCoeff>
1.00

> <MW>
343.40

> <Description>
solid

> <FSP3>
0.28

> <clogP>
3.09

> <TPSA>
91.92

> <Acceptor>
4

> <Donor>
0

> <RotBonds>
6

> <HAC>
24

> <Collection>
General

$$$$
F0700-0132
  -ISIS-  06222321142D

 22 24  0  0  0  0  0  0  0  0999 V2000
   -0.3958    1.3333    0.0000 N   0  0  3  0  0  0  0  0  0  0  0  0
   -3.9958    0.6708    0.0000 C   0  0  0  0  0  0  0  0  0  0  0  0
   -3.9583    1.2500    0.0000 N   0  0  0  0  0  0  0  0  0  0  0  0
   -3.4708    0.4333    0.0000 S   0  0  0  0  0  0  0  0  0  0  0  0
    0.2292    1.3125    0.0000 C   0  0  0  0  0  0  0  0  0  0  0  0
   -0.5500    1.8958    0.0000 C   0  0  0  0  0  0  0  0  0  0  0  0
   -3.0708    0.8708    0.0000 C   0  0  0  0  0  0  0  0  0  0  0  0
   -3.3708    1.3958    0.0000 C   0  0  0  0  0  0  0  0  0  0  0  0
   -1.2958    0.8500    0.0000 C   0  0  0  0  0  0  0  0  0  0  0  0
   -0.6958    0.8333    0.0000 C   0  0  0  0  0  0  0  0  0  0  0  0
   -2.4708    0.8708    0.0000 C   0  0  0  0  0  0  0  0  0  0  0  0
   -1.5708    1.3708    0.0000 N   0  0  0  0  0  0  0  0  0  0  0  0
   -2.1708    1.3958    0.0000 C   0  0  0  0  0  0  0  0  0  0  0  0
    0.4042    1.8708    0.0000 C   0  0  0  0  0  0  0  0  0  0  0  0
   -0.0708    2.2333    0.0000 C   0  0  0  0  0  0  0  0  0  0  0  0
    0.5875    0.8125    0.0000 O   0  0  0  0  0  0  0  0  0  0  0  0
   -1.1333    2.1125    0.0000 O   0  0  0  0  0  0  0  0  0  0  0  0
   -1.5958    0.3500    0.0000 O   0  0  0  0  0  0  0  0  0  0  0  0
   -4.5208    0.3500    0.0000 S   0  0  0  0  0  0  0  0  0  0  0  0
   -3.0708    1.9125    0.0000 C   0  0  0  0  0  0  0  0  0  0  0  0
   -2.4708    1.9125    0.0000 C   0  0  0  0  0  0  0  0  0  0  0  0
   -5.0500    0.6333    0.0000 C   0  0  0  0  0  0  0  0  0  0  0  0
  2  4  1  0  0  0  0
  3  8  1  0  0  0  0
  4  7  1  0  0  0  0
  5  1  1  0  0  0  0
  6  1  1  0  0  0  0
  7 11  1  0  0  0  0
  8 20  1  0  0  0  0
  9 10  1  0  0  0  0
 10  1  1  0  0  0  0
 11 13  2  0  0  0  0
 12  9  1  0  0  0  0
 13 12  1  0  0  0  0
 14  5  1  0  0  0  0
 15  6  1  0  0  0  0
 16  5  2  0  0  0  0
 17  6  2  0  0  0  0
 18  9  2  0  0  0  0
 19  2  1  0  0  0  0
 20 21  2  0  0  0  0
 21 13  1  0  0  0  0
 22 19  1  0  0  0  0
 14 15  1  0  0  0  0
  7  8  2  0  0  0  0
  2  3  2  0  0  0  0
M  END
> <IDNUMBER>
F0700-0132

> <Chemical_Name>
2-(2,5-dioxopyrrolidin-1-yl)-N-[2-(methylsulfanyl)-1,3-benzothiazol-6-yl]acetamide

> <CAS>
393837-50-8

> <PriceCoeff>
1.00

> <MW>
335.40

> <Description>
solid

> <FSP3>
0.29

> <clogP>
2.37

> <TPSA>
132.91

> <Acceptor>
4

> <Donor>
1

> <RotBonds>
4

> <HAC>
22

> <Collection>
General

$$$$
F2191-0001
  -ISIS-  06222321142D

 14 15  0  0  0  0  0  0  0  0999 V2000
   -1.4625    1.2208    0.0000 C   0  0  0  0  0  0  0  0  0  0  0  0
   -2.1833    1.6333    0.0000 C   0  0  0  0  0  0  0  0  0  0  0  0
   -0.7458    1.6375    0.0000 C   0  0  0  0  0  0  0  0  0  0  0  0
   -2.8958    1.2208    0.0000 C   0  0  0  0  0  0  0  0  0  0  0  0
   -1.4625    0.3958    0.0000 C   0  0  0  0  0  0  0  0  0  0  0  0
   -0.7458    2.4625    0.0000 O   0  0  0  0  0  0  0  0  0  0  0  0
   -2.8958    0.3958    0.0000 C   0  0  0  0  0  0  0  0  0  0  0  0
   -2.1833   -0.0167    0.0000 C   0  0  0  0  0  0  0  0  0  0  0  0
   -2.1833    2.4583    0.0000 O   0  0  0  0  0  0  0  0  0  0  0  0
   -0.0208    1.2250    0.0000 O   0  0  0  0  0  0  0  0  0  0  0  0
   -3.6083    1.6250    0.0000 C   0  0  0  0  0  0  0  0  0  0  0  0
   -3.6083   -0.0167    0.0000 C   0  0  0  0  0  0  0  0  0  0  0  0
   -4.3208    1.2208    0.0000 C   0  0  0  0  0  0  0  0  0  0  0  0
   -4.3208    0.3958    0.0000 C   0  0  0  0  0  0  0  0  0  0  0  0
  2  1  1  0  0  0  0
  3  1  1  0  0  0  0
  4  2  2  0  0  0  0
  5  1  2  0  0  0  0
  6  3  2  0  0  0  0
  7  8  2  0  0  0  0
  8  5  1  0  0  0  0
  9  2  1  0  0  0  0
 10  3  1  0  0  0  0
 11  4  1  0  0  0  0
 12  7  1  0  0  0  0
 13 11  2  0  0  0  0
 14 12  2  0  0  0  0
  4  7  1  0  0  0  0
 13 14  1  0  0  0  0
M  END
> <IDNUMBER>
F2191-0001

> <Chemical_Name>
1-hydroxynaphthalene-2-carboxylic acid

> <CAS>
86-48-6

> <PriceCoeff>
1.00

> <MW>
188.18

> <Description>
solid

> <FSP3>
0.00

> <clogP>
3.36

> <TPSA>
57.53

> <Acceptor>
3

> <Donor>
1

> <RotBonds>
1

> <HAC>
14

> <Collection>
General

> <Reference_compound>
PRI37571

> <Similarity>
0.8490

$$$$
F3205-0012
  -ISIS-  06222321462D

 31 35  0  0  0  0  0  0  0  0999 V2000
    4.4250   -6.3375    0.0000 N   0  0  3  0  0  0  0  0  0  0  0  0
    4.9167   -7.0042    0.0000 C   0  0  0  0  0  0  0  0  0  0  0  0
    4.9042   -5.6667    0.0000 C   0  0  0  0  0  0  0  0  0  0  0  0
    5.7000   -6.7417    0.0000 C   0  0  3  0  0  0  0  0  0  0  0  0
    7.1125   -6.8875    0.0000 C   0  0  0  0  0  0  0  0  0  0  0  0
    6.3667   -7.2250    0.0000 C   0  0  3  0  0  0  0  0  0  0  0  0
    5.6917   -5.9167    0.0000 C   0  0  0  0  0  0  0  0  0  0  0  0
    7.2000   -6.0667    0.0000 N   0  0  3  0  0  0  0  0  0  0  0  0
    1.1375   -6.3542    0.0000 N   0  0  3  0  0  0  0  0  0  0  0  0
    3.6042   -6.3417    0.0000 C   0  0  0  0  0  0  0  0  0  0  0  0
    4.6625   -7.7875    0.0000 O   0  0  0  0  0  0  0  0  0  0  0  0
    1.9542   -6.3542    0.0000 C   0  0  0  0  0  0  0  0  0  0  0  0
    4.6500   -4.8792    0.0000 O   0  0  0  0  0  0  0  0  0  0  0  0
    7.7792   -7.3667    0.0000 C   0  0  0  0  0  0  0  0  0  0  0  0
    3.2042   -7.0542    0.0000 C   0  0  0  0  0  0  0  0  0  0  0  0
    3.1917   -5.6292    0.0000 C   0  0  0  0  0  0  0  0  0  0  0  0
    2.3667   -5.6375    0.0000 C   0  0  0  0  0  0  0  0  0  0  0  0
    2.3792   -7.0667    0.0000 C   0  0  0  0  0  0  0  0  0  0  0  0
   -0.5125   -6.3667    0.0000 O   0  0  0  0  0  0  0  0  0  0  0  0
    6.5292   -5.5875    0.0000 C   0  0  0  0  0  0  0  0  0  0  0  0
    7.9542   -5.7292    0.0000 C   0  0  0  0  0  0  0  0  0  0  0  0
    6.2792   -8.0500    0.0000 C   0  0  0  0  0  0  0  0  0  0  0  0
    0.7167   -5.6417    0.0000 C   0  0  0  0  0  0  0  0  0  0  0  0
    0.7292   -7.0792    0.0000 C   0  0  0  0  0  0  0  0  0  0  0  0
   -0.0958   -7.0792    0.0000 C   0  0  0  0  0  0  0  0  0  0  0  0
   -0.1000   -5.6500    0.0000 C   0  0  0  0  0  0  0  0  0  0  0  0
    7.7000   -8.1917    0.0000 C   0  0  0  0  0  0  0  0  0  0  0  0
    6.9417   -8.5292    0.0000 C   0  0  0  0  0  0  0  0  0  0  0  0
    8.0417   -4.9125    0.0000 C   0  0  0  0  0  0  0  0  0  0  0  0
    6.6167   -4.7625    0.0000 C   0  0  0  0  0  0  0  0  0  0  0  0
    7.3750   -4.4292    0.0000 C   0  0  0  0  0  0  0  0  0  0  0  0
  2  1  1  0  0  0  0
  3  1  1  0  0  0  0
  4  2  1  0  0  0  0
  5  6  1  0  0  0  0
  6  4  1  0  0  0  0
  7  3  1  0  0  0  0
  8  5  1  0  0  0  0
  9 12  1  0  0  0  0
 10  1  1  0  0  0  0
 11  2  2  0  0  0  0
 12 17  2  0  0  0  0
 13  3  2  0  0  0  0
 14  5  2  0  0  0  0
 15 10  1  0  0  0  0
 16 10  2  0  0  0  0
 17 16  1  0  0  0  0
 18 15  2  0  0  0  0
 19 25  1  0  0  0  0
 20  8  1  0  0  0  0
 21  8  1  0  0  0  0
 22  6  1  0  0  0  0
 23  9  1  0  0  0  0
 24  9  1  0  0  0  0
 25 24  1  0  0  0  0
 26 23  1  0  0  0  0
 27 28  1  0  0  0  0
 28 22  1  0  0  0  0
 29 21  1  0  0  0  0
 30 20  1  0  0  0  0
 31 29  1  0  0  0  0
  7  4  1  0  0  0  0
 12 18  1  0  0  0  0
 27 14  1  0  0  0  0
 19 26  1  0  0  0  0
 30 31  1  0  0  0  0
M  END
> <IDNUMBER>
F3205-0012

> <Chemical_Name>
1-[4-(morpholin-4-yl)phenyl]-3-[2-(piperidin-1-yl)cyclohex-2-en-1-yl]pyrrolidine-2,5-dione

> <CAS>
881482-93-5

> <PriceCoeff>
1.00

> <MW>
423.55

> <Description>
solid

> <FSP3>
0.60

> <clogP>
2.41

> <TPSA>
53.09

> <Acceptor>
4

> <Donor>
2

> <RotBonds>
4

> <HAC>
31

> <Collection>
General

$$$$
F3083-0091
  -ISIS-  06222321152D

 29 31  0  0  0  0  0  0  0  0999 V2000
    2.4542   -2.9500    0.0000 N   0  0  3  0  0  0  0  0  0  0  0  0
    7.6250   -3.7042    0.0000 S   0  0  3  0  0  0  0  0  0  0  0  0
    1.6292   -2.9500    0.0000 N   0  0  0  0  0  0  0  0  0  0  0  0
    2.7125   -2.1625    0.0000 C   0  0  0  0  0  0  0  0  0  0  0  0
    2.0417   -1.6792    0.0000 C   0  0  0  0  0  0  0  0  0  0  0  0
    1.3750   -2.1625    0.0000 C   0  0  0  0  0  0  0  0  0  0  0  0
    6.8000   -3.7042    0.0000 N   0  0  3  0  0  0  0  0  0  0  0  0
    4.3375   -3.7000    0.0000 C   0  0  0  0  0  0  0  0  0  0  0  0
    3.7542   -3.1167    0.0000 C   0  0  0  0  0  0  0  0  0  0  0  0
    5.1625   -3.7000    0.0000 N   0  0  3  0  0  0  0  0  0  0  0  0
    3.0417   -3.5292    0.0000 C   0  0  3  0  0  0  0  0  0  0  0  0
    8.4500   -3.7042    0.0000 C   0  0  0  0  0  0  0  0  0  0  0  0
    7.6167   -2.8792    0.0000 O   0  0  0  0  0  0  0  0  0  0  0  0
    7.6167   -4.5292    0.0000 O   0  0  0  0  0  0  0  0  0  0  0  0
    6.3917   -2.9917    0.0000 C   0  0  0  0  0  0  0  0  0  0  0  0
    6.3875   -4.4125    0.0000 C   0  0  0  0  0  0  0  0  0  0  0  0
    5.5667   -2.9875    0.0000 C   0  0  0  0  0  0  0  0  0  0  0  0
    5.5667   -4.4125    0.0000 C   0  0  0  0  0  0  0  0  0  0  0  0
    4.1167   -4.4917    0.0000 O   0  0  0  0  0  0  0  0  0  0  0  0
    2.0417   -0.8542    0.0000 Br  0  0  0  0  0  0  0  0  0  0  0  0
    8.8542   -3.0000    0.0000 C   0  0  0  0  0  0  0  0  0  0  0  0
    8.8542   -4.4167    0.0000 C   0  0  0  0  0  0  0  0  0  0  0  0
    3.4250   -1.7417    0.0000 C   0  0  0  0  0  0  0  0  0  0  0  0
    0.5750   -1.9417    0.0000 C   0  0  0  0  0  0  0  0  0  0  0  0
    9.6667   -4.4167    0.0000 C   0  0  0  0  0  0  0  0  0  0  0  0
    9.6667   -3.0000    0.0000 C   0  0  0  0  0  0  0  0  0  0  0  0
   10.0792   -3.7125    0.0000 C   0  0  0  0  0  0  0  0  0  0  0  0
    2.8250   -4.3292    0.0000 C   0  0  0  0  0  0  0  0  0  0  0  0
   10.9042   -3.7125    0.0000 C   0  0  0  0  0  0  0  0  0  0  0  0
  2  7  1  0  0  0  0
  3  1  1  0  0  0  0
  4  1  1  0  0  0  0
  5  4  2  0  0  0  0
  6  3  2  0  0  0  0
  7 16  1  0  0  0  0
  8  9  1  0  0  0  0
  9 11  1  0  0  0  0
 10  8  1  0  0  0  0
 11  1  1  0  0  0  0
 12  2  1  0  0  0  0
 13  2  2  0  0  0  0
 14  2  2  0  0  0  0
 15 17  1  0  0  0  0
 16 18  1  0  0  0  0
 17 10  1  0  0  0  0
 18 10  1  0  0  0  0
 19  8  2  0  0  0  0
 20  5  1  0  0  0  0
 21 12  1  0  0  0  0
 22 12  2  0  0  0  0
 23  4  1  0  0  0  0
 24  6  1  0  0  0  0
 25 22  1  0  0  0  0
 26 21  2  0  0  0  0
 27 25  2  0  0  0  0
 28 11  1  0  0  0  0
 29 27  1  0  0  0  0
  6  5  1  0  0  0  0
 15  7  1  0  0  0  0
 26 27  1  0  0  0  0
M  END
> <IDNUMBER>
F3083-0091

> <Chemical_Name>
3-(4-bromo-3,5-dimethyl-1H-pyrazol-1-yl)-1-[4-(4-methylbenzenesulfonyl)piperazin-1-yl]butan-1-one

> <CAS>
890596-56-2

> <PriceCoeff>
1.00

> <MW>
483.42

> <Description>
solid

> <FSP3>
0.50

> <clogP>
3.95

> <TPSA>
83.89

> <Acceptor>
4

> <Donor>
0

> <RotBonds>
6

> <HAC>
29

> <Collection>
General

$$$$
F3325-0150
  -ISIS-  06222321442D

 28 31  0  0  0  0  0  0  0  0999 V2000
    2.0042   -2.4417    0.0000 N   0  0  3  0  0  0  0  0  0  0  0  0
    2.5292   -3.0875    0.0000 C   0  0  0  0  0  0  0  0  0  0  0  0
    2.4625   -1.7417    0.0000 C   0  0  0  0  0  0  0  0  0  0  0  0
    3.3042   -2.7917    0.0000 C   0  0  3  0  0  0  0  0  0  0  0  0
    3.2667   -1.9667    0.0000 C   0  0  0  0  0  0  0  0  0  0  0  0
    4.0417   -3.1667    0.0000 N   0  0  3  0  0  0  0  0  0  0  0  0
    1.1875   -2.4792    0.0000 C   0  0  0  0  0  0  0  0  0  0  0  0
    5.5042   -3.9167    0.0000 N   0  0  3  0  0  0  0  0  0  0  0  0
    2.3167   -3.8792    0.0000 O   0  0  0  0  0  0  0  0  0  0  0  0
    2.1667   -0.9750    0.0000 O   0  0  0  0  0  0  0  0  0  0  0  0
    4.7292   -2.7167    0.0000 C   0  0  0  0  0  0  0  0  0  0  0  0
    4.0792   -3.9875    0.0000 C   0  0  0  0  0  0  0  0  0  0  0  0
    4.8042   -4.3625    0.0000 C   0  0  0  0  0  0  0  0  0  0  0  0
    5.4625   -3.0917    0.0000 C   0  0  0  0  0  0  0  0  0  0  0  0
    0.7417   -1.7792    0.0000 C   0  0  0  0  0  0  0  0  0  0  0  0
    6.2292   -4.2917    0.0000 C   0  0  0  0  0  0  0  0  0  0  0  0
    1.1500   -1.0667    0.0000 O   0  0  0  0  0  0  0  0  0  0  0  0
    0.8167   -3.2125    0.0000 C   0  0  0  0  0  0  0  0  0  0  0  0
    6.2667   -5.1167    0.0000 C   0  0  0  0  0  0  0  0  0  0  0  0
    6.9250   -3.8500    0.0000 C   0  0  0  0  0  0  0  0  0  0  0  0
   -0.0833   -1.8250    0.0000 C   0  0  0  0  0  0  0  0  0  0  0  0
    0.7292   -0.3500    0.0000 C   0  0  0  0  0  0  0  0  0  0  0  0
   -0.0083   -3.2542    0.0000 C   0  0  0  0  0  0  0  0  0  0  0  0
   -0.0958   -0.3500    0.0000 C   0  0  0  0  0  0  0  0  0  0  0  0
   -0.4583   -2.5625    0.0000 C   0  0  0  0  0  0  0  0  0  0  0  0
    7.0042   -5.4917    0.0000 C   0  0  0  0  0  0  0  0  0  0  0  0
    7.6542   -4.2167    0.0000 C   0  0  0  0  0  0  0  0  0  0  0  0
    7.7000   -5.0500    0.0000 C   0  0  0  0  0  0  0  0  0  0  0  0
  2  1  1  0  0  0  0
  3  1  1  0  0  0  0
  4  2  1  0  0  0  0
  5  3  1  0  0  0  0
  6  4  1  0  0  0  0
  7  1  1  0  0  0  0
  8 13  1  0  0  0  0
  9  2  2  0  0  0  0
 10  3  2  0  0  0  0
 11  6  1  0  0  0  0
 12  6  1  0  0  0  0
 13 12  1  0  0  0  0
 14 11  1  0  0  0  0
 15  7  2  0  0  0  0
 16  8  1  0  0  0  0
 17 15  1  0  0  0  0
 18  7  1  0  0  0  0
 19 16  2  0  0  0  0
 20 16  1  0  0  0  0
 21 15  1  0  0  0  0
 22 17  1  0  0  0  0
 23 18  2  0  0  0  0
 24 22  1  0  0  0  0
 25 23  1  0  0  0  0
 26 19  1  0  0  0  0
 27 20  2  0  0  0  0
 28 27  1  0  0  0  0
  5  4  1  0  0  0  0
 21 25  2  0  0  0  0
  8 14  1  0  0  0  0
 26 28  2  0  0  0  0
M  END
> <IDNUMBER>
F3325-0150

> <Chemical_Name>
1-(2-ethoxyphenyl)-3-(4-phenylpiperazin-1-yl)pyrrolidine-2,5-dione

> <CAS>
924865-57-6

> <PriceCoeff>
1.00

> <MW>
379.45

> <Description>
solid

> <FSP3>
0.36

> <clogP>
3.76

> <TPSA>
53.09

> <Acceptor>
4

> <Donor>
2

> <RotBonds>
5

> <HAC>
28

> <Collection>
General

$$$$
F3083-0081
  -ISIS-  06222321462D

 28 30  0  0  0  0  0  0  0  0999 V2000
    8.3292   -2.7792    0.0000 S   0  0  3  0  0  0  0  0  0  0  0  0
    3.1625   -2.0250    0.0000 N   0  0  3  0  0  0  0  0  0  0  0  0
    2.3375   -2.0250    0.0000 N   0  0  0  0  0  0  0  0  0  0  0  0
    2.7500   -0.7542    0.0000 C   0  0  0  0  0  0  0  0  0  0  0  0
    3.4167   -1.2375    0.0000 C   0  0  0  0  0  0  0  0  0  0  0  0
    2.0792   -1.2375    0.0000 C   0  0  0  0  0  0  0  0  0  0  0  0
    7.5042   -2.7792    0.0000 N   0  0  3  0  0  0  0  0  0  0  0  0
    5.8667   -2.7750    0.0000 N   0  0  3  0  0  0  0  0  0  0  0  0
    5.0417   -2.7750    0.0000 C   0  0  0  0  0  0  0  0  0  0  0  0
    4.4542   -2.1917    0.0000 C   0  0  0  0  0  0  0  0  0  0  0  0
    9.1542   -2.7792    0.0000 C   0  0  0  0  0  0  0  0  0  0  0  0
    8.3250   -1.9542    0.0000 O   0  0  0  0  0  0  0  0  0  0  0  0
    8.3250   -3.6042    0.0000 O   0  0  0  0  0  0  0  0  0  0  0  0
    3.7417   -2.6042    0.0000 C   0  0  0  0  0  0  0  0  0  0  0  0
    7.0917   -2.0667    0.0000 C   0  0  0  0  0  0  0  0  0  0  0  0
    7.0917   -3.4875    0.0000 C   0  0  0  0  0  0  0  0  0  0  0  0
    6.2750   -2.0625    0.0000 C   0  0  0  0  0  0  0  0  0  0  0  0
    6.2750   -3.4875    0.0000 C   0  0  0  0  0  0  0  0  0  0  0  0
    4.8250   -3.5667    0.0000 O   0  0  0  0  0  0  0  0  0  0  0  0
    2.7417    0.0708    0.0000 Br  0  0  0  0  0  0  0  0  0  0  0  0
    9.5625   -2.0750    0.0000 C   0  0  0  0  0  0  0  0  0  0  0  0
    9.5542   -3.4917    0.0000 C   0  0  0  0  0  0  0  0  0  0  0  0
    4.1292   -0.8167    0.0000 C   0  0  0  0  0  0  0  0  0  0  0  0
   10.7875   -2.7875    0.0000 C   0  0  0  0  0  0  0  0  0  0  0  0
    1.2792   -1.0167    0.0000 C   0  0  0  0  0  0  0  0  0  0  0  0
   10.3750   -3.4917    0.0000 C   0  0  0  0  0  0  0  0  0  0  0  0
   10.3750   -2.0750    0.0000 C   0  0  0  0  0  0  0  0  0  0  0  0
   11.6125   -2.7875    0.0000 Cl  0  0  0  0  0  0  0  0  0  0  0  0
  2 14  1  0  0  0  0
  3  2  1  0  0  0  0
  4  5  2  0  0  0  0
  5  2  1  0  0  0  0
  6  3  2  0  0  0  0
  7  1  1  0  0  0  0
  8 18  1  0  0  0  0
  9  8  1  0  0  0  0
 10  9  1  0  0  0  0
 11  1  1  0  0  0  0
 12  1  2  0  0  0  0
 13  1  2  0  0  0  0
 14 10  1  0  0  0  0
 15  7  1  0  0  0  0
 16  7  1  0  0  0  0
 17 15  1  0  0  0  0
 18 16  1  0  0  0  0
 19  9  2  0  0  0  0
 20  4  1  0  0  0  0
 21 11  1  0  0  0  0
 22 11  2  0  0  0  0
 23  5  1  0  0  0  0
 24 26  2  0  0  0  0
 25  6  1  0  0  0  0
 26 22  1  0  0  0  0
 27 21  2  0  0  0  0
 28 24  1  0  0  0  0
 27 24  1  0  0  0  0
  8 17  1  0  0  0  0
  6  4  1  0  0  0  0
M  END
> <IDNUMBER>
F3083-0081

> <Chemical_Name>
3-(4-bromo-3,5-dimethyl-1H-pyrazol-1-yl)-1-[4-(4-chlorobenzenesulfonyl)piperazin-1-yl]propan-1-one

> <CAS>
890596-29-9

> <PriceCoeff>
1.00

> <MW>
489.81

> <Description>
solid

> <FSP3>
0.44

> <clogP>
3.85

> <TPSA>
83.89

> <Acceptor>
4

> <Donor>
0

> <RotBonds>
6

> <HAC>
28

> <Collection>
General

$$$$
F0327-0396
  -ISIS-  06222321442D

 29 32  0  0  0  0  0  0  0  0999 V2000
   -0.0208    0.3500    0.0000 C   0  0  0  0  0  0  0  0  0  0  0  0
    0.3792   -0.2500    0.0000 C   0  0  0  0  0  0  0  0  0  0  0  0
   -0.7500    0.1625    0.0000 C   0  0  0  0  0  0  0  0  0  0  0  0
    4.4792   -0.8875    0.0000 N   0  0  3  0  0  0  0  0  0  0  0  0
   -0.0833   -0.8500    0.0000 S   0  0  0  0  0  0  0  0  0  0  0  0
   -0.7500   -0.5500    0.0000 C   0  0  0  0  0  0  0  0  0  0  0  0
    1.1167   -0.2500    0.0000 N   0  0  0  0  0  0  0  0  0  0  0  0
    1.4792   -0.8875    0.0000 C   0  0  0  0  0  0  0  0  0  0  0  0
    4.8375   -1.5292    0.0000 C   0  0  0  0  0  0  0  0  0  0  0  0
    4.9792   -0.3292    0.0000 C   0  0  0  0  0  0  0  0  0  0  0  0
    0.2542    1.0208    0.0000 C   0  0  0  0  0  0  0  0  0  0  0  0
    3.7167   -0.8875    0.0000 C   0  0  0  0  0  0  0  0  0  0  0  0
   -1.3958    0.5500    0.0000 C   0  0  0  0  0  0  0  0  0  0  0  0
    2.2375   -0.8875    0.0000 C   0  0  0  0  0  0  0  0  0  0  0  0
   -1.3958   -0.9292    0.0000 C   0  0  0  0  0  0  0  0  0  0  0  0
    1.1167   -1.5292    0.0000 O   0  0  0  0  0  0  0  0  0  0  0  0
    5.5542   -1.3667    0.0000 C   0  0  0  0  0  0  0  0  0  0  0  0
    5.6542   -0.6292    0.0000 C   0  0  0  0  0  0  0  0  0  0  0  0
    4.5542   -2.2292    0.0000 O   0  0  0  0  0  0  0  0  0  0  0  0
    4.8167    0.4333    0.0000 O   0  0  0  0  0  0  0  0  0  0  0  0
    1.0167    1.2000    0.0000 O   0  0  0  0  0  0  0  0  0  0  0  0
    3.3542   -1.5292    0.0000 C   0  0  0  0  0  0  0  0  0  0  0  0
    3.3542   -0.2500    0.0000 C   0  0  0  0  0  0  0  0  0  0  0  0
    2.6000   -0.2500    0.0000 C   0  0  0  0  0  0  0  0  0  0  0  0
    2.6000   -1.5292    0.0000 C   0  0  0  0  0  0  0  0  0  0  0  0
   -0.2125    1.5333    0.0000 N   0  0  0  0  0  0  0  0  0  0  0  0
   -2.0208    0.1833    0.0000 C   0  0  3  0  0  0  0  0  0  0  0  0
   -2.0208   -0.5542    0.0000 C   0  0  0  0  0  0  0  0  0  0  0  0
   -2.6500    0.5500    0.0000 C   0  0  0  0  0  0  0  0  0  0  0  0
  2  1  2  0  0  0  0
  3  1  1  0  0  0  0
  4 12  1  0  0  0  0
  5  2  1  0  0  0  0
  6  3  2  0  0  0  0
  7  2  1  0  0  0  0
  8  7  1  0  0  0  0
  9  4  1  0  0  0  0
 10  4  1  0  0  0  0
 11  1  1  0  0  0  0
 12 22  2  0  0  0  0
 13  3  1  0  0  0  0
 14  8  1  0  0  0  0
 15  6  1  0  0  0  0
 16  8  2  0  0  0  0
 17  9  1  0  0  0  0
 18 10  1  0  0  0  0
 19  9  2  0  0  0  0
 20 10  2  0  0  0  0
 21 11  2  0  0  0  0
 22 25  1  0  0  0  0
 23 24  2  0  0  0  0
 24 14  1  0  0  0  0
 25 14  2  0  0  0  0
 26 11  1  0  0  0  0
 27 13  1  0  0  0  0
 28 27  1  0  0  0  0
 29 27  1  0  0  0  0
  6  5  1  0  0  0  0
 15 28  1  0  0  0  0
 23 12  1  0  0  0  0
 18 17  1  0  0  0  0
M  END
> <IDNUMBER>
F0327-0396

> <Chemical_Name>
2-[4-(2,5-dioxopyrrolidin-1-yl)benzamido]-5-methyl-4,5,6,7-tetrahydro-1-benzothiophene-3-carboxamide

> <CAS>
329903-37-9

> <PriceCoeff>
1.00

> <MW>
411.47

> <Description>
solid

> <FSP3>
0.33

> <clogP>
1.83

> <TPSA>
137.81

> <Acceptor>
4

> <Donor>
2

> <RotBonds>
4

> <HAC>
29

> <Collection>
General

$$$$
F1374-2249
  -ISIS-  06222321442D

 26 28  0  0  0  0  0  0  0  0999 V2000
    8.3375   -2.0917    0.0000 N   0  0  3  0  0  0  0  0  0  0  0  0
    5.7875   -3.2542    0.0000 C   0  0  0  0  0  0  0  0  0  0  0  0
    5.1167   -3.7292    0.0000 O   0  0  0  0  0  0  0  0  0  0  0  0
    4.4500   -3.2542    0.0000 C   0  0  0  0  0  0  0  0  0  0  0  0
    4.7042   -2.4667    0.0000 N   0  0  0  0  0  0  0  0  0  0  0  0
    5.5292   -2.4667    0.0000 N   0  0  0  0  0  0  0  0  0  0  0  0
    6.5667   -3.5042    0.0000 N   0  0  0  0  0  0  0  0  0  0  0  0
    9.1417   -1.9167    0.0000 C   0  0  0  0  0  0  0  0  0  0  0  0
    7.9042   -1.3917    0.0000 C   0  0  0  0  0  0  0  0  0  0  0  0
    1.3042   -4.2750    0.0000 C   0  0  3  0  0  0  0  0  0  0  0  0
    7.1875   -2.9542    0.0000 C   0  0  0  0  0  0  0  0  0  0  0  0
    8.0167   -2.8542    0.0000 C   0  0  0  0  0  0  0  0  0  0  0  0
    3.6667   -3.5042    0.0000 C   0  0  0  0  0  0  0  0  0  0  0  0
    2.1042   -4.0167    0.0000 C   0  0  0  0  0  0  0  0  0  0  0  0
    8.4417   -0.7667    0.0000 C   0  0  0  0  0  0  0  0  0  0  0  0
    9.2125   -1.0875    0.0000 C   0  0  0  0  0  0  0  0  0  0  0  0
    7.0917   -1.3167    0.0000 O   0  0  0  0  0  0  0  0  0  0  0  0
    9.7625   -2.4542    0.0000 O   0  0  0  0  0  0  0  0  0  0  0  0
    6.9375   -2.3167    0.0000 O   0  0  0  0  0  0  0  0  0  0  0  0
    2.2750   -3.2042    0.0000 C   0  0  0  0  0  0  0  0  0  0  0  0
    2.7000   -4.5667    0.0000 C   0  0  0  0  0  0  0  0  0  0  0  0
    3.0500   -2.9542    0.0000 C   0  0  0  0  0  0  0  0  0  0  0  0
    3.4917   -4.3167    0.0000 C   0  0  0  0  0  0  0  0  0  0  0  0
    0.5792   -3.8042    0.0000 F   0  0  0  0  0  0  0  0  0  0  0  0
    0.9917   -5.0792    0.0000 F   0  0  0  0  0  0  0  0  0  0  0  0
    0.5917   -4.5000    0.0000 F   0  0  0  0  0  0  0  0  0  0  0  0
  2  7  1  0  0  0  0
  3  2  1  0  0  0  0
  4  3  1  0  0  0  0
  5  6  1  0  0  0  0
  6  2  2  0  0  0  0
  7 11  1  0  0  0  0
  8  1  1  0  0  0  0
  9  1  1  0  0  0  0
 10 14  1  0  0  0  0
 11 12  1  0  0  0  0
 12  1  1  0  0  0  0
 13  4  1  0  0  0  0
 14 21  1  0  0  0  0
 15  9  1  0  0  0  0
 16  8  1  0  0  0  0
 17  9  2  0  0  0  0
 18  8  2  0  0  0  0
 19 11  2  0  0  0  0
 20 22  1  0  0  0  0
 21 23  2  0  0  0  0
 22 13  2  0  0  0  0
 23 13  1  0  0  0  0
 24 10  1  0  0  0  0
 25 10  1  0  0  0  0
 26 10  1  0  0  0  0
 16 15  1  0  0  0  0
  4  5  2  0  0  0  0
 14 20  2  0  0  0  0
M  END
> <IDNUMBER>
F1374-2249

> <Chemical_Name>
2-(2,5-dioxopyrrolidin-1-yl)-N-{5-[4-(trifluoromethyl)phenyl]-1,3,4-oxadiazol-2-yl}acetamide

> <CAS>
1172450-99-5

> <PriceCoeff>
1.00

> <MW>
368.27

> <Description>
solid

> <FSP3>
0.27

> <clogP>
1.31

> <TPSA>
105.40

> <Acceptor>
6

> <Donor>
1

> <RotBonds>
4

> <HAC>
26

> <Collection>
General

$$$$
F0327-0306
  -ISIS-  06222321142D

 28 31  0  0  0  0  0  0  0  0999 V2000
   -3.0208    0.7208    0.0000 C   0  0  0  0  0  0  0  0  0  0  0  0
   -1.7833    0.3208    0.0000 C   0  0  0  0  0  0  0  0  0  0  0  0
   -3.0208   -0.0792    0.0000 C   0  0  0  0  0  0  0  0  0  0  0  0
   -2.2458   -0.3167    0.0000 N   0  0  0  0  0  0  0  0  0  0  0  0
    2.6375   -0.3542    0.0000 N   0  0  3  0  0  0  0  0  0  0  0  0
   -2.2458    0.9833    0.0000 S   0  0  0  0  0  0  0  0  0  0  0  0
   -0.9833    0.3208    0.0000 N   0  0  0  0  0  0  0  0  0  0  0  0
   -3.7208    1.1208    0.0000 C   0  0  0  0  0  0  0  0  0  0  0  0
   -0.6000   -0.3542    0.0000 C   0  0  0  0  0  0  0  0  0  0  0  0
    3.2000    0.2333    0.0000 C   0  0  0  0  0  0  0  0  0  0  0  0
    3.1792   -1.0542    0.0000 C   0  0  0  0  0  0  0  0  0  0  0  0
   -3.7208   -0.4792    0.0000 C   0  0  0  0  0  0  0  0  0  0  0  0
    1.8375   -0.3542    0.0000 C   0  0  0  0  0  0  0  0  0  0  0  0
   -4.4208   -0.0542    0.0000 C   0  0  3  0  0  0  0  0  0  0  0  0
   -4.4208    0.7208    0.0000 C   0  0  0  0  0  0  0  0  0  0  0  0
    0.2167   -0.3542    0.0000 C   0  0  0  0  0  0  0  0  0  0  0  0
   -3.7208    1.9458    0.0000 O   0  0  0  0  0  0  0  0  0  0  0  0
   -0.9833   -1.0542    0.0000 O   0  0  0  0  0  0  0  0  0  0  0  0
    3.9167   -0.0875    0.0000 C   0  0  0  0  0  0  0  0  0  0  0  0
    3.9167   -0.8542    0.0000 C   0  0  0  0  0  0  0  0  0  0  0  0
    3.0542    1.0500    0.0000 O   0  0  0  0  0  0  0  0  0  0  0  0
    2.8167   -1.8042    0.0000 O   0  0  0  0  0  0  0  0  0  0  0  0
    1.4375   -1.0542    0.0000 C   0  0  0  0  0  0  0  0  0  0  0  0
    1.4375    0.3458    0.0000 C   0  0  0  0  0  0  0  0  0  0  0  0
    0.6167   -1.0542    0.0000 C   0  0  0  0  0  0  0  0  0  0  0  0
    0.6375    0.3458    0.0000 C   0  0  0  0  0  0  0  0  0  0  0  0
   -5.1208    0.3458    0.0000 C   0  0  0  0  0  0  0  0  0  0  0  0
   -5.1208   -0.4542    0.0000 C   0  0  0  0  0  0  0  0  0  0  0  0
  2  6  1  0  0  0  0
  3  1  2  0  0  0  0
  4  3  1  0  0  0  0
  5 13  1  0  0  0  0
  6  1  1  0  0  0  0
  7  2  1  0  0  0  0
  8  1  1  0  0  0  0
  9  7  1  0  0  0  0
 10  5  1  0  0  0  0
 11  5  1  0  0  0  0
 12  3  1  0  0  0  0
 13 24  1  0  0  0  0
 14 15  1  0  0  0  0
 15  8  1  0  0  0  0
 16  9  1  0  0  0  0
 17  8  2  0  0  0  0
 18  9  2  0  0  0  0
 19 10  1  0  0  0  0
 20 11  1  0  0  0  0
 21 10  2  0  0  0  0
 22 11  2  0  0  0  0
 23 25  1  0  0  0  0
 24 26  2  0  0  0  0
 25 16  2  0  0  0  0
 26 16  1  0  0  0  0
 27 14  1  0  0  0  0
 28 14  1  0  0  0  0
  4  2  2  0  0  0  0
 12 14  1  0  0  0  0
 23 13  2  0  0  0  0
 20 19  1  0  0  0  0
M  END
> <IDNUMBER>
F0327-0306

> <Chemical_Name>
N-(5,5-dimethyl-7-oxo-4,5,6,7-tetrahydro-1,3-benzothiazol-2-yl)-4-(2,5-dioxopyrrolidin-1-yl)benzamide

> <CAS>
330200-75-4

> <PriceCoeff>
1.00

> <MW>
397.45

> <Description>
solid

> <FSP3>
0.35

> <clogP>
1.44

> <TPSA>
124.68

> <Acceptor>
5

> <Donor>
1

> <RotBonds>
3

> <HAC>
28

> <Collection>
General

$$$$
F1130-0015
  -ISIS-  06222321442D

 24 27  0  0  0  0  0  0  0  0999 V2000
    0.7792   -2.0375    0.0000 C   0  0  3  0  0  0  0  0  0  0  0  0
   -0.5458   -2.3542    0.0000 C   0  0  3  0  0  0  0  0  0  0  0  0
    1.4917   -1.6167    0.0000 C   0  0  0  0  0  0  0  0  0  0  0  0
    0.1917   -2.6917    0.0000 C   0  0  0  0  0  0  0  0  0  0  0  0
    0.0167   -2.1875    0.0000 C   0  0  0  0  0  0  0  0  0  0  0  0
    0.8167   -1.2167    0.0000 C   0  0  0  0  0  0  0  0  0  0  0  0
   -0.4583   -3.1750    0.0000 C   0  0  0  0  0  0  0  0  0  0  0  0
   -1.3583   -2.5417    0.0000 C   0  0  0  0  0  0  0  0  0  0  0  0
   -0.5083   -1.5042    0.0000 C   0  0  0  0  0  0  0  0  0  0  0  0
    1.4875   -0.7917    0.0000 N   0  0  0  0  0  0  0  0  0  0  0  0
   -0.6833   -1.8917    0.0000 C   0  0  3  0  0  0  0  0  0  0  0  0
    0.0792   -0.8750    0.0000 C   0  0  3  0  0  0  0  0  0  0  0  0
    2.9167   -0.7917    0.0000 C   0  0  0  0  0  0  0  0  0  0  0  0
    2.2042   -2.0292    0.0000 O   0  0  0  0  0  0  0  0  0  0  0  0
    2.9167   -1.6167    0.0000 O   0  0  0  0  0  0  0  0  0  0  0  0
   -0.6583   -1.0917    0.0000 C   0  0  0  0  0  0  0  0  0  0  0  0
   -1.1208   -3.6625    0.0000 C   0  0  0  0  0  0  0  0  0  0  0  0
    0.3000   -3.5042    0.0000 C   0  0  0  0  0  0  0  0  0  0  0  0
    2.1917   -0.3792    0.0000 C   0  0  0  0  0  0  0  0  0  0  0  0
    3.6292   -0.3750    0.0000 O   0  0  0  0  0  0  0  0  0  0  0  0
    0.3917   -4.3167    0.0000 C   0  0  0  0  0  0  0  0  0  0  0  0
   -1.0333   -4.4792    0.0000 C   0  0  0  0  0  0  0  0  0  0  0  0
   -0.2750   -4.8125    0.0000 C   0  0  0  0  0  0  0  0  0  0  0  0
   -0.1833   -5.6292    0.0000 C   0  0  0  0  0  0  0  0  0  0  0  0
  2  4  1  0  0  0  0
  3  1  1  0  0  0  0
  4  1  1  0  0  0  0
  5  1  1  0  0  0  0
  6  1  1  0  0  0  0
  7  2  1  0  0  0  0
  8 11  1  0  0  0  0
  9 12  1  0  0  0  0
 10  3  1  0  0  0  0
 11  5  1  0  0  0  0
 12  6  1  0  0  0  0
 13 19  1  0  0  0  0
 14  3  2  0  0  0  0
 15 13  2  0  0  0  0
 16 12  1  0  0  0  0
 17  7  2  0  0  0  0
 18  7  1  0  0  0  0
 19 10  1  0  0  0  0
 20 13  1  0  0  0  0
 21 18  2  0  0  0  0
 22 17  1  0  0  0  0
 23 21  1  0  0  0  0
 24 23  1  0  0  0  0
 16 11  1  0  0  0  0
  9  2  1  0  0  0  0
  8  2  1  0  0  0  0
 23 22  2  0  0  0  0
M  END
> <IDNUMBER>
F1130-0015

> <Chemical_Name>
2-{[3-(4-methylphenyl)adamantan-1-yl]formamido}acetic acid

> <CAS>
500198-50-5

> <PriceCoeff>
1.50

> <MW>
327.42

> <Description>
solid

> <FSP3>
0.60

> <clogP>
3.66

> <TPSA>
66.40

> <Acceptor>
3

> <Donor>
1

> <RotBonds>
4

> <HAC>
24

> <Collection>
Advanced

> <Reference_compound>
CHEMBL462299

> <Similarity>
0.8060

$$$$
F2518-0252
  -ISIS-  06222321142D

 24 26  0  0  0  0  0  0  0  0999 V2000
   -5.3083    3.8000    0.0000 N   0  0  3  0  0  0  0  0  0  0  0  0
   -3.5833    6.3000    0.0000 C   0  0  0  0  0  0  0  0  0  0  0  0
   -3.8333    5.5125    0.0000 O   0  0  0  0  0  0  0  0  0  0  0  0
   -3.1583    5.0292    0.0000 C   0  0  0  0  0  0  0  0  0  0  0  0
   -2.7583    6.2917    0.0000 N   0  0  0  0  0  0  0  0  0  0  0  0
   -2.4958    5.5167    0.0000 N   0  0  0  0  0  0  0  0  0  0  0  0
   -3.1583    4.2042    0.0000 N   0  0  0  0  0  0  0  0  0  0  0  0
   -6.0417    4.1292    0.0000 C   0  0  0  0  0  0  0  0  0  0  0  0
   -5.3833    2.9833    0.0000 C   0  0  0  0  0  0  0  0  0  0  0  0
   -4.0708    6.9417    0.0000 C   0  0  0  0  0  0  0  0  0  0  0  0
   -3.8708    3.8000    0.0000 C   0  0  0  0  0  0  0  0  0  0  0  0
   -4.5958    4.2125    0.0000 C   0  0  0  0  0  0  0  0  0  0  0  0
   -4.8708    6.8542    0.0000 C   0  0  0  0  0  0  0  0  0  0  0  0
   -3.7333    7.7042    0.0000 C   0  0  0  0  0  0  0  0  0  0  0  0
   -6.1792    2.8083    0.0000 C   0  0  0  0  0  0  0  0  0  0  0  0
   -6.5917    3.5208    0.0000 C   0  0  0  0  0  0  0  0  0  0  0  0
   -5.3625    7.5167    0.0000 C   0  0  0  0  0  0  0  0  0  0  0  0
   -4.7833    2.4333    0.0000 O   0  0  0  0  0  0  0  0  0  0  0  0
   -6.2167    4.9375    0.0000 O   0  0  0  0  0  0  0  0  0  0  0  0
   -3.8708    2.9833    0.0000 O   0  0  0  0  0  0  0  0  0  0  0  0
   -4.2083    8.3625    0.0000 C   0  0  0  0  0  0  0  0  0  0  0  0
   -5.0333    8.2792    0.0000 C   0  0  0  0  0  0  0  0  0  0  0  0
   -5.2083    6.1042    0.0000 C   0  0  0  0  0  0  0  0  0  0  0  0
   -5.5208    8.9375    0.0000 C   0  0  0  0  0  0  0  0  0  0  0  0
  2  3  1  0  0  0  0
  3  4  1  0  0  0  0
  4  7  1  0  0  0  0
  5  6  1  0  0  0  0
  6  4  2  0  0  0  0
  7 11  1  0  0  0  0
  8  1  1  0  0  0  0
  9  1  1  0  0  0  0
 10  2  1  0  0  0  0
 11 12  1  0  0  0  0
 12  1  1  0  0  0  0
 13 10  1  0  0  0  0
 14 10  2  0  0  0  0
 15  9  1  0  0  0  0
 16  8  1  0  0  0  0
 17 13  2  0  0  0  0
 18  9  2  0  0  0  0
 19  8  2  0  0  0  0
 20 11  2  0  0  0  0
 21 14  1  0  0  0  0
 22 21  2  0  0  0  0
 23 13  1  0  0  0  0
 24 22  1  0  0  0  0
 16 15  1  0  0  0  0
  5  2  2  0  0  0  0
 22 17  1  0  0  0  0
M  END
> <IDNUMBER>
F2518-0252

> <Chemical_Name>
N-[5-(2,4-dimethylphenyl)-1,3,4-oxadiazol-2-yl]-2-(2,5-dioxopyrrolidin-1-yl)acetamide

> <CAS>
891114-40-2

> <PriceCoeff>
1.00

> <MW>
328.32

> <Description>
solid

> <FSP3>
0.31

> <clogP>
1.10

> <TPSA>
105.40

> <Acceptor>
6

> <Donor>
1

> <RotBonds>
4

> <HAC>
24

> <Collection>
General

$$$$
F3115-0085
  -ISIS-  06222321152D

 30 33  0  0  0  0  0  0  0  0999 V2000
    5.3125   -4.9750    0.0000 N   0  0  3  0  0  0  0  0  0  0  0  0
    5.8042   -5.6417    0.0000 C   0  0  0  0  0  0  0  0  0  0  0  0
    5.7917   -4.3042    0.0000 C   0  0  0  0  0  0  0  0  0  0  0  0
    6.5875   -5.3792    0.0000 C   0  0  3  0  0  0  0  0  0  0  0  0
    6.5792   -4.5542    0.0000 C   0  0  0  0  0  0  0  0  0  0  0  0
    7.2542   -5.8542    0.0000 N   0  0  3  0  0  0  0  0  0  0  0  0
    8.5875   -6.8292    0.0000 N   0  0  3  0  0  0  0  0  0  0  0  0
    9.2542   -7.3125    0.0000 C   0  0  0  0  0  0  0  0  0  0  0  0
    2.0167   -4.9917    0.0000 N   0  0  3  0  0  0  0  0  0  0  0  0
    4.4875   -4.9792    0.0000 C   0  0  0  0  0  0  0  0  0  0  0  0
    5.5500   -6.4250    0.0000 O   0  0  0  0  0  0  0  0  0  0  0  0
    2.8417   -4.9875    0.0000 C   0  0  0  0  0  0  0  0  0  0  0  0
    5.5375   -3.5167    0.0000 O   0  0  0  0  0  0  0  0  0  0  0  0
    7.8292   -7.1625    0.0000 C   0  0  0  0  0  0  0  0  0  0  0  0
    8.6667   -6.0042    0.0000 C   0  0  0  0  0  0  0  0  0  0  0  0
    7.1667   -6.6792    0.0000 C   0  0  0  0  0  0  0  0  0  0  0  0
    8.0042   -5.5167    0.0000 C   0  0  0  0  0  0  0  0  0  0  0  0
   10.0042   -6.9750    0.0000 O   0  0  0  0  0  0  0  0  0  0  0  0
    4.0792   -5.6917    0.0000 C   0  0  0  0  0  0  0  0  0  0  0  0
    4.0750   -4.2667    0.0000 C   0  0  0  0  0  0  0  0  0  0  0  0
    3.2500   -4.2667    0.0000 C   0  0  0  0  0  0  0  0  0  0  0  0
    3.2625   -5.7000    0.0000 C   0  0  0  0  0  0  0  0  0  0  0  0
    0.3667   -5.0000    0.0000 O   0  0  0  0  0  0  0  0  0  0  0  0
    9.1667   -8.1292    0.0000 O   0  0  0  0  0  0  0  0  0  0  0  0
    1.6042   -4.2792    0.0000 C   0  0  0  0  0  0  0  0  0  0  0  0
    1.6125   -5.7125    0.0000 C   0  0  0  0  0  0  0  0  0  0  0  0
    0.7875   -5.7125    0.0000 C   0  0  0  0  0  0  0  0  0  0  0  0
    0.7792   -4.2792    0.0000 C   0  0  0  0  0  0  0  0  0  0  0  0
    9.8375   -8.6167    0.0000 C   0  0  0  0  0  0  0  0  0  0  0  0
    9.7542   -9.4375    0.0000 C   0  0  0  0  0  0  0  0  0  0  0  0
  2  1  1  0  0  0  0
  3  1  1  0  0  0  0
  4  2  1  0  0  0  0
  5  3  1  0  0  0  0
  6  4  1  0  0  0  0
  7 15  1  0  0  0  0
  8  7  1  0  0  0  0
  9 12  1  0  0  0  0
 10  1  1  0  0  0  0
 11  2  2  0  0  0  0
 12 21  2  0  0  0  0
 13  3  2  0  0  0  0
 14 16  1  0  0  0  0
 15 17  1  0  0  0  0
 16  6  1  0  0  0  0
 17  6  1  0  0  0  0
 18  8  2  0  0  0  0
 19 10  1  0  0  0  0
 20 10  2  0  0  0  0
 21 20  1  0  0  0  0
 22 19  2  0  0  0  0
 23 27  1  0  0  0  0
 24  8  1  0  0  0  0
 25  9  1  0  0  0  0
 26  9  1  0  0  0  0
 27 26  1  0  0  0  0
 28 25  1  0  0  0  0
 29 24  1  0  0  0  0
 30 29  1  0  0  0  0
  4  5  1  0  0  0  0
 12 22  1  0  0  0  0
  7 14  1  0  0  0  0
 23 28  1  0  0  0  0
M  END
> <IDNUMBER>
F3115-0085

> <Chemical_Name>
ethyl 4-{1-[4-(morpholin-4-yl)phenyl]-2,5-dioxopyrrolidin-3-yl}piperazine-1-carboxylate

> <CAS>
838897-15-7

> <PriceCoeff>
1.00

> <MW>
416.47

> <Description>
solid

> <FSP3>
0.57

> <clogP>
1.83

> <TPSA>
82.63

> <Acceptor>
6

> <Donor>
2

> <RotBonds>
6

> <HAC>
30

> <Collection>
General

$$$$
F0440-0334
  -ISIS-  06222321452D

 24 26  0  0  0  0  0  0  0  0999 V2000
    3.3000    1.7333    0.0000 N   0  0  3  0  0  0  0  0  0  0  0  0
    0.9500    0.4333    0.0000 C   0  0  0  0  0  0  0  0  0  0  0  0
    0.5042   -0.2000    0.0000 N   0  0  0  0  0  0  0  0  0  0  0  0
   -0.2458    0.0333    0.0000 C   0  0  0  0  0  0  0  0  0  0  0  0
    1.7292    0.4333    0.0000 N   0  0  0  0  0  0  0  0  0  0  0  0
    3.0500    2.4708    0.0000 C   0  0  0  0  0  0  0  0  0  0  0  0
    4.0667    1.7125    0.0000 C   0  0  0  0  0  0  0  0  0  0  0  0
    0.5042    1.0500    0.0000 S   0  0  0  0  0  0  0  0  0  0  0  0
    2.1042    1.0958    0.0000 C   0  0  0  0  0  0  0  0  0  0  0  0
   -0.2458    0.8125    0.0000 C   0  0  0  0  0  0  0  0  0  0  0  0
    2.9000    1.0708    0.0000 C   0  0  0  0  0  0  0  0  0  0  0  0
   -0.9000   -0.3500    0.0000 C   0  0  0  0  0  0  0  0  0  0  0  0
    3.7000    2.9125    0.0000 C   0  0  0  0  0  0  0  0  0  0  0  0
    4.3042    2.4583    0.0000 C   0  0  0  0  0  0  0  0  0  0  0  0
    2.3042    2.7500    0.0000 O   0  0  0  0  0  0  0  0  0  0  0  0
    4.5042    1.0708    0.0000 O   0  0  0  0  0  0  0  0  0  0  0  0
    1.7292    1.7708    0.0000 O   0  0  0  0  0  0  0  0  0  0  0  0
   -0.9000   -1.1167    0.0000 C   0  0  0  0  0  0  0  0  0  0  0  0
   -1.5833    0.0333    0.0000 C   0  0  0  0  0  0  0  0  0  0  0  0
   -2.2625   -1.1500    0.0000 C   0  0  0  0  0  0  0  0  0  0  0  0
   -2.2625   -0.3500    0.0000 C   0  0  0  0  0  0  0  0  0  0  0  0
   -1.5833   -1.5167    0.0000 C   0  0  0  0  0  0  0  0  0  0  0  0
   -2.9458   -1.5542    0.0000 O   0  0  0  0  0  0  0  0  0  0  0  0
   -2.9208   -2.3500    0.0000 C   0  0  0  0  0  0  0  0  0  0  0  0
  2  5  1  0  0  0  0
  3  2  2  0  0  0  0
  4  3  1  0  0  0  0
  5  9  1  0  0  0  0
  6  1  1  0  0  0  0
  7  1  1  0  0  0  0
  8  2  1  0  0  0  0
  9 11  1  0  0  0  0
 10  8  1  0  0  0  0
 11  1  1  0  0  0  0
 12  4  1  0  0  0  0
 13  6  1  0  0  0  0
 14  7  1  0  0  0  0
 15  6  2  0  0  0  0
 16  7  2  0  0  0  0
 17  9  2  0  0  0  0
 18 12  1  0  0  0  0
 19 12  2  0  0  0  0
 20 21  2  0  0  0  0
 21 19  1  0  0  0  0
 22 18  2  0  0  0  0
 23 20  1  0  0  0  0
 24 23  1  0  0  0  0
 14 13  1  0  0  0  0
 10  4  2  0  0  0  0
 20 22  1  0  0  0  0
M  END
> <IDNUMBER>
F0440-0334

> <Chemical_Name>
2-(2,5-dioxopyrrolidin-1-yl)-N-[4-(4-methoxyphenyl)-1,3-thiazol-2-yl]acetamide

> <CAS>
361167-69-3

> <PriceCoeff>
1.00

> <MW>
345.37

> <Description>
solid

> <FSP3>
0.25

> <clogP>
1.97

> <TPSA>
116.84

> <Acceptor>
5

> <Donor>
1

> <RotBonds>
5

> <HAC>
24

> <Collection>
General

$$$$
F0440-0346
  -ISIS-  06222321452D

 24 26  0  0  0  0  0  0  0  0999 V2000
    1.5792   -0.6500    0.0000 N   0  0  3  0  0  0  0  0  0  0  0  0
   -0.5708   -1.8792    0.0000 C   0  0  0  0  0  0  0  0  0  0  0  0
   -0.9958   -2.4542    0.0000 N   0  0  0  0  0  0  0  0  0  0  0  0
   -1.6708   -2.2500    0.0000 C   0  0  0  0  0  0  0  0  0  0  0  0
    0.1500   -1.8792    0.0000 N   0  0  0  0  0  0  0  0  0  0  0  0
    1.3542    0.0333    0.0000 C   0  0  0  0  0  0  0  0  0  0  0  0
    2.3000   -0.6500    0.0000 C   0  0  0  0  0  0  0  0  0  0  0  0
   -0.9958   -1.3000    0.0000 S   0  0  0  0  0  0  0  0  0  0  0  0
   -2.3125   -2.6000    0.0000 C   0  0  0  0  0  0  0  0  0  0  0  0
   -1.6708   -1.5167    0.0000 C   0  0  0  0  0  0  0  0  0  0  0  0
    0.5000   -1.2542    0.0000 C   0  0  0  0  0  0  0  0  0  0  0  0
    1.2167   -1.2542    0.0000 C   0  0  0  0  0  0  0  0  0  0  0  0
    1.9500    0.4500    0.0000 C   0  0  0  0  0  0  0  0  0  0  0  0
    2.5167    0.0333    0.0000 C   0  0  0  0  0  0  0  0  0  0  0  0
   -2.3125   -3.3167    0.0000 C   0  0  0  0  0  0  0  0  0  0  0  0
    0.6792    0.2958    0.0000 O   0  0  0  0  0  0  0  0  0  0  0  0
    2.7167   -1.2500    0.0000 O   0  0  0  0  0  0  0  0  0  0  0  0
    0.1500   -0.6167    0.0000 O   0  0  0  0  0  0  0  0  0  0  0  0
   -1.6708   -3.6792    0.0000 O   0  0  0  0  0  0  0  0  0  0  0  0
   -2.9333   -2.2500    0.0000 C   0  0  0  0  0  0  0  0  0  0  0  0
   -2.9333   -3.6792    0.0000 C   0  0  0  0  0  0  0  0  0  0  0  0
   -1.0333   -3.3167    0.0000 C   0  0  0  0  0  0  0  0  0  0  0  0
   -3.5500   -2.6000    0.0000 C   0  0  0  0  0  0  0  0  0  0  0  0
   -3.5500   -3.3167    0.0000 C   0  0  0  0  0  0  0  0  0  0  0  0
  2  5  1  0  0  0  0
  3  2  2  0  0  0  0
  4  3  1  0  0  0  0
  5 11  1  0  0  0  0
  6  1  1  0  0  0  0
  7  1  1  0  0  0  0
  8  2  1  0  0  0  0
  9  4  1  0  0  0  0
 10  8  1  0  0  0  0
 11 12  1  0  0  0  0
 12  1  1  0  0  0  0
 13  6  1  0  0  0  0
 14  7  1  0  0  0  0
 15  9  1  0  0  0  0
 16  6  2  0  0  0  0
 17  7  2  0  0  0  0
 18 11  2  0  0  0  0
 19 15  1  0  0  0  0
 20  9  2  0  0  0  0
 21 15  2  0  0  0  0
 22 19  1  0  0  0  0
 23 20  1  0  0  0  0
 24 23  2  0  0  0  0
 14 13  1  0  0  0  0
 10  4  2  0  0  0  0
 21 24  1  0  0  0  0
M  END
> <IDNUMBER>
F0440-0346

> <Chemical_Name>
2-(2,5-dioxopyrrolidin-1-yl)-N-[4-(2-methoxyphenyl)-1,3-thiazol-2-yl]acetamide

> <CAS>
392324-65-1

> <PriceCoeff>
1.00

> <MW>
345.37

> <Description>
solid

> <FSP3>
0.25

> <clogP>
1.41

> <TPSA>
116.84

> <Acceptor>
5

> <Donor>
1

> <RotBonds>
5

> <HAC>
24

> <Collection>
General

$$$$
F1813-0838
  -ISIS-  06222321142D

 22 24  0  0  0  0  0  0  0  0999 V2000
   -6.0000    3.3958    0.0000 C   0  0  0  0  0  0  0  0  0  0  0  0
   -3.8708    4.6250    0.0000 N   0  0  3  0  0  0  0  0  0  0  0  0
   -6.8917    2.3958    0.0000 C   0  0  0  0  0  0  0  0  0  0  0  0
   -6.0792    2.5625    0.0000 N   0  0  0  0  0  0  0  0  0  0  0  0
   -6.7542    3.7333    0.0000 S   0  0  0  0  0  0  0  0  0  0  0  0
   -5.2958    3.8083    0.0000 N   0  0  0  0  0  0  0  0  0  0  0  0
   -7.3042    1.6833    0.0000 C   0  0  0  0  0  0  0  0  0  0  0  0
   -7.3042    3.1083    0.0000 C   0  0  0  0  0  0  0  0  0  0  0  0
   -4.5333    5.0917    0.0000 C   0  0  0  0  0  0  0  0  0  0  0  0
   -3.2000    5.0917    0.0000 C   0  0  0  0  0  0  0  0  0  0  0  0
   -4.5833    3.3958    0.0000 C   0  0  0  0  0  0  0  0  0  0  0  0
   -3.8708    3.8000    0.0000 C   0  0  0  0  0  0  0  0  0  0  0  0
   -8.1292    1.6833    0.0000 C   0  0  0  0  0  0  0  0  0  0  0  0
   -3.4583    5.8875    0.0000 C   0  0  0  0  0  0  0  0  0  0  0  0
   -4.2833    5.8792    0.0000 C   0  0  0  0  0  0  0  0  0  0  0  0
   -2.4208    4.8375    0.0000 O   0  0  0  0  0  0  0  0  0  0  0  0
   -5.3208    4.8542    0.0000 O   0  0  0  0  0  0  0  0  0  0  0  0
   -8.1292    3.1083    0.0000 C   0  0  0  0  0  0  0  0  0  0  0  0
   -4.5833    2.5708    0.0000 O   0  0  0  0  0  0  0  0  0  0  0  0
   -8.5417    2.3958    0.0000 C   0  0  0  0  0  0  0  0  0  0  0  0
   -6.8917    0.9750    0.0000 Cl  0  0  0  0  0  0  0  0  0  0  0  0
   -8.5292    0.9750    0.0000 Cl  0  0  0  0  0  0  0  0  0  0  0  0
  2 12  1  0  0  0  0
  3  4  1  0  0  0  0
  4  1  2  0  0  0  0
  5  1  1  0  0  0  0
  6  1  1  0  0  0  0
  7  3  2  0  0  0  0
  8  5  1  0  0  0  0
  9  2  1  0  0  0  0
 10  2  1  0  0  0  0
 11  6  1  0  0  0  0
 12 11  1  0  0  0  0
 13  7  1  0  0  0  0
 14 10  1  0  0  0  0
 15  9  1  0  0  0  0
 16 10  2  0  0  0  0
 17  9  2  0  0  0  0
 18  8  2  0  0  0  0
 19 11  2  0  0  0  0
 20 18  1  0  0  0  0
 21  7  1  0  0  0  0
 22 13  1  0  0  0  0
  8  3  1  0  0  0  0
 20 13  2  0  0  0  0
 14 15  1  0  0  0  0
M  END
> <IDNUMBER>
F1813-0838

> <Chemical_Name>
N-(4,5-dichloro-1,3-benzothiazol-2-yl)-2-(2,5-dioxopyrrolidin-1-yl)acetamide

> <CAS>
868230-95-9

> <PriceCoeff>
1.00

> <MW>
358.20

> <Description>
solid

> <FSP3>
0.23

> <clogP>
2.76

> <TPSA>
107.61

> <Acceptor>
4

> <Donor>
1

> <RotBonds>
3

> <HAC>
22

> <Collection>
General

$$$$
F3385-0975
  -ISIS-  06222321462D

 26 28  0  0  0  0  0  0  0  0999 V2000
    1.4792   -0.5167    0.0000 C   0  0  0  0  0  0  0  0  0  0  0  0
    0.7667   -0.9292    0.0000 C   0  0  0  0  0  0  0  0  0  0  0  0
    0.0542   -0.5292    0.0000 C   0  0  0  0  0  0  0  0  0  0  0  0
    1.4750    0.3125    0.0000 C   0  0  0  0  0  0  0  0  0  0  0  0
    0.0417    0.3000    0.0000 C   0  0  0  0  0  0  0  0  0  0  0  0
    2.1917   -0.9250    0.0000 C   0  0  0  0  0  0  0  0  0  0  0  0
    0.7542    0.7208    0.0000 O   0  0  0  0  0  0  0  0  0  0  0  0
    2.9042   -0.5042    0.0000 C   0  0  0  0  0  0  0  0  0  0  0  0
   -0.6583   -0.9375    0.0000 C   0  0  0  0  0  0  0  0  0  0  0  0
   -0.6708    0.7083    0.0000 C   0  0  0  0  0  0  0  0  0  0  0  0
    3.6167   -0.9125    0.0000 C   0  0  0  0  0  0  0  0  0  0  0  0
   -3.5250    0.6958    0.0000 C   0  0  0  0  0  0  0  0  0  0  0  0
    0.7750   -1.7542    0.0000 O   0  0  0  0  0  0  0  0  0  0  0  0
    3.6292   -1.7417    0.0000 C   0  0  0  0  0  0  0  0  0  0  0  0
    2.1917   -1.7500    0.0000 C   0  0  0  0  0  0  0  0  0  0  0  0
   -3.5333    1.5208    0.0000 O   0  0  0  0  0  0  0  0  0  0  0  0
    2.9167   -2.1542    0.0000 C   0  0  0  0  0  0  0  0  0  0  0  0
   -1.3833    0.2958    0.0000 C   0  0  0  0  0  0  0  0  0  0  0  0
   -2.0958    0.7000    0.0000 O   0  0  0  0  0  0  0  0  0  0  0  0
   -2.8083    0.2833    0.0000 C   0  0  0  0  0  0  0  0  0  0  0  0
   -4.2375    0.2750    0.0000 N   0  0  0  0  0  0  0  0  0  0  0  0
   -1.3708   -0.5292    0.0000 C   0  0  0  0  0  0  0  0  0  0  0  0
    4.3292   -0.4917    0.0000 O   0  0  0  0  0  0  0  0  0  0  0  0
    4.3417   -2.1417    0.0000 O   0  0  0  0  0  0  0  0  0  0  0  0
    4.3167    0.3333    0.0000 C   0  0  0  0  0  0  0  0  0  0  0  0
    5.0542   -1.7292    0.0000 C   0  0  0  0  0  0  0  0  0  0  0  0
  2  1  1  0  0  0  0
  3  2  1  0  0  0  0
  4  1  2  0  0  0  0
  5  7  1  0  0  0  0
  6  1  1  0  0  0  0
  7  4  1  0  0  0  0
  8  6  1  0  0  0  0
  9  3  1  0  0  0  0
 10  5  1  0  0  0  0
 11  8  2  0  0  0  0
 12 20  1  0  0  0  0
 13  2  2  0  0  0  0
 14 17  2  0  0  0  0
 15  6  2  0  0  0  0
 16 12  2  0  0  0  0
 17 15  1  0  0  0  0
 18 10  2  0  0  0  0
 19 18  1  0  0  0  0
 20 19  1  0  0  0  0
 21 12  1  0  0  0  0
 22  9  2  0  0  0  0
 23 11  1  0  0  0  0
 24 14  1  0  0  0  0
 25 23  1  0  0  0  0
 26 24  1  0  0  0  0
  3  5  2  0  0  0  0
 14 11  1  0  0  0  0
 22 18  1  0  0  0  0
M  END
> <IDNUMBER>
F3385-0975

> <Chemical_Name>
2-{[3-(3,4-dimethoxyphenyl)-4-oxo-4H-chromen-7-yl]oxy}acetamide

> <CAS>
858762-25-1

> <PriceCoeff>
1.00

> <MW>
355.34

> <Description>
solid

> <FSP3>
0.16

> <clogP>
1.25

> <TPSA>
97.08

> <Acceptor>
6

> <Donor>
1

> <RotBonds>
6

> <HAC>
26

> <Collection>
General

> <Reference_compound>
CHEMBL455048

> <Similarity>
0.8450

$$$$
F2670-0026
  -ISIS-  06222321462D

 23 25  0  0  0  0  0  0  0  0999 V2000
   -5.2958    6.7000    0.0000 N   0  0  3  0  0  0  0  0  0  0  0  0
   -4.5833    6.2792    0.0000 C   0  0  0  0  0  0  0  0  0  0  0  0
   -4.5708    3.8000    0.0000 C   0  0  0  0  0  0  0  0  0  0  0  0
   -6.0042    6.2792    0.0000 C   0  0  0  0  0  0  0  0  0  0  0  0
   -3.8583    4.2125    0.0000 N   0  0  0  0  0  0  0  0  0  0  0  0
   -4.5833    5.4542    0.0000 C   0  0  0  0  0  0  0  0  0  0  0  0
   -4.5833    2.9833    0.0000 C   0  0  0  0  0  0  0  0  0  0  0  0
   -3.8583    5.0417    0.0000 C   0  0  0  0  0  0  0  0  0  0  0  0
   -3.8583    6.6917    0.0000 C   0  0  0  0  0  0  0  0  0  0  0  0
   -5.2958    4.2042    0.0000 O   0  0  0  0  0  0  0  0  0  0  0  0
   -6.0042    5.4542    0.0000 O   0  0  0  0  0  0  0  0  0  0  0  0
   -5.2958    2.5833    0.0000 C   0  0  0  0  0  0  0  0  0  0  0  0
   -3.1375    6.2792    0.0000 C   0  0  0  0  0  0  0  0  0  0  0  0
   -5.2875    7.5292    0.0000 C   0  0  0  0  0  0  0  0  0  0  0  0
   -5.3083    1.7458    0.0000 C   0  0  0  0  0  0  0  0  0  0  0  0
   -3.1458    5.4542    0.0000 C   0  0  0  0  0  0  0  0  0  0  0  0
   -6.0125    1.3333    0.0000 Cl  0  0  0  0  0  0  0  0  0  0  0  0
   -6.7167    6.7042    0.0000 C   0  0  0  0  0  0  0  0  0  0  0  0
   -3.8625    2.5583    0.0000 C   0  0  0  0  0  0  0  0  0  0  0  0
   -4.5708    7.9375    0.0000 C   0  0  0  0  0  0  0  0  0  0  0  0
   -3.8708    1.7333    0.0000 C   0  0  0  0  0  0  0  0  0  0  0  0
   -3.8583    7.5250    0.0000 C   0  0  0  0  0  0  0  0  0  0  0  0
   -4.5958    1.3250    0.0000 C   0  0  0  0  0  0  0  0  0  0  0  0
  2  1  1  0  0  0  0
  3  5  1  0  0  0  0
  4  1  1  0  0  0  0
  5  8  1  0  0  0  0
  6  2  1  0  0  0  0
  7  3  1  0  0  0  0
  8  6  2  0  0  0  0
  9  2  2  0  0  0  0
 10  3  2  0  0  0  0
 11  4  2  0  0  0  0
 12  7  2  0  0  0  0
 13  9  1  0  0  0  0
 14  1  1  0  0  0  0
 15 12  1  0  0  0  0
 16 13  2  0  0  0  0
 17 15  1  0  0  0  0
 18  4  1  0  0  0  0
 19  7  1  0  0  0  0
 20 14  1  0  0  0  0
 21 19  2  0  0  0  0
 22 20  1  0  0  0  0
 23 21  1  0  0  0  0
  9 22  1  0  0  0  0
  8 16  1  0  0  0  0
 23 15  2  0  0  0  0
M  END
> <IDNUMBER>
F2670-0026

> <Chemical_Name>
N-(1-acetyl-1,2,3,4-tetrahydroquinolin-7-yl)-3-chlorobenzamide

> <CAS>
898423-63-7

> <PriceCoeff>
1.00

> <MW>
328.79

> <Description>
solid

> <FSP3>
0.22

> <clogP>
3.19

> <TPSA>
49.41

> <Acceptor>
2

> <Donor>
1

> <RotBonds>
3

> <HAC>
23

> <Collection>
General

> <Reference_compound>
CHEMBL2286415

> <Similarity>
0.8370

$$$$
F0327-0391
  -ISIS-  06222321142D

 28 31  0  0  0  0  0  0  0  0999 V2000
    0.3792   -0.2500    0.0000 C   0  0  0  0  0  0  0  0  0  0  0  0
   -0.0208    0.3500    0.0000 C   0  0  0  0  0  0  0  0  0  0  0  0
    4.4792   -0.8875    0.0000 N   0  0  3  0  0  0  0  0  0  0  0  0
   -0.0833   -0.8500    0.0000 S   0  0  0  0  0  0  0  0  0  0  0  0
   -0.7500    0.1625    0.0000 C   0  0  0  0  0  0  0  0  0  0  0  0
    1.1167   -0.2500    0.0000 N   0  0  0  0  0  0  0  0  0  0  0  0
   -0.7500   -0.5500    0.0000 C   0  0  0  0  0  0  0  0  0  0  0  0
    1.4792   -0.8875    0.0000 C   0  0  0  0  0  0  0  0  0  0  0  0
    4.8375   -1.5292    0.0000 C   0  0  0  0  0  0  0  0  0  0  0  0
    4.9792   -0.3292    0.0000 C   0  0  0  0  0  0  0  0  0  0  0  0
    0.2542    1.0333    0.0000 C   0  0  0  0  0  0  0  0  0  0  0  0
    3.7167   -0.8875    0.0000 C   0  0  0  0  0  0  0  0  0  0  0  0
    2.2375   -0.8875    0.0000 C   0  0  0  0  0  0  0  0  0  0  0  0
    1.1167   -1.5292    0.0000 O   0  0  0  0  0  0  0  0  0  0  0  0
    5.6542   -0.6292    0.0000 C   0  0  0  0  0  0  0  0  0  0  0  0
    5.5542   -1.3667    0.0000 C   0  0  0  0  0  0  0  0  0  0  0  0
    4.8167    0.4333    0.0000 O   0  0  0  0  0  0  0  0  0  0  0  0
    4.5542   -2.2292    0.0000 O   0  0  0  0  0  0  0  0  0  0  0  0
    1.0292    1.2000    0.0000 O   0  0  0  0  0  0  0  0  0  0  0  0
    3.3542   -1.5292    0.0000 C   0  0  0  0  0  0  0  0  0  0  0  0
    3.3542   -0.2500    0.0000 C   0  0  0  0  0  0  0  0  0  0  0  0
    2.6000   -0.2500    0.0000 C   0  0  0  0  0  0  0  0  0  0  0  0
    2.6000   -1.5292    0.0000 C   0  0  0  0  0  0  0  0  0  0  0  0
   -0.2208    1.5333    0.0000 N   0  0  0  0  0  0  0  0  0  0  0  0
   -1.4000    0.5500    0.0000 C   0  0  0  0  0  0  0  0  0  0  0  0
   -1.4333   -0.9375    0.0000 C   0  0  0  0  0  0  0  0  0  0  0  0
   -2.0500    0.1958    0.0000 C   0  0  0  0  0  0  0  0  0  0  0  0
   -2.0458   -0.5875    0.0000 C   0  0  0  0  0  0  0  0  0  0  0  0
  2  1  2  0  0  0  0
  3 12  1  0  0  0  0
  4  1  1  0  0  0  0
  5  2  1  0  0  0  0
  6  1  1  0  0  0  0
  7  4  1  0  0  0  0
  8  6  1  0  0  0  0
  9  3  1  0  0  0  0
 10  3  1  0  0  0  0
 11  2  1  0  0  0  0
 12 20  2  0  0  0  0
 13  8  1  0  0  0  0
 14  8  2  0  0  0  0
 15 10  1  0  0  0  0
 16  9  1  0  0  0  0
 17 10  2  0  0  0  0
 18  9  2  0  0  0  0
 19 11  2  0  0  0  0
 20 23  1  0  0  0  0
 21 22  2  0  0  0  0
 22 13  1  0  0  0  0
 23 13  2  0  0  0  0
 24 11  1  0  0  0  0
 25  5  1  0  0  0  0
 26  7  1  0  0  0  0
 27 25  1  0  0  0  0
 28 26  1  0  0  0  0
  7  5  2  0  0  0  0
 28 27  1  0  0  0  0
 12 21  1  0  0  0  0
 16 15  1  0  0  0  0
M  END
> <IDNUMBER>
F0327-0391

> <Chemical_Name>
2-[4-(2,5-dioxopyrrolidin-1-yl)benzamido]-4,5,6,7-tetrahydro-1-benzothiophene-3-carboxamide

> <CAS>
329906-56-1

> <PriceCoeff>
1.00

> <MW>
397.45

> <Description>
solid

> <FSP3>
0.30

> <clogP>
1.32

> <TPSA>
137.81

> <Acceptor>
4

> <Donor>
2

> <RotBonds>
4

> <HAC>
28

> <Collection>
General

$$$$
F0440-0317
  -ISIS-  06222321142D

 23 25  0  0  0  0  0  0  0  0999 V2000
   -0.6208   -0.3792    0.0000 C   0  0  0  0  0  0  0  0  0  0  0  0
    1.8500   -1.9000    0.0000 N   0  0  3  0  0  0  0  0  0  0  0  0
   -1.1000   -1.0500    0.0000 N   0  0  0  0  0  0  0  0  0  0  0  0
   -1.1000    0.2958    0.0000 S   0  0  0  0  0  0  0  0  0  0  0  0
    0.2042   -0.4167    0.0000 N   0  0  0  0  0  0  0  0  0  0  0  0
    2.6500   -2.1000    0.0000 C   0  0  0  0  0  0  0  0  0  0  0  0
    1.4042   -2.6167    0.0000 C   0  0  0  0  0  0  0  0  0  0  0  0
   -1.9083    0.0500    0.0000 C   0  0  0  0  0  0  0  0  0  0  0  0
   -1.9083   -0.7792    0.0000 C   0  0  0  0  0  0  0  0  0  0  0  0
    0.6042   -1.1500    0.0000 C   0  0  0  0  0  0  0  0  0  0  0  0
    1.4500   -1.1792    0.0000 C   0  0  0  0  0  0  0  0  0  0  0  0
   -2.6208    0.4708    0.0000 C   0  0  0  0  0  0  0  0  0  0  0  0
    2.7042   -2.9500    0.0000 C   0  0  0  0  0  0  0  0  0  0  0  0
    1.9500   -3.2542    0.0000 C   0  0  0  0  0  0  0  0  0  0  0  0
    3.3042   -1.5542    0.0000 O   0  0  0  0  0  0  0  0  0  0  0  0
    0.5667   -2.6792    0.0000 O   0  0  0  0  0  0  0  0  0  0  0  0
    0.1667   -1.8542    0.0000 O   0  0  0  0  0  0  0  0  0  0  0  0
   -2.6208   -1.2000    0.0000 C   0  0  0  0  0  0  0  0  0  0  0  0
   -3.3458    0.0500    0.0000 C   0  0  0  0  0  0  0  0  0  0  0  0
   -3.3458   -0.7792    0.0000 C   0  0  0  0  0  0  0  0  0  0  0  0
   -4.0833    0.4708    0.0000 O   0  0  0  0  0  0  0  0  0  0  0  0
   -4.1000    1.3125    0.0000 C   0  0  0  0  0  0  0  0  0  0  0  0
   -4.8208    1.7500    0.0000 C   0  0  0  0  0  0  0  0  0  0  0  0
  2 11  1  0  0  0  0
  3  1  2  0  0  0  0
  4  1  1  0  0  0  0
  5  1  1  0  0  0  0
  6  2  1  0  0  0  0
  7  2  1  0  0  0  0
  8  4  1  0  0  0  0
  9  3  1  0  0  0  0
 10  5  1  0  0  0  0
 11 10  1  0  0  0  0
 12  8  1  0  0  0  0
 13  6  1  0  0  0  0
 14  7  1  0  0  0  0
 15  6  2  0  0  0  0
 16  7  2  0  0  0  0
 17 10  2  0  0  0  0
 18  9  1  0  0  0  0
 19 12  2  0  0  0  0
 20 18  2  0  0  0  0
 21 19  1  0  0  0  0
 22 21  1  0  0  0  0
 23 22  1  0  0  0  0
  9  8  2  0  0  0  0
 20 19  1  0  0  0  0
 14 13  1  0  0  0  0
M  END
> <IDNUMBER>
F0440-0317

> <Chemical_Name>
2-(2,5-dioxopyrrolidin-1-yl)-N-(6-ethoxy-1,3-benzothiazol-2-yl)acetamide

> <CAS>
476308-55-1

> <PriceCoeff>
1.00

> <MW>
333.36

> <Description>
solid

> <FSP3>
0.33

> <clogP>
2.27

> <TPSA>
116.84

> <Acceptor>
5

> <Donor>
1

> <RotBonds>
5

> <HAC>
23

> <Collection>
General

$$$$
F2670-0038
  -ISIS-  06222321152D

 23 25  0  0  0  0  0  0  0  0999 V2000
   -5.2958    6.7000    0.0000 N   0  0  3  0  0  0  0  0  0  0  0  0
   -4.5833    6.2792    0.0000 C   0  0  0  0  0  0  0  0  0  0  0  0
   -4.5708    3.8000    0.0000 C   0  0  0  0  0  0  0  0  0  0  0  0
   -6.0042    6.2792    0.0000 C   0  0  0  0  0  0  0  0  0  0  0  0
   -3.8583    4.2125    0.0000 N   0  0  0  0  0  0  0  0  0  0  0  0
   -4.5833    5.4542    0.0000 C   0  0  0  0  0  0  0  0  0  0  0  0
   -4.5708    2.9625    0.0000 C   0  0  0  0  0  0  0  0  0  0  0  0
   -3.8583    5.0417    0.0000 C   0  0  0  0  0  0  0  0  0  0  0  0
   -3.8583    6.6917    0.0000 C   0  0  0  0  0  0  0  0  0  0  0  0
   -5.2833    4.2042    0.0000 O   0  0  0  0  0  0  0  0  0  0  0  0
   -6.0042    5.4542    0.0000 O   0  0  0  0  0  0  0  0  0  0  0  0
   -3.1375    6.2792    0.0000 C   0  0  0  0  0  0  0  0  0  0  0  0
   -3.8333    2.5625    0.0000 C   0  0  0  0  0  0  0  0  0  0  0  0
   -5.2708    2.5583    0.0000 C   0  0  0  0  0  0  0  0  0  0  0  0
   -5.2875    7.5292    0.0000 C   0  0  0  0  0  0  0  0  0  0  0  0
   -3.1458    5.4542    0.0000 C   0  0  0  0  0  0  0  0  0  0  0  0
   -4.5500    1.3208    0.0000 C   0  0  0  0  0  0  0  0  0  0  0  0
   -5.2583    1.7333    0.0000 C   0  0  0  0  0  0  0  0  0  0  0  0
   -3.8250    1.7583    0.0000 C   0  0  0  0  0  0  0  0  0  0  0  0
   -4.5500    0.4875    0.0000 Cl  0  0  0  0  0  0  0  0  0  0  0  0
   -6.7167    6.7042    0.0000 C   0  0  0  0  0  0  0  0  0  0  0  0
   -4.5708    7.9375    0.0000 C   0  0  0  0  0  0  0  0  0  0  0  0
   -3.8583    7.5250    0.0000 C   0  0  0  0  0  0  0  0  0  0  0  0
  2  1  1  0  0  0  0
  3  5  1  0  0  0  0
  4  1  1  0  0  0  0
  5  8  1  0  0  0  0
  6  2  1  0  0  0  0
  7  3  1  0  0  0  0
  8  6  2  0  0  0  0
  9  2  2  0  0  0  0
 10  3  2  0  0  0  0
 11  4  2  0  0  0  0
 12  9  1  0  0  0  0
 13  7  1  0  0  0  0
 14  7  2  0  0  0  0
 15  1  1  0  0  0  0
 16 12  2  0  0  0  0
 17 18  2  0  0  0  0
 18 14  1  0  0  0  0
 19 13  2  0  0  0  0
 20 17  1  0  0  0  0
 21  4  1  0  0  0  0
 22 15  1  0  0  0  0
 23 22  1  0  0  0  0
  9 23  1  0  0  0  0
  8 16  1  0  0  0  0
 19 17  1  0  0  0  0
M  END
> <IDNUMBER>
F2670-0038

> <Chemical_Name>
N-(1-acetyl-1,2,3,4-tetrahydroquinolin-7-yl)-4-chlorobenzamide

> <CAS>
898465-05-9

> <PriceCoeff>
1.00

> <MW>
328.79

> <Description>
solid

> <FSP3>
0.22

> <clogP>
3.19

> <TPSA>
49.41

> <Acceptor>
2

> <Donor>
1

> <RotBonds>
3

> <HAC>
23

> <Collection>
General

> <Reference_compound>
CHEMBL2286415

> <Similarity>
0.8560

$$$$
F3228-0184
  -ISIS-  06222321152D

 21 23  0  0  0  0  0  0  0  0999 V2000
    3.5667   -2.5542    0.0000 C   0  0  0  0  0  0  0  0  0  0  0  0
    4.1792   -2.9125    0.0000 C   0  0  0  0  0  0  0  0  0  0  0  0
    4.7917   -2.5542    0.0000 C   0  0  0  0  0  0  0  0  0  0  0  0
    4.7917   -1.8417    0.0000 C   0  0  0  0  0  0  0  0  0  0  0  0
    3.5667   -1.8417    0.0000 C   0  0  0  0  0  0  0  0  0  0  0  0
    4.1792   -1.4875    0.0000 O   0  0  0  0  0  0  0  0  0  0  0  0
    2.9542   -2.9125    0.0000 C   0  0  0  0  0  0  0  0  0  0  0  0
    2.9542   -1.4917    0.0000 C   0  0  0  0  0  0  0  0  0  0  0  0
    2.3417   -2.5542    0.0000 C   0  0  0  0  0  0  0  0  0  0  0  0
    2.3417   -1.8500    0.0000 C   0  0  0  0  0  0  0  0  0  0  0  0
    4.1750   -3.6167    0.0000 O   0  0  0  0  0  0  0  0  0  0  0  0
    5.4042   -1.4917    0.0000 C   0  0  0  0  0  0  0  0  0  0  0  0
    2.9542   -3.6167    0.0000 O   0  0  0  0  0  0  0  0  0  0  0  0
    1.7292   -1.4917    0.0000 O   0  0  0  0  0  0  0  0  0  0  0  0
    5.4042   -0.7875    0.0000 C   0  0  0  0  0  0  0  0  0  0  0  0
    6.0167   -1.8500    0.0000 C   0  0  0  0  0  0  0  0  0  0  0  0
    3.5667   -3.9667    0.0000 C   0  0  0  0  0  0  0  0  0  0  0  0
    1.1167   -1.8500    0.0000 C   0  0  0  0  0  0  0  0  0  0  0  0
    6.6292   -1.4917    0.0000 C   0  0  0  0  0  0  0  0  0  0  0  0
    6.0167   -0.4292    0.0000 C   0  0  0  0  0  0  0  0  0  0  0  0
    6.6375   -0.7875    0.0000 C   0  0  0  0  0  0  0  0  0  0  0  0
  2  1  1  0  0  0  0
  3  2  1  0  0  0  0
  4  6  1  0  0  0  0
  5  1  1  0  0  0  0
  6  5  1  0  0  0  0
  7  1  2  0  0  0  0
  8  5  2  0  0  0  0
  9  7  1  0  0  0  0
 10  9  2  0  0  0  0
 11  2  2  0  0  0  0
 12  4  1  0  0  0  0
 13  7  1  0  0  0  0
 14 10  1  0  0  0  0
 15 12  1  0  0  0  0
 16 12  2  0  0  0  0
 17 13  1  0  0  0  0
 18 14  1  0  0  0  0
 19 16  1  0  0  0  0
 20 15  2  0  0  0  0
 21 19  2  0  0  0  0
 10  8  1  0  0  0  0
  4  3  2  0  0  0  0
 21 20  1  0  0  0  0
M  END
> <IDNUMBER>
F3228-0184

> <Chemical_Name>
5,7-dimethoxy-2-phenyl-4H-chromen-4-one

> <CAS>
21392-57-4

> <PriceCoeff>
1.00

> <MW>
282.29

> <Description>
solid

> <FSP3>
0.12

> <clogP>
3.62

> <TPSA>
44.76

> <Acceptor>
4

> <Donor>
0

> <RotBonds>
3

> <HAC>
21

> <Collection>
General

> <Reference_compound>
CHEMBL275638

> <Similarity>
0.9350

$$$$
F1105-0061
  -ISIS-  06222321452D

 25 27  0  0  0  0  0  0  0  0999 V2000
   -1.7375    5.2167    0.0000 C   0  0  0  0  0  0  0  0  0  0  0  0
   -1.3000    5.8375    0.0000 N   0  0  3  0  0  0  0  0  0  0  0  0
   -2.4500    5.4542    0.0000 C   0  0  0  0  0  0  0  0  0  0  0  0
   -1.7375    6.4292    0.0000 C   0  0  0  0  0  0  0  0  0  0  0  0
   -2.4500    6.2042    0.0000 C   0  0  0  0  0  0  0  0  0  0  0  0
   -3.0958    5.0792    0.0000 C   0  0  0  0  0  0  0  0  0  0  0  0
   -5.0458    1.7000    0.0000 C   0  0  3  0  0  0  0  0  0  0  0  0
   -3.7458    3.9583    0.0000 C   0  0  0  0  0  0  0  0  0  0  0  0
   -3.0958    4.3292    0.0000 N   0  0  0  0  0  0  0  0  0  0  0  0
   -4.3958    2.0833    0.0000 C   0  0  0  0  0  0  0  0  0  0  0  0
   -3.7458    3.2083    0.0000 C   0  0  0  0  0  0  0  0  0  0  0  0
   -4.3958    2.8333    0.0000 C   0  0  0  0  0  0  0  0  0  0  0  0
   -1.5083    4.5042    0.0000 O   0  0  0  0  0  0  0  0  0  0  0  0
   -1.5000    7.1542    0.0000 O   0  0  0  0  0  0  0  0  0  0  0  0
   -4.3958    4.3292    0.0000 O   0  0  0  0  0  0  0  0  0  0  0  0
   -5.7083    1.3208    0.0000 F   0  0  0  0  0  0  0  0  0  0  0  0
   -5.4250    2.3583    0.0000 F   0  0  0  0  0  0  0  0  0  0  0  0
   -4.6708    1.0458    0.0000 F   0  0  0  0  0  0  0  0  0  0  0  0
   -0.5500    5.8417    0.0000 C   0  0  0  0  0  0  0  0  0  0  0  0
   -3.0958    6.5792    0.0000 C   0  0  0  0  0  0  0  0  0  0  0  0
   -3.7458    5.4542    0.0000 C   0  0  0  0  0  0  0  0  0  0  0  0
   -3.7458    1.7083    0.0000 C   0  0  0  0  0  0  0  0  0  0  0  0
   -3.0958    2.8333    0.0000 C   0  0  0  0  0  0  0  0  0  0  0  0
   -3.7458    6.2042    0.0000 C   0  0  0  0  0  0  0  0  0  0  0  0
   -3.0958    2.0833    0.0000 C   0  0  0  0  0  0  0  0  0  0  0  0
  2  1  1  0  0  0  0
  3  1  1  0  0  0  0
  4  2  1  0  0  0  0
  5  3  2  0  0  0  0
  6  3  1  0  0  0  0
  7 10  1  0  0  0  0
  8  9  1  0  0  0  0
  9  6  1  0  0  0  0
 10 12  1  0  0  0  0
 11  8  1  0  0  0  0
 12 11  2  0  0  0  0
 13  1  2  0  0  0  0
 14  4  2  0  0  0  0
 15  8  2  0  0  0  0
 16  7  1  0  0  0  0
 17  7  1  0  0  0  0
 18  7  1  0  0  0  0
 19  2  1  0  0  0  0
 20  5  1  0  0  0  0
 21  6  2  0  0  0  0
 22 25  1  0  0  0  0
 23 11  1  0  0  0  0
 24 21  1  0  0  0  0
 25 23  2  0  0  0  0
  5  4  1  0  0  0  0
 20 24  2  0  0  0  0
 10 22  2  0  0  0  0
M  END
> <IDNUMBER>
F1105-0061

> <Chemical_Name>
N-(2-methyl-1,3-dioxo-2,3-dihydro-1H-isoindol-4-yl)-3-(trifluoromethyl)benzamide

> <CAS>
683232-17-9

> <PriceCoeff>
1.00

> <MW>
348.28

> <Description>
solid

> <FSP3>
0.12

> <clogP>
3.50

> <TPSA>
66.48

> <Acceptor>
3

> <Donor>
1

> <RotBonds>
2

> <HAC>
25

> <Collection>
General

> <Reference_compound>
CHEMBL198218

> <Similarity>
0.8320

$$$$
F3325-0128
  -ISIS-  06222321152D

 28 31  0  0  0  0  0  0  0  0999 V2000
    4.8792   -1.3250    0.0000 N   0  0  3  0  0  0  0  0  0  0  0  0
    5.3667   -1.9917    0.0000 C   0  0  0  0  0  0  0  0  0  0  0  0
    5.3625   -0.6542    0.0000 C   0  0  0  0  0  0  0  0  0  0  0  0
    6.1542   -1.7292    0.0000 C   0  0  3  0  0  0  0  0  0  0  0  0
    6.1417   -0.9042    0.0000 C   0  0  0  0  0  0  0  0  0  0  0  0
    6.8167   -2.2125    0.0000 N   0  0  3  0  0  0  0  0  0  0  0  0
    4.0542   -1.3292    0.0000 C   0  0  0  0  0  0  0  0  0  0  0  0
    8.1542   -3.1750    0.0000 N   0  0  3  0  0  0  0  0  0  0  0  0
    5.1167   -2.7750    0.0000 O   0  0  0  0  0  0  0  0  0  0  0  0
    5.1042    0.1333    0.0000 O   0  0  0  0  0  0  0  0  0  0  0  0
    3.6417   -0.6167    0.0000 C   0  0  0  0  0  0  0  0  0  0  0  0
    6.7292   -3.0292    0.0000 C   0  0  0  0  0  0  0  0  0  0  0  0
    7.5667   -1.8667    0.0000 C   0  0  0  0  0  0  0  0  0  0  0  0
    8.8250   -3.6542    0.0000 C   0  0  0  0  0  0  0  0  0  0  0  0
    7.4000   -3.5125    0.0000 C   0  0  0  0  0  0  0  0  0  0  0  0
    8.2375   -2.3542    0.0000 C   0  0  0  0  0  0  0  0  0  0  0  0
    9.5750   -3.3250    0.0000 C   0  0  0  0  0  0  0  0  0  0  0  0
    4.0500    0.0958    0.0000 O   0  0  0  0  0  0  0  0  0  0  0  0
    3.6500   -2.0417    0.0000 C   0  0  0  0  0  0  0  0  0  0  0  0
    2.8167   -0.6250    0.0000 C   0  0  0  0  0  0  0  0  0  0  0  0
   10.2417   -3.8042    0.0000 C   0  0  0  0  0  0  0  0  0  0  0  0
    9.6542   -2.5042    0.0000 C   0  0  0  0  0  0  0  0  0  0  0  0
    3.4625    0.6833    0.0000 C   0  0  0  0  0  0  0  0  0  0  0  0
    2.8292   -2.0542    0.0000 C   0  0  0  0  0  0  0  0  0  0  0  0
    2.4042   -1.3417    0.0000 C   0  0  0  0  0  0  0  0  0  0  0  0
   10.9917   -3.4667    0.0000 C   0  0  0  0  0  0  0  0  0  0  0  0
   10.4042   -2.1667    0.0000 C   0  0  0  0  0  0  0  0  0  0  0  0
   11.0792   -2.6500    0.0000 C   0  0  0  0  0  0  0  0  0  0  0  0
  2  1  1  0  0  0  0
  3  1  1  0  0  0  0
  4  2  1  0  0  0  0
  5  3  1  0  0  0  0
  6  4  1  0  0  0  0
  7  1  1  0  0  0  0
  8 16  1  0  0  0  0
  9  2  2  0  0  0  0
 10  3  2  0  0  0  0
 11  7  2  0  0  0  0
 12  6  1  0  0  0  0
 13  6  1  0  0  0  0
 14  8  1  0  0  0  0
 15 12  1  0  0  0  0
 16 13  1  0  0  0  0
 17 14  1  0  0  0  0
 18 11  1  0  0  0  0
 19  7  1  0  0  0  0
 20 11  1  0  0  0  0
 21 17  2  0  0  0  0
 22 17  1  0  0  0  0
 23 18  1  0  0  0  0
 24 19  2  0  0  0  0
 25 24  1  0  0  0  0
 26 21  1  0  0  0  0
 27 22  2  0  0  0  0
 28 27  1  0  0  0  0
  4  5  1  0  0  0  0
 20 25  2  0  0  0  0
 15  8  1  0  0  0  0
 26 28  2  0  0  0  0
M  END
> <IDNUMBER>
F3325-0128

> <Chemical_Name>
3-(4-benzylpiperazin-1-yl)-1-(2-methoxyphenyl)pyrrolidine-2,5-dione

> <CAS>
299408-83-6

> <PriceCoeff>
1.00

> <MW>
379.45

> <Description>
solid

> <FSP3>
0.36

> <clogP>
3.52

> <TPSA>
53.09

> <Acceptor>
5

> <Donor>
2

> <RotBonds>
5

> <HAC>
28

> <Collection>
General

$$$$
F3323-0631
  -ISIS-  06222321442D

 25 27  0  0  0  0  0  0  0  0999 V2000
    6.5750   -6.4542    0.0000 N   0  0  3  0  0  0  0  0  0  0  0  0
    5.7750   -6.2750    0.0000 C   0  0  0  0  0  0  0  0  0  0  0  0
    5.1292   -6.7792    0.0000 C   0  0  0  0  0  0  0  0  0  0  0  0
    6.9292   -7.1917    0.0000 C   0  0  0  0  0  0  0  0  0  0  0  0
    7.0875   -5.8125    0.0000 C   0  0  0  0  0  0  0  0  0  0  0  0
    7.9042   -5.9375    0.0000 C   0  0  0  0  0  0  0  0  0  0  0  0
    5.7667   -8.1250    0.0000 O   0  0  0  0  0  0  0  0  0  0  0  0
    8.4167   -5.2917    0.0000 C   0  0  0  0  0  0  0  0  0  0  0  0
    5.1250   -7.6042    0.0000 C   0  0  0  0  0  0  0  0  0  0  0  0
    9.7417   -4.7750    0.0000 C   0  0  0  0  0  0  0  0  0  0  0  0
    9.2292   -5.4167    0.0000 C   0  0  0  0  0  0  0  0  0  0  0  0
    5.5917   -5.4667    0.0000 O   0  0  0  0  0  0  0  0  0  0  0  0
    6.5667   -7.9417    0.0000 C   0  0  0  0  0  0  0  0  0  0  0  0
    9.4417   -4.0042    0.0000 C   0  0  0  0  0  0  0  0  0  0  0  0
    7.7542   -7.1917    0.0000 O   0  0  0  0  0  0  0  0  0  0  0  0
    8.2042   -6.7042    0.0000 O   0  0  0  0  0  0  0  0  0  0  0  0
    8.1125   -4.5292    0.0000 C   0  0  0  0  0  0  0  0  0  0  0  0
    8.6250   -3.8792    0.0000 C   0  0  0  0  0  0  0  0  0  0  0  0
   10.5625   -4.9000    0.0000 F   0  0  0  0  0  0  0  0  0  0  0  0
    4.4125   -6.3667    0.0000 C   0  0  0  0  0  0  0  0  0  0  0  0
    9.9542   -3.3667    0.0000 O   0  0  0  0  0  0  0  0  0  0  0  0
    4.4125   -8.0250    0.0000 C   0  0  0  0  0  0  0  0  0  0  0  0
    9.6542   -2.5917    0.0000 C   0  0  0  0  0  0  0  0  0  0  0  0
    3.7000   -6.7875    0.0000 C   0  0  0  0  0  0  0  0  0  0  0  0
    3.7000   -7.6125    0.0000 C   0  0  0  0  0  0  0  0  0  0  0  0
  2  1  1  0  0  0  0
  3  2  1  0  0  0  0
  4  1  1  0  0  0  0
  5  1  1  0  0  0  0
  6  5  1  0  0  0  0
  7 13  1  0  0  0  0
  8  6  1  0  0  0  0
  9  3  1  0  0  0  0
 10 11  1  0  0  0  0
 11  8  2  0  0  0  0
 12  2  2  0  0  0  0
 13  4  1  0  0  0  0
 14 18  1  0  0  0  0
 15  4  2  0  0  0  0
 16  6  2  0  0  0  0
 17  8  1  0  0  0  0
 18 17  2  0  0  0  0
 19 10  1  0  0  0  0
 20  3  2  0  0  0  0
 21 14  1  0  0  0  0
 22  9  2  0  0  0  0
 23 21  1  0  0  0  0
 24 20  1  0  0  0  0
 25 24  2  0  0  0  0
  9  7  1  0  0  0  0
 22 25  1  0  0  0  0
 10 14  2  0  0  0  0
M  END
> <IDNUMBER>
F3323-0631

> <Chemical_Name>
4-[2-(3-fluoro-4-methoxyphenyl)-2-oxoethyl]-2,3,4,5-tetrahydro-1,4-benzoxazepine-3,5-dione

> <CAS>
898642-69-8

> <PriceCoeff>
1.00

> <MW>
343.31

> <Description>
solid

> <FSP3>
0.17

> <clogP>
2.75

> <TPSA>
72.91

> <Acceptor>
5

> <Donor>
0

> <RotBonds>
4

> <HAC>
25

> <Collection>
General

$$$$
F1813-0842
  -ISIS-  06222321452D

 22 24  0  0  0  0  0  0  0  0999 V2000
   -6.0000    3.3958    0.0000 C   0  0  0  0  0  0  0  0  0  0  0  0
   -3.8708    4.6250    0.0000 N   0  0  3  0  0  0  0  0  0  0  0  0
   -6.0792    2.5625    0.0000 N   0  0  0  0  0  0  0  0  0  0  0  0
   -6.8917    2.3958    0.0000 C   0  0  0  0  0  0  0  0  0  0  0  0
   -7.3042    3.1083    0.0000 C   0  0  0  0  0  0  0  0  0  0  0  0
   -6.7542    3.7333    0.0000 S   0  0  0  0  0  0  0  0  0  0  0  0
   -5.2958    3.8083    0.0000 N   0  0  0  0  0  0  0  0  0  0  0  0
   -3.2000    5.0917    0.0000 C   0  0  0  0  0  0  0  0  0  0  0  0
   -4.5333    5.0917    0.0000 C   0  0  0  0  0  0  0  0  0  0  0  0
   -4.5833    3.3958    0.0000 C   0  0  0  0  0  0  0  0  0  0  0  0
   -3.8708    3.8000    0.0000 C   0  0  0  0  0  0  0  0  0  0  0  0
   -7.3042    1.6833    0.0000 C   0  0  0  0  0  0  0  0  0  0  0  0
   -8.1292    3.1083    0.0000 C   0  0  0  0  0  0  0  0  0  0  0  0
   -3.4583    5.8875    0.0000 C   0  0  0  0  0  0  0  0  0  0  0  0
   -4.2833    5.8792    0.0000 C   0  0  0  0  0  0  0  0  0  0  0  0
   -2.4208    4.8375    0.0000 O   0  0  0  0  0  0  0  0  0  0  0  0
   -5.3208    4.8542    0.0000 O   0  0  0  0  0  0  0  0  0  0  0  0
   -4.5833    2.5708    0.0000 O   0  0  0  0  0  0  0  0  0  0  0  0
   -8.5417    2.3958    0.0000 C   0  0  0  0  0  0  0  0  0  0  0  0
   -8.1292    1.6833    0.0000 C   0  0  0  0  0  0  0  0  0  0  0  0
   -6.8917    0.9708    0.0000 Cl  0  0  0  0  0  0  0  0  0  0  0  0
   -8.5417    3.8208    0.0000 Cl  0  0  0  0  0  0  0  0  0  0  0  0
  2 11  1  0  0  0  0
  3  1  2  0  0  0  0
  4  3  1  0  0  0  0
  5  6  1  0  0  0  0
  6  1  1  0  0  0  0
  7  1  1  0  0  0  0
  8  2  1  0  0  0  0
  9  2  1  0  0  0  0
 10  7  1  0  0  0  0
 11 10  1  0  0  0  0
 12  4  2  0  0  0  0
 13  5  2  0  0  0  0
 14  8  1  0  0  0  0
 15  9  1  0  0  0  0
 16  8  2  0  0  0  0
 17  9  2  0  0  0  0
 18 10  2  0  0  0  0
 19 13  1  0  0  0  0
 20 12  1  0  0  0  0
 21 12  1  0  0  0  0
 22 13  1  0  0  0  0
  5  4  1  0  0  0  0
 19 20  2  0  0  0  0
 14 15  1  0  0  0  0
M  END
> <IDNUMBER>
F1813-0842

> <Chemical_Name>
N-(4,7-dichloro-1,3-benzothiazol-2-yl)-2-(2,5-dioxopyrrolidin-1-yl)acetamide

> <CAS>
897759-66-9

> <PriceCoeff>
1.00

> <MW>
358.20

> <Description>
solid

> <FSP3>
0.23

> <clogP>
2.88

> <TPSA>
107.61

> <Acceptor>
4

> <Donor>
1

> <RotBonds>
3

> <HAC>
22

> <Collection>
General

$$$$
F3323-0583
  -ISIS-  06222321462D

 24 26  0  0  0  0  0  0  0  0999 V2000
    6.5750   -6.4542    0.0000 N   0  0  3  0  0  0  0  0  0  0  0  0
    5.7750   -6.2750    0.0000 C   0  0  0  0  0  0  0  0  0  0  0  0
    5.1292   -6.7792    0.0000 C   0  0  0  0  0  0  0  0  0  0  0  0
    7.0875   -5.8125    0.0000 C   0  0  0  0  0  0  0  0  0  0  0  0
    6.9292   -7.1917    0.0000 C   0  0  0  0  0  0  0  0  0  0  0  0
    7.9042   -5.9375    0.0000 C   0  0  0  0  0  0  0  0  0  0  0  0
    8.4167   -5.2917    0.0000 C   0  0  0  0  0  0  0  0  0  0  0  0
    5.7667   -8.1250    0.0000 O   0  0  0  0  0  0  0  0  0  0  0  0
    5.1250   -7.6042    0.0000 C   0  0  0  0  0  0  0  0  0  0  0  0
    5.5917   -5.4667    0.0000 O   0  0  0  0  0  0  0  0  0  0  0  0
    6.5667   -7.9417    0.0000 C   0  0  0  0  0  0  0  0  0  0  0  0
    7.7542   -7.1917    0.0000 O   0  0  0  0  0  0  0  0  0  0  0  0
    9.2292   -5.4167    0.0000 C   0  0  0  0  0  0  0  0  0  0  0  0
    8.2042   -6.7042    0.0000 O   0  0  0  0  0  0  0  0  0  0  0  0
    4.4125   -6.3667    0.0000 C   0  0  0  0  0  0  0  0  0  0  0  0
    9.5292   -6.1792    0.0000 O   0  0  0  0  0  0  0  0  0  0  0  0
    8.1125   -4.5292    0.0000 C   0  0  0  0  0  0  0  0  0  0  0  0
    4.4125   -8.0250    0.0000 C   0  0  0  0  0  0  0  0  0  0  0  0
    9.7417   -4.7750    0.0000 C   0  0  0  0  0  0  0  0  0  0  0  0
   10.3417   -6.3042    0.0000 C   0  0  0  0  0  0  0  0  0  0  0  0
    3.7000   -6.7875    0.0000 C   0  0  0  0  0  0  0  0  0  0  0  0
    8.6250   -3.8792    0.0000 C   0  0  0  0  0  0  0  0  0  0  0  0
    3.7000   -7.6125    0.0000 C   0  0  0  0  0  0  0  0  0  0  0  0
    9.4417   -4.0042    0.0000 C   0  0  0  0  0  0  0  0  0  0  0  0
  2  1  1  0  0  0  0
  3  2  1  0  0  0  0
  4  1  1  0  0  0  0
  5  1  1  0  0  0  0
  6  4  1  0  0  0  0
  7  6  1  0  0  0  0
  8 11  1  0  0  0  0
  9  3  1  0  0  0  0
 10  2  2  0  0  0  0
 11  5  1  0  0  0  0
 12  5  2  0  0  0  0
 13  7  2  0  0  0  0
 14  6  2  0  0  0  0
 15  3  2  0  0  0  0
 16 13  1  0  0  0  0
 17  7  1  0  0  0  0
 18  9  2  0  0  0  0
 19 13  1  0  0  0  0
 20 16  1  0  0  0  0
 21 15  1  0  0  0  0
 22 17  2  0  0  0  0
 23 21  2  0  0  0  0
 24 22  1  0  0  0  0
  9  8  1  0  0  0  0
 18 23  1  0  0  0  0
 19 24  2  0  0  0  0
M  END
> <IDNUMBER>
F3323-0583

> <Chemical_Name>
4-[2-(2-methoxyphenyl)-2-oxoethyl]-2,3,4,5-tetrahydro-1,4-benzoxazepine-3,5-dione

> <CAS>
903194-21-8

> <PriceCoeff>
1.00

> <MW>
325.32

> <Description>
solid

> <FSP3>
0.17

> <clogP>
2.77

> <TPSA>
72.91

> <Acceptor>
5

> <Donor>
0

> <RotBonds>
4

> <HAC>
24

> <Collection>
General

$$$$
F0349-0111
  -ISIS-  06222321442D

 18 18  0  0  0  0  0  0  0  0999 V2000
    0.7292   -0.4667    0.0000 C   0  0  0  0  0  0  0  0  0  0  0  0
   -0.7458    2.0625    0.0000 C   0  0  0  0  0  0  0  0  0  0  0  0
   -0.3625    1.4208    0.0000 N   0  0  0  0  0  0  0  0  0  0  0  0
    0.3500    0.1625    0.0000 N   0  0  0  0  0  0  0  0  0  0  0  0
   -0.7208    0.7833    0.0000 C   0  0  0  0  0  0  0  0  0  0  0  0
   -0.3625    0.1625    0.0000 C   0  0  0  0  0  0  0  0  0  0  0  0
    0.3500   -1.1042    0.0000 O   0  0  0  0  0  0  0  0  0  0  0  0
   -0.3833    2.6833    0.0000 O   0  0  0  0  0  0  0  0  0  0  0  0
    1.4500   -0.4667    0.0000 O   0  0  0  0  0  0  0  0  0  0  0  0
   -1.4625    2.0458    0.0000 O   0  0  0  0  0  0  0  0  0  0  0  0
   -1.4625    0.7833    0.0000 C   0  0  0  0  0  0  0  0  0  0  0  0
   -0.7458   -0.5000    0.0000 C   0  0  0  0  0  0  0  0  0  0  0  0
    1.8042   -1.1042    0.0000 C   0  0  0  0  0  0  0  0  0  0  0  0
   -1.8208    1.4208    0.0000 C   0  0  0  0  0  0  0  0  0  0  0  0
    2.5500   -1.1042    0.0000 C   0  0  0  0  0  0  0  0  0  0  0  0
   -2.5458    1.4208    0.0000 C   0  0  0  0  0  0  0  0  0  0  0  0
   -1.4625   -0.5000    0.0000 C   0  0  0  0  0  0  0  0  0  0  0  0
   -1.8208    0.1625    0.0000 C   0  0  0  0  0  0  0  0  0  0  0  0
  2  3  1  0  0  0  0
  3  5  1  0  0  0  0
  4  1  1  0  0  0  0
  5  6  1  0  0  0  0
  6  4  1  0  0  0  0
  7  1  2  0  0  0  0
  8  2  2  0  0  0  0
  9  1  1  0  0  0  0
 10  2  1  0  0  0  0
 11  5  2  0  0  0  0
 12  6  2  0  0  0  0
 13  9  1  0  0  0  0
 14 10  1  0  0  0  0
 15 13  1  0  0  0  0
 16 14  1  0  0  0  0
 17 12  1  0  0  0  0
 18 17  2  0  0  0  0
 18 11  1  0  0  0  0
M  END
> <IDNUMBER>
F0349-0111

> <Chemical_Name>
ethyl N-{2-[(ethoxycarbonyl)amino]phenyl}carbamate

> <CAS>
6324-13-6

> <PriceCoeff>
1.00

> <MW>
252.27

> <Description>
solid

> <FSP3>
0.33

> <clogP>
2.14

> <TPSA>
76.66

> <Acceptor>
4

> <Donor>
2

> <RotBonds>
6

> <HAC>
18

> <Collection>
General

> <Reference_compound>
CHEMBL2235373

> <Similarity>
0.8380

$$$$
F3188-0006
  -ISIS-  06222321152D

 28 30  0  0  0  0  0  0  0  0999 V2000
    5.1417   -1.2667    0.0000 N   0  0  3  0  0  0  0  0  0  0  0  0
    5.6292   -1.9375    0.0000 C   0  0  0  0  0  0  0  0  0  0  0  0
    5.6250   -0.6000    0.0000 C   0  0  0  0  0  0  0  0  0  0  0  0
    4.3167   -1.2750    0.0000 C   0  0  0  0  0  0  0  0  0  0  0  0
    6.4167   -1.6750    0.0000 C   0  0  3  0  0  0  0  0  0  0  0  0
    6.4125   -0.8500    0.0000 C   0  0  0  0  0  0  0  0  0  0  0  0
    7.0792   -2.1542    0.0000 N   0  0  3  0  0  0  0  0  0  0  0  0
    8.4167   -3.1167    0.0000 N   0  0  3  0  0  0  0  0  0  0  0  0
    9.0875   -3.6042    0.0000 C   0  0  0  0  0  0  0  0  0  0  0  0
    3.9125   -1.9917    0.0000 C   0  0  0  0  0  0  0  0  0  0  0  0
    5.3792   -2.7167    0.0000 O   0  0  0  0  0  0  0  0  0  0  0  0
    3.9042   -0.5625    0.0000 C   0  0  0  0  0  0  0  0  0  0  0  0
    5.3667    0.1833    0.0000 O   0  0  0  0  0  0  0  0  0  0  0  0
    8.5000   -2.3000    0.0000 C   0  0  0  0  0  0  0  0  0  0  0  0
    7.6625   -3.4542    0.0000 C   0  0  0  0  0  0  0  0  0  0  0  0
    7.8292   -1.8167    0.0000 C   0  0  0  0  0  0  0  0  0  0  0  0
    6.9917   -2.9792    0.0000 C   0  0  0  0  0  0  0  0  0  0  0  0
    9.8417   -3.2667    0.0000 O   0  0  0  0  0  0  0  0  0  0  0  0
    3.0792   -0.5667    0.0000 C   0  0  0  0  0  0  0  0  0  0  0  0
    3.0917   -1.9917    0.0000 C   0  0  0  0  0  0  0  0  0  0  0  0
    9.0000   -4.4292    0.0000 O   0  0  0  0  0  0  0  0  0  0  0  0
    2.6667   -1.2792    0.0000 C   0  0  0  0  0  0  0  0  0  0  0  0
    4.3125    0.1583    0.0000 O   0  0  0  0  0  0  0  0  0  0  0  0
    2.6792   -2.7167    0.0000 O   0  0  0  0  0  0  0  0  0  0  0  0
    8.2500   -4.7625    0.0000 C   0  0  0  0  0  0  0  0  0  0  0  0
    3.9000    0.8708    0.0000 C   0  0  0  0  0  0  0  0  0  0  0  0
    1.8542   -2.7250    0.0000 C   0  0  0  0  0  0  0  0  0  0  0  0
    8.1625   -5.5792    0.0000 C   0  0  0  0  0  0  0  0  0  0  0  0
  2  1  1  0  0  0  0
  3  1  1  0  0  0  0
  4  1  1  0  0  0  0
  5  2  1  0  0  0  0
  6  3  1  0  0  0  0
  7  5  1  0  0  0  0
  8 15  1  0  0  0  0
  9  8  1  0  0  0  0
 10  4  1  0  0  0  0
 11  2  2  0  0  0  0
 12  4  2  0  0  0  0
 13  3  2  0  0  0  0
 14 16  1  0  0  0  0
 15 17  1  0  0  0  0
 16  7  1  0  0  0  0
 17  7  1  0  0  0  0
 18  9  2  0  0  0  0
 19 12  1  0  0  0  0
 20 10  2  0  0  0  0
 21  9  1  0  0  0  0
 22 19  2  0  0  0  0
 23 12  1  0  0  0  0
 24 20  1  0  0  0  0
 25 21  1  0  0  0  0
 26 23  1  0  0  0  0
 27 24  1  0  0  0  0
 28 25  1  0  0  0  0
  6  5  1  0  0  0  0
 22 20  1  0  0  0  0
  8 14  1  0  0  0  0
M  END
> <IDNUMBER>
F3188-0006

> <Chemical_Name>
ethyl 4-[1-(2,5-dimethoxyphenyl)-2,5-dioxopyrrolidin-3-yl]piperazine-1-carboxylate

> <CAS>
857494-14-5

> <PriceCoeff>
1.00

> <MW>
391.42

> <Description>
solid

> <FSP3>
0.53

> <clogP>
2.50

> <TPSA>
88.62

> <Acceptor>
6

> <Donor>
1

> <RotBonds>
7

> <HAC>
28

> <Collection>
General

$$$$
F6250-0491
  -ISIS-  06222321442D

 28 30  0  0  0  0  0  0  0  0999 V2000
    4.7542   -6.9792    0.0000 N   0  0  3  0  0  0  0  0  0  0  0  0
    3.9750   -6.7292    0.0000 C   0  0  0  0  0  0  0  0  0  0  0  0
    4.7542   -7.8125    0.0000 C   0  0  0  0  0  0  0  0  0  0  0  0
    4.7542   -2.0042    0.0000 C   0  0  0  0  0  0  0  0  0  0  0  0
    5.4667   -5.7417    0.0000 C   0  0  0  0  0  0  0  0  0  0  0  0
    5.4667   -6.5667    0.0000 C   0  0  0  0  0  0  0  0  0  0  0  0
    5.4667   -1.5917    0.0000 N   0  0  0  0  0  0  0  0  0  0  0  0
    6.1792   -5.3292    0.0000 N   0  0  0  0  0  0  0  0  0  0  0  0
    4.7500   -2.8417    0.0000 O   0  0  0  0  0  0  0  0  0  0  0  0
    4.0417   -1.5917    0.0000 O   0  0  0  0  0  0  0  0  0  0  0  0
    3.4917   -7.4000    0.0000 C   0  0  0  0  0  0  0  0  0  0  0  0
    3.9750   -8.0667    0.0000 C   0  0  0  0  0  0  0  0  0  0  0  0
    3.7167   -5.9417    0.0000 O   0  0  0  0  0  0  0  0  0  0  0  0
    5.4292   -8.3042    0.0000 O   0  0  0  0  0  0  0  0  0  0  0  0
    4.7542   -5.3292    0.0000 O   0  0  0  0  0  0  0  0  0  0  0  0
    5.4667   -4.0917    0.0000 C   0  0  0  0  0  0  0  0  0  0  0  0
    6.1792   -4.5042    0.0000 C   0  0  3  0  0  0  0  0  0  0  0  0
    5.4667   -3.2667    0.0000 C   0  0  3  0  0  0  0  0  0  0  0  0
    5.4667   -0.7667    0.0000 C   0  0  0  0  0  0  0  0  0  0  0  0
    5.4667    0.8875    0.0000 C   0  0  0  0  0  0  0  0  0  0  0  0
    5.4667    1.7125    0.0000 F   0  0  0  0  0  0  0  0  0  0  0  0
    4.7542   -0.3542    0.0000 C   0  0  0  0  0  0  0  0  0  0  0  0
    6.1792   -0.3542    0.0000 C   0  0  0  0  0  0  0  0  0  0  0  0
    6.1792    0.4750    0.0000 C   0  0  0  0  0  0  0  0  0  0  0  0
    4.7542    0.4750    0.0000 C   0  0  0  0  0  0  0  0  0  0  0  0
    6.9000   -3.2667    0.0000 C   0  0  0  0  0  0  0  0  0  0  0  0
    6.9000   -4.0917    0.0000 C   0  0  0  0  0  0  0  0  0  0  0  0
    6.1792   -2.8542    0.0000 C   0  0  0  0  0  0  0  0  0  0  0  0
  2  1  1  0  0  0  0
  3  1  1  0  0  0  0
  4  9  1  0  0  0  0
  5  6  1  0  0  0  0
  6  1  1  0  0  0  0
  7  4  1  0  0  0  0
  8  5  1  0  0  0  0
  9 18  1  0  0  0  0
 10  4  2  0  0  0  0
 11  2  1  0  0  0  0
 12  3  1  0  0  0  0
 13  2  2  0  0  0  0
 14  3  2  0  0  0  0
 15  5  2  0  0  0  0
 16 17  1  0  0  0  0
 17  8  1  0  0  0  0
 18 16  1  0  0  0  0
 19  7  1  0  0  0  0
 20 24  2  0  0  0  0
 21 20  1  0  0  0  0
 22 19  1  0  0  0  0
 23 19  2  0  0  0  0
 24 23  1  0  0  0  0
 25 22  2  0  0  0  0
 26 27  1  0  0  0  0
 27 17  1  0  0  0  0
 28 26  1  0  0  0  0
 12 11  1  0  0  0  0
 18 28  1  0  0  0  0
 20 25  1  0  0  0  0
M  END
> <IDNUMBER>
F6250-0491

> <Chemical_Name>
3-[2-(2,5-dioxopyrrolidin-1-yl)acetamido]cyclohexyl N-(4-fluorophenyl)carbamate

> <CAS>
1351631-66-7

> <PriceCoeff>
1.00

> <MW>
391.39

> <Description>
solid

> <FSP3>
0.47

> <clogP>
2.18

> <TPSA>
104.81

> <Acceptor>
5

> <Donor>
2

> <RotBonds>
6

> <HAC>
28

> <Collection>
General

$$$$
F0806-0077
  -ISIS-  06222321142D

 24 26  0  0  0  0  0  0  0  0999 V2000
   -3.4958   -2.3167    0.0000 C   0  0  0  0  0  0  0  0  0  0  0  0
   -3.0125   -1.7542    0.0000 C   0  0  0  0  0  0  0  0  0  0  0  0
   -0.7500   -0.6792    0.0000 N   0  0  3  0  0  0  0  0  0  0  0  0
   -4.1333   -2.0375    0.0000 S   0  0  0  0  0  0  0  0  0  0  0  0
   -3.3958   -1.1375    0.0000 C   0  0  0  0  0  0  0  0  0  0  0  0
   -0.9625   -0.0000    0.0000 C   0  0  0  0  0  0  0  0  0  0  0  0
   -0.0458   -0.6375    0.0000 C   0  0  0  0  0  0  0  0  0  0  0  0
   -4.0958   -1.3167    0.0000 C   0  0  0  0  0  0  0  0  0  0  0  0
   -3.3333   -3.0375    0.0000 C   0  0  0  0  0  0  0  0  0  0  0  0
   -2.2958   -1.8167    0.0000 N   0  0  0  0  0  0  0  0  0  0  0  0
   -1.8708   -1.2167    0.0000 C   0  0  0  0  0  0  0  0  0  0  0  0
   -1.1500   -1.2667    0.0000 C   0  0  0  0  0  0  0  0  0  0  0  0
   -0.4125    0.4458    0.0000 C   0  0  0  0  0  0  0  0  0  0  0  0
    0.1542    0.0333    0.0000 C   0  0  0  0  0  0  0  0  0  0  0  0
   -1.7000    0.2458    0.0000 O   0  0  0  0  0  0  0  0  0  0  0  0
    0.4500   -1.2292    0.0000 O   0  0  0  0  0  0  0  0  0  0  0  0
   -3.8708   -3.5167    0.0000 O   0  0  0  0  0  0  0  0  0  0  0  0
   -2.1958   -0.5542    0.0000 O   0  0  0  0  0  0  0  0  0  0  0  0
   -2.6333   -3.2792    0.0000 O   0  0  0  0  0  0  0  0  0  0  0  0
   -3.1958   -0.4375    0.0000 C   0  0  0  0  0  0  0  0  0  0  0  0
   -4.5958   -0.8000    0.0000 C   0  0  0  0  0  0  0  0  0  0  0  0
   -2.0958   -2.8167    0.0000 C   0  0  0  0  0  0  0  0  0  0  0  0
   -3.6958    0.0833    0.0000 C   0  0  0  0  0  0  0  0  0  0  0  0
   -4.3958   -0.0917    0.0000 C   0  0  0  0  0  0  0  0  0  0  0  0
  2  1  2  0  0  0  0
  3 12  1  0  0  0  0
  4  1  1  0  0  0  0
  5  2  1  0  0  0  0
  6  3  1  0  0  0  0
  7  3  1  0  0  0  0
  8  4  1  0  0  0  0
  9  1  1  0  0  0  0
 10  2  1  0  0  0  0
 11 10  1  0  0  0  0
 12 11  1  0  0  0  0
 13  6  1  0  0  0  0
 14  7  1  0  0  0  0
 15  6  2  0  0  0  0
 16  7  2  0  0  0  0
 17  9  2  0  0  0  0
 18 11  2  0  0  0  0
 19  9  1  0  0  0  0
 20  5  1  0  0  0  0
 21  8  1  0  0  0  0
 22 19  1  0  0  0  0
 23 20  2  0  0  0  0
 24 21  2  0  0  0  0
  8  5  2  0  0  0  0
 24 23  1  0  0  0  0
 13 14  1  0  0  0  0
M  END
> <IDNUMBER>
F0806-0077

> <Chemical_Name>
methyl 3-[2-(2,5-dioxopyrrolidin-1-yl)acetamido]-1-benzothiophene-2-carboxylate

> <CAS>
477490-58-7

> <PriceCoeff>
1.00

> <MW>
346.36

> <Description>
solid

> <FSP3>
0.25

> <clogP>
2.17

> <TPSA>
121.02

> <Acceptor>
5

> <Donor>
1

> <RotBonds>
5

> <HAC>
24

> <Collection>
General

$$$$
F3406-0985
  -ISIS-  06222321152D

 28 30  0  0  0  0  0  0  0  0999 V2000
    3.4417   -5.9667    0.0000 C   0  0  0  0  0  0  0  0  0  0  0  0
    4.5875   -3.9875    0.0000 C   0  0  0  0  0  0  0  0  0  0  0  0
    3.4417   -3.3167    0.0000 C   0  0  0  0  0  0  0  0  0  0  0  0
    4.5875   -5.3125    0.0000 C   0  0  0  0  0  0  0  0  0  0  0  0
    2.2875   -5.3000    0.0000 C   0  0  0  0  0  0  0  0  0  0  0  0
    2.2875   -3.9750    0.0000 N   0  0  3  0  0  0  0  0  0  0  0  0
    3.4417   -7.2917    0.0000 C   0  0  0  0  0  0  0  0  0  0  0  0
    3.4417   -1.9792    0.0000 N   0  0  0  0  0  0  0  0  0  0  0  0
    2.2875   -7.9500    0.0000 N   0  0  0  0  0  0  0  0  0  0  0  0
    5.7417   -3.3167    0.0000 C   0  0  0  0  0  0  0  0  0  0  0  0
    3.4542   -9.9542    0.0000 C   0  0  0  0  0  0  0  0  0  0  0  0
    3.4542  -11.2792    0.0000 C   0  0  0  0  0  0  0  0  0  0  0  0
    2.2875   -9.2750    0.0000 C   0  0  0  0  0  0  0  0  0  0  0  0
    5.7417   -5.9667    0.0000 O   0  0  0  0  0  0  0  0  0  0  0  0
    4.6000   -7.9500    0.0000 O   0  0  0  0  0  0  0  0  0  0  0  0
    2.3000  -11.9417    0.0000 C   0  0  0  0  0  0  0  0  0  0  0  0
    4.5875   -1.3250    0.0000 C   0  0  0  0  0  0  0  0  0  0  0  0
    1.1542  -11.2792    0.0000 C   0  0  0  0  0  0  0  0  0  0  0  0
    5.7417   -1.9917    0.0000 C   0  0  0  0  0  0  0  0  0  0  0  0
    1.1417   -3.3042    0.0000 C   0  0  0  0  0  0  0  0  0  0  0  0
    1.1417   -9.9417    0.0000 C   0  0  0  0  0  0  0  0  0  0  0  0
    4.6167  -11.9542    0.0000 O   0  0  0  0  0  0  0  0  0  0  0  0
    2.3000  -13.2917    0.0000 O   0  0  0  0  0  0  0  0  0  0  0  0
    4.6000   -0.0000    0.0000 C   0  0  0  0  0  0  0  0  0  0  0  0
    5.7542  -11.3000    0.0000 C   0  0  0  0  0  0  0  0  0  0  0  0
    1.1542  -13.9500    0.0000 C   0  0  0  0  0  0  0  0  0  0  0  0
    1.1417   -1.9792    0.0000 C   0  0  0  0  0  0  0  0  0  0  0  0
    0.0000   -1.2917    0.0000 C   0  0  0  0  0  0  0  0  0  0  0  0
  2  4  1  0  0  0  0
  3  6  1  0  0  0  0
  4  1  1  0  0  0  0
  5  1  2  0  0  0  0
  6  5  1  0  0  0  0
  7  1  1  0  0  0  0
  8  3  2  0  0  0  0
  9  7  1  0  0  0  0
 10  2  2  0  0  0  0
 11 13  1  0  0  0  0
 12 11  2  0  0  0  0
 13  9  1  0  0  0  0
 14  4  2  0  0  0  0
 15  7  2  0  0  0  0
 16 18  2  0  0  0  0
 17  8  1  0  0  0  0
 18 21  1  0  0  0  0
 19 10  1  0  0  0  0
 20  6  1  0  0  0  0
 21 13  2  0  0  0  0
 22 12  1  0  0  0  0
 23 16  1  0  0  0  0
 24 17  1  0  0  0  0
 25 22  1  0  0  0  0
 26 23  1  0  0  0  0
 27 20  1  0  0  0  0
 28 27  1  0  0  0  0
  2  3  1  0  0  0  0
 17 19  2  0  0  0  0
 12 16  1  0  0  0  0
M  END
> <IDNUMBER>
F3406-0985

> <Chemical_Name>
N-(3,4-dimethoxyphenyl)-7-methyl-4-oxo-1-propyl-1,4-dihydro-1,8-naphthyridine-3-carboxamide

> <CAS>
1251544-51-0

> <PriceCoeff>
1.00

> <MW>
381.43

> <Description>
solid

> <FSP3>
0.29

> <clogP>
1.79

> <TPSA>
80.76

> <Acceptor>
5

> <Donor>
3

> <RotBonds>
6

> <HAC>
28

> <Collection>
General

> <Reference_compound>
CHEMBL2228610

> <Similarity>
0.8010

$$$$
F0806-0417
  -ISIS-  06222321142D

 29 32  0  0  0  0  0  0  0  0999 V2000
   -0.7833   -0.9042    0.0000 C   0  0  0  0  0  0  0  0  0  0  0  0
   -1.5458   -0.9875    0.0000 C   0  0  0  0  0  0  0  0  0  0  0  0
    2.5542   -1.9375    0.0000 N   0  0  3  0  0  0  0  0  0  0  0  0
   -0.4708   -1.6042    0.0000 S   0  0  0  0  0  0  0  0  0  0  0  0
   -1.7000   -1.7542    0.0000 C   0  0  0  0  0  0  0  0  0  0  0  0
   -0.4000   -0.2500    0.0000 N   0  0  0  0  0  0  0  0  0  0  0  0
   -1.0333   -2.1375    0.0000 C   0  0  0  0  0  0  0  0  0  0  0  0
    1.8542   -1.6542    0.0000 C   0  0  0  0  0  0  0  0  0  0  0  0
    0.3667   -0.2500    0.0000 C   0  0  0  0  0  0  0  0  0  0  0  0
    3.0542   -1.3500    0.0000 C   0  0  0  0  0  0  0  0  0  0  0  0
    2.9542   -2.5875    0.0000 C   0  0  0  0  0  0  0  0  0  0  0  0
   -2.0333   -0.4167    0.0000 C   0  0  0  0  0  0  0  0  0  0  0  0
    1.4792   -0.9667    0.0000 C   0  0  0  0  0  0  0  0  0  0  0  0
    0.7167   -0.9375    0.0000 C   0  0  0  0  0  0  0  0  0  0  0  0
    0.7792    0.4000    0.0000 O   0  0  0  0  0  0  0  0  0  0  0  0
    3.7667   -1.6542    0.0000 C   0  0  0  0  0  0  0  0  0  0  0  0
    3.7167   -2.3792    0.0000 C   0  0  0  0  0  0  0  0  0  0  0  0
    2.8875   -0.5667    0.0000 O   0  0  0  0  0  0  0  0  0  0  0  0
    2.6792   -3.3292    0.0000 O   0  0  0  0  0  0  0  0  0  0  0  0
   -1.8458    0.3708    0.0000 O   0  0  0  0  0  0  0  0  0  0  0  0
   -2.7333   -0.6042    0.0000 N   0  0  0  0  0  0  0  0  0  0  0  0
   -2.4125   -2.0375    0.0000 C   0  0  0  0  0  0  0  0  0  0  0  0
    1.4500   -2.3000    0.0000 C   0  0  0  0  0  0  0  0  0  0  0  0
   -0.9208   -2.8875    0.0000 C   0  0  0  0  0  0  0  0  0  0  0  0
    0.3167   -1.5792    0.0000 C   0  0  0  0  0  0  0  0  0  0  0  0
    0.6875   -2.2792    0.0000 C   0  0  0  0  0  0  0  0  0  0  0  0
   -2.6333   -2.7875    0.0000 C   0  0  0  0  0  0  0  0  0  0  0  0
   -1.4333   -3.4667    0.0000 C   0  0  0  0  0  0  0  0  0  0  0  0
   -2.2125   -3.4000    0.0000 C   0  0  0  0  0  0  0  0  0  0  0  0
  2  1  2  0  0  0  0
  3  8  1  0  0  0  0
  4  1  1  0  0  0  0
  5  2  1  0  0  0  0
  6  1  1  0  0  0  0
  7  4  1  0  0  0  0
  8 13  2  0  0  0  0
  9  6  1  0  0  0  0
 10  3  1  0  0  0  0
 11  3  1  0  0  0  0
 12  2  1  0  0  0  0
 13 14  1  0  0  0  0
 14  9  1  0  0  0  0
 15  9  2  0  0  0  0
 16 10  1  0  0  0  0
 17 11  1  0  0  0  0
 18 10  2  0  0  0  0
 19 11  2  0  0  0  0
 20 12  2  0  0  0  0
 21 12  1  0  0  0  0
 22  5  1  0  0  0  0
 23 26  2  0  0  0  0
 24  7  1  0  0  0  0
 25 14  2  0  0  0  0
 26 25  1  0  0  0  0
 27 22  1  0  0  0  0
 28 24  1  0  0  0  0
 29 28  1  0  0  0  0
  5  7  2  0  0  0  0
 29 27  1  0  0  0  0
 23  8  1  0  0  0  0
 17 16  1  0  0  0  0
M  END
> <IDNUMBER>
F0806-0417

> <Chemical_Name>
2-[3-(2,5-dioxopyrrolidin-1-yl)benzamido]-4H,5H,6H,7H,8H-cyclohepta[b]thiophene-3-carboxamide

> <CAS>
477494-67-0

> <PriceCoeff>
1.00

> <MW>
411.47

> <Description>
solid

> <FSP3>
0.33

> <clogP>
1.87

> <TPSA>
137.81

> <Acceptor>
4

> <Donor>
2

> <RotBonds>
4

> <HAC>
29

> <Collection>
General

$$$$
F3406-0999
  -ISIS-  06222321152D

 27 29  0  0  0  0  0  0  0  0999 V2000
    3.4417   -5.9667    0.0000 C   0  0  0  0  0  0  0  0  0  0  0  0
    4.6042   -3.9875    0.0000 C   0  0  0  0  0  0  0  0  0  0  0  0
    3.4417   -3.3167    0.0000 C   0  0  0  0  0  0  0  0  0  0  0  0
    4.6042   -5.3167    0.0000 C   0  0  0  0  0  0  0  0  0  0  0  0
    2.3000   -5.3000    0.0000 C   0  0  0  0  0  0  0  0  0  0  0  0
    2.3000   -3.9875    0.0000 N   0  0  3  0  0  0  0  0  0  0  0  0
    3.4417   -7.2917    0.0000 C   0  0  0  0  0  0  0  0  0  0  0  0
    3.4417   -1.9792    0.0000 N   0  0  0  0  0  0  0  0  0  0  0  0
    2.3000   -7.9500    0.0000 N   0  0  0  0  0  0  0  0  0  0  0  0
    5.7417   -3.3167    0.0000 C   0  0  0  0  0  0  0  0  0  0  0  0
    5.7417   -5.9667    0.0000 O   0  0  0  0  0  0  0  0  0  0  0  0
    4.6042   -7.9500    0.0000 O   0  0  0  0  0  0  0  0  0  0  0  0
    2.2875  -11.9542    0.0000 C   0  0  0  0  0  0  0  0  0  0  0  0
    4.6042   -1.3250    0.0000 C   0  0  0  0  0  0  0  0  0  0  0  0
    2.3000   -9.2792    0.0000 C   0  0  0  0  0  0  0  0  0  0  0  0
    1.1292  -11.2750    0.0000 C   0  0  0  0  0  0  0  0  0  0  0  0
    3.4417  -11.3000    0.0000 C   0  0  0  0  0  0  0  0  0  0  0  0
    5.7417   -1.9917    0.0000 C   0  0  0  0  0  0  0  0  0  0  0  0
    1.1417   -3.3042    0.0000 C   0  0  0  0  0  0  0  0  0  0  0  0
    2.2667  -13.2792    0.0000 C   0  0  3  0  0  0  0  0  0  0  0  0
    3.4417   -9.9625    0.0000 C   0  0  0  0  0  0  0  0  0  0  0  0
    1.1292   -9.9417    0.0000 C   0  0  0  0  0  0  0  0  0  0  0  0
    4.6042   -0.0000    0.0000 C   0  0  0  0  0  0  0  0  0  0  0  0
    3.4167  -13.9542    0.0000 C   0  0  0  0  0  0  0  0  0  0  0  0
    1.1125  -13.9542    0.0000 C   0  0  0  0  0  0  0  0  0  0  0  0
    1.1417   -1.9792    0.0000 C   0  0  0  0  0  0  0  0  0  0  0  0
    0.0000   -1.2917    0.0000 C   0  0  0  0  0  0  0  0  0  0  0  0
  2  4  1  0  0  0  0
  3  6  1  0  0  0  0
  4  1  1  0  0  0  0
  5  1  2  0  0  0  0
  6  5  1  0  0  0  0
  7  1  1  0  0  0  0
  8  3  2  0  0  0  0
  9  7  1  0  0  0  0
 10  2  2  0  0  0  0
 11  4  2  0  0  0  0
 12  7  2  0  0  0  0
 13 16  2  0  0  0  0
 14  8  1  0  0  0  0
 15  9  1  0  0  0  0
 16 22  1  0  0  0  0
 17 21  2  0  0  0  0
 18 10  1  0  0  0  0
 19  6  1  0  0  0  0
 20 13  1  0  0  0  0
 21 15  1  0  0  0  0
 22 15  2  0  0  0  0
 23 14  1  0  0  0  0
 24 20  1  0  0  0  0
 25 20  1  0  0  0  0
 26 19  1  0  0  0  0
 27 26  1  0  0  0  0
  2  3  1  0  0  0  0
 14 18  2  0  0  0  0
 13 17  1  0  0  0  0
M  END
> <IDNUMBER>
F3406-0999

> <Chemical_Name>
7-methyl-4-oxo-N-[4-(propan-2-yl)phenyl]-1-propyl-1,4-dihydro-1,8-naphthyridine-3-carboxamide

> <CAS>
1251695-36-9

> <PriceCoeff>
1.00

> <MW>
363.45

> <Description>
solid

> <FSP3>
0.32

> <clogP>
3.67

> <TPSA>
62.30

> <Acceptor>
3

> <Donor>
3

> <RotBonds>
5

> <HAC>
27

> <Collection>
General

> <Reference_compound>
CHEMBL2228614

> <Similarity>
0.8050

$$$$
F0777-0033
  -ISIS-  06222321142D

 19 20  0  0  0  0  0  0  0  0999 V2000
   -1.3500   -0.8792    0.0000 N   0  0  3  0  0  0  0  0  0  0  0  0
   -2.2500   -2.3000    0.0000 C   0  0  0  0  0  0  0  0  0  0  0  0
   -2.2333   -1.2375    0.0000 C   0  0  0  0  0  0  0  0  0  0  0  0
   -3.0958   -2.7500    0.0000 O   0  0  0  0  0  0  0  0  0  0  0  0
   -1.2333    0.0833    0.0000 C   0  0  0  0  0  0  0  0  0  0  0  0
   -0.5708   -1.4542    0.0000 C   0  0  0  0  0  0  0  0  0  0  0  0
   -1.3708   -2.9042    0.0000 O   0  0  0  0  0  0  0  0  0  0  0  0
    0.3042   -1.0542    0.0000 C   0  0  0  0  0  0  0  0  0  0  0  0
   -2.0000    0.6625    0.0000 C   0  0  0  0  0  0  0  0  0  0  0  0
    1.0875   -1.6167    0.0000 C   0  0  0  0  0  0  0  0  0  0  0  0
   -2.8958    0.2833    0.0000 C   0  0  0  0  0  0  0  0  0  0  0  0
    0.4042   -0.1167    0.0000 C   0  0  0  0  0  0  0  0  0  0  0  0
   -1.8958    1.6333    0.0000 C   0  0  0  0  0  0  0  0  0  0  0  0
    1.3042    0.2833    0.0000 C   0  0  0  0  0  0  0  0  0  0  0  0
    1.9667   -1.2375    0.0000 C   0  0  0  0  0  0  0  0  0  0  0  0
   -3.6833    0.8500    0.0000 C   0  0  0  0  0  0  0  0  0  0  0  0
   -2.6833    2.2208    0.0000 C   0  0  0  0  0  0  0  0  0  0  0  0
    2.0875   -0.2792    0.0000 C   0  0  0  0  0  0  0  0  0  0  0  0
   -3.5833    1.8208    0.0000 C   0  0  0  0  0  0  0  0  0  0  0  0
  2  3  1  0  0  0  0
  3  1  1  0  0  0  0
  4  2  2  0  0  0  0
  5  1  1  0  0  0  0
  6  1  1  0  0  0  0
  7  2  1  0  0  0  0
  8  6  1  0  0  0  0
  9  5  1  0  0  0  0
 10  8  2  0  0  0  0
 11  9  1  0  0  0  0
 12  8  1  0  0  0  0
 13  9  2  0  0  0  0
 14 12  2  0  0  0  0
 15 10  1  0  0  0  0
 16 11  2  0  0  0  0
 17 13  1  0  0  0  0
 18 14  1  0  0  0  0
 19 17  2  0  0  0  0
 18 15  2  0  0  0  0
 16 19  1  0  0  0  0
M  END
> <IDNUMBER>
F0777-0033

> <Chemical_Name>
2-(dibenzylamino)acetic acid

> <CAS>
17360-47-3

> <PriceCoeff>
1.00

> <MW>
255.31

> <Description>
solid

> <FSP3>
0.19

> <clogP>
3.52

> <TPSA>
40.54

> <Acceptor>
2

> <Donor>
1

> <RotBonds>
6

> <HAC>
19

> <Collection>
General

> <Reference_compound>
CHEMBL453029

> <Similarity>
0.8640

$$$$
F2590-1466
  -ISIS-  06222321142D

 27 29  0  0  0  0  0  0  0  0999 V2000
   -3.8500    2.9833    0.0000 C   0  0  0  0  0  0  0  0  0  0  0  0
   -4.5208    2.5083    0.0000 C   0  0  0  0  0  0  0  0  0  0  0  0
   -3.1333    7.4917    0.0000 N   0  0  3  0  0  0  0  0  0  0  0  0
   -3.1958    2.5000    0.0000 S   0  0  0  0  0  0  0  0  0  0  0  0
   -4.2708    1.7208    0.0000 C   0  0  0  0  0  0  0  0  0  0  0  0
   -3.8500    3.8000    0.0000 N   0  0  0  0  0  0  0  0  0  0  0  0
   -3.4458    1.7250    0.0000 C   0  0  0  0  0  0  0  0  0  0  0  0
   -3.1375    4.2042    0.0000 C   0  0  0  0  0  0  0  0  0  0  0  0
   -2.5000    8.0042    0.0000 C   0  0  0  0  0  0  0  0  0  0  0  0
   -3.8208    7.9500    0.0000 C   0  0  0  0  0  0  0  0  0  0  0  0
   -5.3000    2.7583    0.0000 C   0  0  0  0  0  0  0  0  0  0  0  0
   -3.1333    6.6750    0.0000 C   0  0  0  0  0  0  0  0  0  0  0  0
   -3.1375    5.0292    0.0000 C   0  0  0  0  0  0  0  0  0  0  0  0
   -2.4333    3.8083    0.0000 O   0  0  0  0  0  0  0  0  0  0  0  0
   -3.5958    8.7417    0.0000 C   0  0  0  0  0  0  0  0  0  0  0  0
   -2.7833    8.7667    0.0000 C   0  0  0  0  0  0  0  0  0  0  0  0
   -4.6000    7.6667    0.0000 O   0  0  0  0  0  0  0  0  0  0  0  0
   -1.7083    7.7792    0.0000 O   0  0  0  0  0  0  0  0  0  0  0  0
   -5.9208    2.2083    0.0000 O   0  0  0  0  0  0  0  0  0  0  0  0
   -3.8583    6.2625    0.0000 C   0  0  0  0  0  0  0  0  0  0  0  0
   -2.4333    6.2625    0.0000 C   0  0  0  0  0  0  0  0  0  0  0  0
   -2.4375    5.4375    0.0000 C   0  0  0  0  0  0  0  0  0  0  0  0
   -3.8583    5.4375    0.0000 C   0  0  0  0  0  0  0  0  0  0  0  0
   -5.4708    3.5625    0.0000 O   0  0  0  0  0  0  0  0  0  0  0  0
   -4.7500    1.0583    0.0000 C   0  0  0  0  0  0  0  0  0  0  0  0
   -2.9708    1.0583    0.0000 C   0  0  0  0  0  0  0  0  0  0  0  0
   -6.2417    3.8208    0.0000 C   0  0  0  0  0  0  0  0  0  0  0  0
  2  1  2  0  0  0  0
  3 12  1  0  0  0  0
  4  1  1  0  0  0  0
  5  2  1  0  0  0  0
  6  1  1  0  0  0  0
  7  4  1  0  0  0  0
  8  6  1  0  0  0  0
  9  3  1  0  0  0  0
 10  3  1  0  0  0  0
 11  2  1  0  0  0  0
 12 20  1  0  0  0  0
 13  8  1  0  0  0  0
 14  8  2  0  0  0  0
 15 10  1  0  0  0  0
 16  9  1  0  0  0  0
 17 10  2  0  0  0  0
 18  9  2  0  0  0  0
 19 11  2  0  0  0  0
 20 23  2  0  0  0  0
 21 22  1  0  0  0  0
 22 13  2  0  0  0  0
 23 13  1  0  0  0  0
 24 11  1  0  0  0  0
 25  5  1  0  0  0  0
 26  7  1  0  0  0  0
 27 24  1  0  0  0  0
  5  7  2  0  0  0  0
 21 12  2  0  0  0  0
 15 16  1  0  0  0  0
M  END
> <IDNUMBER>
F2590-1466

> <Chemical_Name>
methyl 2-[4-(2,5-dioxopyrrolidin-1-yl)benzamido]-4,5-dimethylthiophene-3-carboxylate

> <CAS>
896615-50-2

> <PriceCoeff>
1.00

> <MW>
386.42

> <Description>
solid

> <FSP3>
0.26

> <clogP>
1.91

> <TPSA>
121.02

> <Acceptor>
5

> <Donor>
1

> <RotBonds>
5

> <HAC>
27

> <Collection>
General

$$$$
F3188-0014
  -ISIS-  06222321152D

 28 30  0  0  0  0  0  0  0  0999 V2000
    4.5500   -0.9417    0.0000 N   0  0  3  0  0  0  0  0  0  0  0  0
    5.0417   -1.6042    0.0000 C   0  0  0  0  0  0  0  0  0  0  0  0
    5.0292   -0.2667    0.0000 C   0  0  0  0  0  0  0  0  0  0  0  0
    5.8250   -1.3417    0.0000 C   0  0  3  0  0  0  0  0  0  0  0  0
    5.8167   -0.5167    0.0000 C   0  0  0  0  0  0  0  0  0  0  0  0
    6.4875   -1.8250    0.0000 N   0  0  3  0  0  0  0  0  0  0  0  0
    7.8250   -2.7917    0.0000 N   0  0  3  0  0  0  0  0  0  0  0  0
    8.4917   -3.2750    0.0000 C   0  0  0  0  0  0  0  0  0  0  0  0
    3.7250   -0.9417    0.0000 C   0  0  0  0  0  0  0  0  0  0  0  0
    4.7875   -2.3917    0.0000 O   0  0  0  0  0  0  0  0  0  0  0  0
    4.7750    0.5125    0.0000 O   0  0  0  0  0  0  0  0  0  0  0  0
    0.8375   -0.2417    0.0000 C   0  0  3  0  0  0  0  0  0  0  0  0
    7.9042   -1.9667    0.0000 C   0  0  0  0  0  0  0  0  0  0  0  0
    7.0667   -3.1292    0.0000 C   0  0  0  0  0  0  0  0  0  0  0  0
    7.2375   -1.4875    0.0000 C   0  0  0  0  0  0  0  0  0  0  0  0
    6.4042   -2.6500    0.0000 C   0  0  0  0  0  0  0  0  0  0  0  0
    9.2417   -2.9417    0.0000 O   0  0  0  0  0  0  0  0  0  0  0  0
    1.2542   -0.9542    0.0000 O   0  0  0  0  0  0  0  0  0  0  0  0
    3.3125   -0.2292    0.0000 C   0  0  0  0  0  0  0  0  0  0  0  0
    3.3167   -1.6625    0.0000 C   0  0  0  0  0  0  0  0  0  0  0  0
    8.4042   -4.0917    0.0000 O   0  0  0  0  0  0  0  0  0  0  0  0
    2.0792   -0.9542    0.0000 C   0  0  0  0  0  0  0  0  0  0  0  0
    0.0125   -0.2542    0.0000 F   0  0  0  0  0  0  0  0  0  0  0  0
    1.2417    0.4708    0.0000 F   0  0  0  0  0  0  0  0  0  0  0  0
    2.4875   -0.2375    0.0000 C   0  0  0  0  0  0  0  0  0  0  0  0
    2.5000   -1.6667    0.0000 C   0  0  0  0  0  0  0  0  0  0  0  0
    7.6542   -4.4292    0.0000 C   0  0  0  0  0  0  0  0  0  0  0  0
    7.5667   -5.2542    0.0000 C   0  0  0  0  0  0  0  0  0  0  0  0
  2  1  1  0  0  0  0
  3  1  1  0  0  0  0
  4  2  1  0  0  0  0
  5  3  1  0  0  0  0
  6  4  1  0  0  0  0
  7 14  1  0  0  0  0
  8  7  1  0  0  0  0
  9  1  1  0  0  0  0
 10  2  2  0  0  0  0
 11  3  2  0  0  0  0
 12 18  1  0  0  0  0
 13 15  1  0  0  0  0
 14 16  1  0  0  0  0
 15  6  1  0  0  0  0
 16  6  1  0  0  0  0
 17  8  2  0  0  0  0
 18 22  1  0  0  0  0
 19  9  2  0  0  0  0
 20  9  1  0  0  0  0
 21  8  1  0  0  0  0
 22 26  1  0  0  0  0
 23 12  1  0  0  0  0
 24 12  1  0  0  0  0
 25 19  1  0  0  0  0
 26 20  2  0  0  0  0
 27 21  1  0  0  0  0
 28 27  1  0  0  0  0
  5  4  1  0  0  0  0
 22 25  2  0  0  0  0
  7 13  1  0  0  0  0
M  END
> <IDNUMBER>
F3188-0014

> <Chemical_Name>
ethyl 4-{1-[4-(difluoromethoxy)phenyl]-2,5-dioxopyrrolidin-3-yl}piperazine-1-carboxylate

> <CAS>
857494-10-1

> <PriceCoeff>
1.00

> <MW>
397.37

> <Description>
solid

> <FSP3>
0.50

> <clogP>
2.91

> <TPSA>
79.39

> <Acceptor>
5

> <Donor>
1

> <RotBonds>
7

> <HAC>
28

> <Collection>
General

$$$$
F3385-2703
  -ISIS-  06222321152D

 25 27  0  0  0  0  0  0  0  0999 V2000
    1.8625   -1.3542    0.0000 C   0  0  0  0  0  0  0  0  0  0  0  0
    1.1417   -1.7667    0.0000 C   0  0  0  0  0  0  0  0  0  0  0  0
    0.4292   -1.3542    0.0000 C   0  0  0  0  0  0  0  0  0  0  0  0
    1.8625   -0.5292    0.0000 C   0  0  0  0  0  0  0  0  0  0  0  0
    0.4292   -0.5292    0.0000 C   0  0  0  0  0  0  0  0  0  0  0  0
    2.5750   -1.7750    0.0000 C   0  0  0  0  0  0  0  0  0  0  0  0
    1.1417   -0.1167    0.0000 O   0  0  0  0  0  0  0  0  0  0  0  0
   -3.8583    0.3083    0.0000 N   0  0  0  0  0  0  0  0  0  0  0  0
    3.2917   -1.3542    0.0000 C   0  0  0  0  0  0  0  0  0  0  0  0
   -0.2833   -1.7667    0.0000 C   0  0  0  0  0  0  0  0  0  0  0  0
   -0.2833   -0.1167    0.0000 C   0  0  0  0  0  0  0  0  0  0  0  0
    4.0042   -1.7667    0.0000 C   0  0  0  0  0  0  0  0  0  0  0  0
   -3.1458   -0.1125    0.0000 C   0  0  0  0  0  0  0  0  0  0  0  0
    1.1417   -2.5917    0.0000 O   0  0  0  0  0  0  0  0  0  0  0  0
    4.0042   -2.6000    0.0000 C   0  0  0  0  0  0  0  0  0  0  0  0
    2.5750   -2.6000    0.0000 C   0  0  0  0  0  0  0  0  0  0  0  0
    3.2875   -3.0125    0.0000 C   0  0  0  0  0  0  0  0  0  0  0  0
   -1.0000   -0.5292    0.0000 C   0  0  0  0  0  0  0  0  0  0  0  0
   -0.9958   -1.3542    0.0000 C   0  0  0  0  0  0  0  0  0  0  0  0
    4.7250   -1.3542    0.0000 O   0  0  0  0  0  0  0  0  0  0  0  0
    4.7292   -3.0167    0.0000 O   0  0  0  0  0  0  0  0  0  0  0  0
   -1.7208   -0.1167    0.0000 O   0  0  0  0  0  0  0  0  0  0  0  0
   -2.4333   -0.5250    0.0000 C   0  0  0  0  0  0  0  0  0  0  0  0
    5.4375   -1.7750    0.0000 C   0  0  0  0  0  0  0  0  0  0  0  0
    4.7375   -3.8500    0.0000 C   0  0  0  0  0  0  0  0  0  0  0  0
  2  1  1  0  0  0  0
  3  2  1  0  0  0  0
  4  1  2  0  0  0  0
  5  7  1  0  0  0  0
  6  1  1  0  0  0  0
  7  4  1  0  0  0  0
  8 13  3  0  0  0  0
  9  6  1  0  0  0  0
 10  3  2  0  0  0  0
 11  5  2  0  0  0  0
 12  9  2  0  0  0  0
 13 23  1  0  0  0  0
 14  2  2  0  0  0  0
 15 17  2  0  0  0  0
 16  6  2  0  0  0  0
 17 16  1  0  0  0  0
 18 11  1  0  0  0  0
 19 10  1  0  0  0  0
 20 12  1  0  0  0  0
 21 15  1  0  0  0  0
 22 18  1  0  0  0  0
 23 22  1  0  0  0  0
 24 20  1  0  0  0  0
 25 21  1  0  0  0  0
  5  3  1  0  0  0  0
 12 15  1  0  0  0  0
 18 19  2  0  0  0  0
M  END
> <IDNUMBER>
F3385-2703

> <Chemical_Name>
2-{[3-(3,4-dimethoxyphenyl)-4-oxo-4H-chromen-7-yl]oxy}acetonitrile

> <CAS>
847182-88-1

> <PriceCoeff>
1.00

> <MW>
337.33

> <Description>
solid

> <FSP3>
0.16

> <clogP>
1.74

> <TPSA>
77.78

> <Acceptor>
6

> <Donor>
0

> <RotBonds>
5

> <HAC>
25

> <Collection>
General

> <Reference_compound>
CHEMBL44

> <Similarity>
0.8320

$$$$
F0415-0017
  -ISIS-  06222321442D

 17 19  0  0  0  0  0  0  0  0999 V2000
   -1.9208   -0.2542    0.0000 C   0  0  0  0  0  0  0  0  0  0  0  0
   -1.9208    0.6500    0.0000 C   0  0  0  0  0  0  0  0  0  0  0  0
   -2.7208   -0.7167    0.0000 O   0  0  0  0  0  0  0  0  0  0  0  0
   -2.7208    1.1125    0.0000 C   0  0  0  0  0  0  0  0  0  0  0  0
   -3.5000    0.6500    0.0000 C   0  0  0  0  0  0  0  0  0  0  0  0
   -3.5000   -0.2542    0.0000 C   0  0  0  0  0  0  0  0  0  0  0  0
   -1.1208   -0.7167    0.0000 C   0  0  0  0  0  0  0  0  0  0  0  0
   -2.7208    2.0333    0.0000 O   0  0  0  0  0  0  0  0  0  0  0  0
    0.4667   -1.6500    0.0000 N   0  0  0  0  0  0  0  0  0  0  0  0
   -4.3000    1.1125    0.0000 C   0  0  0  0  0  0  0  0  0  0  0  0
   -4.3000   -0.7167    0.0000 C   0  0  0  0  0  0  0  0  0  0  0  0
   -0.3458   -2.1000    0.0000 C   0  0  0  0  0  0  0  0  0  0  0  0
    0.4667   -0.7167    0.0000 C   0  0  0  0  0  0  0  0  0  0  0  0
   -1.1208   -1.6500    0.0000 C   0  0  0  0  0  0  0  0  0  0  0  0
   -0.3458   -0.2542    0.0000 C   0  0  0  0  0  0  0  0  0  0  0  0
   -5.1000    0.6500    0.0000 C   0  0  0  0  0  0  0  0  0  0  0  0
   -5.1000   -0.2542    0.0000 C   0  0  0  0  0  0  0  0  0  0  0  0
  2  1  2  0  0  0  0
  3  1  1  0  0  0  0
  4  2  1  0  0  0  0
  5  6  2  0  0  0  0
  6  3  1  0  0  0  0
  7  1  1  0  0  0  0
  8  4  2  0  0  0  0
  9 13  2  0  0  0  0
 10  5  1  0  0  0  0
 11  6  1  0  0  0  0
 12 14  2  0  0  0  0
 13 15  1  0  0  0  0
 14  7  1  0  0  0  0
 15  7  2  0  0  0  0
 16 17  1  0  0  0  0
 17 11  2  0  0  0  0
  9 12  1  0  0  0  0
  5  4  1  0  0  0  0
 10 16  2  0  0  0  0
M  END
> <IDNUMBER>
F0415-0017

> <Chemical_Name>
2-(pyridin-4-yl)-4H-chromen-4-one

> <CAS>
3034-16-0

> <PriceCoeff>
1.50

> <MW>
223.23

> <Description>
solid

> <FSP3>
0.00

> <clogP>
2.01

> <TPSA>
39.19

> <Acceptor>
3

> <Donor>
1

> <RotBonds>
1

> <HAC>
17

> <Collection>
Advanced

> <Reference_compound>
CHEMBL275638

> <Similarity>
0.8720

$$$$
F0196-0437
  -ISIS-  06222304342D

 32 34  0  0  0  0  0  0  0  0999 V2000
    1.7042    0.5583    0.0000 C   0  0  0  0  0  0  0  0  0  0  0  0
    2.4375    0.1458    0.0000 C   0  0  0  0  0  0  0  0  0  0  0  0
    3.2042    0.4458    0.0000 N   0  3  0  0  0  0  0  0  0  0  0  0
    0.9917    0.1583    0.0000 C   0  0  0  0  0  0  0  0  0  0  0  0
    1.7042    1.4083    0.0000 C   0  0  0  0  0  0  0  0  0  0  0  0
    0.2792    0.5583    0.0000 C   0  0  0  0  0  0  0  0  0  0  0  0
    0.2792    1.4083    0.0000 C   0  0  0  0  0  0  0  0  0  0  0  0
    0.9917    1.8083    0.0000 O   0  0  0  0  0  0  0  0  0  0  0  0
    2.4750   -0.6750    0.0000 C   0  0  0  0  0  0  0  0  0  0  0  0
    3.7000   -0.2042    0.0000 C   0  0  0  0  0  0  0  0  0  0  0  0
    3.2667   -0.8792    0.0000 S   0  0  0  0  0  0  0  0  0  0  0  0
   -0.4333    1.8083    0.0000 C   0  0  0  0  0  0  0  0  0  0  0  0
   -0.4333    0.1583    0.0000 C   0  0  0  0  0  0  0  0  0  0  0  0
    0.9917   -0.6750    0.0000 O   0  0  0  0  0  0  0  0  0  0  0  0
    3.4375    1.2500    0.0000 C   0  0  0  0  0  0  0  0  0  0  0  0
   -1.1583    1.4083    0.0000 C   0  0  0  0  0  0  0  0  0  0  0  0
   -1.1583    0.5583    0.0000 C   0  0  0  0  0  0  0  0  0  0  0  0
    2.4417    1.8458    0.0000 C   0  0  0  0  0  0  0  0  0  0  0  0
    4.5292   -0.1667    0.0000 C   0  0  0  0  0  0  0  0  0  0  0  0
   -1.8875    1.8458    0.0000 O   0  0  0  0  0  0  0  0  0  0  0  0
    4.2250    1.4500    0.0000 C   0  0  0  0  0  0  0  0  0  0  0  0
    7.3048    1.4609    0.0000 S   0  0  3  0  0  0  0  0  0  0  0  0
    6.9704    0.7086    0.0000 C   0  0  0  0  0  0  0  0  0  0  0  0
    8.0572    1.1265    0.0000 O   0  5  0  0  0  0  0  0  0  0  0  0
    7.6368    2.2166    0.0000 O   0  0  0  0  0  0  0  0  0  0  0  0
    6.5501    1.7987    0.0000 O   0  0  0  0  0  0  0  0  0  0  0  0
    7.4598    0.0341    0.0000 C   0  0  0  0  0  0  0  0  0  0  0  0
    6.1515    0.6240    0.0000 C   0  0  0  0  0  0  0  0  0  0  0  0
    7.1254   -0.7182    0.0000 C   0  0  0  0  0  0  0  0  0  0  0  0
    5.8219   -0.1350    0.0000 C   0  0  0  0  0  0  0  0  0  0  0  0
    6.3065   -0.8027    0.0000 C   0  0  0  0  0  0  0  0  0  0  0  0
    5.9687   -1.5575    0.0000 C   0  0  0  0  0  0  0  0  0  0  0  0
 13  6  1  0  0  0  0
 14  4  2  0  0  0  0
 15  3  1  0  0  0  0
 16 12  2  0  0  0  0
 17 13  2  0  0  0  0
 18  5  1  0  0  0  0
 19 10  1  0  0  0  0
 20 16  1  0  0  0  0
 21 15  1  0  0  0  0
  6  7  2  0  0  0  0
 10 11  1  0  0  0  0
 17 16  1  0  0  0  0
  2  1  1  0  0  0  0
  3  2  1  0  0  0  0
  4  1  1  0  0  0  0
  5  1  2  0  0  0  0
  6  4  1  0  0  0  0
  7  8  1  0  0  0  0
  8  5  1  0  0  0  0
  9  2  2  0  0  0  0
 10  3  2  0  0  0  0
 11  9  1  0  0  0  0
 12  7  1  0  0  0  0
 23 22  1  0  0  0  0
 24 22  1  0  0  0  0
 25 22  2  0  0  0  0
 26 22  2  0  0  0  0
 27 23  1  0  0  0  0
 28 23  2  0  0  0  0
 29 27  2  0  0  0  0
 30 28  1  0  0  0  0
 31 30  2  0  0  0  0
 32 31  1  0  0  0  0
 31 29  1  0  0  0  0
M  CHG  2   3   1  24  -1
M  END
> <IDNUMBER>
F0196-0437

> <Chemical_Name>
3-ethyl-4-(7-hydroxy-2-methyl-4-oxo-4H-chromen-3-yl)-2-methyl-1,3-thiazol-3-ium 4-methylbenzene-1-sulfonate

> <CAS>
51626-02-9

> <PriceCoeff>
1.00

> <MW>
302.37

> <Description>
solid

> <FSP3>
0.25

> <clogP>
-3.24

> <TPSA>
78.65

> <Acceptor>
3

> <Donor>
1

> <RotBonds>
2

> <HAC>
21

> <Collection>
General

> <Reference_compound>
PRI5741

> <Similarity>
0.8100

$$$$
F3095-1901
  -ISIS-  06222321462D

 23 25  0  0  0  0  0  0  0  0999 V2000
    3.4167    0.1250    0.0000 C   0  0  0  0  0  0  0  0  0  0  0  0
    4.1375   -0.2792    0.0000 N   0  0  0  0  0  0  0  0  0  0  0  0
   -0.1458   -1.1250    0.0000 C   0  0  0  0  0  0  0  0  0  0  0  0
    3.4167    0.9500    0.0000 O   0  0  0  0  0  0  0  0  0  0  0  0
    5.6417    0.5500    0.0000 O   0  0  0  0  0  0  0  0  0  0  0  0
   -0.8583   -1.5417    0.0000 C   0  0  0  0  0  0  0  0  0  0  0  0
    0.5667   -1.5375    0.0000 C   0  0  0  0  0  0  0  0  0  0  0  0
   -0.1500   -0.3042    0.0000 C   0  0  0  0  0  0  0  0  0  0  0  0
    1.9917    0.1208    0.0000 O   0  0  0  0  0  0  0  0  0  0  0  0
    2.7042   -0.2917    0.0000 C   0  0  0  0  0  0  0  0  0  0  0  0
    1.2792   -0.2917    0.0000 C   0  0  0  0  0  0  0  0  0  0  0  0
    4.8542   -0.6875    0.0000 C   0  0  0  0  0  0  0  0  0  0  0  0
    1.2792   -1.1250    0.0000 C   0  0  0  0  0  0  0  0  0  0  0  0
    0.5542    0.1125    0.0000 C   0  0  0  0  0  0  0  0  0  0  0  0
    5.5667   -0.2667    0.0000 C   0  0  3  0  0  0  0  0  0  0  0  0
    6.4500    0.7208    0.0000 C   0  0  0  0  0  0  0  0  0  0  0  0
   -1.5708   -1.1292    0.0000 C   0  0  0  0  0  0  0  0  0  0  0  0
   -0.8583   -2.3667    0.0000 C   0  0  0  0  0  0  0  0  0  0  0  0
    6.3167   -0.6042    0.0000 C   0  0  0  0  0  0  0  0  0  0  0  0
    6.8667    0.0125    0.0000 C   0  0  0  0  0  0  0  0  0  0  0  0
   -2.2833   -1.5417    0.0000 C   0  0  0  0  0  0  0  0  0  0  0  0
   -1.5708   -2.7792    0.0000 C   0  0  0  0  0  0  0  0  0  0  0  0
   -2.2833   -2.3667    0.0000 C   0  0  0  0  0  0  0  0  0  0  0  0
  2  1  1  0  0  0  0
  3  8  1  0  0  0  0
  4  1  2  0  0  0  0
  5 15  1  0  0  0  0
  6  3  1  0  0  0  0
  7 13  1  0  0  0  0
  8 14  2  0  0  0  0
  9 10  1  0  0  0  0
 10  1  1  0  0  0  0
 11  9  1  0  0  0  0
 12  2  1  0  0  0  0
 13 11  2  0  0  0  0
 14 11  1  0  0  0  0
 15 12  1  0  0  0  0
 16  5  1  0  0  0  0
 17  6  2  0  0  0  0
 18  6  1  0  0  0  0
 19 15  1  0  0  0  0
 20 19  1  0  0  0  0
 21 17  1  0  0  0  0
 22 18  2  0  0  0  0
 23 22  1  0  0  0  0
  7  3  2  0  0  0  0
 16 20  1  0  0  0  0
 23 21  2  0  0  0  0
M  END
> <IDNUMBER>
F3095-1901

> <Chemical_Name>
2-{[1,1'-biphenyl]-4-yloxy}-N-[(oxolan-2-yl)methyl]acetamide

> <CAS>
302550-66-9

> <PriceCoeff>
1.00

> <MW>
311.37

> <Description>
solid

> <FSP3>
0.32

> <clogP>
3.56

> <TPSA>
47.56

> <Acceptor>
3

> <Donor>
1

> <RotBonds>
6

> <HAC>
23

> <Collection>
General

> <Reference_compound>
CHEMBL4277357

> <Similarity>
0.8000

$$$$
F0440-0333
  -ISIS-  06222321142D

 24 26  0  0  0  0  0  0  0  0999 V2000
    2.3042    1.7958    0.0000 N   0  0  3  0  0  0  0  0  0  0  0  0
   -0.0208    0.4958    0.0000 C   0  0  0  0  0  0  0  0  0  0  0  0
   -0.4625   -0.1500    0.0000 N   0  0  0  0  0  0  0  0  0  0  0  0
   -1.2000    0.0958    0.0000 C   0  0  0  0  0  0  0  0  0  0  0  0
    0.7500    0.4958    0.0000 N   0  0  0  0  0  0  0  0  0  0  0  0
    2.1000    2.5333    0.0000 C   0  0  0  0  0  0  0  0  0  0  0  0
    3.1000    1.7708    0.0000 C   0  0  0  0  0  0  0  0  0  0  0  0
   -0.4625    1.1125    0.0000 S   0  0  0  0  0  0  0  0  0  0  0  0
    1.1500    1.1500    0.0000 C   0  0  0  0  0  0  0  0  0  0  0  0
   -1.2000    0.8708    0.0000 C   0  0  0  0  0  0  0  0  0  0  0  0
    1.9042    1.1333    0.0000 C   0  0  0  0  0  0  0  0  0  0  0  0
   -1.8833   -0.3000    0.0000 C   0  0  0  0  0  0  0  0  0  0  0  0
    2.7042    2.9708    0.0000 C   0  0  0  0  0  0  0  0  0  0  0  0
    3.3500    2.5208    0.0000 C   0  0  0  0  0  0  0  0  0  0  0  0
    1.3500    2.8125    0.0000 O   0  0  0  0  0  0  0  0  0  0  0  0
    3.5500    1.1333    0.0000 O   0  0  0  0  0  0  0  0  0  0  0  0
    0.7667    1.8333    0.0000 O   0  0  0  0  0  0  0  0  0  0  0  0
   -1.8833   -1.0792    0.0000 C   0  0  0  0  0  0  0  0  0  0  0  0
   -2.5458    0.0958    0.0000 C   0  0  0  0  0  0  0  0  0  0  0  0
   -2.5458   -1.4542    0.0000 C   0  0  0  0  0  0  0  0  0  0  0  0
   -3.2208   -0.2792    0.0000 C   0  0  0  0  0  0  0  0  0  0  0  0
   -3.2208   -1.0792    0.0000 C   0  0  0  0  0  0  0  0  0  0  0  0
   -3.9000   -1.5000    0.0000 C   0  0  0  0  0  0  0  0  0  0  0  0
   -3.8833   -2.2792    0.0000 C   0  0  0  0  0  0  0  0  0  0  0  0
  2  5  1  0  0  0  0
  3  2  2  0  0  0  0
  4  3  1  0  0  0  0
  5  9  1  0  0  0  0
  6  1  1  0  0  0  0
  7  1  1  0  0  0  0
  8  2  1  0  0  0  0
  9 11  1  0  0  0  0
 10  8  1  0  0  0  0
 11  1  1  0  0  0  0
 12  4  1  0  0  0  0
 13  6  1  0  0  0  0
 14  7  1  0  0  0  0
 15  6  2  0  0  0  0
 16  7  2  0  0  0  0
 17  9  2  0  0  0  0
 18 12  1  0  0  0  0
 19 12  2  0  0  0  0
 20 18  2  0  0  0  0
 21 19  1  0  0  0  0
 22 21  2  0  0  0  0
 23 22  1  0  0  0  0
 24 23  1  0  0  0  0
 14 13  1  0  0  0  0
  4 10  2  0  0  0  0
 22 20  1  0  0  0  0
M  END
> <IDNUMBER>
F0440-0333

> <Chemical_Name>
2-(2,5-dioxopyrrolidin-1-yl)-N-[4-(4-ethylphenyl)-1,3-thiazol-2-yl]acetamide

> <CAS>
361167-68-2

> <PriceCoeff>
1.00

> <MW>
343.40

> <Description>
solid

> <FSP3>
0.29

> <clogP>
2.97

> <TPSA>
107.61

> <Acceptor>
4

> <Donor>
1

> <RotBonds>
5

> <HAC>
24

> <Collection>
General

$$$$
F6441-6721
  -ISIS-  06222321152D

 28 30  0  0  0  0  0  0  0  0999 V2000
   -1.0208    5.4417    0.0000 S   0  0  3  0  0  0  0  0  0  0  0  0
   -3.8708    3.8000    0.0000 C   0  0  0  0  0  0  0  0  0  0  0  0
   -3.1583    4.2042    0.0000 N   0  0  3  0  0  0  0  0  0  0  0  0
   -4.5792    4.2042    0.0000 N   0  0  0  0  0  0  0  0  0  0  0  0
   -1.7333    5.0167    0.0000 C   0  0  3  0  0  0  0  0  0  0  0  0
   -0.3083    5.8583    0.0000 C   0  0  0  0  0  0  0  0  0  0  0  0
   -6.7000    3.8125    0.0000 C   0  0  0  0  0  0  0  0  0  0  0  0
   -6.0000    4.2125    0.0000 C   0  0  0  0  0  0  0  0  0  0  0  0
   -1.4458    6.1583    0.0000 O   0  0  0  0  0  0  0  0  0  0  0  0
   -0.6000    4.7292    0.0000 O   0  0  0  0  0  0  0  0  0  0  0  0
   -5.2833    3.8083    0.0000 C   0  0  0  0  0  0  0  0  0  0  0  0
   -2.4375    5.4375    0.0000 C   0  0  0  0  0  0  0  0  0  0  0  0
   -1.7333    4.2042    0.0000 C   0  0  0  0  0  0  0  0  0  0  0  0
   -2.4458    3.8000    0.0000 C   0  0  0  0  0  0  0  0  0  0  0  0
   -3.1583    5.0250    0.0000 C   0  0  0  0  0  0  0  0  0  0  0  0
   -3.8708    2.9833    0.0000 O   0  0  0  0  0  0  0  0  0  0  0  0
   -6.7042    2.9875    0.0000 C   0  0  0  0  0  0  0  0  0  0  0  0
   -0.3125    6.6875    0.0000 C   0  0  0  0  0  0  0  0  0  0  0  0
    0.4125    5.4500    0.0000 C   0  0  0  0  0  0  0  0  0  0  0  0
   -6.0042    2.5708    0.0000 C   0  0  0  0  0  0  0  0  0  0  0  0
   -7.4042    4.2167    0.0000 Cl  0  0  0  0  0  0  0  0  0  0  0  0
   -5.2833    2.9833    0.0000 C   0  0  0  0  0  0  0  0  0  0  0  0
   -7.4208    2.5833    0.0000 Cl  0  0  0  0  0  0  0  0  0  0  0  0
    1.1250    6.7000    0.0000 C   0  0  0  0  0  0  0  0  0  0  0  0
    0.3917    7.1125    0.0000 C   0  0  0  0  0  0  0  0  0  0  0  0
    1.1292    5.8667    0.0000 C   0  0  0  0  0  0  0  0  0  0  0  0
    1.8292    7.1167    0.0000 O   0  0  0  0  0  0  0  0  0  0  0  0
    2.5292    6.7125    0.0000 C   0  0  0  0  0  0  0  0  0  0  0  0
  2  3  1  0  0  0  0
  3 14  1  0  0  0  0
  4  2  1  0  0  0  0
  5  1  1  0  0  0  0
  6  1  1  0  0  0  0
  7  8  1  0  0  0  0
  8 11  2  0  0  0  0
  9  1  2  0  0  0  0
 10  1  2  0  0  0  0
 11  4  1  0  0  0  0
 12  5  1  0  0  0  0
 13  5  1  0  0  0  0
 14 13  1  0  0  0  0
 15 12  1  0  0  0  0
 16  2  2  0  0  0  0
 17 20  1  0  0  0  0
 18  6  1  0  0  0  0
 19  6  2  0  0  0  0
 20 22  2  0  0  0  0
 21  7  1  0  0  0  0
 22 11  1  0  0  0  0
 23 17  1  0  0  0  0
 24 26  2  0  0  0  0
 25 18  2  0  0  0  0
 26 19  1  0  0  0  0
 27 24  1  0  0  0  0
 28 27  1  0  0  0  0
 24 25  1  0  0  0  0
  3 15  1  0  0  0  0
  7 17  2  0  0  0  0
M  END
> <IDNUMBER>
F6441-6721

> <Chemical_Name>
N-(3,4-dichlorophenyl)-4-(4-methoxybenzenesulfonyl)piperidine-1-carboxamide

> <CAS>
1795298-60-0

> <PriceCoeff>
1.00

> <MW>
443.34

> <Description>
solid

> <FSP3>
0.32

> <clogP>
3.09

> <TPSA>
84.09

> <Acceptor>
4

> <Donor>
1

> <RotBonds>
5

> <HAC>
28

> <Collection>
General

$$$$
F0001-2583
  -ISIS-  06222304342D

 24 25  0  0  0  0  0  0  0  0999 V2000
    2.1625    1.2042    0.0000 N   0  0  3  0  0  0  0  0  0  0  0  0
    2.1625    0.4042    0.0000 C   0  0  1  0  0  0  0  0  0  0  0  0
    1.3542    1.2042    0.0000 C   0  0  0  0  0  0  0  0  0  0  0  0
    1.3542    0.4042    0.0000 C   0  0  1  0  0  0  0  0  0  0  0  0
    2.9167    1.4583    0.0000 C   0  0  2  0  0  0  0  0  0  0  0  0
    2.9167    0.1625    0.0000 S   0  0  0  0  0  0  0  0  0  0  0  0
    3.3917    0.8042    0.0000 C   0  0  3  0  0  0  0  0  0  0  0  0
    0.7917   -0.1667    0.0000 N   0  0  0  0  0  0  0  0  0  0  0  0
    3.1750    2.2208    0.0000 C   0  0  0  0  0  0  0  0  0  0  0  0
    0.0167    0.0458    0.0000 C   0  0  0  0  0  0  0  0  0  0  0  0
    0.7917    1.7750    0.0000 O   0  0  0  0  0  0  0  0  0  0  0  0
    2.6375    2.8125    0.0000 O   0  5  0  0  0  0  0  0  0  0  0  0
    3.9500    2.3792    0.0000 O   0  0  0  0  0  0  0  0  0  0  0  0
   -0.1875    0.8208    0.0000 O   0  0  0  0  0  0  0  0  0  0  0  0
   -0.5500   -0.5250    0.0000 C   0  0  0  0  0  0  0  0  0  0  0  0
    3.9875    0.2667    0.0000 C   0  0  0  0  0  0  0  0  0  0  0  0
    3.9875    1.3458    0.0000 C   0  0  0  0  0  0  0  0  0  0  0  0
   -1.3208   -0.3125    0.0000 C   0  0  0  0  0  0  0  0  0  0  0  0
   -1.5333    0.4625    0.0000 C   0  0  0  0  0  0  0  0  0  0  0  0
   -1.8875   -0.8792    0.0000 C   0  0  0  0  0  0  0  0  0  0  0  0
   -2.6708   -0.6750    0.0000 C   0  0  0  0  0  0  0  0  0  0  0  0
   -2.3042    0.6708    0.0000 C   0  0  0  0  0  0  0  0  0  0  0  0
   -2.8750    0.1000    0.0000 C   0  0  0  0  0  0  0  0  0  0  0  0
    5.4667    1.1125    0.0000 Na  0  3  0  0  0  0  0  0  0  0  0  0
  3  1  1  0  0  0  0
  4  3  1  0  0  0  0
  5  1  1  0  0  0  0
  6  2  1  0  0  0  0
  7  5  1  0  0  0  0
  4  8  1  6  0  0  0
  5  9  1  1  0  0  0
 10  8  1  0  0  0  0
 11  3  2  0  0  0  0
 12  9  1  0  0  0  0
 13  9  2  0  0  0  0
 14 10  2  0  0  0  0
 15 10  1  0  0  0  0
 16  7  1  0  0  0  0
 17  7  1  0  0  0  0
 18 15  1  0  0  0  0
 19 18  1  0  0  0  0
 20 18  2  0  0  0  0
 21 20  1  0  0  0  0
 22 19  2  0  0  0  0
 23 21  2  0  0  0  0
  7  6  1  0  0  0  0
  2  4  1  0  0  0  0
 22 23  1  0  0  0  0
  2  1  1  6  0  0  0
M  CHG  2  12  -1  24   1
M  END
> <IDNUMBER>
F0001-2583

> <Chemical_Name>
sodium (2S,5R,6R)-3,3-dimethyl-7-oxo-6-(2-phenylacetamido)-4-thia-1-azabicyclo[3.2.0]heptane-2-carboxylate

> <CAS>
69-57-8

> <PriceCoeff>
1.00

> <MW>
333.38

> <Description>
solid

> <FSP3>
0.44

> <clogP>
-1.07

> <TPSA>
114.84

> <Acceptor>
4

> <Donor>
1

> <RotBonds>
4

> <HAC>
23

> <Collection>
General

> <Reference_compound>
CHEMBL29

> <Similarity>
0.9960

$$$$
F0286-0220
  -ISIS-  06222321442D

 18 19  0  0  0  0  0  0  0  0999 V2000
   -4.5208   -1.4292    0.0000 N   0  3  0  0  0  0  0  0  0  0  0  0
   -2.0208   -0.3167    0.0000 C   0  0  0  0  0  0  0  0  0  0  0  0
   -2.6458   -0.6000    0.0000 C   0  0  0  0  0  0  0  0  0  0  0  0
   -1.4833   -0.7042    0.0000 N   0  0  0  0  0  0  0  0  0  0  0  0
   -0.8708   -0.4500    0.0000 C   0  0  0  0  0  0  0  0  0  0  0  0
   -3.2000   -0.2042    0.0000 C   0  0  0  0  0  0  0  0  0  0  0  0
   -0.7625    0.2000    0.0000 N   0  0  0  0  0  0  0  0  0  0  0  0
   -3.8833   -1.1667    0.0000 C   0  0  0  0  0  0  0  0  0  0  0  0
   -3.8208   -0.4792    0.0000 C   0  0  0  0  0  0  0  0  0  0  0  0
   -0.2625   -0.7667    0.0000 S   0  0  0  0  0  0  0  0  0  0  0  0
   -2.7000   -1.3000    0.0000 C   0  0  0  0  0  0  0  0  0  0  0  0
   -5.0625   -1.0167    0.0000 O   0  5  0  0  0  0  0  0  0  0  0  0
   -4.5958   -2.1042    0.0000 O   0  0  0  0  0  0  0  0  0  0  0  0
   -1.9708    0.3458    0.0000 O   0  0  0  0  0  0  0  0  0  0  0  0
   -0.0958    0.3208    0.0000 C   0  0  0  0  0  0  0  0  0  0  0  0
   -3.3208   -1.5667    0.0000 C   0  0  0  0  0  0  0  0  0  0  0  0
    0.2167   -0.3000    0.0000 C   0  0  0  0  0  0  0  0  0  0  0  0
   -3.1333    0.4708    0.0000 Cl  0  0  0  0  0  0  0  0  0  0  0  0
  2  3  1  0  0  0  0
  3 11  2  0  0  0  0
  4  2  1  0  0  0  0
  5  4  1  0  0  0  0
  6  9  2  0  0  0  0
  7  5  2  0  0  0  0
  8  1  1  0  0  0  0
  9  8  1  0  0  0  0
 10  5  1  0  0  0  0
 11 16  1  0  0  0  0
 12  1  1  0  0  0  0
 13  1  2  0  0  0  0
 14  2  2  0  0  0  0
 15  7  1  0  0  0  0
 16  8  2  0  0  0  0
 17 10  1  0  0  0  0
 18  6  1  0  0  0  0
  3  6  1  0  0  0  0
 15 17  2  0  0  0  0
M  CHG  2   1   1  12  -1
M  END
> <IDNUMBER>
F0286-0220

> <Chemical_Name>
2-chloro-4-nitro-N-(1,3-thiazol-2-yl)benzamide

> <CAS>
324058-89-1

> <PriceCoeff>
1.00

> <MW>
283.69

> <Description>
solid

> <FSP3>
0.00

> <clogP>
1.63

> <TPSA>
113.37

> <Acceptor>
4

> <Donor>
1

> <RotBonds>
3

> <HAC>
18

> <Collection>
General

$$$$
F2018-0987
  -ISIS-  06222304352D

 27 28  0  0  0  0  0  0  0  0999 V2000
   -3.8708    2.9833    0.0000 C   0  0  0  0  0  0  0  0  0  0  0  0
   -4.6333    2.6458    0.0000 N   0  0  0  0  0  0  0  0  0  0  0  0
   -1.0083    2.9833    0.0000 N   0  0  3  0  0  0  0  0  0  0  0  0
   -3.1583    2.5625    0.0000 N   0  0  3  0  0  0  0  0  0  0  0  0
   -3.9583    3.8083    0.0000 S   0  0  0  0  0  0  0  0  0  0  0  0
   -2.4458    2.9833    0.0000 C   0  0  0  0  0  0  0  0  0  0  0  0
   -5.1875    3.2500    0.0000 C   0  0  0  0  0  0  0  0  0  0  0  0
   -1.7333    2.5625    0.0000 C   0  0  0  0  0  0  0  0  0  0  0  0
   -0.9333    3.8000    0.0000 C   0  0  0  0  0  0  0  0  0  0  0  0
   -0.2625    2.6458    0.0000 C   0  0  0  0  0  0  0  0  0  0  0  0
   -4.7708    3.9708    0.0000 C   0  0  0  0  0  0  0  0  0  0  0  0
   -3.1583    1.7375    0.0000 C   0  0  0  0  0  0  0  0  0  0  0  0
   -2.4458    3.8000    0.0000 O   0  0  0  0  0  0  0  0  0  0  0  0
   -0.1250    3.9708    0.0000 C   0  0  0  0  0  0  0  0  0  0  0  0
    0.2917    3.2583    0.0000 C   0  0  0  0  0  0  0  0  0  0  0  0
   -1.5333    4.3417    0.0000 O   0  0  0  0  0  0  0  0  0  0  0  0
   -0.0875    1.8333    0.0000 O   0  0  0  0  0  0  0  0  0  0  0  0
   -6.0000    3.2500    0.0000 C   0  0  0  0  0  0  0  0  0  0  0  0
   -3.8708    1.3250    0.0000 C   0  0  0  0  0  0  0  0  0  0  0  0
   -3.8708    0.5000    0.0000 N   0  0  3  0  0  0  0  0  0  0  0  0
   -5.1833    4.6667    0.0000 C   0  0  0  0  0  0  0  0  0  0  0  0
   -6.0042    4.6667    0.0000 C   0  0  0  0  0  0  0  0  0  0  0  0
   -6.4042    3.9583    0.0000 C   0  0  0  0  0  0  0  0  0  0  0  0
   -6.4042    2.5333    0.0000 C   0  0  0  0  0  0  0  0  0  0  0  0
   -4.5833    0.0875    0.0000 C   0  0  0  0  0  0  0  0  0  0  0  0
   -3.1583    0.0875    0.0000 C   0  0  0  0  0  0  0  0  0  0  0  0
    1.6792    2.4708    0.0000 Cl  0  0  0  0  0  0  0  0  0  0  0  0
  3  8  1  0  0  0  0
  4  1  1  0  0  0  0
  5  1  1  0  0  0  0
  6  4  1  0  0  0  0
  7  2  1  0  0  0  0
  8  6  1  0  0  0  0
  9  3  1  0  0  0  0
 10  3  1  0  0  0  0
 11  5  1  0  0  0  0
 12  4  1  0  0  0  0
 13  6  2  0  0  0  0
 14  9  1  0  0  0  0
 15 10  1  0  0  0  0
 16  9  2  0  0  0  0
 17 10  2  0  0  0  0
 18  7  1  0  0  0  0
 19 12  1  0  0  0  0
 20 19  1  0  0  0  0
 21 11  1  0  0  0  0
 22 21  2  0  0  0  0
 23 18  2  0  0  0  0
 24 18  1  0  0  0  0
 25 20  1  0  0  0  0
 26 20  1  0  0  0  0
 11  7  2  0  0  0  0
 23 22  1  0  0  0  0
 14 15  1  0  0  0  0
  2  1  2  0  0  0  0
M  END
> <IDNUMBER>
F2018-0987

> <Chemical_Name>
N-[2-(dimethylamino)ethyl]-2-(2,5-dioxopyrrolidin-1-yl)-N-(4-methyl-1,3-benzothiazol-2-yl)acetamide hydrochloride

> <CAS>
1216445-11-2

> <PriceCoeff>
1.00

> <MW>
374.46

> <Description>
solid

> <FSP3>
0.44

> <clogP>
1.80

> <TPSA>
102.06

> <Acceptor>
4

> <Donor>
1

> <RotBonds>
7

> <HAC>
26

> <Collection>
General

$$$$
F1300-0076
  -ISIS-  06222321452D

 24 26  0  0  0  0  0  0  0  0999 V2000
   -1.1708    2.9833    0.0000 C   0  0  0  0  0  0  0  0  0  0  0  0
    0.0667    0.8333    0.0000 N   0  0  3  0  0  0  0  0  0  0  0  0
   -1.6583    2.3083    0.0000 N   0  0  0  0  0  0  0  0  0  0  0  0
   -1.6583    3.6458    0.0000 S   0  0  0  0  0  0  0  0  0  0  0  0
   -0.3458    2.9833    0.0000 N   0  0  0  0  0  0  0  0  0  0  0  0
   -0.2708    0.0958    0.0000 C   0  0  0  0  0  0  0  0  0  0  0  0
    0.8875    0.7583    0.0000 C   0  0  0  0  0  0  0  0  0  0  0  0
   -2.4458    3.3958    0.0000 C   0  0  0  0  0  0  0  0  0  0  0  0
   -2.4458    2.5625    0.0000 C   0  0  0  0  0  0  0  0  0  0  0  0
    0.0667    2.2708    0.0000 C   0  0  0  0  0  0  0  0  0  0  0  0
   -0.3500    1.5458    0.0000 C   0  0  0  0  0  0  0  0  0  0  0  0
   -4.5833    3.7958    0.0000 C   0  0  0  0  0  0  0  0  0  0  0  0
   -3.8625    3.3958    0.0000 C   0  0  0  0  0  0  0  0  0  0  0  0
   -3.1583    3.8083    0.0000 C   0  0  0  0  0  0  0  0  0  0  0  0
    1.0542   -0.0417    0.0000 C   0  0  0  0  0  0  0  0  0  0  0  0
    0.3500   -0.4542    0.0000 C   0  0  0  0  0  0  0  0  0  0  0  0
    1.4292    1.3625    0.0000 O   0  0  0  0  0  0  0  0  0  0  0  0
   -1.0625   -0.0792    0.0000 O   0  0  0  0  0  0  0  0  0  0  0  0
    0.8792    2.2708    0.0000 O   0  0  0  0  0  0  0  0  0  0  0  0
   -5.2875    3.3833    0.0000 O   0  0  0  0  0  0  0  0  0  0  0  0
   -3.1583    2.1583    0.0000 C   0  0  0  0  0  0  0  0  0  0  0  0
   -3.8625    2.5625    0.0000 C   0  0  0  0  0  0  0  0  0  0  0  0
   -4.5833    4.6250    0.0000 O   0  0  0  0  0  0  0  0  0  0  0  0
   -3.8708    5.0292    0.0000 C   0  0  0  0  0  0  0  0  0  0  0  0
  2 11  1  0  0  0  0
  3  1  2  0  0  0  0
  4  1  1  0  0  0  0
  5  1  1  0  0  0  0
  6  2  1  0  0  0  0
  7  2  1  0  0  0  0
  8  4  1  0  0  0  0
  9  3  1  0  0  0  0
 10  5  1  0  0  0  0
 11 10  1  0  0  0  0
 12 13  1  0  0  0  0
 13 14  2  0  0  0  0
 14  8  1  0  0  0  0
 15  7  1  0  0  0  0
 16  6  1  0  0  0  0
 17  7  2  0  0  0  0
 18  6  2  0  0  0  0
 19 10  2  0  0  0  0
 20 12  2  0  0  0  0
 21  9  1  0  0  0  0
 22 21  2  0  0  0  0
 23 12  1  0  0  0  0
 24 23  1  0  0  0  0
  8  9  2  0  0  0  0
 13 22  1  0  0  0  0
 15 16  1  0  0  0  0
M  END
> <IDNUMBER>
F1300-0076

> <Chemical_Name>
methyl 2-[2-(2,5-dioxopyrrolidin-1-yl)acetamido]-1,3-benzothiazole-6-carboxylate

> <CAS>
339584-42-8

> <PriceCoeff>
1.00

> <MW>
347.35

> <Description>
solid

> <FSP3>
0.27

> <clogP>
1.49

> <TPSA>
133.91

> <Acceptor>
6

> <Donor>
1

> <RotBonds>
5

> <HAC>
24

> <Collection>
General

$$$$
F1358-0042
  -ISIS-  06222321452D

 25 27  0  0  0  0  0  0  0  0999 V2000
   -3.2458    1.5875    0.0000 C   0  0  0  0  0  0  0  0  0  0  0  0
   -3.5000    2.3750    0.0000 C   0  0  0  0  0  0  0  0  0  0  0  0
    0.8417   -0.5125    0.0000 N   0  0  3  0  0  0  0  0  0  0  0  0
   -2.4625    1.3333    0.0000 N   0  0  0  0  0  0  0  0  0  0  0  0
   -2.2958    0.5250    0.0000 C   0  0  0  0  0  0  0  0  0  0  0  0
    1.1292   -1.2750    0.0000 C   0  0  0  0  0  0  0  0  0  0  0  0
    1.5000   -0.0000    0.0000 C   0  0  0  0  0  0  0  0  0  0  0  0
   -3.0208    3.0458    0.0000 C   0  0  0  0  0  0  0  0  0  0  0  0
   -3.9125    1.1083    0.0000 S   0  0  0  0  0  0  0  0  0  0  0  0
    0.0625   -0.2542    0.0000 C   0  0  0  0  0  0  0  0  0  0  0  0
   -4.3333    2.3750    0.0000 C   0  0  0  0  0  0  0  0  0  0  0  0
   -4.5833    1.5875    0.0000 C   0  0  0  0  0  0  0  0  0  0  0  0
   -1.5083    0.2708    0.0000 C   0  0  0  0  0  0  0  0  0  0  0  0
   -2.9000   -0.0250    0.0000 O   0  0  0  0  0  0  0  0  0  0  0  0
    1.9542   -1.2417    0.0000 C   0  0  0  0  0  0  0  0  0  0  0  0
    2.1792   -0.4625    0.0000 C   0  0  0  0  0  0  0  0  0  0  0  0
    0.6750   -1.9667    0.0000 O   0  0  0  0  0  0  0  0  0  0  0  0
    1.4667    0.8458    0.0000 O   0  0  0  0  0  0  0  0  0  0  0  0
   -2.1958    2.9583    0.0000 O   0  0  0  0  0  0  0  0  0  0  0  0
   -0.1000    0.5708    0.0000 C   0  0  0  0  0  0  0  0  0  0  0  0
   -0.5500   -0.7917    0.0000 C   0  0  0  0  0  0  0  0  0  0  0  0
   -1.3375   -0.5292    0.0000 C   0  0  0  0  0  0  0  0  0  0  0  0
   -0.8875    0.8250    0.0000 C   0  0  0  0  0  0  0  0  0  0  0  0
   -3.3583    3.8000    0.0000 O   0  0  0  0  0  0  0  0  0  0  0  0
   -4.1750    3.8833    0.0000 C   0  0  0  0  0  0  0  0  0  0  0  0
  2  1  2  0  0  0  0
  3 10  1  0  0  0  0
  4  1  1  0  0  0  0
  5  4  1  0  0  0  0
  6  3  1  0  0  0  0
  7  3  1  0  0  0  0
  8  2  1  0  0  0  0
  9  1  1  0  0  0  0
 10 20  1  0  0  0  0
 11  2  1  0  0  0  0
 12  9  1  0  0  0  0
 13  5  1  0  0  0  0
 14  5  2  0  0  0  0
 15  6  1  0  0  0  0
 16  7  1  0  0  0  0
 17  6  2  0  0  0  0
 18  7  2  0  0  0  0
 19  8  2  0  0  0  0
 20 23  2  0  0  0  0
 21 22  1  0  0  0  0
 22 13  2  0  0  0  0
 23 13  1  0  0  0  0
 24  8  1  0  0  0  0
 25 24  1  0  0  0  0
 12 11  2  0  0  0  0
 10 21  2  0  0  0  0
 16 15  1  0  0  0  0
M  END
> <IDNUMBER>
F1358-0042

> <Chemical_Name>
methyl 2-[4-(2,5-dioxopyrrolidin-1-yl)benzamido]thiophene-3-carboxylate

> <CAS>
921054-23-1

> <PriceCoeff>
1.00

> <MW>
358.37

> <Description>
solid

> <FSP3>
0.18

> <clogP>
0.96

> <TPSA>
121.02

> <Acceptor>
5

> <Donor>
1

> <RotBonds>
5

> <HAC>
25

> <Collection>
General

$$$$
F1166-0209
  -ISIS-  06222321142D

 26 29  0  0  0  0  0  0  0  0999 V2000
    0.5667    0.8208    0.0000 N   0  0  3  0  0  0  0  0  0  0  0  0
   -0.4250    3.0833    0.0000 C   0  0  0  0  0  0  0  0  0  0  0  0
   -0.9833    2.4708    0.0000 N   0  0  0  0  0  0  0  0  0  0  0  0
   -1.7333    2.8125    0.0000 C   0  0  0  0  0  0  0  0  0  0  0  0
    0.3917    2.9958    0.0000 N   0  0  0  0  0  0  0  0  0  0  0  0
    0.1500    0.1208    0.0000 C   0  0  0  0  0  0  0  0  0  0  0  0
    1.3750    0.6583    0.0000 C   0  0  0  0  0  0  0  0  0  0  0  0
   -0.8333    3.8000    0.0000 S   0  0  0  0  0  0  0  0  0  0  0  0
    0.7250    2.2458    0.0000 C   0  0  0  0  0  0  0  0  0  0  0  0
   -1.6458    3.6333    0.0000 C   0  0  0  0  0  0  0  0  0  0  0  0
   -2.4458    2.4083    0.0000 C   0  0  0  0  0  0  0  0  0  0  0  0
    0.2292    1.5708    0.0000 C   0  0  0  0  0  0  0  0  0  0  0  0
   -2.4500    1.5833    0.0000 C   0  0  0  0  0  0  0  0  0  0  0  0
   -3.1625    1.1750    0.0000 C   0  0  0  0  0  0  0  0  0  0  0  0
    1.4542   -0.1667    0.0000 C   0  0  0  0  0  0  0  0  0  0  0  0
    0.7000   -0.5000    0.0000 C   0  0  0  0  0  0  0  0  0  0  0  0
   -3.8750    1.5958    0.0000 C   0  0  0  0  0  0  0  0  0  0  0  0
    1.9750    1.1958    0.0000 O   0  0  0  0  0  0  0  0  0  0  0  0
   -0.6583    0.0375    0.0000 O   0  0  0  0  0  0  0  0  0  0  0  0
    1.5417    2.1500    0.0000 O   0  0  0  0  0  0  0  0  0  0  0  0
   -3.1583    2.8208    0.0000 C   0  0  0  0  0  0  0  0  0  0  0  0
   -3.8708    2.4125    0.0000 C   0  0  0  0  0  0  0  0  0  0  0  0
   -3.1625    0.3500    0.0000 C   0  0  0  0  0  0  0  0  0  0  0  0
   -4.5833    1.1750    0.0000 C   0  0  0  0  0  0  0  0  0  0  0  0
   -3.8750   -0.0542    0.0000 C   0  0  0  0  0  0  0  0  0  0  0  0
   -4.5833    0.3500    0.0000 C   0  0  0  0  0  0  0  0  0  0  0  0
  2  5  1  0  0  0  0
  3  2  2  0  0  0  0
  4  3  1  0  0  0  0
  5  9  1  0  0  0  0
  6  1  1  0  0  0  0
  7  1  1  0  0  0  0
  8  2  1  0  0  0  0
  9 12  1  0  0  0  0
 10  8  1  0  0  0  0
 11  4  1  0  0  0  0
 12  1  1  0  0  0  0
 13 11  2  0  0  0  0
 14 13  1  0  0  0  0
 15  7  1  0  0  0  0
 16  6  1  0  0  0  0
 17 22  1  0  0  0  0
 18  7  2  0  0  0  0
 19  6  2  0  0  0  0
 20  9  2  0  0  0  0
 21 11  1  0  0  0  0
 22 21  2  0  0  0  0
 23 14  1  0  0  0  0
 24 17  1  0  0  0  0
 25 23  1  0  0  0  0
 26 24  1  0  0  0  0
 15 16  1  0  0  0  0
  4 10  2  0  0  0  0
 14 17  2  0  0  0  0
 25 26  1  0  0  0  0
M  END
> <IDNUMBER>
F1166-0209

> <Chemical_Name>
2-(2,5-dioxopyrrolidin-1-yl)-N-[4-(5,6,7,8-tetrahydronaphthalen-2-yl)-1,3-thiazol-2-yl]acetamide

> <CAS>
683777-71-1

> <PriceCoeff>
1.00

> <MW>
369.44

> <Description>
solid

> <FSP3>
0.37

> <clogP>
3.52

> <TPSA>
107.61

> <Acceptor>
4

> <Donor>
1

> <RotBonds>
4

> <HAC>
26

> <Collection>
General

$$$$
F1813-0846
  -ISIS-  06222321142D

 24 26  0  0  0  0  0  0  0  0999 V2000
   -5.9958    3.3958    0.0000 C   0  0  0  0  0  0  0  0  0  0  0  0
   -3.8708    4.6250    0.0000 N   0  0  3  0  0  0  0  0  0  0  0  0
   -6.0750    2.5625    0.0000 N   0  0  0  0  0  0  0  0  0  0  0  0
   -6.8792    2.3958    0.0000 C   0  0  0  0  0  0  0  0  0  0  0  0
   -7.2917    3.1083    0.0000 C   0  0  0  0  0  0  0  0  0  0  0  0
   -6.7417    3.7208    0.0000 S   0  0  0  0  0  0  0  0  0  0  0  0
   -5.2875    3.8000    0.0000 N   0  0  0  0  0  0  0  0  0  0  0  0
   -3.2000    5.0917    0.0000 C   0  0  0  0  0  0  0  0  0  0  0  0
   -4.5333    5.0917    0.0000 C   0  0  0  0  0  0  0  0  0  0  0  0
   -4.5833    3.3958    0.0000 C   0  0  0  0  0  0  0  0  0  0  0  0
   -3.8708    3.8000    0.0000 C   0  0  0  0  0  0  0  0  0  0  0  0
   -7.2792    1.6958    0.0000 C   0  0  0  0  0  0  0  0  0  0  0  0
   -8.1042    3.1125    0.0000 C   0  0  0  0  0  0  0  0  0  0  0  0
   -3.4583    5.8875    0.0000 C   0  0  0  0  0  0  0  0  0  0  0  0
   -4.2833    5.8792    0.0000 C   0  0  0  0  0  0  0  0  0  0  0  0
   -2.4208    4.8375    0.0000 O   0  0  0  0  0  0  0  0  0  0  0  0
   -5.3208    4.8542    0.0000 O   0  0  0  0  0  0  0  0  0  0  0  0
   -4.5833    2.5833    0.0000 O   0  0  0  0  0  0  0  0  0  0  0  0
   -8.5042    2.3958    0.0000 C   0  0  0  0  0  0  0  0  0  0  0  0
   -8.1042    1.6958    0.0000 C   0  0  0  0  0  0  0  0  0  0  0  0
   -6.8750    0.9875    0.0000 O   0  0  0  0  0  0  0  0  0  0  0  0
   -8.5167    3.8208    0.0000 O   0  0  0  0  0  0  0  0  0  0  0  0
   -7.1917    0.1375    0.0000 C   0  0  0  0  0  0  0  0  0  0  0  0
   -9.3375    3.8125    0.0000 C   0  0  0  0  0  0  0  0  0  0  0  0
  2 11  1  0  0  0  0
  3  1  2  0  0  0  0
  4  3  1  0  0  0  0
  5  6  1  0  0  0  0
  6  1  1  0  0  0  0
  7  1  1  0  0  0  0
  8  2  1  0  0  0  0
  9  2  1  0  0  0  0
 10  7  1  0  0  0  0
 11 10  1  0  0  0  0
 12  4  2  0  0  0  0
 13  5  2  0  0  0  0
 14  8  1  0  0  0  0
 15  9  1  0  0  0  0
 16  8  2  0  0  0  0
 17  9  2  0  0  0  0
 18 10  2  0  0  0  0
 19 13  1  0  0  0  0
 20 12  1  0  0  0  0
 21 12  1  0  0  0  0
 22 13  1  0  0  0  0
 23 21  1  0  0  0  0
 24 22  1  0  0  0  0
  5  4  1  0  0  0  0
 19 20  2  0  0  0  0
 14 15  1  0  0  0  0
M  END
> <IDNUMBER>
F1813-0846

> <Chemical_Name>
N-(4,7-dimethoxy-1,3-benzothiazol-2-yl)-2-(2,5-dioxopyrrolidin-1-yl)acetamide

> <CAS>
906784-16-5

> <PriceCoeff>
1.00

> <MW>
349.36

> <Description>
solid

> <FSP3>
0.33

> <clogP>
2.01

> <TPSA>
126.07

> <Acceptor>
6

> <Donor>
1

> <RotBonds>
5

> <HAC>
24

> <Collection>
General

$$$$
F2898-5747
  -ISIS-  06222321152D

 30 33  0  0  0  0  0  0  0  0999 V2000
    6.7042   -5.5500    0.0000 C   0  0  0  0  0  0  0  0  0  0  0  0
    6.7917   -4.7250    0.0000 N   0  0  0  0  0  0  0  0  0  0  0  0
    3.8292   -5.5375    0.0000 N   0  0  3  0  0  0  0  0  0  0  0  0
    5.9792   -5.9667    0.0000 N   0  0  3  0  0  0  0  0  0  0  0  0
    7.6042   -4.5500    0.0000 C   0  0  0  0  0  0  0  0  0  0  0  0
    7.4667   -5.8917    0.0000 S   0  0  0  0  0  0  0  0  0  0  0  0
    8.0167   -3.8292    0.0000 C   0  0  0  0  0  0  0  0  0  0  0  0
    5.2667   -5.5417    0.0000 C   0  0  0  0  0  0  0  0  0  0  0  0
    7.6042   -3.1167    0.0000 C   0  0  3  0  0  0  0  0  0  0  0  0
    4.5417   -5.9542    0.0000 C   0  0  0  0  0  0  0  0  0  0  0  0
    3.0667   -5.8625    0.0000 C   0  0  0  0  0  0  0  0  0  0  0  0
    3.7500   -4.7125    0.0000 C   0  0  0  0  0  0  0  0  0  0  0  0
    8.0167   -5.2667    0.0000 C   0  0  0  0  0  0  0  0  0  0  0  0
    5.9792   -6.7917    0.0000 C   0  0  0  0  0  0  0  0  0  0  0  0
    5.2667   -4.7125    0.0000 O   0  0  0  0  0  0  0  0  0  0  0  0
    2.9417   -4.5292    0.0000 C   0  0  0  0  0  0  0  0  0  0  0  0
    2.5250   -5.2375    0.0000 C   0  0  0  0  0  0  0  0  0  0  0  0
    4.3667   -4.1542    0.0000 O   0  0  0  0  0  0  0  0  0  0  0  0
    2.8917   -6.6792    0.0000 O   0  0  0  0  0  0  0  0  0  0  0  0
    7.9167   -2.3042    0.0000 F   0  0  0  0  0  0  0  0  0  0  0  0
    6.7500   -2.9792    0.0000 F   0  0  0  0  0  0  0  0  0  0  0  0
    7.2292   -2.4625    0.0000 F   0  0  0  0  0  0  0  0  0  0  0  0
    6.7917   -8.0375    0.0000 O   0  0  0  0  0  0  0  0  0  0  0  0
    6.7042   -7.2125    0.0000 C   0  0  3  0  0  0  0  0  0  0  0  0
    8.8500   -3.8292    0.0000 C   0  0  0  0  0  0  0  0  0  0  0  0
    8.8542   -5.2750    0.0000 C   0  0  0  0  0  0  0  0  0  0  0  0
    9.2667   -4.5542    0.0000 C   0  0  0  0  0  0  0  0  0  0  0  0
    7.6042   -8.2125    0.0000 C   0  0  0  0  0  0  0  0  0  0  0  0
    7.4667   -6.8750    0.0000 C   0  0  0  0  0  0  0  0  0  0  0  0
    8.0167   -7.4917    0.0000 C   0  0  0  0  0  0  0  0  0  0  0  0
  2  1  2  0  0  0  0
  3 10  1  0  0  0  0
  4  1  1  0  0  0  0
  5  2  1  0  0  0  0
  6  1  1  0  0  0  0
  7  5  1  0  0  0  0
  8  4  1  0  0  0  0
  9  7  1  0  0  0  0
 10  8  1  0  0  0  0
 11  3  1  0  0  0  0
 12  3  1  0  0  0  0
 13  6  1  0  0  0  0
 14  4  1  0  0  0  0
 15  8  2  0  0  0  0
 16 12  1  0  0  0  0
 17 11  1  0  0  0  0
 18 12  2  0  0  0  0
 19 11  2  0  0  0  0
 20  9  1  0  0  0  0
 21  9  1  0  0  0  0
 22  9  1  0  0  0  0
 23 24  1  0  0  0  0
 24 14  1  0  0  0  0
 25  7  2  0  0  0  0
 26 13  1  0  0  0  0
 27 26  2  0  0  0  0
 28 23  1  0  0  0  0
 29 24  1  0  0  0  0
 30 29  1  0  0  0  0
  5 13  2  0  0  0  0
 27 25  1  0  0  0  0
 28 30  1  0  0  0  0
 16 17  1  0  0  0  0
M  END
> <IDNUMBER>
F2898-5747

> <Chemical_Name>
2-(2,5-dioxopyrrolidin-1-yl)-N-[(oxolan-2-yl)methyl]-N-[4-(trifluoromethyl)-1,3-benzothiazol-2-yl]acetamide

> <CAS>
1396867-38-1

> <PriceCoeff>
1.00

> <MW>
441.42

> <Description>
solid

> <FSP3>
0.47

> <clogP>
2.47

> <TPSA>
108.05

> <Acceptor>
5

> <Donor>
0

> <RotBonds>
6

> <HAC>
30

> <Collection>
General

$$$$
F2049-0468
  -ISIS-  06222321442D

 22 24  0  0  0  0  0  0  0  0999 V2000
   -4.4833    6.6875    0.0000 N   0  0  3  0  0  0  0  0  0  0  0  0
   -5.2083    6.2667    0.0000 C   0  0  0  0  0  0  0  0  0  0  0  0
   -3.7583    6.2792    0.0000 C   0  0  0  0  0  0  0  0  0  0  0  0
   -3.7583    5.4500    0.0000 C   0  0  0  0  0  0  0  0  0  0  0  0
   -3.7500    3.8000    0.0000 C   0  0  0  0  0  0  0  0  0  0  0  0
   -3.0375    4.2125    0.0000 N   0  0  0  0  0  0  0  0  0  0  0  0
   -3.0458    6.6917    0.0000 C   0  0  0  0  0  0  0  0  0  0  0  0
   -5.1958    5.4375    0.0000 O   0  0  0  0  0  0  0  0  0  0  0  0
   -3.0375    5.0292    0.0000 C   0  0  0  0  0  0  0  0  0  0  0  0
   -5.9208    6.6792    0.0000 C   0  0  0  0  0  0  0  0  0  0  0  0
   -4.4708    4.2167    0.0000 O   0  0  0  0  0  0  0  0  0  0  0  0
   -2.3250    6.2792    0.0000 C   0  0  0  0  0  0  0  0  0  0  0  0
   -4.4833    7.5167    0.0000 C   0  0  0  0  0  0  0  0  0  0  0  0
   -2.3250    5.4542    0.0000 C   0  0  0  0  0  0  0  0  0  0  0  0
   -3.7708    7.9292    0.0000 C   0  0  0  0  0  0  0  0  0  0  0  0
   -3.0500    7.5167    0.0000 C   0  0  0  0  0  0  0  0  0  0  0  0
   -3.7500    2.9833    0.0000 C   0  0  0  0  0  0  0  0  0  0  0  0
   -5.9208    7.5042    0.0000 C   0  0  0  0  0  0  0  0  0  0  0  0
   -6.6167    6.2542    0.0000 C   0  0  0  0  0  0  0  0  0  0  0  0
   -7.3417    6.6667    0.0000 C   0  0  0  0  0  0  0  0  0  0  0  0
   -6.6292    7.9167    0.0000 C   0  0  0  0  0  0  0  0  0  0  0  0
   -7.3417    7.5042    0.0000 C   0  0  0  0  0  0  0  0  0  0  0  0
  2  1  1  0  0  0  0
  3  1  1  0  0  0  0
  4  3  1  0  0  0  0
  5  6  1  0  0  0  0
  6  9  1  0  0  0  0
  7  3  2  0  0  0  0
  8  2  2  0  0  0  0
  9  4  2  0  0  0  0
 10  2  1  0  0  0  0
 11  5  2  0  0  0  0
 12  7  1  0  0  0  0
 13  1  1  0  0  0  0
 14 12  2  0  0  0  0
 15 13  1  0  0  0  0
 16 15  1  0  0  0  0
 17  5  1  0  0  0  0
 18 10  2  0  0  0  0
 19 10  1  0  0  0  0
 20 19  2  0  0  0  0
 21 18  1  0  0  0  0
 22 20  1  0  0  0  0
 16  7  1  0  0  0  0
 14  9  1  0  0  0  0
 22 21  2  0  0  0  0
M  END
> <IDNUMBER>
F2049-0468

> <Chemical_Name>
N-(1-benzoyl-1,2,3,4-tetrahydroquinolin-7-yl)acetamide

> <CAS>
946266-74-6

> <PriceCoeff>
1.00

> <MW>
294.35

> <Description>
solid

> <FSP3>
0.22

> <clogP>
2.06

> <TPSA>
49.41

> <Acceptor>
2

> <Donor>
1

> <RotBonds>
3

> <HAC>
22

> <Collection>
General

> <Reference_compound>
CHEMBL2286415

> <Similarity>
0.8060

$$$$
F3188-0005
  -ISIS-  06222321462D

 28 30  0  0  0  0  0  0  0  0999 V2000
    4.1292   -2.6917    0.0000 N   0  0  3  0  0  0  0  0  0  0  0  0
    4.6167   -3.3542    0.0000 C   0  0  0  0  0  0  0  0  0  0  0  0
    4.6125   -2.0167    0.0000 C   0  0  0  0  0  0  0  0  0  0  0  0
    5.4042   -3.0917    0.0000 C   0  0  3  0  0  0  0  0  0  0  0  0
    5.4000   -2.2667    0.0000 C   0  0  0  0  0  0  0  0  0  0  0  0
    3.3042   -2.6917    0.0000 C   0  0  0  0  0  0  0  0  0  0  0  0
    6.0667   -3.5792    0.0000 N   0  0  3  0  0  0  0  0  0  0  0  0
    7.4042   -4.5417    0.0000 N   0  0  3  0  0  0  0  0  0  0  0  0
    8.0750   -5.0292    0.0000 C   0  0  0  0  0  0  0  0  0  0  0  0
    2.8917   -1.9792    0.0000 C   0  0  0  0  0  0  0  0  0  0  0  0
    2.0667   -1.9875    0.0000 C   0  0  0  0  0  0  0  0  0  0  0  0
    4.3667   -4.1417    0.0000 O   0  0  0  0  0  0  0  0  0  0  0  0
    2.9000   -3.4125    0.0000 C   0  0  0  0  0  0  0  0  0  0  0  0
    4.3542   -1.2375    0.0000 O   0  0  0  0  0  0  0  0  0  0  0  0
    7.4875   -3.7167    0.0000 C   0  0  0  0  0  0  0  0  0  0  0  0
    6.6500   -4.8792    0.0000 C   0  0  0  0  0  0  0  0  0  0  0  0
    6.8167   -3.2375    0.0000 C   0  0  0  0  0  0  0  0  0  0  0  0
    5.9792   -4.4000    0.0000 C   0  0  0  0  0  0  0  0  0  0  0  0
    8.8292   -4.6917    0.0000 O   0  0  0  0  0  0  0  0  0  0  0  0
    1.6542   -2.7042    0.0000 C   0  0  0  0  0  0  0  0  0  0  0  0
    7.9875   -5.8500    0.0000 O   0  0  0  0  0  0  0  0  0  0  0  0
    2.0792   -3.4167    0.0000 C   0  0  0  0  0  0  0  0  0  0  0  0
    3.3000   -1.2667    0.0000 O   0  0  0  0  0  0  0  0  0  0  0  0
    0.8292   -2.7042    0.0000 O   0  0  0  0  0  0  0  0  0  0  0  0
    7.2375   -6.1792    0.0000 C   0  0  0  0  0  0  0  0  0  0  0  0
    2.8875   -0.5542    0.0000 C   0  0  0  0  0  0  0  0  0  0  0  0
    0.4167   -1.9917    0.0000 C   0  0  0  0  0  0  0  0  0  0  0  0
    7.1500   -7.0042    0.0000 C   0  0  0  0  0  0  0  0  0  0  0  0
  2  1  1  0  0  0  0
  3  1  1  0  0  0  0
  4  2  1  0  0  0  0
  5  3  1  0  0  0  0
  6  1  1  0  0  0  0
  7  4  1  0  0  0  0
  8 16  1  0  0  0  0
  9  8  1  0  0  0  0
 10  6  2  0  0  0  0
 11 10  1  0  0  0  0
 12  2  2  0  0  0  0
 13  6  1  0  0  0  0
 14  3  2  0  0  0  0
 15 17  1  0  0  0  0
 16 18  1  0  0  0  0
 17  7  1  0  0  0  0
 18  7  1  0  0  0  0
 19  9  2  0  0  0  0
 20 22  1  0  0  0  0
 21  9  1  0  0  0  0
 22 13  2  0  0  0  0
 23 10  1  0  0  0  0
 24 20  1  0  0  0  0
 25 21  1  0  0  0  0
 26 23  1  0  0  0  0
 27 24  1  0  0  0  0
 28 25  1  0  0  0  0
  5  4  1  0  0  0  0
 20 11  2  0  0  0  0
  8 15  1  0  0  0  0
M  END
> <IDNUMBER>
F3188-0005

> <Chemical_Name>
ethyl 4-[1-(2,4-dimethoxyphenyl)-2,5-dioxopyrrolidin-3-yl]piperazine-1-carboxylate

> <CAS>
857494-13-4

> <PriceCoeff>
1.00

> <MW>
391.42

> <Description>
solid

> <FSP3>
0.53

> <clogP>
2.50

> <TPSA>
88.62

> <Acceptor>
6

> <Donor>
1

> <RotBonds>
7

> <HAC>
28

> <Collection>
General

$$$$
F2073-0118
  -ISIS-  06222321142D

 26 28  0  0  0  0  0  0  0  0999 V2000
   -1.4375    5.5417    0.0000 N   0  0  3  0  0  0  0  0  0  0  0  0
   -2.3833    4.4667    0.0000 C   0  0  0  0  0  0  0  0  0  0  0  0
   -2.2125    5.2792    0.0000 C   0  0  0  0  0  0  0  0  0  0  0  0
   -0.8208    4.9917    0.0000 C   0  0  0  0  0  0  0  0  0  0  0  0
   -0.9750    4.1875    0.0000 N   0  0  0  0  0  0  0  0  0  0  0  0
   -1.7583    3.9333    0.0000 C   0  0  0  0  0  0  0  0  0  0  0  0
   -3.1583    4.2042    0.0000 N   0  0  0  0  0  0  0  0  0  0  0  0
   -6.3042    6.8167    0.0000 N   0  3  0  0  0  0  0  0  0  0  0  0
   -3.7708    4.7500    0.0000 C   0  0  0  0  0  0  0  0  0  0  0  0
   -4.4083    5.2667    0.0000 C   0  0  0  0  0  0  0  0  0  0  0  0
   -1.2833    6.3375    0.0000 C   0  0  0  0  0  0  0  0  0  0  0  0
   -4.2708    6.0792    0.0000 C   0  0  0  0  0  0  0  0  0  0  0  0
   -5.6708    6.3042    0.0000 C   0  0  0  0  0  0  0  0  0  0  0  0
   -0.0500    5.2542    0.0000 C   0  0  0  0  0  0  0  0  0  0  0  0
   -4.9083    6.5917    0.0000 C   0  0  0  0  0  0  0  0  0  0  0  0
   -0.5083    6.6042    0.0000 C   0  0  0  0  0  0  0  0  0  0  0  0
   -5.1708    4.9667    0.0000 C   0  0  0  0  0  0  0  0  0  0  0  0
    0.1125    6.0667    0.0000 C   0  0  0  0  0  0  0  0  0  0  0  0
   -6.1792    7.6292    0.0000 O   0  5  0  0  0  0  0  0  0  0  0  0
   -2.8333    5.8167    0.0000 O   0  0  0  0  0  0  0  0  0  0  0  0
   -7.0792    6.5250    0.0000 O   0  0  0  0  0  0  0  0  0  0  0  0
   -3.9000    3.9458    0.0000 O   0  0  0  0  0  0  0  0  0  0  0  0
   -5.7958    5.4792    0.0000 C   0  0  0  0  0  0  0  0  0  0  0  0
   -3.5083    6.3667    0.0000 Cl  0  0  0  0  0  0  0  0  0  0  0  0
   -0.3458    7.4042    0.0000 Cl  0  0  0  0  0  0  0  0  0  0  0  0
   -1.9250    3.1250    0.0000 C   0  0  0  0  0  0  0  0  0  0  0  0
  2  3  1  0  0  0  0
  3  1  1  0  0  0  0
  4  1  1  0  0  0  0
  5  4  2  0  0  0  0
  6  5  1  0  0  0  0
  7  2  1  0  0  0  0
  8 13  1  0  0  0  0
  9  7  1  0  0  0  0
 10  9  1  0  0  0  0
 11  1  1  0  0  0  0
 12 10  2  0  0  0  0
 13 23  1  0  0  0  0
 14  4  1  0  0  0  0
 15 12  1  0  0  0  0
 16 11  2  0  0  0  0
 17 10  1  0  0  0  0
 18 16  1  0  0  0  0
 19  8  1  0  0  0  0
 20  3  2  0  0  0  0
 21  8  2  0  0  0  0
 22  9  2  0  0  0  0
 23 17  2  0  0  0  0
 24 12  1  0  0  0  0
 25 16  1  0  0  0  0
 26  6  1  0  0  0  0
 18 14  2  0  0  0  0
  6  2  2  0  0  0  0
 13 15  2  0  0  0  0
M  CHG  2   8   1  19  -1
M  END
> <IDNUMBER>
F2073-0118

> <Chemical_Name>
2-chloro-N-{7-chloro-2-methyl-4-oxo-4H-pyrido[1,2-a]pyrimidin-3-yl}-4-nitrobenzamide

> <CAS>
941923-23-5

> <PriceCoeff>
1.00

> <MW>
393.18

> <Description>
solid

> <FSP3>
0.06

> <clogP>
1.97

> <TPSA>
104.91

> <Acceptor>
5

> <Donor>
1

> <RotBonds>
3

> <HAC>
26

> <Collection>
General

$$$$
F2517-1310
  -ISIS-  06222321142D

 27 29  0  0  0  0  0  0  0  0999 V2000
    1.9167   -5.7625    0.0000 N   0  0  3  0  0  0  0  0  0  0  0  0
    4.8125   -5.7500    0.0000 C   0  0  0  0  0  0  0  0  0  0  0  0
    5.5542   -6.0792    0.0000 O   0  0  0  0  0  0  0  0  0  0  0  0
    6.1125   -5.4667    0.0000 C   0  0  0  0  0  0  0  0  0  0  0  0
    5.7000   -4.7542    0.0000 N   0  0  0  0  0  0  0  0  0  0  0  0
    4.8917   -4.9292    0.0000 N   0  0  0  0  0  0  0  0  0  0  0  0
    4.0917   -6.1667    0.0000 N   0  0  0  0  0  0  0  0  0  0  0  0
    1.8292   -4.9292    0.0000 C   0  0  0  0  0  0  0  0  0  0  0  0
    1.1542   -6.1000    0.0000 C   0  0  0  0  0  0  0  0  0  0  0  0
    9.6792   -6.7292    0.0000 C   0  0  3  0  0  0  0  0  0  0  0  0
    3.3667   -5.7542    0.0000 C   0  0  0  0  0  0  0  0  0  0  0  0
    2.6417   -6.1792    0.0000 C   0  0  0  0  0  0  0  0  0  0  0  0
    6.9292   -5.5917    0.0000 C   0  0  0  0  0  0  0  0  0  0  0  0
    9.3792   -5.9625    0.0000 O   0  0  0  0  0  0  0  0  0  0  0  0
    1.0167   -4.7625    0.0000 C   0  0  0  0  0  0  0  0  0  0  0  0
    0.6042   -5.4750    0.0000 C   0  0  0  0  0  0  0  0  0  0  0  0
    2.4458   -4.3667    0.0000 O   0  0  0  0  0  0  0  0  0  0  0  0
    0.9792   -6.9250    0.0000 O   0  0  0  0  0  0  0  0  0  0  0  0
    3.3542   -4.9167    0.0000 O   0  0  0  0  0  0  0  0  0  0  0  0
    7.2292   -6.3542    0.0000 C   0  0  0  0  0  0  0  0  0  0  0  0
    7.4417   -4.9500    0.0000 C   0  0  0  0  0  0  0  0  0  0  0  0
    8.9375   -7.0792    0.0000 F   0  0  0  0  0  0  0  0  0  0  0  0
   10.4292   -6.3792    0.0000 F   0  0  0  0  0  0  0  0  0  0  0  0
   10.0792   -7.4417    0.0000 F   0  0  0  0  0  0  0  0  0  0  0  0
    8.5625   -5.8417    0.0000 C   0  0  0  0  0  0  0  0  0  0  0  0
    8.0417   -6.4875    0.0000 C   0  0  0  0  0  0  0  0  0  0  0  0
    8.2542   -5.0750    0.0000 C   0  0  0  0  0  0  0  0  0  0  0  0
  2  7  1  0  0  0  0
  3  2  1  0  0  0  0
  4  3  1  0  0  0  0
  5  6  1  0  0  0  0
  6  2  2  0  0  0  0
  7 11  1  0  0  0  0
  8  1  1  0  0  0  0
  9  1  1  0  0  0  0
 10 14  1  0  0  0  0
 11 12  1  0  0  0  0
 12  1  1  0  0  0  0
 13  4  1  0  0  0  0
 14 25  1  0  0  0  0
 15  8  1  0  0  0  0
 16  9  1  0  0  0  0
 17  8  2  0  0  0  0
 18  9  2  0  0  0  0
 19 11  2  0  0  0  0
 20 13  2  0  0  0  0
 21 13  1  0  0  0  0
 22 10  1  0  0  0  0
 23 10  1  0  0  0  0
 24 10  1  0  0  0  0
 25 27  1  0  0  0  0
 26 20  1  0  0  0  0
 27 21  2  0  0  0  0
 15 16  1  0  0  0  0
  4  5  2  0  0  0  0
 26 25  2  0  0  0  0
M  END
> <IDNUMBER>
F2517-1310

> <Chemical_Name>
2-(2,5-dioxopyrrolidin-1-yl)-N-{5-[4-(trifluoromethoxy)phenyl]-1,3,4-oxadiazol-2-yl}acetamide

> <CAS>
1286713-86-7

> <PriceCoeff>
1.00

> <MW>
384.27

> <Description>
solid

> <FSP3>
0.27

> <clogP>
1.58

> <TPSA>
114.63

> <Acceptor>
7

> <Donor>
1

> <RotBonds>
5

> <HAC>
27

> <Collection>
General

$$$$
F1358-0173
  -ISIS-  06222321442D

 26 28  0  0  0  0  0  0  0  0999 V2000
   -3.2458    1.5875    0.0000 C   0  0  0  0  0  0  0  0  0  0  0  0
   -3.5000    2.3750    0.0000 C   0  0  0  0  0  0  0  0  0  0  0  0
    0.8417   -0.5125    0.0000 N   0  0  3  0  0  0  0  0  0  0  0  0
   -2.4625    1.3333    0.0000 N   0  0  0  0  0  0  0  0  0  0  0  0
   -2.2958    0.5250    0.0000 C   0  0  0  0  0  0  0  0  0  0  0  0
    1.1292   -1.2750    0.0000 C   0  0  0  0  0  0  0  0  0  0  0  0
    1.5000   -0.0000    0.0000 C   0  0  0  0  0  0  0  0  0  0  0  0
   -3.0208    3.0458    0.0000 C   0  0  0  0  0  0  0  0  0  0  0  0
   -3.9125    1.1083    0.0000 S   0  0  0  0  0  0  0  0  0  0  0  0
    0.0625   -0.2542    0.0000 C   0  0  0  0  0  0  0  0  0  0  0  0
   -4.3333    2.3750    0.0000 C   0  0  0  0  0  0  0  0  0  0  0  0
   -4.5833    1.5875    0.0000 C   0  0  0  0  0  0  0  0  0  0  0  0
   -1.5083    0.2708    0.0000 C   0  0  0  0  0  0  0  0  0  0  0  0
   -2.9000   -0.0250    0.0000 O   0  0  0  0  0  0  0  0  0  0  0  0
    1.9542   -1.2417    0.0000 C   0  0  0  0  0  0  0  0  0  0  0  0
    2.1792   -0.4625    0.0000 C   0  0  0  0  0  0  0  0  0  0  0  0
    0.6750   -1.9667    0.0000 O   0  0  0  0  0  0  0  0  0  0  0  0
    1.4667    0.8458    0.0000 O   0  0  0  0  0  0  0  0  0  0  0  0
   -2.1958    2.9583    0.0000 O   0  0  0  0  0  0  0  0  0  0  0  0
   -0.1000    0.5708    0.0000 C   0  0  0  0  0  0  0  0  0  0  0  0
   -0.5500   -0.7917    0.0000 C   0  0  0  0  0  0  0  0  0  0  0  0
   -1.3375   -0.5292    0.0000 C   0  0  0  0  0  0  0  0  0  0  0  0
   -0.8875    0.8250    0.0000 C   0  0  0  0  0  0  0  0  0  0  0  0
   -3.3583    3.8000    0.0000 O   0  0  0  0  0  0  0  0  0  0  0  0
   -4.1833    3.8833    0.0000 C   0  0  0  0  0  0  0  0  0  0  0  0
   -4.6625    3.2208    0.0000 C   0  0  0  0  0  0  0  0  0  0  0  0
  2  1  2  0  0  0  0
  3 10  1  0  0  0  0
  4  1  1  0  0  0  0
  5  4  1  0  0  0  0
  6  3  1  0  0  0  0
  7  3  1  0  0  0  0
  8  2  1  0  0  0  0
  9  1  1  0  0  0  0
 10 20  1  0  0  0  0
 11  2  1  0  0  0  0
 12  9  1  0  0  0  0
 13  5  1  0  0  0  0
 14  5  2  0  0  0  0
 15  6  1  0  0  0  0
 16  7  1  0  0  0  0
 17  6  2  0  0  0  0
 18  7  2  0  0  0  0
 19  8  2  0  0  0  0
 20 23  2  0  0  0  0
 21 22  1  0  0  0  0
 22 13  2  0  0  0  0
 23 13  1  0  0  0  0
 24  8  1  0  0  0  0
 25 24  1  0  0  0  0
 26 25  1  0  0  0  0
 12 11  2  0  0  0  0
 10 21  2  0  0  0  0
 16 15  1  0  0  0  0
M  END
> <IDNUMBER>
F1358-0173

> <Chemical_Name>
ethyl 2-[4-(2,5-dioxopyrrolidin-1-yl)benzamido]thiophene-3-carboxylate

> <CAS>
921140-92-3

> <PriceCoeff>
1.00

> <MW>
372.40

> <Description>
solid

> <FSP3>
0.22

> <clogP>
1.49

> <TPSA>
121.02

> <Acceptor>
5

> <Donor>
1

> <RotBonds>
6

> <HAC>
26

> <Collection>
General

$$$$
F3316-0247
  -ISIS-  06222321462D

 22 23  0  0  0  0  0  0  0  0999 V2000
    1.6042   -1.6542    0.0000 N   0  0  3  0  0  0  0  0  0  0  0  0
    0.7792   -1.6042    0.0000 N   0  0  0  0  0  0  0  0  0  0  0  0
    1.2542   -0.3667    0.0000 C   0  0  0  0  0  0  0  0  0  0  0  0
    1.9000   -0.8792    0.0000 C   0  0  0  0  0  0  0  0  0  0  0  0
    0.5667   -0.8167    0.0000 C   0  0  0  0  0  0  0  0  0  0  0  0
    6.5417   -1.6417    0.0000 N   0  3  0  0  0  0  0  0  0  0  0  0
    5.7167   -1.6417    0.0000 C   0  0  0  0  0  0  0  0  0  0  0  0
    4.0667   -3.0792    0.0000 C   0  0  0  0  0  0  0  0  0  0  0  0
    4.4792   -2.3542    0.0000 C   0  0  0  0  0  0  0  0  0  0  0  0
    5.3042   -2.3542    0.0000 C   0  0  0  0  0  0  0  0  0  0  0  0
    6.9542   -2.3542    0.0000 O   0  5  0  0  0  0  0  0  0  0  0  0
    6.9500   -0.9292    0.0000 O   0  0  0  0  0  0  0  0  0  0  0  0
    2.0042   -2.3667    0.0000 C   0  0  0  0  0  0  0  0  0  0  0  0
    1.2542    0.4583    0.0000 Cl  0  0  0  0  0  0  0  0  0  0  0  0
    4.4792   -3.7917    0.0000 O   0  0  0  0  0  0  0  0  0  0  0  0
    3.2417   -3.0792    0.0000 N   0  0  0  0  0  0  0  0  0  0  0  0
    2.6917   -0.6667    0.0000 C   0  0  0  0  0  0  0  0  0  0  0  0
    2.8375   -2.3667    0.0000 C   0  0  0  0  0  0  0  0  0  0  0  0
   -0.2333   -0.6000    0.0000 C   0  0  0  0  0  0  0  0  0  0  0  0
    5.3042   -0.9292    0.0000 C   0  0  0  0  0  0  0  0  0  0  0  0
    4.0667   -1.6500    0.0000 C   0  0  0  0  0  0  0  0  0  0  0  0
    4.4792   -0.9375    0.0000 C   0  0  0  0  0  0  0  0  0  0  0  0
  2  1  1  0  0  0  0
  3  4  2  0  0  0  0
  4  1  1  0  0  0  0
  5  2  2  0  0  0  0
  6  7  1  0  0  0  0
  7 10  1  0  0  0  0
  8 16  1  0  0  0  0
  9  8  1  0  0  0  0
 10  9  2  0  0  0  0
 11  6  1  0  0  0  0
 12  6  2  0  0  0  0
 13  1  1  0  0  0  0
 14  3  1  0  0  0  0
 15  8  2  0  0  0  0
 16 18  1  0  0  0  0
 17  4  1  0  0  0  0
 18 13  1  0  0  0  0
 19  5  1  0  0  0  0
 20 22  1  0  0  0  0
 21  9  1  0  0  0  0
 22 21  2  0  0  0  0
  5  3  1  0  0  0  0
 20  7  2  0  0  0  0
M  CHG  2   6   1  11  -1
M  END
> <IDNUMBER>
F3316-0247

> <Chemical_Name>
N-[2-(4-chloro-3,5-dimethyl-1H-pyrazol-1-yl)ethyl]-3-nitrobenzamide

> <CAS>
1013991-51-9

> <PriceCoeff>
1.00

> <MW>
322.75

> <Description>
solid

> <FSP3>
0.29

> <clogP>
2.75

> <TPSA>
90.06

> <Acceptor>
4

> <Donor>
1

> <RotBonds>
5

> <HAC>
22

> <Collection>
General

$$$$
F3095-3637
  -ISIS-  06222321152D

 23 25  0  0  0  0  0  0  0  0999 V2000
    2.7542    0.6833    0.0000 N   0  0  3  0  0  0  0  0  0  0  0  0
    2.0417    1.0833    0.0000 C   0  0  0  0  0  0  0  0  0  0  0  0
   -1.5208   -0.1542    0.0000 C   0  0  0  0  0  0  0  0  0  0  0  0
   -2.2333   -0.5792    0.0000 C   0  0  0  0  0  0  0  0  0  0  0  0
    1.3292    0.6708    0.0000 C   0  0  0  0  0  0  0  0  0  0  0  0
    2.0375    1.9125    0.0000 O   0  0  0  0  0  0  0  0  0  0  0  0
    4.1792   -0.1417    0.0000 O   0  0  0  0  0  0  0  0  0  0  0  0
   -1.5250    0.6583    0.0000 C   0  0  0  0  0  0  0  0  0  0  0  0
   -2.2333   -1.4042    0.0000 C   0  0  0  0  0  0  0  0  0  0  0  0
   -2.9458   -0.1667    0.0000 C   0  0  0  0  0  0  0  0  0  0  0  0
   -0.8083   -0.5792    0.0000 C   0  0  0  0  0  0  0  0  0  0  0  0
    0.6167    1.0833    0.0000 O   0  0  0  0  0  0  0  0  0  0  0  0
   -0.1000    0.6625    0.0000 C   0  0  0  0  0  0  0  0  0  0  0  0
   -0.8208    1.0750    0.0000 C   0  0  0  0  0  0  0  0  0  0  0  0
   -0.0958   -0.1542    0.0000 C   0  0  0  0  0  0  0  0  0  0  0  0
   -3.6625   -0.5792    0.0000 C   0  0  0  0  0  0  0  0  0  0  0  0
   -2.9458   -1.8167    0.0000 C   0  0  0  0  0  0  0  0  0  0  0  0
   -3.6625   -1.4042    0.0000 C   0  0  0  0  0  0  0  0  0  0  0  0
    3.4667    1.0958    0.0000 C   0  0  0  0  0  0  0  0  0  0  0  0
    2.7542   -0.1500    0.0000 C   0  0  0  0  0  0  0  0  0  0  0  0
    4.1792    0.6833    0.0000 C   0  0  0  0  0  0  0  0  0  0  0  0
    3.4750   -0.5542    0.0000 C   0  0  0  0  0  0  0  0  0  0  0  0
   -4.3833   -1.8167    0.0000 C   0  0  0  0  0  0  0  0  0  0  0  0
  2  1  1  0  0  0  0
  3 11  2  0  0  0  0
  4  3  1  0  0  0  0
  5  2  1  0  0  0  0
  6  2  2  0  0  0  0
  7 22  1  0  0  0  0
  8 14  2  0  0  0  0
  9  4  1  0  0  0  0
 10  4  2  0  0  0  0
 11 15  1  0  0  0  0
 12  5  1  0  0  0  0
 13 12  1  0  0  0  0
 14 13  1  0  0  0  0
 15 13  2  0  0  0  0
 16 10  1  0  0  0  0
 17  9  2  0  0  0  0
 18 16  2  0  0  0  0
 19  1  1  0  0  0  0
 20  1  1  0  0  0  0
 21 19  1  0  0  0  0
 22 20  1  0  0  0  0
 23 18  1  0  0  0  0
  7 21  1  0  0  0  0
  3  8  1  0  0  0  0
 18 17  1  0  0  0  0
M  END
> <IDNUMBER>
F3095-3637

> <Chemical_Name>
2-({4'-methyl-[1,1'-biphenyl]-4-yl}oxy)-1-(morpholin-4-yl)ethan-1-one

> <CAS>
303031-97-2

> <PriceCoeff>
1.00

> <MW>
311.37

> <Description>
solid

> <FSP3>
0.32

> <clogP>
3.76

> <TPSA>
38.77

> <Acceptor>
3

> <Donor>
0

> <RotBonds>
5

> <HAC>
23

> <Collection>
General

> <Reference_compound>
CHEMBL4282593

> <Similarity>
0.9750

$$$$
F5228-0080
  -ISIS-  06222321152D

 25 27  0  0  0  0  0  0  0  0999 V2000
   -1.4458    4.6542    0.0000 N   0  0  3  0  0  0  0  0  0  0  0  0
    0.1250    5.0667    0.0000 C   0  0  0  0  0  0  0  0  0  0  0  0
   -0.5458    4.4042    0.0000 C   0  0  0  0  0  0  0  0  0  0  0  0
   -1.0125    6.2125    0.0000 N   0  0  0  0  0  0  0  0  0  0  0  0
   -0.1125    5.9667    0.0000 C   0  0  0  0  0  0  0  0  0  0  0  0
   -1.6750    5.5625    0.0000 C   0  0  0  0  0  0  0  0  0  0  0  0
   -4.3333    2.9708    0.0000 C   0  0  0  0  0  0  0  0  0  0  0  0
   -3.0000    4.2625    0.0000 C   0  0  0  0  0  0  0  0  0  0  0  0
   -3.6583    3.6208    0.0000 N   0  0  0  0  0  0  0  0  0  0  0  0
   -2.0958    4.0125    0.0000 C   0  0  0  0  0  0  0  0  0  0  0  0
   -4.0958    2.0625    0.0000 C   0  0  0  0  0  0  0  0  0  0  0  0
   -5.2208    3.2208    0.0000 C   0  0  0  0  0  0  0  0  0  0  0  0
   -0.3125    3.5250    0.0000 O   0  0  0  0  0  0  0  0  0  0  0  0
    0.5375    6.6167    0.0000 C   0  0  0  0  0  0  0  0  0  0  0  0
   -3.2333    5.1542    0.0000 O   0  0  0  0  0  0  0  0  0  0  0  0
   -5.8833    2.5708    0.0000 C   0  0  0  0  0  0  0  0  0  0  0  0
   -4.7583    1.4208    0.0000 C   0  0  0  0  0  0  0  0  0  0  0  0
   -5.6583    1.6708    0.0000 C   0  0  0  0  0  0  0  0  0  0  0  0
   -4.5333    0.5125    0.0000 Cl  0  0  0  0  0  0  0  0  0  0  0  0
   -5.4458    4.1042    0.0000 O   0  0  0  0  0  0  0  0  0  0  0  0
    1.4375    6.3792    0.0000 C   0  0  0  0  0  0  0  0  0  0  0  0
    0.3042    7.5250    0.0000 C   0  0  0  0  0  0  0  0  0  0  0  0
    2.0917    7.0292    0.0000 C   0  0  0  0  0  0  0  0  0  0  0  0
    0.9667    8.1792    0.0000 C   0  0  0  0  0  0  0  0  0  0  0  0
    1.8625    7.9292    0.0000 C   0  0  0  0  0  0  0  0  0  0  0  0
  2  3  1  0  0  0  0
  3  1  1  0  0  0  0
  4  6  2  0  0  0  0
  5  4  1  0  0  0  0
  6  1  1  0  0  0  0
  7  9  1  0  0  0  0
  8 10  1  0  0  0  0
  9  8  1  0  0  0  0
 10  1  1  0  0  0  0
 11  7  1  0  0  0  0
 12  7  2  0  0  0  0
 13  3  2  0  0  0  0
 14  5  1  0  0  0  0
 15  8  2  0  0  0  0
 16 12  1  0  0  0  0
 17 11  2  0  0  0  0
 18 16  2  0  0  0  0
 19 17  1  0  0  0  0
 20 12  1  0  0  0  0
 21 14  2  0  0  0  0
 22 14  1  0  0  0  0
 23 21  1  0  0  0  0
 24 22  2  0  0  0  0
 25 24  1  0  0  0  0
  5  2  2  0  0  0  0
 17 18  1  0  0  0  0
 25 23  2  0  0  0  0
M  END
> <IDNUMBER>
F5228-0080

> <Chemical_Name>
N-(5-chloro-2-hydroxyphenyl)-2-(6-oxo-4-phenyl-1,6-dihydropyrimidin-1-yl)acetamide

> <CAS>
1058226-06-4

> <PriceCoeff>
1.00

> <MW>
355.78

> <Description>
solid

> <FSP3>
0.06

> <clogP>
2.99

> <TPSA>
82.00

> <Acceptor>
4

> <Donor>
2

> <RotBonds>
4

> <HAC>
25

> <Collection>
General

$$$$
F2173-1139
  -ISIS-  06222304352D

 32 31  0  0  0  0  0  0  0  0999 V2000
    3.5292   -4.5375    0.0000 C   0  0  0  0  0  0  0  0  0  0  0  0
    4.1167   -4.2042    0.0000 C   0  0  0  0  0  0  0  0  0  0  0  0
    3.5292   -5.2125    0.0000 C   0  0  0  0  0  0  0  0  0  0  0  0
    4.1167   -3.5250    0.0000 N   0  0  0  0  0  0  0  0  0  0  0  0
    2.9500   -5.5500    0.0000 C   0  0  0  0  0  0  0  0  0  0  0  0
    2.9500   -4.2042    0.0000 C   0  0  0  0  0  0  0  0  0  0  0  0
    4.1167   -5.5500    0.0000 N   0  0  0  0  0  0  0  0  0  0  0  0
    2.3667   -5.2125    0.0000 C   0  0  0  0  0  0  0  0  0  0  0  0
    4.6917   -4.5375    0.0000 C   0  0  0  0  0  0  0  0  0  0  0  0
    2.3667   -4.5375    0.0000 C   0  0  0  0  0  0  0  0  0  0  0  0
    4.6917   -5.2125    0.0000 C   0  0  0  0  0  0  0  0  0  0  0  0
    7.0417   -3.2000    0.0000 N   0  0  3  0  0  0  0  0  0  0  0  0
    1.7792   -5.5542    0.0000 Cl  0  0  0  0  0  0  0  0  0  0  0  0
    4.6792   -3.1667    0.0000 C   0  0  3  0  0  0  0  0  0  0  0  0
    5.9125   -3.2125    0.0000 C   0  0  0  0  0  0  0  0  0  0  0  0
    6.4667   -3.5542    0.0000 C   0  0  0  0  0  0  0  0  0  0  0  0
    7.0417   -2.4667    0.0000 C   0  0  0  0  0  0  0  0  0  0  0  0
    7.6667   -3.5542    0.0000 C   0  0  0  0  0  0  0  0  0  0  0  0
    5.3125   -3.5250    0.0000 C   0  0  0  0  0  0  0  0  0  0  0  0
    4.6792   -2.5542    0.0000 C   0  0  0  0  0  0  0  0  0  0  0  0
    7.6542   -2.1417    0.0000 C   0  0  0  0  0  0  0  0  0  0  0  0
    8.2625   -3.2292    0.0000 C   0  0  0  0  0  0  0  0  0  0  0  0
   10.5167   -2.4875    0.0000 P   0  0  3  0  0  0  0  0  0  0  0  0
   10.5125   -1.6625    0.0000 O   0  0  0  0  0  0  0  0  0  0  0  0
    9.6875   -2.4792    0.0000 O   0  0  0  0  0  0  0  0  0  0  0  0
   10.5125   -3.3125    0.0000 O   0  0  0  0  0  0  0  0  0  0  0  0
   11.3417   -2.4875    0.0000 O   0  0  0  0  0  0  0  0  0  0  0  0
   10.5500   -5.3250    0.0000 P   0  0  3  0  0  0  0  0  0  0  0  0
   10.5417   -4.5000    0.0000 O   0  0  0  0  0  0  0  0  0  0  0  0
   11.3750   -5.3250    0.0000 O   0  0  0  0  0  0  0  0  0  0  0  0
    9.7167   -5.3250    0.0000 O   0  0  0  0  0  0  0  0  0  0  0  0
   10.5417   -6.1500    0.0000 O   0  0  0  0  0  0  0  0  0  0  0  0
 12 16  1  0  0  0  0
 13  8  1  0  0  0  0
 14  4  1  0  0  0  0
 15 19  1  0  0  0  0
 16 15  1  0  0  0  0
 17 12  1  0  0  0  0
 18 12  1  0  0  0  0
 19 14  1  0  0  0  0
 20 14  1  0  0  0  0
 21 17  1  0  0  0  0
 22 18  1  0  0  0  0
  8  5  2  0  0  0  0
 11  9  1  0  0  0  0
  2  1  1  0  0  0  0
  3  1  2  0  0  0  0
  4  2  1  0  0  0  0
  5  3  1  0  0  0  0
  6  1  1  0  0  0  0
  7  3  1  0  0  0  0
  8 10  1  0  0  0  0
  9  2  2  0  0  0  0
 10  6  2  0  0  0  0
 11  7  2  0  0  0  0
 26 23  1  0  0  0  0
 27 23  1  0  0  0  0
 24 23  2  0  0  0  0
 25 23  1  0  0  0  0
 29 28  2  0  0  0  0
 30 28  1  0  0  0  0
 31 28  1  0  0  0  0
 32 28  1  0  0  0  0
M  END
> <IDNUMBER>
F2173-1139

> <Chemical_Name>
7-chloro-N-[5-(diethylamino)pentan-2-yl]quinolin-4-amine; bis(phosphoric acid)

> <CAS>
50-63-5

> <PriceCoeff>
1.00

> <MW>
319.87

> <Description>
solid

> <FSP3>
0.50

> <clogP>
5.06

> <TPSA>
28.16

> <Acceptor>
1

> <Donor>
3

> <RotBonds>
8

> <HAC>
22

> <Collection>
General

> <Reference_compound>
CHEMBL76

> <Similarity>
1.0000

$$$$
F3385-4187
  -ISIS-  06222321152D

 29 32  0  0  0  0  0  0  0  0999 V2000
    8.1792   -7.6917    0.0000 C   0  0  0  0  0  0  0  0  0  0  0  0
    6.7500   -7.6917    0.0000 C   0  0  0  0  0  0  0  0  0  0  0  0
    7.4667   -8.1042    0.0000 C   0  0  0  0  0  0  0  0  0  0  0  0
    6.7542   -6.8667    0.0000 C   0  0  0  0  0  0  0  0  0  0  0  0
    7.4667   -6.4500    0.0000 O   0  0  0  0  0  0  0  0  0  0  0  0
    8.1792   -6.8667    0.0000 C   0  0  0  0  0  0  0  0  0  0  0  0
    6.0375   -6.4542    0.0000 C   0  0  0  0  0  0  0  0  0  0  0  0
    6.0375   -8.1042    0.0000 C   0  0  0  0  0  0  0  0  0  0  0  0
    8.8917   -8.1042    0.0000 C   0  0  0  0  0  0  0  0  0  0  0  0
    2.4667   -6.8667    0.0000 N   0  0  3  0  0  0  0  0  0  0  0  0
    5.3250   -6.8667    0.0000 C   0  0  0  0  0  0  0  0  0  0  0  0
    7.4625   -8.9292    0.0000 O   0  0  0  0  0  0  0  0  0  0  0  0
    5.3250   -7.6917    0.0000 C   0  0  0  0  0  0  0  0  0  0  0  0
    1.0417   -7.6875    0.0000 O   0  0  0  0  0  0  0  0  0  0  0  0
    9.6042   -7.6917    0.0000 C   0  0  0  0  0  0  0  0  0  0  0  0
    8.8917   -8.9292    0.0000 C   0  0  0  0  0  0  0  0  0  0  0  0
   10.3167   -8.9375    0.0000 C   0  0  0  0  0  0  0  0  0  0  0  0
    4.6125   -6.4542    0.0000 O   0  0  0  0  0  0  0  0  0  0  0  0
   10.3167   -8.1042    0.0000 C   0  0  0  0  0  0  0  0  0  0  0  0
    9.6042   -9.3417    0.0000 C   0  0  0  0  0  0  0  0  0  0  0  0
    6.0292   -5.6292    0.0000 C   0  0  0  0  0  0  0  0  0  0  0  0
    3.1792   -6.4542    0.0000 C   0  0  0  0  0  0  0  0  0  0  0  0
    3.8917   -6.8667    0.0000 C   0  0  0  0  0  0  0  0  0  0  0  0
   11.0292   -9.3500    0.0000 O   0  0  0  0  0  0  0  0  0  0  0  0
    2.4750   -7.6875    0.0000 C   0  0  0  0  0  0  0  0  0  0  0  0
    1.7542   -6.4500    0.0000 C   0  0  0  0  0  0  0  0  0  0  0  0
    1.0417   -6.8542    0.0000 C   0  0  0  0  0  0  0  0  0  0  0  0
    1.7542   -8.1000    0.0000 C   0  0  0  0  0  0  0  0  0  0  0  0
   11.7500   -8.9375    0.0000 C   0  0  0  0  0  0  0  0  0  0  0  0
  2  3  1  0  0  0  0
  3  1  1  0  0  0  0
  4  5  1  0  0  0  0
  5  6  1  0  0  0  0
  6  1  2  0  0  0  0
  7  4  2  0  0  0  0
  8  2  2  0  0  0  0
  9  1  1  0  0  0  0
 10 22  1  0  0  0  0
 11  7  1  0  0  0  0
 12  3  2  0  0  0  0
 13  8  1  0  0  0  0
 14 27  1  0  0  0  0
 15  9  1  0  0  0  0
 16  9  2  0  0  0  0
 17 20  2  0  0  0  0
 18 11  1  0  0  0  0
 19 15  2  0  0  0  0
 20 16  1  0  0  0  0
 21  7  1  0  0  0  0
 22 23  1  0  0  0  0
 23 18  1  0  0  0  0
 24 17  1  0  0  0  0
 25 10  1  0  0  0  0
 26 10  1  0  0  0  0
 27 26  1  0  0  0  0
 28 25  1  0  0  0  0
 29 24  1  0  0  0  0
 19 17  1  0  0  0  0
  2  4  1  0  0  0  0
 13 11  2  0  0  0  0
 14 28  1  0  0  0  0
M  END
> <IDNUMBER>
F3385-4187

> <Chemical_Name>
3-(4-methoxyphenyl)-8-methyl-7-[2-(morpholin-4-yl)ethoxy]-4H-chromen-4-one

> <CAS>
903857-84-1

> <PriceCoeff>
1.00

> <MW>
395.45

> <Description>
solid

> <FSP3>
0.35

> <clogP>
3.64

> <TPSA>
57.23

> <Acceptor>
5

> <Donor>
1

> <RotBonds>
6

> <HAC>
29

> <Collection>
General

> <Reference_compound>
CHEMBL463936

> <Similarity>
0.8110

$$$$
F5539-0018
  -ISIS-  06222321152D

 21 23  0  0  0  0  0  0  0  0999 V2000
   -2.9958    7.4917    0.0000 N   0  0  0  0  0  0  0  0  0  0  0  0
   -3.8708    3.8000    0.0000 C   0  0  0  0  0  0  0  0  0  0  0  0
   -2.1708    7.5792    0.0000 C   0  0  0  0  0  0  0  0  0  0  0  0
   -3.1708    6.6792    0.0000 C   0  0  0  0  0  0  0  0  0  0  0  0
   -2.4458    6.2667    0.0000 C   0  0  0  0  0  0  0  0  0  0  0  0
   -3.1583    4.2125    0.0000 N   0  0  0  0  0  0  0  0  0  0  0  0
   -3.8625    2.9708    0.0000 N   0  0  0  0  0  0  0  0  0  0  0  0
   -1.8333    6.8250    0.0000 C   0  0  0  0  0  0  0  0  0  0  0  0
   -2.4458    5.4417    0.0000 C   0  0  0  0  0  0  0  0  0  0  0  0
   -3.1583    5.0292    0.0000 C   0  0  0  0  0  0  0  0  0  0  0  0
   -4.5833    4.2125    0.0000 O   0  0  0  0  0  0  0  0  0  0  0  0
   -1.7625    8.2917    0.0000 O   0  0  0  0  0  0  0  0  0  0  0  0
   -3.8833    6.2667    0.0000 C   0  0  0  0  0  0  0  0  0  0  0  0
   -4.5833    2.5500    0.0000 C   0  0  0  0  0  0  0  0  0  0  0  0
   -3.8750    5.4417    0.0000 C   0  0  0  0  0  0  0  0  0  0  0  0
   -6.0000    1.7333    0.0000 C   0  0  0  0  0  0  0  0  0  0  0  0
   -5.2875    2.9625    0.0000 C   0  0  0  0  0  0  0  0  0  0  0  0
   -4.5833    1.7250    0.0000 C   0  0  0  0  0  0  0  0  0  0  0  0
   -6.0000    2.5583    0.0000 C   0  0  0  0  0  0  0  0  0  0  0  0
   -5.2958    1.3125    0.0000 C   0  0  0  0  0  0  0  0  0  0  0  0
   -6.7167    1.3208    0.0000 C   0  0  0  0  0  0  0  0  0  0  0  0
  2  6  1  0  0  0  0
  3  1  1  0  0  0  0
  4  1  1  0  0  0  0
  5  4  2  0  0  0  0
  6 10  1  0  0  0  0
  7  2  1  0  0  0  0
  8  3  1  0  0  0  0
  9  5  1  0  0  0  0
 10 15  1  0  0  0  0
 11  2  2  0  0  0  0
 12  3  2  0  0  0  0
 13  4  1  0  0  0  0
 14  7  1  0  0  0  0
 15 13  2  0  0  0  0
 16 20  2  0  0  0  0
 17 14  1  0  0  0  0
 18 14  2  0  0  0  0
 19 17  2  0  0  0  0
 20 18  1  0  0  0  0
 21 16  1  0  0  0  0
  8  5  1  0  0  0  0
 10  9  2  0  0  0  0
 16 19  1  0  0  0  0
M  END
> <IDNUMBER>
F5539-0018

> <Chemical_Name>
1-(4-methylphenyl)-3-(2-oxo-2,3-dihydro-1H-indol-5-yl)urea

> <CAS>
1171576-53-6

> <PriceCoeff>
1.00

> <MW>
281.31

> <Description>
solid

> <FSP3>
0.12

> <clogP>
2.07

> <TPSA>
70.23

> <Acceptor>
2

> <Donor>
3

> <RotBonds>
2

> <HAC>
21

> <Collection>
General

> <Reference_compound>
CHEMBL40823

> <Similarity>
0.8120

$$$$
F5689-0059
  -ISIS-  06222321152D

 31 34  0  0  0  0  0  0  0  0999 V2000
   -2.8208    7.5417    0.0000 N   0  0  3  0  0  0  0  0  0  0  0  0
   -3.0750    6.7625    0.0000 C   0  0  0  0  0  0  0  0  0  0  0  0
   -1.9875    7.5417    0.0000 C   0  0  0  0  0  0  0  0  0  0  0  0
   -1.7375    6.7625    0.0000 N   0  0  0  0  0  0  0  0  0  0  0  0
   -2.4083    6.2750    0.0000 N   0  0  3  0  0  0  0  0  0  0  0  0
   -6.7167    5.4375    0.0000 N   0  0  3  0  0  0  0  0  0  0  0  0
   -7.3292    4.8875    0.0000 C   0  0  0  0  0  0  0  0  0  0  0  0
   -7.0542    6.2042    0.0000 C   0  0  0  0  0  0  0  0  0  0  0  0
   -3.8625    3.8000    0.0000 C   0  0  0  0  0  0  0  0  0  0  0  0
   -6.0042    5.0292    0.0000 C   0  0  0  0  0  0  0  0  0  0  0  0
   -3.8583    6.5167    0.0000 O   0  0  0  0  0  0  0  0  0  0  0  0
   -1.5000    8.2042    0.0000 C   0  0  0  0  0  0  0  0  0  0  0  0
   -4.5833    4.2042    0.0000 C   0  0  0  0  0  0  0  0  0  0  0  0
   -7.8792    6.1042    0.0000 C   0  0  0  0  0  0  0  0  0  0  0  0
   -8.0542    5.3042    0.0000 C   0  0  0  0  0  0  0  0  0  0  0  0
   -7.2542    4.0667    0.0000 O   0  0  0  0  0  0  0  0  0  0  0  0
   -6.6417    6.9167    0.0000 O   0  0  0  0  0  0  0  0  0  0  0  0
   -2.4208    5.4417    0.0000 C   0  0  0  0  0  0  0  0  0  0  0  0
   -3.8708    2.9833    0.0000 O   0  0  0  0  0  0  0  0  0  0  0  0
   -6.0042    4.2042    0.0000 C   0  0  0  0  0  0  0  0  0  0  0  0
   -5.3000    5.4417    0.0000 C   0  0  0  0  0  0  0  0  0  0  0  0
   -3.2958    8.2167    0.0000 C   0  0  0  0  0  0  0  0  0  0  0  0
   -3.1500    4.2125    0.0000 N   0  0  0  0  0  0  0  0  0  0  0  0
   -4.5958    5.0417    0.0000 C   0  0  0  0  0  0  0  0  0  0  0  0
   -5.2958    3.8000    0.0000 C   0  0  0  0  0  0  0  0  0  0  0  0
   -3.1500    5.0417    0.0000 C   0  0  0  0  0  0  0  0  0  0  0  0
   -0.6833    8.1167    0.0000 C   0  0  0  0  0  0  0  0  0  0  0  0
   -1.8333    8.9542    0.0000 C   0  0  0  0  0  0  0  0  0  0  0  0
   -1.3500    9.6292    0.0000 C   0  0  0  0  0  0  0  0  0  0  0  0
   -0.1958    8.7792    0.0000 C   0  0  0  0  0  0  0  0  0  0  0  0
   -0.5208    9.5417    0.0000 C   0  0  0  0  0  0  0  0  0  0  0  0
  2  1  1  0  0  0  0
  3  1  1  0  0  0  0
  4  3  2  0  0  0  0
  5  2  1  0  0  0  0
  6 10  1  0  0  0  0
  7  6  1  0  0  0  0
  8  6  1  0  0  0  0
  9 23  1  0  0  0  0
 10 20  2  0  0  0  0
 11  2  2  0  0  0  0
 12  3  1  0  0  0  0
 13  9  1  0  0  0  0
 14  8  1  0  0  0  0
 15  7  1  0  0  0  0
 16  7  2  0  0  0  0
 17  8  2  0  0  0  0
 18  5  1  0  0  0  0
 19  9  2  0  0  0  0
 20 25  1  0  0  0  0
 21 24  2  0  0  0  0
 22  1  1  0  0  0  0
 23 26  1  0  0  0  0
 24 13  1  0  0  0  0
 25 13  2  0  0  0  0
 26 18  1  0  0  0  0
 27 12  2  0  0  0  0
 28 12  1  0  0  0  0
 29 28  2  0  0  0  0
 30 27  1  0  0  0  0
 31 29  1  0  0  0  0
  4  5  1  0  0  0  0
 31 30  2  0  0  0  0
 10 21  1  0  0  0  0
 15 14  1  0  0  0  0
M  END
> <IDNUMBER>
F5689-0059

> <Chemical_Name>
4-(2,5-dioxopyrrolidin-1-yl)-N-[2-(4-methyl-5-oxo-3-phenyl-4,5-dihydro-1H-1,2,4-triazol-1-yl)ethyl]benzamide

> <CAS>
1203318-83-5

> <PriceCoeff>
1.00

> <MW>
419.43

> <Description>
solid

> <FSP3>
0.23

> <clogP>
0.88

> <TPSA>
102.39

> <Acceptor>
5

> <Donor>
1

> <RotBonds>
6

> <HAC>
31

> <Collection>
General

$$$$
F1757-0012
  -ISIS-  06222321442D

 24 25  0  0  0  0  0  0  0  0999 V2000
    1.0125   -5.9917    0.0000 N   0  0  3  0  0  0  0  0  0  0  0  0
    0.2667   -6.3500    0.0000 N   0  0  0  0  0  0  0  0  0  0  0  0
    0.9000   -5.1750    0.0000 C   0  0  0  0  0  0  0  0  0  0  0  0
    0.0875   -5.0292    0.0000 C   0  0  0  0  0  0  0  0  0  0  0  0
   -0.3083   -5.7542    0.0000 C   0  0  0  0  0  0  0  0  0  0  0  0
    1.7417   -6.3875    0.0000 C   0  0  0  0  0  0  0  0  0  0  0  0
    5.3542   -8.4167    0.0000 C   0  0  0  0  0  0  0  0  0  0  0  0
    5.3542   -7.6042    0.0000 C   0  0  0  0  0  0  0  0  0  0  0  0
    4.6375   -7.1875    0.0000 C   0  0  0  0  0  0  0  0  0  0  0  0
    3.9292   -7.6042    0.0000 C   0  0  0  0  0  0  0  0  0  0  0  0
    6.0667   -8.8292    0.0000 C   0  0  0  0  0  0  0  0  0  0  0  0
    3.2042   -7.1875    0.0000 O   0  0  0  0  0  0  0  0  0  0  0  0
   -0.2708   -4.2792    0.0000 Br  0  0  0  0  0  0  0  0  0  0  0  0
    4.6375   -8.8292    0.0000 C   0  0  0  0  0  0  0  0  0  0  0  0
    6.7792   -8.4167    0.0000 O   0  0  0  0  0  0  0  0  0  0  0  0
    3.9292   -8.4167    0.0000 C   0  0  0  0  0  0  0  0  0  0  0  0
    2.4417   -5.9542    0.0000 C   0  0  3  0  0  0  0  0  0  0  0  0
    3.1792   -6.3417    0.0000 C   0  0  0  0  0  0  0  0  0  0  0  0
    1.4917   -4.6042    0.0000 C   0  0  0  0  0  0  0  0  0  0  0  0
   -1.1208   -5.8625    0.0000 C   0  0  0  0  0  0  0  0  0  0  0  0
    4.6292   -6.3625    0.0000 O   0  0  0  0  0  0  0  0  0  0  0  0
    2.4167   -5.1250    0.0000 O   0  0  0  0  0  0  0  0  0  0  0  0
    6.0625   -9.6542    0.0000 C   0  0  0  0  0  0  0  0  0  0  0  0
    5.3417   -5.9417    0.0000 C   0  0  0  0  0  0  0  0  0  0  0  0
  2  1  1  0  0  0  0
  3  1  1  0  0  0  0
  4  3  2  0  0  0  0
  5  2  2  0  0  0  0
  6  1  1  0  0  0  0
  7 14  2  0  0  0  0
  8  9  2  0  0  0  0
  9 10  1  0  0  0  0
 10 12  1  0  0  0  0
 11  7  1  0  0  0  0
 12 18  1  0  0  0  0
 13  4  1  0  0  0  0
 14 16  1  0  0  0  0
 15 11  2  0  0  0  0
 16 10  2  0  0  0  0
 17  6  1  0  0  0  0
 18 17  1  0  0  0  0
 19  3  1  0  0  0  0
 20  5  1  0  0  0  0
 21  9  1  0  0  0  0
 22 17  1  0  0  0  0
 23 11  1  0  0  0  0
 24 21  1  0  0  0  0
  4  5  1  0  0  0  0
  7  8  1  0  0  0  0
M  END
> <IDNUMBER>
F1757-0012

> <Chemical_Name>
1-{4-[3-(4-bromo-3,5-dimethyl-1H-pyrazol-1-yl)-2-hydroxypropoxy]-3-methoxyphenyl}ethan-1-one

> <CAS>
890643-81-9

> <PriceCoeff>
1.00

> <MW>
397.26

> <Description>
solid

> <FSP3>
0.41

> <clogP>
2.21

> <TPSA>
73.58

> <Acceptor>
5

> <Donor>
1

> <RotBonds>
7

> <HAC>
24

> <Collection>
General

$$$$
F2518-0108
  -ISIS-  06222321442D

 24 26  0  0  0  0  0  0  0  0999 V2000
   -3.5750    6.3042    0.0000 C   0  0  0  0  0  0  0  0  0  0  0  0
   -5.3083    3.8000    0.0000 N   0  0  3  0  0  0  0  0  0  0  0  0
   -3.8333    5.5167    0.0000 O   0  0  0  0  0  0  0  0  0  0  0  0
   -3.1583    5.0292    0.0000 C   0  0  0  0  0  0  0  0  0  0  0  0
   -2.7458    6.3000    0.0000 N   0  0  0  0  0  0  0  0  0  0  0  0
   -4.0583    6.9625    0.0000 C   0  0  0  0  0  0  0  0  0  0  0  0
   -2.4875    5.5167    0.0000 N   0  0  0  0  0  0  0  0  0  0  0  0
   -3.1583    4.2042    0.0000 N   0  0  0  0  0  0  0  0  0  0  0  0
   -6.0417    4.1292    0.0000 C   0  0  0  0  0  0  0  0  0  0  0  0
   -5.3833    2.9833    0.0000 C   0  0  0  0  0  0  0  0  0  0  0  0
   -3.8708    3.8000    0.0000 C   0  0  0  0  0  0  0  0  0  0  0  0
   -4.5958    4.2125    0.0000 C   0  0  0  0  0  0  0  0  0  0  0  0
   -3.7208    7.7167    0.0000 C   0  0  0  0  0  0  0  0  0  0  0  0
   -4.8708    6.8792    0.0000 C   0  0  0  0  0  0  0  0  0  0  0  0
   -6.1792    2.8083    0.0000 C   0  0  0  0  0  0  0  0  0  0  0  0
   -6.5917    3.5208    0.0000 C   0  0  0  0  0  0  0  0  0  0  0  0
   -4.7833    2.4333    0.0000 O   0  0  0  0  0  0  0  0  0  0  0  0
   -6.2167    4.9375    0.0000 O   0  0  0  0  0  0  0  0  0  0  0  0
   -3.8708    2.9833    0.0000 O   0  0  0  0  0  0  0  0  0  0  0  0
   -4.1958    8.3792    0.0000 C   0  0  0  0  0  0  0  0  0  0  0  0
   -5.3583    7.5417    0.0000 C   0  0  0  0  0  0  0  0  0  0  0  0
   -2.9083    7.7917    0.0000 Cl  0  0  0  0  0  0  0  0  0  0  0  0
   -5.0208    8.2917    0.0000 C   0  0  0  0  0  0  0  0  0  0  0  0
   -6.1542    7.4417    0.0000 Cl  0  0  0  0  0  0  0  0  0  0  0  0
  2 12  1  0  0  0  0
  3  1  1  0  0  0  0
  4  3  1  0  0  0  0
  5  1  2  0  0  0  0
  6  1  1  0  0  0  0
  7  5  1  0  0  0  0
  8  4  1  0  0  0  0
  9  2  1  0  0  0  0
 10  2  1  0  0  0  0
 11  8  1  0  0  0  0
 12 11  1  0  0  0  0
 13  6  2  0  0  0  0
 14  6  1  0  0  0  0
 15 10  1  0  0  0  0
 16  9  1  0  0  0  0
 17 10  2  0  0  0  0
 18  9  2  0  0  0  0
 19 11  2  0  0  0  0
 20 13  1  0  0  0  0
 21 14  2  0  0  0  0
 22 13  1  0  0  0  0
 23 21  1  0  0  0  0
 24 21  1  0  0  0  0
  4  7  2  0  0  0  0
 20 23  2  0  0  0  0
 16 15  1  0  0  0  0
M  END
> <IDNUMBER>
F2518-0108

> <Chemical_Name>
N-[5-(2,5-dichlorophenyl)-1,3,4-oxadiazol-2-yl]-2-(2,5-dioxopyrrolidin-1-yl)acetamide

> <CAS>
891139-79-0

> <PriceCoeff>
1.00

> <MW>
369.16

> <Description>
solid

> <FSP3>
0.21

> <clogP>
1.60

> <TPSA>
105.40

> <Acceptor>
6

> <Donor>
1

> <RotBonds>
4

> <HAC>
24

> <Collection>
General

$$$$
F3385-0895
  -ISIS-  06222321442D

 24 26  0  0  0  0  0  0  0  0999 V2000
    1.8625   -1.3542    0.0000 C   0  0  0  0  0  0  0  0  0  0  0  0
    1.1417   -1.7667    0.0000 C   0  0  0  0  0  0  0  0  0  0  0  0
    0.4292   -1.3542    0.0000 C   0  0  0  0  0  0  0  0  0  0  0  0
    1.8625   -0.5292    0.0000 C   0  0  0  0  0  0  0  0  0  0  0  0
    0.4292   -0.5292    0.0000 C   0  0  0  0  0  0  0  0  0  0  0  0
    2.5750   -1.7750    0.0000 C   0  0  0  0  0  0  0  0  0  0  0  0
    1.1417   -0.1167    0.0000 O   0  0  0  0  0  0  0  0  0  0  0  0
    3.2917   -1.3542    0.0000 C   0  0  0  0  0  0  0  0  0  0  0  0
   -0.2833   -1.7667    0.0000 C   0  0  0  0  0  0  0  0  0  0  0  0
   -0.2833   -0.1167    0.0000 C   0  0  0  0  0  0  0  0  0  0  0  0
    4.0042   -1.7667    0.0000 C   0  0  0  0  0  0  0  0  0  0  0  0
    1.1417   -2.5917    0.0000 O   0  0  0  0  0  0  0  0  0  0  0  0
    4.0042   -2.6000    0.0000 C   0  0  0  0  0  0  0  0  0  0  0  0
    2.5750   -2.6000    0.0000 C   0  0  0  0  0  0  0  0  0  0  0  0
    3.2875   -3.0125    0.0000 C   0  0  0  0  0  0  0  0  0  0  0  0
   -1.0000   -0.5292    0.0000 C   0  0  0  0  0  0  0  0  0  0  0  0
   -0.9958   -1.3542    0.0000 C   0  0  0  0  0  0  0  0  0  0  0  0
    4.7250   -1.3542    0.0000 O   0  0  0  0  0  0  0  0  0  0  0  0
    4.7292   -3.0167    0.0000 O   0  0  0  0  0  0  0  0  0  0  0  0
   -1.7208   -0.1167    0.0000 O   0  0  0  0  0  0  0  0  0  0  0  0
   -2.4333   -0.5250    0.0000 C   0  0  0  0  0  0  0  0  0  0  0  0
    5.4375   -1.7750    0.0000 C   0  0  0  0  0  0  0  0  0  0  0  0
    4.7375   -3.8500    0.0000 C   0  0  0  0  0  0  0  0  0  0  0  0
   -3.1583   -0.1042    0.0000 C   0  0  0  0  0  0  0  0  0  0  0  0
  2  1  1  0  0  0  0
  3  2  1  0  0  0  0
  4  1  2  0  0  0  0
  5  7  1  0  0  0  0
  6  1  1  0  0  0  0
  7  4  1  0  0  0  0
  8  6  1  0  0  0  0
  9  3  2  0  0  0  0
 10  5  2  0  0  0  0
 11  8  2  0  0  0  0
 12  2  2  0  0  0  0
 13 15  2  0  0  0  0
 14  6  2  0  0  0  0
 15 14  1  0  0  0  0
 16 10  1  0  0  0  0
 17  9  1  0  0  0  0
 18 11  1  0  0  0  0
 19 13  1  0  0  0  0
 20 16  1  0  0  0  0
 21 20  1  0  0  0  0
 22 18  1  0  0  0  0
 23 19  1  0  0  0  0
 24 21  1  0  0  0  0
  3  5  1  0  0  0  0
 11 13  1  0  0  0  0
 17 16  2  0  0  0  0
M  END
> <IDNUMBER>
F3385-0895

> <Chemical_Name>
3-(3,4-dimethoxyphenyl)-7-ethoxy-4H-chromen-4-one

> <CAS>
858756-96-4

> <PriceCoeff>
1.00

> <MW>
326.34

> <Description>
solid

> <FSP3>
0.21

> <clogP>
3.28

> <TPSA>
53.99

> <Acceptor>
5

> <Donor>
0

> <RotBonds>
5

> <HAC>
24

> <Collection>
General

> <Reference_compound>
CHEMBL44

> <Similarity>
0.8620

$$$$
F6435-1028
  -ISIS-  06222321462D

 25 27  0  0  0  0  0  0  0  0999 V2000
   -2.6208    5.9542    0.0000 S   0  0  3  0  0  0  0  0  0  0  0  0
   -2.9625    5.2000    0.0000 C   0  0  3  0  0  0  0  0  0  0  0  0
   -4.5833    3.8000    0.0000 C   0  0  0  0  0  0  0  0  0  0  0  0
   -3.8625    4.2125    0.0000 N   0  0  3  0  0  0  0  0  0  0  0  0
   -3.7833    5.0417    0.0000 C   0  0  0  0  0  0  0  0  0  0  0  0
   -4.5833    2.9792    0.0000 N   0  0  0  0  0  0  0  0  0  0  0  0
   -2.5583    4.4833    0.0000 C   0  0  0  0  0  0  0  0  0  0  0  0
   -6.0042    1.3375    0.0000 C   0  0  0  0  0  0  0  0  0  0  0  0
   -5.3083    1.7458    0.0000 C   0  0  0  0  0  0  0  0  0  0  0  0
   -1.8708    5.6167    0.0000 O   0  0  0  0  0  0  0  0  0  0  0  0
   -2.0958    6.5917    0.0000 O   0  0  0  0  0  0  0  0  0  0  0  0
   -3.1083    6.6292    0.0000 C   0  0  0  0  0  0  0  0  0  0  0  0
   -3.1125    3.8750    0.0000 C   0  0  0  0  0  0  0  0  0  0  0  0
   -5.3000    2.5792    0.0000 C   0  0  0  0  0  0  0  0  0  0  0  0
   -5.3000    4.2125    0.0000 O   0  0  0  0  0  0  0  0  0  0  0  0
   -6.7167    1.7458    0.0000 C   0  0  0  0  0  0  0  0  0  0  0  0
   -6.7208    2.5708    0.0000 C   0  0  0  0  0  0  0  0  0  0  0  0
   -6.0042    0.5083    0.0000 Cl  0  0  0  0  0  0  0  0  0  0  0  0
   -6.0042    2.9833    0.0000 C   0  0  0  0  0  0  0  0  0  0  0  0
   -7.4417    1.3250    0.0000 Cl  0  0  0  0  0  0  0  0  0  0  0  0
   -2.7625    7.3792    0.0000 C   0  0  0  0  0  0  0  0  0  0  0  0
   -3.9208    6.5417    0.0000 C   0  0  0  0  0  0  0  0  0  0  0  0
   -4.4083    7.2167    0.0000 C   0  0  0  0  0  0  0  0  0  0  0  0
   -3.2375    8.0542    0.0000 C   0  0  0  0  0  0  0  0  0  0  0  0
   -4.0625    7.9667    0.0000 C   0  0  0  0  0  0  0  0  0  0  0  0
  2  1  1  0  0  0  0
  3  4  1  0  0  0  0
  4  5  1  0  0  0  0
  5  2  1  0  0  0  0
  6  3  1  0  0  0  0
  7  2  1  0  0  0  0
  8  9  1  0  0  0  0
  9 14  2  0  0  0  0
 10  1  2  0  0  0  0
 11  1  2  0  0  0  0
 12  1  1  0  0  0  0
 13  7  1  0  0  0  0
 14  6  1  0  0  0  0
 15  3  2  0  0  0  0
 16 17  1  0  0  0  0
 17 19  2  0  0  0  0
 18  8  1  0  0  0  0
 19 14  1  0  0  0  0
 20 16  1  0  0  0  0
 21 12  1  0  0  0  0
 22 12  2  0  0  0  0
 23 22  1  0  0  0  0
 24 21  2  0  0  0  0
 25 23  2  0  0  0  0
 13  4  1  0  0  0  0
 25 24  1  0  0  0  0
 16  8  2  0  0  0  0
M  END
> <IDNUMBER>
F6435-1028

> <Chemical_Name>
3-(benzenesulfonyl)-N-(3,4-dichlorophenyl)pyrrolidine-1-carboxamide

> <CAS>
1448034-44-3

> <PriceCoeff>
1.00

> <MW>
399.29

> <Description>
solid

> <FSP3>
0.24

> <clogP>
3.32

> <TPSA>
74.86

> <Acceptor>
3

> <Donor>
1

> <RotBonds>
4

> <HAC>
25

> <Collection>
General

$$$$
F1757-0120
  -ISIS-  06222321142D

 23 24  0  0  0  0  0  0  0  0999 V2000
    8.9000   -2.6875    0.0000 N   0  0  3  0  0  0  0  0  0  0  0  0
    8.1542   -3.0417    0.0000 N   0  0  0  0  0  0  0  0  0  0  0  0
    8.7875   -1.8667    0.0000 C   0  0  0  0  0  0  0  0  0  0  0  0
    7.9750   -1.7250    0.0000 C   0  0  0  0  0  0  0  0  0  0  0  0
    7.5792   -2.4500    0.0000 C   0  0  0  0  0  0  0  0  0  0  0  0
    9.6292   -3.0792    0.0000 C   0  0  0  0  0  0  0  0  0  0  0  0
   13.9542   -5.5250    0.0000 C   0  0  0  0  0  0  0  0  0  0  0  0
   13.2417   -5.1125    0.0000 C   0  0  0  0  0  0  0  0  0  0  0  0
    7.6167   -0.9792    0.0000 Br  0  0  0  0  0  0  0  0  0  0  0  0
   14.6667   -5.1167    0.0000 O   0  0  0  0  0  0  0  0  0  0  0  0
   10.3292   -2.6500    0.0000 C   0  0  3  0  0  0  0  0  0  0  0  0
   13.2417   -4.3000    0.0000 C   0  0  0  0  0  0  0  0  0  0  0  0
   12.5250   -5.5250    0.0000 C   0  0  0  0  0  0  0  0  0  0  0  0
   11.0917   -3.8792    0.0000 O   0  0  0  0  0  0  0  0  0  0  0  0
   11.8167   -4.3000    0.0000 C   0  0  0  0  0  0  0  0  0  0  0  0
    9.3792   -1.3000    0.0000 C   0  0  0  0  0  0  0  0  0  0  0  0
   11.0667   -3.0375    0.0000 C   0  0  0  0  0  0  0  0  0  0  0  0
    6.7667   -2.5542    0.0000 C   0  0  0  0  0  0  0  0  0  0  0  0
   12.5250   -3.8792    0.0000 C   0  0  0  0  0  0  0  0  0  0  0  0
   11.8167   -5.1125    0.0000 C   0  0  0  0  0  0  0  0  0  0  0  0
   10.3042   -1.8167    0.0000 O   0  0  0  0  0  0  0  0  0  0  0  0
   13.9500   -6.3500    0.0000 C   0  0  0  0  0  0  0  0  0  0  0  0
   13.2292   -6.7542    0.0000 C   0  0  0  0  0  0  0  0  0  0  0  0
  2  1  1  0  0  0  0
  3  1  1  0  0  0  0
  4  3  2  0  0  0  0
  5  2  2  0  0  0  0
  6  1  1  0  0  0  0
  7  8  1  0  0  0  0
  8 13  2  0  0  0  0
  9  4  1  0  0  0  0
 10  7  2  0  0  0  0
 11  6  1  0  0  0  0
 12 19  2  0  0  0  0
 13 20  1  0  0  0  0
 14 17  1  0  0  0  0
 15 14  1  0  0  0  0
 16  3  1  0  0  0  0
 17 11  1  0  0  0  0
 18  5  1  0  0  0  0
 19 15  1  0  0  0  0
 20 15  2  0  0  0  0
 21 11  1  0  0  0  0
 22  7  1  0  0  0  0
 23 22  1  0  0  0  0
  4  5  1  0  0  0  0
  8 12  1  0  0  0  0
M  END
> <IDNUMBER>
F1757-0120

> <Chemical_Name>
1-{4-[3-(4-bromo-3,5-dimethyl-1H-pyrazol-1-yl)-2-hydroxypropoxy]phenyl}propan-1-one

> <CAS>
890602-15-0

> <PriceCoeff>
1.00

> <MW>
381.26

> <Description>
solid

> <FSP3>
0.41

> <clogP>
3.06

> <TPSA>
64.35

> <Acceptor>
4

> <Donor>
1

> <RotBonds>
7

> <HAC>
23

> <Collection>
General

$$$$
F1591-0157
  -ISIS-  06222321142D

 12 12  0  0  0  0  0  0  0  0999 V2000
    7.9667   -1.8042    0.0000 S   0  0  3  0  0  0  0  0  0  0  0  0
    9.9750   -1.8292    0.0000 C   0  0  0  0  0  0  0  0  0  0  0  0
    8.2417    0.6458    0.0000 O   0  0  0  0  0  0  0  0  0  0  0  0
    7.4792   -4.1792    0.0000 O   0  0  0  0  0  0  0  0  0  0  0  0
    6.0167   -1.2917    0.0000 N   0  0  0  0  0  0  0  0  0  0  0  0
   10.9792   -0.0667    0.0000 C   0  0  0  0  0  0  0  0  0  0  0  0
   10.9792   -3.5667    0.0000 C   0  0  0  0  0  0  0  0  0  0  0  0
   13.9792   -1.8042    0.0000 C   0  0  0  0  0  0  0  0  0  0  0  0
   16.0000   -1.8042    0.0000 N   0  0  0  0  0  0  0  0  0  0  0  0
   12.9750   -0.0667    0.0000 C   0  0  0  0  0  0  0  0  0  0  0  0
   12.9750   -3.5667    0.0000 C   0  0  0  0  0  0  0  0  0  0  0  0
    5.5000    0.6625    0.0000 C   0  0  0  0  0  0  0  0  0  0  0  0
  2  1  1  0  0  0  0
  3  1  2  0  0  0  0
  4  1  2  0  0  0  0
  5  1  1  0  0  0  0
  6  2  2  0  0  0  0
  7  2  1  0  0  0  0
  8 11  1  0  0  0  0
  9  8  1  0  0  0  0
 10  6  1  0  0  0  0
 11  7  2  0  0  0  0
 12  5  1  0  0  0  0
 10  8  2  0  0  0  0
M  END
> <IDNUMBER>
F1591-0157

> <Chemical_Name>
4-amino-N-methylbenzene-1-sulfonamide

> <CAS>
1709-52-0

> <PriceCoeff>
1.00

> <MW>
186.23

> <Description>
solid

> <FSP3>
0.14

> <clogP>
0.04

> <TPSA>
80.57

> <Acceptor>
3

> <Donor>
2

> <RotBonds>
2

> <HAC>
12

> <Collection>
General

> <Reference_compound>
CHEMBL21

> <Similarity>
0.8630

$$$$
F2493-3641
  -ISIS-  06222321462D

 27 30  0  0  0  0  0  0  0  0999 V2000
    0.0875    2.0208    0.0000 N   0  0  3  0  0  0  0  0  0  0  0  0
   -3.7833    2.4833    0.0000 C   0  0  0  0  0  0  0  0  0  0  0  0
   -2.4458    2.3958    0.0000 N   0  0  0  0  0  0  0  0  0  0  0  0
    0.8875    1.8000    0.0000 C   0  0  0  0  0  0  0  0  0  0  0  0
   -0.3708    1.3375    0.0000 C   0  0  0  0  0  0  0  0  0  0  0  0
   -3.4708    3.2458    0.0000 C   0  0  0  0  0  0  0  0  0  0  0  0
   -3.1500    1.9583    0.0000 O   0  0  0  0  0  0  0  0  0  0  0  0
   -2.6500    3.1958    0.0000 C   0  0  0  0  0  0  0  0  0  0  0  0
   -4.5833    2.2833    0.0000 C   0  0  0  0  0  0  0  0  0  0  0  0
   -0.2000    2.7833    0.0000 C   0  0  0  0  0  0  0  0  0  0  0  0
   -5.6125    1.2875    0.0000 C   0  0  0  0  0  0  0  0  0  0  0  0
   -1.0208    2.9250    0.0000 C   0  0  0  0  0  0  0  0  0  0  0  0
   -4.8125    1.4875    0.0000 C   0  0  0  0  0  0  0  0  0  0  0  0
   -6.1792    1.8833    0.0000 C   0  0  0  0  0  0  0  0  0  0  0  0
   -1.3083    3.6958    0.0000 N   0  0  0  0  0  0  0  0  0  0  0  0
   -5.8458    0.4958    0.0000 O   0  0  0  0  0  0  0  0  0  0  0  0
    0.9292    0.9750    0.0000 C   0  0  0  0  0  0  0  0  0  0  0  0
    0.1542    0.6875    0.0000 C   0  0  0  0  0  0  0  0  0  0  0  0
   -1.1958    1.3000    0.0000 O   0  0  0  0  0  0  0  0  0  0  0  0
    1.5292    2.3208    0.0000 O   0  0  0  0  0  0  0  0  0  0  0  0
   -6.9792    1.6833    0.0000 O   0  0  0  0  0  0  0  0  0  0  0  0
   -5.1583    2.8833    0.0000 C   0  0  0  0  0  0  0  0  0  0  0  0
   -1.5458    2.2875    0.0000 O   0  0  0  0  0  0  0  0  0  0  0  0
   -5.9583    2.6750    0.0000 C   0  0  0  0  0  0  0  0  0  0  0  0
   -2.1208    3.8333    0.0000 C   0  0  0  0  0  0  0  0  0  0  0  0
   -6.6417    0.2875    0.0000 C   0  0  0  0  0  0  0  0  0  0  0  0
   -7.2167    0.8833    0.0000 C   0  0  0  0  0  0  0  0  0  0  0  0
  2  6  2  0  0  0  0
  3  8  2  0  0  0  0
  4  1  1  0  0  0  0
  5  1  1  0  0  0  0
  6  8  1  0  0  0  0
  7  3  1  0  0  0  0
  8 25  1  0  0  0  0
  9  2  1  0  0  0  0
 10  1  1  0  0  0  0
 11 13  2  0  0  0  0
 12 10  1  0  0  0  0
 13  9  1  0  0  0  0
 14 24  2  0  0  0  0
 15 12  1  0  0  0  0
 16 11  1  0  0  0  0
 17  4  1  0  0  0  0
 18  5  1  0  0  0  0
 19  5  2  0  0  0  0
 20  4  2  0  0  0  0
 21 14  1  0  0  0  0
 22  9  2  0  0  0  0
 23 12  2  0  0  0  0
 24 22  1  0  0  0  0
 25 15  1  0  0  0  0
 26 16  1  0  0  0  0
 27 21  1  0  0  0  0
 18 17  1  0  0  0  0
  2  7  1  0  0  0  0
 14 11  1  0  0  0  0
 26 27  1  0  0  0  0
M  END
> <IDNUMBER>
F2493-3641

> <Chemical_Name>
N-{[5-(2,3-dihydro-1,4-benzodioxin-6-yl)-1,2-oxazol-3-yl]methyl}-2-(2,5-dioxopyrrolidin-1-yl)acetamide

> <CAS>
1207040-47-8

> <PriceCoeff>
1.00

> <MW>
371.34

> <Description>
solid

> <FSP3>
0.33

> <clogP>
0.71

> <TPSA>
110.97

> <Acceptor>
7

> <Donor>
1

> <RotBonds>
5

> <HAC>
27

> <Collection>
General

$$$$
F3019-0029
  -ISIS-  06222321152D

 27 31  0  0  0  0  0  0  0  0999 V2000
    1.2750    0.5375    0.0000 N   0  0  3  0  0  0  0  0  0  0  0  0
    1.9375    1.0208    0.0000 C   0  0  0  0  0  0  0  0  0  0  0  0
    1.5250   -0.2500    0.0000 C   0  0  0  0  0  0  0  0  0  0  0  0
    2.3500   -0.2500    0.0000 C   0  0  3  0  0  0  0  0  0  0  0  0
    2.6042    0.5375    0.0000 C   0  0  0  0  0  0  0  0  0  0  0  0
    3.6625   -0.8292    0.0000 C   0  0  3  0  0  0  0  0  0  0  0  0
    2.8375   -0.9167    0.0000 N   0  0  0  0  0  0  0  0  0  0  0  0
    0.4917    0.7875    0.0000 C   0  0  0  0  0  0  0  0  0  0  0  0
    1.9375    1.8458    0.0000 O   0  0  0  0  0  0  0  0  0  0  0  0
    3.9417   -1.3750    0.0000 C   0  0  3  0  0  0  0  0  0  0  0  0
    5.0292   -0.8292    0.0000 C   0  0  3  0  0  0  0  0  0  0  0  0
    4.3417    0.3583    0.0000 C   0  0  3  0  0  0  0  0  0  0  0  0
    1.0417   -0.9167    0.0000 O   0  0  0  0  0  0  0  0  0  0  0  0
   -1.0750    1.3000    0.0000 C   0  0  0  0  0  0  0  0  0  0  0  0
    3.6625   -0.0292    0.0000 C   0  0  0  0  0  0  0  0  0  0  0  0
    3.2042   -1.5417    0.0000 C   0  0  0  0  0  0  0  0  0  0  0  0
    4.3417   -1.2250    0.0000 C   0  0  0  0  0  0  0  0  0  0  0  0
   -1.8625    1.5500    0.0000 N   0  0  3  0  0  0  0  0  0  0  0  0
    0.3167    1.5958    0.0000 C   0  0  0  0  0  0  0  0  0  0  0  0
   -0.1208    0.2375    0.0000 C   0  0  0  0  0  0  0  0  0  0  0  0
   -0.9000    0.4875    0.0000 C   0  0  0  0  0  0  0  0  0  0  0  0
   -0.4625    1.8500    0.0000 C   0  0  0  0  0  0  0  0  0  0  0  0
    3.9417   -0.3167    0.0000 C   0  0  0  0  0  0  0  0  0  0  0  0
    5.0292   -0.0292    0.0000 C   0  0  0  0  0  0  0  0  0  0  0  0
    4.5042   -1.7167    0.0000 C   0  0  0  0  0  0  0  0  0  0  0  0
   -2.4750    1.0000    0.0000 C   0  0  0  0  0  0  0  0  0  0  0  0
   -2.0333    2.3583    0.0000 C   0  0  0  0  0  0  0  0  0  0  0  0
  2  1  1  0  0  0  0
  3  1  1  0  0  0  0
  4  3  1  0  0  0  0
  5  2  1  0  0  0  0
  6  7  1  0  0  0  0
  7  4  1  0  0  0  0
  8  1  1  0  0  0  0
  9  2  2  0  0  0  0
 10 16  1  0  0  0  0
 11 17  1  0  0  0  0
 12 15  1  0  0  0  0
 13  3  2  0  0  0  0
 14 21  1  0  0  0  0
 15  6  1  0  0  0  0
 16  6  1  0  0  0  0
 17  6  1  0  0  0  0
 18 14  1  0  0  0  0
 19  8  2  0  0  0  0
 20  8  1  0  0  0  0
 21 20  2  0  0  0  0
 22 19  1  0  0  0  0
 23 10  1  0  0  0  0
 24 11  1  0  0  0  0
 25 11  1  0  0  0  0
 26 18  1  0  0  0  0
 27 18  1  0  0  0  0
  5  4  1  0  0  0  0
 14 22  2  0  0  0  0
 25 10  1  0  0  0  0
 12 24  1  0  0  0  0
 23 12  1  0  0  0  0
M  END
> <IDNUMBER>
F3019-0029

> <Chemical_Name>
3-[(adamantan-1-yl)amino]-1-[4-(dimethylamino)phenyl]pyrrolidine-2,5-dione

> <CAS>
1008189-16-9

> <PriceCoeff>
1.00

> <MW>
367.48

> <Description>
solid

> <FSP3>
0.64

> <clogP>
3.77

> <TPSA>
52.65

> <Acceptor>
3

> <Donor>
2

> <RotBonds>
4

> <HAC>
27

> <Collection>
General

$$$$
F0440-0345
  -ISIS-  06222321442D

 25 27  0  0  0  0  0  0  0  0999 V2000
    2.3292   -0.9167    0.0000 N   0  0  3  0  0  0  0  0  0  0  0  0
    0.1667   -2.1542    0.0000 C   0  0  0  0  0  0  0  0  0  0  0  0
   -0.2458   -2.7500    0.0000 N   0  0  0  0  0  0  0  0  0  0  0  0
   -0.9208   -2.5167    0.0000 C   0  0  0  0  0  0  0  0  0  0  0  0
    0.9000   -2.1542    0.0000 N   0  0  0  0  0  0  0  0  0  0  0  0
    2.1042   -0.2500    0.0000 C   0  0  0  0  0  0  0  0  0  0  0  0
    3.0500   -0.9500    0.0000 C   0  0  0  0  0  0  0  0  0  0  0  0
   -0.2458   -1.5792    0.0000 S   0  0  0  0  0  0  0  0  0  0  0  0
    1.2500   -1.5500    0.0000 C   0  0  0  0  0  0  0  0  0  0  0  0
   -0.9208   -1.8000    0.0000 C   0  0  0  0  0  0  0  0  0  0  0  0
    1.9667   -1.5500    0.0000 C   0  0  0  0  0  0  0  0  0  0  0  0
   -1.5625   -2.8792    0.0000 C   0  0  0  0  0  0  0  0  0  0  0  0
    2.7000    0.1500    0.0000 C   0  0  0  0  0  0  0  0  0  0  0  0
    3.2667   -0.2542    0.0000 C   0  0  0  0  0  0  0  0  0  0  0  0
    1.4292   -0.0000    0.0000 O   0  0  0  0  0  0  0  0  0  0  0  0
    3.4667   -1.5167    0.0000 O   0  0  0  0  0  0  0  0  0  0  0  0
   -2.8000   -3.6000    0.0000 C   0  0  0  0  0  0  0  0  0  0  0  0
    0.9000   -0.9167    0.0000 O   0  0  0  0  0  0  0  0  0  0  0  0
   -2.1833   -2.5167    0.0000 C   0  0  0  0  0  0  0  0  0  0  0  0
   -1.5625   -3.6000    0.0000 C   0  0  0  0  0  0  0  0  0  0  0  0
   -2.8000   -2.8792    0.0000 C   0  0  0  0  0  0  0  0  0  0  0  0
   -2.1833   -3.9542    0.0000 C   0  0  0  0  0  0  0  0  0  0  0  0
   -3.4458   -3.9792    0.0000 C   0  0  3  0  0  0  0  0  0  0  0  0
   -4.0625   -3.6167    0.0000 C   0  0  0  0  0  0  0  0  0  0  0  0
   -3.4208   -4.7000    0.0000 C   0  0  0  0  0  0  0  0  0  0  0  0
  2  5  1  0  0  0  0
  3  2  2  0  0  0  0
  4  3  1  0  0  0  0
  5  9  1  0  0  0  0
  6  1  1  0  0  0  0
  7  1  1  0  0  0  0
  8  2  1  0  0  0  0
  9 11  1  0  0  0  0
 10  8  1  0  0  0  0
 11  1  1  0  0  0  0
 12  4  1  0  0  0  0
 13  6  1  0  0  0  0
 14  7  1  0  0  0  0
 15  6  2  0  0  0  0
 16  7  2  0  0  0  0
 17 22  1  0  0  0  0
 18  9  2  0  0  0  0
 19 12  2  0  0  0  0
 20 12  1  0  0  0  0
 21 19  1  0  0  0  0
 22 20  2  0  0  0  0
 23 17  1  0  0  0  0
 24 23  1  0  0  0  0
 25 23  1  0  0  0  0
 14 13  1  0  0  0  0
 10  4  2  0  0  0  0
 17 21  2  0  0  0  0
M  END
> <IDNUMBER>
F0440-0345

> <Chemical_Name>
2-(2,5-dioxopyrrolidin-1-yl)-N-{4-[4-(propan-2-yl)phenyl]-1,3-thiazol-2-yl}acetamide

> <CAS>
361167-74-0

> <PriceCoeff>
1.00

> <MW>
357.43

> <Description>
solid

> <FSP3>
0.33

> <clogP>
3.37

> <TPSA>
107.61

> <Acceptor>
4

> <Donor>
1

> <RotBonds>
5

> <HAC>
25

> <Collection>
General

$$$$
F1589-0514
  -ISIS-  06222321442D

 23 25  0  0  0  0  0  0  0  0999 V2000
    9.6167   -1.8042    0.0000 C   0  0  0  0  0  0  0  0  0  0  0  0
   -0.5458   -6.5417    0.0000 N   0  3  0  0  0  0  0  0  0  0  0  0
    6.4167   -2.4792    0.0000 C   0  0  0  0  0  0  0  0  0  0  0  0
    8.2750   -3.3042    0.0000 O   0  0  0  0  0  0  0  0  0  0  0  0
   11.6125   -2.0125    0.0000 C   0  0  0  0  0  0  0  0  0  0  0  0
    4.7000   -3.5042    0.0000 C   0  0  0  0  0  0  0  0  0  0  0  0
   12.8000   -0.3750    0.0000 N   0  0  3  0  0  0  0  0  0  0  0  0
    2.9375   -2.5000    0.0000 C   0  0  0  0  0  0  0  0  0  0  0  0
    1.2000   -5.5292    0.0000 C   0  0  0  0  0  0  0  0  0  0  0  0
    8.6042   -0.0542    0.0000 C   0  0  0  0  0  0  0  0  0  0  0  0
    6.6292   -0.4875    0.0000 C   0  0  0  0  0  0  0  0  0  0  0  0
    1.2000   -3.5042    0.0000 C   0  0  0  0  0  0  0  0  0  0  0  0
    4.7000   -5.5292    0.0000 C   0  0  0  0  0  0  0  0  0  0  0  0
   -2.2958   -5.5292    0.0000 O   0  5  0  0  0  0  0  0  0  0  0  0
   -0.5458   -8.5542    0.0000 O   0  0  0  0  0  0  0  0  0  0  0  0
   12.4542   -3.8417    0.0000 O   0  0  0  0  0  0  0  0  0  0  0  0
    2.9375   -6.5417    0.0000 C   0  0  0  0  0  0  0  0  0  0  0  0
   15.1750    2.8958    0.0000 O   0  0  0  0  0  0  0  0  0  0  0  0
    2.9375   -0.4875    0.0000 Cl  0  0  0  0  0  0  0  0  0  0  0  0
   14.8167   -0.5875    0.0000 C   0  0  0  0  0  0  0  0  0  0  0  0
   11.9792    1.4583    0.0000 C   0  0  0  0  0  0  0  0  0  0  0  0
   13.1667    3.0875    0.0000 C   0  0  0  0  0  0  0  0  0  0  0  0
   16.0000    1.0458    0.0000 C   0  0  0  0  0  0  0  0  0  0  0  0
  2  9  1  0  0  0  0
  3  4  1  0  0  0  0
  4  1  1  0  0  0  0
  5  1  1  0  0  0  0
  6  3  1  0  0  0  0
  7  5  1  0  0  0  0
  8  6  2  0  0  0  0
  9 17  1  0  0  0  0
 10  1  2  0  0  0  0
 11 10  1  0  0  0  0
 12  8  1  0  0  0  0
 13  6  1  0  0  0  0
 14  2  1  0  0  0  0
 15  2  2  0  0  0  0
 16  5  2  0  0  0  0
 17 13  2  0  0  0  0
 18 22  1  0  0  0  0
 19  8  1  0  0  0  0
 20  7  1  0  0  0  0
 21  7  1  0  0  0  0
 22 21  1  0  0  0  0
 23 20  1  0  0  0  0
 11  3  2  0  0  0  0
 23 18  1  0  0  0  0
 12  9  2  0  0  0  0
M  CHG  2   2   1  14  -1
M  END
> <IDNUMBER>
F1589-0514

> <Chemical_Name>
4-[5-(2-chloro-4-nitrophenyl)furan-2-carbonyl]morpholine

> <CAS>
618397-30-1

> <PriceCoeff>
1.00

> <MW>
336.73

> <Description>
solid

> <FSP3>
0.27

> <clogP>
2.29

> <TPSA>
85.82

> <Acceptor>
5

> <Donor>
0

> <RotBonds>
4

> <HAC>
23

> <Collection>
General

$$$$
F3188-0015
  -ISIS-  06222321462D

 28 30  0  0  0  0  0  0  0  0999 V2000
    5.5792   -0.9417    0.0000 N   0  0  3  0  0  0  0  0  0  0  0  0
    6.0750   -1.6042    0.0000 C   0  0  0  0  0  0  0  0  0  0  0  0
    6.0667   -0.2667    0.0000 C   0  0  0  0  0  0  0  0  0  0  0  0
    6.8542   -1.3417    0.0000 C   0  0  3  0  0  0  0  0  0  0  0  0
    6.8542   -0.5167    0.0000 C   0  0  0  0  0  0  0  0  0  0  0  0
    7.5167   -1.8250    0.0000 N   0  0  3  0  0  0  0  0  0  0  0  0
    8.8542   -2.7917    0.0000 N   0  0  3  0  0  0  0  0  0  0  0  0
    9.5250   -3.2750    0.0000 C   0  0  0  0  0  0  0  0  0  0  0  0
    4.7542   -0.9417    0.0000 C   0  0  0  0  0  0  0  0  0  0  0  0
    5.8167   -2.3917    0.0000 O   0  0  0  0  0  0  0  0  0  0  0  0
    1.8667   -0.2417    0.0000 C   0  0  3  0  0  0  0  0  0  0  0  0
    5.8042    0.5125    0.0000 O   0  0  0  0  0  0  0  0  0  0  0  0
    2.2875   -0.9542    0.0000 S   0  0  0  0  0  0  0  0  0  0  0  0
    8.1042   -3.1292    0.0000 C   0  0  0  0  0  0  0  0  0  0  0  0
    8.9417   -1.9667    0.0000 C   0  0  0  0  0  0  0  0  0  0  0  0
    7.4375   -2.6500    0.0000 C   0  0  0  0  0  0  0  0  0  0  0  0
    8.2667   -1.4875    0.0000 C   0  0  0  0  0  0  0  0  0  0  0  0
   10.2792   -2.9417    0.0000 O   0  0  0  0  0  0  0  0  0  0  0  0
    4.3417   -0.2292    0.0000 C   0  0  0  0  0  0  0  0  0  0  0  0
    4.3542   -1.6625    0.0000 C   0  0  0  0  0  0  0  0  0  0  0  0
    3.1125   -0.9542    0.0000 C   0  0  0  0  0  0  0  0  0  0  0  0
    9.4417   -4.0917    0.0000 O   0  0  0  0  0  0  0  0  0  0  0  0
    1.0417   -0.2542    0.0000 F   0  0  0  0  0  0  0  0  0  0  0  0
    2.2792    0.4708    0.0000 F   0  0  0  0  0  0  0  0  0  0  0  0
    3.5167   -0.2375    0.0000 C   0  0  0  0  0  0  0  0  0  0  0  0
    3.5292   -1.6667    0.0000 C   0  0  0  0  0  0  0  0  0  0  0  0
    8.6875   -4.4292    0.0000 C   0  0  0  0  0  0  0  0  0  0  0  0
    8.6042   -5.2542    0.0000 C   0  0  0  0  0  0  0  0  0  0  0  0
  2  1  1  0  0  0  0
  3  1  1  0  0  0  0
  4  2  1  0  0  0  0
  5  3  1  0  0  0  0
  6  4  1  0  0  0  0
  7 15  1  0  0  0  0
  8  7  1  0  0  0  0
  9  1  1  0  0  0  0
 10  2  2  0  0  0  0
 11 13  1  0  0  0  0
 12  3  2  0  0  0  0
 13 21  1  0  0  0  0
 14 16  1  0  0  0  0
 15 17  1  0  0  0  0
 16  6  1  0  0  0  0
 17  6  1  0  0  0  0
 18  8  2  0  0  0  0
 19  9  2  0  0  0  0
 20  9  1  0  0  0  0
 21 26  1  0  0  0  0
 22  8  1  0  0  0  0
 23 11  1  0  0  0  0
 24 11  1  0  0  0  0
 25 19  1  0  0  0  0
 26 20  2  0  0  0  0
 27 22  1  0  0  0  0
 28 27  1  0  0  0  0
  5  4  1  0  0  0  0
 21 25  2  0  0  0  0
  7 14  1  0  0  0  0
M  END
> <IDNUMBER>
F3188-0015

> <Chemical_Name>
ethyl 4-(1-{4-[(difluoromethyl)sulfanyl]phenyl}-2,5-dioxopyrrolidin-3-yl)piperazine-1-carboxylate

> <CAS>
857494-09-8

> <PriceCoeff>
1.00

> <MW>
413.44

> <Description>
solid

> <FSP3>
0.50

> <clogP>
3.38

> <TPSA>
95.46

> <Acceptor>
4

> <Donor>
1

> <RotBonds>
7

> <HAC>
28

> <Collection>
General

$$$$
F3228-0172
  -ISIS-  06222321152D

 19 21  0  0  0  0  0  0  0  0999 V2000
    6.1542    0.0958    0.0000 C   0  0  0  0  0  0  0  0  0  0  0  0
    6.1542   -0.5625    0.0000 C   0  0  0  0  0  0  0  0  0  0  0  0
    5.0250    0.0958    0.0000 C   0  0  0  0  0  0  0  0  0  0  0  0
    5.5875    0.4208    0.0000 O   0  0  0  0  0  0  0  0  0  0  0  0
    5.5875   -0.8792    0.0000 C   0  0  0  0  0  0  0  0  0  0  0  0
    5.0250   -0.5542    0.0000 C   0  0  0  0  0  0  0  0  0  0  0  0
    4.4625    0.4125    0.0000 C   0  0  0  0  0  0  0  0  0  0  0  0
    6.7042    0.4125    0.0000 C   0  0  0  0  0  0  0  0  0  0  0  0
    4.4625   -0.8792    0.0000 C   0  0  0  0  0  0  0  0  0  0  0  0
    5.5792   -1.5292    0.0000 O   0  0  0  0  0  0  0  0  0  0  0  0
    7.2667    0.0875    0.0000 C   0  0  0  0  0  0  0  0  0  0  0  0
    6.7042    1.0583    0.0000 C   0  0  0  0  0  0  0  0  0  0  0  0
    3.9042    0.0875    0.0000 C   0  0  0  0  0  0  0  0  0  0  0  0
    3.9042   -0.5542    0.0000 C   0  0  0  0  0  0  0  0  0  0  0  0
    7.8292    1.0583    0.0000 C   0  0  0  0  0  0  0  0  0  0  0  0
    7.2667    1.3833    0.0000 C   0  0  0  0  0  0  0  0  0  0  0  0
    7.8250    0.4083    0.0000 C   0  0  0  0  0  0  0  0  0  0  0  0
    8.3917    1.3833    0.0000 Cl  0  0  0  0  0  0  0  0  0  0  0  0
    3.3417    0.4125    0.0000 O   0  0  0  0  0  0  0  0  0  0  0  0
  2  1  2  0  0  0  0
  3  4  1  0  0  0  0
  4  1  1  0  0  0  0
  5  2  1  0  0  0  0
  6  3  1  0  0  0  0
  7  3  2  0  0  0  0
  8  1  1  0  0  0  0
  9  6  2  0  0  0  0
 10  5  2  0  0  0  0
 11  8  2  0  0  0  0
 12  8  1  0  0  0  0
 13  7  1  0  0  0  0
 14 13  2  0  0  0  0
 15 16  1  0  0  0  0
 16 12  2  0  0  0  0
 17 11  1  0  0  0  0
 18 15  1  0  0  0  0
 19 13  1  0  0  0  0
 15 17  2  0  0  0  0
  5  6  1  0  0  0  0
  9 14  1  0  0  0  0
M  END
> <IDNUMBER>
F3228-0172

> <Chemical_Name>
2-(4-chlorophenyl)-7-hydroxy-4H-chromen-4-one

> <CAS>
22609-52-5

> <PriceCoeff>
1.00

> <MW>
272.68

> <Description>
solid

> <FSP3>
0.00

> <clogP>
3.92

> <TPSA>
46.53

> <Acceptor>
3

> <Donor>
1

> <RotBonds>
1

> <HAC>
19

> <Collection>
General

> <Reference_compound>
CHEMBL275638

> <Similarity>
0.8930

$$$$
F3229-0031
  -ISIS-  06222321152D

 29 31  0  0  0  0  0  0  0  0999 V2000
    1.1292   -2.2042    0.0000 N   0  0  3  0  0  0  0  0  0  0  0  0
    1.8792   -1.7625    0.0000 C   0  0  0  0  0  0  0  0  0  0  0  0
    1.8792   -0.9375    0.0000 C   0  0  3  0  0  0  0  0  0  0  0  0
    0.4625   -1.7625    0.0000 C   0  0  0  0  0  0  0  0  0  0  0  0
    3.3042   -3.4125    0.0000 C   0  0  0  0  0  0  0  0  0  0  0  0
    1.8792   -3.4042    0.0000 C   0  0  0  0  0  0  0  0  0  0  0  0
    2.5542   -3.0292    0.0000 N   0  0  0  0  0  0  0  0  0  0  0  0
    1.1667   -2.9917    0.0000 C   0  0  0  0  0  0  0  0  0  0  0  0
    3.3042   -4.2375    0.0000 C   0  0  0  0  0  0  0  0  0  0  0  0
    4.0167   -3.0000    0.0000 C   0  0  0  0  0  0  0  0  0  0  0  0
    1.1667   -0.5167    0.0000 C   0  0  0  0  0  0  0  0  0  0  0  0
    2.6000   -2.1750    0.0000 O   0  0  0  0  0  0  0  0  0  0  0  0
    0.4625   -0.9375    0.0000 C   0  0  0  0  0  0  0  0  0  0  0  0
    4.7292   -3.4125    0.0000 C   0  0  0  0  0  0  0  0  0  0  0  0
    4.0167   -4.6500    0.0000 C   0  0  0  0  0  0  0  0  0  0  0  0
    1.8792   -0.1125    0.0000 C   0  0  0  0  0  0  0  0  0  0  0  0
   -0.2250   -2.1875    0.0000 O   0  0  0  0  0  0  0  0  0  0  0  0
    1.8792   -4.2292    0.0000 O   0  0  0  0  0  0  0  0  0  0  0  0
    4.7292   -4.2417    0.0000 C   0  0  0  0  0  0  0  0  0  0  0  0
    2.5917   -1.3500    0.0000 C   0  0  0  0  0  0  0  0  0  0  0  0
    2.5875   -4.6417    0.0000 C   0  0  0  0  0  0  0  0  0  0  0  0
    4.0167   -2.1750    0.0000 C   0  0  0  0  0  0  0  0  0  0  0  0
    2.5917    0.3083    0.0000 C   0  0  0  0  0  0  0  0  0  0  0  0
    1.1625    0.2958    0.0000 C   0  0  0  0  0  0  0  0  0  0  0  0
    5.4417   -4.6542    0.0000 C   0  0  0  0  0  0  0  0  0  0  0  0
    3.3042   -0.9292    0.0000 C   0  0  0  0  0  0  0  0  0  0  0  0
    2.5792    1.1333    0.0000 C   0  0  0  0  0  0  0  0  0  0  0  0
    1.1500    1.1125    0.0000 C   0  0  0  0  0  0  0  0  0  0  0  0
    1.8625    1.5375    0.0000 C   0  0  0  0  0  0  0  0  0  0  0  0
  2  1  1  0  0  0  0
  3  2  1  0  0  0  0
  4  1  1  0  0  0  0
  5  7  1  0  0  0  0
  6  8  1  0  0  0  0
  7  6  1  0  0  0  0
  8  1  1  0  0  0  0
  9  5  2  0  0  0  0
 10  5  1  0  0  0  0
 11 13  1  0  0  0  0
 12  2  2  0  0  0  0
 13  4  1  0  0  0  0
 14 10  2  0  0  0  0
 15  9  1  0  0  0  0
 16  3  1  0  0  0  0
 17  4  2  0  0  0  0
 18  6  2  0  0  0  0
 19 14  1  0  0  0  0
 20  3  1  0  0  0  0
 21  9  1  0  0  0  0
 22 10  1  0  0  0  0
 23 16  2  0  0  0  0
 24 16  1  0  0  0  0
 25 19  1  0  0  0  0
 26 20  1  0  0  0  0
 27 23  1  0  0  0  0
 28 24  2  0  0  0  0
 29 28  1  0  0  0  0
 11  3  1  0  0  0  0
 29 27  2  0  0  0  0
 19 15  2  0  0  0  0
M  END
> <IDNUMBER>
F3229-0031

> <Chemical_Name>
2-(3-ethyl-2,6-dioxo-3-phenylpiperidin-1-yl)-N-(2,4,6-trimethylphenyl)acetamide

> <CAS>
923222-43-9

> <PriceCoeff>
1.00

> <MW>
392.49

> <Description>
solid

> <FSP3>
0.38

> <clogP>
3.97

> <TPSA>
66.48

> <Acceptor>
3

> <Donor>
1

> <RotBonds>
5

> <HAC>
29

> <Collection>
General

$$$$
F6195-2940
  -ISIS-  06222321152D

 29 32  0  0  0  0  0  0  0  0999 V2000
   -1.1500    4.6292    0.0000 C   0  0  0  0  0  0  0  0  0  0  0  0
   -2.4333    4.2125    0.0000 C   0  0  0  0  0  0  0  0  0  0  0  0
   -1.6458    5.3042    0.0000 N   0  0  0  0  0  0  0  0  0  0  0  0
   -4.5833    3.8000    0.0000 C   0  0  0  0  0  0  0  0  0  0  0  0
   -0.3208    4.6417    0.0000 N   0  0  0  0  0  0  0  0  0  0  0  0
   -1.6458    3.9708    0.0000 S   0  0  0  0  0  0  0  0  0  0  0  0
   -2.4333    5.0417    0.0000 C   0  0  0  0  0  0  0  0  0  0  0  0
   -3.8625    4.2125    0.0000 N   0  0  3  0  0  0  0  0  0  0  0  0
    0.0792    5.3542    0.0000 C   0  0  0  0  0  0  0  0  0  0  0  0
   -3.1500    3.8083    0.0000 C   0  0  0  0  0  0  0  0  0  0  0  0
    0.9042    5.3542    0.0000 C   0  0  0  0  0  0  0  0  0  0  0  0
   -4.5833    2.9833    0.0000 N   0  0  0  0  0  0  0  0  0  0  0  0
   -3.1500    5.4542    0.0000 C   0  0  0  0  0  0  0  0  0  0  0  0
   -6.0042    1.3375    0.0000 C   0  0  0  0  0  0  0  0  0  0  0  0
   -5.3083    1.7458    0.0000 C   0  0  0  0  0  0  0  0  0  0  0  0
    1.3250    4.6500    0.0000 N   0  0  0  0  0  0  0  0  0  0  0  0
   -3.8625    5.0417    0.0000 C   0  0  0  0  0  0  0  0  0  0  0  0
   -5.3000    2.5833    0.0000 C   0  0  0  0  0  0  0  0  0  0  0  0
   -5.3000    4.2125    0.0000 O   0  0  0  0  0  0  0  0  0  0  0  0
   -6.7167    1.7458    0.0000 C   0  0  0  0  0  0  0  0  0  0  0  0
   -0.3333    6.0667    0.0000 O   0  0  0  0  0  0  0  0  0  0  0  0
    2.1417    6.0917    0.0000 N   0  0  0  0  0  0  0  0  0  0  0  0
   -6.7167    2.5708    0.0000 C   0  0  0  0  0  0  0  0  0  0  0  0
   -6.0042    0.5083    0.0000 Cl  0  0  0  0  0  0  0  0  0  0  0  0
    1.3125    6.0792    0.0000 C   0  0  0  0  0  0  0  0  0  0  0  0
   -6.0042    2.9833    0.0000 C   0  0  0  0  0  0  0  0  0  0  0  0
   -7.4417    1.3250    0.0000 Cl  0  0  0  0  0  0  0  0  0  0  0  0
    2.1542    4.6542    0.0000 C   0  0  0  0  0  0  0  0  0  0  0  0
    2.5625    5.3667    0.0000 C   0  0  0  0  0  0  0  0  0  0  0  0
  2  6  1  0  0  0  0
  3  1  2  0  0  0  0
  4  8  1  0  0  0  0
  5  1  1  0  0  0  0
  6  1  1  0  0  0  0
  7  3  1  0  0  0  0
  8 10  1  0  0  0  0
  9  5  1  0  0  0  0
 10  2  1  0  0  0  0
 11  9  1  0  0  0  0
 12  4  1  0  0  0  0
 13  7  1  0  0  0  0
 14 15  1  0  0  0  0
 15 18  2  0  0  0  0
 16 11  2  0  0  0  0
 17 13  1  0  0  0  0
 18 12  1  0  0  0  0
 19  4  2  0  0  0  0
 20 23  1  0  0  0  0
 21  9  2  0  0  0  0
 22 25  2  0  0  0  0
 23 26  2  0  0  0  0
 24 14  1  0  0  0  0
 25 11  1  0  0  0  0
 26 18  1  0  0  0  0
 27 20  1  0  0  0  0
 28 16  1  0  0  0  0
 29 22  1  0  0  0  0
  2  7  2  0  0  0  0
  8 17  1  0  0  0  0
 28 29  2  0  0  0  0
 14 20  2  0  0  0  0
M  END
> <IDNUMBER>
F6195-2940

> <Chemical_Name>
N-{5-[(3,4-dichlorophenyl)carbamoyl]-4H,5H,6H,7H-[1,3]thiazolo[5,4-c]pyridin-2-yl}pyrazine-2-carboxamide

> <CAS>
1351613-87-0

> <PriceCoeff>
1.00

> <MW>
449.31

> <Description>
solid

> <FSP3>
0.17

> <clogP>
2.16

> <TPSA>
128.35

> <Acceptor>
5

> <Donor>
2

> <RotBonds>
4

> <HAC>
29

> <Collection>
General

$$$$
F1589-0509
  -ISIS-  06222321142D

 21 22  0  0  0  0  0  0  0  0999 V2000
   -0.5458   -6.5500    0.0000 N   0  3  0  0  0  0  0  0  0  0  0  0
    6.4292   -2.4792    0.0000 C   0  0  0  0  0  0  0  0  0  0  0  0
    8.2792   -3.3042    0.0000 O   0  0  0  0  0  0  0  0  0  0  0  0
    9.6292   -1.8125    0.0000 C   0  0  0  0  0  0  0  0  0  0  0  0
    4.7042   -3.5125    0.0000 C   0  0  0  0  0  0  0  0  0  0  0  0
   11.6250   -2.0167    0.0000 C   0  0  0  0  0  0  0  0  0  0  0  0
    2.9417   -2.5042    0.0000 C   0  0  0  0  0  0  0  0  0  0  0  0
    1.2000   -5.5417    0.0000 C   0  0  0  0  0  0  0  0  0  0  0  0
    6.6417   -0.4875    0.0000 C   0  0  0  0  0  0  0  0  0  0  0  0
    8.6167   -0.0542    0.0000 C   0  0  0  0  0  0  0  0  0  0  0  0
    1.2000   -3.5125    0.0000 C   0  0  0  0  0  0  0  0  0  0  0  0
   12.8167   -0.3750    0.0000 N   0  0  0  0  0  0  0  0  0  0  0  0
    4.7042   -5.5417    0.0000 C   0  0  0  0  0  0  0  0  0  0  0  0
   -2.2958   -5.5417    0.0000 O   0  5  0  0  0  0  0  0  0  0  0  0
   -0.5458   -8.5667    0.0000 O   0  0  0  0  0  0  0  0  0  0  0  0
   12.4667   -3.8500    0.0000 O   0  0  0  0  0  0  0  0  0  0  0  0
    2.9417   -6.5500    0.0000 C   0  0  0  0  0  0  0  0  0  0  0  0
    2.9417   -0.4875    0.0000 Cl  0  0  0  0  0  0  0  0  0  0  0  0
   14.8250   -0.5792    0.0000 C   0  0  3  0  0  0  0  0  0  0  0  0
   15.6500   -2.4125    0.0000 C   0  0  0  0  0  0  0  0  0  0  0  0
   16.0000    1.0625    0.0000 C   0  0  0  0  0  0  0  0  0  0  0  0
  2  5  1  0  0  0  0
  3  2  1  0  0  0  0
  4  3  1  0  0  0  0
  5 13  1  0  0  0  0
  6  4  1  0  0  0  0
  7 11  1  0  0  0  0
  8  1  1  0  0  0  0
  9  2  2  0  0  0  0
 10  9  1  0  0  0  0
 11  8  2  0  0  0  0
 12  6  1  0  0  0  0
 13 17  2  0  0  0  0
 14  1  1  0  0  0  0
 15  1  2  0  0  0  0
 16  6  2  0  0  0  0
 17  8  1  0  0  0  0
 18  7  1  0  0  0  0
 19 12  1  0  0  0  0
 20 19  1  0  0  0  0
 21 19  1  0  0  0  0
  7  5  2  0  0  0  0
  4 10  2  0  0  0  0
M  CHG  2   1   1  14  -1
M  END
> <IDNUMBER>
F1589-0509

> <Chemical_Name>
5-(2-chloro-4-nitrophenyl)-N-(propan-2-yl)furan-2-carboxamide

> <CAS>
618397-15-2

> <PriceCoeff>
1.00

> <MW>
308.72

> <Description>
solid

> <FSP3>
0.21

> <clogP>
3.28

> <TPSA>
85.38

> <Acceptor>
4

> <Donor>
1

> <RotBonds>
4

> <HAC>
21

> <Collection>
General

$$$$
F2173-0553
  -ISIS-  06222321142D

 23 24  0  0  0  0  0  0  0  0999 V2000
    4.2917   -8.9250    0.0000 C   0  0  0  0  0  0  0  0  0  0  0  0
    5.0792   -8.9250    0.0000 C   0  0  0  0  0  0  0  0  0  0  0  0
    3.8917   -9.6125    0.0000 C   0  0  0  0  0  0  0  0  0  0  0  0
    5.4917   -8.2292    0.0000 N   0  0  0  0  0  0  0  0  0  0  0  0
    3.0917   -9.6125    0.0000 C   0  0  0  0  0  0  0  0  0  0  0  0
    3.8917   -8.2292    0.0000 C   0  0  0  0  0  0  0  0  0  0  0  0
    4.2917  -10.3042    0.0000 N   0  0  0  0  0  0  0  0  0  0  0  0
    2.6917   -8.9250    0.0000 C   0  0  0  0  0  0  0  0  0  0  0  0
    5.4792   -9.6125    0.0000 C   0  0  0  0  0  0  0  0  0  0  0  0
    3.0917   -8.2292    0.0000 C   0  0  0  0  0  0  0  0  0  0  0  0
    5.0792  -10.3042    0.0000 C   0  0  0  0  0  0  0  0  0  0  0  0
    8.6792   -6.8625    0.0000 N   0  0  3  0  0  0  0  0  0  0  0  0
    1.8917   -8.9250    0.0000 Cl  0  0  0  0  0  0  0  0  0  0  0  0
    6.2917   -8.2292    0.0000 C   0  0  3  0  0  0  0  0  0  0  0  0
   10.2667   -5.4875    0.0000 O   0  0  0  0  0  0  0  0  0  0  0  0
    7.4792   -7.5417    0.0000 C   0  0  0  0  0  0  0  0  0  0  0  0
    7.8792   -6.8625    0.0000 C   0  0  0  0  0  0  0  0  0  0  0  0
    9.0792   -6.1750    0.0000 C   0  0  0  0  0  0  0  0  0  0  0  0
    9.0792   -7.5542    0.0000 C   0  0  0  0  0  0  0  0  0  0  0  0
    6.6792   -7.5417    0.0000 C   0  0  0  0  0  0  0  0  0  0  0  0
    9.8667   -6.1750    0.0000 C   0  0  0  0  0  0  0  0  0  0  0  0
    6.6792   -8.9250    0.0000 C   0  0  0  0  0  0  0  0  0  0  0  0
    8.6667   -8.2375    0.0000 C   0  0  0  0  0  0  0  0  0  0  0  0
  2  1  1  0  0  0  0
  3  1  1  0  0  0  0
  4  2  1  0  0  0  0
  5  3  2  0  0  0  0
  6  1  2  0  0  0  0
  7  3  1  0  0  0  0
  8 10  2  0  0  0  0
  9  2  2  0  0  0  0
 10  6  1  0  0  0  0
 11  7  2  0  0  0  0
 12 17  1  0  0  0  0
 13  8  1  0  0  0  0
 14  4  1  0  0  0  0
 15 21  1  0  0  0  0
 16 20  1  0  0  0  0
 17 16  1  0  0  0  0
 18 12  1  0  0  0  0
 19 12  1  0  0  0  0
 20 14  1  0  0  0  0
 21 18  1  0  0  0  0
 22 14  1  0  0  0  0
 23 19  1  0  0  0  0
  5  8  1  0  0  0  0
  9 11  1  0  0  0  0
M  END
> <IDNUMBER>
F2173-0553

> <Chemical_Name>
2-({4-[(7-chloroquinolin-4-yl)amino]pentyl}(ethyl)amino)ethan-1-ol

> <CAS>
118-42-3

> <PriceCoeff>
1.00

> <MW>
335.87

> <Description>
solid

> <FSP3>
0.50

> <clogP>
4.12

> <TPSA>
48.39

> <Acceptor>
2

> <Donor>
4

> <RotBonds>
9

> <HAC>
23

> <Collection>
General

> <Reference_compound>
CHEMBL76

> <Similarity>
0.9130

$$$$
F6439-8110
  -ISIS-  06222321152D

 26 29  0  0  0  0  0  0  0  0999 V2000
   -2.4875    6.7667    0.0000 C   0  0  0  0  0  0  0  0  0  0  0  0
   -2.7500    7.5542    0.0000 N   0  0  3  0  0  0  0  0  0  0  0  0
   -1.6583    6.7750    0.0000 C   0  0  0  0  0  0  0  0  0  0  0  0
   -5.2833    2.5708    0.0000 N   0  0  3  0  0  0  0  0  0  0  0  0
   -2.0833    8.0500    0.0000 N   0  0  0  0  0  0  0  0  0  0  0  0
   -1.4208    7.5542    0.0000 C   0  0  0  0  0  0  0  0  0  0  0  0
   -3.1583    6.2792    0.0000 N   0  0  3  0  0  0  0  0  0  0  0  0
   -3.5750    7.5500    0.0000 C   0  0  0  0  0  0  0  0  0  0  0  0
   -5.3708    1.7458    0.0000 C   0  0  0  0  0  0  0  0  0  0  0  0
   -6.0292    2.9000    0.0000 C   0  0  0  0  0  0  0  0  0  0  0  0
   -0.6333    7.8250    0.0000 C   0  0  0  0  0  0  0  0  0  0  0  0
   -3.8333    6.7667    0.0000 C   0  0  0  0  0  0  0  0  0  0  0  0
   -4.5833    2.9875    0.0000 C   0  0  0  0  0  0  0  0  0  0  0  0
   -4.5833    3.8000    0.0000 C   0  0  0  0  0  0  0  0  0  0  0  0
   -0.3708    8.6167    0.0000 O   0  0  0  0  0  0  0  0  0  0  0  0
    0.0417    7.3417    0.0000 C   0  0  0  0  0  0  0  0  0  0  0  0
   -6.5750    2.2833    0.0000 C   0  0  0  0  0  0  0  0  0  0  0  0
   -6.1667    1.5708    0.0000 C   0  0  0  0  0  0  0  0  0  0  0  0
   -6.2042    3.7083    0.0000 O   0  0  0  0  0  0  0  0  0  0  0  0
   -4.7500    1.1833    0.0000 O   0  0  0  0  0  0  0  0  0  0  0  0
    0.4500    8.6250    0.0000 C   0  0  0  0  0  0  0  0  0  0  0  0
    0.7042    7.8417    0.0000 C   0  0  0  0  0  0  0  0  0  0  0  0
   -5.3000    4.2042    0.0000 O   0  0  0  0  0  0  0  0  0  0  0  0
   -3.8625    4.2042    0.0000 N   0  0  0  0  0  0  0  0  0  0  0  0
   -3.1583    5.4500    0.0000 C   0  0  0  0  0  0  0  0  0  0  0  0
   -3.8625    5.0292    0.0000 C   0  0  0  0  0  0  0  0  0  0  0  0
  2  1  1  0  0  0  0
  3  1  2  0  0  0  0
  4 13  1  0  0  0  0
  5  2  1  0  0  0  0
  6  3  1  0  0  0  0
  7  1  1  0  0  0  0
  8  2  1  0  0  0  0
  9  4  1  0  0  0  0
 10  4  1  0  0  0  0
 11  6  1  0  0  0  0
 12  7  1  0  0  0  0
 13 14  1  0  0  0  0
 14 24  1  0  0  0  0
 15 11  1  0  0  0  0
 16 11  2  0  0  0  0
 17 10  1  0  0  0  0
 18  9  1  0  0  0  0
 19 10  2  0  0  0  0
 20  9  2  0  0  0  0
 21 15  1  0  0  0  0
 22 16  1  0  0  0  0
 23 14  2  0  0  0  0
 24 26  1  0  0  0  0
 25  7  1  0  0  0  0
 26 25  1  0  0  0  0
 12  8  2  0  0  0  0
  6  5  2  0  0  0  0
 22 21  2  0  0  0  0
 17 18  1  0  0  0  0
M  END
> <IDNUMBER>
F6439-8110

> <Chemical_Name>
2-(2,5-dioxopyrrolidin-1-yl)-N-{2-[6-(furan-2-yl)-1H-pyrazolo[1,5-a]imidazol-1-yl]ethyl}acetamide

> <CAS>
1798513-05-9

> <PriceCoeff>
1.00

> <MW>
355.35

> <Description>
solid

> <FSP3>
0.29

> <clogP>
1.16

> <TPSA>
101.85

> <Acceptor>
5

> <Donor>
1

> <RotBonds>
6

> <HAC>
26

> <Collection>
General

$$$$
F1751-0007
  -ISIS-  06222321442D

 26 30  0  0  0  0  0  0  0  0999 V2000
    2.4750   -0.2167    0.0000 N   0  0  3  0  0  0  0  0  0  0  0  0
    3.1417    0.2708    0.0000 C   0  0  0  0  0  0  0  0  0  0  0  0
    2.7250   -1.0042    0.0000 C   0  0  0  0  0  0  0  0  0  0  0  0
    3.5542   -1.0042    0.0000 C   0  0  3  0  0  0  0  0  0  0  0  0
    3.8167   -0.2167    0.0000 C   0  0  0  0  0  0  0  0  0  0  0  0
    4.8792   -1.6417    0.0000 C   0  0  3  0  0  0  0  0  0  0  0  0
    4.0417   -1.6750    0.0000 N   0  0  0  0  0  0  0  0  0  0  0  0
    1.6875    0.0375    0.0000 C   0  0  0  0  0  0  0  0  0  0  0  0
    3.1417    1.1000    0.0000 O   0  0  0  0  0  0  0  0  0  0  0  0
    6.2500   -1.6417    0.0000 C   0  0  3  0  0  0  0  0  0  0  0  0
    5.5625   -0.4542    0.0000 C   0  0  3  0  0  0  0  0  0  0  0  0
    5.1667   -2.1792    0.0000 C   0  0  3  0  0  0  0  0  0  0  0  0
    2.2375   -1.6750    0.0000 O   0  0  0  0  0  0  0  0  0  0  0  0
    5.5625   -2.0375    0.0000 C   0  0  0  0  0  0  0  0  0  0  0  0
    4.8792   -0.8500    0.0000 C   0  0  0  0  0  0  0  0  0  0  0  0
    4.4250   -2.3542    0.0000 C   0  0  0  0  0  0  0  0  0  0  0  0
    5.1667   -1.1292    0.0000 C   0  0  0  0  0  0  0  0  0  0  0  0
    6.2500   -0.8500    0.0000 C   0  0  0  0  0  0  0  0  0  0  0  0
    5.7292   -2.5292    0.0000 C   0  0  0  0  0  0  0  0  0  0  0  0
    1.0750   -0.5167    0.0000 C   0  0  0  0  0  0  0  0  0  0  0  0
    1.5167    0.8458    0.0000 C   0  0  0  0  0  0  0  0  0  0  0  0
    0.1125    0.5500    0.0000 C   0  0  0  0  0  0  0  0  0  0  0  0
    0.7292    1.1000    0.0000 C   0  0  0  0  0  0  0  0  0  0  0  0
    0.2875   -0.2667    0.0000 C   0  0  0  0  0  0  0  0  0  0  0  0
   -0.6833    0.8000    0.0000 O   0  0  0  0  0  0  0  0  0  0  0  0
   -1.2958    0.2458    0.0000 C   0  0  0  0  0  0  0  0  0  0  0  0
  2  1  1  0  0  0  0
  3  1  1  0  0  0  0
  4  3  1  0  0  0  0
  5  2  1  0  0  0  0
  6  7  1  0  0  0  0
  7  4  1  0  0  0  0
  8  1  1  0  0  0  0
  9  2  2  0  0  0  0
 10 14  1  0  0  0  0
 11 15  1  0  0  0  0
 12 16  1  0  0  0  0
 13  3  2  0  0  0  0
 14  6  1  0  0  0  0
 15  6  1  0  0  0  0
 16  6  1  0  0  0  0
 17 12  1  0  0  0  0
 18 11  1  0  0  0  0
 19 12  1  0  0  0  0
 20  8  1  0  0  0  0
 21  8  2  0  0  0  0
 22 23  2  0  0  0  0
 23 21  1  0  0  0  0
 24 20  2  0  0  0  0
 25 22  1  0  0  0  0
 26 25  1  0  0  0  0
  4  5  1  0  0  0  0
 24 22  1  0  0  0  0
 10 19  1  0  0  0  0
 11 17  1  0  0  0  0
 10 18  1  0  0  0  0
M  END
> <IDNUMBER>
F1751-0007

> <Chemical_Name>
3-[(adamantan-1-yl)amino]-1-(4-methoxyphenyl)pyrrolidine-2,5-dione

> <CAS>
1008985-19-0

> <PriceCoeff>
1.50

> <MW>
354.44

> <Description>
solid

> <FSP3>
0.62

> <clogP>
3.69

> <TPSA>
58.64

> <Acceptor>
3

> <Donor>
1

> <RotBonds>
4

> <HAC>
26

> <Collection>
Advanced

$$$$
F6473-3975
  -ISIS-  06222321462D

 28 31  0  0  0  0  0  0  0  0999 V2000
   -3.7458    3.6958    0.0000 S   0  0  3  0  0  0  0  0  0  0  0  0
   -3.0333    4.1042    0.0000 N   0  0  3  0  0  0  0  0  0  0  0  0
   -1.3083    5.1042    0.0000 N   0  0  3  0  0  0  0  0  0  0  0  0
   -2.0333    4.6875    0.0000 C   0  0  3  0  0  0  0  0  0  0  0  0
   -2.2458    3.8958    0.0000 C   0  0  0  0  0  0  0  0  0  0  0  0
   -2.8208    4.9000    0.0000 C   0  0  0  0  0  0  0  0  0  0  0  0
   -1.2250    5.9167    0.0000 C   0  0  0  0  0  0  0  0  0  0  0  0
   -0.5583    4.7667    0.0000 C   0  0  0  0  0  0  0  0  0  0  0  0
   -4.4667    3.3083    0.0000 C   0  0  0  0  0  0  0  0  0  0  0  0
   -4.1458    4.4042    0.0000 O   0  0  0  0  0  0  0  0  0  0  0  0
   -3.3250    2.9833    0.0000 O   0  0  0  0  0  0  0  0  0  0  0  0
   -6.6292    2.1208    0.0000 C   0  0  0  0  0  0  0  0  0  0  0  0
   -8.0500    2.1458    0.0000 C   0  0  0  0  0  0  0  0  0  0  0  0
   -7.3292    2.5375    0.0000 C   0  0  0  0  0  0  0  0  0  0  0  0
   -5.9083    2.5083    0.0000 C   0  0  0  0  0  0  0  0  0  0  0  0
   -8.0667    1.3083    0.0000 C   0  0  0  0  0  0  0  0  0  0  0  0
   -0.0083    5.3792    0.0000 C   0  0  0  0  0  0  0  0  0  0  0  0
   -0.4208    6.0917    0.0000 C   0  0  0  0  0  0  0  0  0  0  0  0
   -0.3875    3.9625    0.0000 O   0  0  0  0  0  0  0  0  0  0  0  0
   -1.8417    6.4708    0.0000 O   0  0  0  0  0  0  0  0  0  0  0  0
   -6.6500    1.2750    0.0000 C   0  0  0  0  0  0  0  0  0  0  0  0
   -4.4833    2.4708    0.0000 C   0  0  0  0  0  0  0  0  0  0  0  0
   -5.1833    3.7333    0.0000 C   0  0  0  0  0  0  0  0  0  0  0  0
   -7.3667    0.8833    0.0000 C   0  0  0  0  0  0  0  0  0  0  0  0
   -5.2083    2.0875    0.0000 C   0  0  0  0  0  0  0  0  0  0  0  0
   -5.8958    3.3292    0.0000 C   0  0  0  0  0  0  0  0  0  0  0  0
   -8.7375    2.5708    0.0000 Cl  0  0  0  0  0  0  0  0  0  0  0  0
   -8.7833    0.9208    0.0000 Cl  0  0  0  0  0  0  0  0  0  0  0  0
  2  1  1  0  0  0  0
  3  4  1  0  0  0  0
  4  6  1  0  0  0  0
  5  2  1  0  0  0  0
  6  2  1  0  0  0  0
  7  3  1  0  0  0  0
  8  3  1  0  0  0  0
  9  1  1  0  0  0  0
 10  1  2  0  0  0  0
 11  1  2  0  0  0  0
 12 15  1  0  0  0  0
 13 14  1  0  0  0  0
 14 12  2  0  0  0  0
 15 26  1  0  0  0  0
 16 24  1  0  0  0  0
 17  8  1  0  0  0  0
 18  7  1  0  0  0  0
 19  8  2  0  0  0  0
 20  7  2  0  0  0  0
 21 12  1  0  0  0  0
 22  9  2  0  0  0  0
 23  9  1  0  0  0  0
 24 21  2  0  0  0  0
 25 22  1  0  0  0  0
 26 23  2  0  0  0  0
 27 13  1  0  0  0  0
 28 16  1  0  0  0  0
  4  5  1  0  0  0  0
 15 25  2  0  0  0  0
 18 17  1  0  0  0  0
 13 16  2  0  0  0  0
M  END
> <IDNUMBER>
F6473-3975

> <Chemical_Name>
1-[1-({3',4'-dichloro-[1,1'-biphenyl]-4-yl}sulfonyl)azetidin-3-yl]pyrrolidine-2,5-dione

> <CAS>
1798511-65-5

> <PriceCoeff>
1.00

> <MW>
439.31

> <Description>
solid

> <FSP3>
0.26

> <clogP>
3.96

> <TPSA>
83.14

> <Acceptor>
4

> <Donor>
0

> <RotBonds>
4

> <HAC>
28

> <Collection>
General

$$$$
F1084-0888
  -ISIS-  06222321142D

 19 20  0  0  0  0  0  0  0  0999 V2000
    0.3917    0.4958    0.0000 N   0  3  0  0  0  0  0  0  0  0  0  0
    2.5417   -0.7417    0.0000 C   0  0  0  0  0  0  0  0  0  0  0  0
    3.2542   -1.1542    0.0000 C   0  0  0  0  0  0  0  0  0  0  0  0
    3.2542   -1.9792    0.0000 N   0  0  0  0  0  0  0  0  0  0  0  0
    1.8250   -1.1542    0.0000 C   0  0  0  0  0  0  0  0  0  0  0  0
    1.1125    0.0875    0.0000 C   0  0  0  0  0  0  0  0  0  0  0  0
    1.1125   -0.7417    0.0000 C   0  0  0  0  0  0  0  0  0  0  0  0
    2.5417    0.0875    0.0000 C   0  0  0  0  0  0  0  0  0  0  0  0
    3.8417   -2.5625    0.0000 C   0  0  0  0  0  0  0  0  0  0  0  0
    0.3917    1.3208    0.0000 O   0  5  0  0  0  0  0  0  0  0  0  0
   -0.3208    0.0833    0.0000 O   0  0  0  0  0  0  0  0  0  0  0  0
    4.6375   -2.3417    0.0000 N   0  0  0  0  0  0  0  0  0  0  0  0
    3.9667   -0.7375    0.0000 O   0  0  0  0  0  0  0  0  0  0  0  0
    1.8250    0.5000    0.0000 C   0  0  0  0  0  0  0  0  0  0  0  0
    1.8167   -1.9792    0.0000 Cl  0  0  0  0  0  0  0  0  0  0  0  0
    5.2042   -2.9292    0.0000 C   0  0  0  0  0  0  0  0  0  0  0  0
    3.6167   -3.3542    0.0000 C   0  0  0  0  0  0  0  0  0  0  0  0
    4.9917   -3.7250    0.0000 C   0  0  0  0  0  0  0  0  0  0  0  0
    4.2000   -3.9375    0.0000 C   0  0  0  0  0  0  0  0  0  0  0  0
  2  8  1  0  0  0  0
  3  2  1  0  0  0  0
  4  3  1  0  0  0  0
  5  7  1  0  0  0  0
  6  1  1  0  0  0  0
  7  6  2  0  0  0  0
  8 14  2  0  0  0  0
  9  4  1  0  0  0  0
 10  1  1  0  0  0  0
 11  1  2  0  0  0  0
 12  9  1  0  0  0  0
 13  3  2  0  0  0  0
 14  6  1  0  0  0  0
 15  5  1  0  0  0  0
 16 12  2  0  0  0  0
 17  9  2  0  0  0  0
 18 19  2  0  0  0  0
 19 17  1  0  0  0  0
  5  2  2  0  0  0  0
 16 18  1  0  0  0  0
M  CHG  2   1   1  10  -1
M  END
> <IDNUMBER>
F1084-0888

> <Chemical_Name>
2-chloro-4-nitro-N-(pyridin-2-yl)benzamide

> <CAS>
176165-76-7

> <PriceCoeff>
1.00

> <MW>
277.66

> <Description>
solid

> <FSP3>
0.00

> <clogP>
1.78

> <TPSA>
85.13

> <Acceptor>
4

> <Donor>
2

> <RotBonds>
3

> <HAC>
19

> <Collection>
General

$$$$
F0526-0592
  -ISIS-  06222304352D

 33 35  0  0  0  0  0  0  0  0999 V2000
    2.4542    0.2875    0.0000 C   0  0  0  0  0  0  0  0  0  0  0  0
    1.9750    0.9625    0.0000 C   0  0  0  0  0  0  0  0  0  0  0  0
    1.1875   -0.1167    0.0000 C   0  0  0  0  0  0  0  0  0  0  0  0
    1.1875    0.7125    0.0000 C   0  0  0  0  0  0  0  0  0  0  0  0
    1.9750   -0.3750    0.0000 S   0  0  0  0  0  0  0  0  0  0  0  0
    2.0167   -3.2792    0.0000 N   0  0  3  0  0  0  0  0  0  0  0  0
    3.2792    0.2833    0.0000 N   0  0  0  0  0  0  0  0  0  0  0  0
   -0.2500   -0.1167    0.0000 N   0  0  3  0  0  0  0  0  0  0  0  0
    3.7000   -0.4292    0.0000 C   0  0  0  0  0  0  0  0  0  0  0  0
    2.3750   -4.0250    0.0000 C   0  0  0  0  0  0  0  0  0  0  0  0
    1.1917   -3.3667    0.0000 C   0  0  0  0  0  0  0  0  0  0  0  0
    2.2292    1.7583    0.0000 C   0  0  0  0  0  0  0  0  0  0  0  0
    0.4667   -0.5292    0.0000 C   0  0  0  0  0  0  0  0  0  0  0  0
    0.4667    1.1250    0.0000 C   0  0  0  0  0  0  0  0  0  0  0  0
    2.4375   -2.5875    0.0000 C   0  0  0  0  0  0  0  0  0  0  0  0
    3.2792   -1.1417    0.0000 C   0  0  0  0  0  0  0  0  0  0  0  0
   -0.2500    0.7125    0.0000 C   0  0  0  0  0  0  0  0  0  0  0  0
    4.5375   -0.4292    0.0000 O   0  0  0  0  0  0  0  0  0  0  0  0
    1.0667   -4.1917    0.0000 C   0  0  0  0  0  0  0  0  0  0  0  0
    1.7625   -4.5917    0.0000 C   0  0  0  0  0  0  0  0  0  0  0  0
    0.6042   -2.7667    0.0000 O   0  0  0  0  0  0  0  0  0  0  0  0
    3.1917   -4.1875    0.0000 O   0  0  0  0  0  0  0  0  0  0  0  0
    1.7250    2.3333    0.0000 O   0  0  0  0  0  0  0  0  0  0  0  0
    3.2792   -2.5667    0.0000 C   0  0  0  0  0  0  0  0  0  0  0  0
    2.0542   -1.8500    0.0000 C   0  0  0  0  0  0  0  0  0  0  0  0
    3.7250   -1.8750    0.0000 C   0  0  0  0  0  0  0  0  0  0  0  0
    2.4667   -1.1292    0.0000 C   0  0  0  0  0  0  0  0  0  0  0  0
   -0.9750   -0.5292    0.0000 C   0  0  3  0  0  0  0  0  0  0  0  0
    2.9792    1.9208    0.0000 O   0  0  0  0  0  0  0  0  0  0  0  0
   -0.9625   -1.3750    0.0000 C   0  0  0  0  0  0  0  0  0  0  0  0
   -1.6833   -0.1167    0.0000 C   0  0  0  0  0  0  0  0  0  0  0  0
    3.3667    2.7833    0.0000 C   0  0  0  0  0  0  0  0  0  0  0  0
    6.0542   -0.8083    0.0000 Cl  0  0  0  0  0  0  0  0  0  0  0  0
  3  5  1  0  0  0  0
  4  2  1  0  0  0  0
  5  1  1  0  0  0  0
  6 15  1  0  0  0  0
  7  1  1  0  0  0  0
  8 13  1  0  0  0  0
  9  7  1  0  0  0  0
 10  6  1  0  0  0  0
 11  6  1  0  0  0  0
 12  2  1  0  0  0  0
 13  3  1  0  0  0  0
 14  4  1  0  0  0  0
 15 25  2  0  0  0  0
 16  9  1  0  0  0  0
 17 14  1  0  0  0  0
 18  9  2  0  0  0  0
 19 11  1  0  0  0  0
 20 10  1  0  0  0  0
 21 11  2  0  0  0  0
 22 10  2  0  0  0  0
 23 12  2  0  0  0  0
 24 26  2  0  0  0  0
 25 27  1  0  0  0  0
 26 16  1  0  0  0  0
 27 16  2  0  0  0  0
 28  8  1  0  0  0  0
 29 12  1  0  0  0  0
 30 28  1  0  0  0  0
 31 28  1  0  0  0  0
 32 29  1  0  0  0  0
  3  4  2  0  0  0  0
  8 17  1  0  0  0  0
 15 24  1  0  0  0  0
 20 19  1  0  0  0  0
  2  1  2  0  0  0  0
M  END
> <IDNUMBER>
F0526-0592

> <Chemical_Name>
methyl 2-[4-(2,5-dioxopyrrolidin-1-yl)benzamido]-6-(propan-2-yl)-4H,5H,6H,7H-thieno[2,3-c]pyridine-3-carboxylate hydrochloride

> <CAS>
1329920-44-6

> <PriceCoeff>
1.00

> <MW>
455.53

> <Description>
solid

> <FSP3>
0.39

> <clogP>
1.92

> <TPSA>
124.26

> <Acceptor>
5

> <Donor>
2

> <RotBonds>
6

> <HAC>
32

> <Collection>
General

$$$$
F5940-1789
  -ISIS-  06222321152D

 22 23  0  0  0  0  0  0  0  0999 V2000
    7.6042   -6.4625    0.0000 C   0  0  0  0  0  0  0  0  0  0  0  0
    8.3167   -6.8625    0.0000 N   0  0  3  0  0  0  0  0  0  0  0  0
    6.8917   -6.8792    0.0000 N   0  0  0  0  0  0  0  0  0  0  0  0
   11.2042  -10.1292    0.0000 C   0  0  0  0  0  0  0  0  0  0  0  0
    5.4500   -5.2500    0.0000 C   0  0  0  0  0  0  0  0  0  0  0  0
   11.2125  -10.9542    0.0000 C   0  0  0  0  0  0  0  0  0  0  0  0
    6.1667   -5.6542    0.0000 C   0  0  0  0  0  0  0  0  0  0  0  0
    6.1750   -6.4792    0.0000 C   0  0  0  0  0  0  0  0  0  0  0  0
    7.5917   -5.6375    0.0000 O   0  0  0  0  0  0  0  0  0  0  0  0
    4.7375   -5.6667    0.0000 C   0  0  0  0  0  0  0  0  0  0  0  0
    9.0292   -6.4417    0.0000 C   0  0  0  0  0  0  0  0  0  0  0  0
    8.3292   -7.6917    0.0000 C   0  0  0  0  0  0  0  0  0  0  0  0
    4.7417   -6.4917    0.0000 C   0  0  0  0  0  0  0  0  0  0  0  0
    5.4417   -4.4250    0.0000 Cl  0  0  0  0  0  0  0  0  0  0  0  0
    5.4625   -6.9000    0.0000 C   0  0  0  0  0  0  0  0  0  0  0  0
    4.0167   -5.2625    0.0000 Cl  0  0  0  0  0  0  0  0  0  0  0  0
    9.0417   -8.0917    0.0000 C   0  0  0  0  0  0  0  0  0  0  0  0
    9.7542   -6.8417    0.0000 C   0  0  0  0  0  0  0  0  0  0  0  0
   11.2000   -9.3042    0.0000 C   0  0  0  0  0  0  0  0  0  0  0  0
    9.7542   -7.6667    0.0000 C   0  0  3  0  0  0  0  0  0  0  0  0
   10.4792   -8.9000    0.0000 O   0  0  0  0  0  0  0  0  0  0  0  0
   10.4750   -8.0792    0.0000 C   0  0  0  0  0  0  0  0  0  0  0  0
  2  1  1  0  0  0  0
  3  1  1  0  0  0  0
  4 19  1  0  0  0  0
  5  7  1  0  0  0  0
  6  4  3  0  0  0  0
  7  8  2  0  0  0  0
  8  3  1  0  0  0  0
  9  1  2  0  0  0  0
 10 13  1  0  0  0  0
 11  2  1  0  0  0  0
 12  2  1  0  0  0  0
 13 15  2  0  0  0  0
 14  5  1  0  0  0  0
 15  8  1  0  0  0  0
 16 10  1  0  0  0  0
 17 12  1  0  0  0  0
 18 11  1  0  0  0  0
 19 21  1  0  0  0  0
 20 17  1  0  0  0  0
 21 22  1  0  0  0  0
 22 20  1  0  0  0  0
 20 18  1  0  0  0  0
  5 10  2  0  0  0  0
M  END
> <IDNUMBER>
F5940-1789

> <Chemical_Name>
N-(3,4-dichlorophenyl)-4-[(prop-2-yn-1-yloxy)methyl]piperidine-1-carboxamide

> <CAS>
1251559-76-8

> <PriceCoeff>
1.00

> <MW>
341.23

> <Description>
solid

> <FSP3>
0.44

> <clogP>
3.27

> <TPSA>
41.57

> <Acceptor>
2

> <Donor>
1

> <RotBonds>
6

> <HAC>
22

> <Collection>
General

$$$$
F3323-0578
  -ISIS-  06222321462D

 25 27  0  0  0  0  0  0  0  0999 V2000
    6.5750   -6.4542    0.0000 N   0  0  3  0  0  0  0  0  0  0  0  0
    5.7750   -6.2750    0.0000 C   0  0  0  0  0  0  0  0  0  0  0  0
    5.1292   -6.7792    0.0000 C   0  0  0  0  0  0  0  0  0  0  0  0
    7.0875   -5.8125    0.0000 C   0  0  0  0  0  0  0  0  0  0  0  0
    6.9292   -7.1917    0.0000 C   0  0  0  0  0  0  0  0  0  0  0  0
    8.4167   -5.2917    0.0000 C   0  0  0  0  0  0  0  0  0  0  0  0
    7.9042   -5.9375    0.0000 C   0  0  0  0  0  0  0  0  0  0  0  0
    5.7667   -8.1250    0.0000 O   0  0  0  0  0  0  0  0  0  0  0  0
    5.1250   -7.6042    0.0000 C   0  0  0  0  0  0  0  0  0  0  0  0
    5.5917   -5.4667    0.0000 O   0  0  0  0  0  0  0  0  0  0  0  0
    6.5667   -7.9417    0.0000 C   0  0  0  0  0  0  0  0  0  0  0  0
    9.2292   -5.4167    0.0000 C   0  0  0  0  0  0  0  0  0  0  0  0
    8.1125   -4.5292    0.0000 C   0  0  0  0  0  0  0  0  0  0  0  0
    7.7542   -7.1917    0.0000 O   0  0  0  0  0  0  0  0  0  0  0  0
    8.2042   -6.7042    0.0000 O   0  0  0  0  0  0  0  0  0  0  0  0
    9.7417   -4.7750    0.0000 C   0  0  0  0  0  0  0  0  0  0  0  0
    8.6250   -3.8792    0.0000 C   0  0  0  0  0  0  0  0  0  0  0  0
    4.4125   -6.3667    0.0000 C   0  0  0  0  0  0  0  0  0  0  0  0
    9.4417   -4.0042    0.0000 C   0  0  0  0  0  0  0  0  0  0  0  0
    8.3250   -3.1125    0.0000 Cl  0  0  0  0  0  0  0  0  0  0  0  0
    9.5292   -6.1792    0.0000 O   0  0  0  0  0  0  0  0  0  0  0  0
    4.4125   -8.0250    0.0000 C   0  0  0  0  0  0  0  0  0  0  0  0
   10.3417   -6.3042    0.0000 C   0  0  0  0  0  0  0  0  0  0  0  0
    3.7000   -6.7875    0.0000 C   0  0  0  0  0  0  0  0  0  0  0  0
    3.7000   -7.6125    0.0000 C   0  0  0  0  0  0  0  0  0  0  0  0
  2  1  1  0  0  0  0
  3  2  1  0  0  0  0
  4  1  1  0  0  0  0
  5  1  1  0  0  0  0
  6  7  1  0  0  0  0
  7  4  1  0  0  0  0
  8 11  1  0  0  0  0
  9  3  1  0  0  0  0
 10  2  2  0  0  0  0
 11  5  1  0  0  0  0
 12  6  2  0  0  0  0
 13  6  1  0  0  0  0
 14  5  2  0  0  0  0
 15  7  2  0  0  0  0
 16 12  1  0  0  0  0
 17 13  2  0  0  0  0
 18  3  2  0  0  0  0
 19 17  1  0  0  0  0
 20 17  1  0  0  0  0
 21 12  1  0  0  0  0
 22  9  2  0  0  0  0
 23 21  1  0  0  0  0
 24 18  1  0  0  0  0
 25 24  2  0  0  0  0
  9  8  1  0  0  0  0
 22 25  1  0  0  0  0
 16 19  2  0  0  0  0
M  END
> <IDNUMBER>
F3323-0578

> <Chemical_Name>
4-[2-(5-chloro-2-methoxyphenyl)-2-oxoethyl]-2,3,4,5-tetrahydro-1,4-benzoxazepine-3,5-dione

> <CAS>
903584-87-2

> <PriceCoeff>
1.00

> <MW>
359.76

> <Description>
solid

> <FSP3>
0.17

> <clogP>
3.52

> <TPSA>
72.91

> <Acceptor>
5

> <Donor>
0

> <RotBonds>
4

> <HAC>
25

> <Collection>
General

$$$$
F6195-1924
  -ISIS-  06222321462D

 28 31  0  0  0  0  0  0  0  0999 V2000
   -1.1583    4.6417    0.0000 C   0  0  0  0  0  0  0  0  0  0  0  0
   -2.4333    4.2167    0.0000 C   0  0  0  0  0  0  0  0  0  0  0  0
   -1.6500    5.3042    0.0000 N   0  0  0  0  0  0  0  0  0  0  0  0
   -4.5708    3.8000    0.0000 C   0  0  0  0  0  0  0  0  0  0  0  0
   -0.3250    4.6500    0.0000 N   0  0  0  0  0  0  0  0  0  0  0  0
   -1.6375    3.9708    0.0000 S   0  0  0  0  0  0  0  0  0  0  0  0
   -2.4458    5.0417    0.0000 C   0  0  0  0  0  0  0  0  0  0  0  0
   -3.8583    4.2125    0.0000 N   0  0  3  0  0  0  0  0  0  0  0  0
    0.0792    5.3542    0.0000 C   0  0  0  0  0  0  0  0  0  0  0  0
   -3.1583    3.8083    0.0000 C   0  0  0  0  0  0  0  0  0  0  0  0
    0.9125    5.3667    0.0000 C   0  0  0  0  0  0  0  0  0  0  0  0
   -4.5833    2.9833    0.0000 N   0  0  0  0  0  0  0  0  0  0  0  0
   -3.1583    5.4542    0.0000 C   0  0  0  0  0  0  0  0  0  0  0  0
   -6.0042    1.3375    0.0000 C   0  0  0  0  0  0  0  0  0  0  0  0
   -5.3000    1.7458    0.0000 C   0  0  0  0  0  0  0  0  0  0  0  0
    1.4042    4.7042    0.0000 O   0  0  0  0  0  0  0  0  0  0  0  0
   -3.8625    5.0417    0.0000 C   0  0  0  0  0  0  0  0  0  0  0  0
   -5.2958    2.5833    0.0000 C   0  0  0  0  0  0  0  0  0  0  0  0
   -5.2958    4.2125    0.0000 O   0  0  0  0  0  0  0  0  0  0  0  0
   -6.7167    1.7458    0.0000 C   0  0  0  0  0  0  0  0  0  0  0  0
   -0.3333    6.0792    0.0000 O   0  0  0  0  0  0  0  0  0  0  0  0
    1.3917    6.0417    0.0000 C   0  0  0  0  0  0  0  0  0  0  0  0
    2.1917    4.9667    0.0000 C   0  0  0  0  0  0  0  0  0  0  0  0
    2.1792    5.7917    0.0000 C   0  0  0  0  0  0  0  0  0  0  0  0
   -6.7167    2.5708    0.0000 C   0  0  0  0  0  0  0  0  0  0  0  0
   -6.0042    0.5083    0.0000 Cl  0  0  0  0  0  0  0  0  0  0  0  0
   -6.0042    2.9833    0.0000 C   0  0  0  0  0  0  0  0  0  0  0  0
   -7.4375    1.3250    0.0000 Cl  0  0  0  0  0  0  0  0  0  0  0  0
  2  6  1  0  0  0  0
  3  1  2  0  0  0  0
  4  8  1  0  0  0  0
  5  1  1  0  0  0  0
  6  1  1  0  0  0  0
  7  3  1  0  0  0  0
  8 10  1  0  0  0  0
  9  5  1  0  0  0  0
 10  2  1  0  0  0  0
 11  9  1  0  0  0  0
 12  4  1  0  0  0  0
 13  7  1  0  0  0  0
 14 15  1  0  0  0  0
 15 18  2  0  0  0  0
 16 11  1  0  0  0  0
 17 13  1  0  0  0  0
 18 12  1  0  0  0  0
 19  4  2  0  0  0  0
 20 25  1  0  0  0  0
 21  9  2  0  0  0  0
 22 11  2  0  0  0  0
 23 16  1  0  0  0  0
 24 22  1  0  0  0  0
 25 27  2  0  0  0  0
 26 14  1  0  0  0  0
 27 18  1  0  0  0  0
 28 20  1  0  0  0  0
  7  2  2  0  0  0  0
 17  8  1  0  0  0  0
 23 24  2  0  0  0  0
 20 14  2  0  0  0  0
M  END
> <IDNUMBER>
F6195-1924

> <Chemical_Name>
N-(3,4-dichlorophenyl)-2-(furan-2-amido)-4H,5H,6H,7H-[1,3]thiazolo[5,4-c]pyridine-5-carboxamide

> <CAS>
1351659-10-3

> <PriceCoeff>
1.00

> <MW>
437.30

> <Description>
solid

> <FSP3>
0.17

> <clogP>
3.14

> <TPSA>
115.71

> <Acceptor>
4

> <Donor>
2

> <RotBonds>
4

> <HAC>
28

> <Collection>
General

$$$$
F1300-0180
  -ISIS-  06222321142D

 25 27  0  0  0  0  0  0  0  0999 V2000
   -1.1708    2.9833    0.0000 C   0  0  0  0  0  0  0  0  0  0  0  0
    0.0667    0.8333    0.0000 N   0  0  3  0  0  0  0  0  0  0  0  0
   -1.6583    2.3083    0.0000 N   0  0  0  0  0  0  0  0  0  0  0  0
   -1.6583    3.6458    0.0000 S   0  0  0  0  0  0  0  0  0  0  0  0
   -0.3458    2.9833    0.0000 N   0  0  0  0  0  0  0  0  0  0  0  0
   -0.2708    0.0958    0.0000 C   0  0  0  0  0  0  0  0  0  0  0  0
    0.8875    0.7583    0.0000 C   0  0  0  0  0  0  0  0  0  0  0  0
   -2.4458    3.3958    0.0000 C   0  0  0  0  0  0  0  0  0  0  0  0
   -2.4458    2.5625    0.0000 C   0  0  0  0  0  0  0  0  0  0  0  0
    0.0667    2.2708    0.0000 C   0  0  0  0  0  0  0  0  0  0  0  0
   -0.3500    1.5458    0.0000 C   0  0  0  0  0  0  0  0  0  0  0  0
   -4.5833    3.7958    0.0000 C   0  0  0  0  0  0  0  0  0  0  0  0
   -3.8625    3.3958    0.0000 C   0  0  0  0  0  0  0  0  0  0  0  0
   -3.1583    3.8083    0.0000 C   0  0  0  0  0  0  0  0  0  0  0  0
    1.0542   -0.0417    0.0000 C   0  0  0  0  0  0  0  0  0  0  0  0
    0.3500   -0.4542    0.0000 C   0  0  0  0  0  0  0  0  0  0  0  0
    1.4292    1.3625    0.0000 O   0  0  0  0  0  0  0  0  0  0  0  0
   -1.0625   -0.0792    0.0000 O   0  0  0  0  0  0  0  0  0  0  0  0
    0.8792    2.2708    0.0000 O   0  0  0  0  0  0  0  0  0  0  0  0
   -5.2833    3.3833    0.0000 O   0  0  0  0  0  0  0  0  0  0  0  0
   -3.1583    2.1583    0.0000 C   0  0  0  0  0  0  0  0  0  0  0  0
   -3.8625    2.5625    0.0000 C   0  0  0  0  0  0  0  0  0  0  0  0
   -4.5833    4.6250    0.0000 O   0  0  0  0  0  0  0  0  0  0  0  0
   -3.8708    5.0417    0.0000 C   0  0  0  0  0  0  0  0  0  0  0  0
   -3.8708    5.8542    0.0000 C   0  0  0  0  0  0  0  0  0  0  0  0
  2 11  1  0  0  0  0
  3  1  2  0  0  0  0
  4  1  1  0  0  0  0
  5  1  1  0  0  0  0
  6  2  1  0  0  0  0
  7  2  1  0  0  0  0
  8  4  1  0  0  0  0
  9  3  1  0  0  0  0
 10  5  1  0  0  0  0
 11 10  1  0  0  0  0
 12 13  1  0  0  0  0
 13 14  2  0  0  0  0
 14  8  1  0  0  0  0
 15  7  1  0  0  0  0
 16  6  1  0  0  0  0
 17  7  2  0  0  0  0
 18  6  2  0  0  0  0
 19 10  2  0  0  0  0
 20 12  2  0  0  0  0
 21  9  1  0  0  0  0
 22 21  2  0  0  0  0
 23 12  1  0  0  0  0
 24 23  1  0  0  0  0
 25 24  1  0  0  0  0
  8  9  2  0  0  0  0
 13 22  1  0  0  0  0
 15 16  1  0  0  0  0
M  END
> <IDNUMBER>
F1300-0180

> <Chemical_Name>
ethyl 2-[2-(2,5-dioxopyrrolidin-1-yl)acetamido]-1,3-benzothiazole-6-carboxylate

> <CAS>
296769-55-6

> <PriceCoeff>
1.00

> <MW>
361.37

> <Description>
solid

> <FSP3>
0.31

> <clogP>
2.02

> <TPSA>
133.91

> <Acceptor>
6

> <Donor>
1

> <RotBonds>
6

> <HAC>
25

> <Collection>
General

$$$$
F6523-4063
  -ISIS-  06222321472D

 28 31  0  0  0  0  0  0  0  0999 V2000
    4.8625   -1.2292    0.0000 C   0  0  0  0  0  0  0  0  0  0  0  0
    6.5917   -1.2292    0.0000 C   0  0  0  0  0  0  0  0  0  0  0  0
    6.6000   -2.2250    0.0000 C   0  0  0  0  0  0  0  0  0  0  0  0
    5.7250   -0.7292    0.0000 C   0  0  0  0  0  0  0  0  0  0  0  0
    4.8667   -2.2375    0.0000 C   0  0  0  0  0  0  0  0  0  0  0  0
    5.7292   -2.7250    0.0000 N   0  0  3  0  0  0  0  0  0  0  0  0
    3.9917   -0.7375    0.0000 C   0  0  0  0  0  0  0  0  0  0  0  0
    0.5167    2.2500    0.0000 N   0  0  0  0  0  0  0  0  0  0  0  0
    2.2500    2.2583    0.0000 C   0  0  0  0  0  0  0  0  0  0  0  0
    7.4667   -2.7250    0.0000 N   0  0  0  0  0  0  0  0  0  0  0  0
    0.5167    3.2583    0.0000 N   0  0  0  0  0  0  0  0  0  0  0  0
    1.3792    1.7583    0.0000 C   0  0  0  0  0  0  0  0  0  0  0  0
    2.2500    3.2500    0.0000 C   0  0  0  0  0  0  0  0  0  0  0  0
    1.3792    3.7583    0.0000 C   0  0  0  0  0  0  0  0  0  0  0  0
    3.9875    0.2708    0.0000 N   0  0  0  0  0  0  0  0  0  0  0  0
    7.4625   -0.7250    0.0000 C   0  0  0  0  0  0  0  0  0  0  0  0
    3.1125    1.7583    0.0000 C   0  0  0  0  0  0  0  0  0  0  0  0
    5.7250    0.2708    0.0000 O   0  0  0  0  0  0  0  0  0  0  0  0
    3.1292   -1.2375    0.0000 O   0  0  0  0  0  0  0  0  0  0  0  0
    3.1167    0.7625    0.0000 C   0  0  3  0  0  0  0  0  0  0  0  0
    1.3792    4.7500    0.0000 O   0  0  0  0  0  0  0  0  0  0  0  0
    1.3875    0.7583    0.0000 C   0  0  0  0  0  0  0  0  0  0  0  0
    8.3292   -2.2167    0.0000 C   0  0  0  0  0  0  0  0  0  0  0  0
    8.3250   -1.2167    0.0000 C   0  0  0  0  0  0  0  0  0  0  0  0
    5.7375   -3.7250    0.0000 C   0  0  0  0  0  0  0  0  0  0  0  0
    2.2542    0.2583    0.0000 C   0  0  0  0  0  0  0  0  0  0  0  0
    9.2000   -2.7167    0.0000 C   0  0  0  0  0  0  0  0  0  0  0  0
    4.8750   -4.2292    0.0000 C   0  0  0  0  0  0  0  0  0  0  0  0
  2  4  1  0  0  0  0
  3  6  1  0  0  0  0
  4  1  1  0  0  0  0
  5  1  2  0  0  0  0
  6  5  1  0  0  0  0
  7  1  1  0  0  0  0
  8 12  2  0  0  0  0
  9 17  1  0  0  0  0
 10  3  1  0  0  0  0
 11  8  1  0  0  0  0
 12 22  1  0  0  0  0
 13  9  2  0  0  0  0
 14 13  1  0  0  0  0
 15  7  1  0  0  0  0
 16  2  1  0  0  0  0
 17 20  1  0  0  0  0
 18  4  2  0  0  0  0
 19  7  2  0  0  0  0
 20 15  1  0  0  0  0
 21 14  2  0  0  0  0
 22 26  1  0  0  0  0
 23 10  2  0  0  0  0
 24 16  2  0  0  0  0
 25  6  1  0  0  0  0
 26 20  1  0  0  0  0
 27 23  1  0  0  0  0
 28 25  1  0  0  0  0
  3  2  2  0  0  0  0
 24 23  1  0  0  0  0
 12  9  1  0  0  0  0
 11 14  1  0  0  0  0
M  END
> <IDNUMBER>
F6523-4063

> <Chemical_Name>
1-ethyl-7-methyl-4-oxo-N-(3-oxo-2,3,5,6,7,8-hexahydrocinnolin-6-yl)-1,4-dihydro-1,8-naphthyridine-3-carboxamide

> <CAS>
2034276-52-1

> <PriceCoeff>
1.00

> <MW>
379.41

> <Description>
solid

> <FSP3>
0.35

> <clogP>
-0.90

> <TPSA>
103.76

> <Acceptor>
5

> <Donor>
5

> <RotBonds>
3

> <HAC>
28

> <Collection>
General

> <Reference_compound>
CHEMBL2228607

> <Similarity>
0.8120

$$$$
F6663-4473
  -ISIS-  06222321162D

 21 23  0  0  0  0  0  0  0  0999 V2000
   -2.4708    3.5708    0.0000 N   0  0  3  0  0  0  0  0  0  0  0  0
   -3.1833    3.9833    0.0000 C   0  0  0  0  0  0  0  0  0  0  0  0
   -1.0375    2.7458    0.0000 C   0  0  3  0  0  0  0  0  0  0  0  0
   -3.8958    3.5708    0.0000 C   0  0  0  0  0  0  0  0  0  0  0  0
   -6.0292    2.3333    0.0000 C   0  0  0  0  0  0  0  0  0  0  0  0
   -1.0375    3.5708    0.0000 C   0  0  0  0  0  0  0  0  0  0  0  0
   -1.7500    2.3333    0.0000 C   0  0  0  0  0  0  0  0  0  0  0  0
   -3.8958    2.7458    0.0000 C   0  0  0  0  0  0  0  0  0  0  0  0
   -6.0292    1.5083    0.0000 C   0  0  0  0  0  0  0  0  0  0  0  0
   -6.8167    2.5875    0.0000 O   0  0  0  0  0  0  0  0  0  0  0  0
   -1.7500    3.9833    0.0000 C   0  0  0  0  0  0  0  0  0  0  0  0
   -2.4708    2.7458    0.0000 C   0  0  0  0  0  0  0  0  0  0  0  0
   -6.8167    1.2583    0.0000 O   0  0  0  0  0  0  0  0  0  0  0  0
   -7.3042    1.9208    0.0000 C   0  0  0  0  0  0  0  0  0  0  0  0
   -5.3333    2.7458    0.0000 C   0  0  0  0  0  0  0  0  0  0  0  0
   -3.1833    4.8042    0.0000 O   0  0  0  0  0  0  0  0  0  0  0  0
   -4.6083    2.3333    0.0000 C   0  0  0  0  0  0  0  0  0  0  0  0
   -5.3333    1.0958    0.0000 C   0  0  0  0  0  0  0  0  0  0  0  0
   -0.7583    1.9708    0.0000 F   0  0  0  0  0  0  0  0  0  0  0  0
   -0.2250    2.8958    0.0000 F   0  0  0  0  0  0  0  0  0  0  0  0
   -4.6083    1.5083    0.0000 C   0  0  0  0  0  0  0  0  0  0  0  0
  2  1  1  0  0  0  0
  3  7  1  0  0  0  0
  4  2  1  0  0  0  0
  5 15  1  0  0  0  0
  6 11  1  0  0  0  0
  7 12  1  0  0  0  0
  8  4  2  0  0  0  0
  9 18  1  0  0  0  0
 10  5  1  0  0  0  0
 11  1  1  0  0  0  0
 12  1  1  0  0  0  0
 13  9  1  0  0  0  0
 14 10  1  0  0  0  0
 15 17  2  0  0  0  0
 16  2  2  0  0  0  0
 17  8  1  0  0  0  0
 18 21  2  0  0  0  0
 19  3  1  0  0  0  0
 20  3  1  0  0  0  0
 21 17  1  0  0  0  0
  6  3  1  0  0  0  0
  5  9  2  0  0  0  0
 13 14  1  0  0  0  0
M  END
> <IDNUMBER>
F6663-4473

> <Chemical_Name>
(2E)-3-(2H-1,3-benzodioxol-5-yl)-1-(4,4-difluoropiperidin-1-yl)prop-2-en-1-one

> <CAS>
2348614-10-6

> <PriceCoeff>
1.00

> <MW>
295.28

> <Description>
solid

> <FSP3>
0.40

> <clogP>
2.24

> <TPSA>
38.77

> <Acceptor>
3

> <Donor>
0

> <RotBonds>
3

> <HAC>
21

> <Collection>
General

> <Reference_compound>
CHEMBL43185

> <Similarity>
0.8340

$$$$
F3110-2246
  -ISIS-  06222321152D

 13 14  0  0  0  0  0  0  0  0999 V2000
    2.7625   -1.9167    0.0000 C   0  0  0  0  0  0  0  0  0  0  0  0
    3.4792   -2.3292    0.0000 C   0  0  0  0  0  0  0  0  0  0  0  0
    2.0417   -2.3292    0.0000 C   0  0  0  0  0  0  0  0  0  0  0  0
    3.4792   -3.1542    0.0000 O   0  0  0  0  0  0  0  0  0  0  0  0
    1.3292   -1.9167    0.0000 C   0  0  0  0  0  0  0  0  0  0  0  0
    4.1917   -1.9167    0.0000 O   0  0  0  0  0  0  0  0  0  0  0  0
    2.7625   -1.0917    0.0000 C   0  0  0  0  0  0  0  0  0  0  0  0
    2.0500   -3.1542    0.0000 C   0  0  0  0  0  0  0  0  0  0  0  0
    2.0417   -0.6792    0.0000 C   0  0  0  0  0  0  0  0  0  0  0  0
    1.3292   -1.0917    0.0000 C   0  0  0  0  0  0  0  0  0  0  0  0
    0.6167   -2.3292    0.0000 C   0  0  0  0  0  0  0  0  0  0  0  0
    1.3417   -3.5667    0.0000 C   0  0  0  0  0  0  0  0  0  0  0  0
    0.6167   -3.1542    0.0000 C   0  0  0  0  0  0  0  0  0  0  0  0
  2  1  1  0  0  0  0
  3  1  2  0  0  0  0
  4  2  2  0  0  0  0
  5  3  1  0  0  0  0
  6  2  1  0  0  0  0
  7  1  1  0  0  0  0
  8  3  1  0  0  0  0
  9  7  2  0  0  0  0
 10  9  1  0  0  0  0
 11  5  1  0  0  0  0
 12  8  2  0  0  0  0
 13 12  1  0  0  0  0
  5 10  2  0  0  0  0
 11 13  2  0  0  0  0
M  END
> <IDNUMBER>
F3110-2246

> <Chemical_Name>
naphthalene-1-carboxylic acid

> <CAS>
86-55-5

> <PriceCoeff>
1.00

> <MW>
172.18

> <Description>
solid

> <FSP3>
0.00

> <clogP>
3.06

> <TPSA>
37.30

> <Acceptor>
2

> <Donor>
0

> <RotBonds>
1

> <HAC>
13

> <Collection>
General

> <Reference_compound>
PRI1826

> <Similarity>
0.9020

$$$$
F3323-0632
  -ISIS-  06222321152D

 26 28  0  0  0  0  0  0  0  0999 V2000
    6.5750   -6.4542    0.0000 N   0  0  3  0  0  0  0  0  0  0  0  0
    5.7750   -6.2750    0.0000 C   0  0  0  0  0  0  0  0  0  0  0  0
    5.1292   -6.7792    0.0000 C   0  0  0  0  0  0  0  0  0  0  0  0
    7.0875   -5.8125    0.0000 C   0  0  0  0  0  0  0  0  0  0  0  0
    6.9292   -7.1917    0.0000 C   0  0  0  0  0  0  0  0  0  0  0  0
    8.4167   -5.2917    0.0000 C   0  0  0  0  0  0  0  0  0  0  0  0
    7.9042   -5.9375    0.0000 C   0  0  0  0  0  0  0  0  0  0  0  0
    5.7667   -8.1250    0.0000 O   0  0  0  0  0  0  0  0  0  0  0  0
    5.1250   -7.6042    0.0000 C   0  0  0  0  0  0  0  0  0  0  0  0
    5.5917   -5.4667    0.0000 O   0  0  0  0  0  0  0  0  0  0  0  0
    6.5667   -7.9417    0.0000 C   0  0  0  0  0  0  0  0  0  0  0  0
    9.2292   -5.4167    0.0000 C   0  0  0  0  0  0  0  0  0  0  0  0
    8.1125   -4.5292    0.0000 C   0  0  0  0  0  0  0  0  0  0  0  0
    7.7542   -7.1917    0.0000 O   0  0  0  0  0  0  0  0  0  0  0  0
    8.2042   -6.7042    0.0000 O   0  0  0  0  0  0  0  0  0  0  0  0
    9.7417   -4.7750    0.0000 C   0  0  0  0  0  0  0  0  0  0  0  0
    8.6250   -3.8792    0.0000 C   0  0  0  0  0  0  0  0  0  0  0  0
    4.4125   -6.3667    0.0000 C   0  0  0  0  0  0  0  0  0  0  0  0
    9.4417   -4.0042    0.0000 C   0  0  0  0  0  0  0  0  0  0  0  0
    8.3250   -3.1125    0.0000 F   0  0  0  0  0  0  0  0  0  0  0  0
    9.5292   -6.1792    0.0000 O   0  0  0  0  0  0  0  0  0  0  0  0
    4.4125   -8.0250    0.0000 C   0  0  0  0  0  0  0  0  0  0  0  0
   10.3417   -6.3042    0.0000 C   0  0  0  0  0  0  0  0  0  0  0  0
    3.7000   -6.7875    0.0000 C   0  0  0  0  0  0  0  0  0  0  0  0
   10.8625   -5.6667    0.0000 C   0  0  0  0  0  0  0  0  0  0  0  0
    3.7000   -7.6125    0.0000 C   0  0  0  0  0  0  0  0  0  0  0  0
  2  1  1  0  0  0  0
  3  2  1  0  0  0  0
  4  1  1  0  0  0  0
  5  1  1  0  0  0  0
  6  7  1  0  0  0  0
  7  4  1  0  0  0  0
  8 11  1  0  0  0  0
  9  3  1  0  0  0  0
 10  2  2  0  0  0  0
 11  5  1  0  0  0  0
 12  6  2  0  0  0  0
 13  6  1  0  0  0  0
 14  5  2  0  0  0  0
 15  7  2  0  0  0  0
 16 12  1  0  0  0  0
 17 13  2  0  0  0  0
 18  3  2  0  0  0  0
 19 17  1  0  0  0  0
 20 17  1  0  0  0  0
 21 12  1  0  0  0  0
 22  9  2  0  0  0  0
 23 21  1  0  0  0  0
 24 18  1  0  0  0  0
 25 23  1  0  0  0  0
 26 24  2  0  0  0  0
  9  8  1  0  0  0  0
 22 26  1  0  0  0  0
 16 19  2  0  0  0  0
M  END
> <IDNUMBER>
F3323-0632

> <Chemical_Name>
4-[2-(2-ethoxy-5-fluorophenyl)-2-oxoethyl]-2,3,4,5-tetrahydro-1,4-benzoxazepine-3,5-dione

> <CAS>
903858-01-5

> <PriceCoeff>
1.00

> <MW>
357.33

> <Description>
solid

> <FSP3>
0.21

> <clogP>
3.48

> <TPSA>
72.91

> <Acceptor>
5

> <Donor>
0

> <RotBonds>
5

> <HAC>
26

> <Collection>
General

$$$$
F2019-0479
  -ISIS-  06222304352D

 28 29  0  0  0  0  0  0  0  0999 V2000
   -3.1583    2.9833    0.0000 C   0  0  0  0  0  0  0  0  0  0  0  0
   -0.2958    2.9833    0.0000 N   0  0  3  0  0  0  0  0  0  0  0  0
   -3.9125    2.6458    0.0000 N   0  0  0  0  0  0  0  0  0  0  0  0
   -2.4375    2.5625    0.0000 N   0  0  3  0  0  0  0  0  0  0  0  0
   -3.2458    3.8083    0.0000 S   0  0  0  0  0  0  0  0  0  0  0  0
   -1.7250    2.9833    0.0000 C   0  0  0  0  0  0  0  0  0  0  0  0
   -1.0125    2.5625    0.0000 C   0  0  0  0  0  0  0  0  0  0  0  0
   -0.2125    3.8000    0.0000 C   0  0  0  0  0  0  0  0  0  0  0  0
    0.4542    2.6458    0.0000 C   0  0  0  0  0  0  0  0  0  0  0  0
   -4.0583    3.9708    0.0000 C   0  0  0  0  0  0  0  0  0  0  0  0
   -4.4708    3.2583    0.0000 C   0  0  0  0  0  0  0  0  0  0  0  0
   -4.4708    4.6667    0.0000 C   0  0  0  0  0  0  0  0  0  0  0  0
   -1.7250    3.8000    0.0000 O   0  0  0  0  0  0  0  0  0  0  0  0
    0.5917    3.9708    0.0000 C   0  0  0  0  0  0  0  0  0  0  0  0
    1.0125    3.2583    0.0000 C   0  0  0  0  0  0  0  0  0  0  0  0
   -0.8125    4.3417    0.0000 O   0  0  0  0  0  0  0  0  0  0  0  0
    0.6292    1.8333    0.0000 O   0  0  0  0  0  0  0  0  0  0  0  0
   -5.2833    3.2458    0.0000 C   0  0  0  0  0  0  0  0  0  0  0  0
   -5.2958    4.6667    0.0000 C   0  0  0  0  0  0  0  0  0  0  0  0
   -2.4375    1.7375    0.0000 C   0  0  0  0  0  0  0  0  0  0  0  0
   -3.1583    1.3250    0.0000 C   0  0  0  0  0  0  0  0  0  0  0  0
   -3.8708    0.0875    0.0000 N   0  0  3  0  0  0  0  0  0  0  0  0
   -5.6958    3.9583    0.0000 C   0  0  0  0  0  0  0  0  0  0  0  0
   -5.7208    5.3917    0.0000 F   0  0  0  0  0  0  0  0  0  0  0  0
   -3.1583    0.5000    0.0000 C   0  0  0  0  0  0  0  0  0  0  0  0
   -4.5833    0.5000    0.0000 C   0  0  0  0  0  0  0  0  0  0  0  0
   -3.8708   -0.7375    0.0000 C   0  0  0  0  0  0  0  0  0  0  0  0
    2.4000    2.4792    0.0000 Cl  0  0  0  0  0  0  0  0  0  0  0  0
  3  1  2  0  0  0  0
  4  1  1  0  0  0  0
  5  1  1  0  0  0  0
  6  4  1  0  0  0  0
  7  6  1  0  0  0  0
  8  2  1  0  0  0  0
  9  2  1  0  0  0  0
 10  5  1  0  0  0  0
 11  3  1  0  0  0  0
 12 10  1  0  0  0  0
 13  6  2  0  0  0  0
 14  8  1  0  0  0  0
 15  9  1  0  0  0  0
 16  8  2  0  0  0  0
 17  9  2  0  0  0  0
 18 11  1  0  0  0  0
 19 12  2  0  0  0  0
 20  4  1  0  0  0  0
 21 20  1  0  0  0  0
 22 25  1  0  0  0  0
 23 18  2  0  0  0  0
 24 19  1  0  0  0  0
 25 21  1  0  0  0  0
 26 22  1  0  0  0  0
 27 22  1  0  0  0  0
 10 11  2  0  0  0  0
 23 19  1  0  0  0  0
 14 15  1  0  0  0  0
  2  7  1  0  0  0  0
M  END
> <IDNUMBER>
F2019-0479

> <Chemical_Name>
N-[3-(dimethylamino)propyl]-2-(2,5-dioxopyrrolidin-1-yl)-N-(6-fluoro-1,3-benzothiazol-2-yl)acetamide hydrochloride

> <CAS>
1216857-82-7

> <PriceCoeff>
1.00

> <MW>
392.45

> <Description>
solid

> <FSP3>
0.44

> <clogP>
1.72

> <TPSA>
102.06

> <Acceptor>
4

> <Donor>
1

> <RotBonds>
8

> <HAC>
27

> <Collection>
General

$$$$
F2019-1368
  -ISIS-  06222304352D

 28 29  0  0  0  0  0  0  0  0999 V2000
   -3.1583    2.9833    0.0000 C   0  0  0  0  0  0  0  0  0  0  0  0
   -3.9125    2.6458    0.0000 N   0  0  0  0  0  0  0  0  0  0  0  0
   -0.2958    2.9833    0.0000 N   0  0  3  0  0  0  0  0  0  0  0  0
   -2.4375    2.5625    0.0000 N   0  0  3  0  0  0  0  0  0  0  0  0
   -3.2458    3.8083    0.0000 S   0  0  0  0  0  0  0  0  0  0  0  0
   -4.4708    3.2708    0.0000 C   0  0  0  0  0  0  0  0  0  0  0  0
   -1.7250    2.9833    0.0000 C   0  0  0  0  0  0  0  0  0  0  0  0
   -1.0125    2.5625    0.0000 C   0  0  0  0  0  0  0  0  0  0  0  0
   -0.2125    3.8000    0.0000 C   0  0  0  0  0  0  0  0  0  0  0  0
    0.4542    2.6458    0.0000 C   0  0  0  0  0  0  0  0  0  0  0  0
   -4.0583    3.9708    0.0000 C   0  0  0  0  0  0  0  0  0  0  0  0
   -5.2875    3.2583    0.0000 C   0  0  0  0  0  0  0  0  0  0  0  0
   -1.7250    3.8000    0.0000 O   0  0  0  0  0  0  0  0  0  0  0  0
    0.5917    3.9708    0.0000 C   0  0  0  0  0  0  0  0  0  0  0  0
    1.0125    3.2583    0.0000 C   0  0  0  0  0  0  0  0  0  0  0  0
   -0.8125    4.3417    0.0000 O   0  0  0  0  0  0  0  0  0  0  0  0
    0.6292    1.8333    0.0000 O   0  0  0  0  0  0  0  0  0  0  0  0
   -2.4375    1.7375    0.0000 C   0  0  0  0  0  0  0  0  0  0  0  0
   -3.1583    1.3250    0.0000 C   0  0  0  0  0  0  0  0  0  0  0  0
   -3.8708    0.0875    0.0000 N   0  0  3  0  0  0  0  0  0  0  0  0
   -5.7083    2.5458    0.0000 F   0  0  0  0  0  0  0  0  0  0  0  0
   -4.4583    4.6792    0.0000 C   0  0  0  0  0  0  0  0  0  0  0  0
   -3.1583    0.5000    0.0000 C   0  0  0  0  0  0  0  0  0  0  0  0
   -5.2833    4.6792    0.0000 C   0  0  0  0  0  0  0  0  0  0  0  0
   -5.6958    3.9708    0.0000 C   0  0  0  0  0  0  0  0  0  0  0  0
   -4.5833    0.5000    0.0000 C   0  0  0  0  0  0  0  0  0  0  0  0
   -3.8708   -0.7375    0.0000 C   0  0  0  0  0  0  0  0  0  0  0  0
    2.4000    2.0667    0.0000 Cl  0  0  0  0  0  0  0  0  0  0  0  0
  3  8  1  0  0  0  0
  4  1  1  0  0  0  0
  5  1  1  0  0  0  0
  6  2  1  0  0  0  0
  7  4  1  0  0  0  0
  8  7  1  0  0  0  0
  9  3  1  0  0  0  0
 10  3  1  0  0  0  0
 11  5  1  0  0  0  0
 12  6  1  0  0  0  0
 13  7  2  0  0  0  0
 14  9  1  0  0  0  0
 15 10  1  0  0  0  0
 16  9  2  0  0  0  0
 17 10  2  0  0  0  0
 18  4  1  0  0  0  0
 19 18  1  0  0  0  0
 20 23  1  0  0  0  0
 21 12  1  0  0  0  0
 22 11  1  0  0  0  0
 23 19  1  0  0  0  0
 24 22  2  0  0  0  0
 25 12  2  0  0  0  0
 26 20  1  0  0  0  0
 27 20  1  0  0  0  0
 11  6  2  0  0  0  0
 25 24  1  0  0  0  0
 14 15  1  0  0  0  0
  2  1  2  0  0  0  0
M  END
> <IDNUMBER>
F2019-1368

> <Chemical_Name>
N-[3-(dimethylamino)propyl]-2-(2,5-dioxopyrrolidin-1-yl)-N-(4-fluoro-1,3-benzothiazol-2-yl)acetamide hydrochloride

> <CAS>
1216953-96-6

> <PriceCoeff>
1.00

> <MW>
392.45

> <Description>
solid

> <FSP3>
0.44

> <clogP>
1.72

> <TPSA>
102.06

> <Acceptor>
4

> <Donor>
1

> <RotBonds>
8

> <HAC>
27

> <Collection>
General

$$$$
F2496-3074
  -ISIS-  06222321462D

 24 26  0  0  0  0  0  0  0  0999 V2000
   -3.5708    4.5542    0.0000 N   0  0  3  0  0  0  0  0  0  0  0  0
   -3.7750    2.1458    0.0000 C   0  0  0  0  0  0  0  0  0  0  0  0
   -3.1458    2.6875    0.0000 C   0  0  0  0  0  0  0  0  0  0  0  0
   -2.6208    1.4708    0.0000 N   0  0  0  0  0  0  0  0  0  0  0  0
   -4.3958    4.5792    0.0000 C   0  0  0  0  0  0  0  0  0  0  0  0
   -3.2833    5.3167    0.0000 C   0  0  0  0  0  0  0  0  0  0  0  0
   -3.4458    1.3833    0.0000 O   0  0  0  0  0  0  0  0  0  0  0  0
   -4.5833    2.3333    0.0000 C   0  0  0  0  0  0  0  0  0  0  0  0
   -2.4458    2.2833    0.0000 C   0  0  0  0  0  0  0  0  0  0  0  0
   -3.1083    3.8833    0.0000 C   0  0  0  0  0  0  0  0  0  0  0  0
   -2.2833    3.9333    0.0000 C   0  0  0  0  0  0  0  0  0  0  0  0
   -5.2833    1.9000    0.0000 C   0  0  0  0  0  0  0  0  0  0  0  0
   -4.6250    5.3667    0.0000 C   0  0  0  0  0  0  0  0  0  0  0  0
   -3.9375    5.8292    0.0000 C   0  0  0  0  0  0  0  0  0  0  0  0
   -2.4875    5.5417    0.0000 O   0  0  0  0  0  0  0  0  0  0  0  0
   -4.8958    3.9333    0.0000 O   0  0  0  0  0  0  0  0  0  0  0  0
   -1.9208    4.6667    0.0000 O   0  0  0  0  0  0  0  0  0  0  0  0
   -1.6083    3.4583    0.0000 O   0  0  0  0  0  0  0  0  0  0  0  0
   -1.6833    2.6333    0.0000 C   0  0  0  0  0  0  0  0  0  0  0  0
   -5.2708    1.0833    0.0000 F   0  0  0  0  0  0  0  0  0  0  0  0
   -4.5958    3.1458    0.0000 C   0  0  0  0  0  0  0  0  0  0  0  0
   -6.0000    2.3083    0.0000 C   0  0  0  0  0  0  0  0  0  0  0  0
   -5.3083    3.5458    0.0000 C   0  0  0  0  0  0  0  0  0  0  0  0
   -6.0042    3.1250    0.0000 C   0  0  0  0  0  0  0  0  0  0  0  0
  2  3  2  0  0  0  0
  3  9  1  0  0  0  0
  4  9  2  0  0  0  0
  5  1  1  0  0  0  0
  6  1  1  0  0  0  0
  7  4  1  0  0  0  0
  8  2  1  0  0  0  0
  9 19  1  0  0  0  0
 10  1  1  0  0  0  0
 11 10  1  0  0  0  0
 12  8  1  0  0  0  0
 13  5  1  0  0  0  0
 14  6  1  0  0  0  0
 15  6  2  0  0  0  0
 16  5  2  0  0  0  0
 17 11  2  0  0  0  0
 18 11  1  0  0  0  0
 19 18  1  0  0  0  0
 20 12  1  0  0  0  0
 21  8  2  0  0  0  0
 22 12  2  0  0  0  0
 23 21  1  0  0  0  0
 24 23  2  0  0  0  0
 14 13  1  0  0  0  0
  2  7  1  0  0  0  0
 24 22  1  0  0  0  0
M  END
> <IDNUMBER>
F2496-3074

> <Chemical_Name>
[5-(2-fluorophenyl)-1,2-oxazol-3-yl]methyl 2-(2,5-dioxopyrrolidin-1-yl)acetate

> <CAS>
1203419-71-9

> <PriceCoeff>
1.00

> <MW>
332.28

> <Description>
solid

> <FSP3>
0.25

> <clogP>
1.58

> <TPSA>
89.71

> <Acceptor>
6

> <Donor>
0

> <RotBonds>
6

> <HAC>
24

> <Collection>
General

$$$$
F3375-0129
  -ISIS-  06222321152D

 25 27  0  0  0  0  0  0  0  0999 V2000
   10.0292   -2.6375    0.0000 S   0  0  3  0  0  0  0  0  0  0  0  0
    2.4542   -5.3792    0.0000 N   0  3  0  0  0  0  0  0  0  0  0  0
    5.3042   -3.7167    0.0000 C   0  0  0  0  0  0  0  0  0  0  0  0
    6.0625   -4.0542    0.0000 O   0  0  0  0  0  0  0  0  0  0  0  0
    6.6042   -3.4375    0.0000 C   0  0  0  0  0  0  0  0  0  0  0  0
    4.5917   -4.1292    0.0000 C   0  0  0  0  0  0  0  0  0  0  0  0
    7.4292   -3.5167    0.0000 C   0  0  0  0  0  0  0  0  0  0  0  0
    3.8792   -3.7167    0.0000 C   0  0  0  0  0  0  0  0  0  0  0  0
    3.1667   -4.9542    0.0000 C   0  0  0  0  0  0  0  0  0  0  0  0
    9.2667   -2.3042    0.0000 C   0  0  0  0  0  0  0  0  0  0  0  0
    5.3875   -2.9000    0.0000 C   0  0  0  0  0  0  0  0  0  0  0  0
    6.1792   -2.7167    0.0000 C   0  0  0  0  0  0  0  0  0  0  0  0
    3.1667   -4.1292    0.0000 C   0  0  0  0  0  0  0  0  0  0  0  0
    7.9042   -2.8417    0.0000 N   0  0  0  0  0  0  0  0  0  0  0  0
    4.6000   -4.9542    0.0000 C   0  0  0  0  0  0  0  0  0  0  0  0
   10.7417   -3.0500    0.0000 O   0  0  0  0  0  0  0  0  0  0  0  0
   10.2417   -1.8375    0.0000 O   0  0  0  0  0  0  0  0  0  0  0  0
    1.7375   -4.9667    0.0000 O   0  5  0  0  0  0  0  0  0  0  0  0
    8.7292   -2.9250    0.0000 C   0  0  3  0  0  0  0  0  0  0  0  0
    2.4542   -6.2042    0.0000 O   0  0  0  0  0  0  0  0  0  0  0  0
    9.9500   -3.4542    0.0000 C   0  0  0  0  0  0  0  0  0  0  0  0
    7.7667   -4.2667    0.0000 O   0  0  0  0  0  0  0  0  0  0  0  0
    3.8875   -5.3667    0.0000 C   0  0  0  0  0  0  0  0  0  0  0  0
    9.1417   -3.6375    0.0000 C   0  0  0  0  0  0  0  0  0  0  0  0
    3.8750   -2.8917    0.0000 Cl  0  0  0  0  0  0  0  0  0  0  0  0
  2  9  1  0  0  0  0
  3  4  1  0  0  0  0
  4  5  1  0  0  0  0
  5  7  1  0  0  0  0
  6  3  1  0  0  0  0
  7 14  1  0  0  0  0
  8  6  2  0  0  0  0
  9 23  1  0  0  0  0
 10  1  1  0  0  0  0
 11 12  1  0  0  0  0
 12  5  2  0  0  0  0
 13  8  1  0  0  0  0
 14 19  1  0  0  0  0
 15  6  1  0  0  0  0
 16  1  2  0  0  0  0
 17  1  2  0  0  0  0
 18  2  1  0  0  0  0
 19 10  1  0  0  0  0
 20  2  2  0  0  0  0
 21  1  1  0  0  0  0
 22  7  2  0  0  0  0
 23 15  2  0  0  0  0
 24 21  1  0  0  0  0
 25  8  1  0  0  0  0
 24 19  1  0  0  0  0
  3 11  2  0  0  0  0
  9 13  2  0  0  0  0
M  CHG  2   2   1  18  -1
M  END
> <IDNUMBER>
F3375-0129

> <Chemical_Name>
5-(2-chloro-4-nitrophenyl)-N-(1,1-dioxo-1lambda6-thiolan-3-yl)furan-2-carboxamide

> <CAS>
951900-87-1

> <PriceCoeff>
1.00

> <MW>
384.79

> <Description>
solid

> <FSP3>
0.27

> <clogP>
1.27

> <TPSA>
127.90

> <Acceptor>
6

> <Donor>
1

> <RotBonds>
4

> <HAC>
25

> <Collection>
General

$$$$
F0526-0593
  -ISIS-  06222304352D

 32 34  0  0  0  0  0  0  0  0999 V2000
    1.8042    0.2750    0.0000 C   0  0  0  0  0  0  0  0  0  0  0  0
    1.3250    0.9500    0.0000 C   0  0  0  0  0  0  0  0  0  0  0  0
    3.0750   -3.2917    0.0000 N   0  0  3  0  0  0  0  0  0  0  0  0
    0.5375    0.7000    0.0000 C   0  0  0  0  0  0  0  0  0  0  0  0
    0.5375   -0.1292    0.0000 C   0  0  0  0  0  0  0  0  0  0  0  0
    1.3250   -0.3875    0.0000 S   0  0  0  0  0  0  0  0  0  0  0  0
    2.6292    0.2708    0.0000 N   0  0  0  0  0  0  0  0  0  0  0  0
    2.6417   -2.5875    0.0000 C   0  0  0  0  0  0  0  0  0  0  0  0
    3.0500   -0.4417    0.0000 C   0  0  0  0  0  0  0  0  0  0  0  0
    3.8875   -3.4042    0.0000 C   0  0  0  0  0  0  0  0  0  0  0  0
    2.7500   -4.0417    0.0000 C   0  0  0  0  0  0  0  0  0  0  0  0
    1.5792    1.7458    0.0000 C   0  0  0  0  0  0  0  0  0  0  0  0
    3.0417   -1.8667    0.0000 C   0  0  0  0  0  0  0  0  0  0  0  0
   -0.9000   -0.1292    0.0000 N   0  0  3  0  0  0  0  0  0  0  0  0
   -0.1833   -0.5417    0.0000 C   0  0  0  0  0  0  0  0  0  0  0  0
    2.6292   -1.1542    0.0000 C   0  0  0  0  0  0  0  0  0  0  0  0
   -0.1833    1.1125    0.0000 C   0  0  0  0  0  0  0  0  0  0  0  0
    3.8875   -0.4417    0.0000 O   0  0  0  0  0  0  0  0  0  0  0  0
    3.3625   -4.5792    0.0000 C   0  0  0  0  0  0  0  0  0  0  0  0
    4.0500   -4.1917    0.0000 C   0  0  0  0  0  0  0  0  0  0  0  0
    1.9000   -4.2667    0.0000 O   0  0  0  0  0  0  0  0  0  0  0  0
    4.4792   -2.7750    0.0000 O   0  0  0  0  0  0  0  0  0  0  0  0
    1.0750    2.3208    0.0000 O   0  0  0  0  0  0  0  0  0  0  0  0
   -0.9000    0.7000    0.0000 C   0  0  0  0  0  0  0  0  0  0  0  0
    2.3292    1.9083    0.0000 O   0  0  0  0  0  0  0  0  0  0  0  0
    1.8042   -2.5792    0.0000 C   0  0  0  0  0  0  0  0  0  0  0  0
   -1.6250   -0.5417    0.0000 C   0  0  0  0  0  0  0  0  0  0  0  0
    1.7750   -1.1542    0.0000 C   0  0  0  0  0  0  0  0  0  0  0  0
    1.3917   -1.9000    0.0000 C   0  0  0  0  0  0  0  0  0  0  0  0
    2.7167    2.7708    0.0000 C   0  0  0  0  0  0  0  0  0  0  0  0
   -1.6208   -1.3750    0.0000 C   0  0  0  0  0  0  0  0  0  0  0  0
    5.9959   -0.8083    0.0000 Cl  0  0  0  0  0  0  0  0  0  0  0  0
  3  8  1  0  0  0  0
  4  2  1  0  0  0  0
  5  6  1  0  0  0  0
  6  1  1  0  0  0  0
  7  1  1  0  0  0  0
  8 13  2  0  0  0  0
  9  7  1  0  0  0  0
 10  3  1  0  0  0  0
 11  3  1  0  0  0  0
 12  2  1  0  0  0  0
 13 16  1  0  0  0  0
 14 15  1  0  0  0  0
 15  5  1  0  0  0  0
 16  9  1  0  0  0  0
 17  4  1  0  0  0  0
 18  9  2  0  0  0  0
 19 11  1  0  0  0  0
 20 10  1  0  0  0  0
 21 11  2  0  0  0  0
 22 10  2  0  0  0  0
 23 12  2  0  0  0  0
 24 17  1  0  0  0  0
 25 12  1  0  0  0  0
 26 29  2  0  0  0  0
 27 14  1  0  0  0  0
 28 16  2  0  0  0  0
 29 28  1  0  0  0  0
 30 25  1  0  0  0  0
 31 27  1  0  0  0  0
  5  4  2  0  0  0  0
 14 24  1  0  0  0  0
  8 26  1  0  0  0  0
 20 19  1  0  0  0  0
  2  1  2  0  0  0  0
M  END
> <IDNUMBER>
F0526-0593

> <Chemical_Name>
methyl 2-[3-(2,5-dioxopyrrolidin-1-yl)benzamido]-6-ethyl-4H,5H,6H,7H-thieno[2,3-c]pyridine-3-carboxylate hydrochloride

> <CAS>
1329840-45-0

> <PriceCoeff>
1.00

> <MW>
441.50

> <Description>
solid

> <FSP3>
0.36

> <clogP>
1.39

> <TPSA>
124.26

> <Acceptor>
5

> <Donor>
2

> <RotBonds>
6

> <HAC>
31

> <Collection>
General

$$$$
F6170-0024
  -ISIS-  06222304352D

 38 39  0  0  0  0  0  0  0  0999 V2000
   -1.6000   -2.1292    0.0000 C   0  0  0  0  0  0  0  0  0  0  0  0
    0.4333   -2.1208    0.0000 C   0  0  0  0  0  0  0  0  0  0  0  0
   -0.5833   -1.5458    0.0000 C   0  0  3  0  0  0  0  0  0  0  0  0
    0.4292   -3.3042    0.0000 C   0  0  0  0  0  0  0  0  0  0  0  0
   -1.6083   -3.2958    0.0000 C   0  0  0  0  0  0  0  0  0  0  0  0
   -0.5917   -3.8875    0.0000 N   0  0  0  0  0  0  0  0  0  0  0  0
   -2.6125   -1.5375    0.0000 C   0  0  0  0  0  0  0  0  0  0  0  0
    1.4500   -1.5375    0.0000 C   0  0  0  0  0  0  0  0  0  0  0  0
   -0.5833   -0.3708    0.0000 C   0  0  0  0  0  0  0  0  0  0  0  0
    0.4333    0.2125    0.0000 C   0  0  0  0  0  0  0  0  0  0  0  0
    1.4500   -0.3583    0.0000 O   0  0  0  0  0  0  0  0  0  0  0  0
   -2.6125   -0.3583    0.0000 O   0  0  0  0  0  0  0  0  0  0  0  0
    1.4458   -3.8958    0.0000 C   0  0  0  0  0  0  0  0  0  0  0  0
   -3.6375   -2.1167    0.0000 O   0  0  0  0  0  0  0  0  0  0  0  0
    2.4708   -2.1208    0.0000 O   0  0  0  0  0  0  0  0  0  0  0  0
   -2.6292   -3.8792    0.0000 C   0  0  0  0  0  0  0  0  0  0  0  0
    1.4500    0.8083    0.0000 Cl  0  0  0  0  0  0  0  0  0  0  0  0
    5.5125   -3.9083    0.0000 N   0  0  0  0  0  0  0  0  0  0  0  0
   -1.6000    0.2125    0.0000 C   0  0  0  0  0  0  0  0  0  0  0  0
    2.4708   -3.2958    0.0000 O   0  0  0  0  0  0  0  0  0  0  0  0
    0.4333    1.3917    0.0000 C   0  0  0  0  0  0  0  0  0  0  0  0
    4.5000   -3.3208    0.0000 C   0  0  0  0  0  0  0  0  0  0  0  0
    3.4833   -1.5375    0.0000 C   0  0  0  0  0  0  0  0  0  0  0  0
    3.4792   -3.9042    0.0000 C   0  0  0  0  0  0  0  0  0  0  0  0
   -4.6500   -1.5250    0.0000 C   0  0  0  0  0  0  0  0  0  0  0  0
   -1.6000    1.3875    0.0000 C   0  0  0  0  0  0  0  0  0  0  0  0
    4.5083   -2.1167    0.0000 C   0  0  0  0  0  0  0  0  0  0  0  0
   -0.5833    1.9833    0.0000 C   0  0  0  0  0  0  0  0  0  0  0  0
    7.1527   -1.5666    0.0000 C   0  0  0  0  0  0  0  0  0  0  0  0
    7.1515   -2.3940    0.0000 C   0  0  0  0  0  0  0  0  0  0  0  0
    7.8663   -2.8069    0.0000 C   0  0  0  0  0  0  0  0  0  0  0  0
    8.5828   -2.3935    0.0000 C   0  0  0  0  0  0  0  0  0  0  0  0
    8.5799   -1.5630    0.0000 C   0  0  0  0  0  0  0  0  0  0  0  0
    7.8645   -1.1539    0.0000 C   0  0  0  0  0  0  0  0  0  0  0  0
    7.8583   -0.3250    0.0000 S   0  0  3  0  0  0  0  0  0  0  0  0
    7.0333   -0.3250    0.0000 O   0  0  0  0  0  0  0  0  0  0  0  0
    8.6833   -0.3250    0.0000 O   0  0  0  0  0  0  0  0  0  0  0  0
    7.8541    0.5000    0.0000 O   0  0  0  0  0  0  0  0  0  0  0  0
 12  7  2  0  0  0  0
 13  4  1  0  0  0  0
 14  7  1  0  0  0  0
 15  8  1  0  0  0  0
 16  5  1  0  0  0  0
 17 10  1  0  0  0  0
 18 22  1  0  0  0  0
 19  9  1  0  0  0  0
 20 13  1  0  0  0  0
 21 10  1  0  0  0  0
 22 24  1  0  0  0  0
 23 15  1  0  0  0  0
 24 20  1  0  0  0  0
 25 14  1  0  0  0  0
 26 19  2  0  0  0  0
 27 23  1  0  0  0  0
 28 26  1  0  0  0  0
  2  4  2  0  0  0  0
 28 21  2  0  0  0  0
  2  3  1  0  0  0  0
  3  1  1  0  0  0  0
  4  6  1  0  0  0  0
  5  1  2  0  0  0  0
  6  5  1  0  0  0  0
  7  1  1  0  0  0  0
  8  2  1  0  0  0  0
  9  3  1  0  0  0  0
 10  9  2  0  0  0  0
 11  8  2  0  0  0  0
 30 31  1  0  0  0  0
 33 34  2  0  0  0  0
 34 29  1  0  0  0  0
 29 30  2  0  0  0  0
 34 35  1  0  0  0  0
 31 32  2  0  0  0  0
 35 36  2  0  0  0  0
 35 37  2  0  0  0  0
 32 33  1  0  0  0  0
 35 38  1  0  0  0  0
M  END
> <IDNUMBER>
F6170-0024

> <Chemical_Name>
3-ethyl 5-methyl 2-[(2-aminoethoxy)methyl]-4-(2-chlorophenyl)-6-methyl-1,4-dihydropyridine-3,5-dicarboxylate; benzenesulfonic acid

> <CAS>
111470-99-6

> <PriceCoeff>
1.00

> <MW>
408.88

> <Description>
solid

> <FSP3>
0.40

> <clogP>
3.43

> <TPSA>
99.88

> <Acceptor>
5

> <Donor>
2

> <RotBonds>
10

> <HAC>
28

> <Collection>
General

> <Reference_compound>
PRI5741

> <Similarity>
0.9700

$$$$
F0440-0349
  -ISIS-  06222321142D

 24 26  0  0  0  0  0  0  0  0999 V2000
    1.9500   -1.0500    0.0000 N   0  0  3  0  0  0  0  0  0  0  0  0
   -0.2125   -2.3000    0.0000 C   0  0  0  0  0  0  0  0  0  0  0  0
   -0.6125   -2.8667    0.0000 N   0  0  0  0  0  0  0  0  0  0  0  0
   -1.3125   -2.6500    0.0000 C   0  0  0  0  0  0  0  0  0  0  0  0
    0.5000   -2.3000    0.0000 N   0  0  0  0  0  0  0  0  0  0  0  0
    1.7167   -0.3667    0.0000 C   0  0  0  0  0  0  0  0  0  0  0  0
    2.6542   -1.0667    0.0000 C   0  0  0  0  0  0  0  0  0  0  0  0
   -0.6125   -1.7042    0.0000 S   0  0  0  0  0  0  0  0  0  0  0  0
    0.8542   -1.6667    0.0000 C   0  0  0  0  0  0  0  0  0  0  0  0
   -1.3125   -1.9292    0.0000 C   0  0  0  0  0  0  0  0  0  0  0  0
   -1.9333   -3.0042    0.0000 C   0  0  0  0  0  0  0  0  0  0  0  0
    1.5792   -1.6667    0.0000 C   0  0  0  0  0  0  0  0  0  0  0  0
   -2.5708   -4.1000    0.0000 C   0  0  0  0  0  0  0  0  0  0  0  0
   -1.9500   -3.7292    0.0000 C   0  0  0  0  0  0  0  0  0  0  0  0
   -3.1958   -3.7292    0.0000 C   0  0  0  0  0  0  0  0  0  0  0  0
    2.3000    0.0208    0.0000 C   0  0  0  0  0  0  0  0  0  0  0  0
    2.8792   -0.4000    0.0000 C   0  0  0  0  0  0  0  0  0  0  0  0
    1.0500   -0.1292    0.0000 O   0  0  0  0  0  0  0  0  0  0  0  0
    3.1000   -1.6500    0.0000 O   0  0  0  0  0  0  0  0  0  0  0  0
    0.5000   -1.0500    0.0000 O   0  0  0  0  0  0  0  0  0  0  0  0
   -2.5500   -2.6500    0.0000 C   0  0  0  0  0  0  0  0  0  0  0  0
   -3.1958   -3.0042    0.0000 C   0  0  0  0  0  0  0  0  0  0  0  0
   -2.5708   -4.8042    0.0000 Cl  0  0  0  0  0  0  0  0  0  0  0  0
   -3.8125   -4.1042    0.0000 Cl  0  0  0  0  0  0  0  0  0  0  0  0
  2  5  1  0  0  0  0
  3  2  2  0  0  0  0
  4  3  1  0  0  0  0
  5  9  1  0  0  0  0
  6  1  1  0  0  0  0
  7  1  1  0  0  0  0
  8  2  1  0  0  0  0
  9 12  1  0  0  0  0
 10  8  1  0  0  0  0
 11  4  1  0  0  0  0
 12  1  1  0  0  0  0
 13 14  2  0  0  0  0
 14 11  1  0  0  0  0
 15 22  2  0  0  0  0
 16  6  1  0  0  0  0
 17  7  1  0  0  0  0
 18  6  2  0  0  0  0
 19  7  2  0  0  0  0
 20  9  2  0  0  0  0
 21 11  2  0  0  0  0
 22 21  1  0  0  0  0
 23 13  1  0  0  0  0
 24 15  1  0  0  0  0
 17 16  1  0  0  0  0
  4 10  2  0  0  0  0
 15 13  1  0  0  0  0
M  END
> <IDNUMBER>
F0440-0349

> <Chemical_Name>
N-[4-(3,4-dichlorophenyl)-1,3-thiazol-2-yl]-2-(2,5-dioxopyrrolidin-1-yl)acetamide

> <CAS>
476308-68-6

> <PriceCoeff>
1.00

> <MW>
384.24

> <Description>
solid

> <FSP3>
0.20

> <clogP>
3.26

> <TPSA>
107.61

> <Acceptor>
4

> <Donor>
1

> <RotBonds>
4

> <HAC>
24

> <Collection>
General

$$$$
F5831-4222
  -ISIS-  06222321152D

 22 24  0  0  0  0  0  0  0  0999 V2000
   -5.2875    2.5625    0.0000 N   0  0  3  0  0  0  0  0  0  0  0  0
   -5.3708    1.7333    0.0000 C   0  0  0  0  0  0  0  0  0  0  0  0
   -6.0292    2.9000    0.0000 C   0  0  0  0  0  0  0  0  0  0  0  0
   -2.2625    6.4417    0.0000 C   0  0  3  0  0  0  0  0  0  0  0  0
   -3.0625    6.2667    0.0000 O   0  0  0  0  0  0  0  0  0  0  0  0
   -4.5833    2.9833    0.0000 C   0  0  0  0  0  0  0  0  0  0  0  0
   -1.8458    5.7292    0.0000 O   0  0  0  0  0  0  0  0  0  0  0  0
   -4.5833    3.8000    0.0000 C   0  0  0  0  0  0  0  0  0  0  0  0
   -3.8625    4.2125    0.0000 N   0  0  0  0  0  0  0  0  0  0  0  0
   -6.1667    1.5583    0.0000 C   0  0  0  0  0  0  0  0  0  0  0  0
   -6.5875    2.2833    0.0000 C   0  0  0  0  0  0  0  0  0  0  0  0
   -4.7583    1.1708    0.0000 O   0  0  0  0  0  0  0  0  0  0  0  0
   -6.2125    3.7083    0.0000 O   0  0  0  0  0  0  0  0  0  0  0  0
   -3.1458    5.4500    0.0000 C   0  0  3  0  0  0  0  0  0  0  0  0
   -5.3000    4.2125    0.0000 O   0  0  0  0  0  0  0  0  0  0  0  0
   -2.3875    5.1167    0.0000 C   0  0  0  0  0  0  0  0  0  0  0  0
   -3.8625    5.0292    0.0000 C   0  0  0  0  0  0  0  0  0  0  0  0
   -2.4833    7.2417    0.0000 C   0  0  0  0  0  0  0  0  0  0  0  0
   -1.4708    6.2292    0.0000 C   0  0  0  0  0  0  0  0  0  0  0  0
   -1.9083    7.8250    0.0000 C   0  0  0  0  0  0  0  0  0  0  0  0
   -0.8833    6.8167    0.0000 C   0  0  0  0  0  0  0  0  0  0  0  0
   -1.1000    7.6167    0.0000 C   0  0  0  0  0  0  0  0  0  0  0  0
  2  1  1  0  0  0  0
  3  1  1  0  0  0  0
  4  5  1  0  0  0  0
  5 14  1  0  0  0  0
  6  1  1  0  0  0  0
  7 16  1  0  0  0  0
  8  6  1  0  0  0  0
  9  8  1  0  0  0  0
 10  2  1  0  0  0  0
 11  3  1  0  0  0  0
 12  2  2  0  0  0  0
 13  3  2  0  0  0  0
 14 17  1  0  0  0  0
 15  8  2  0  0  0  0
 16 14  1  0  0  0  0
 17  9  1  0  0  0  0
 18  4  1  0  0  0  0
 19  4  1  0  0  0  0
 20 18  1  0  0  0  0
 21 19  1  0  0  0  0
 22 21  1  0  0  0  0
 10 11  1  0  0  0  0
  7  4  1  0  0  0  0
 20 22  1  0  0  0  0
M  END
> <IDNUMBER>
F5831-4222

> <Chemical_Name>
N-({1,4-dioxaspiro[4.5]decan-2-yl}methyl)-2-(2,5-dioxopyrrolidin-1-yl)acetamide

> <CAS>
1211724-61-6

> <PriceCoeff>
1.00

> <MW>
310.35

> <Description>
solid

> <FSP3>
0.80

> <clogP>
0.97

> <TPSA>
84.94

> <Acceptor>
5

> <Donor>
1

> <RotBonds>
4

> <HAC>
22

> <Collection>
General

$$$$
F1383-0018
  -ISIS-  06222321452D

 19 20  0  0  0  0  0  0  0  0999 V2000
   -0.5583   -1.7375    0.0000 N   0  0  3  0  0  0  0  0  0  0  0  0
   -0.3083   -2.5292    0.0000 C   0  0  0  0  0  0  0  0  0  0  0  0
    0.1125   -1.2500    0.0000 C   0  0  0  0  0  0  0  0  0  0  0  0
    0.5250   -2.5292    0.0000 C   0  0  3  0  0  0  0  0  0  0  0  0
    1.8375   -3.1125    0.0000 C   0  0  0  0  0  0  0  0  0  0  0  0
    0.7792   -1.7375    0.0000 C   0  0  0  0  0  0  0  0  0  0  0  0
    2.3167   -3.7875    0.0000 C   0  0  0  0  0  0  0  0  0  0  0  0
    1.0125   -3.2000    0.0000 S   0  0  0  0  0  0  0  0  0  0  0  0
    1.9792   -4.5417    0.0000 C   0  0  0  0  0  0  0  0  0  0  0  0
    2.1667   -2.3542    0.0000 N   0  0  0  0  0  0  0  0  0  0  0  0
   -0.7958   -3.2000    0.0000 O   0  0  0  0  0  0  0  0  0  0  0  0
    0.1042   -0.4167    0.0000 O   0  0  0  0  0  0  0  0  0  0  0  0
    2.4625   -5.2167    0.0000 O   0  0  0  0  0  0  0  0  0  0  0  0
   -1.3458   -1.4875    0.0000 C   0  0  0  0  0  0  0  0  0  0  0  0
    1.1542   -4.6292    0.0000 O   0  0  0  0  0  0  0  0  0  0  0  0
    3.1417   -3.6917    0.0000 C   0  0  0  0  0  0  0  0  0  0  0  0
    2.9875   -2.2667    0.0000 C   0  0  0  0  0  0  0  0  0  0  0  0
   -1.9583   -2.0375    0.0000 C   0  0  0  0  0  0  0  0  0  0  0  0
    3.4792   -2.9417    0.0000 C   0  0  0  0  0  0  0  0  0  0  0  0
  2  1  1  0  0  0  0
  3  1  1  0  0  0  0
  4  2  1  0  0  0  0
  5  8  1  0  0  0  0
  6  3  1  0  0  0  0
  7  5  2  0  0  0  0
  8  4  1  0  0  0  0
  9  7  1  0  0  0  0
 10  5  1  0  0  0  0
 11  2  2  0  0  0  0
 12  3  2  0  0  0  0
 13  9  2  0  0  0  0
 14  1  1  0  0  0  0
 15  9  1  0  0  0  0
 16  7  1  0  0  0  0
 17 10  2  0  0  0  0
 18 14  1  0  0  0  0
 19 17  1  0  0  0  0
  6  4  1  0  0  0  0
 19 16  2  0  0  0  0
M  END
> <IDNUMBER>
F1383-0018

> <Chemical_Name>
2-[(1-ethyl-2,5-dioxopyrrolidin-3-yl)sulfanyl]pyridine-3-carboxylic acid

> <CAS>
514183-34-7

> <PriceCoeff>
1.00

> <MW>
280.30

> <Description>
solid

> <FSP3>
0.33

> <clogP>
1.20

> <TPSA>
112.87

> <Acceptor>
5

> <Donor>
1

> <RotBonds>
4

> <HAC>
19

> <Collection>
General

$$$$
F0440-0335
  -ISIS-  06222321142D

 23 25  0  0  0  0  0  0  0  0999 V2000
    2.1500   -1.4292    0.0000 N   0  0  3  0  0  0  0  0  0  0  0  0
   -0.2125   -2.8000    0.0000 C   0  0  0  0  0  0  0  0  0  0  0  0
   -0.6500   -3.4292    0.0000 N   0  0  0  0  0  0  0  0  0  0  0  0
   -1.4125   -3.2000    0.0000 C   0  0  0  0  0  0  0  0  0  0  0  0
    0.5792   -2.8000    0.0000 N   0  0  0  0  0  0  0  0  0  0  0  0
    1.9000   -0.6667    0.0000 C   0  0  0  0  0  0  0  0  0  0  0  0
    2.9500   -1.4292    0.0000 C   0  0  0  0  0  0  0  0  0  0  0  0
   -0.6500   -2.1667    0.0000 S   0  0  0  0  0  0  0  0  0  0  0  0
    0.9542   -2.1042    0.0000 C   0  0  0  0  0  0  0  0  0  0  0  0
   -1.4125   -2.4042    0.0000 C   0  0  0  0  0  0  0  0  0  0  0  0
    1.7542   -2.1042    0.0000 C   0  0  0  0  0  0  0  0  0  0  0  0
   -2.0958   -3.6000    0.0000 C   0  0  0  0  0  0  0  0  0  0  0  0
    2.5500   -0.2292    0.0000 C   0  0  0  0  0  0  0  0  0  0  0  0
    3.1792   -0.6667    0.0000 C   0  0  0  0  0  0  0  0  0  0  0  0
    1.1542   -0.4292    0.0000 O   0  0  0  0  0  0  0  0  0  0  0  0
    3.4167   -2.0500    0.0000 O   0  0  0  0  0  0  0  0  0  0  0  0
    0.5792   -1.4292    0.0000 O   0  0  0  0  0  0  0  0  0  0  0  0
   -2.0958   -4.3667    0.0000 C   0  0  0  0  0  0  0  0  0  0  0  0
   -2.7708   -3.2000    0.0000 C   0  0  0  0  0  0  0  0  0  0  0  0
   -3.4500   -4.3667    0.0000 C   0  0  0  0  0  0  0  0  0  0  0  0
   -3.4500   -3.6000    0.0000 C   0  0  0  0  0  0  0  0  0  0  0  0
   -2.7708   -4.7667    0.0000 C   0  0  0  0  0  0  0  0  0  0  0  0
   -4.1333   -4.7667    0.0000 Br  0  0  0  0  0  0  0  0  0  0  0  0
  2  5  1  0  0  0  0
  3  2  2  0  0  0  0
  4  3  1  0  0  0  0
  5  9  1  0  0  0  0
  6  1  1  0  0  0  0
  7  1  1  0  0  0  0
  8  2  1  0  0  0  0
  9 11  1  0  0  0  0
 10  8  1  0  0  0  0
 11  1  1  0  0  0  0
 12  4  1  0  0  0  0
 13  6  1  0  0  0  0
 14  7  1  0  0  0  0
 15  6  2  0  0  0  0
 16  7  2  0  0  0  0
 17  9  2  0  0  0  0
 18 12  1  0  0  0  0
 19 12  2  0  0  0  0
 20 21  2  0  0  0  0
 21 19  1  0  0  0  0
 22 18  2  0  0  0  0
 23 20  1  0  0  0  0
 14 13  1  0  0  0  0
  4 10  2  0  0  0  0
 20 22  1  0  0  0  0
M  END
> <IDNUMBER>
F0440-0335

> <Chemical_Name>
N-[4-(4-bromophenyl)-1,3-thiazol-2-yl]-2-(2,5-dioxopyrrolidin-1-yl)acetamide

> <CAS>
361167-70-6

> <PriceCoeff>
1.00

> <MW>
394.24

> <Description>
solid

> <FSP3>
0.20

> <clogP>
2.82

> <TPSA>
107.61

> <Acceptor>
4

> <Donor>
1

> <RotBonds>
4

> <HAC>
23

> <Collection>
General

$$$$
F3385-4481
  -ISIS-  06222321152D

 25 27  0  0  0  0  0  0  0  0999 V2000
    2.6417   -3.1375    0.0000 C   0  0  0  0  0  0  0  0  0  0  0  0
    3.3542   -3.5542    0.0000 C   0  0  0  0  0  0  0  0  0  0  0  0
    4.0750   -3.1417    0.0000 C   0  0  0  0  0  0  0  0  0  0  0  0
    4.0750   -2.3125    0.0000 C   0  0  0  0  0  0  0  0  0  0  0  0
    2.6417   -2.3125    0.0000 C   0  0  0  0  0  0  0  0  0  0  0  0
    3.3542   -1.8917    0.0000 O   0  0  0  0  0  0  0  0  0  0  0  0
    1.9292   -3.5542    0.0000 C   0  0  0  0  0  0  0  0  0  0  0  0
    1.9292   -1.9000    0.0000 C   0  0  0  0  0  0  0  0  0  0  0  0
    1.2167   -3.1417    0.0000 C   0  0  0  0  0  0  0  0  0  0  0  0
    1.9292   -4.3792    0.0000 O   0  0  0  0  0  0  0  0  0  0  0  0
    1.2167   -2.3125    0.0000 C   0  0  0  0  0  0  0  0  0  0  0  0
    0.5042   -4.3792    0.0000 C   0  0  0  0  0  0  0  0  0  0  0  0
    3.3542   -4.3792    0.0000 O   0  0  0  0  0  0  0  0  0  0  0  0
    4.7917   -1.9042    0.0000 C   0  0  0  0  0  0  0  0  0  0  0  0
    0.5000   -3.5542    0.0000 O   0  0  0  0  0  0  0  0  0  0  0  0
    1.2167   -4.7917    0.0000 C   0  0  0  0  0  0  0  0  0  0  0  0
   -0.2083   -4.7917    0.0000 O   0  0  0  0  0  0  0  0  0  0  0  0
    0.5042   -1.9042    0.0000 O   0  0  0  0  0  0  0  0  0  0  0  0
    4.7917   -1.0792    0.0000 C   0  0  0  0  0  0  0  0  0  0  0  0
    5.5042   -2.3167    0.0000 C   0  0  0  0  0  0  0  0  0  0  0  0
   -0.9250   -4.3792    0.0000 C   0  0  0  0  0  0  0  0  0  0  0  0
   -1.6375   -4.8000    0.0000 C   0  0  0  0  0  0  0  0  0  0  0  0
    6.2167   -1.9125    0.0000 C   0  0  0  0  0  0  0  0  0  0  0  0
    5.5042   -0.6667    0.0000 C   0  0  0  0  0  0  0  0  0  0  0  0
    6.2167   -1.0792    0.0000 C   0  0  0  0  0  0  0  0  0  0  0  0
  2  1  1  0  0  0  0
  3  2  1  0  0  0  0
  4  6  1  0  0  0  0
  5  1  1  0  0  0  0
  6  5  1  0  0  0  0
  7  1  2  0  0  0  0
  8  5  2  0  0  0  0
  9  7  1  0  0  0  0
 10  7  1  0  0  0  0
 11  9  2  0  0  0  0
 12 16  1  0  0  0  0
 13  2  2  0  0  0  0
 14  4  1  0  0  0  0
 15 12  2  0  0  0  0
 16 10  1  0  0  0  0
 17 12  1  0  0  0  0
 18 11  1  0  0  0  0
 19 14  1  0  0  0  0
 20 14  2  0  0  0  0
 21 17  1  0  0  0  0
 22 21  1  0  0  0  0
 23 20  1  0  0  0  0
 24 19  2  0  0  0  0
 25 23  2  0  0  0  0
 11  8  1  0  0  0  0
  4  3  2  0  0  0  0
 24 25  1  0  0  0  0
M  END
> <IDNUMBER>
F3385-4481

> <Chemical_Name>
ethyl 2-[(7-hydroxy-4-oxo-2-phenyl-4H-chromen-5-yl)oxy]acetate

> <CAS>
929452-19-7

> <PriceCoeff>
1.00

> <MW>
340.33

> <Description>
solid

> <FSP3>
0.16

> <clogP>
3.40

> <TPSA>
82.06

> <Acceptor>
6

> <Donor>
1

> <RotBonds>
6

> <HAC>
25

> <Collection>
General

> <Reference_compound>
CHEMBL275638

> <Similarity>
0.8030

$$$$
F0440-0343
  -ISIS-  06222321442D

 24 26  0  0  0  0  0  0  0  0999 V2000
    1.0000   -1.0042    0.0000 N   0  0  3  0  0  0  0  0  0  0  0  0
   -1.5708   -2.8292    0.0000 N   0  0  0  0  0  0  0  0  0  0  0  0
   -1.1500   -2.2500    0.0000 C   0  0  0  0  0  0  0  0  0  0  0  0
   -2.2500   -2.6042    0.0000 C   0  0  0  0  0  0  0  0  0  0  0  0
   -2.8958   -2.9667    0.0000 C   0  0  0  0  0  0  0  0  0  0  0  0
   -0.4333   -2.2500    0.0000 N   0  0  0  0  0  0  0  0  0  0  0  0
    0.7792   -0.3292    0.0000 C   0  0  0  0  0  0  0  0  0  0  0  0
    1.7167   -1.0292    0.0000 C   0  0  0  0  0  0  0  0  0  0  0  0
   -1.5708   -1.6667    0.0000 S   0  0  0  0  0  0  0  0  0  0  0  0
   -2.2500   -1.9000    0.0000 C   0  0  0  0  0  0  0  0  0  0  0  0
   -0.0708   -1.6292    0.0000 C   0  0  0  0  0  0  0  0  0  0  0  0
    0.6500   -1.6292    0.0000 C   0  0  0  0  0  0  0  0  0  0  0  0
   -2.8958   -3.7000    0.0000 C   0  0  0  0  0  0  0  0  0  0  0  0
   -3.5125   -2.6042    0.0000 C   0  0  0  0  0  0  0  0  0  0  0  0
    1.3542    0.0625    0.0000 C   0  0  0  0  0  0  0  0  0  0  0  0
    1.9500   -0.3500    0.0000 C   0  0  0  0  0  0  0  0  0  0  0  0
    0.1000   -0.0875    0.0000 O   0  0  0  0  0  0  0  0  0  0  0  0
    2.1500   -1.6042    0.0000 O   0  0  0  0  0  0  0  0  0  0  0  0
   -0.4333   -1.0042    0.0000 O   0  0  0  0  0  0  0  0  0  0  0  0
   -3.5125   -4.0500    0.0000 C   0  0  0  0  0  0  0  0  0  0  0  0
   -4.1333   -2.9667    0.0000 C   0  0  0  0  0  0  0  0  0  0  0  0
   -2.2500   -4.0667    0.0000 Cl  0  0  0  0  0  0  0  0  0  0  0  0
   -4.1333   -3.7000    0.0000 C   0  0  0  0  0  0  0  0  0  0  0  0
   -4.7708   -2.6042    0.0000 Cl  0  0  0  0  0  0  0  0  0  0  0  0
  2  3  2  0  0  0  0
  3  6  1  0  0  0  0
  4  2  1  0  0  0  0
  5  4  1  0  0  0  0
  6 11  1  0  0  0  0
  7  1  1  0  0  0  0
  8  1  1  0  0  0  0
  9  3  1  0  0  0  0
 10  9  1  0  0  0  0
 11 12  1  0  0  0  0
 12  1  1  0  0  0  0
 13  5  1  0  0  0  0
 14  5  2  0  0  0  0
 15  7  1  0  0  0  0
 16  8  1  0  0  0  0
 17  7  2  0  0  0  0
 18  8  2  0  0  0  0
 19 11  2  0  0  0  0
 20 13  2  0  0  0  0
 21 14  1  0  0  0  0
 22 13  1  0  0  0  0
 23 21  2  0  0  0  0
 24 21  1  0  0  0  0
 16 15  1  0  0  0  0
 10  4  2  0  0  0  0
 23 20  1  0  0  0  0
M  END
> <IDNUMBER>
F0440-0343

> <Chemical_Name>
N-[4-(2,5-dichlorophenyl)-1,3-thiazol-2-yl]-2-(2,5-dioxopyrrolidin-1-yl)acetamide

> <CAS>
380180-45-0

> <PriceCoeff>
1.00

> <MW>
384.24

> <Description>
solid

> <FSP3>
0.20

> <clogP>
3.13

> <TPSA>
107.61

> <Acceptor>
4

> <Donor>
1

> <RotBonds>
4

> <HAC>
24

> <Collection>
General

$$$$
F3349-0203
  -ISIS-  06222321442D

 24 26  0  0  0  0  0  0  0  0999 V2000
    2.3417    0.7958    0.0000 S   0  0  3  0  0  0  0  0  0  0  0  0
   -0.9458    0.8083    0.0000 N   0  0  3  0  0  0  0  0  0  0  0  0
    3.1667    0.7958    0.0000 N   0  0  0  0  0  0  0  0  0  0  0  0
   -1.4250    1.4750    0.0000 C   0  0  0  0  0  0  0  0  0  0  0  0
   -1.4333    0.1458    0.0000 C   0  0  0  0  0  0  0  0  0  0  0  0
    1.5167    0.7958    0.0000 C   0  0  0  0  0  0  0  0  0  0  0  0
   -0.1208    0.8000    0.0000 C   0  0  0  0  0  0  0  0  0  0  0  0
    2.3417   -0.0292    0.0000 O   0  0  0  0  0  0  0  0  0  0  0  0
    2.3417    1.6208    0.0000 O   0  0  0  0  0  0  0  0  0  0  0  0
    3.5792    0.0833    0.0000 C   0  0  0  0  0  0  0  0  0  0  0  0
   -2.2125    1.2250    0.0000 C   0  0  0  0  0  0  0  0  0  0  0  0
   -2.2208    0.4000    0.0000 C   0  0  0  0  0  0  0  0  0  0  0  0
   -1.1833   -0.6417    0.0000 O   0  0  0  0  0  0  0  0  0  0  0  0
   -1.1708    2.2583    0.0000 O   0  0  0  0  0  0  0  0  0  0  0  0
    1.1042    0.0833    0.0000 C   0  0  0  0  0  0  0  0  0  0  0  0
    1.1125    1.5083    0.0000 C   0  0  0  0  0  0  0  0  0  0  0  0
    0.2792    0.0833    0.0000 C   0  0  0  0  0  0  0  0  0  0  0  0
    0.2917    1.5083    0.0000 C   0  0  0  0  0  0  0  0  0  0  0  0
    4.4042    0.0958    0.0000 C   0  0  0  0  0  0  0  0  0  0  0  0
    3.1750   -0.6292    0.0000 C   0  0  0  0  0  0  0  0  0  0  0  0
    4.8125    0.8083    0.0000 C   0  0  0  0  0  0  0  0  0  0  0  0
    4.8250   -0.6167    0.0000 C   0  0  0  0  0  0  0  0  0  0  0  0
    3.5875   -1.3417    0.0000 C   0  0  0  0  0  0  0  0  0  0  0  0
    4.4125   -1.3417    0.0000 C   0  0  0  0  0  0  0  0  0  0  0  0
  2  7  1  0  0  0  0
  3  1  1  0  0  0  0
  4  2  1  0  0  0  0
  5  2  1  0  0  0  0
  6  1  1  0  0  0  0
  7 18  2  0  0  0  0
  8  1  2  0  0  0  0
  9  1  2  0  0  0  0
 10  3  1  0  0  0  0
 11  4  1  0  0  0  0
 12  5  1  0  0  0  0
 13  5  2  0  0  0  0
 14  4  2  0  0  0  0
 15  6  1  0  0  0  0
 16  6  2  0  0  0  0
 17 15  2  0  0  0  0
 18 16  1  0  0  0  0
 19 10  1  0  0  0  0
 20 10  2  0  0  0  0
 21 19  1  0  0  0  0
 22 19  2  0  0  0  0
 23 20  1  0  0  0  0
 24 23  2  0  0  0  0
  7 17  1  0  0  0  0
 24 22  1  0  0  0  0
 12 11  1  0  0  0  0
M  END
> <IDNUMBER>
F3349-0203

> <Chemical_Name>
4-(2,5-dioxopyrrolidin-1-yl)-N-(2-methylphenyl)benzene-1-sulfonamide

> <CAS>
919243-80-4

> <PriceCoeff>
1.00

> <MW>
344.38

> <Description>
solid

> <FSP3>
0.18

> <clogP>
0.69

> <TPSA>
91.93

> <Acceptor>
5

> <Donor>
1

> <RotBonds>
4

> <HAC>
24

> <Collection>
General

$$$$
F3310-1337
  -ISIS-  06222321442D

 17 18  0  0  0  0  0  0  0  0999 V2000
    4.8667   -2.1667    0.0000 C   0  0  0  0  0  0  0  0  0  0  0  0
    4.1500   -1.7542    0.0000 C   0  0  0  0  0  0  0  0  0  0  0  0
    3.4375   -2.1750    0.0000 C   0  0  0  0  0  0  0  0  0  0  0  0
    4.8667   -2.9917    0.0000 O   0  0  0  0  0  0  0  0  0  0  0  0
    2.0042   -2.1750    0.0000 O   0  0  0  0  0  0  0  0  0  0  0  0
    2.7250   -1.7625    0.0000 C   0  0  0  0  0  0  0  0  0  0  0  0
    5.5792   -1.7542    0.0000 O   0  0  0  0  0  0  0  0  0  0  0  0
    1.2917   -1.7667    0.0000 C   0  0  0  0  0  0  0  0  0  0  0  0
    0.5792   -2.1792    0.0000 C   0  0  0  0  0  0  0  0  0  0  0  0
    4.1500   -0.9292    0.0000 C   0  0  0  0  0  0  0  0  0  0  0  0
    3.4250   -0.5250    0.0000 C   0  0  0  0  0  0  0  0  0  0  0  0
    2.7167   -0.9417    0.0000 C   0  0  0  0  0  0  0  0  0  0  0  0
   -0.1333   -1.7667    0.0000 C   0  0  0  0  0  0  0  0  0  0  0  0
    0.5792   -3.0125    0.0000 C   0  0  0  0  0  0  0  0  0  0  0  0
   -0.8458   -2.1875    0.0000 C   0  0  0  0  0  0  0  0  0  0  0  0
   -0.1333   -3.4250    0.0000 C   0  0  0  0  0  0  0  0  0  0  0  0
   -0.8458   -3.0125    0.0000 C   0  0  0  0  0  0  0  0  0  0  0  0
  2  1  1  0  0  0  0
  3  2  1  0  0  0  0
  4  1  2  0  0  0  0
  5  6  1  0  0  0  0
  6  3  2  0  0  0  0
  7  1  1  0  0  0  0
  8  5  1  0  0  0  0
  9  8  1  0  0  0  0
 10  2  2  0  0  0  0
 11 10  1  0  0  0  0
 12 11  2  0  0  0  0
 13  9  2  0  0  0  0
 14  9  1  0  0  0  0
 15 13  1  0  0  0  0
 16 14  2  0  0  0  0
 17 16  1  0  0  0  0
 12  6  1  0  0  0  0
 15 17  2  0  0  0  0
M  END
> <IDNUMBER>
F3310-1337

> <Chemical_Name>
3-(benzyloxy)benzoic acid

> <CAS>
69026-14-8

> <PriceCoeff>
1.00

> <MW>
228.25

> <Description>
solid

> <FSP3>
0.07

> <clogP>
3.79

> <TPSA>
78.46

> <Acceptor>
3

> <Donor>
0

> <RotBonds>
4

> <HAC>
17

> <Collection>
General

> <Reference_compound>
CHEMBL22425

> <Similarity>
0.8350

$$$$
F0882-0814
  -ISIS-  06222321452D

 27 29  0  0  0  0  0  0  0  0999 V2000
   -6.7125    5.4417    0.0000 N   0  0  3  0  0  0  0  0  0  0  0  0
   -3.1583    5.0625    0.0000 C   0  0  0  0  0  0  0  0  0  0  0  0
   -3.5625    6.3292    0.0000 C   0  0  0  0  0  0  0  0  0  0  0  0
   -3.8125    5.5625    0.0000 S   0  0  0  0  0  0  0  0  0  0  0  0
   -2.7208    6.2917    0.0000 C   0  0  0  0  0  0  0  0  0  0  0  0
   -3.1583    4.2042    0.0000 N   0  0  0  0  0  0  0  0  0  0  0  0
   -7.4667    5.1167    0.0000 C   0  0  0  0  0  0  0  0  0  0  0  0
   -6.8292    6.2292    0.0000 C   0  0  0  0  0  0  0  0  0  0  0  0
   -2.4958    5.5417    0.0000 C   0  0  0  0  0  0  0  0  0  0  0  0
   -3.8708    3.8000    0.0000 C   0  0  0  0  0  0  0  0  0  0  0  0
   -4.0333    7.0167    0.0000 C   0  0  0  0  0  0  0  0  0  0  0  0
   -6.0042    5.0417    0.0000 C   0  0  0  0  0  0  0  0  0  0  0  0
   -4.5833    4.2042    0.0000 C   0  0  0  0  0  0  0  0  0  0  0  0
   -3.8708    2.9708    0.0000 O   0  0  0  0  0  0  0  0  0  0  0  0
   -7.6167    6.3792    0.0000 C   0  0  0  0  0  0  0  0  0  0  0  0
   -8.0042    5.7167    0.0000 C   0  0  0  0  0  0  0  0  0  0  0  0
   -6.2000    6.8542    0.0000 O   0  0  0  0  0  0  0  0  0  0  0  0
   -7.6375    4.2667    0.0000 O   0  0  0  0  0  0  0  0  0  0  0  0
   -3.6583    7.7417    0.0000 O   0  0  0  0  0  0  0  0  0  0  0  0
   -5.9958    4.2167    0.0000 C   0  0  0  0  0  0  0  0  0  0  0  0
   -5.2833    5.4542    0.0000 C   0  0  0  0  0  0  0  0  0  0  0  0
   -4.5625    5.0625    0.0000 C   0  0  0  0  0  0  0  0  0  0  0  0
   -5.2958    3.8125    0.0000 C   0  0  0  0  0  0  0  0  0  0  0  0
   -4.8500    6.9792    0.0000 O   0  0  0  0  0  0  0  0  0  0  0  0
   -2.2083    6.9417    0.0000 C   0  0  0  0  0  0  0  0  0  0  0  0
   -5.3000    7.6667    0.0000 C   0  0  0  0  0  0  0  0  0  0  0  0
   -6.1250    7.6042    0.0000 C   0  0  0  0  0  0  0  0  0  0  0  0
  2  6  1  0  0  0  0
  3  4  1  0  0  0  0
  4  2  1  0  0  0  0
  5  9  1  0  0  0  0
  6 10  1  0  0  0  0
  7  1  1  0  0  0  0
  8  1  1  0  0  0  0
  9  2  2  0  0  0  0
 10 13  1  0  0  0  0
 11  3  1  0  0  0  0
 12  1  1  0  0  0  0
 13 22  2  0  0  0  0
 14 10  2  0  0  0  0
 15  8  1  0  0  0  0
 16  7  1  0  0  0  0
 17  8  2  0  0  0  0
 18  7  2  0  0  0  0
 19 11  2  0  0  0  0
 20 12  1  0  0  0  0
 21 12  2  0  0  0  0
 22 21  1  0  0  0  0
 23 20  2  0  0  0  0
 24 11  1  0  0  0  0
 25  5  1  0  0  0  0
 26 24  1  0  0  0  0
 27 26  1  0  0  0  0
 16 15  1  0  0  0  0
 23 13  1  0  0  0  0
  3  5  2  0  0  0  0
M  END
> <IDNUMBER>
F0882-0814

> <Chemical_Name>
ethyl 5-[4-(2,5-dioxopyrrolidin-1-yl)benzamido]-3-methylthiophene-2-carboxylate

> <CAS>
477567-89-8

> <PriceCoeff>
1.00

> <MW>
386.42

> <Description>
solid

> <FSP3>
0.26

> <clogP>
1.99

> <TPSA>
121.02

> <Acceptor>
5

> <Donor>
1

> <RotBonds>
6

> <HAC>
27

> <Collection>
General

$$$$
F0440-0344
  -ISIS-  06222321142D

 26 28  0  0  0  0  0  0  0  0999 V2000
    2.1167   -1.1000    0.0000 N   0  0  3  0  0  0  0  0  0  0  0  0
   -0.0500   -2.3542    0.0000 C   0  0  0  0  0  0  0  0  0  0  0  0
   -0.4708   -2.9542    0.0000 N   0  0  0  0  0  0  0  0  0  0  0  0
   -1.1500   -2.7500    0.0000 C   0  0  0  0  0  0  0  0  0  0  0  0
    0.6542   -2.3542    0.0000 N   0  0  0  0  0  0  0  0  0  0  0  0
    1.9000   -0.4000    0.0000 C   0  0  0  0  0  0  0  0  0  0  0  0
    2.8500   -1.1000    0.0000 C   0  0  0  0  0  0  0  0  0  0  0  0
   -0.4708   -1.7792    0.0000 S   0  0  0  0  0  0  0  0  0  0  0  0
    1.0167   -1.7167    0.0000 C   0  0  0  0  0  0  0  0  0  0  0  0
   -1.1500   -2.0000    0.0000 C   0  0  0  0  0  0  0  0  0  0  0  0
   -1.8125   -3.1000    0.0000 C   0  0  0  0  0  0  0  0  0  0  0  0
    1.7542   -1.7167    0.0000 C   0  0  0  0  0  0  0  0  0  0  0  0
   -1.8125   -3.8500    0.0000 C   0  0  0  0  0  0  0  0  0  0  0  0
   -2.4333   -4.1917    0.0000 C   0  0  0  0  0  0  0  0  0  0  0  0
   -3.0708   -3.8500    0.0000 C   0  0  0  0  0  0  0  0  0  0  0  0
    2.4792    0.0125    0.0000 C   0  0  0  0  0  0  0  0  0  0  0  0
    3.0542   -0.4000    0.0000 C   0  0  0  0  0  0  0  0  0  0  0  0
    1.2000   -0.1542    0.0000 O   0  0  0  0  0  0  0  0  0  0  0  0
    3.3000   -1.6792    0.0000 O   0  0  0  0  0  0  0  0  0  0  0  0
    0.6542   -1.0792    0.0000 O   0  0  0  0  0  0  0  0  0  0  0  0
   -2.4333   -2.7500    0.0000 C   0  0  0  0  0  0  0  0  0  0  0  0
   -3.0708   -3.1167    0.0000 C   0  0  0  0  0  0  0  0  0  0  0  0
   -2.4333   -4.9167    0.0000 O   0  0  0  0  0  0  0  0  0  0  0  0
   -3.7125   -4.2167    0.0000 O   0  0  0  0  0  0  0  0  0  0  0  0
   -3.0708   -5.2792    0.0000 C   0  0  0  0  0  0  0  0  0  0  0  0
   -3.7125   -4.9542    0.0000 C   0  0  0  0  0  0  0  0  0  0  0  0
  2  5  1  0  0  0  0
  3  2  2  0  0  0  0
  4  3  1  0  0  0  0
  5  9  1  0  0  0  0
  6  1  1  0  0  0  0
  7  1  1  0  0  0  0
  8  2  1  0  0  0  0
  9 12  1  0  0  0  0
 10  8  1  0  0  0  0
 11  4  1  0  0  0  0
 12  1  1  0  0  0  0
 13 11  1  0  0  0  0
 14 13  2  0  0  0  0
 15 22  2  0  0  0  0
 16  6  1  0  0  0  0
 17  7  1  0  0  0  0
 18  6  2  0  0  0  0
 19  7  2  0  0  0  0
 20  9  2  0  0  0  0
 21 11  2  0  0  0  0
 22 21  1  0  0  0  0
 23 14  1  0  0  0  0
 24 15  1  0  0  0  0
 25 23  1  0  0  0  0
 26 24  1  0  0  0  0
 17 16  1  0  0  0  0
  4 10  2  0  0  0  0
 14 15  1  0  0  0  0
M  END
> <IDNUMBER>
F0440-0344

> <Chemical_Name>
N-[4-(3,4-dimethoxyphenyl)-1,3-thiazol-2-yl]-2-(2,5-dioxopyrrolidin-1-yl)acetamide

> <CAS>
392324-62-8

> <PriceCoeff>
1.00

> <MW>
375.40

> <Description>
solid

> <FSP3>
0.29

> <clogP>
1.68

> <TPSA>
126.07

> <Acceptor>
6

> <Donor>
1

> <RotBonds>
6

> <HAC>
26

> <Collection>
General

$$$$
F0715-0438
  -ISIS-  06222321142D

 26 28  0  0  0  0  0  0  0  0999 V2000
   -3.1958   -2.5042    0.0000 N   0  0  3  0  0  0  0  0  0  0  0  0
   -1.4708   -1.6292    0.0000 C   0  0  0  0  0  0  0  0  0  0  0  0
   -0.8833   -1.8667    0.0000 N   0  0  0  0  0  0  0  0  0  0  0  0
   -0.4625   -1.4042    0.0000 C   0  0  0  0  0  0  0  0  0  0  0  0
    0.1667   -1.4042    0.0000 C   0  0  0  0  0  0  0  0  0  0  0  0
   -2.0208   -1.9292    0.0000 N   0  0  0  0  0  0  0  0  0  0  0  0
   -2.7208   -2.9292    0.0000 C   0  0  0  0  0  0  0  0  0  0  0  0
   -3.7333   -2.8167    0.0000 C   0  0  0  0  0  0  0  0  0  0  0  0
   -1.3958   -0.9875    0.0000 S   0  0  0  0  0  0  0  0  0  0  0  0
   -0.7708   -0.8667    0.0000 C   0  0  0  0  0  0  0  0  0  0  0  0
   -2.5500   -1.6042    0.0000 C   0  0  0  0  0  0  0  0  0  0  0  0
    0.4875   -1.9292    0.0000 C   0  0  0  0  0  0  0  0  0  0  0  0
   -3.1458   -1.8875    0.0000 C   0  0  0  0  0  0  0  0  0  0  0  0
    1.1375   -1.9542    0.0000 C   0  0  0  0  0  0  0  0  0  0  0  0
    0.4875   -0.8500    0.0000 C   0  0  0  0  0  0  0  0  0  0  0  0
   -3.0000   -3.4875    0.0000 C   0  0  0  0  0  0  0  0  0  0  0  0
   -3.6125   -3.4167    0.0000 C   0  0  0  0  0  0  0  0  0  0  0  0
   -2.0625   -2.7875    0.0000 O   0  0  0  0  0  0  0  0  0  0  0  0
   -4.3125   -2.5167    0.0000 O   0  0  0  0  0  0  0  0  0  0  0  0
   -2.5208   -0.9875    0.0000 O   0  0  0  0  0  0  0  0  0  0  0  0
    1.4500   -1.3875    0.0000 C   0  0  0  0  0  0  0  0  0  0  0  0
    1.1375   -0.8500    0.0000 C   0  0  0  0  0  0  0  0  0  0  0  0
    0.1667   -2.5292    0.0000 O   0  0  0  0  0  0  0  0  0  0  0  0
    2.0875   -1.4042    0.0000 O   0  0  0  0  0  0  0  0  0  0  0  0
    0.4792   -3.0542    0.0000 C   0  0  0  0  0  0  0  0  0  0  0  0
    2.4375   -0.8500    0.0000 C   0  0  0  0  0  0  0  0  0  0  0  0
  2  6  1  0  0  0  0
  3  2  2  0  0  0  0
  4  3  1  0  0  0  0
  5  4  1  0  0  0  0
  6 11  1  0  0  0  0
  7  1  1  0  0  0  0
  8  1  1  0  0  0  0
  9  2  1  0  0  0  0
 10  9  1  0  0  0  0
 11 13  1  0  0  0  0
 12  5  1  0  0  0  0
 13  1  1  0  0  0  0
 14 12  2  0  0  0  0
 15  5  2  0  0  0  0
 16  7  1  0  0  0  0
 17  8  1  0  0  0  0
 18  7  2  0  0  0  0
 19  8  2  0  0  0  0
 20 11  2  0  0  0  0
 21 22  2  0  0  0  0
 22 15  1  0  0  0  0
 23 12  1  0  0  0  0
 24 21  1  0  0  0  0
 25 23  1  0  0  0  0
 26 24  1  0  0  0  0
 16 17  1  0  0  0  0
  4 10  2  0  0  0  0
 14 21  1  0  0  0  0
M  END
> <IDNUMBER>
F0715-0438

> <Chemical_Name>
N-[4-(2,4-dimethoxyphenyl)-1,3-thiazol-2-yl]-2-(2,5-dioxopyrrolidin-1-yl)acetamide

> <CAS>
361481-82-5

> <PriceCoeff>
1.00

> <MW>
375.40

> <Description>
solid

> <FSP3>
0.29

> <clogP>
1.47

> <TPSA>
126.07

> <Acceptor>
6

> <Donor>
1

> <RotBonds>
6

> <HAC>
26

> <Collection>
General

$$$$
F5526-0468
  -ISIS-  06222321152D

 23 24  0  0  0  0  0  0  0  0999 V2000
   -1.3833    6.4042    0.0000 C   0  0  0  0  0  0  0  0  0  0  0  0
   -1.3833    5.6542    0.0000 C   0  0  0  0  0  0  0  0  0  0  0  0
   -0.7375    6.7792    0.0000 O   0  0  0  0  0  0  0  0  0  0  0  0
   -2.0333    6.7792    0.0000 N   0  0  0  0  0  0  0  0  0  0  0  0
   -2.0333    5.2792    0.0000 C   0  0  0  0  0  0  0  0  0  0  0  0
   -0.7375    5.2792    0.0000 C   0  0  0  0  0  0  0  0  0  0  0  0
   -1.3833    4.1542    0.0000 C   0  0  0  0  0  0  0  0  0  0  0  0
   -4.6458    6.7792    0.0000 C   0  0  0  0  0  0  0  0  0  0  0  0
   -5.9333    7.5292    0.0000 C   0  0  0  0  0  0  0  0  0  0  0  0
   -0.7375    4.5292    0.0000 C   0  0  0  0  0  0  0  0  0  0  0  0
   -2.0333    4.5292    0.0000 C   0  0  0  0  0  0  0  0  0  0  0  0
   -5.2875    6.4042    0.0000 C   0  0  0  0  0  0  0  0  0  0  0  0
   -5.2875    7.9042    0.0000 C   0  0  0  0  0  0  0  0  0  0  0  0
   -4.6458    7.5292    0.0000 C   0  0  0  0  0  0  0  0  0  0  0  0
   -5.9333    6.7792    0.0000 C   0  0  0  0  0  0  0  0  0  0  0  0
   -1.3750    3.4083    0.0000 O   0  0  0  0  0  0  0  0  0  0  0  0
   -6.5875    7.9167    0.0000 O   0  0  0  0  0  0  0  0  0  0  0  0
   -3.9833    6.4042    0.0000 O   0  0  0  0  0  0  0  0  0  0  0  0
   -2.6833    6.4042    0.0000 C   0  0  0  0  0  0  0  0  0  0  0  0
   -3.3333    6.7792    0.0000 C   0  0  0  0  0  0  0  0  0  0  0  0
   -6.5875    8.6667    0.0000 C   0  0  0  0  0  0  0  0  0  0  0  0
   -2.0208    3.0333    0.0000 C   0  0  0  0  0  0  0  0  0  0  0  0
   -7.2292    9.0417    0.0000 C   0  0  0  0  0  0  0  0  0  0  0  0
  2  1  1  0  0  0  0
  3  1  2  0  0  0  0
  4  1  1  0  0  0  0
  5  2  2  0  0  0  0
  6  2  1  0  0  0  0
  7 10  1  0  0  0  0
  8 18  1  0  0  0  0
  9 13  2  0  0  0  0
 10  6  2  0  0  0  0
 11  5  1  0  0  0  0
 12  8  1  0  0  0  0
 13 14  1  0  0  0  0
 14  8  2  0  0  0  0
 15 12  2  0  0  0  0
 16  7  1  0  0  0  0
 17  9  1  0  0  0  0
 18 20  1  0  0  0  0
 19  4  1  0  0  0  0
 20 19  1  0  0  0  0
 21 17  1  0  0  0  0
 22 16  1  0  0  0  0
 23 21  1  0  0  0  0
 11  7  2  0  0  0  0
 15  9  1  0  0  0  0
M  END
> <IDNUMBER>
F5526-0468

> <Chemical_Name>
N-[2-(4-ethoxyphenoxy)ethyl]-4-methoxybenzamide

> <CAS>
1170934-01-6

> <PriceCoeff>
1.00

> <MW>
315.36

> <Description>
solid

> <FSP3>
0.28

> <clogP>
3.68

> <TPSA>
56.79

> <Acceptor>
4

> <Donor>
1

> <RotBonds>
8

> <HAC>
23

> <Collection>
General

> <Reference_compound>
CHEMBL8441

> <Similarity>
0.8080

$$$$
F6195-0976
  -ISIS-  06222321152D

 28 31  0  0  0  0  0  0  0  0999 V2000
   -4.5708    3.8000    0.0000 S   0  0  3  0  0  0  0  0  0  0  0  0
   -1.1583    4.6417    0.0000 C   0  0  0  0  0  0  0  0  0  0  0  0
   -2.4333    4.2125    0.0000 C   0  0  0  0  0  0  0  0  0  0  0  0
   -6.7042    3.3583    0.0000 N   0  0  3  0  0  0  0  0  0  0  0  0
   -3.8583    4.2125    0.0000 N   0  0  3  0  0  0  0  0  0  0  0  0
   -1.6458    5.3042    0.0000 N   0  0  0  0  0  0  0  0  0  0  0  0
   -1.6375    3.9708    0.0000 S   0  0  0  0  0  0  0  0  0  0  0  0
   -0.3250    4.6417    0.0000 N   0  0  0  0  0  0  0  0  0  0  0  0
   -2.4375    5.0417    0.0000 C   0  0  0  0  0  0  0  0  0  0  0  0
    0.0875    5.3542    0.0000 C   0  0  0  0  0  0  0  0  0  0  0  0
   -3.1583    3.8083    0.0000 C   0  0  0  0  0  0  0  0  0  0  0  0
   -5.2833    3.3833    0.0000 C   0  0  0  0  0  0  0  0  0  0  0  0
   -6.6917    2.5333    0.0000 C   0  0  0  0  0  0  0  0  0  0  0  0
   -7.4292    3.7583    0.0000 C   0  0  0  0  0  0  0  0  0  0  0  0
    0.9167    5.3667    0.0000 C   0  0  3  0  0  0  0  0  0  0  0  0
   -6.0000    3.7833    0.0000 C   0  0  0  0  0  0  0  0  0  0  0  0
    1.6292    4.9625    0.0000 C   0  0  0  0  0  0  0  0  0  0  0  0
    1.6292    5.7792    0.0000 C   0  0  0  0  0  0  0  0  0  0  0  0
   -3.1583    5.4542    0.0000 C   0  0  0  0  0  0  0  0  0  0  0  0
   -4.1458    3.1083    0.0000 O   0  0  0  0  0  0  0  0  0  0  0  0
   -4.9958    4.5042    0.0000 O   0  0  0  0  0  0  0  0  0  0  0  0
   -3.8583    5.0417    0.0000 C   0  0  0  0  0  0  0  0  0  0  0  0
   -0.3333    6.0750    0.0000 O   0  0  0  0  0  0  0  0  0  0  0  0
   -7.4500    4.5750    0.0000 O   0  0  0  0  0  0  0  0  0  0  0  0
   -5.9708    2.1333    0.0000 O   0  0  0  0  0  0  0  0  0  0  0  0
   -7.3917    2.1000    0.0000 C   0  0  0  0  0  0  0  0  0  0  0  0
   -8.1292    3.3333    0.0000 C   0  0  0  0  0  0  0  0  0  0  0  0
   -8.1167    2.5000    0.0000 C   0  0  0  0  0  0  0  0  0  0  0  0
  2  7  1  0  0  0  0
  3 11  1  0  0  0  0
  4 16  1  0  0  0  0
  5  1  1  0  0  0  0
  6  9  1  0  0  0  0
  7  3  1  0  0  0  0
  8  2  1  0  0  0  0
  9 19  1  0  0  0  0
 10  8  1  0  0  0  0
 11  5  1  0  0  0  0
 12  1  1  0  0  0  0
 13  4  1  0  0  0  0
 14  4  1  0  0  0  0
 15 10  1  0  0  0  0
 16 12  1  0  0  0  0
 17 15  1  0  0  0  0
 18 15  1  0  0  0  0
 19 22  1  0  0  0  0
 20  1  2  0  0  0  0
 21  1  2  0  0  0  0
 22  5  1  0  0  0  0
 23 10  2  0  0  0  0
 24 14  2  0  0  0  0
 25 13  2  0  0  0  0
 26 13  1  0  0  0  0
 27 14  1  0  0  0  0
 28 27  1  0  0  0  0
  9  3  2  0  0  0  0
  2  6  2  0  0  0  0
 28 26  1  0  0  0  0
 18 17  1  0  0  0  0
M  END
> <IDNUMBER>
F6195-0976

> <Chemical_Name>
N-{5-[2-(2,6-dioxopiperidin-1-yl)ethanesulfonyl]-4H,5H,6H,7H-[1,3]thiazolo[5,4-c]pyridin-2-yl}cyclopropanecarboxamide

> <CAS>
1351631-43-0

> <PriceCoeff>
1.00

> <MW>
426.51

> <Description>
solid

> <FSP3>
0.65

> <clogP>
0.54

> <TPSA>
153.37

> <Acceptor>
6

> <Donor>
1

> <RotBonds>
6

> <HAC>
28

> <Collection>
General

$$$$
F3095-0745
  -ISIS-  06222321462D

 19 21  0  0  0  0  0  0  0  0999 V2000
    0.7375   -0.3917    0.0000 N   0  0  3  0  0  0  0  0  0  0  0  0
   -0.3208   -0.3792    0.0000 C   0  0  0  0  0  0  0  0  0  0  0  0
    1.1042    0.2708    0.0000 C   0  0  0  0  0  0  0  0  0  0  0  0
   -1.0750   -0.3792    0.0000 C   0  0  0  0  0  0  0  0  0  0  0  0
   -0.3208    0.3708    0.0000 O   0  0  0  0  0  0  0  0  0  0  0  0
    1.8542    0.2708    0.0000 C   0  0  0  0  0  0  0  0  0  0  0  0
   -1.4458    0.2708    0.0000 C   0  0  0  0  0  0  0  0  0  0  0  0
   -1.4458   -1.0292    0.0000 C   0  0  0  0  0  0  0  0  0  0  0  0
    1.1167   -1.0292    0.0000 C   0  0  0  0  0  0  0  0  0  0  0  0
   -2.5750   -0.3792    0.0000 C   0  0  0  0  0  0  0  0  0  0  0  0
   -2.2000   -1.0292    0.0000 C   0  0  0  0  0  0  0  0  0  0  0  0
   -2.1958    0.2708    0.0000 C   0  0  0  0  0  0  0  0  0  0  0  0
   -3.3208   -0.3792    0.0000 Br  0  0  0  0  0  0  0  0  0  0  0  0
    0.7250    0.9208    0.0000 C   0  0  0  0  0  0  0  0  0  0  0  0
    1.8625   -1.0292    0.0000 C   0  0  0  0  0  0  0  0  0  0  0  0
    2.2375   -0.3792    0.0000 C   0  0  0  0  0  0  0  0  0  0  0  0
    2.2375    0.9208    0.0000 C   0  0  0  0  0  0  0  0  0  0  0  0
    1.1042    1.5708    0.0000 C   0  0  0  0  0  0  0  0  0  0  0  0
    1.8542    1.5708    0.0000 C   0  0  0  0  0  0  0  0  0  0  0  0
  2  1  1  0  0  0  0
  3  1  1  0  0  0  0
  4  2  1  0  0  0  0
  5  2  2  0  0  0  0
  6  3  2  0  0  0  0
  7  4  1  0  0  0  0
  8  4  2  0  0  0  0
  9  1  1  0  0  0  0
 10 11  2  0  0  0  0
 11  8  1  0  0  0  0
 12  7  2  0  0  0  0
 13 10  1  0  0  0  0
 14  3  1  0  0  0  0
 15  9  1  0  0  0  0
 16 15  1  0  0  0  0
 17  6  1  0  0  0  0
 18 14  2  0  0  0  0
 19 18  1  0  0  0  0
  6 16  1  0  0  0  0
 17 19  2  0  0  0  0
 12 10  1  0  0  0  0
M  END
> <IDNUMBER>
F3095-0745

> <Chemical_Name>
1-(4-bromobenzoyl)-1,2,3,4-tetrahydroquinoline

> <CAS>
301228-31-9

> <PriceCoeff>
1.00

> <MW>
316.19

> <Description>
solid

> <FSP3>
0.19

> <clogP>
3.98

> <TPSA>
20.31

> <Acceptor>
1

> <Donor>
0

> <RotBonds>
2

> <HAC>
19

> <Collection>
General

> <Reference_compound>
CHEMBL2286415

> <Similarity>
0.8010

$$$$
F2040-0434
  -ISIS-  06222321442D

 24 26  0  0  0  0  0  0  0  0999 V2000
   -3.0333    7.5042    0.0000 N   0  0  3  0  0  0  0  0  0  0  0  0
   -3.0333    6.6792    0.0000 C   0  0  0  0  0  0  0  0  0  0  0  0
   -3.7500    3.8000    0.0000 C   0  0  0  0  0  0  0  0  0  0  0  0
   -3.7458    7.9250    0.0000 C   0  0  0  0  0  0  0  0  0  0  0  0
   -2.3208    6.2667    0.0000 C   0  0  0  0  0  0  0  0  0  0  0  0
   -3.0375    4.2125    0.0000 N   0  0  0  0  0  0  0  0  0  0  0  0
   -3.7458    6.2792    0.0000 C   0  0  0  0  0  0  0  0  0  0  0  0
   -3.7583    2.9833    0.0000 C   0  0  0  0  0  0  0  0  0  0  0  0
   -3.0375    5.0292    0.0000 C   0  0  0  0  0  0  0  0  0  0  0  0
   -2.3208    5.4417    0.0000 C   0  0  0  0  0  0  0  0  0  0  0  0
   -4.4708    4.2042    0.0000 O   0  0  0  0  0  0  0  0  0  0  0  0
   -4.4708    7.5167    0.0000 O   0  0  0  0  0  0  0  0  0  0  0  0
   -3.0458    2.5583    0.0000 C   0  0  0  0  0  0  0  0  0  0  0  0
   -4.4708    2.5708    0.0000 C   0  0  0  0  0  0  0  0  0  0  0  0
   -3.7583    5.4542    0.0000 C   0  0  0  0  0  0  0  0  0  0  0  0
   -2.3125    7.9167    0.0000 C   0  0  0  0  0  0  0  0  0  0  0  0
   -3.7625    1.3208    0.0000 C   0  0  0  0  0  0  0  0  0  0  0  0
   -3.0458    1.7333    0.0000 C   0  0  0  0  0  0  0  0  0  0  0  0
   -4.4750    1.7375    0.0000 C   0  0  0  0  0  0  0  0  0  0  0  0
   -3.7708    0.4958    0.0000 Cl  0  0  0  0  0  0  0  0  0  0  0  0
   -1.6083    6.6750    0.0000 C   0  0  0  0  0  0  0  0  0  0  0  0
   -3.7458    8.7500    0.0000 C   0  0  0  0  0  0  0  0  0  0  0  0
   -1.6000    7.5000    0.0000 C   0  0  0  0  0  0  0  0  0  0  0  0
   -3.0333    9.1625    0.0000 C   0  0  0  0  0  0  0  0  0  0  0  0
  2  1  1  0  0  0  0
  3  6  1  0  0  0  0
  4  1  1  0  0  0  0
  5  2  2  0  0  0  0
  6  9  1  0  0  0  0
  7  2  1  0  0  0  0
  8  3  1  0  0  0  0
  9 15  1  0  0  0  0
 10  5  1  0  0  0  0
 11  3  2  0  0  0  0
 12  4  2  0  0  0  0
 13  8  1  0  0  0  0
 14  8  2  0  0  0  0
 15  7  2  0  0  0  0
 16  1  1  0  0  0  0
 17 19  2  0  0  0  0
 18 13  2  0  0  0  0
 19 14  1  0  0  0  0
 20 17  1  0  0  0  0
 21 23  1  0  0  0  0
 22  4  1  0  0  0  0
 23 16  1  0  0  0  0
 24 22  1  0  0  0  0
 21  5  1  0  0  0  0
  9 10  2  0  0  0  0
 17 18  1  0  0  0  0
M  END
> <IDNUMBER>
F2040-0434

> <Chemical_Name>
4-chloro-N-(1-propanoyl-1,2,3,4-tetrahydroquinolin-6-yl)benzamide

> <CAS>
946368-21-4

> <PriceCoeff>
1.00

> <MW>
342.82

> <Description>
solid

> <FSP3>
0.26

> <clogP>
3.72

> <TPSA>
49.41

> <Acceptor>
2

> <Donor>
1

> <RotBonds>
4

> <HAC>
24

> <Collection>
General

> <Reference_compound>
CHEMBL2286415

> <Similarity>
0.8320

$$$$
F0882-0957
  -ISIS-  06222321142D

 24 26  0  0  0  0  0  0  0  0999 V2000
   -5.2958    3.8000    0.0000 N   0  0  3  0  0  0  0  0  0  0  0  0
   -3.1583    5.0417    0.0000 C   0  0  0  0  0  0  0  0  0  0  0  0
   -3.8083    5.5542    0.0000 N   0  0  0  0  0  0  0  0  0  0  0  0
   -3.5208    6.3167    0.0000 C   0  0  0  0  0  0  0  0  0  0  0  0
   -4.0458    6.9375    0.0000 C   0  0  0  0  0  0  0  0  0  0  0  0
   -3.1583    4.2042    0.0000 N   0  0  0  0  0  0  0  0  0  0  0  0
   -5.4125    2.9875    0.0000 C   0  0  0  0  0  0  0  0  0  0  0  0
   -6.0292    4.1250    0.0000 C   0  0  0  0  0  0  0  0  0  0  0  0
   -2.4958    5.5000    0.0000 S   0  0  0  0  0  0  0  0  0  0  0  0
   -2.7000    6.2750    0.0000 C   0  0  0  0  0  0  0  0  0  0  0  0
   -3.8708    3.8000    0.0000 C   0  0  0  0  0  0  0  0  0  0  0  0
   -4.8583    6.8000    0.0000 C   0  0  0  0  0  0  0  0  0  0  0  0
   -4.5833    4.2042    0.0000 C   0  0  0  0  0  0  0  0  0  0  0  0
   -5.3833    7.4417    0.0000 C   0  0  0  0  0  0  0  0  0  0  0  0
   -3.7625    7.7167    0.0000 C   0  0  0  0  0  0  0  0  0  0  0  0
   -6.2000    2.8375    0.0000 C   0  0  0  0  0  0  0  0  0  0  0  0
   -6.5667    3.5333    0.0000 C   0  0  0  0  0  0  0  0  0  0  0  0
   -4.7875    2.3958    0.0000 O   0  0  0  0  0  0  0  0  0  0  0  0
   -6.2292    4.9667    0.0000 O   0  0  0  0  0  0  0  0  0  0  0  0
   -3.8708    2.9833    0.0000 O   0  0  0  0  0  0  0  0  0  0  0  0
   -5.1000    8.2125    0.0000 C   0  0  0  0  0  0  0  0  0  0  0  0
   -5.1583    6.0292    0.0000 Cl  0  0  0  0  0  0  0  0  0  0  0  0
   -4.2875    8.3500    0.0000 C   0  0  0  0  0  0  0  0  0  0  0  0
   -5.6458    8.8417    0.0000 Cl  0  0  0  0  0  0  0  0  0  0  0  0
  2  6  1  0  0  0  0
  3  2  2  0  0  0  0
  4  3  1  0  0  0  0
  5  4  1  0  0  0  0
  6 11  1  0  0  0  0
  7  1  1  0  0  0  0
  8  1  1  0  0  0  0
  9  2  1  0  0  0  0
 10  9  1  0  0  0  0
 11 13  1  0  0  0  0
 12  5  2  0  0  0  0
 13  1  1  0  0  0  0
 14 12  1  0  0  0  0
 15  5  1  0  0  0  0
 16  7  1  0  0  0  0
 17  8  1  0  0  0  0
 18  7  2  0  0  0  0
 19  8  2  0  0  0  0
 20 11  2  0  0  0  0
 21 23  1  0  0  0  0
 22 12  1  0  0  0  0
 23 15  2  0  0  0  0
 24 21  1  0  0  0  0
 16 17  1  0  0  0  0
  4 10  2  0  0  0  0
 14 21  2  0  0  0  0
M  END
> <IDNUMBER>
F0882-0957

> <Chemical_Name>
N-[4-(2,4-dichlorophenyl)-1,3-thiazol-2-yl]-2-(2,5-dioxopyrrolidin-1-yl)acetamide

> <CAS>
477569-12-3

> <PriceCoeff>
1.00

> <MW>
384.24

> <Description>
solid

> <FSP3>
0.20

> <clogP>
3.13

> <TPSA>
107.61

> <Acceptor>
4

> <Donor>
1

> <RotBonds>
4

> <HAC>
24

> <Collection>
General

$$$$
F3350-0562
  -ISIS-  06222321442D

 24 26  0  0  0  0  0  0  0  0999 V2000
    4.6625   -2.1167    0.0000 S   0  0  3  0  0  0  0  0  0  0  0  0
    7.5042   -3.7667    0.0000 N   0  0  3  0  0  0  0  0  0  0  0  0
    7.5917   -4.5917    0.0000 C   0  0  0  0  0  0  0  0  0  0  0  0
    8.2625   -3.4375    0.0000 C   0  0  0  0  0  0  0  0  0  0  0  0
    3.9500   -1.7125    0.0000 N   0  0  0  0  0  0  0  0  0  0  0  0
    5.3750   -2.5292    0.0000 C   0  0  0  0  0  0  0  0  0  0  0  0
    6.7917   -3.3542    0.0000 C   0  0  0  0  0  0  0  0  0  0  0  0
    4.2500   -2.8375    0.0000 O   0  0  0  0  0  0  0  0  0  0  0  0
    5.0750   -1.4125    0.0000 O   0  0  0  0  0  0  0  0  0  0  0  0
    8.8125   -4.0542    0.0000 C   0  0  0  0  0  0  0  0  0  0  0  0
    8.4000   -4.7667    0.0000 C   0  0  0  0  0  0  0  0  0  0  0  0
    6.9792   -5.1417    0.0000 O   0  0  0  0  0  0  0  0  0  0  0  0
    8.4417   -2.6292    0.0000 O   0  0  0  0  0  0  0  0  0  0  0  0
    6.0792   -2.1250    0.0000 C   0  0  0  0  0  0  0  0  0  0  0  0
    5.3750   -3.3542    0.0000 C   0  0  0  0  0  0  0  0  0  0  0  0
    6.7917   -2.5375    0.0000 C   0  0  0  0  0  0  0  0  0  0  0  0
    6.0875   -3.7625    0.0000 C   0  0  0  0  0  0  0  0  0  0  0  0
    3.2292   -1.3125    0.0000 C   0  0  0  0  0  0  0  0  0  0  0  0
    1.7875   -0.4917    0.0000 C   0  0  0  0  0  0  0  0  0  0  0  0
    3.2125   -0.4792    0.0000 C   0  0  0  0  0  0  0  0  0  0  0  0
    2.5167   -1.7292    0.0000 C   0  0  0  0  0  0  0  0  0  0  0  0
    1.7917   -1.3250    0.0000 C   0  0  0  0  0  0  0  0  0  0  0  0
    2.4917   -0.0792    0.0000 C   0  0  0  0  0  0  0  0  0  0  0  0
    1.0667   -0.0875    0.0000 C   0  0  0  0  0  0  0  0  0  0  0  0
  2  7  1  0  0  0  0
  3  2  1  0  0  0  0
  4  2  1  0  0  0  0
  5  1  1  0  0  0  0
  6  1  1  0  0  0  0
  7 17  2  0  0  0  0
  8  1  2  0  0  0  0
  9  1  2  0  0  0  0
 10  4  1  0  0  0  0
 11  3  1  0  0  0  0
 12  3  2  0  0  0  0
 13  4  2  0  0  0  0
 14  6  1  0  0  0  0
 15  6  2  0  0  0  0
 16 14  2  0  0  0  0
 17 15  1  0  0  0  0
 18  5  1  0  0  0  0
 19 22  2  0  0  0  0
 20 18  1  0  0  0  0
 21 18  2  0  0  0  0
 22 21  1  0  0  0  0
 23 20  2  0  0  0  0
 24 19  1  0  0  0  0
  7 16  1  0  0  0  0
 19 23  1  0  0  0  0
 10 11  1  0  0  0  0
M  END
> <IDNUMBER>
F3350-0562

> <Chemical_Name>
4-(2,5-dioxopyrrolidin-1-yl)-N-(4-methylphenyl)benzene-1-sulfonamide

> <CAS>
331432-28-1

> <PriceCoeff>
1.00

> <MW>
344.38

> <Description>
solid

> <FSP3>
0.18

> <clogP>
1.25

> <TPSA>
91.93

> <Acceptor>
5

> <Donor>
1

> <RotBonds>
4

> <HAC>
24

> <Collection>
General

$$$$
F2019-2765
  -ISIS-  06222304352D

 29 30  0  0  0  0  0  0  0  0999 V2000
   -3.1583    2.9833    0.0000 C   0  0  0  0  0  0  0  0  0  0  0  0
   -3.9125    2.6458    0.0000 N   0  0  0  0  0  0  0  0  0  0  0  0
   -0.2958    2.9833    0.0000 N   0  0  3  0  0  0  0  0  0  0  0  0
   -2.4375    2.5625    0.0000 N   0  0  3  0  0  0  0  0  0  0  0  0
   -4.4708    3.2583    0.0000 C   0  0  0  0  0  0  0  0  0  0  0  0
   -3.2458    3.8083    0.0000 S   0  0  0  0  0  0  0  0  0  0  0  0
   -4.0583    3.9708    0.0000 C   0  0  0  0  0  0  0  0  0  0  0  0
   -1.7250    2.9833    0.0000 C   0  0  0  0  0  0  0  0  0  0  0  0
   -1.0125    2.5625    0.0000 C   0  0  0  0  0  0  0  0  0  0  0  0
   -0.2125    3.8000    0.0000 C   0  0  0  0  0  0  0  0  0  0  0  0
    0.4542    2.6458    0.0000 C   0  0  0  0  0  0  0  0  0  0  0  0
   -5.2833    3.2458    0.0000 C   0  0  0  0  0  0  0  0  0  0  0  0
   -4.4708    4.6667    0.0000 C   0  0  0  0  0  0  0  0  0  0  0  0
   -5.6958    3.9583    0.0000 C   0  0  0  0  0  0  0  0  0  0  0  0
   -5.2958    4.6667    0.0000 C   0  0  0  0  0  0  0  0  0  0  0  0
   -1.7250    3.8000    0.0000 O   0  0  0  0  0  0  0  0  0  0  0  0
    0.5917    3.9708    0.0000 C   0  0  0  0  0  0  0  0  0  0  0  0
    1.0125    3.2583    0.0000 C   0  0  0  0  0  0  0  0  0  0  0  0
   -0.8125    4.3417    0.0000 O   0  0  0  0  0  0  0  0  0  0  0  0
    0.6292    1.8333    0.0000 O   0  0  0  0  0  0  0  0  0  0  0  0
   -5.6958    2.5333    0.0000 F   0  0  0  0  0  0  0  0  0  0  0  0
   -2.4375    1.7375    0.0000 C   0  0  0  0  0  0  0  0  0  0  0  0
   -3.1583    1.3250    0.0000 C   0  0  0  0  0  0  0  0  0  0  0  0
   -3.8708    0.0875    0.0000 N   0  0  3  0  0  0  0  0  0  0  0  0
   -5.7208    5.3917    0.0000 F   0  0  0  0  0  0  0  0  0  0  0  0
   -3.1583    0.5000    0.0000 C   0  0  0  0  0  0  0  0  0  0  0  0
   -3.8708   -0.7375    0.0000 C   0  0  0  0  0  0  0  0  0  0  0  0
   -4.5833    0.5000    0.0000 C   0  0  0  0  0  0  0  0  0  0  0  0
    2.4000    2.4792    0.0000 Cl  0  0  0  0  0  0  0  0  0  0  0  0
  3  9  1  0  0  0  0
  4  1  1  0  0  0  0
  5  2  1  0  0  0  0
  6  1  1  0  0  0  0
  7  6  1  0  0  0  0
  8  4  1  0  0  0  0
  9  8  1  0  0  0  0
 10  3  1  0  0  0  0
 11  3  1  0  0  0  0
 12  5  1  0  0  0  0
 13  7  1  0  0  0  0
 14 12  2  0  0  0  0
 15 13  2  0  0  0  0
 16  8  2  0  0  0  0
 17 10  1  0  0  0  0
 18 11  1  0  0  0  0
 19 10  2  0  0  0  0
 20 11  2  0  0  0  0
 21 12  1  0  0  0  0
 22  4  1  0  0  0  0
 23 22  1  0  0  0  0
 24 26  1  0  0  0  0
 25 15  1  0  0  0  0
 26 23  1  0  0  0  0
 27 24  1  0  0  0  0
 28 24  1  0  0  0  0
  7  5  2  0  0  0  0
 14 15  1  0  0  0  0
 17 18  1  0  0  0  0
  2  1  2  0  0  0  0
M  END
> <IDNUMBER>
F2019-2765

> <Chemical_Name>
N-(4,6-difluoro-1,3-benzothiazol-2-yl)-N-[3-(dimethylamino)propyl]-2-(2,5-dioxopyrrolidin-1-yl)acetamide hydrochloride

> <CAS>
1215613-88-9

> <PriceCoeff>
1.00

> <MW>
410.44

> <Description>
solid

> <FSP3>
0.44

> <clogP>
1.87

> <TPSA>
102.06

> <Acceptor>
4

> <Donor>
1

> <RotBonds>
8

> <HAC>
28

> <Collection>
General

$$$$
F2496-3406
  -ISIS-  06222321142D

 27 30  0  0  0  0  0  0  0  0999 V2000
   -3.5708    4.5542    0.0000 N   0  0  3  0  0  0  0  0  0  0  0  0
   -3.7750    2.1458    0.0000 C   0  0  0  0  0  0  0  0  0  0  0  0
   -2.6208    1.4708    0.0000 N   0  0  0  0  0  0  0  0  0  0  0  0
   -4.3958    4.5792    0.0000 C   0  0  0  0  0  0  0  0  0  0  0  0
   -3.2833    5.3167    0.0000 C   0  0  0  0  0  0  0  0  0  0  0  0
   -3.1458    2.6875    0.0000 C   0  0  0  0  0  0  0  0  0  0  0  0
   -3.4458    1.3833    0.0000 O   0  0  0  0  0  0  0  0  0  0  0  0
   -2.4458    2.2833    0.0000 C   0  0  0  0  0  0  0  0  0  0  0  0
   -4.5833    2.3333    0.0000 C   0  0  0  0  0  0  0  0  0  0  0  0
   -3.1083    3.8833    0.0000 C   0  0  0  0  0  0  0  0  0  0  0  0
   -6.0125    2.2458    0.0000 C   0  0  0  0  0  0  0  0  0  0  0  0
   -5.2833    1.8708    0.0000 C   0  0  0  0  0  0  0  0  0  0  0  0
   -2.2833    3.9333    0.0000 C   0  0  0  0  0  0  0  0  0  0  0  0
   -6.0542    3.0833    0.0000 C   0  0  0  0  0  0  0  0  0  0  0  0
   -6.7042    1.7875    0.0000 O   0  0  0  0  0  0  0  0  0  0  0  0
   -4.6250    5.3667    0.0000 C   0  0  0  0  0  0  0  0  0  0  0  0
   -3.9375    5.8292    0.0000 C   0  0  0  0  0  0  0  0  0  0  0  0
   -2.4875    5.5417    0.0000 O   0  0  0  0  0  0  0  0  0  0  0  0
   -4.8958    3.9333    0.0000 O   0  0  0  0  0  0  0  0  0  0  0  0
   -6.8042    3.4458    0.0000 O   0  0  0  0  0  0  0  0  0  0  0  0
   -4.6250    3.1583    0.0000 C   0  0  0  0  0  0  0  0  0  0  0  0
   -1.9208    4.6667    0.0000 O   0  0  0  0  0  0  0  0  0  0  0  0
   -5.3708    3.5250    0.0000 C   0  0  0  0  0  0  0  0  0  0  0  0
   -1.6083    3.4583    0.0000 O   0  0  0  0  0  0  0  0  0  0  0  0
   -1.6833    2.6333    0.0000 C   0  0  0  0  0  0  0  0  0  0  0  0
   -7.4625    2.1625    0.0000 C   0  0  0  0  0  0  0  0  0  0  0  0
   -7.5042    2.9958    0.0000 C   0  0  0  0  0  0  0  0  0  0  0  0
  2  6  2  0  0  0  0
  3  8  2  0  0  0  0
  4  1  1  0  0  0  0
  5  1  1  0  0  0  0
  6  8  1  0  0  0  0
  7  3  1  0  0  0  0
  8 25  1  0  0  0  0
  9  2  1  0  0  0  0
 10  1  1  0  0  0  0
 11 12  2  0  0  0  0
 12  9  1  0  0  0  0
 13 10  1  0  0  0  0
 14 23  2  0  0  0  0
 15 11  1  0  0  0  0
 16  4  1  0  0  0  0
 17  5  1  0  0  0  0
 18  5  2  0  0  0  0
 19  4  2  0  0  0  0
 20 14  1  0  0  0  0
 21  9  2  0  0  0  0
 22 13  2  0  0  0  0
 23 21  1  0  0  0  0
 24 13  1  0  0  0  0
 25 24  1  0  0  0  0
 26 15  1  0  0  0  0
 27 20  1  0  0  0  0
 17 16  1  0  0  0  0
  2  7  1  0  0  0  0
 14 11  1  0  0  0  0
 26 27  1  0  0  0  0
M  END
> <IDNUMBER>
F2496-3406

> <Chemical_Name>
[5-(2,3-dihydro-1,4-benzodioxin-6-yl)-1,2-oxazol-3-yl]methyl 2-(2,5-dioxopyrrolidin-1-yl)acetate

> <CAS>
1203105-87-6

> <PriceCoeff>
1.00

> <MW>
372.33

> <Description>
solid

> <FSP3>
0.33

> <clogP>
1.39

> <TPSA>
108.17

> <Acceptor>
8

> <Donor>
0

> <RotBonds>
6

> <HAC>
27

> <Collection>
General

$$$$
F3318-0187
  -ISIS-  06222321152D

 19 21  0  0  0  0  0  0  0  0999 V2000
    1.9250    1.7083    0.0000 N   0  0  3  0  0  0  0  0  0  0  0  0
    2.1292    0.9083    0.0000 C   0  0  0  0  0  0  0  0  0  0  0  0
    2.4125    2.3708    0.0000 C   0  0  3  0  0  0  0  0  0  0  0  0
    1.1417    1.9583    0.0000 C   0  0  0  0  0  0  0  0  0  0  0  0
    1.1417    2.7833    0.0000 C   0  0  0  0  0  0  0  0  0  0  0  0
    1.9250    3.0458    0.0000 C   0  0  0  0  0  0  0  0  0  0  0  0
    2.9292    0.6958    0.0000 C   0  0  0  0  0  0  0  0  0  0  0  0
    1.5500    0.3333    0.0000 O   0  0  0  0  0  0  0  0  0  0  0  0
    3.1417   -0.0917    0.0000 C   0  0  0  0  0  0  0  0  0  0  0  0
    3.5042    1.2833    0.0000 C   0  0  0  0  0  0  0  0  0  0  0  0
    4.5167    0.2708    0.0000 C   0  0  0  0  0  0  0  0  0  0  0  0
    4.3042    1.0708    0.0000 C   0  0  0  0  0  0  0  0  0  0  0  0
    3.9375   -0.3125    0.0000 C   0  0  0  0  0  0  0  0  0  0  0  0
    5.3167    0.0583    0.0000 Cl  0  0  0  0  0  0  0  0  0  0  0  0
    3.2375    2.3708    0.0000 C   0  0  0  0  0  0  0  0  0  0  0  0
    0.4250    1.5458    0.0000 C   0  0  0  0  0  0  0  0  0  0  0  0
    0.4250    3.1958    0.0000 C   0  0  0  0  0  0  0  0  0  0  0  0
   -0.2875    1.9583    0.0000 C   0  0  0  0  0  0  0  0  0  0  0  0
   -0.2875    2.7833    0.0000 C   0  0  0  0  0  0  0  0  0  0  0  0
  2  1  1  0  0  0  0
  3  1  1  0  0  0  0
  4  1  1  0  0  0  0
  5  4  1  0  0  0  0
  6  3  1  0  0  0  0
  7  2  1  0  0  0  0
  8  2  2  0  0  0  0
  9  7  2  0  0  0  0
 10  7  1  0  0  0  0
 11 12  1  0  0  0  0
 12 10  2  0  0  0  0
 13  9  1  0  0  0  0
 14 11  1  0  0  0  0
 15  3  1  0  0  0  0
 16  4  2  0  0  0  0
 17  5  2  0  0  0  0
 18 16  1  0  0  0  0
 19 18  2  0  0  0  0
  6  5  1  0  0  0  0
 17 19  1  0  0  0  0
 13 11  2  0  0  0  0
M  END
> <IDNUMBER>
F3318-0187

> <Chemical_Name>
1-(4-chlorobenzoyl)-2-methyl-2,3-dihydro-1H-indole

> <CAS>
879581-19-8

> <PriceCoeff>
1.00

> <MW>
271.74

> <Description>
solid

> <FSP3>
0.19

> <clogP>
3.94

> <TPSA>
20.31

> <Acceptor>
1

> <Donor>
0

> <RotBonds>
2

> <HAC>
19

> <Collection>
General

> <Reference_compound>
CHEMBL2286415

> <Similarity>
0.8990

$$$$
F0739-0015
  -ISIS-  06222321142D

 26 28  0  0  0  0  0  0  0  0999 V2000
   -3.1708   -0.5792    0.0000 C   0  0  0  0  0  0  0  0  0  0  0  0
   -2.8958   -1.4167    0.0000 C   0  0  0  0  0  0  0  0  0  0  0  0
   -1.7125   -0.1167    0.0000 N   0  0  3  0  0  0  0  0  0  0  0  0
   -1.4500   -0.9375    0.0000 C   0  0  0  0  0  0  0  0  0  0  0  0
   -2.0333   -1.6000    0.0000 N   0  0  0  0  0  0  0  0  0  0  0  0
   -2.5708    0.0833    0.0000 C   0  0  0  0  0  0  0  0  0  0  0  0
   -3.6125   -1.9375    0.0000 S   0  0  0  0  0  0  0  0  0  0  0  0
   -4.0500   -0.5542    0.0000 C   0  0  0  0  0  0  0  0  0  0  0  0
   -4.3125   -1.4000    0.0000 C   0  0  0  0  0  0  0  0  0  0  0  0
   -0.5500   -1.1167    0.0000 S   0  0  0  0  0  0  0  0  0  0  0  0
   -1.1125    0.5208    0.0000 C   0  0  0  0  0  0  0  0  0  0  0  0
   -2.8333    0.9458    0.0000 O   0  0  0  0  0  0  0  0  0  0  0  0
    0.8875   -0.6000    0.0000 C   0  0  0  0  0  0  0  0  0  0  0  0
    1.1875   -1.4375    0.0000 O   0  0  0  0  0  0  0  0  0  0  0  0
    0.0292   -0.4375    0.0000 C   0  0  0  0  0  0  0  0  0  0  0  0
    1.4500    0.0625    0.0000 N   0  0  0  0  0  0  0  0  0  0  0  0
   -4.5958    0.1625    0.0000 C   0  0  0  0  0  0  0  0  0  0  0  0
   -5.1708   -1.6792    0.0000 C   0  0  0  0  0  0  0  0  0  0  0  0
    3.7500    0.4625    0.0000 O   0  0  0  0  0  0  0  0  0  0  0  0
   -0.2500    0.3458    0.0000 C   0  0  0  0  0  0  0  0  0  0  0  0
   -1.3708    1.3625    0.0000 C   0  0  0  0  0  0  0  0  0  0  0  0
    2.3042   -0.0792    0.0000 C   0  0  0  0  0  0  0  0  0  0  0  0
    2.8667    0.6000    0.0000 C   0  0  0  0  0  0  0  0  0  0  0  0
   -0.7708    2.0208    0.0000 C   0  0  0  0  0  0  0  0  0  0  0  0
    0.3292    1.0000    0.0000 C   0  0  0  0  0  0  0  0  0  0  0  0
    0.0500    1.8458    0.0000 C   0  0  0  0  0  0  0  0  0  0  0  0
  2  1  2  0  0  0  0
  3  6  1  0  0  0  0
  4  3  1  0  0  0  0
  5  2  1  0  0  0  0
  6  1  1  0  0  0  0
  7  2  1  0  0  0  0
  8  1  1  0  0  0  0
  9  8  2  0  0  0  0
 10  4  1  0  0  0  0
 11  3  1  0  0  0  0
 12  6  2  0  0  0  0
 13 15  1  0  0  0  0
 14 13  2  0  0  0  0
 15 10  1  0  0  0  0
 16 13  1  0  0  0  0
 17  8  1  0  0  0  0
 18  9  1  0  0  0  0
 19 23  1  0  0  0  0
 20 11  2  0  0  0  0
 21 11  1  0  0  0  0
 22 16  1  0  0  0  0
 23 22  1  0  0  0  0
 24 21  2  0  0  0  0
 25 20  1  0  0  0  0
 26 24  1  0  0  0  0
  9  7  1  0  0  0  0
  4  5  2  0  0  0  0
 26 25  2  0  0  0  0
M  END
> <IDNUMBER>
F0739-0015

> <Chemical_Name>
2-({5,6-dimethyl-4-oxo-3-phenyl-3H,4H-thieno[2,3-d]pyrimidin-2-yl}sulfanyl)-N-(2-hydroxyethyl)acetamide

> <CAS>
325693-69-4

> <PriceCoeff>
1.00

> <MW>
389.49

> <Description>
solid

> <FSP3>
0.28

> <clogP>
2.74

> <TPSA>
135.54

> <Acceptor>
4

> <Donor>
2

> <RotBonds>
6

> <HAC>
26

> <Collection>
General

> <Reference_compound>
CHEMBL577016

> <Similarity>
0.8180

$$$$
F0866-0212
  -ISIS-  06222321142D

 28 30  0  0  0  0  0  0  0  0999 V2000
   -1.7458   -1.3292    0.0000 C   0  0  0  0  0  0  0  0  0  0  0  0
   -1.9458   -2.0292    0.0000 C   0  0  0  0  0  0  0  0  0  0  0  0
    0.8167    0.6958    0.0000 N   0  0  3  0  0  0  0  0  0  0  0  0
   -1.0000   -1.2875    0.0000 S   0  0  0  0  0  0  0  0  0  0  0  0
   -1.3000   -2.4292    0.0000 C   0  0  0  0  0  0  0  0  0  0  0  0
   -2.2833   -0.7875    0.0000 N   0  0  0  0  0  0  0  0  0  0  0  0
   -0.7458   -1.9875    0.0000 C   0  0  0  0  0  0  0  0  0  0  0  0
   -2.0833   -0.0500    0.0000 C   0  0  0  0  0  0  0  0  0  0  0  0
    1.1375    1.3708    0.0000 C   0  0  0  0  0  0  0  0  0  0  0  0
    1.3792    0.2125    0.0000 C   0  0  0  0  0  0  0  0  0  0  0  0
   -2.6625   -2.3042    0.0000 C   0  0  0  0  0  0  0  0  0  0  0  0
    0.1000    0.5333    0.0000 C   0  0  0  0  0  0  0  0  0  0  0  0
   -1.3458    0.1500    0.0000 C   0  0  0  0  0  0  0  0  0  0  0  0
   -2.6208    0.4958    0.0000 O   0  0  0  0  0  0  0  0  0  0  0  0
    1.8542    1.2958    0.0000 C   0  0  0  0  0  0  0  0  0  0  0  0
    2.0167    0.5958    0.0000 C   0  0  0  0  0  0  0  0  0  0  0  0
    0.7500    2.0500    0.0000 O   0  0  0  0  0  0  0  0  0  0  0  0
    1.3292   -0.5875    0.0000 O   0  0  0  0  0  0  0  0  0  0  0  0
   -2.7833   -3.0500    0.0000 O   0  0  0  0  0  0  0  0  0  0  0  0
   -0.4458    1.0708    0.0000 C   0  0  0  0  0  0  0  0  0  0  0  0
   -0.0833   -0.1667    0.0000 C   0  0  0  0  0  0  0  0  0  0  0  0
   -0.8208   -0.3667    0.0000 C   0  0  0  0  0  0  0  0  0  0  0  0
   -1.1458    0.8708    0.0000 C   0  0  0  0  0  0  0  0  0  0  0  0
   -3.2458   -1.8042    0.0000 O   0  0  0  0  0  0  0  0  0  0  0  0
   -1.2208   -3.1875    0.0000 C   0  0  0  0  0  0  0  0  0  0  0  0
   -0.0208   -2.2500    0.0000 C   0  0  0  0  0  0  0  0  0  0  0  0
   -3.9625   -2.0875    0.0000 C   0  0  0  0  0  0  0  0  0  0  0  0
   -4.5458   -1.6042    0.0000 C   0  0  0  0  0  0  0  0  0  0  0  0
  2  1  2  0  0  0  0
  3 12  1  0  0  0  0
  4  1  1  0  0  0  0
  5  2  1  0  0  0  0
  6  1  1  0  0  0  0
  7  4  1  0  0  0  0
  8  6  1  0  0  0  0
  9  3  1  0  0  0  0
 10  3  1  0  0  0  0
 11  2  1  0  0  0  0
 12 20  1  0  0  0  0
 13  8  1  0  0  0  0
 14  8  2  0  0  0  0
 15  9  1  0  0  0  0
 16 10  1  0  0  0  0
 17  9  2  0  0  0  0
 18 10  2  0  0  0  0
 19 11  2  0  0  0  0
 20 23  2  0  0  0  0
 21 22  1  0  0  0  0
 22 13  2  0  0  0  0
 23 13  1  0  0  0  0
 24 11  1  0  0  0  0
 25  5  1  0  0  0  0
 26  7  1  0  0  0  0
 27 24  1  0  0  0  0
 28 27  1  0  0  0  0
  7  5  2  0  0  0  0
 12 21  2  0  0  0  0
 16 15  1  0  0  0  0
M  END
> <IDNUMBER>
F0866-0212

> <Chemical_Name>
ethyl 2-[4-(2,5-dioxopyrrolidin-1-yl)benzamido]-4,5-dimethylthiophene-3-carboxylate

> <CAS>
374083-39-3

> <PriceCoeff>
1.00

> <MW>
400.45

> <Description>
solid

> <FSP3>
0.30

> <clogP>
2.44

> <TPSA>
121.02

> <Acceptor>
5

> <Donor>
1

> <RotBonds>
6

> <HAC>
28

> <Collection>
General

$$$$
F2416-0104
  -ISIS-  06222321142D

 26 28  0  0  0  0  0  0  0  0999 V2000
   -4.4708    7.5167    0.0000 N   0  0  3  0  0  0  0  0  0  0  0  0
   -5.1750    7.9417    0.0000 C   0  0  0  0  0  0  0  0  0  0  0  0
   -3.7500    6.2750    0.0000 C   0  0  0  0  0  0  0  0  0  0  0  0
   -4.4708    6.6917    0.0000 C   0  0  0  0  0  0  0  0  0  0  0  0
   -3.7333    1.3333    0.0000 C   0  0  0  0  0  0  0  0  0  0  0  0
   -3.7500    3.8000    0.0000 C   0  0  0  0  0  0  0  0  0  0  0  0
   -3.7375    0.5000    0.0000 C   0  0  0  0  0  0  0  0  0  0  0  0
   -3.0333    6.6875    0.0000 C   0  0  0  0  0  0  0  0  0  0  0  0
   -3.0375    4.2125    0.0000 N   0  0  0  0  0  0  0  0  0  0  0  0
   -4.4583    1.7500    0.0000 C   0  0  0  0  0  0  0  0  0  0  0  0
   -3.7500    7.9292    0.0000 C   0  0  0  0  0  0  0  0  0  0  0  0
   -3.7583    5.4500    0.0000 C   0  0  0  0  0  0  0  0  0  0  0  0
   -3.0375    5.0417    0.0000 C   0  0  0  0  0  0  0  0  0  0  0  0
   -4.4708    2.5625    0.0000 O   0  0  0  0  0  0  0  0  0  0  0  0
   -5.8958    7.5292    0.0000 O   0  0  0  0  0  0  0  0  0  0  0  0
   -4.4708    4.2042    0.0000 O   0  0  0  0  0  0  0  0  0  0  0  0
   -3.0333    7.5125    0.0000 C   0  0  0  0  0  0  0  0  0  0  0  0
   -2.3208    6.2792    0.0000 C   0  0  0  0  0  0  0  0  0  0  0  0
   -5.1708    1.3208    0.0000 C   0  0  0  0  0  0  0  0  0  0  0  0
   -4.4708    0.0875    0.0000 C   0  0  0  0  0  0  0  0  0  0  0  0
   -3.7583    2.9833    0.0000 C   0  0  0  0  0  0  0  0  0  0  0  0
   -3.0250    1.7458    0.0000 Cl  0  0  0  0  0  0  0  0  0  0  0  0
   -2.3250    5.4542    0.0000 C   0  0  0  0  0  0  0  0  0  0  0  0
   -5.1708    0.4875    0.0000 C   0  0  0  0  0  0  0  0  0  0  0  0
   -4.4458   -0.7500    0.0000 Cl  0  0  0  0  0  0  0  0  0  0  0  0
   -5.1708    8.7667    0.0000 C   0  0  0  0  0  0  0  0  0  0  0  0
  2  1  1  0  0  0  0
  3  4  1  0  0  0  0
  4  1  1  0  0  0  0
  5 10  1  0  0  0  0
  6  9  1  0  0  0  0
  7  5  2  0  0  0  0
  8 17  1  0  0  0  0
  9 13  1  0  0  0  0
 10 14  1  0  0  0  0
 11  1  1  0  0  0  0
 12  3  1  0  0  0  0
 13 12  2  0  0  0  0
 14 21  1  0  0  0  0
 15  2  2  0  0  0  0
 16  6  2  0  0  0  0
 17 11  1  0  0  0  0
 18  8  1  0  0  0  0
 19 10  2  0  0  0  0
 20 24  2  0  0  0  0
 21  6  1  0  0  0  0
 22  5  1  0  0  0  0
 23 18  2  0  0  0  0
 24 19  1  0  0  0  0
 25 20  1  0  0  0  0
 26  2  1  0  0  0  0
  3  8  2  0  0  0  0
 13 23  1  0  0  0  0
 20  7  1  0  0  0  0
M  END
> <IDNUMBER>
F2416-0104

> <Chemical_Name>
N-(2-acetyl-1,2,3,4-tetrahydroisoquinolin-7-yl)-2-(2,4-dichlorophenoxy)acetamide

> <CAS>
955704-85-5

> <PriceCoeff>
1.00

> <MW>
393.26

> <Description>
solid

> <FSP3>
0.26

> <clogP>
2.56

> <TPSA>
58.64

> <Acceptor>
3

> <Donor>
1

> <RotBonds>
5

> <HAC>
26

> <Collection>
General

> <Reference_compound>
CHEMBL1459580

> <Similarity>
0.8140

$$$$
F3230-0005
  -ISIS-  06222321152D

 19 20  0  0  0  0  0  0  0  0999 V2000
    4.5042   -3.8167    0.0000 N   0  0  3  0  0  0  0  0  0  0  0  0
    3.6792   -3.8167    0.0000 N   0  0  0  0  0  0  0  0  0  0  0  0
    4.7542   -3.0292    0.0000 C   0  0  0  0  0  0  0  0  0  0  0  0
    4.0917   -2.5417    0.0000 C   0  0  0  0  0  0  0  0  0  0  0  0
    3.4167   -3.0292    0.0000 C   0  0  0  0  0  0  0  0  0  0  0  0
    5.0875   -4.4000    0.0000 C   0  0  0  0  0  0  0  0  0  0  0  0
    5.8000   -3.9792    0.0000 C   0  0  0  0  0  0  0  0  0  0  0  0
    6.5125   -4.3917    0.0000 O   0  0  0  0  0  0  0  0  0  0  0  0
    4.0875   -1.7167    0.0000 Cl  0  0  0  0  0  0  0  0  0  0  0  0
    5.7917   -3.1542    0.0000 O   0  0  0  0  0  0  0  0  0  0  0  0
    7.2250   -3.9750    0.0000 C   0  0  0  0  0  0  0  0  0  0  0  0
    5.4667   -2.6125    0.0000 C   0  0  0  0  0  0  0  0  0  0  0  0
    8.6417   -3.1542    0.0000 C   0  0  0  0  0  0  0  0  0  0  0  0
    2.6167   -2.8125    0.0000 C   0  0  0  0  0  0  0  0  0  0  0  0
    9.3542   -2.7417    0.0000 Cl  0  0  0  0  0  0  0  0  0  0  0  0
    7.2250   -3.1542    0.0000 C   0  0  0  0  0  0  0  0  0  0  0  0
    7.9292   -4.3792    0.0000 C   0  0  0  0  0  0  0  0  0  0  0  0
    8.6417   -3.9792    0.0000 C   0  0  0  0  0  0  0  0  0  0  0  0
    7.9292   -2.7500    0.0000 C   0  0  0  0  0  0  0  0  0  0  0  0
  2  1  1  0  0  0  0
  3  1  1  0  0  0  0
  4  3  2  0  0  0  0
  5  2  2  0  0  0  0
  6  1  1  0  0  0  0
  7  6  1  0  0  0  0
  8  7  1  0  0  0  0
  9  4  1  0  0  0  0
 10  7  2  0  0  0  0
 11  8  1  0  0  0  0
 12  3  1  0  0  0  0
 13 18  2  0  0  0  0
 14  5  1  0  0  0  0
 15 13  1  0  0  0  0
 16 11  1  0  0  0  0
 17 11  2  0  0  0  0
 18 17  1  0  0  0  0
 19 16  2  0  0  0  0
  5  4  1  0  0  0  0
 19 13  1  0  0  0  0
M  END
> <IDNUMBER>
F3230-0005

> <Chemical_Name>
4-chlorophenyl 2-(4-chloro-3,5-dimethyl-1H-pyrazol-1-yl)acetate

> <CAS>
890596-75-5

> <PriceCoeff>
1.00

> <MW>
299.15

> <Description>
solid

> <FSP3>
0.23

> <clogP>
3.64

> <TPSA>
44.12

> <Acceptor>
3

> <Donor>
0

> <RotBonds>
4

> <HAC>
19

> <Collection>
General

$$$$
F3205-0038
  -ISIS-  06222321462D

 22 24  0  0  0  0  0  0  0  0999 V2000
    5.3792   -5.9667    0.0000 N   0  0  3  0  0  0  0  0  0  0  0  0
    5.8667   -5.3000    0.0000 C   0  0  0  0  0  0  0  0  0  0  0  0
    5.8750   -6.6375    0.0000 C   0  0  0  0  0  0  0  0  0  0  0  0
    6.6542   -6.3750    0.0000 C   0  0  3  0  0  0  0  0  0  0  0  0
    6.6542   -5.5500    0.0000 C   0  0  0  0  0  0  0  0  0  0  0  0
    8.0667   -6.5167    0.0000 C   0  0  0  0  0  0  0  0  0  0  0  0
    8.7417   -6.9917    0.0000 C   0  0  0  0  0  0  0  0  0  0  0  0
    7.3167   -6.8542    0.0000 S   0  0  0  0  0  0  0  0  0  0  0  0
    8.6625   -7.8167    0.0000 C   0  0  0  0  0  0  0  0  0  0  0  0
    8.1500   -5.7000    0.0000 N   0  0  0  0  0  0  0  0  0  0  0  0
    5.6042   -4.5167    0.0000 O   0  0  0  0  0  0  0  0  0  0  0  0
    5.6167   -7.4167    0.0000 O   0  0  0  0  0  0  0  0  0  0  0  0
    4.5625   -5.9750    0.0000 C   0  0  3  0  0  0  0  0  0  0  0  0
    9.3292   -8.3042    0.0000 O   0  0  0  0  0  0  0  0  0  0  0  0
    7.9042   -8.1625    0.0000 O   0  0  0  0  0  0  0  0  0  0  0  0
    9.4917   -6.6542    0.0000 C   0  0  0  0  0  0  0  0  0  0  0  0
    8.8917   -5.3542    0.0000 C   0  0  0  0  0  0  0  0  0  0  0  0
    4.0667   -5.3167    0.0000 C   0  0  0  0  0  0  0  0  0  0  0  0
    4.0792   -6.6500    0.0000 C   0  0  0  0  0  0  0  0  0  0  0  0
    9.5667   -5.8375    0.0000 C   0  0  0  0  0  0  0  0  0  0  0  0
    3.2917   -6.4000    0.0000 C   0  0  0  0  0  0  0  0  0  0  0  0
    3.2875   -5.5750    0.0000 C   0  0  0  0  0  0  0  0  0  0  0  0
  2  1  1  0  0  0  0
  3  1  1  0  0  0  0
  4  3  1  0  0  0  0
  5  2  1  0  0  0  0
  6  8  1  0  0  0  0
  7  6  2  0  0  0  0
  8  4  1  0  0  0  0
  9  7  1  0  0  0  0
 10  6  1  0  0  0  0
 11  2  2  0  0  0  0
 12  3  2  0  0  0  0
 13  1  1  0  0  0  0
 14  9  2  0  0  0  0
 15  9  1  0  0  0  0
 16  7  1  0  0  0  0
 17 10  2  0  0  0  0
 18 13  1  0  0  0  0
 19 13  1  0  0  0  0
 20 17  1  0  0  0  0
 21 19  1  0  0  0  0
 22 18  1  0  0  0  0
  5  4  1  0  0  0  0
 21 22  1  0  0  0  0
 16 20  2  0  0  0  0
M  END
> <IDNUMBER>
F3205-0038

> <Chemical_Name>
2-[(1-cyclopentyl-2,5-dioxopyrrolidin-3-yl)sulfanyl]pyridine-3-carboxylic acid

> <CAS>
881483-73-4

> <PriceCoeff>
1.00

> <MW>
320.36

> <Description>
solid

> <FSP3>
0.47

> <clogP>
2.06

> <TPSA>
112.87

> <Acceptor>
5

> <Donor>
1

> <RotBonds>
4

> <HAC>
22

> <Collection>
General

$$$$
F0920-6579
  -ISIS-  06222321142D

 17 19  0  0  0  0  0  0  0  0999 V2000
   13.1042   -8.1917    0.0000 C   0  0  3  0  0  0  0  0  0  0  0  0
   14.5750   -7.3042    0.0000 N   0  0  0  0  0  0  0  0  0  0  0  0
   14.5542   -5.6292    0.0000 C   0  0  0  0  0  0  0  0  0  0  0  0
   11.6500   -5.6542    0.0000 C   0  0  3  0  0  0  0  0  0  0  0  0
   10.1792   -8.1917    0.0000 C   0  0  0  0  0  0  0  0  0  0  0  0
   13.1000   -4.8042    0.0000 N   0  0  0  0  0  0  0  0  0  0  0  0
   10.1792   -6.5042    0.0000 C   0  0  0  0  0  0  0  0  0  0  0  0
   11.6292   -9.0375    0.0000 O   0  0  0  0  0  0  0  0  0  0  0  0
   13.1042   -6.5042    0.0000 C   0  0  0  0  0  0  0  0  0  0  0  0
   16.0000   -4.7625    0.0000 O   0  0  0  0  0  0  0  0  0  0  0  0
    8.7292   -9.0375    0.0000 C   0  0  0  0  0  0  0  0  0  0  0  0
   13.1250   -9.8750    0.0000 C   0  0  0  0  0  0  0  0  0  0  0  0
    8.7292   -5.6667    0.0000 C   0  0  0  0  0  0  0  0  0  0  0  0
    8.7250  -10.6917    0.0000 O   0  0  0  0  0  0  0  0  0  0  0  0
    7.2792   -6.5042    0.0000 C   0  0  0  0  0  0  0  0  0  0  0  0
    7.2792   -8.1917    0.0000 C   0  0  0  0  0  0  0  0  0  0  0  0
   10.1750  -11.5417    0.0000 C   0  0  0  0  0  0  0  0  0  0  0  0
  2  1  1  0  0  0  0
  3  2  1  0  0  0  0
  4  9  1  0  0  0  0
  5  8  1  0  0  0  0
  6  4  1  0  0  0  0
  7  4  1  0  0  0  0
  8  1  1  0  0  0  0
  9  1  1  0  0  0  0
 10  3  2  0  0  0  0
 11  5  2  0  0  0  0
 12  1  1  0  0  0  0
 13  7  2  0  0  0  0
 14 11  1  0  0  0  0
 15 13  1  0  0  0  0
 16 11  1  0  0  0  0
 17 14  1  0  0  0  0
  7  5  1  0  0  0  0
  6  3  1  0  0  0  0
 15 16  2  0  0  0  0
M  END
> <IDNUMBER>
F0920-6579

> <Chemical_Name>
6-methoxy-9-methyl-8-oxa-10,12-diazatricyclo[7.3.1.0^{2,7}]trideca-2,4,6-trien-11-one

> <CAS>
702667-76-3

> <PriceCoeff>
1.00

> <MW>
234.25

> <Description>
solid

> <FSP3>
0.42

> <clogP>
1.32

> <TPSA>
59.59

> <Acceptor>
3

> <Donor>
2

> <RotBonds>
1

> <HAC>
17

> <Collection>
General

> <Reference_compound>
CHEMBL2252022

> <Similarity>
0.8060

$$$$
F3367-0020
  -ISIS-  06222321442D

 24 26  0  0  0  0  0  0  0  0999 V2000
    2.1792    0.3875    0.0000 S   0  0  3  0  0  0  0  0  0  0  0  0
   -1.5333    1.0708    0.0000 N   0  0  3  0  0  0  0  0  0  0  0  0
   -1.1958    1.8333    0.0000 C   0  0  0  0  0  0  0  0  0  0  0  0
   -2.3458    1.1500    0.0000 C   0  0  0  0  0  0  0  0  0  0  0  0
    3.0042    0.3875    0.0000 N   0  0  0  0  0  0  0  0  0  0  0  0
    1.3542    0.3833    0.0000 C   0  0  0  0  0  0  0  0  0  0  0  0
    2.1792    1.2125    0.0000 O   0  0  0  0  0  0  0  0  0  0  0  0
    2.1792   -0.4375    0.0000 O   0  0  0  0  0  0  0  0  0  0  0  0
   -1.1083    0.3625    0.0000 C   0  0  0  0  0  0  0  0  0  0  0  0
   -2.5250    1.9583    0.0000 C   0  0  0  0  0  0  0  0  0  0  0  0
   -1.8125    2.3750    0.0000 C   0  0  0  0  0  0  0  0  0  0  0  0
   -2.8958    0.5333    0.0000 O   0  0  0  0  0  0  0  0  0  0  0  0
   -0.3958    2.0083    0.0000 O   0  0  0  0  0  0  0  0  0  0  0  0
    0.9500   -0.3292    0.0000 C   0  0  0  0  0  0  0  0  0  0  0  0
    0.9417    1.0958    0.0000 C   0  0  0  0  0  0  0  0  0  0  0  0
   -0.2833    0.3708    0.0000 C   0  0  0  0  0  0  0  0  0  0  0  0
    3.4167   -0.3250    0.0000 C   0  0  0  0  0  0  0  0  0  0  0  0
    0.1292   -0.3375    0.0000 C   0  0  0  0  0  0  0  0  0  0  0  0
    0.1250    1.0875    0.0000 C   0  0  0  0  0  0  0  0  0  0  0  0
    3.0042   -1.0375    0.0000 C   0  0  0  0  0  0  0  0  0  0  0  0
    4.2417   -0.3167    0.0000 C   0  0  0  0  0  0  0  0  0  0  0  0
    4.6542   -1.0292    0.0000 C   0  0  0  0  0  0  0  0  0  0  0  0
    3.4167   -1.7500    0.0000 C   0  0  0  0  0  0  0  0  0  0  0  0
    4.2417   -1.7500    0.0000 C   0  0  0  0  0  0  0  0  0  0  0  0
  2  9  1  0  0  0  0
  3  2  1  0  0  0  0
  4  2  1  0  0  0  0
  5  1  1  0  0  0  0
  6  1  1  0  0  0  0
  7  1  2  0  0  0  0
  8  1  2  0  0  0  0
  9 16  1  0  0  0  0
 10  4  1  0  0  0  0
 11  3  1  0  0  0  0
 12  4  2  0  0  0  0
 13  3  2  0  0  0  0
 14  6  2  0  0  0  0
 15  6  1  0  0  0  0
 16 19  1  0  0  0  0
 17  5  1  0  0  0  0
 18 14  1  0  0  0  0
 19 15  2  0  0  0  0
 20 17  2  0  0  0  0
 21 17  1  0  0  0  0
 22 21  2  0  0  0  0
 23 20  1  0  0  0  0
 24 22  1  0  0  0  0
 18 16  2  0  0  0  0
 24 23  2  0  0  0  0
 10 11  1  0  0  0  0
M  END
> <IDNUMBER>
F3367-0020

> <Chemical_Name>
4-[(2,5-dioxopyrrolidin-1-yl)methyl]-N-phenylbenzene-1-sulfonamide

> <CAS>
941252-21-7

> <PriceCoeff>
1.00

> <MW>
344.38

> <Description>
solid

> <FSP3>
0.18

> <clogP>
1.41

> <TPSA>
91.93

> <Acceptor>
5

> <Donor>
1

> <RotBonds>
5

> <HAC>
24

> <Collection>
General

$$$$
F2590-0321
  -ISIS-  06222321462D

 27 29  0  0  0  0  0  0  0  0999 V2000
   -3.8500    2.9833    0.0000 C   0  0  0  0  0  0  0  0  0  0  0  0
   -4.5208    2.4958    0.0000 C   0  0  0  0  0  0  0  0  0  0  0  0
   -1.7125    6.6667    0.0000 N   0  0  3  0  0  0  0  0  0  0  0  0
   -3.1875    2.4958    0.0000 S   0  0  0  0  0  0  0  0  0  0  0  0
   -4.2583    1.7125    0.0000 C   0  0  0  0  0  0  0  0  0  0  0  0
   -3.8500    3.8000    0.0000 N   0  0  0  0  0  0  0  0  0  0  0  0
   -3.4458    1.7208    0.0000 C   0  0  0  0  0  0  0  0  0  0  0  0
   -2.4333    6.2542    0.0000 C   0  0  0  0  0  0  0  0  0  0  0  0
   -3.1375    4.2042    0.0000 C   0  0  0  0  0  0  0  0  0  0  0  0
   -0.9833    6.2917    0.0000 C   0  0  0  0  0  0  0  0  0  0  0  0
   -1.6000    7.4667    0.0000 C   0  0  0  0  0  0  0  0  0  0  0  0
   -5.3000    2.7458    0.0000 C   0  0  0  0  0  0  0  0  0  0  0  0
   -2.4333    5.4292    0.0000 C   0  0  0  0  0  0  0  0  0  0  0  0
   -3.1375    5.0250    0.0000 C   0  0  0  0  0  0  0  0  0  0  0  0
   -2.4333    3.8083    0.0000 O   0  0  0  0  0  0  0  0  0  0  0  0
   -0.7875    7.6167    0.0000 C   0  0  0  0  0  0  0  0  0  0  0  0
   -0.4083    6.9000    0.0000 C   0  0  0  0  0  0  0  0  0  0  0  0
   -2.1708    8.0542    0.0000 O   0  0  0  0  0  0  0  0  0  0  0  0
   -0.8500    5.4792    0.0000 O   0  0  0  0  0  0  0  0  0  0  0  0
   -5.9125    2.2083    0.0000 O   0  0  0  0  0  0  0  0  0  0  0  0
   -5.4708    3.5583    0.0000 N   0  0  0  0  0  0  0  0  0  0  0  0
   -4.7375    1.0500    0.0000 C   0  0  0  0  0  0  0  0  0  0  0  0
   -3.1333    6.6667    0.0000 C   0  0  0  0  0  0  0  0  0  0  0  0
   -2.9708    1.0583    0.0000 C   0  0  0  0  0  0  0  0  0  0  0  0
   -3.8500    5.4292    0.0000 C   0  0  0  0  0  0  0  0  0  0  0  0
   -3.8500    6.2542    0.0000 C   0  0  0  0  0  0  0  0  0  0  0  0
   -6.2292    3.8458    0.0000 C   0  0  0  0  0  0  0  0  0  0  0  0
  2  1  2  0  0  0  0
  3  8  1  0  0  0  0
  4  1  1  0  0  0  0
  5  2  1  0  0  0  0
  6  1  1  0  0  0  0
  7  4  1  0  0  0  0
  8 13  1  0  0  0  0
  9  6  1  0  0  0  0
 10  3  1  0  0  0  0
 11  3  1  0  0  0  0
 12  2  1  0  0  0  0
 13 14  2  0  0  0  0
 14  9  1  0  0  0  0
 15  9  2  0  0  0  0
 16 11  1  0  0  0  0
 17 10  1  0  0  0  0
 18 11  2  0  0  0  0
 19 10  2  0  0  0  0
 20 12  2  0  0  0  0
 21 12  1  0  0  0  0
 22  5  1  0  0  0  0
 23 26  1  0  0  0  0
 24  7  1  0  0  0  0
 25 14  1  0  0  0  0
 26 25  2  0  0  0  0
 27 21  1  0  0  0  0
  5  7  2  0  0  0  0
  8 23  2  0  0  0  0
 16 17  1  0  0  0  0
M  END
> <IDNUMBER>
F2590-0321

> <Chemical_Name>
2-[3-(2,5-dioxopyrrolidin-1-yl)benzamido]-N,4,5-trimethylthiophene-3-carboxamide

> <CAS>
896296-15-4

> <PriceCoeff>
1.00

> <MW>
385.44

> <Description>
solid

> <FSP3>
0.26

> <clogP>
0.58

> <TPSA>
123.82

> <Acceptor>
4

> <Donor>
2

> <RotBonds>
4

> <HAC>
27

> <Collection>
General

$$$$
F3019-0032
  -ISIS-  06222321462D

 28 32  0  0  0  0  0  0  0  0999 V2000
    2.3042   -0.1917    0.0000 N   0  0  3  0  0  0  0  0  0  0  0  0
    2.9750    0.2958    0.0000 C   0  0  0  0  0  0  0  0  0  0  0  0
    2.5542   -0.9792    0.0000 C   0  0  0  0  0  0  0  0  0  0  0  0
    3.3875   -0.9792    0.0000 C   0  0  3  0  0  0  0  0  0  0  0  0
    3.6417   -0.1917    0.0000 C   0  0  0  0  0  0  0  0  0  0  0  0
    1.5167    0.0625    0.0000 C   0  0  0  0  0  0  0  0  0  0  0  0
    4.7042   -1.5625    0.0000 C   0  0  3  0  0  0  0  0  0  0  0  0
    3.8750   -1.6542    0.0000 N   0  0  0  0  0  0  0  0  0  0  0  0
    1.3417    0.8750    0.0000 C   0  0  0  0  0  0  0  0  0  0  0  0
    0.5542    1.1333    0.0000 C   0  0  0  0  0  0  0  0  0  0  0  0
    0.9042   -0.4917    0.0000 C   0  0  0  0  0  0  0  0  0  0  0  0
    2.9667    1.1250    0.0000 O   0  0  0  0  0  0  0  0  0  0  0  0
    2.0667   -1.6542    0.0000 O   0  0  0  0  0  0  0  0  0  0  0  0
    6.0792   -1.5625    0.0000 C   0  0  3  0  0  0  0  0  0  0  0  0
    5.3875   -0.3667    0.0000 C   0  0  3  0  0  0  0  0  0  0  0  0
    4.9792   -2.1125    0.0000 C   0  0  3  0  0  0  0  0  0  0  0  0
    5.3875   -1.9625    0.0000 C   0  0  0  0  0  0  0  0  0  0  0  0
    4.7042   -0.7667    0.0000 C   0  0  0  0  0  0  0  0  0  0  0  0
    4.2417   -2.2792    0.0000 C   0  0  0  0  0  0  0  0  0  0  0  0
    4.9792   -1.0542    0.0000 C   0  0  0  0  0  0  0  0  0  0  0  0
    6.0792   -0.7667    0.0000 C   0  0  0  0  0  0  0  0  0  0  0  0
    5.5542   -2.4542    0.0000 C   0  0  0  0  0  0  0  0  0  0  0  0
   -0.0583    0.5750    0.0000 C   0  0  0  0  0  0  0  0  0  0  0  0
    0.1167   -0.2417    0.0000 C   0  0  0  0  0  0  0  0  0  0  0  0
    1.9625    1.4250    0.0000 O   0  0  0  0  0  0  0  0  0  0  0  0
   -0.8458    0.8333    0.0000 O   0  0  0  0  0  0  0  0  0  0  0  0
    1.7875    2.2333    0.0000 C   0  0  0  0  0  0  0  0  0  0  0  0
   -1.4583    0.2750    0.0000 C   0  0  0  0  0  0  0  0  0  0  0  0
  2  1  1  0  0  0  0
  3  1  1  0  0  0  0
  4  3  1  0  0  0  0
  5  2  1  0  0  0  0
  6  1  1  0  0  0  0
  7  8  1  0  0  0  0
  8  4  1  0  0  0  0
  9  6  2  0  0  0  0
 10  9  1  0  0  0  0
 11  6  1  0  0  0  0
 12  2  2  0  0  0  0
 13  3  2  0  0  0  0
 14 17  1  0  0  0  0
 15 18  1  0  0  0  0
 16 19  1  0  0  0  0
 17  7  1  0  0  0  0
 18  7  1  0  0  0  0
 19  7  1  0  0  0  0
 20 16  1  0  0  0  0
 21 15  1  0  0  0  0
 22 16  1  0  0  0  0
 23 24  1  0  0  0  0
 24 11  2  0  0  0  0
 25  9  1  0  0  0  0
 26 23  1  0  0  0  0
 27 25  1  0  0  0  0
 28 26  1  0  0  0  0
  5  4  1  0  0  0  0
 23 10  2  0  0  0  0
 22 14  1  0  0  0  0
 20 15  1  0  0  0  0
 21 14  1  0  0  0  0
M  END
> <IDNUMBER>
F3019-0032

> <Chemical_Name>
3-[(adamantan-1-yl)amino]-1-(2,4-dimethoxyphenyl)pyrrolidine-2,5-dione

> <CAS>
1009230-65-2

> <PriceCoeff>
1.50

> <MW>
384.47

> <Description>
solid

> <FSP3>
0.64

> <clogP>
3.72

> <TPSA>
67.87

> <Acceptor>
4

> <Donor>
1

> <RotBonds>
5

> <HAC>
28

> <Collection>
Advanced

$$$$
F6444-1407
  -ISIS-  06222321462D

 26 28  0  0  0  0  0  0  0  0999 V2000
   -3.8708    3.8000    0.0000 C   0  0  0  0  0  0  0  0  0  0  0  0
   -3.1583    4.2042    0.0000 N   0  0  3  0  0  0  0  0  0  0  0  0
   -0.9958    5.4500    0.0000 N   0  0  3  0  0  0  0  0  0  0  0  0
   -4.5792    4.2042    0.0000 N   0  0  0  0  0  0  0  0  0  0  0  0
   -1.7208    5.0292    0.0000 C   0  0  3  0  0  0  0  0  0  0  0  0
   -6.7000    3.8125    0.0000 C   0  0  0  0  0  0  0  0  0  0  0  0
   -6.0000    4.2125    0.0000 C   0  0  0  0  0  0  0  0  0  0  0  0
   -5.2833    3.8083    0.0000 C   0  0  0  0  0  0  0  0  0  0  0  0
   -1.7208    4.2167    0.0000 C   0  0  0  0  0  0  0  0  0  0  0  0
   -2.4333    5.4542    0.0000 C   0  0  0  0  0  0  0  0  0  0  0  0
   -3.1500    5.0417    0.0000 C   0  0  0  0  0  0  0  0  0  0  0  0
   -2.4458    3.8083    0.0000 C   0  0  0  0  0  0  0  0  0  0  0  0
   -3.8708    2.9833    0.0000 O   0  0  0  0  0  0  0  0  0  0  0  0
   -6.7042    2.9875    0.0000 C   0  0  0  0  0  0  0  0  0  0  0  0
   -0.2333    5.1500    0.0000 C   0  0  3  0  0  0  0  0  0  0  0  0
   -6.0042    2.5708    0.0000 C   0  0  0  0  0  0  0  0  0  0  0  0
   -7.4042    4.2167    0.0000 Cl  0  0  0  0  0  0  0  0  0  0  0  0
   -5.2833    2.9833    0.0000 C   0  0  0  0  0  0  0  0  0  0  0  0
   -7.4208    2.5833    0.0000 Cl  0  0  0  0  0  0  0  0  0  0  0  0
   -0.9458    6.2667    0.0000 C   0  0  0  0  0  0  0  0  0  0  0  0
    0.7625    4.1292    0.0000 S   0  0  0  0  0  0  0  0  0  0  0  0
   -0.1458    6.4667    0.0000 C   0  0  0  0  0  0  0  0  0  0  0  0
   -0.0333    4.3458    0.0000 C   0  0  0  0  0  0  0  0  0  0  0  0
    0.2917    5.7792    0.0000 C   0  0  0  0  0  0  0  0  0  0  0  0
    0.9667    3.3458    0.0000 C   0  0  0  0  0  0  0  0  0  0  0  0
    1.7542    3.1208    0.0000 C   0  0  0  0  0  0  0  0  0  0  0  0
  2  1  1  0  0  0  0
  3  5  1  0  0  0  0
  4  1  1  0  0  0  0
  5  9  1  0  0  0  0
  6  7  1  0  0  0  0
  7  8  2  0  0  0  0
  8  4  1  0  0  0  0
  9 12  1  0  0  0  0
 10 11  1  0  0  0  0
 11  2  1  0  0  0  0
 12  2  1  0  0  0  0
 13  1  2  0  0  0  0
 14 16  1  0  0  0  0
 15  3  1  0  0  0  0
 16 18  2  0  0  0  0
 17  6  1  0  0  0  0
 18  8  1  0  0  0  0
 19 14  1  0  0  0  0
 20  3  1  0  0  0  0
 21 23  1  0  0  0  0
 22 20  1  0  0  0  0
 23 15  1  0  0  0  0
 24 15  1  0  0  0  0
 25 21  1  0  0  0  0
 26 25  1  0  0  0  0
 10  5  1  0  0  0  0
  6 14  2  0  0  0  0
 22 24  1  0  0  0  0
M  END
> <IDNUMBER>
F6444-1407

> <Chemical_Name>
N-(3,4-dichlorophenyl)-4-{2-[(ethylsulfanyl)methyl]pyrrolidin-1-yl}piperidine-1-carboxamide

> <CAS>
1788557-11-8

> <PriceCoeff>
1.00

> <MW>
416.41

> <Description>
solid

> <FSP3>
0.63

> <clogP>
4.20

> <TPSA>
60.88

> <Acceptor>
1

> <Donor>
2

> <RotBonds>
6

> <HAC>
26

> <Collection>
General

$$$$
F2758-0250
  -ISIS-  06222321462D

 29 32  0  0  0  0  0  0  0  0999 V2000
   -1.0208    3.8083    0.0000 C   0  0  0  0  0  0  0  0  0  0  0  0
   -0.3083    5.0292    0.0000 C   0  0  0  0  0  0  0  0  0  0  0  0
    0.4042    4.6292    0.0000 C   0  0  0  0  0  0  0  0  0  0  0  0
   -1.0208    4.6167    0.0000 C   0  0  0  0  0  0  0  0  0  0  0  0
    0.4167    3.8000    0.0000 N   0  0  3  0  0  0  0  0  0  0  0  0
   -0.3083    3.3958    0.0000 C   0  0  0  0  0  0  0  0  0  0  0  0
   -1.7250    0.9083    0.0000 N   0  0  0  0  0  0  0  0  0  0  0  0
   -1.7250    0.0833    0.0000 N   0  0  0  0  0  0  0  0  0  0  0  0
   -1.7333    3.3958    0.0000 C   0  0  0  0  0  0  0  0  0  0  0  0
    1.1375    5.0417    0.0000 N   0  0  0  0  0  0  0  0  0  0  0  0
   -2.4458   -0.3292    0.0000 C   0  0  0  0  0  0  0  0  0  0  0  0
   -2.4458    1.3208    0.0000 C   0  0  0  0  0  0  0  0  0  0  0  0
   -3.1583    0.0833    0.0000 C   0  0  0  0  0  0  0  0  0  0  0  0
   -3.1583    0.9083    0.0000 C   0  0  0  0  0  0  0  0  0  0  0  0
   -0.3000    5.8667    0.0000 C   0  0  0  0  0  0  0  0  0  0  0  0
   -1.7333    2.5583    0.0000 N   0  0  0  0  0  0  0  0  0  0  0  0
   -1.7333    5.0292    0.0000 O   0  0  0  0  0  0  0  0  0  0  0  0
   -2.4458    2.1458    0.0000 C   0  0  0  0  0  0  0  0  0  0  0  0
   -2.4458   -1.1542    0.0000 O   0  0  0  0  0  0  0  0  0  0  0  0
   -2.4458    3.8000    0.0000 O   0  0  0  0  0  0  0  0  0  0  0  0
    1.1250    5.8750    0.0000 C   0  0  0  0  0  0  0  0  0  0  0  0
    0.4125    6.2792    0.0000 C   0  0  0  0  0  0  0  0  0  0  0  0
    1.1292    3.3958    0.0000 C   0  0  0  0  0  0  0  0  0  0  0  0
   -3.8708   -0.3292    0.0000 C   0  0  0  0  0  0  0  0  0  0  0  0
   -3.8708    1.3208    0.0000 C   0  0  0  0  0  0  0  0  0  0  0  0
    1.8625    6.2792    0.0000 C   0  0  0  0  0  0  0  0  0  0  0  0
    1.1292    2.5708    0.0000 C   0  0  0  0  0  0  0  0  0  0  0  0
   -4.5833    0.9083    0.0000 C   0  0  0  0  0  0  0  0  0  0  0  0
   -4.5833    0.0833    0.0000 C   0  0  0  0  0  0  0  0  0  0  0  0
  2  4  1  0  0  0  0
  3  5  1  0  0  0  0
  4  1  1  0  0  0  0
  5  6  1  0  0  0  0
  6  1  2  0  0  0  0
  7 12  2  0  0  0  0
  8  7  1  0  0  0  0
  9  1  1  0  0  0  0
 10  3  2  0  0  0  0
 11 13  1  0  0  0  0
 12 18  1  0  0  0  0
 13 14  2  0  0  0  0
 14 12  1  0  0  0  0
 15  2  2  0  0  0  0
 16  9  1  0  0  0  0
 17  4  2  0  0  0  0
 18 16  1  0  0  0  0
 19 11  2  0  0  0  0
 20  9  2  0  0  0  0
 21 10  1  0  0  0  0
 22 15  1  0  0  0  0
 23  5  1  0  0  0  0
 24 13  1  0  0  0  0
 25 14  1  0  0  0  0
 26 21  1  0  0  0  0
 27 23  1  0  0  0  0
 28 25  2  0  0  0  0
 29 28  1  0  0  0  0
  3  2  1  0  0  0  0
 21 22  2  0  0  0  0
  8 11  1  0  0  0  0
 24 29  2  0  0  0  0
M  END
> <IDNUMBER>
F2758-0250

> <Chemical_Name>
1-ethyl-7-methyl-4-oxo-N-[(4-oxo-3,4-dihydrophthalazin-1-yl)methyl]-1,4-dihydro-1,8-naphthyridine-3-carboxamide

> <CAS>
1226449-80-4

> <PriceCoeff>
1.00

> <MW>
389.41

> <Description>
solid

> <FSP3>
0.19

> <clogP>
-0.09

> <TPSA>
103.76

> <Acceptor>
5

> <Donor>
5

> <RotBonds>
4

> <HAC>
29

> <Collection>
General

> <Reference_compound>
CHEMBL2228611

> <Similarity>
0.8040

$$$$
F3350-0581
  -ISIS-  06222321462D

 25 28  0  0  0  0  0  0  0  0999 V2000
    1.0417   -0.8500    0.0000 S   0  0  3  0  0  0  0  0  0  0  0  0
    0.7917   -0.0667    0.0000 N   0  0  3  0  0  0  0  0  0  0  0  0
    2.0792   -3.9792    0.0000 N   0  0  3  0  0  0  0  0  0  0  0  0
    1.6042   -4.6500    0.0000 C   0  0  0  0  0  0  0  0  0  0  0  0
    2.8750   -4.2250    0.0000 C   0  0  0  0  0  0  0  0  0  0  0  0
    0.0042    0.1958    0.0000 C   0  0  0  0  0  0  0  0  0  0  0  0
    1.3042   -1.6292    0.0000 C   0  0  0  0  0  0  0  0  0  0  0  0
    1.2875    0.6083    0.0000 C   0  0  0  0  0  0  0  0  0  0  0  0
    0.3292   -1.2542    0.0000 O   0  0  0  0  0  0  0  0  0  0  0  0
    1.7542   -0.4292    0.0000 O   0  0  0  0  0  0  0  0  0  0  0  0
    1.8250   -3.1917    0.0000 C   0  0  0  0  0  0  0  0  0  0  0  0
    0.0042    1.0208    0.0000 C   0  0  0  0  0  0  0  0  0  0  0  0
    2.8792   -5.0500    0.0000 C   0  0  0  0  0  0  0  0  0  0  0  0
    2.1000   -5.3125    0.0000 C   0  0  0  0  0  0  0  0  0  0  0  0
    3.5375   -3.7375    0.0000 O   0  0  0  0  0  0  0  0  0  0  0  0
    0.7792   -4.6542    0.0000 O   0  0  0  0  0  0  0  0  0  0  0  0
    0.7917    1.2833    0.0000 C   0  0  0  0  0  0  0  0  0  0  0  0
    2.1125   -1.7917    0.0000 C   0  0  0  0  0  0  0  0  0  0  0  0
    0.7542   -2.2417    0.0000 C   0  0  0  0  0  0  0  0  0  0  0  0
    1.0167   -3.0292    0.0000 C   0  0  0  0  0  0  0  0  0  0  0  0
    2.3750   -2.5750    0.0000 C   0  0  0  0  0  0  0  0  0  0  0  0
   -0.7083   -0.2167    0.0000 C   0  0  0  0  0  0  0  0  0  0  0  0
   -0.7083    1.4333    0.0000 C   0  0  0  0  0  0  0  0  0  0  0  0
   -1.4208    0.1958    0.0000 C   0  0  0  0  0  0  0  0  0  0  0  0
   -1.4208    1.0208    0.0000 C   0  0  0  0  0  0  0  0  0  0  0  0
  2  1  1  0  0  0  0
  3 11  1  0  0  0  0
  4  3  1  0  0  0  0
  5  3  1  0  0  0  0
  6  2  1  0  0  0  0
  7  1  1  0  0  0  0
  8  2  1  0  0  0  0
  9  1  2  0  0  0  0
 10  1  2  0  0  0  0
 11 20  2  0  0  0  0
 12  6  1  0  0  0  0
 13  5  1  0  0  0  0
 14  4  1  0  0  0  0
 15  5  2  0  0  0  0
 16  4  2  0  0  0  0
 17  8  1  0  0  0  0
 18  7  1  0  0  0  0
 19  7  2  0  0  0  0
 20 19  1  0  0  0  0
 21 18  2  0  0  0  0
 22  6  2  0  0  0  0
 23 12  2  0  0  0  0
 24 22  1  0  0  0  0
 25 24  2  0  0  0  0
 21 11  1  0  0  0  0
 12 17  1  0  0  0  0
 25 23  1  0  0  0  0
 14 13  1  0  0  0  0
M  END
> <IDNUMBER>
F3350-0581

> <Chemical_Name>
1-[4-(2,3-dihydro-1H-indole-1-sulfonyl)phenyl]pyrrolidine-2,5-dione

> <CAS>
919623-84-0

> <PriceCoeff>
1.00

> <MW>
356.40

> <Description>
solid

> <FSP3>
0.22

> <clogP>
1.37

> <TPSA>
83.14

> <Acceptor>
5

> <Donor>
0

> <RotBonds>
3

> <HAC>
25

> <Collection>
General

$$$$
F2019-0606
  -ISIS-  06222304352D

 28 29  0  0  0  0  0  0  0  0999 V2000
   -3.1583    2.9833    0.0000 C   0  0  0  0  0  0  0  0  0  0  0  0
   -0.2958    2.9833    0.0000 N   0  0  3  0  0  0  0  0  0  0  0  0
   -3.9125    2.6458    0.0000 N   0  0  0  0  0  0  0  0  0  0  0  0
   -2.4375    2.5625    0.0000 N   0  0  3  0  0  0  0  0  0  0  0  0
   -3.2375    3.8000    0.0000 S   0  0  0  0  0  0  0  0  0  0  0  0
   -1.7250    2.9833    0.0000 C   0  0  0  0  0  0  0  0  0  0  0  0
   -1.0125    2.5625    0.0000 C   0  0  0  0  0  0  0  0  0  0  0  0
   -0.2125    3.8000    0.0000 C   0  0  0  0  0  0  0  0  0  0  0  0
    0.4542    2.6458    0.0000 C   0  0  0  0  0  0  0  0  0  0  0  0
   -4.0500    3.9708    0.0000 C   0  0  0  0  0  0  0  0  0  0  0  0
   -4.4708    3.2583    0.0000 C   0  0  0  0  0  0  0  0  0  0  0  0
   -4.4583    4.6792    0.0000 C   0  0  0  0  0  0  0  0  0  0  0  0
   -1.7250    3.8000    0.0000 O   0  0  0  0  0  0  0  0  0  0  0  0
    0.5917    3.9708    0.0000 C   0  0  0  0  0  0  0  0  0  0  0  0
    1.0125    3.2583    0.0000 C   0  0  0  0  0  0  0  0  0  0  0  0
   -0.8125    4.3417    0.0000 O   0  0  0  0  0  0  0  0  0  0  0  0
    0.6292    1.8333    0.0000 O   0  0  0  0  0  0  0  0  0  0  0  0
   -5.2833    3.2583    0.0000 C   0  0  0  0  0  0  0  0  0  0  0  0
   -5.2833    4.6792    0.0000 C   0  0  0  0  0  0  0  0  0  0  0  0
   -2.4375    1.7375    0.0000 C   0  0  0  0  0  0  0  0  0  0  0  0
   -3.1583    1.3250    0.0000 C   0  0  0  0  0  0  0  0  0  0  0  0
   -3.8708    0.0875    0.0000 N   0  0  3  0  0  0  0  0  0  0  0  0
   -5.6958    3.9708    0.0000 C   0  0  0  0  0  0  0  0  0  0  0  0
   -5.6958    5.4042    0.0000 Cl  0  0  0  0  0  0  0  0  0  0  0  0
   -3.1583    0.5000    0.0000 C   0  0  0  0  0  0  0  0  0  0  0  0
   -4.5833    0.5000    0.0000 C   0  0  0  0  0  0  0  0  0  0  0  0
   -3.8708   -0.7375    0.0000 C   0  0  0  0  0  0  0  0  0  0  0  0
    2.4000    2.4833    0.0000 Cl  0  0  0  0  0  0  0  0  0  0  0  0
  3  1  2  0  0  0  0
  4  1  1  0  0  0  0
  5  1  1  0  0  0  0
  6  4  1  0  0  0  0
  7  6  1  0  0  0  0
  8  2  1  0  0  0  0
  9  2  1  0  0  0  0
 10  5  1  0  0  0  0
 11  3  1  0  0  0  0
 12 10  1  0  0  0  0
 13  6  2  0  0  0  0
 14  8  1  0  0  0  0
 15  9  1  0  0  0  0
 16  8  2  0  0  0  0
 17  9  2  0  0  0  0
 18 11  1  0  0  0  0
 19 12  2  0  0  0  0
 20  4  1  0  0  0  0
 21 20  1  0  0  0  0
 22 25  1  0  0  0  0
 23 18  2  0  0  0  0
 24 19  1  0  0  0  0
 25 21  1  0  0  0  0
 26 22  1  0  0  0  0
 27 22  1  0  0  0  0
 10 11  2  0  0  0  0
 23 19  1  0  0  0  0
 14 15  1  0  0  0  0
  2  7  1  0  0  0  0
M  END
> <IDNUMBER>
F2019-0606

> <Chemical_Name>
N-(6-chloro-1,3-benzothiazol-2-yl)-N-[3-(dimethylamino)propyl]-2-(2,5-dioxopyrrolidin-1-yl)acetamide hydrochloride

> <CAS>
1216542-77-6

> <PriceCoeff>
1.00

> <MW>
408.90

> <Description>
solid

> <FSP3>
0.44

> <clogP>
2.29

> <TPSA>
102.06

> <Acceptor>
4

> <Donor>
1

> <RotBonds>
8

> <HAC>
27

> <Collection>
General

$$$$
F2019-1495
  -ISIS-  06222304352D

 28 29  0  0  0  0  0  0  0  0999 V2000
   -3.1583    2.9833    0.0000 C   0  0  0  0  0  0  0  0  0  0  0  0
   -3.9125    2.6458    0.0000 N   0  0  0  0  0  0  0  0  0  0  0  0
   -0.2958    2.9833    0.0000 N   0  0  3  0  0  0  0  0  0  0  0  0
   -2.4375    2.5625    0.0000 N   0  0  3  0  0  0  0  0  0  0  0  0
   -3.2458    3.8083    0.0000 S   0  0  0  0  0  0  0  0  0  0  0  0
   -4.4708    3.2500    0.0000 C   0  0  0  0  0  0  0  0  0  0  0  0
   -1.7250    2.9833    0.0000 C   0  0  0  0  0  0  0  0  0  0  0  0
   -1.0125    2.5625    0.0000 C   0  0  0  0  0  0  0  0  0  0  0  0
   -0.2125    3.8000    0.0000 C   0  0  0  0  0  0  0  0  0  0  0  0
    0.4542    2.6458    0.0000 C   0  0  0  0  0  0  0  0  0  0  0  0
   -4.0583    3.9708    0.0000 C   0  0  0  0  0  0  0  0  0  0  0  0
   -5.2875    3.2500    0.0000 C   0  0  0  0  0  0  0  0  0  0  0  0
   -1.7250    3.8000    0.0000 O   0  0  0  0  0  0  0  0  0  0  0  0
    0.5917    3.9708    0.0000 C   0  0  0  0  0  0  0  0  0  0  0  0
    1.0125    3.2583    0.0000 C   0  0  0  0  0  0  0  0  0  0  0  0
   -0.8125    4.3417    0.0000 O   0  0  0  0  0  0  0  0  0  0  0  0
    0.6292    1.8333    0.0000 O   0  0  0  0  0  0  0  0  0  0  0  0
   -2.4375    1.7375    0.0000 C   0  0  0  0  0  0  0  0  0  0  0  0
   -3.1583    1.3250    0.0000 C   0  0  0  0  0  0  0  0  0  0  0  0
   -3.8708    0.0875    0.0000 N   0  0  3  0  0  0  0  0  0  0  0  0
   -5.7083    2.5333    0.0000 Cl  0  0  0  0  0  0  0  0  0  0  0  0
   -4.4708    4.6667    0.0000 C   0  0  0  0  0  0  0  0  0  0  0  0
   -3.1583    0.5000    0.0000 C   0  0  0  0  0  0  0  0  0  0  0  0
   -5.2958    4.6667    0.0000 C   0  0  0  0  0  0  0  0  0  0  0  0
   -5.7083    3.9583    0.0000 C   0  0  0  0  0  0  0  0  0  0  0  0
   -4.5833    0.5000    0.0000 C   0  0  0  0  0  0  0  0  0  0  0  0
   -3.8708   -0.7375    0.0000 C   0  0  0  0  0  0  0  0  0  0  0  0
    2.4000    2.0583    0.0000 Cl  0  0  0  0  0  0  0  0  0  0  0  0
  3  8  1  0  0  0  0
  4  1  1  0  0  0  0
  5  1  1  0  0  0  0
  6  2  1  0  0  0  0
  7  4  1  0  0  0  0
  8  7  1  0  0  0  0
  9  3  1  0  0  0  0
 10  3  1  0  0  0  0
 11  5  1  0  0  0  0
 12  6  1  0  0  0  0
 13  7  2  0  0  0  0
 14  9  1  0  0  0  0
 15 10  1  0  0  0  0
 16  9  2  0  0  0  0
 17 10  2  0  0  0  0
 18  4  1  0  0  0  0
 19 18  1  0  0  0  0
 20 23  1  0  0  0  0
 21 12  1  0  0  0  0
 22 11  1  0  0  0  0
 23 19  1  0  0  0  0
 24 22  2  0  0  0  0
 25 12  2  0  0  0  0
 26 20  1  0  0  0  0
 27 20  1  0  0  0  0
 11  6  2  0  0  0  0
 25 24  1  0  0  0  0
 14 15  1  0  0  0  0
  2  1  2  0  0  0  0
M  END
> <IDNUMBER>
F2019-1495

> <Chemical_Name>
N-(4-chloro-1,3-benzothiazol-2-yl)-N-[3-(dimethylamino)propyl]-2-(2,5-dioxopyrrolidin-1-yl)acetamide hydrochloride

> <CAS>
1217111-94-8

> <PriceCoeff>
1.00

> <MW>
408.90

> <Description>
solid

> <FSP3>
0.44

> <clogP>
2.29

> <TPSA>
102.06

> <Acceptor>
4

> <Donor>
1

> <RotBonds>
8

> <HAC>
27

> <Collection>
General

$$$$
F2604-0411
  -ISIS-  06222321142D

 30 33  0  0  0  0  0  0  0  0999 V2000
    1.6417    3.6458    0.0000 C   0  0  0  0  0  0  0  0  0  0  0  0
    1.2042    2.9458    0.0000 C   0  0  0  0  0  0  0  0  0  0  0  0
    2.9375    5.7625    0.0000 N   0  3  0  0  0  0  0  0  0  0  0  0
    0.3792    2.9708    0.0000 N   0  0  3  0  0  0  0  0  0  0  0  0
   -2.4875    3.7750    0.0000 N   0  0  0  0  0  0  0  0  0  0  0  0
   -3.3125    3.8000    0.0000 N   0  0  0  0  0  0  0  0  0  0  0  0
   -1.2708    3.0250    0.0000 N   0  0  3  0  0  0  0  0  0  0  0  0
    2.4750    3.6333    0.0000 C   0  0  0  0  0  0  0  0  0  0  0  0
   -2.1000    3.0500    0.0000 C   0  0  0  0  0  0  0  0  0  0  0  0
   -3.7583    3.0958    0.0000 C   0  0  0  0  0  0  0  0  0  0  0  0
    2.5042    5.0625    0.0000 C   0  0  0  0  0  0  0  0  0  0  0  0
   -4.5833    3.1208    0.0000 N   0  0  3  0  0  0  0  0  0  0  0  0
    2.9125    4.3250    0.0000 C   0  0  0  0  0  0  0  0  0  0  0  0
    1.2542    4.3667    0.0000 C   0  0  0  0  0  0  0  0  0  0  0  0
    3.7542    5.7417    0.0000 O   0  5  0  0  0  0  0  0  0  0  0  0
    2.5417    6.4875    0.0000 O   0  0  0  0  0  0  0  0  0  0  0  0
    1.5917    2.2125    0.0000 O   0  0  0  0  0  0  0  0  0  0  0  0
   -0.0083    3.7083    0.0000 C   0  0  0  0  0  0  0  0  0  0  0  0
   -0.0583    2.2708    0.0000 C   0  0  0  0  0  0  0  0  0  0  0  0
   -0.8375    3.7333    0.0000 C   0  0  0  0  0  0  0  0  0  0  0  0
   -0.8833    2.2875    0.0000 C   0  0  0  0  0  0  0  0  0  0  0  0
    1.6667    5.0667    0.0000 C   0  0  0  0  0  0  0  0  0  0  0  0
   -3.3583    2.3708    0.0000 C   0  0  0  0  0  0  0  0  0  0  0  0
   -2.5333    2.3458    0.0000 C   0  0  0  0  0  0  0  0  0  0  0  0
    3.1792    3.1833    0.0000 Cl  0  0  0  0  0  0  0  0  0  0  0  0
   -5.0208    2.4208    0.0000 C   0  0  0  0  0  0  0  0  0  0  0  0
   -4.9708    3.8458    0.0000 C   0  0  0  0  0  0  0  0  0  0  0  0
   -5.8458    2.4458    0.0000 C   0  0  0  0  0  0  0  0  0  0  0  0
   -5.7958    3.8708    0.0000 C   0  0  0  0  0  0  0  0  0  0  0  0
   -6.2292    3.1708    0.0000 C   0  0  0  0  0  0  0  0  0  0  0  0
  2  1  1  0  0  0  0
  3 11  1  0  0  0  0
  4  2  1  0  0  0  0
  5  9  2  0  0  0  0
  6  5  1  0  0  0  0
  7 21  1  0  0  0  0
  8  1  1  0  0  0  0
  9  7  1  0  0  0  0
 10 23  1  0  0  0  0
 11 22  2  0  0  0  0
 12 10  1  0  0  0  0
 13  8  2  0  0  0  0
 14  1  2  0  0  0  0
 15  3  1  0  0  0  0
 16  3  2  0  0  0  0
 17  2  2  0  0  0  0
 18  4  1  0  0  0  0
 19  4  1  0  0  0  0
 20 18  1  0  0  0  0
 21 19  1  0  0  0  0
 22 14  1  0  0  0  0
 23 24  2  0  0  0  0
 24  9  1  0  0  0  0
 25  8  1  0  0  0  0
 26 12  1  0  0  0  0
 27 12  1  0  0  0  0
 28 26  1  0  0  0  0
 29 27  1  0  0  0  0
 30 29  1  0  0  0  0
 13 11  1  0  0  0  0
 20  7  1  0  0  0  0
  6 10  2  0  0  0  0
 28 30  1  0  0  0  0
M  CHG  2   3   1  15  -1
M  END
> <IDNUMBER>
F2604-0411

> <Chemical_Name>
3-[4-(2-chloro-4-nitrobenzoyl)piperazin-1-yl]-6-(piperidin-1-yl)pyridazine

> <CAS>
898459-69-3

> <PriceCoeff>
1.00

> <MW>
430.89

> <Description>
solid

> <FSP3>
0.45

> <clogP>
3.17

> <TPSA>
95.71

> <Acceptor>
5

> <Donor>
2

> <RotBonds>
5

> <HAC>
30

> <Collection>
General

$$$$
F0807-0474
  -ISIS-  06222321452D

 22 23  0  0  0  0  0  0  0  0999 V2000
   -1.0708    0.4500    0.0000 N   0  0  0  0  0  0  0  0  0  0  0  0
   -2.4708    1.2625    0.0000 N   0  0  0  0  0  0  0  0  0  0  0  0
   -2.4708   -0.3542    0.0000 N   0  0  0  0  0  0  0  0  0  0  0  0
   -1.5500    1.2333    0.0000 C   0  0  0  0  0  0  0  0  0  0  0  0
   -2.9458    0.4625    0.0000 C   0  0  0  0  0  0  0  0  0  0  0  0
   -1.5458   -0.3667    0.0000 C   0  0  0  0  0  0  0  0  0  0  0  0
   -1.0833    2.0458    0.0000 S   0  0  0  0  0  0  0  0  0  0  0  0
    0.3167    2.8458    0.0000 C   0  0  0  0  0  0  0  0  0  0  0  0
   -0.1333    2.0458    0.0000 C   0  0  0  0  0  0  0  0  0  0  0  0
   -1.0833   -1.1792    0.0000 N   0  0  0  0  0  0  0  0  0  0  0  0
   -3.8958    0.4625    0.0000 N   0  0  0  0  0  0  0  0  0  0  0  0
   -0.1458    3.6500    0.0000 O   0  0  0  0  0  0  0  0  0  0  0  0
    1.2500    2.8333    0.0000 C   0  0  0  0  0  0  0  0  0  0  0  0
   -4.3708    1.2625    0.0000 C   0  0  0  0  0  0  0  0  0  0  0  0
   -1.5500   -1.9875    0.0000 C   0  0  0  0  0  0  0  0  0  0  0  0
    1.7167    3.6458    0.0000 C   0  0  0  0  0  0  0  0  0  0  0  0
    1.7042    2.0208    0.0000 C   0  0  0  0  0  0  0  0  0  0  0  0
   -5.3208    1.2625    0.0000 C   0  0  0  0  0  0  0  0  0  0  0  0
   -1.1000   -2.7792    0.0000 C   0  0  0  0  0  0  0  0  0  0  0  0
    2.6375    2.0208    0.0000 C   0  0  0  0  0  0  0  0  0  0  0  0
    2.6542    3.6333    0.0000 C   0  0  0  0  0  0  0  0  0  0  0  0
    3.1167    2.8208    0.0000 C   0  0  0  0  0  0  0  0  0  0  0  0
  2  4  2  0  0  0  0
  3  6  1  0  0  0  0
  4  1  1  0  0  0  0
  5  3  2  0  0  0  0
  6  1  2  0  0  0  0
  7  4  1  0  0  0  0
  8  9  1  0  0  0  0
  9  7  1  0  0  0  0
 10  6  1  0  0  0  0
 11  5  1  0  0  0  0
 12  8  2  0  0  0  0
 13  8  1  0  0  0  0
 14 11  1  0  0  0  0
 15 10  1  0  0  0  0
 16 13  2  0  0  0  0
 17 13  1  0  0  0  0
 18 14  1  0  0  0  0
 19 15  1  0  0  0  0
 20 17  2  0  0  0  0
 21 16  1  0  0  0  0
 22 20  1  0  0  0  0
  5  2  1  0  0  0  0
 21 22  2  0  0  0  0
M  END
> <IDNUMBER>
F0807-0474

> <Chemical_Name>
2-{[4,6-bis(ethylamino)-1,3,5-triazin-2-yl]sulfanyl}-1-phenylethan-1-one

> <CAS>
324578-53-2

> <PriceCoeff>
1.00

> <MW>
317.41

> <Description>
solid

> <FSP3>
0.33

> <clogP>
3.85

> <TPSA>
105.10

> <Acceptor>
4

> <Donor>
2

> <RotBonds>
8

> <HAC>
22

> <Collection>
General

$$$$
F6660-2186
  -ISIS-  06222321472D

 28 30  0  0  0  0  0  0  0  0999 V2000
    9.3042   -2.8167    0.0000 C   0  0  0  0  0  0  0  0  0  0  0  0
    7.8792   -2.8167    0.0000 C   0  0  0  0  0  0  0  0  0  0  0  0
    8.5917   -2.4042    0.0000 C   0  0  0  0  0  0  0  0  0  0  0  0
    7.8792   -3.6417    0.0000 C   0  0  0  0  0  0  0  0  0  0  0  0
    9.3042   -3.6417    0.0000 C   0  0  0  0  0  0  0  0  0  0  0  0
    8.5917   -4.0542    0.0000 N   0  0  3  0  0  0  0  0  0  0  0  0
    7.1667   -4.0542    0.0000 C   0  0  0  0  0  0  0  0  0  0  0  0
    6.4500   -3.6417    0.0000 C   0  0  0  0  0  0  0  0  0  0  0  0
    7.1667   -2.4042    0.0000 C   0  0  0  0  0  0  0  0  0  0  0  0
    5.6792   -3.9500    0.0000 N   0  0  3  0  0  0  0  0  0  0  0  0
   10.0292   -2.4042    0.0000 C   0  0  0  0  0  0  0  0  0  0  0  0
    4.1417   -4.5542    0.0000 N   0  0  3  0  0  0  0  0  0  0  0  0
    6.4500   -2.8250    0.0000 C   0  0  0  0  0  0  0  0  0  0  0  0
    3.3750   -4.8667    0.0000 C   0  0  0  0  0  0  0  0  0  0  0  0
    1.1875   -4.9667    0.0000 N   0  0  0  0  0  0  0  0  0  0  0  0
    1.9542   -4.6625    0.0000 C   0  0  0  0  0  0  0  0  0  0  0  0
    2.7250   -4.3542    0.0000 C   0  0  0  0  0  0  0  0  0  0  0  0
    8.5917   -1.5792    0.0000 O   0  0  0  0  0  0  0  0  0  0  0  0
    5.5542   -4.7667    0.0000 C   0  0  0  0  0  0  0  0  0  0  0  0
    5.0292   -3.4375    0.0000 C   0  0  0  0  0  0  0  0  0  0  0  0
    4.2625   -3.7417    0.0000 C   0  0  0  0  0  0  0  0  0  0  0  0
    4.7917   -5.0667    0.0000 C   0  0  0  0  0  0  0  0  0  0  0  0
   10.0292   -1.5792    0.0000 O   0  0  0  0  0  0  0  0  0  0  0  0
    3.2542   -5.6792    0.0000 O   0  0  0  0  0  0  0  0  0  0  0  0
    5.7292   -2.4042    0.0000 F   0  0  0  0  0  0  0  0  0  0  0  0
   10.7417   -2.8250    0.0000 O   0  0  0  0  0  0  0  0  0  0  0  0
    8.5917   -4.8792    0.0000 C   0  0  0  0  0  0  0  0  0  0  0  0
    7.8792   -5.2917    0.0000 C   0  0  0  0  0  0  0  0  0  0  0  0
  2  3  1  0  0  0  0
  3  1  1  0  0  0  0
  4  6  1  0  0  0  0
  5  1  2  0  0  0  0
  6  5  1  0  0  0  0
  7  4  2  0  0  0  0
  8  7  1  0  0  0  0
  9  2  2  0  0  0  0
 10  8  1  0  0  0  0
 11  1  1  0  0  0  0
 12 21  1  0  0  0  0
 13  9  1  0  0  0  0
 14 12  1  0  0  0  0
 15 16  3  0  0  0  0
 16 17  1  0  0  0  0
 17 14  1  0  0  0  0
 18  3  2  0  0  0  0
 19 10  1  0  0  0  0
 20 10  1  0  0  0  0
 21 20  1  0  0  0  0
 22 19  1  0  0  0  0
 23 11  2  0  0  0  0
 24 14  2  0  0  0  0
 25 13  1  0  0  0  0
 26 11  1  0  0  0  0
 27  6  1  0  0  0  0
 28 27  1  0  0  0  0
  4  2  1  0  0  0  0
  8 13  2  0  0  0  0
 12 22  1  0  0  0  0
M  END
> <IDNUMBER>
F6660-2186

> <Chemical_Name>
7-[4-(2-cyanoacetyl)piperazin-1-yl]-1-ethyl-6-fluoro-4-oxo-1,4-dihydroquinoline-3-carboxylic acid

> <CAS>
2379995-76-1

> <PriceCoeff>
1.00

> <MW>
386.38

> <Description>
solid

> <FSP3>
0.37

> <clogP>
1.03

> <TPSA>
104.95

> <Acceptor>
7

> <Donor>
2

> <RotBonds>
5

> <HAC>
28

> <Collection>
General

> <Reference_compound>
CHEMBL8

> <Similarity>
0.8720

$$$$
F3350-0589
  -ISIS-  06222321152D

 24 26  0  0  0  0  0  0  0  0999 V2000
    4.2667   -2.1292    0.0000 S   0  0  3  0  0  0  0  0  0  0  0  0
    7.0917   -3.7917    0.0000 N   0  0  3  0  0  0  0  0  0  0  0  0
    3.5667   -1.7167    0.0000 N   0  0  0  0  0  0  0  0  0  0  0  0
    7.1750   -4.6167    0.0000 C   0  0  0  0  0  0  0  0  0  0  0  0
    7.8500   -3.4667    0.0000 C   0  0  0  0  0  0  0  0  0  0  0  0
    2.8542   -1.3042    0.0000 C   0  0  0  0  0  0  0  0  0  0  0  0
    4.9792   -2.5417    0.0000 C   0  0  0  0  0  0  0  0  0  0  0  0
    6.3875   -3.3750    0.0000 C   0  0  0  0  0  0  0  0  0  0  0  0
    4.6917   -1.4292    0.0000 O   0  0  0  0  0  0  0  0  0  0  0  0
    3.8542   -2.8417    0.0000 O   0  0  0  0  0  0  0  0  0  0  0  0
    8.3917   -4.0875    0.0000 C   0  0  0  0  0  0  0  0  0  0  0  0
    7.9750   -4.7917    0.0000 C   0  0  0  0  0  0  0  0  0  0  0  0
    2.8667   -0.4917    0.0000 C   0  0  0  0  0  0  0  0  0  0  0  0
    6.5542   -5.1542    0.0000 O   0  0  0  0  0  0  0  0  0  0  0  0
    8.0292   -2.6667    0.0000 O   0  0  0  0  0  0  0  0  0  0  0  0
    4.9667   -3.3667    0.0000 C   0  0  0  0  0  0  0  0  0  0  0  0
    5.6875   -2.1417    0.0000 C   0  0  0  0  0  0  0  0  0  0  0  0
    5.6792   -3.7792    0.0000 C   0  0  0  0  0  0  0  0  0  0  0  0
    6.3917   -2.5625    0.0000 C   0  0  0  0  0  0  0  0  0  0  0  0
    3.5875   -0.0917    0.0000 F   0  0  0  0  0  0  0  0  0  0  0  0
    2.1500   -1.7125    0.0000 C   0  0  0  0  0  0  0  0  0  0  0  0
    2.1542   -0.0750    0.0000 C   0  0  0  0  0  0  0  0  0  0  0  0
    1.4417   -1.3042    0.0000 C   0  0  0  0  0  0  0  0  0  0  0  0
    1.4500   -0.4750    0.0000 C   0  0  0  0  0  0  0  0  0  0  0  0
  2  8  1  0  0  0  0
  3  1  1  0  0  0  0
  4  2  1  0  0  0  0
  5  2  1  0  0  0  0
  6  3  1  0  0  0  0
  7  1  1  0  0  0  0
  8 19  1  0  0  0  0
  9  1  2  0  0  0  0
 10  1  2  0  0  0  0
 11  5  1  0  0  0  0
 12  4  1  0  0  0  0
 13  6  1  0  0  0  0
 14  4  2  0  0  0  0
 15  5  2  0  0  0  0
 16  7  2  0  0  0  0
 17  7  1  0  0  0  0
 18 16  1  0  0  0  0
 19 17  2  0  0  0  0
 20 13  1  0  0  0  0
 21  6  2  0  0  0  0
 22 13  2  0  0  0  0
 23 21  1  0  0  0  0
 24 23  2  0  0  0  0
  8 18  2  0  0  0  0
 24 22  1  0  0  0  0
 11 12  1  0  0  0  0
M  END
> <IDNUMBER>
F3350-0589

> <Chemical_Name>
4-(2,5-dioxopyrrolidin-1-yl)-N-(2-fluorophenyl)benzene-1-sulfonamide

> <CAS>
919681-14-4

> <PriceCoeff>
1.00

> <MW>
348.35

> <Description>
solid

> <FSP3>
0.12

> <clogP>
0.64

> <TPSA>
91.93

> <Acceptor>
5

> <Donor>
1

> <RotBonds>
4

> <HAC>
24

> <Collection>
General

$$$$
F6660-2932
  -ISIS-  06222321442D

 28 30  0  0  0  0  0  0  0  0999 V2000
   -0.0583    2.4333    0.0000 C   0  0  0  0  0  0  0  0  0  0  0  0
   -1.1708    2.4375    0.0000 C   0  0  0  0  0  0  0  0  0  0  0  0
   -0.6125    2.7583    0.0000 C   0  0  0  0  0  0  0  0  0  0  0  0
   -1.1833    1.7875    0.0000 C   0  0  0  0  0  0  0  0  0  0  0  0
   -0.0583    1.7833    0.0000 C   0  0  0  0  0  0  0  0  0  0  0  0
   -0.6208    1.4625    0.0000 N   0  0  3  0  0  0  0  0  0  0  0  0
   -1.7333    1.4708    0.0000 C   0  0  0  0  0  0  0  0  0  0  0  0
   -2.2958    1.7875    0.0000 C   0  0  0  0  0  0  0  0  0  0  0  0
   -1.7333    2.7708    0.0000 C   0  0  0  0  0  0  0  0  0  0  0  0
   -2.8583    1.4625    0.0000 N   0  0  3  0  0  0  0  0  0  0  0  0
    0.5125    2.7500    0.0000 C   0  0  0  0  0  0  0  0  0  0  0  0
   -3.9750    0.8208    0.0000 N   0  0  3  0  0  0  0  0  0  0  0  0
   -2.2958    2.4375    0.0000 C   0  0  0  0  0  0  0  0  0  0  0  0
   -4.5458    0.4958    0.0000 C   0  0  0  0  0  0  0  0  0  0  0  0
   -6.2167    0.8208    0.0000 N   0  0  0  0  0  0  0  0  0  0  0  0
   -5.6708    0.5000    0.0000 C   0  0  0  0  0  0  0  0  0  0  0  0
   -5.1000    0.8208    0.0000 C   0  0  0  0  0  0  0  0  0  0  0  0
   -0.6083    3.4083    0.0000 O   0  0  0  0  0  0  0  0  0  0  0  0
   -3.4208    1.7875    0.0000 C   0  0  0  0  0  0  0  0  0  0  0  0
   -2.8500    0.8208    0.0000 C   0  0  0  0  0  0  0  0  0  0  0  0
   -3.4208    0.4958    0.0000 C   0  0  0  0  0  0  0  0  0  0  0  0
   -3.9750    1.4708    0.0000 C   0  0  0  0  0  0  0  0  0  0  0  0
    0.5167    3.4083    0.0000 O   0  0  0  0  0  0  0  0  0  0  0  0
   -4.5458   -0.1542    0.0000 O   0  0  0  0  0  0  0  0  0  0  0  0
   -2.8583    2.7583    0.0000 F   0  0  0  0  0  0  0  0  0  0  0  0
    1.0667    2.4250    0.0000 O   0  0  0  0  0  0  0  0  0  0  0  0
   -0.6250    0.8125    0.0000 C   0  0  0  0  0  0  0  0  0  0  0  0
   -0.3000    0.2583    0.0000 C   0  0  0  0  0  0  0  0  0  0  0  0
  2  3  1  0  0  0  0
  3  1  1  0  0  0  0
  4  6  1  0  0  0  0
  5  1  2  0  0  0  0
  6  5  1  0  0  0  0
  7  4  1  0  0  0  0
  8  7  2  0  0  0  0
  9  2  1  0  0  0  0
 10  8  1  0  0  0  0
 11  1  1  0  0  0  0
 12 21  1  0  0  0  0
 13  9  2  0  0  0  0
 14 12  1  0  0  0  0
 15 16  3  0  0  0  0
 16 17  1  0  0  0  0
 17 14  1  0  0  0  0
 18  3  2  0  0  0  0
 19 10  1  0  0  0  0
 20 10  1  0  0  0  0
 21 20  1  0  0  0  0
 22 19  1  0  0  0  0
 23 11  2  0  0  0  0
 24 14  2  0  0  0  0
 25 13  1  0  0  0  0
 26 11  1  0  0  0  0
 27  6  1  0  0  0  0
 28 27  1  0  0  0  0
  2  4  2  0  0  0  0
 13  8  1  0  0  0  0
 22 12  1  0  0  0  0
M  END
> <IDNUMBER>
F6660-2932

> <Chemical_Name>
7-[4-(2-cyanoacetyl)piperazin-1-yl]-1-ethyl-6-fluoro-4-oxo-1,4-dihydroquinoline-3-carboxylic acid

> <CAS>
2379995-76-1

> <PriceCoeff>
1.00

> <MW>
386.38

> <Description>
solid

> <FSP3>
0.37

> <clogP>
1.03

> <TPSA>
104.95

> <Acceptor>
7

> <Donor>
2

> <RotBonds>
5

> <HAC>
28

> <Collection>
General

> <Reference_compound>
CHEMBL8

> <Similarity>
0.8720

$$$$
F0327-0351
  -ISIS-  06222321142D

 27 29  0  0  0  0  0  0  0  0999 V2000
   -1.9125    0.6125    0.0000 C   0  0  0  0  0  0  0  0  0  0  0  0
   -0.5708    0.1708    0.0000 C   0  0  0  0  0  0  0  0  0  0  0  0
    4.2500   -0.5875    0.0000 N   0  0  3  0  0  0  0  0  0  0  0  0
   -1.0833   -0.5375    0.0000 N   0  0  0  0  0  0  0  0  0  0  0  0
   -1.0708    0.8708    0.0000 S   0  0  0  0  0  0  0  0  0  0  0  0
   -1.9125   -0.2875    0.0000 C   0  0  0  0  0  0  0  0  0  0  0  0
    0.2875    0.1708    0.0000 N   0  0  0  0  0  0  0  0  0  0  0  0
    0.7292   -0.5875    0.0000 C   0  0  0  0  0  0  0  0  0  0  0  0
    4.7375   -1.3042    0.0000 C   0  0  0  0  0  0  0  0  0  0  0  0
    4.7500    0.0708    0.0000 C   0  0  0  0  0  0  0  0  0  0  0  0
   -2.6000    1.1458    0.0000 C   0  0  0  0  0  0  0  0  0  0  0  0
    3.3667   -0.5875    0.0000 C   0  0  0  0  0  0  0  0  0  0  0  0
    1.6042   -0.5875    0.0000 C   0  0  0  0  0  0  0  0  0  0  0  0
    0.2875   -1.3500    0.0000 O   0  0  0  0  0  0  0  0  0  0  0  0
    5.5875   -1.0542    0.0000 C   0  0  0  0  0  0  0  0  0  0  0  0
    5.5792   -0.1875    0.0000 C   0  0  0  0  0  0  0  0  0  0  0  0
    4.4292   -2.1292    0.0000 O   0  0  0  0  0  0  0  0  0  0  0  0
    4.4542    0.9208    0.0000 O   0  0  0  0  0  0  0  0  0  0  0  0
   -3.4208    0.8333    0.0000 O   0  0  0  0  0  0  0  0  0  0  0  0
    2.9292   -1.3500    0.0000 C   0  0  0  0  0  0  0  0  0  0  0  0
    2.9292    0.1708    0.0000 C   0  0  0  0  0  0  0  0  0  0  0  0
    2.0500   -1.3500    0.0000 C   0  0  0  0  0  0  0  0  0  0  0  0
    2.0500    0.1708    0.0000 C   0  0  0  0  0  0  0  0  0  0  0  0
   -2.4708    1.9958    0.0000 O   0  0  0  0  0  0  0  0  0  0  0  0
   -2.5958   -0.8167    0.0000 C   0  0  0  0  0  0  0  0  0  0  0  0
   -3.1625    2.5458    0.0000 C   0  0  0  0  0  0  0  0  0  0  0  0
   -3.0208    3.4208    0.0000 C   0  0  0  0  0  0  0  0  0  0  0  0
  2  5  1  0  0  0  0
  3 12  1  0  0  0  0
  4  6  1  0  0  0  0
  5  1  1  0  0  0  0
  6  1  2  0  0  0  0
  7  2  1  0  0  0  0
  8  7  1  0  0  0  0
  9  3  1  0  0  0  0
 10  3  1  0  0  0  0
 11  1  1  0  0  0  0
 12 21  1  0  0  0  0
 13  8  1  0  0  0  0
 14  8  2  0  0  0  0
 15  9  1  0  0  0  0
 16 10  1  0  0  0  0
 17  9  2  0  0  0  0
 18 10  2  0  0  0  0
 19 11  2  0  0  0  0
 20 22  1  0  0  0  0
 21 23  2  0  0  0  0
 22 13  2  0  0  0  0
 23 13  1  0  0  0  0
 24 11  1  0  0  0  0
 25  6  1  0  0  0  0
 26 24  1  0  0  0  0
 27 26  1  0  0  0  0
  4  2  2  0  0  0  0
 20 12  2  0  0  0  0
 15 16  1  0  0  0  0
M  END
> <IDNUMBER>
F0327-0351

> <Chemical_Name>
ethyl 2-[4-(2,5-dioxopyrrolidin-1-yl)benzamido]-4-methyl-1,3-thiazole-5-carboxylate

> <CAS>
330200-85-6

> <PriceCoeff>
1.00

> <MW>
387.41

> <Description>
solid

> <FSP3>
0.28

> <clogP>
1.16

> <TPSA>
133.91

> <Acceptor>
6

> <Donor>
1

> <RotBonds>
6

> <HAC>
27

> <Collection>
General

$$$$
F1383-0047
  -ISIS-  06222321142D

 20 21  0  0  0  0  0  0  0  0999 V2000
    4.9042   -1.6417    0.0000 N   0  0  3  0  0  0  0  0  0  0  0  0
    5.5750   -1.1500    0.0000 C   0  0  0  0  0  0  0  0  0  0  0  0
    5.1625   -2.4292    0.0000 C   0  0  0  0  0  0  0  0  0  0  0  0
    5.9875   -2.4292    0.0000 C   0  0  3  0  0  0  0  0  0  0  0  0
    6.2500   -1.6417    0.0000 C   0  0  0  0  0  0  0  0  0  0  0  0
    7.3042   -3.0167    0.0000 C   0  0  0  0  0  0  0  0  0  0  0  0
    7.7792   -3.6917    0.0000 C   0  0  0  0  0  0  0  0  0  0  0  0
    6.4792   -3.1042    0.0000 S   0  0  0  0  0  0  0  0  0  0  0  0
    7.4417   -4.4417    0.0000 C   0  0  0  0  0  0  0  0  0  0  0  0
    7.6292   -2.2625    0.0000 N   0  0  0  0  0  0  0  0  0  0  0  0
    5.5750   -0.3167    0.0000 O   0  0  0  0  0  0  0  0  0  0  0  0
    4.6750   -3.1042    0.0000 O   0  0  0  0  0  0  0  0  0  0  0  0
    4.1167   -1.3917    0.0000 C   0  0  3  0  0  0  0  0  0  0  0  0
    7.9292   -5.1167    0.0000 O   0  0  0  0  0  0  0  0  0  0  0  0
    6.6167   -4.5292    0.0000 O   0  0  0  0  0  0  0  0  0  0  0  0
    8.6042   -3.5917    0.0000 C   0  0  0  0  0  0  0  0  0  0  0  0
    8.4542   -2.1750    0.0000 C   0  0  0  0  0  0  0  0  0  0  0  0
    3.9500   -0.5792    0.0000 C   0  0  0  0  0  0  0  0  0  0  0  0
    3.5125   -1.9417    0.0000 C   0  0  0  0  0  0  0  0  0  0  0  0
    8.9500   -2.8417    0.0000 C   0  0  0  0  0  0  0  0  0  0  0  0
  2  1  1  0  0  0  0
  3  1  1  0  0  0  0
  4  3  1  0  0  0  0
  5  2  1  0  0  0  0
  6  8  1  0  0  0  0
  7  6  2  0  0  0  0
  8  4  1  0  0  0  0
  9  7  1  0  0  0  0
 10  6  1  0  0  0  0
 11  2  2  0  0  0  0
 12  3  2  0  0  0  0
 13  1  1  0  0  0  0
 14  9  2  0  0  0  0
 15  9  1  0  0  0  0
 16  7  1  0  0  0  0
 17 10  2  0  0  0  0
 18 13  1  0  0  0  0
 19 13  1  0  0  0  0
 20 17  1  0  0  0  0
  5  4  1  0  0  0  0
 20 16  2  0  0  0  0
M  END
> <IDNUMBER>
F1383-0047

> <Chemical_Name>
2-{[2,5-dioxo-1-(propan-2-yl)pyrrolidin-3-yl]sulfanyl}pyridine-3-carboxylic acid

> <CAS>
526190-73-8

> <PriceCoeff>
1.00

> <MW>
294.33

> <Description>
solid

> <FSP3>
0.38

> <clogP>
1.51

> <TPSA>
112.87

> <Acceptor>
5

> <Donor>
1

> <RotBonds>
4

> <HAC>
20

> <Collection>
General

$$$$
F2604-0480
  -ISIS-  06222321142D

 31 34  0  0  0  0  0  0  0  0999 V2000
    1.6417    3.6458    0.0000 C   0  0  0  0  0  0  0  0  0  0  0  0
    1.2042    2.9458    0.0000 C   0  0  0  0  0  0  0  0  0  0  0  0
    2.9375    5.7625    0.0000 N   0  3  0  0  0  0  0  0  0  0  0  0
    0.3792    2.9708    0.0000 N   0  0  3  0  0  0  0  0  0  0  0  0
   -2.4875    3.7750    0.0000 N   0  0  0  0  0  0  0  0  0  0  0  0
   -3.3125    3.8000    0.0000 N   0  0  0  0  0  0  0  0  0  0  0  0
   -1.2708    3.0250    0.0000 N   0  0  3  0  0  0  0  0  0  0  0  0
    2.4750    3.6333    0.0000 C   0  0  0  0  0  0  0  0  0  0  0  0
   -2.1000    3.0500    0.0000 C   0  0  0  0  0  0  0  0  0  0  0  0
   -3.7583    3.0958    0.0000 C   0  0  0  0  0  0  0  0  0  0  0  0
    2.5042    5.0625    0.0000 C   0  0  0  0  0  0  0  0  0  0  0  0
   -4.5833    3.1208    0.0000 N   0  0  3  0  0  0  0  0  0  0  0  0
    2.9125    4.3250    0.0000 C   0  0  0  0  0  0  0  0  0  0  0  0
    1.2542    4.3667    0.0000 C   0  0  0  0  0  0  0  0  0  0  0  0
    3.7542    5.7417    0.0000 O   0  5  0  0  0  0  0  0  0  0  0  0
    2.5417    6.4875    0.0000 O   0  0  0  0  0  0  0  0  0  0  0  0
    1.5917    2.2125    0.0000 O   0  0  0  0  0  0  0  0  0  0  0  0
   -0.0083    3.7083    0.0000 C   0  0  0  0  0  0  0  0  0  0  0  0
   -0.0583    2.2708    0.0000 C   0  0  0  0  0  0  0  0  0  0  0  0
   -0.8375    3.7333    0.0000 C   0  0  0  0  0  0  0  0  0  0  0  0
   -0.8833    2.2875    0.0000 C   0  0  0  0  0  0  0  0  0  0  0  0
    1.6667    5.0667    0.0000 C   0  0  0  0  0  0  0  0  0  0  0  0
   -3.3583    2.3708    0.0000 C   0  0  0  0  0  0  0  0  0  0  0  0
   -2.5333    2.3458    0.0000 C   0  0  0  0  0  0  0  0  0  0  0  0
    3.1792    3.1833    0.0000 Cl  0  0  0  0  0  0  0  0  0  0  0  0
   -4.9833    2.3458    0.0000 C   0  0  0  0  0  0  0  0  0  0  0  0
   -4.9458    3.9333    0.0000 C   0  0  0  0  0  0  0  0  0  0  0  0
   -5.8208    2.2208    0.0000 C   0  0  0  0  0  0  0  0  0  0  0  0
   -5.7833    4.0917    0.0000 C   0  0  0  0  0  0  0  0  0  0  0  0
   -6.3250    2.7333    0.0000 C   0  0  0  0  0  0  0  0  0  0  0  0
   -6.3167    3.5875    0.0000 C   0  0  0  0  0  0  0  0  0  0  0  0
  2  1  1  0  0  0  0
  3 11  1  0  0  0  0
  4  2  1  0  0  0  0
  5  9  2  0  0  0  0
  6  5  1  0  0  0  0
  7 21  1  0  0  0  0
  8  1  1  0  0  0  0
  9  7  1  0  0  0  0
 10 23  1  0  0  0  0
 11 22  2  0  0  0  0
 12 10  1  0  0  0  0
 13  8  2  0  0  0  0
 14  1  2  0  0  0  0
 15  3  1  0  0  0  0
 16  3  2  0  0  0  0
 17  2  2  0  0  0  0
 18  4  1  0  0  0  0
 19  4  1  0  0  0  0
 20 18  1  0  0  0  0
 21 19  1  0  0  0  0
 22 14  1  0  0  0  0
 23 24  2  0  0  0  0
 24  9  1  0  0  0  0
 25  8  1  0  0  0  0
 26 12  1  0  0  0  0
 27 12  1  0  0  0  0
 28 26  1  0  0  0  0
 29 27  1  0  0  0  0
 30 28  1  0  0  0  0
 31 29  1  0  0  0  0
 13 11  1  0  0  0  0
 20  7  1  0  0  0  0
  6 10  2  0  0  0  0
 31 30  1  0  0  0  0
M  CHG  2   3   1  15  -1
M  END
> <IDNUMBER>
F2604-0480

> <Chemical_Name>
1-{6-[4-(2-chloro-4-nitrobenzoyl)piperazin-1-yl]pyridazin-3-yl}azepane

> <CAS>
898434-97-4

> <PriceCoeff>
1.00

> <MW>
444.91

> <Description>
solid

> <FSP3>
0.48

> <clogP>
3.73

> <TPSA>
95.71

> <Acceptor>
5

> <Donor>
2

> <RotBonds>
5

> <HAC>
31

> <Collection>
General

$$$$
F5689-1366
  -ISIS-  06222321152D

 30 33  0  0  0  0  0  0  0  0999 V2000
   -2.8333    7.5167    0.0000 N   0  0  3  0  0  0  0  0  0  0  0  0
   -2.0125    7.5042    0.0000 C   0  0  0  0  0  0  0  0  0  0  0  0
   -3.0958    6.7292    0.0000 C   0  0  0  0  0  0  0  0  0  0  0  0
   -1.7500    6.7167    0.0000 N   0  0  0  0  0  0  0  0  0  0  0  0
   -2.4250    6.2542    0.0000 N   0  0  3  0  0  0  0  0  0  0  0  0
   -3.8708    0.5250    0.0000 N   0  0  3  0  0  0  0  0  0  0  0  0
   -1.5333    8.1750    0.0000 C   0  0  0  0  0  0  0  0  0  0  0  0
   -3.0875    0.2708    0.0000 C   0  0  0  0  0  0  0  0  0  0  0  0
   -4.3708   -0.1417    0.0000 C   0  0  0  0  0  0  0  0  0  0  0  0
   -3.8625    3.8000    0.0000 C   0  0  0  0  0  0  0  0  0  0  0  0
   -3.8750    1.3458    0.0000 C   0  0  0  0  0  0  0  0  0  0  0  0
   -1.7708    8.9625    0.0000 S   0  0  0  0  0  0  0  0  0  0  0  0
   -3.8750    6.4917    0.0000 O   0  0  0  0  0  0  0  0  0  0  0  0
   -3.8708    2.9833    0.0000 C   0  0  0  0  0  0  0  0  0  0  0  0
   -0.6958    8.1750    0.0000 C   0  0  0  0  0  0  0  0  0  0  0  0
   -3.8833   -0.8042    0.0000 C   0  0  0  0  0  0  0  0  0  0  0  0
   -3.0958   -0.5542    0.0000 C   0  0  0  0  0  0  0  0  0  0  0  0
   -2.4208    0.7458    0.0000 O   0  0  0  0  0  0  0  0  0  0  0  0
   -5.1875   -0.1292    0.0000 O   0  0  0  0  0  0  0  0  0  0  0  0
   -2.4333    5.4292    0.0000 C   0  0  0  0  0  0  0  0  0  0  0  0
   -1.1083    9.4417    0.0000 C   0  0  0  0  0  0  0  0  0  0  0  0
   -4.5833    4.2042    0.0000 O   0  0  0  0  0  0  0  0  0  0  0  0
   -0.4375    8.9542    0.0000 C   0  0  0  0  0  0  0  0  0  0  0  0
   -3.3208    8.1750    0.0000 C   0  0  0  0  0  0  0  0  0  0  0  0
   -3.1583    1.7458    0.0000 C   0  0  0  0  0  0  0  0  0  0  0  0
   -4.5833    1.7500    0.0000 C   0  0  0  0  0  0  0  0  0  0  0  0
   -3.1500    4.2042    0.0000 N   0  0  0  0  0  0  0  0  0  0  0  0
   -4.5833    2.5708    0.0000 C   0  0  0  0  0  0  0  0  0  0  0  0
   -3.1583    2.5708    0.0000 C   0  0  0  0  0  0  0  0  0  0  0  0
   -3.1500    5.0292    0.0000 C   0  0  0  0  0  0  0  0  0  0  0  0
  2  1  1  0  0  0  0
  3  1  1  0  0  0  0
  4  2  2  0  0  0  0
  5  3  1  0  0  0  0
  6 11  1  0  0  0  0
  7  2  1  0  0  0  0
  8  6  1  0  0  0  0
  9  6  1  0  0  0  0
 10 27  1  0  0  0  0
 11 25  2  0  0  0  0
 12  7  1  0  0  0  0
 13  3  2  0  0  0  0
 14 10  1  0  0  0  0
 15  7  2  0  0  0  0
 16  9  1  0  0  0  0
 17  8  1  0  0  0  0
 18  8  2  0  0  0  0
 19  9  2  0  0  0  0
 20  5  1  0  0  0  0
 21 12  1  0  0  0  0
 22 10  2  0  0  0  0
 23 15  1  0  0  0  0
 24  1  1  0  0  0  0
 25 29  1  0  0  0  0
 26 28  2  0  0  0  0
 27 30  1  0  0  0  0
 28 14  1  0  0  0  0
 29 14  2  0  0  0  0
 30 20  1  0  0  0  0
  4  5  1  0  0  0  0
 21 23  2  0  0  0  0
 11 26  1  0  0  0  0
 17 16  1  0  0  0  0
M  END
> <IDNUMBER>
F5689-1366

> <Chemical_Name>
4-(2,5-dioxopyrrolidin-1-yl)-N-{2-[4-methyl-5-oxo-3-(thiophen-2-yl)-4,5-dihydro-1H-1,2,4-triazol-1-yl]ethyl}benzamide

> <CAS>
1203014-22-5

> <PriceCoeff>
1.00

> <MW>
425.46

> <Description>
solid

> <FSP3>
0.25

> <clogP>
0.75

> <TPSA>
130.63

> <Acceptor>
5

> <Donor>
1

> <RotBonds>
6

> <HAC>
30

> <Collection>
General

$$$$
F1018-1721
  -ISIS-  06222321142D

 19 20  0  0  0  0  0  0  0  0999 V2000
    2.3625    2.8000    0.0000 N   0  0  3  0  0  0  0  0  0  0  0  0
    3.5750    2.1000    0.0000 C   0  0  0  0  0  0  0  0  0  0  0  0
    4.8042    2.8208    0.0000 C   0  0  0  0  0  0  0  0  0  0  0  0
    6.0167    0.7000    0.0000 N   0  3  0  0  0  0  0  0  0  0  0  0
    2.0667    4.1542    0.0000 N   0  0  0  0  0  0  0  0  0  0  0  0
    6.0167    2.1000    0.0000 C   0  0  0  0  0  0  0  0  0  0  0  0
    1.1542    2.1000    0.0000 C   0  0  0  0  0  0  0  0  0  0  0  0
    0.1167    3.0458    0.0000 C   0  0  0  0  0  0  0  0  0  0  0  0
    0.7000    4.3125    0.0000 C   0  0  0  0  0  0  0  0  0  0  0  0
    4.8042    4.2042    0.0000 C   0  0  0  0  0  0  0  0  0  0  0  0
    7.2250    2.8208    0.0000 C   0  0  0  0  0  0  0  0  0  0  0  0
    4.8042   -0.0000    0.0000 O   0  5  0  0  0  0  0  0  0  0  0  0
    3.5750    0.7000    0.0000 O   0  0  0  0  0  0  0  0  0  0  0  0
    7.2250   -0.0000    0.0000 O   0  0  0  0  0  0  0  0  0  0  0  0
    7.2250    4.2042    0.0000 C   0  0  0  0  0  0  0  0  0  0  0  0
    6.0167    4.9042    0.0000 C   0  0  0  0  0  0  0  0  0  0  0  0
    8.4542    4.9042    0.0000 Cl  0  0  0  0  0  0  0  0  0  0  0  0
    1.0167    0.7000    0.0000 C   0  0  0  0  0  0  0  0  0  0  0  0
    0.0000    5.5292    0.0000 C   0  0  0  0  0  0  0  0  0  0  0  0
  2  1  1  0  0  0  0
  3  2  1  0  0  0  0
  4  6  1  0  0  0  0
  5  1  1  0  0  0  0
  6  3  2  0  0  0  0
  7  1  1  0  0  0  0
  8  7  2  0  0  0  0
  9  5  2  0  0  0  0
 10  3  1  0  0  0  0
 11  6  1  0  0  0  0
 12  4  1  0  0  0  0
 13  2  2  0  0  0  0
 14  4  2  0  0  0  0
 15 16  1  0  0  0  0
 16 10  2  0  0  0  0
 17 15  1  0  0  0  0
 18  7  1  0  0  0  0
 19  9  1  0  0  0  0
  8  9  1  0  0  0  0
 15 11  2  0  0  0  0
M  CHG  2   4   1  12  -1
M  END
> <IDNUMBER>
F1018-1721

> <Chemical_Name>
1-(4-chloro-2-nitrobenzoyl)-3,5-dimethyl-1H-pyrazole

> <CAS>
333311-20-9

> <PriceCoeff>
1.00

> <MW>
279.68

> <Description>
solid

> <FSP3>
0.17

> <clogP>
3.99

> <TPSA>
78.03

> <Acceptor>
4

> <Donor>
0

> <RotBonds>
3

> <HAC>
19

> <Collection>
General

$$$$
F3349-0202
  -ISIS-  06222321462D

 23 25  0  0  0  0  0  0  0  0999 V2000
    5.5667   -0.1167    0.0000 S   0  0  3  0  0  0  0  0  0  0  0  0
    2.2792   -0.1125    0.0000 N   0  0  3  0  0  0  0  0  0  0  0  0
    1.7917   -0.7750    0.0000 C   0  0  0  0  0  0  0  0  0  0  0  0
    1.8000    0.5583    0.0000 C   0  0  0  0  0  0  0  0  0  0  0  0
    6.3917   -0.1167    0.0000 N   0  0  0  0  0  0  0  0  0  0  0  0
    4.7417   -0.1167    0.0000 C   0  0  0  0  0  0  0  0  0  0  0  0
    3.1042   -0.1167    0.0000 C   0  0  0  0  0  0  0  0  0  0  0  0
    5.5667   -0.9417    0.0000 O   0  0  0  0  0  0  0  0  0  0  0  0
    5.5667    0.7083    0.0000 O   0  0  0  0  0  0  0  0  0  0  0  0
    1.0042   -0.5167    0.0000 C   0  0  0  0  0  0  0  0  0  0  0  0
    1.0125    0.3083    0.0000 C   0  0  0  0  0  0  0  0  0  0  0  0
    2.0542    1.3458    0.0000 O   0  0  0  0  0  0  0  0  0  0  0  0
    2.0417   -1.5625    0.0000 O   0  0  0  0  0  0  0  0  0  0  0  0
    4.3375    0.5958    0.0000 C   0  0  0  0  0  0  0  0  0  0  0  0
    4.3292   -0.8375    0.0000 C   0  0  0  0  0  0  0  0  0  0  0  0
    3.5167    0.5958    0.0000 C   0  0  0  0  0  0  0  0  0  0  0  0
    3.5042   -0.8292    0.0000 C   0  0  0  0  0  0  0  0  0  0  0  0
    6.8042   -0.8292    0.0000 C   0  0  0  0  0  0  0  0  0  0  0  0
    6.4000   -1.5417    0.0000 C   0  0  0  0  0  0  0  0  0  0  0  0
    7.6292   -0.8250    0.0000 C   0  0  0  0  0  0  0  0  0  0  0  0
    8.0500   -1.5292    0.0000 C   0  0  0  0  0  0  0  0  0  0  0  0
    6.8125   -2.2542    0.0000 C   0  0  0  0  0  0  0  0  0  0  0  0
    7.6375   -2.2542    0.0000 C   0  0  0  0  0  0  0  0  0  0  0  0
  2  7  1  0  0  0  0
  3  2  1  0  0  0  0
  4  2  1  0  0  0  0
  5  1  1  0  0  0  0
  6  1  1  0  0  0  0
  7 17  1  0  0  0  0
  8  1  2  0  0  0  0
  9  1  2  0  0  0  0
 10  3  1  0  0  0  0
 11  4  1  0  0  0  0
 12  4  2  0  0  0  0
 13  3  2  0  0  0  0
 14  6  2  0  0  0  0
 15  6  1  0  0  0  0
 16 14  1  0  0  0  0
 17 15  2  0  0  0  0
 18  5  1  0  0  0  0
 19 18  2  0  0  0  0
 20 18  1  0  0  0  0
 21 20  2  0  0  0  0
 22 19  1  0  0  0  0
 23 21  1  0  0  0  0
  7 16  2  0  0  0  0
 23 22  2  0  0  0  0
 10 11  1  0  0  0  0
M  END
> <IDNUMBER>
F3349-0202

> <Chemical_Name>
4-(2,5-dioxopyrrolidin-1-yl)-N-phenylbenzene-1-sulfonamide

> <CAS>
112167-37-0

> <PriceCoeff>
1.00

> <MW>
330.36

> <Description>
solid

> <FSP3>
0.12

> <clogP>
0.75

> <TPSA>
91.93

> <Acceptor>
5

> <Donor>
1

> <RotBonds>
4

> <HAC>
23

> <Collection>
General

$$$$
F3275-0038
  -ISIS-  06222321152D

 23 24  0  0  0  0  0  0  0  0999 V2000
   12.0167  -27.4917    0.0000 N   0  0  3  0  0  0  0  0  0  0  0  0
   12.1042  -28.3042    0.0000 N   0  0  0  0  0  0  0  0  0  0  0  0
   12.7750  -27.1500    0.0000 C   0  0  0  0  0  0  0  0  0  0  0  0
   13.3250  -27.7625    0.0000 C   0  0  0  0  0  0  0  0  0  0  0  0
   12.9167  -28.4792    0.0000 C   0  0  0  0  0  0  0  0  0  0  0  0
   11.3042  -27.0792    0.0000 C   0  0  0  0  0  0  0  0  0  0  0  0
    8.4417  -27.0792    0.0000 C   0  0  0  0  0  0  0  0  0  0  0  0
    7.7292  -27.4917    0.0000 C   0  0  0  0  0  0  0  0  0  0  0  0
    7.0167  -27.0792    0.0000 C   0  0  0  0  0  0  0  0  0  0  0  0
    9.1625  -27.4917    0.0000 O   0  0  0  0  0  0  0  0  0  0  0  0
    8.4417  -26.2542    0.0000 C   0  0  0  0  0  0  0  0  0  0  0  0
   14.1417  -27.6750    0.0000 Br  0  0  0  0  0  0  0  0  0  0  0  0
   10.5917  -27.4917    0.0000 C   0  0  3  0  0  0  0  0  0  0  0  0
    7.7292  -28.3167    0.0000 C   0  0  3  0  0  0  0  0  0  0  0  0
    9.8750  -27.0792    0.0000 C   0  0  0  0  0  0  0  0  0  0  0  0
   12.9417  -26.3417    0.0000 C   0  0  0  0  0  0  0  0  0  0  0  0
    7.0167  -26.2542    0.0000 C   0  0  0  0  0  0  0  0  0  0  0  0
    7.7292  -25.8417    0.0000 C   0  0  0  0  0  0  0  0  0  0  0  0
   13.2542  -29.2292    0.0000 C   0  0  0  0  0  0  0  0  0  0  0  0
   10.5917  -28.3167    0.0000 O   0  0  0  0  0  0  0  0  0  0  0  0
    8.4417  -28.7292    0.0000 C   0  0  0  0  0  0  0  0  0  0  0  0
    7.0167  -28.7292    0.0000 C   0  0  0  0  0  0  0  0  0  0  0  0
    7.7250  -25.0167    0.0000 C   0  0  0  0  0  0  0  0  0  0  0  0
  2  1  1  0  0  0  0
  3  1  1  0  0  0  0
  4  3  2  0  0  0  0
  5  2  2  0  0  0  0
  6  1  1  0  0  0  0
  7 10  1  0  0  0  0
  8  7  2  0  0  0  0
  9  8  1  0  0  0  0
 10 15  1  0  0  0  0
 11  7  1  0  0  0  0
 12  4  1  0  0  0  0
 13  6  1  0  0  0  0
 14  8  1  0  0  0  0
 15 13  1  0  0  0  0
 16  3  1  0  0  0  0
 17 18  1  0  0  0  0
 18 11  2  0  0  0  0
 19  5  1  0  0  0  0
 20 13  1  0  0  0  0
 21 14  1  0  0  0  0
 22 14  1  0  0  0  0
 23 18  1  0  0  0  0
  5  4  1  0  0  0  0
 17  9  2  0  0  0  0
M  END
> <IDNUMBER>
F3275-0038

> <Chemical_Name>
1-(4-bromo-3,5-dimethyl-1H-pyrazol-1-yl)-3-[5-methyl-2-(propan-2-yl)phenoxy]propan-2-ol

> <CAS>
1007043-58-4

> <PriceCoeff>
1.00

> <MW>
381.31

> <Description>
solid

> <FSP3>
0.50

> <clogP>
4.32

> <TPSA>
47.28

> <Acceptor>
3

> <Donor>
1

> <RotBonds>
6

> <HAC>
23

> <Collection>
General

$$$$
F1383-0046
  -ISIS-  06222321142D

 18 19  0  0  0  0  0  0  0  0999 V2000
    0.9042   -1.2500    0.0000 N   0  0  3  0  0  0  0  0  0  0  0  0
    1.1625   -2.0417    0.0000 C   0  0  0  0  0  0  0  0  0  0  0  0
    1.5750   -0.7542    0.0000 C   0  0  0  0  0  0  0  0  0  0  0  0
    1.9875   -2.0417    0.0000 C   0  0  3  0  0  0  0  0  0  0  0  0
    3.3042   -2.6250    0.0000 C   0  0  0  0  0  0  0  0  0  0  0  0
    2.2500   -1.2500    0.0000 C   0  0  0  0  0  0  0  0  0  0  0  0
    3.7792   -3.3000    0.0000 C   0  0  0  0  0  0  0  0  0  0  0  0
    2.4792   -2.7125    0.0000 S   0  0  0  0  0  0  0  0  0  0  0  0
    3.4417   -4.0500    0.0000 C   0  0  0  0  0  0  0  0  0  0  0  0
    3.6292   -1.8667    0.0000 N   0  0  0  0  0  0  0  0  0  0  0  0
    0.6750   -2.7125    0.0000 O   0  0  0  0  0  0  0  0  0  0  0  0
    1.5750    0.0708    0.0000 O   0  0  0  0  0  0  0  0  0  0  0  0
    3.9292   -4.7292    0.0000 O   0  0  0  0  0  0  0  0  0  0  0  0
    0.1167   -1.0000    0.0000 C   0  0  0  0  0  0  0  0  0  0  0  0
    2.6167   -4.1417    0.0000 O   0  0  0  0  0  0  0  0  0  0  0  0
    4.6042   -3.2042    0.0000 C   0  0  0  0  0  0  0  0  0  0  0  0
    4.4542   -1.7792    0.0000 C   0  0  0  0  0  0  0  0  0  0  0  0
    4.9500   -2.4542    0.0000 C   0  0  0  0  0  0  0  0  0  0  0  0
  2  1  1  0  0  0  0
  3  1  1  0  0  0  0
  4  2  1  0  0  0  0
  5  8  1  0  0  0  0
  6  3  1  0  0  0  0
  7  5  2  0  0  0  0
  8  4  1  0  0  0  0
  9  7  1  0  0  0  0
 10  5  1  0  0  0  0
 11  2  2  0  0  0  0
 12  3  2  0  0  0  0
 13  9  2  0  0  0  0
 14  1  1  0  0  0  0
 15  9  1  0  0  0  0
 16  7  1  0  0  0  0
 17 10  2  0  0  0  0
 18 17  1  0  0  0  0
  6  4  1  0  0  0  0
 18 16  2  0  0  0  0
M  END
> <IDNUMBER>
F1383-0046

> <Chemical_Name>
2-[(1-methyl-2,5-dioxopyrrolidin-3-yl)sulfanyl]pyridine-3-carboxylic acid

> <CAS>
526190-72-7

> <PriceCoeff>
1.00

> <MW>
266.27

> <Description>
solid

> <FSP3>
0.27

> <clogP>
0.68

> <TPSA>
112.87

> <Acceptor>
5

> <Donor>
1

> <RotBonds>
3

> <HAC>
18

> <Collection>
General

$$$$
F2693-0113
  -ISIS-  06222321442D

 16 18  0  0  0  0  0  0  0  0999 V2000
    7.1542   -5.3917    0.0000 C   0  0  3  0  0  0  0  0  0  0  0  0
    7.7042   -4.8375    0.0000 N   0  0  0  0  0  0  0  0  0  0  0  0
    7.7000   -4.0417    0.0000 C   0  0  0  0  0  0  0  0  0  0  0  0
    6.3375   -3.5000    0.0000 C   0  0  3  0  0  0  0  0  0  0  0  0
    7.1375   -3.4917    0.0000 N   0  0  0  0  0  0  0  0  0  0  0  0
    5.7792   -4.0625    0.0000 C   0  0  0  0  0  0  0  0  0  0  0  0
    6.3542   -5.4042    0.0000 O   0  0  0  0  0  0  0  0  0  0  0  0
    7.0542   -4.2667    0.0000 C   0  0  0  0  0  0  0  0  0  0  0  0
    5.7917   -4.8542    0.0000 C   0  0  0  0  0  0  0  0  0  0  0  0
    5.1000   -3.6667    0.0000 C   0  0  0  0  0  0  0  0  0  0  0  0
    8.4292   -3.7292    0.0000 O   0  0  0  0  0  0  0  0  0  0  0  0
    5.1000   -5.2542    0.0000 C   0  0  0  0  0  0  0  0  0  0  0  0
    4.4167   -4.0625    0.0000 C   0  0  0  0  0  0  0  0  0  0  0  0
    7.3125   -6.1792    0.0000 C   0  0  0  0  0  0  0  0  0  0  0  0
    4.4167   -4.8625    0.0000 C   0  0  0  0  0  0  0  0  0  0  0  0
    3.7000   -3.6417    0.0000 Cl  0  0  0  0  0  0  0  0  0  0  0  0
  2  1  1  0  0  0  0
  3  2  1  0  0  0  0
  4  8  1  0  0  0  0
  5  4  1  0  0  0  0
  6  4  1  0  0  0  0
  7  1  1  0  0  0  0
  8  1  1  0  0  0  0
  9  7  1  0  0  0  0
 10  6  2  0  0  0  0
 11  3  2  0  0  0  0
 12  9  2  0  0  0  0
 13 10  1  0  0  0  0
 14  1  1  0  0  0  0
 15 12  1  0  0  0  0
 16 13  1  0  0  0  0
  9  6  1  0  0  0  0
  5  3  1  0  0  0  0
 13 15  2  0  0  0  0
M  END
> <IDNUMBER>
F2693-0113

> <Chemical_Name>
4-chloro-9-methyl-8-oxa-10,12-diazatricyclo[7.3.1.0^{2,7}]trideca-2,4,6-trien-11-one

> <CAS>
899742-77-9

> <PriceCoeff>
1.00

> <MW>
238.67

> <Description>
solid

> <FSP3>
0.36

> <clogP>
2.08

> <TPSA>
50.36

> <Acceptor>
2

> <Donor>
2

> <RotBonds>
0

> <HAC>
16

> <Collection>
General

> <Reference_compound>
CHEMBL2252044

> <Similarity>
0.8050

$$$$
F6390-3492
  -ISIS-  06222321152D

 25 27  0  0  0  0  0  0  0  0999 V2000
   -3.8333    3.8000    0.0000 C   0  0  0  0  0  0  0  0  0  0  0  0
   -3.0958    4.2167    0.0000 N   0  0  3  0  0  0  0  0  0  0  0  0
   -3.7833    2.9583    0.0000 N   0  0  0  0  0  0  0  0  0  0  0  0
   -3.1000    5.0792    0.0000 C   0  0  0  0  0  0  0  0  0  0  0  0
   -2.3583    6.3542    0.0000 C   0  0  0  0  0  0  0  0  0  0  0  0
   -5.9667    2.4000    0.0000 C   0  0  0  0  0  0  0  0  0  0  0  0
   -1.7208    6.9167    0.0000 S   0  0  0  0  0  0  0  0  0  0  0  0
   -5.2500    2.8708    0.0000 C   0  0  0  0  0  0  0  0  0  0  0  0
   -4.4958    2.4875    0.0000 C   0  0  0  0  0  0  0  0  0  0  0  0
   -4.5458    4.2667    0.0000 O   0  0  0  0  0  0  0  0  0  0  0  0
   -2.3625    5.5042    0.0000 C   0  0  0  0  0  0  0  0  0  0  0  0
   -5.9125    1.5375    0.0000 C   0  0  0  0  0  0  0  0  0  0  0  0
   -2.3500    3.7958    0.0000 C   0  0  3  0  0  0  0  0  0  0  0  0
   -2.0625    7.6917    0.0000 C   0  0  0  0  0  0  0  0  0  0  0  0
   -3.0958    6.7792    0.0000 C   0  0  0  0  0  0  0  0  0  0  0  0
   -2.9083    7.6167    0.0000 C   0  0  0  0  0  0  0  0  0  0  0  0
   -0.8833    2.9458    0.0000 O   0  0  0  0  0  0  0  0  0  0  0  0
   -5.1542    1.1583    0.0000 C   0  0  0  0  0  0  0  0  0  0  0  0
   -6.7167    2.7750    0.0000 Cl  0  0  0  0  0  0  0  0  0  0  0  0
   -4.4458    1.6250    0.0000 C   0  0  0  0  0  0  0  0  0  0  0  0
   -6.6167    1.0708    0.0000 Cl  0  0  0  0  0  0  0  0  0  0  0  0
   -2.3500    2.9458    0.0000 C   0  0  0  0  0  0  0  0  0  0  0  0
   -1.6083    4.2125    0.0000 C   0  0  0  0  0  0  0  0  0  0  0  0
   -1.6208    2.5208    0.0000 C   0  0  0  0  0  0  0  0  0  0  0  0
   -0.8708    3.7958    0.0000 C   0  0  0  0  0  0  0  0  0  0  0  0
  2  1  1  0  0  0  0
  3  1  1  0  0  0  0
  4  2  1  0  0  0  0
  5 11  1  0  0  0  0
  6  8  1  0  0  0  0
  7  5  1  0  0  0  0
  8  9  2  0  0  0  0
  9  3  1  0  0  0  0
 10  1  2  0  0  0  0
 11  4  1  0  0  0  0
 12 18  1  0  0  0  0
 13  2  1  0  0  0  0
 14  7  1  0  0  0  0
 15  5  2  0  0  0  0
 16 15  1  0  0  0  0
 17 25  1  0  0  0  0
 18 20  2  0  0  0  0
 19  6  1  0  0  0  0
 20  9  1  0  0  0  0
 21 12  1  0  0  0  0
 22 13  1  0  0  0  0
 23 13  1  0  0  0  0
 24 22  1  0  0  0  0
 25 23  1  0  0  0  0
 24 17  1  0  0  0  0
  6 12  2  0  0  0  0
 14 16  2  0  0  0  0
M  END
> <IDNUMBER>
F6390-3492

> <Chemical_Name>
3-(3,4-dichlorophenyl)-1-(oxan-4-yl)-1-[2-(thiophen-2-yl)ethyl]urea

> <CAS>
1797605-33-4

> <PriceCoeff>
1.00

> <MW>
399.33

> <Description>
solid

> <FSP3>
0.39

> <clogP>
3.91

> <TPSA>
69.81

> <Acceptor>
2

> <Donor>
1

> <RotBonds>
6

> <HAC>
25

> <Collection>
General

$$$$
F6660-2871
  -ISIS-  06222321162D

 29 32  0  0  0  0  0  0  0  0999 V2000
   -0.0583    2.4333    0.0000 C   0  0  0  0  0  0  0  0  0  0  0  0
   -0.6208    1.4625    0.0000 N   0  0  3  0  0  0  0  0  0  0  0  0
   -1.1708    2.4375    0.0000 C   0  0  0  0  0  0  0  0  0  0  0  0
   -1.1833    1.7875    0.0000 C   0  0  0  0  0  0  0  0  0  0  0  0
   -0.6125    2.7583    0.0000 C   0  0  0  0  0  0  0  0  0  0  0  0
   -0.0583    1.7833    0.0000 C   0  0  0  0  0  0  0  0  0  0  0  0
   -1.7333    1.4708    0.0000 C   0  0  0  0  0  0  0  0  0  0  0  0
   -2.2958    1.7875    0.0000 C   0  0  0  0  0  0  0  0  0  0  0  0
   -0.6250    0.8125    0.0000 C   0  0  3  0  0  0  0  0  0  0  0  0
   -1.7333    2.7708    0.0000 C   0  0  0  0  0  0  0  0  0  0  0  0
   -2.8583    1.4625    0.0000 N   0  0  3  0  0  0  0  0  0  0  0  0
    0.5125    2.7500    0.0000 C   0  0  0  0  0  0  0  0  0  0  0  0
   -3.9750    0.8208    0.0000 N   0  0  3  0  0  0  0  0  0  0  0  0
   -2.2958    2.4375    0.0000 C   0  0  0  0  0  0  0  0  0  0  0  0
   -4.5458    0.4958    0.0000 C   0  0  0  0  0  0  0  0  0  0  0  0
   -0.9458    0.2583    0.0000 C   0  0  0  0  0  0  0  0  0  0  0  0
   -0.3000    0.2583    0.0000 C   0  0  0  0  0  0  0  0  0  0  0  0
   -6.2167    0.8208    0.0000 N   0  0  0  0  0  0  0  0  0  0  0  0
   -5.6708    0.5000    0.0000 C   0  0  0  0  0  0  0  0  0  0  0  0
   -5.1000    0.8208    0.0000 C   0  0  0  0  0  0  0  0  0  0  0  0
   -0.6083    3.4083    0.0000 O   0  0  0  0  0  0  0  0  0  0  0  0
   -3.4208    1.7875    0.0000 C   0  0  0  0  0  0  0  0  0  0  0  0
   -2.8500    0.8208    0.0000 C   0  0  0  0  0  0  0  0  0  0  0  0
   -3.4208    0.4958    0.0000 C   0  0  0  0  0  0  0  0  0  0  0  0
   -3.9750    1.4708    0.0000 C   0  0  0  0  0  0  0  0  0  0  0  0
    0.5167    3.4083    0.0000 O   0  0  0  0  0  0  0  0  0  0  0  0
   -4.5458   -0.1542    0.0000 O   0  0  0  0  0  0  0  0  0  0  0  0
   -2.8583    2.7583    0.0000 F   0  0  0  0  0  0  0  0  0  0  0  0
    1.0667    2.4250    0.0000 O   0  0  0  0  0  0  0  0  0  0  0  0
  2  6  1  0  0  0  0
  3  5  1  0  0  0  0
  4  2  1  0  0  0  0
  5  1  1  0  0  0  0
  6  1  2  0  0  0  0
  7  4  1  0  0  0  0
  8  7  2  0  0  0  0
  9  2  1  0  0  0  0
 10  3  1  0  0  0  0
 11  8  1  0  0  0  0
 12  1  1  0  0  0  0
 13 24  1  0  0  0  0
 14 10  2  0  0  0  0
 15 13  1  0  0  0  0
 16  9  1  0  0  0  0
 17  9  1  0  0  0  0
 18 19  3  0  0  0  0
 19 20  1  0  0  0  0
 20 15  1  0  0  0  0
 21  5  2  0  0  0  0
 22 11  1  0  0  0  0
 23 11  1  0  0  0  0
 24 23  1  0  0  0  0
 25 22  1  0  0  0  0
 26 12  2  0  0  0  0
 27 15  2  0  0  0  0
 28 14  1  0  0  0  0
 29 12  1  0  0  0  0
  3  4  2  0  0  0  0
 17 16  1  0  0  0  0
 14  8  1  0  0  0  0
 25 13  1  0  0  0  0
M  END
> <IDNUMBER>
F6660-2871

> <Chemical_Name>
7-[4-(2-cyanoacetyl)piperazin-1-yl]-1-cyclopropyl-6-fluoro-4-oxo-1,4-dihydroquinoline-3-carboxylic acid

> <CAS>
2379996-46-8

> <PriceCoeff>
1.00

> <MW>
398.39

> <Description>
solid

> <FSP3>
0.40

> <clogP>
1.08

> <TPSA>
104.95

> <Acceptor>
7

> <Donor>
2

> <RotBonds>
5

> <HAC>
29

> <Collection>
General

> <Reference_compound>
CHEMBL8

> <Similarity>
0.9250

$$$$
F0327-0393
  -ISIS-  06222321442D

 29 32  0  0  0  0  0  0  0  0999 V2000
    0.3792   -0.2500    0.0000 C   0  0  0  0  0  0  0  0  0  0  0  0
   -0.0208    0.3500    0.0000 C   0  0  0  0  0  0  0  0  0  0  0  0
    4.4792   -0.8875    0.0000 N   0  0  3  0  0  0  0  0  0  0  0  0
   -0.0833   -0.8500    0.0000 S   0  0  0  0  0  0  0  0  0  0  0  0
   -0.7500    0.1625    0.0000 C   0  0  0  0  0  0  0  0  0  0  0  0
    1.1167   -0.2500    0.0000 N   0  0  0  0  0  0  0  0  0  0  0  0
   -0.7500   -0.5500    0.0000 C   0  0  0  0  0  0  0  0  0  0  0  0
    1.4792   -0.8875    0.0000 C   0  0  0  0  0  0  0  0  0  0  0  0
    4.8375   -1.5292    0.0000 C   0  0  0  0  0  0  0  0  0  0  0  0
    4.9792   -0.3292    0.0000 C   0  0  0  0  0  0  0  0  0  0  0  0
    0.2542    1.0333    0.0000 C   0  0  0  0  0  0  0  0  0  0  0  0
    3.7167   -0.8875    0.0000 C   0  0  0  0  0  0  0  0  0  0  0  0
    2.2375   -0.8875    0.0000 C   0  0  0  0  0  0  0  0  0  0  0  0
    1.1167   -1.5292    0.0000 O   0  0  0  0  0  0  0  0  0  0  0  0
    5.6542   -0.6292    0.0000 C   0  0  0  0  0  0  0  0  0  0  0  0
    5.5542   -1.3667    0.0000 C   0  0  0  0  0  0  0  0  0  0  0  0
    4.8167    0.4333    0.0000 O   0  0  0  0  0  0  0  0  0  0  0  0
    4.5542   -2.2292    0.0000 O   0  0  0  0  0  0  0  0  0  0  0  0
    1.0292    1.2000    0.0000 O   0  0  0  0  0  0  0  0  0  0  0  0
    3.3542   -1.5292    0.0000 C   0  0  0  0  0  0  0  0  0  0  0  0
    3.3542   -0.2500    0.0000 C   0  0  0  0  0  0  0  0  0  0  0  0
    2.6000   -0.2500    0.0000 C   0  0  0  0  0  0  0  0  0  0  0  0
    2.6000   -1.5292    0.0000 C   0  0  0  0  0  0  0  0  0  0  0  0
   -0.2208    1.5333    0.0000 O   0  0  0  0  0  0  0  0  0  0  0  0
   -1.4500    0.3958    0.0000 C   0  0  0  0  0  0  0  0  0  0  0  0
   -1.4333   -0.7875    0.0000 C   0  0  0  0  0  0  0  0  0  0  0  0
   -1.8833   -0.2292    0.0000 C   0  0  0  0  0  0  0  0  0  0  0  0
   -0.9458    1.3625    0.0000 C   0  0  0  0  0  0  0  0  0  0  0  0
   -1.4625    1.9000    0.0000 C   0  0  0  0  0  0  0  0  0  0  0  0
  2  1  2  0  0  0  0
  3 12  1  0  0  0  0
  4  1  1  0  0  0  0
  5  2  1  0  0  0  0
  6  1  1  0  0  0  0
  7  4  1  0  0  0  0
  8  6  1  0  0  0  0
  9  3  1  0  0  0  0
 10  3  1  0  0  0  0
 11  2  1  0  0  0  0
 12 20  2  0  0  0  0
 13  8  1  0  0  0  0
 14  8  2  0  0  0  0
 15 10  1  0  0  0  0
 16  9  1  0  0  0  0
 17 10  2  0  0  0  0
 18  9  2  0  0  0  0
 19 11  2  0  0  0  0
 20 23  1  0  0  0  0
 21 22  2  0  0  0  0
 22 13  1  0  0  0  0
 23 13  2  0  0  0  0
 24 11  1  0  0  0  0
 25  5  1  0  0  0  0
 26  7  1  0  0  0  0
 27 26  1  0  0  0  0
 28 24  1  0  0  0  0
 29 28  1  0  0  0  0
  5  7  2  0  0  0  0
 27 25  1  0  0  0  0
 12 21  1  0  0  0  0
 16 15  1  0  0  0  0
M  END
> <IDNUMBER>
F0327-0393

> <Chemical_Name>
ethyl 2-[4-(2,5-dioxopyrrolidin-1-yl)benzamido]-4H,5H,6H-cyclopenta[b]thiophene-3-carboxylate

> <CAS>
330201-00-8

> <PriceCoeff>
1.00

> <MW>
412.46

> <Description>
solid

> <FSP3>
0.33

> <clogP>
2.50

> <TPSA>
121.02

> <Acceptor>
5

> <Donor>
1

> <RotBonds>
6

> <HAC>
29

> <Collection>
General

$$$$
F0838-0491
  -ISIS-  06222321452D

 25 27  0  0  0  0  0  0  0  0999 V2000
    0.9417   -0.0917    0.0000 C   0  0  0  0  0  0  0  0  0  0  0  0
    1.7667   -0.0917    0.0000 N   0  0  3  0  0  0  0  0  0  0  0  0
    4.2417   -0.0917    0.0000 C   0  0  0  0  0  0  0  0  0  0  0  0
    3.4167   -0.0917    0.0000 N   0  0  3  0  0  0  0  0  0  0  0  0
    0.5292   -0.8042    0.0000 C   0  0  0  0  0  0  0  0  0  0  0  0
    4.6542    0.6208    0.0000 C   0  0  0  0  0  0  0  0  0  0  0  0
    2.1792    0.6208    0.0000 C   0  0  3  0  0  0  0  0  0  0  0  0
    3.0042    0.6208    0.0000 C   0  0  0  0  0  0  0  0  0  0  0  0
    2.1792   -0.8042    0.0000 C   0  0  0  0  0  0  0  0  0  0  0  0
    3.0042   -0.8042    0.0000 C   0  0  0  0  0  0  0  0  0  0  0  0
    0.5292    0.6208    0.0000 O   0  0  0  0  0  0  0  0  0  0  0  0
   -0.2958   -0.8042    0.0000 C   0  0  0  0  0  0  0  0  0  0  0  0
    5.4792    0.6208    0.0000 C   0  0  0  0  0  0  0  0  0  0  0  0
    4.6542   -0.8042    0.0000 O   0  0  0  0  0  0  0  0  0  0  0  0
   -0.7083   -0.0917    0.0000 F   0  0  0  0  0  0  0  0  0  0  0  0
    5.8875   -0.0917    0.0000 F   0  0  0  0  0  0  0  0  0  0  0  0
    0.9417   -1.5167    0.0000 C   0  0  0  0  0  0  0  0  0  0  0  0
    4.2417    1.3375    0.0000 C   0  0  0  0  0  0  0  0  0  0  0  0
    1.7667    1.3375    0.0000 C   0  0  0  0  0  0  0  0  0  0  0  0
    5.8875    1.3375    0.0000 C   0  0  0  0  0  0  0  0  0  0  0  0
   -0.7083   -1.5167    0.0000 C   0  0  0  0  0  0  0  0  0  0  0  0
    0.5292   -2.2292    0.0000 C   0  0  0  0  0  0  0  0  0  0  0  0
    4.6542    2.0500    0.0000 C   0  0  0  0  0  0  0  0  0  0  0  0
    5.4792    2.0500    0.0000 C   0  0  0  0  0  0  0  0  0  0  0  0
   -0.2958   -2.2292    0.0000 C   0  0  0  0  0  0  0  0  0  0  0  0
  2  1  1  0  0  0  0
  3  4  1  0  0  0  0
  4 10  1  0  0  0  0
  5  1  1  0  0  0  0
  6  3  1  0  0  0  0
  7  2  1  0  0  0  0
  8  7  1  0  0  0  0
  9  2  1  0  0  0  0
 10  9  1  0  0  0  0
 11  1  2  0  0  0  0
 12  5  1  0  0  0  0
 13  6  2  0  0  0  0
 14  3  2  0  0  0  0
 15 12  1  0  0  0  0
 16 13  1  0  0  0  0
 17  5  2  0  0  0  0
 18  6  1  0  0  0  0
 19  7  1  0  0  0  0
 20 13  1  0  0  0  0
 21 12  2  0  0  0  0
 22 17  1  0  0  0  0
 23 18  2  0  0  0  0
 24 23  1  0  0  0  0
 25 22  2  0  0  0  0
  4  8  1  0  0  0  0
 25 21  1  0  0  0  0
 24 20  2  0  0  0  0
M  END
> <IDNUMBER>
F0838-0491

> <Chemical_Name>
1,4-bis(2-fluorobenzoyl)-2-methylpiperazine

> <CAS>
425678-28-0

> <PriceCoeff>
1.00

> <MW>
344.36

> <Description>
solid

> <FSP3>
0.26

> <clogP>
2.89

> <TPSA>
40.62

> <Acceptor>
2

> <Donor>
0

> <RotBonds>
4

> <HAC>
25

> <Collection>
General

> <Reference_compound>
CHEMBL3969241

> <Similarity>
0.8480

$$$$
F3385-4499
  -ISIS-  06222304352D

 34 35  0  0  0  0  0  0  0  0999 V2000
    7.5667   -2.2667    0.0000 C   0  0  0  0  0  0  0  0  0  0  0  0
    6.8500   -2.6875    0.0000 C   0  0  0  0  0  0  0  0  0  0  0  0
    6.1375   -2.2667    0.0000 C   0  0  0  0  0  0  0  0  0  0  0  0
    7.5667   -1.4417    0.0000 C   0  0  0  0  0  0  0  0  0  0  0  0
    6.1375   -1.4417    0.0000 C   0  0  0  0  0  0  0  0  0  0  0  0
    8.2792   -2.6875    0.0000 C   0  0  0  0  0  0  0  0  0  0  0  0
    6.8500   -1.0292    0.0000 O   0  0  0  0  0  0  0  0  0  0  0  0
    8.9917   -2.2667    0.0000 C   0  0  0  0  0  0  0  0  0  0  0  0
    5.4250   -2.6875    0.0000 C   0  0  0  0  0  0  0  0  0  0  0  0
    1.8500   -1.4500    0.0000 N   0  0  3  0  0  0  0  0  0  0  0  0
    5.4250   -1.0292    0.0000 C   0  0  0  0  0  0  0  0  0  0  0  0
    0.4250   -2.2667    0.0000 N   0  0  3  0  0  0  0  0  0  0  0  0
    9.7042   -2.6875    0.0000 C   0  0  0  0  0  0  0  0  0  0  0  0
    6.8500   -3.5125    0.0000 O   0  0  0  0  0  0  0  0  0  0  0  0
    9.7042   -3.5167    0.0000 C   0  0  0  0  0  0  0  0  0  0  0  0
    8.2750   -3.5125    0.0000 C   0  0  0  0  0  0  0  0  0  0  0  0
    8.9875   -3.9250    0.0000 C   0  0  0  0  0  0  0  0  0  0  0  0
    4.7125   -1.4500    0.0000 C   0  0  0  0  0  0  0  0  0  0  0  0
    0.4250   -1.4417    0.0000 C   0  0  0  0  0  0  0  0  0  0  0  0
    1.1375   -1.0292    0.0000 C   0  0  0  0  0  0  0  0  0  0  0  0
    1.1375   -2.6792    0.0000 C   0  0  0  0  0  0  0  0  0  0  0  0
    1.8542   -2.2667    0.0000 C   0  0  0  0  0  0  0  0  0  0  0  0
    4.7125   -2.2667    0.0000 C   0  0  0  0  0  0  0  0  0  0  0  0
   10.4250   -2.2667    0.0000 O   0  0  0  0  0  0  0  0  0  0  0  0
   10.4167   -3.9292    0.0000 O   0  0  0  0  0  0  0  0  0  0  0  0
    4.0000   -1.0375    0.0000 O   0  0  0  0  0  0  0  0  0  0  0  0
    2.5667   -1.0375    0.0000 C   0  0  0  0  0  0  0  0  0  0  0  0
    3.2792   -1.4500    0.0000 C   0  0  0  0  0  0  0  0  0  0  0  0
   -0.2958   -2.6792    0.0000 C   0  0  0  0  0  0  0  0  0  0  0  0
   10.4167   -1.4500    0.0000 C   0  0  0  0  0  0  0  0  0  0  0  0
   11.1375   -3.5167    0.0000 C   0  0  0  0  0  0  0  0  0  0  0  0
   -1.0083   -2.2667    0.0000 C   0  0  0  0  0  0  0  0  0  0  0  0
   12.5250   -3.2458    0.0000 Cl  0  0  0  0  0  0  0  0  0  0  0  0
   12.5250   -1.7125    0.0000 Cl  0  0  0  0  0  0  0  0  0  0  0  0
  4  1  2  0  0  0  0
  5  7  1  0  0  0  0
  6  1  1  0  0  0  0
  7  4  1  0  0  0  0
  8  6  1  0  0  0  0
  9  3  2  0  0  0  0
 10 27  1  0  0  0  0
 11  5  2  0  0  0  0
 12 21  1  0  0  0  0
 13  8  2  0  0  0  0
 14  2  2  0  0  0  0
 15 17  2  0  0  0  0
 16  6  2  0  0  0  0
 17 16  1  0  0  0  0
 18 11  1  0  0  0  0
 19 20  1  0  0  0  0
 20 10  1  0  0  0  0
 21 22  1  0  0  0  0
 22 10  1  0  0  0  0
 23  9  1  0  0  0  0
 24 13  1  0  0  0  0
 25 15  1  0  0  0  0
 26 18  1  0  0  0  0
 27 28  1  0  0  0  0
 28 26  1  0  0  0  0
 29 12  1  0  0  0  0
 30 24  1  0  0  0  0
 31 25  1  0  0  0  0
 32 29  1  0  0  0  0
  3  5  1  0  0  0  0
 13 15  1  0  0  0  0
 23 18  2  0  0  0  0
 12 19  1  0  0  0  0
  2  1  1  0  0  0  0
  3  2  1  0  0  0  0
M  END
> <IDNUMBER>
F3385-4499

> <Chemical_Name>
3-(3,4-dimethoxyphenyl)-7-[2-(4-ethylpiperazin-1-yl)ethoxy]-4H-chromen-4-one dihydrochloride

> <CAS>
1216471-64-5

> <PriceCoeff>
1.00

> <MW>
438.52

> <Description>
solid

> <FSP3>
0.40

> <clogP>
2.51

> <TPSA>
60.47

> <Acceptor>
7

> <Donor>
2

> <RotBonds>
8

> <HAC>
32

> <Collection>
General

> <Reference_compound>
CHEMBL455048

> <Similarity>
0.8060

$$$$
F1829-0066
  -ISIS-  06222321142D

 30 33  0  0  0  0  0  0  0  0999 V2000
   -1.6083    1.2458    0.0000 C   0  0  0  0  0  0  0  0  0  0  0  0
   -2.2625    1.7250    0.0000 C   0  0  0  0  0  0  0  0  0  0  0  0
    2.0375    0.7500    0.0000 N   0  0  3  0  0  0  0  0  0  0  0  0
   -2.9333    1.2458    0.0000 C   0  0  0  0  0  0  0  0  0  0  0  0
   -2.6750    0.4583    0.0000 C   0  0  0  0  0  0  0  0  0  0  0  0
   -1.8583    0.4583    0.0000 S   0  0  0  0  0  0  0  0  0  0  0  0
   -0.8333    1.2125    0.0000 N   0  0  0  0  0  0  0  0  0  0  0  0
    1.6125    1.4708    0.0000 C   0  0  0  0  0  0  0  0  0  0  0  0
   -0.4625    2.1500    0.0000 C   0  0  0  0  0  0  0  0  0  0  0  0
    2.8542    0.6458    0.0000 C   0  0  0  0  0  0  0  0  0  0  0  0
    1.6667    0.0083    0.0000 C   0  0  0  0  0  0  0  0  0  0  0  0
   -2.2500    2.5500    0.0000 C   0  0  0  0  0  0  0  0  0  0  0  0
    0.7875    1.4583    0.0000 C   0  0  0  0  0  0  0  0  0  0  0  0
    0.3625    2.1625    0.0000 C   0  0  0  0  0  0  0  0  0  0  0  0
   -3.7375    1.4208    0.0000 C   0  0  0  0  0  0  0  0  0  0  0  0
   -3.2333   -0.1500    0.0000 C   0  0  0  0  0  0  0  0  0  0  0  0
   -0.7458    2.8083    0.0000 O   0  0  0  0  0  0  0  0  0  0  0  0
    3.0042   -0.1667    0.0000 C   0  0  0  0  0  0  0  0  0  0  0  0
    2.2875   -0.5667    0.0000 C   0  0  0  0  0  0  0  0  0  0  0  0
    3.4292    1.2250    0.0000 O   0  0  0  0  0  0  0  0  0  0  0  0
    0.8625   -0.1375    0.0000 O   0  0  0  0  0  0  0  0  0  0  0  0
   -1.5333    2.9583    0.0000 O   0  0  0  0  0  0  0  0  0  0  0  0
   -2.9625    2.9708    0.0000 N   0  0  0  0  0  0  0  0  0  0  0  0
   -4.2958    0.8083    0.0000 C   0  0  0  0  0  0  0  0  0  0  0  0
   -4.0333    0.0250    0.0000 C   0  0  3  0  0  0  0  0  0  0  0  0
    2.0167    2.1833    0.0000 C   0  0  0  0  0  0  0  0  0  0  0  0
    0.7750    2.8958    0.0000 C   0  0  0  0  0  0  0  0  0  0  0  0
    1.6000    2.8958    0.0000 C   0  0  0  0  0  0  0  0  0  0  0  0
   -2.9583    3.7958    0.0000 C   0  0  0  0  0  0  0  0  0  0  0  0
   -4.5833   -0.5917    0.0000 C   0  0  0  0  0  0  0  0  0  0  0  0
  2  1  2  0  0  0  0
  3  8  1  0  0  0  0
  4  2  1  0  0  0  0
  5  6  1  0  0  0  0
  6  1  1  0  0  0  0
  7  1  1  0  0  0  0
  8 13  1  0  0  0  0
  9  7  1  0  0  0  0
 10  3  1  0  0  0  0
 11  3  1  0  0  0  0
 12  2  1  0  0  0  0
 13 14  2  0  0  0  0
 14  9  1  0  0  0  0
 15  4  1  0  0  0  0
 16  5  1  0  0  0  0
 17  9  2  0  0  0  0
 18 10  1  0  0  0  0
 19 11  1  0  0  0  0
 20 10  2  0  0  0  0
 21 11  2  0  0  0  0
 22 12  2  0  0  0  0
 23 12  1  0  0  0  0
 24 15  1  0  0  0  0
 25 16  1  0  0  0  0
 26 28  1  0  0  0  0
 27 14  1  0  0  0  0
 28 27  2  0  0  0  0
 29 23  1  0  0  0  0
 30 25  1  0  0  0  0
  4  5  2  0  0  0  0
 25 24  1  0  0  0  0
  8 26  2  0  0  0  0
 19 18  1  0  0  0  0
M  END
> <IDNUMBER>
F1829-0066

> <Chemical_Name>
2-[3-(2,5-dioxopyrrolidin-1-yl)benzamido]-N,6-dimethyl-4,5,6,7-tetrahydro-1-benzothiophene-3-carboxamide

> <CAS>
892979-36-1

> <PriceCoeff>
1.00

> <MW>
425.50

> <Description>
solid

> <FSP3>
0.36

> <clogP>
2.06

> <TPSA>
123.82

> <Acceptor>
4

> <Donor>
2

> <RotBonds>
4

> <HAC>
30

> <Collection>
General

$$$$
F1412-0027
  -ISIS-  06222321142D

 23 25  0  0  0  0  0  0  0  0999 V2000
   -6.2500   -6.1375    0.0000 N   0  0  3  0  0  0  0  0  0  0  0  0
   -5.8458   -2.3917    0.0000 C   0  0  0  0  0  0  0  0  0  0  0  0
   -2.8125   -7.6750    0.0000 C   0  0  0  0  0  0  0  0  0  0  0  0
   -0.2875   -4.9000    0.0000 C   0  0  3  0  0  0  0  0  0  0  0  0
   -2.1708   -1.6292    0.0000 C   0  0  0  0  0  0  0  0  0  0  0  0
    6.1167   -2.6167    0.0000 C   0  0  0  0  0  0  0  0  0  0  0  0
    9.7667   -3.5875    0.0000 C   0  0  0  0  0  0  0  0  0  0  0  0
    3.4542   -5.3000    0.0000 S   0  0  0  0  0  0  0  0  0  0  0  0
   10.7542   -7.2167    0.0000 C   0  0  0  0  0  0  0  0  0  0  0  0
    5.1042    1.0083    0.0000 N   0  0  0  0  0  0  0  0  0  0  0  0
   -8.6250    0.1208    0.0000 O   0  0  0  0  0  0  0  0  0  0  0  0
   -2.0333  -11.3625    0.0000 O   0  0  0  0  0  0  0  0  0  0  0  0
   -9.5000   -8.0000    0.0000 C   0  0  3  0  0  0  0  0  0  0  0  0
   14.3792   -8.1667    0.0000 O   0  0  0  0  0  0  0  0  0  0  0  0
    8.0917   -9.8792    0.0000 O   0  0  0  0  0  0  0  0  0  0  0  0
   12.4250   -0.8917    0.0000 C   0  0  0  0  0  0  0  0  0  0  0  0
    7.7500    3.7083    0.0000 C   0  0  0  0  0  0  0  0  0  0  0  0
   -9.5000  -11.7625    0.0000 C   0  0  0  0  0  0  0  0  0  0  0  0
  -12.7500   -6.1167    0.0000 C   0  0  0  0  0  0  0  0  0  0  0  0
   11.4167    2.7375    0.0000 C   0  0  0  0  0  0  0  0  0  0  0  0
  -16.0000   -8.0000    0.0000 C   0  0  0  0  0  0  0  0  0  0  0  0
  -12.7500  -13.6417    0.0000 C   0  0  0  0  0  0  0  0  0  0  0  0
  -16.0000  -11.7625    0.0000 C   0  0  0  0  0  0  0  0  0  0  0  0
  2  1  1  0  0  0  0
  3  1  1  0  0  0  0
  4  3  1  0  0  0  0
  5  2  1  0  0  0  0
  6  8  1  0  0  0  0
  7  6  2  0  0  0  0
  8  4  1  0  0  0  0
  9  7  1  0  0  0  0
 10  6  1  0  0  0  0
 11  2  2  0  0  0  0
 12  3  2  0  0  0  0
 13  1  1  0  0  0  0
 14  9  2  0  0  0  0
 15  9  1  0  0  0  0
 16  7  1  0  0  0  0
 17 10  2  0  0  0  0
 18 13  1  0  0  0  0
 19 13  1  0  0  0  0
 20 17  1  0  0  0  0
 21 19  1  0  0  0  0
 22 18  1  0  0  0  0
 23 21  1  0  0  0  0
  5  4  1  0  0  0  0
 22 23  1  0  0  0  0
 20 16  2  0  0  0  0
M  END
> <IDNUMBER>
F1412-0027

> <Chemical_Name>
2-[(1-cyclohexyl-2,5-dioxopyrrolidin-3-yl)sulfanyl]pyridine-3-carboxylic acid

> <CAS>
514183-40-5

> <PriceCoeff>
1.00

> <MW>
334.39

> <Description>
solid

> <FSP3>
0.50

> <clogP>
2.62

> <TPSA>
112.87

> <Acceptor>
5

> <Donor>
1

> <RotBonds>
4

> <HAC>
23

> <Collection>
General

$$$$
F3342-0215
  -ISIS-  06222304352D

 34 35  0  0  0  0  0  0  0  0999 V2000
    6.3375   -5.5625    0.0000 S   0  0  3  0  0  0  0  0  0  0  0  0
    6.5625   -6.3542    0.0000 N   0  0  3  0  0  0  0  0  0  0  0  0
    7.3625   -6.5625    0.0000 C   0  0  0  0  0  0  0  0  0  0  0  0
    7.5792   -7.3542    0.0000 C   0  0  0  0  0  0  0  0  0  0  0  0
    7.9292   -5.9667    0.0000 C   0  0  0  0  0  0  0  0  0  0  0  0
    5.9875   -6.9500    0.0000 C   0  0  0  0  0  0  0  0  0  0  0  0
    6.9125   -4.9750    0.0000 O   0  0  0  0  0  0  0  0  0  0  0  0
    5.9292   -6.2792    0.0000 O   0  0  0  0  0  0  0  0  0  0  0  0
    2.3792   -7.0875    0.0000 C   0  0  0  0  0  0  0  0  0  0  0  0
    8.7292   -6.1667    0.0000 C   0  0  0  0  0  0  0  0  0  0  0  0
    8.3792   -7.5625    0.0000 C   0  0  0  0  0  0  0  0  0  0  0  0
    1.6167   -7.4167    0.0000 O   0  0  0  0  0  0  0  0  0  0  0  0
    8.9542   -6.9667    0.0000 C   0  0  0  0  0  0  0  0  0  0  0  0
    2.2917   -6.2667    0.0000 C   0  0  0  0  0  0  0  0  0  0  0  0
    1.0750   -6.8000    0.0000 C   0  0  0  0  0  0  0  0  0  0  0  0
    1.4917   -6.0917    0.0000 C   0  0  0  0  0  0  0  0  0  0  0  0
    5.1875   -6.7292    0.0000 C   0  0  3  0  0  0  0  0  0  0  0  0
    3.8042   -7.1000    0.0000 N   0  0  0  0  0  0  0  0  0  0  0  0
    5.5375   -5.3625    0.0000 C   0  0  0  0  0  0  0  0  0  0  0  0
    3.0917   -7.5042    0.0000 C   0  0  0  0  0  0  0  0  0  0  0  0
    7.0042   -7.9417    0.0000 C   0  0  0  0  0  0  0  0  0  0  0  0
    7.7042   -5.1792    0.0000 C   0  0  0  0  0  0  0  0  0  0  0  0
    4.9792   -5.9417    0.0000 O   0  0  0  0  0  0  0  0  0  0  0  0
    4.6042   -7.3167    0.0000 C   0  0  0  0  0  0  0  0  0  0  0  0
    9.7542   -7.1667    0.0000 C   0  0  0  0  0  0  0  0  0  0  0  0
   12.9079   -5.8115    0.0000 C   0  0  0  0  0  0  0  0  0  0  0  0
   12.6061   -5.0392    0.0000 O   0  0  0  0  0  0  0  0  0  0  0  0
   12.3887   -6.4578    0.0000 C   0  0  0  0  0  0  0  0  0  0  0  0
   13.7219   -5.9313    0.0000 O   0  0  0  0  0  0  0  0  0  0  0  0
   11.5678   -6.3317    0.0000 C   0  0  0  0  0  0  0  0  0  0  0  0
   12.6865   -7.2316    0.0000 C   0  0  0  0  0  0  0  0  0  0  0  0
   11.0471   -6.9741    0.0000 C   0  0  0  0  0  0  0  0  0  0  0  0
   12.1635   -7.8794    0.0000 C   0  0  0  0  0  0  0  0  0  0  0  0
   11.3450   -7.7480    0.0000 C   0  0  0  0  0  0  0  0  0  0  0  0
 11  4  1  0  0  0  0
 12  9  1  0  0  0  0
 13 10  1  0  0  0  0
 14  9  2  0  0  0  0
 15 12  1  0  0  0  0
 16 14  1  0  0  0  0
 17  6  1  0  0  0  0
 18 24  1  0  0  0  0
 19  1  1  0  0  0  0
 20 18  1  0  0  0  0
 21  4  1  0  0  0  0
 22  5  1  0  0  0  0
 23 17  1  0  0  0  0
 24 17  1  0  0  0  0
 25 13  1  0  0  0  0
 13 11  2  0  0  0  0
 16 15  2  0  0  0  0
  2  1  1  0  0  0  0
  3  2  1  0  0  0  0
  4  3  2  0  0  0  0
  5  3  1  0  0  0  0
  6  2  1  0  0  0  0
  7  1  2  0  0  0  0
  8  1  2  0  0  0  0
  9 20  1  0  0  0  0
 10  5  2  0  0  0  0
 27 26  2  0  0  0  0
 28 26  1  0  0  0  0
 29 26  1  0  0  0  0
 30 28  2  0  0  0  0
 31 28  1  0  0  0  0
 32 30  1  0  0  0  0
 33 31  2  0  0  0  0
 34 33  1  0  0  0  0
 34 32  2  0  0  0  0
M  END
> <IDNUMBER>
F3342-0215

> <Chemical_Name>
N-(3-{[(furan-2-yl)methyl]amino}-2-hydroxypropyl)-N-(2,4,6-trimethylphenyl)methanesulfonamide; benzoic acid

> <CAS>
1323621-80-2

> <PriceCoeff>
1.00

> <MW>
366.48

> <Description>
solid

> <FSP3>
0.44

> <clogP>
2.07

> <TPSA>
91.16

> <Acceptor>
5

> <Donor>
2

> <RotBonds>
8

> <HAC>
25

> <Collection>
General

> <Reference_compound>
PRI1826

> <Similarity>
0.8570

$$$$
F0808-0453
  -ISIS-  06222321452D

 19 20  0  0  0  0  0  0  0  0999 V2000
   -0.1958    1.6000    0.0000 S   0  0  3  0  0  0  0  0  0  0  0  0
   -0.8333    1.6000    0.0000 N   0  0  0  0  0  0  0  0  0  0  0  0
   -1.1500    1.0625    0.0000 C   0  0  0  0  0  0  0  0  0  0  0  0
   -1.7958    1.0625    0.0000 N   0  0  0  0  0  0  0  0  0  0  0  0
    0.4500    1.6000    0.0000 C   0  0  0  0  0  0  0  0  0  0  0  0
   -0.9708    0.4625    0.0000 S   0  0  0  0  0  0  0  0  0  0  0  0
   -0.1958    2.2458    0.0000 O   0  0  0  0  0  0  0  0  0  0  0  0
   -0.1958    0.9625    0.0000 O   0  0  0  0  0  0  0  0  0  0  0  0
    2.3667    1.6000    0.0000 C   0  0  3  0  0  0  0  0  0  0  0  0
    1.7292    1.6000    0.0000 C   0  0  0  0  0  0  0  0  0  0  0  0
   -1.9708    0.4625    0.0000 C   0  0  0  0  0  0  0  0  0  0  0  0
   -1.4958    0.0833    0.0000 C   0  0  0  0  0  0  0  0  0  0  0  0
    0.7667    1.0625    0.0000 C   0  0  0  0  0  0  0  0  0  0  0  0
    0.7667    2.1625    0.0000 C   0  0  0  0  0  0  0  0  0  0  0  0
    1.4042    2.1625    0.0000 C   0  0  0  0  0  0  0  0  0  0  0  0
    1.4042    1.0625    0.0000 C   0  0  0  0  0  0  0  0  0  0  0  0
    3.0042    1.6000    0.0000 C   0  0  0  0  0  0  0  0  0  0  0  0
    2.3667    2.2458    0.0000 C   0  0  0  0  0  0  0  0  0  0  0  0
    2.3667    0.9625    0.0000 C   0  0  0  0  0  0  0  0  0  0  0  0
  2  1  1  0  0  0  0
  3  2  1  0  0  0  0
  4  3  2  0  0  0  0
  5  1  1  0  0  0  0
  6  3  1  0  0  0  0
  7  1  2  0  0  0  0
  8  1  2  0  0  0  0
  9 10  1  0  0  0  0
 10 15  1  0  0  0  0
 11  4  1  0  0  0  0
 12  6  1  0  0  0  0
 13  5  2  0  0  0  0
 14  5  1  0  0  0  0
 15 14  2  0  0  0  0
 16 13  1  0  0  0  0
 17  9  1  0  0  0  0
 18  9  1  0  0  0  0
 19  9  1  0  0  0  0
 10 16  2  0  0  0  0
 12 11  2  0  0  0  0
M  END
> <IDNUMBER>
F0808-0453

> <Chemical_Name>
4-tert-butyl-N-(1,3-thiazol-2-yl)benzene-1-sulfonamide

> <CAS>
305373-52-8

> <PriceCoeff>
1.00

> <MW>
296.41

> <Description>
solid

> <FSP3>
0.31

> <clogP>
3.43

> <TPSA>
95.68

> <Acceptor>
3

> <Donor>
1

> <RotBonds>
3

> <HAC>
19

> <Collection>
General

> <Reference_compound>
CHEMBL437

> <Similarity>
0.8000

$$$$
F0440-0351
  -ISIS-  06222321142D

 26 28  0  0  0  0  0  0  0  0999 V2000
    2.1667   -0.4000    0.0000 N   0  0  3  0  0  0  0  0  0  0  0  0
    0.1000   -1.6000    0.0000 C   0  0  0  0  0  0  0  0  0  0  0  0
   -0.3000   -2.1792    0.0000 N   0  0  0  0  0  0  0  0  0  0  0  0
   -0.9625   -1.9542    0.0000 C   0  0  0  0  0  0  0  0  0  0  0  0
    0.8000   -1.6000    0.0000 N   0  0  0  0  0  0  0  0  0  0  0  0
    1.9667    0.2500    0.0000 C   0  0  0  0  0  0  0  0  0  0  0  0
    2.8667   -0.4167    0.0000 C   0  0  0  0  0  0  0  0  0  0  0  0
   -0.3000   -1.0542    0.0000 S   0  0  0  0  0  0  0  0  0  0  0  0
    1.1292   -1.0000    0.0000 C   0  0  0  0  0  0  0  0  0  0  0  0
   -0.9625   -1.2542    0.0000 C   0  0  0  0  0  0  0  0  0  0  0  0
    1.8292   -1.0000    0.0000 C   0  0  0  0  0  0  0  0  0  0  0  0
   -1.5625   -2.3167    0.0000 C   0  0  0  0  0  0  0  0  0  0  0  0
    2.5292    0.6500    0.0000 C   0  0  0  0  0  0  0  0  0  0  0  0
    3.1000    0.2500    0.0000 C   0  0  0  0  0  0  0  0  0  0  0  0
    1.3042    0.4958    0.0000 O   0  0  0  0  0  0  0  0  0  0  0  0
    3.3000   -0.9792    0.0000 O   0  0  0  0  0  0  0  0  0  0  0  0
    0.8000   -0.3792    0.0000 O   0  0  0  0  0  0  0  0  0  0  0  0
   -1.5625   -3.0167    0.0000 C   0  0  0  0  0  0  0  0  0  0  0  0
   -2.1625   -1.9542    0.0000 C   0  0  0  0  0  0  0  0  0  0  0  0
   -2.7833   -3.0167    0.0000 C   0  0  0  0  0  0  0  0  0  0  0  0
   -2.7833   -2.3000    0.0000 C   0  0  0  0  0  0  0  0  0  0  0  0
   -2.1625   -3.3542    0.0000 C   0  0  0  0  0  0  0  0  0  0  0  0
   -3.3833   -3.3792    0.0000 O   0  0  0  0  0  0  0  0  0  0  0  0
   -3.3625   -4.0792    0.0000 C   0  0  0  0  0  0  0  0  0  0  0  0
   -3.9625   -4.4167    0.0000 C   0  0  0  0  0  0  0  0  0  0  0  0
   -3.9625   -5.1167    0.0000 C   0  0  0  0  0  0  0  0  0  0  0  0
  2  5  1  0  0  0  0
  3  2  2  0  0  0  0
  4  3  1  0  0  0  0
  5  9  1  0  0  0  0
  6  1  1  0  0  0  0
  7  1  1  0  0  0  0
  8  2  1  0  0  0  0
  9 11  1  0  0  0  0
 10  8  1  0  0  0  0
 11  1  1  0  0  0  0
 12  4  1  0  0  0  0
 13  6  1  0  0  0  0
 14  7  1  0  0  0  0
 15  6  2  0  0  0  0
 16  7  2  0  0  0  0
 17  9  2  0  0  0  0
 18 12  1  0  0  0  0
 19 12  2  0  0  0  0
 20 21  2  0  0  0  0
 21 19  1  0  0  0  0
 22 18  2  0  0  0  0
 23 20  1  0  0  0  0
 24 23  1  0  0  0  0
 25 24  1  0  0  0  0
 26 25  1  0  0  0  0
 14 13  1  0  0  0  0
  4 10  2  0  0  0  0
 20 22  1  0  0  0  0
M  END
> <IDNUMBER>
F0440-0351

> <Chemical_Name>
2-(2,5-dioxopyrrolidin-1-yl)-N-[4-(4-propoxyphenyl)-1,3-thiazol-2-yl]acetamide

> <CAS>
392324-75-3

> <PriceCoeff>
1.00

> <MW>
373.43

> <Description>
solid

> <FSP3>
0.33

> <clogP>
3.03

> <TPSA>
116.84

> <Acceptor>
5

> <Donor>
1

> <RotBonds>
7

> <HAC>
26

> <Collection>
General

$$$$
F1830-0065
  -ISIS-  06222321442D

 28 31  0  0  0  0  0  0  0  0999 V2000
   -1.8958    1.2458    0.0000 C   0  0  0  0  0  0  0  0  0  0  0  0
   -2.5500    1.7250    0.0000 C   0  0  0  0  0  0  0  0  0  0  0  0
    1.8542    0.6833    0.0000 N   0  0  3  0  0  0  0  0  0  0  0  0
   -2.1500    0.4583    0.0000 S   0  0  0  0  0  0  0  0  0  0  0  0
   -3.2250    1.2458    0.0000 C   0  0  0  0  0  0  0  0  0  0  0  0
   -1.1250    1.2125    0.0000 N   0  0  0  0  0  0  0  0  0  0  0  0
   -2.9708    0.4583    0.0000 C   0  0  0  0  0  0  0  0  0  0  0  0
    1.4167    1.4333    0.0000 C   0  0  0  0  0  0  0  0  0  0  0  0
   -0.7583    2.1500    0.0000 C   0  0  0  0  0  0  0  0  0  0  0  0
    2.7125    0.5708    0.0000 C   0  0  0  0  0  0  0  0  0  0  0  0
    1.4750   -0.0917    0.0000 C   0  0  0  0  0  0  0  0  0  0  0  0
   -2.5458    2.5500    0.0000 C   0  0  0  0  0  0  0  0  0  0  0  0
    0.5542    1.4250    0.0000 C   0  0  0  0  0  0  0  0  0  0  0  0
    0.1042    2.1625    0.0000 C   0  0  0  0  0  0  0  0  0  0  0  0
   -1.0333    2.8083    0.0000 O   0  0  0  0  0  0  0  0  0  0  0  0
    2.8667   -0.2792    0.0000 C   0  0  0  0  0  0  0  0  0  0  0  0
    2.1167   -0.6917    0.0000 C   0  0  0  0  0  0  0  0  0  0  0  0
    3.3167    1.1833    0.0000 O   0  0  0  0  0  0  0  0  0  0  0  0
    0.6292   -0.2417    0.0000 O   0  0  0  0  0  0  0  0  0  0  0  0
   -1.8250    2.9583    0.0000 O   0  0  0  0  0  0  0  0  0  0  0  0
   -3.2583    2.9708    0.0000 N   0  0  0  0  0  0  0  0  0  0  0  0
   -4.0333    1.4208    0.0000 C   0  0  0  0  0  0  0  0  0  0  0  0
   -4.3333    0.0250    0.0000 C   0  0  0  0  0  0  0  0  0  0  0  0
    1.8417    2.1833    0.0000 C   0  0  0  0  0  0  0  0  0  0  0  0
    0.5417    2.9208    0.0000 C   0  0  0  0  0  0  0  0  0  0  0  0
   -4.5833    0.8083    0.0000 C   0  0  0  0  0  0  0  0  0  0  0  0
    1.4042    2.9333    0.0000 C   0  0  0  0  0  0  0  0  0  0  0  0
   -3.2500    3.8333    0.0000 C   0  0  0  0  0  0  0  0  0  0  0  0
  2  1  2  0  0  0  0
  3  8  1  0  0  0  0
  4  1  1  0  0  0  0
  5  2  1  0  0  0  0
  6  1  1  0  0  0  0
  7  4  1  0  0  0  0
  8 13  1  0  0  0  0
  9  6  1  0  0  0  0
 10  3  1  0  0  0  0
 11  3  1  0  0  0  0
 12  2  1  0  0  0  0
 13 14  2  0  0  0  0
 14  9  1  0  0  0  0
 15  9  2  0  0  0  0
 16 10  1  0  0  0  0
 17 11  1  0  0  0  0
 18 10  2  0  0  0  0
 19 11  2  0  0  0  0
 20 12  2  0  0  0  0
 21 12  1  0  0  0  0
 22  5  1  0  0  0  0
 23  7  1  0  0  0  0
 24 27  1  0  0  0  0
 25 14  1  0  0  0  0
 26 23  1  0  0  0  0
 27 25  2  0  0  0  0
 28 21  1  0  0  0  0
  5  7  2  0  0  0  0
 26 22  1  0  0  0  0
  8 24  2  0  0  0  0
 17 16  1  0  0  0  0
M  END
> <IDNUMBER>
F1830-0065

> <Chemical_Name>
2-[3-(2,5-dioxopyrrolidin-1-yl)benzamido]-N-methyl-4H,5H,6H-cyclopenta[b]thiophene-3-carboxamide

> <CAS>
893096-89-4

> <PriceCoeff>
1.00

> <MW>
397.45

> <Description>
solid

> <FSP3>
0.30

> <clogP>
0.99

> <TPSA>
123.82

> <Acceptor>
4

> <Donor>
2

> <RotBonds>
4

> <HAC>
28

> <Collection>
General

$$$$
F5381-0011
  -ISIS-  06222321442D

 26 28  0  0  0  0  0  0  0  0999 V2000
   -3.1375    4.2167    0.0000 S   0  0  3  0  0  0  0  0  0  0  0  0
   -0.9583    4.6375    0.0000 N   0  0  3  0  0  0  0  0  0  0  0  0
   -3.8625    3.8000    0.0000 N   0  0  3  0  0  0  0  0  0  0  0  0
   -6.0417    2.5500    0.0000 C   0  0  0  0  0  0  0  0  0  0  0  0
   -5.3333    2.9708    0.0000 N   0  0  3  0  0  0  0  0  0  0  0  0
   -2.4125    4.6417    0.0000 C   0  0  0  0  0  0  0  0  0  0  0  0
   -0.2250    4.2167    0.0000 C   0  0  0  0  0  0  0  0  0  0  0  0
   -0.9500    5.4667    0.0000 C   0  0  0  0  0  0  0  0  0  0  0  0
   -6.7667    2.9833    0.0000 C   0  0  0  0  0  0  0  0  0  0  0  0
   -1.6875    4.2125    0.0000 C   0  0  0  0  0  0  0  0  0  0  0  0
   -4.5958    4.2167    0.0000 C   0  0  0  0  0  0  0  0  0  0  0  0
   -3.8708    2.9625    0.0000 C   0  0  0  0  0  0  0  0  0  0  0  0
   -3.5500    4.9417    0.0000 O   0  0  0  0  0  0  0  0  0  0  0  0
   -2.7083    3.5000    0.0000 O   0  0  0  0  0  0  0  0  0  0  0  0
   -7.5417    2.6333    0.0000 O   0  0  0  0  0  0  0  0  0  0  0  0
   -4.5958    2.5458    0.0000 C   0  0  0  0  0  0  0  0  0  0  0  0
   -5.3208    3.8083    0.0000 C   0  0  0  0  0  0  0  0  0  0  0  0
   -6.0417    1.7125    0.0000 O   0  0  0  0  0  0  0  0  0  0  0  0
   -6.8542    3.8083    0.0000 C   0  0  0  0  0  0  0  0  0  0  0  0
   -0.2333    3.3833    0.0000 O   0  0  0  0  0  0  0  0  0  0  0  0
   -1.6833    5.8917    0.0000 O   0  0  0  0  0  0  0  0  0  0  0  0
   -8.0917    3.2583    0.0000 C   0  0  0  0  0  0  0  0  0  0  0  0
   -7.6667    3.9875    0.0000 C   0  0  0  0  0  0  0  0  0  0  0  0
   -0.2333    5.8917    0.0000 C   0  0  0  0  0  0  0  0  0  0  0  0
    0.5042    4.6375    0.0000 C   0  0  0  0  0  0  0  0  0  0  0  0
    0.4917    5.4667    0.0000 C   0  0  0  0  0  0  0  0  0  0  0  0
  2 10  1  0  0  0  0
  3  1  1  0  0  0  0
  4  5  1  0  0  0  0
  5 16  1  0  0  0  0
  6  1  1  0  0  0  0
  7  2  1  0  0  0  0
  8  2  1  0  0  0  0
  9  4  1  0  0  0  0
 10  6  1  0  0  0  0
 11  3  1  0  0  0  0
 12  3  1  0  0  0  0
 13  1  2  0  0  0  0
 14  1  2  0  0  0  0
 15  9  1  0  0  0  0
 16 12  1  0  0  0  0
 17 11  1  0  0  0  0
 18  4  2  0  0  0  0
 19  9  2  0  0  0  0
 20  7  2  0  0  0  0
 21  8  2  0  0  0  0
 22 15  1  0  0  0  0
 23 19  1  0  0  0  0
 24  8  1  0  0  0  0
 25  7  1  0  0  0  0
 26 24  1  0  0  0  0
  5 17  1  0  0  0  0
 26 25  1  0  0  0  0
 23 22  2  0  0  0  0
M  END
> <IDNUMBER>
F5381-0011

> <Chemical_Name>
1-(2-{[4-(furan-2-carbonyl)piperazin-1-yl]sulfonyl}ethyl)piperidine-2,6-dione

> <CAS>
1040674-79-0

> <PriceCoeff>
1.00

> <MW>
383.42

> <Description>
solid

> <FSP3>
0.56

> <clogP>
0.47

> <TPSA>
116.59

> <Acceptor>
6

> <Donor>
0

> <RotBonds>
6

> <HAC>
26

> <Collection>
General

$$$$
F2049-0559
  -ISIS-  06222321452D

 24 26  0  0  0  0  0  0  0  0999 V2000
   -4.4750    6.6917    0.0000 N   0  0  3  0  0  0  0  0  0  0  0  0
   -3.7583    6.2792    0.0000 C   0  0  0  0  0  0  0  0  0  0  0  0
   -3.7500    3.8000    0.0000 C   0  0  0  0  0  0  0  0  0  0  0  0
   -5.1958    6.2750    0.0000 C   0  0  0  0  0  0  0  0  0  0  0  0
   -3.0375    4.2125    0.0000 N   0  0  0  0  0  0  0  0  0  0  0  0
   -3.7583    5.4542    0.0000 C   0  0  0  0  0  0  0  0  0  0  0  0
   -3.7583    2.9833    0.0000 C   0  0  0  0  0  0  0  0  0  0  0  0
   -3.0375    5.0417    0.0000 C   0  0  0  0  0  0  0  0  0  0  0  0
   -3.0458    6.6917    0.0000 C   0  0  0  0  0  0  0  0  0  0  0  0
   -4.4708    4.2042    0.0000 O   0  0  0  0  0  0  0  0  0  0  0  0
   -5.1958    5.4500    0.0000 O   0  0  0  0  0  0  0  0  0  0  0  0
   -4.4750    2.5625    0.0000 C   0  0  0  0  0  0  0  0  0  0  0  0
   -2.3208    6.2792    0.0000 C   0  0  0  0  0  0  0  0  0  0  0  0
   -4.4708    7.5250    0.0000 C   0  0  0  0  0  0  0  0  0  0  0  0
   -4.4833    1.7375    0.0000 C   0  0  0  0  0  0  0  0  0  0  0  0
   -2.3250    5.4542    0.0000 C   0  0  0  0  0  0  0  0  0  0  0  0
   -5.1958    1.3333    0.0000 Cl  0  0  0  0  0  0  0  0  0  0  0  0
   -5.9083    6.6875    0.0000 C   0  0  0  0  0  0  0  0  0  0  0  0
   -3.0458    2.5583    0.0000 C   0  0  0  0  0  0  0  0  0  0  0  0
   -3.7625    7.9375    0.0000 C   0  0  0  0  0  0  0  0  0  0  0  0
   -3.0458    1.7250    0.0000 C   0  0  0  0  0  0  0  0  0  0  0  0
   -3.0458    7.5167    0.0000 C   0  0  0  0  0  0  0  0  0  0  0  0
   -3.7625    1.3208    0.0000 C   0  0  0  0  0  0  0  0  0  0  0  0
   -5.9208    7.5167    0.0000 C   0  0  0  0  0  0  0  0  0  0  0  0
  2  1  1  0  0  0  0
  3  5  1  0  0  0  0
  4  1  1  0  0  0  0
  5  8  1  0  0  0  0
  6  2  1  0  0  0  0
  7  3  1  0  0  0  0
  8  6  2  0  0  0  0
  9  2  2  0  0  0  0
 10  3  2  0  0  0  0
 11  4  2  0  0  0  0
 12  7  2  0  0  0  0
 13  9  1  0  0  0  0
 14  1  1  0  0  0  0
 15 12  1  0  0  0  0
 16 13  2  0  0  0  0
 17 15  1  0  0  0  0
 18  4  1  0  0  0  0
 19  7  1  0  0  0  0
 20 14  1  0  0  0  0
 21 19  2  0  0  0  0
 22 20  1  0  0  0  0
 23 21  1  0  0  0  0
 24 18  1  0  0  0  0
 22  9  1  0  0  0  0
 16  8  1  0  0  0  0
 15 23  2  0  0  0  0
M  END
> <IDNUMBER>
F2049-0559

> <Chemical_Name>
3-chloro-N-(1-propanoyl-1,2,3,4-tetrahydroquinolin-7-yl)benzamide

> <CAS>
946369-13-7

> <PriceCoeff>
1.00

> <MW>
342.82

> <Description>
solid

> <FSP3>
0.26

> <clogP>
3.72

> <TPSA>
49.41

> <Acceptor>
2

> <Donor>
1

> <RotBonds>
4

> <HAC>
24

> <Collection>
General

> <Reference_compound>
CHEMBL2286415

> <Similarity>
0.8240

$$$$
F2040-0492
  -ISIS-  06222321142D

 24 26  0  0  0  0  0  0  0  0999 V2000
   -3.0333    7.5042    0.0000 N   0  0  3  0  0  0  0  0  0  0  0  0
   -3.0333    6.6792    0.0000 C   0  0  0  0  0  0  0  0  0  0  0  0
   -3.7500    3.8000    0.0000 C   0  0  0  0  0  0  0  0  0  0  0  0
   -3.7458    7.9250    0.0000 C   0  0  0  0  0  0  0  0  0  0  0  0
   -2.3208    6.2667    0.0000 C   0  0  0  0  0  0  0  0  0  0  0  0
   -3.0375    4.2125    0.0000 N   0  0  0  0  0  0  0  0  0  0  0  0
   -3.7583    2.9833    0.0000 C   0  0  0  0  0  0  0  0  0  0  0  0
   -3.7458    6.2792    0.0000 C   0  0  0  0  0  0  0  0  0  0  0  0
   -3.0375    5.0292    0.0000 C   0  0  0  0  0  0  0  0  0  0  0  0
   -2.3208    5.4417    0.0000 C   0  0  0  0  0  0  0  0  0  0  0  0
   -4.4708    4.2042    0.0000 O   0  0  0  0  0  0  0  0  0  0  0  0
   -4.4708    7.5167    0.0000 O   0  0  0  0  0  0  0  0  0  0  0  0
   -4.4750    2.5625    0.0000 C   0  0  0  0  0  0  0  0  0  0  0  0
   -3.7583    5.4542    0.0000 C   0  0  0  0  0  0  0  0  0  0  0  0
   -2.3125    7.9167    0.0000 C   0  0  0  0  0  0  0  0  0  0  0  0
   -4.4833    1.7375    0.0000 C   0  0  0  0  0  0  0  0  0  0  0  0
   -5.1958    1.3333    0.0000 Cl  0  0  0  0  0  0  0  0  0  0  0  0
   -1.6083    6.6750    0.0000 C   0  0  0  0  0  0  0  0  0  0  0  0
   -3.7458    8.7500    0.0000 C   0  0  0  0  0  0  0  0  0  0  0  0
   -3.0458    2.5583    0.0000 C   0  0  0  0  0  0  0  0  0  0  0  0
   -1.6000    7.5000    0.0000 C   0  0  0  0  0  0  0  0  0  0  0  0
   -3.0458    1.7250    0.0000 C   0  0  0  0  0  0  0  0  0  0  0  0
   -3.7625    1.3208    0.0000 C   0  0  0  0  0  0  0  0  0  0  0  0
   -3.0333    9.1625    0.0000 C   0  0  0  0  0  0  0  0  0  0  0  0
  2  1  1  0  0  0  0
  3  6  1  0  0  0  0
  4  1  1  0  0  0  0
  5  2  2  0  0  0  0
  6  9  1  0  0  0  0
  7  3  1  0  0  0  0
  8  2  1  0  0  0  0
  9 14  1  0  0  0  0
 10  5  1  0  0  0  0
 11  3  2  0  0  0  0
 12  4  2  0  0  0  0
 13  7  2  0  0  0  0
 14  8  2  0  0  0  0
 15  1  1  0  0  0  0
 16 13  1  0  0  0  0
 17 16  1  0  0  0  0
 18 21  1  0  0  0  0
 19  4  1  0  0  0  0
 20  7  1  0  0  0  0
 21 15  1  0  0  0  0
 22 20  2  0  0  0  0
 23 22  1  0  0  0  0
 24 19  1  0  0  0  0
 18  5  1  0  0  0  0
  9 10  2  0  0  0  0
 16 23  2  0  0  0  0
M  END
> <IDNUMBER>
F2040-0492

> <Chemical_Name>
3-chloro-N-(1-propanoyl-1,2,3,4-tetrahydroquinolin-6-yl)benzamide

> <CAS>
954000-18-1

> <PriceCoeff>
1.00

> <MW>
342.82

> <Description>
solid

> <FSP3>
0.26

> <clogP>
3.72

> <TPSA>
49.41

> <Acceptor>
2

> <Donor>
1

> <RotBonds>
4

> <HAC>
24

> <Collection>
General

> <Reference_compound>
CHEMBL2286415

> <Similarity>
0.8150

$$$$
F2049-0501
  -ISIS-  06222321142D

 24 26  0  0  0  0  0  0  0  0999 V2000
   -4.4750    6.6917    0.0000 N   0  0  3  0  0  0  0  0  0  0  0  0
   -3.7583    6.2792    0.0000 C   0  0  0  0  0  0  0  0  0  0  0  0
   -3.7500    3.8000    0.0000 C   0  0  0  0  0  0  0  0  0  0  0  0
   -5.1958    6.2750    0.0000 C   0  0  0  0  0  0  0  0  0  0  0  0
   -3.0375    4.2125    0.0000 N   0  0  0  0  0  0  0  0  0  0  0  0
   -3.7583    5.4542    0.0000 C   0  0  0  0  0  0  0  0  0  0  0  0
   -3.7583    2.9833    0.0000 C   0  0  0  0  0  0  0  0  0  0  0  0
   -3.0375    5.0417    0.0000 C   0  0  0  0  0  0  0  0  0  0  0  0
   -3.0458    6.6917    0.0000 C   0  0  0  0  0  0  0  0  0  0  0  0
   -4.4708    4.2042    0.0000 O   0  0  0  0  0  0  0  0  0  0  0  0
   -5.1958    5.4500    0.0000 O   0  0  0  0  0  0  0  0  0  0  0  0
   -2.3208    6.2792    0.0000 C   0  0  0  0  0  0  0  0  0  0  0  0
   -3.0458    2.5583    0.0000 C   0  0  0  0  0  0  0  0  0  0  0  0
   -4.4708    2.5708    0.0000 C   0  0  0  0  0  0  0  0  0  0  0  0
   -4.4708    7.5250    0.0000 C   0  0  0  0  0  0  0  0  0  0  0  0
   -2.3250    5.4542    0.0000 C   0  0  0  0  0  0  0  0  0  0  0  0
   -3.7625    1.3208    0.0000 C   0  0  0  0  0  0  0  0  0  0  0  0
   -3.0458    1.7333    0.0000 C   0  0  0  0  0  0  0  0  0  0  0  0
   -4.4750    1.7375    0.0000 C   0  0  0  0  0  0  0  0  0  0  0  0
   -3.7708    0.4958    0.0000 Cl  0  0  0  0  0  0  0  0  0  0  0  0
   -5.9083    6.6875    0.0000 C   0  0  0  0  0  0  0  0  0  0  0  0
   -3.7625    7.9375    0.0000 C   0  0  0  0  0  0  0  0  0  0  0  0
   -3.0458    7.5167    0.0000 C   0  0  0  0  0  0  0  0  0  0  0  0
   -5.9208    7.5167    0.0000 C   0  0  0  0  0  0  0  0  0  0  0  0
  2  1  1  0  0  0  0
  3  5  1  0  0  0  0
  4  1  1  0  0  0  0
  5  8  1  0  0  0  0
  6  2  1  0  0  0  0
  7  3  1  0  0  0  0
  8  6  2  0  0  0  0
  9  2  2  0  0  0  0
 10  3  2  0  0  0  0
 11  4  2  0  0  0  0
 12  9  1  0  0  0  0
 13  7  1  0  0  0  0
 14  7  2  0  0  0  0
 15  1  1  0  0  0  0
 16 12  2  0  0  0  0
 17 19  2  0  0  0  0
 18 13  2  0  0  0  0
 19 14  1  0  0  0  0
 20 17  1  0  0  0  0
 21  4  1  0  0  0  0
 22 15  1  0  0  0  0
 23 22  1  0  0  0  0
 24 21  1  0  0  0  0
 23  9  1  0  0  0  0
 16  8  1  0  0  0  0
 17 18  1  0  0  0  0
M  END
> <IDNUMBER>
F2049-0501

> <Chemical_Name>
4-chloro-N-(1-propanoyl-1,2,3,4-tetrahydroquinolin-7-yl)benzamide

> <CAS>
946266-93-9

> <PriceCoeff>
1.00

> <MW>
342.82

> <Description>
solid

> <FSP3>
0.26

> <clogP>
3.72

> <TPSA>
49.41

> <Acceptor>
2

> <Donor>
1

> <RotBonds>
4

> <HAC>
24

> <Collection>
General

> <Reference_compound>
CHEMBL2286415

> <Similarity>
0.8420

$$$$
F1828-0066
  -ISIS-  06222321142D

 29 32  0  0  0  0  0  0  0  0999 V2000
   -1.8958    1.2458    0.0000 C   0  0  0  0  0  0  0  0  0  0  0  0
   -2.5500    1.7250    0.0000 C   0  0  0  0  0  0  0  0  0  0  0  0
    1.7417    0.7500    0.0000 N   0  0  3  0  0  0  0  0  0  0  0  0
   -2.1500    0.4583    0.0000 S   0  0  0  0  0  0  0  0  0  0  0  0
   -3.2250    1.2458    0.0000 C   0  0  0  0  0  0  0  0  0  0  0  0
   -1.1250    1.2125    0.0000 N   0  0  0  0  0  0  0  0  0  0  0  0
   -2.9708    0.4583    0.0000 C   0  0  0  0  0  0  0  0  0  0  0  0
    1.3167    1.4708    0.0000 C   0  0  0  0  0  0  0  0  0  0  0  0
   -0.7583    2.1500    0.0000 C   0  0  0  0  0  0  0  0  0  0  0  0
    2.5625    0.6458    0.0000 C   0  0  0  0  0  0  0  0  0  0  0  0
    1.3792    0.0083    0.0000 C   0  0  0  0  0  0  0  0  0  0  0  0
   -2.5458    2.5500    0.0000 C   0  0  0  0  0  0  0  0  0  0  0  0
    0.4917    1.4583    0.0000 C   0  0  0  0  0  0  0  0  0  0  0  0
    0.0667    2.1625    0.0000 C   0  0  0  0  0  0  0  0  0  0  0  0
   -1.0333    2.8083    0.0000 O   0  0  0  0  0  0  0  0  0  0  0  0
    2.7167   -0.1667    0.0000 C   0  0  0  0  0  0  0  0  0  0  0  0
    1.9917   -0.5667    0.0000 C   0  0  0  0  0  0  0  0  0  0  0  0
    3.1375    1.2250    0.0000 O   0  0  0  0  0  0  0  0  0  0  0  0
    0.5667   -0.1375    0.0000 O   0  0  0  0  0  0  0  0  0  0  0  0
   -1.8250    2.9583    0.0000 O   0  0  0  0  0  0  0  0  0  0  0  0
   -3.2583    2.9708    0.0000 N   0  0  0  0  0  0  0  0  0  0  0  0
   -4.0333    1.4208    0.0000 C   0  0  0  0  0  0  0  0  0  0  0  0
    1.7292    2.1833    0.0000 C   0  0  0  0  0  0  0  0  0  0  0  0
   -3.5250   -0.1500    0.0000 C   0  0  0  0  0  0  0  0  0  0  0  0
    0.4792    2.8958    0.0000 C   0  0  0  0  0  0  0  0  0  0  0  0
    1.3042    2.8958    0.0000 C   0  0  0  0  0  0  0  0  0  0  0  0
   -3.2500    3.7958    0.0000 C   0  0  0  0  0  0  0  0  0  0  0  0
   -4.5833    0.8083    0.0000 C   0  0  0  0  0  0  0  0  0  0  0  0
   -4.3333    0.0250    0.0000 C   0  0  0  0  0  0  0  0  0  0  0  0
  2  1  2  0  0  0  0
  3  8  1  0  0  0  0
  4  1  1  0  0  0  0
  5  2  1  0  0  0  0
  6  1  1  0  0  0  0
  7  4  1  0  0  0  0
  8 13  1  0  0  0  0
  9  6  1  0  0  0  0
 10  3  1  0  0  0  0
 11  3  1  0  0  0  0
 12  2  1  0  0  0  0
 13 14  2  0  0  0  0
 14  9  1  0  0  0  0
 15  9  2  0  0  0  0
 16 10  1  0  0  0  0
 17 11  1  0  0  0  0
 18 10  2  0  0  0  0
 19 11  2  0  0  0  0
 20 12  2  0  0  0  0
 21 12  1  0  0  0  0
 22  5  1  0  0  0  0
 23 26  1  0  0  0  0
 24  7  1  0  0  0  0
 25 14  1  0  0  0  0
 26 25  2  0  0  0  0
 27 21  1  0  0  0  0
 28 22  1  0  0  0  0
 29 24  1  0  0  0  0
  5  7  2  0  0  0  0
 29 28  1  0  0  0  0
  8 23  2  0  0  0  0
 17 16  1  0  0  0  0
M  END
> <IDNUMBER>
F1828-0066

> <Chemical_Name>
2-[3-(2,5-dioxopyrrolidin-1-yl)benzamido]-N-methyl-4,5,6,7-tetrahydro-1-benzothiophene-3-carboxamide

> <CAS>
892979-82-7

> <PriceCoeff>
1.00

> <MW>
411.47

> <Description>
solid

> <FSP3>
0.33

> <clogP>
1.55

> <TPSA>
123.82

> <Acceptor>
4

> <Donor>
2

> <RotBonds>
4

> <HAC>
29

> <Collection>
General

$$$$
F6064-1564
  -ISIS-  06222321442D

 27 30  0  0  0  0  0  0  0  0999 V2000
    9.4167   -5.1417    0.0000 S   0  0  3  0  0  0  0  0  0  0  0  0
   12.7292   -5.8667    0.0000 N   0  0  0  0  0  0  0  0  0  0  0  0
   13.5167   -5.5917    0.0000 C   0  0  0  0  0  0  0  0  0  0  0  0
   10.2417   -5.1667    0.0000 N   0  0  3  0  0  0  0  0  0  0  0  0
    7.3375   -5.8167    0.0000 N   0  0  3  0  0  0  0  0  0  0  0  0
   12.2292   -5.2125    0.0000 C   0  0  0  0  0  0  0  0  0  0  0  0
   13.4917   -4.7667    0.0000 N   0  0  0  0  0  0  0  0  0  0  0  0
   11.4042   -5.1917    0.0000 C   0  0  3  0  0  0  0  0  0  0  0  0
   12.7042   -4.5292    0.0000 O   0  0  0  0  0  0  0  0  0  0  0  0
    8.5917   -5.1292    0.0000 C   0  0  0  0  0  0  0  0  0  0  0  0
   14.1917   -6.0625    0.0000 C   0  0  0  0  0  0  0  0  0  0  0  0
    6.9042   -6.5167    0.0000 C   0  0  0  0  0  0  0  0  0  0  0  0
    6.9375   -5.1000    0.0000 C   0  0  0  0  0  0  0  0  0  0  0  0
   10.8125   -5.7625    0.0000 C   0  0  0  0  0  0  0  0  0  0  0  0
   10.8417   -4.5917    0.0000 C   0  0  0  0  0  0  0  0  0  0  0  0
    8.1667   -5.8375    0.0000 C   0  0  0  0  0  0  0  0  0  0  0  0
   14.2125   -6.8792    0.0000 S   0  0  0  0  0  0  0  0  0  0  0  0
    9.4375   -4.3167    0.0000 O   0  0  0  0  0  0  0  0  0  0  0  0
    9.4042   -5.9667    0.0000 O   0  0  0  0  0  0  0  0  0  0  0  0
   14.9667   -5.7875    0.0000 C   0  0  0  0  0  0  0  0  0  0  0  0
    7.3042   -7.2417    0.0000 O   0  0  0  0  0  0  0  0  0  0  0  0
    7.3625   -4.3792    0.0000 O   0  0  0  0  0  0  0  0  0  0  0  0
   15.0042   -7.1167    0.0000 C   0  0  0  0  0  0  0  0  0  0  0  0
   15.4667   -6.4417    0.0000 C   0  0  0  0  0  0  0  0  0  0  0  0
    6.1167   -5.0792    0.0000 C   0  0  0  0  0  0  0  0  0  0  0  0
    6.0792   -6.5042    0.0000 C   0  0  0  0  0  0  0  0  0  0  0  0
    5.6875   -5.7792    0.0000 C   0  0  0  0  0  0  0  0  0  0  0  0
  2  6  2  0  0  0  0
  3  2  1  0  0  0  0
  4  1  1  0  0  0  0
  5 16  1  0  0  0  0
  6  8  1  0  0  0  0
  7  9  1  0  0  0  0
  8 15  1  0  0  0  0
  9  6  1  0  0  0  0
 10  1  1  0  0  0  0
 11  3  1  0  0  0  0
 12  5  1  0  0  0  0
 13  5  1  0  0  0  0
 14  4  1  0  0  0  0
 15  4  1  0  0  0  0
 16 10  1  0  0  0  0
 17 11  1  0  0  0  0
 18  1  2  0  0  0  0
 19  1  2  0  0  0  0
 20 11  2  0  0  0  0
 21 12  2  0  0  0  0
 22 13  2  0  0  0  0
 23 17  1  0  0  0  0
 24 20  1  0  0  0  0
 25 13  1  0  0  0  0
 26 12  1  0  0  0  0
 27 25  1  0  0  0  0
  8 14  1  0  0  0  0
 27 26  1  0  0  0  0
  7  3  2  0  0  0  0
 24 23  2  0  0  0  0
M  END
> <IDNUMBER>
F6064-1564

> <Chemical_Name>
1-[2-({3-[3-(thiophen-2-yl)-1,2,4-oxadiazol-5-yl]azetidin-1-yl}sulfonyl)ethyl]piperidine-2,6-dione

> <CAS>
1323776-29-9

> <PriceCoeff>
1.00

> <MW>
410.47

> <Description>
solid

> <FSP3>
0.50

> <clogP>
0.89

> <TPSA>
150.30

> <Acceptor>
7

> <Donor>
0

> <RotBonds>
6

> <HAC>
27

> <Collection>
General

$$$$
F3284-8534
  -ISIS-  06222321152D

 17 17  0  0  0  0  0  0  0  0999 V2000
    0.1375   -0.9167    0.0000 C   0  0  0  0  0  0  0  0  0  0  0  0
    0.8542   -0.5042    0.0000 C   0  0  0  0  0  0  0  0  0  0  0  0
    0.1292   -1.7417    0.0000 C   0  0  0  0  0  0  0  0  0  0  0  0
    3.7042   -2.1542    0.0000 C   0  0  0  0  0  0  0  0  0  0  0  0
    2.9917   -1.7417    0.0000 C   0  0  0  0  0  0  0  0  0  0  0  0
    2.2792   -2.1542    0.0000 C   0  0  0  0  0  0  0  0  0  0  0  0
    1.5667   -1.7417    0.0000 C   0  0  0  0  0  0  0  0  0  0  0  0
    0.8417   -2.1542    0.0000 C   0  0  0  0  0  0  0  0  0  0  0  0
    1.5667   -0.9167    0.0000 C   0  0  0  0  0  0  0  0  0  0  0  0
    3.7042   -2.9792    0.0000 O   0  0  0  0  0  0  0  0  0  0  0  0
   -0.5708   -0.5000    0.0000 O   0  0  0  0  0  0  0  0  0  0  0  0
    0.8625    0.3208    0.0000 O   0  0  0  0  0  0  0  0  0  0  0  0
   -0.5833   -2.1500    0.0000 O   0  0  0  0  0  0  0  0  0  0  0  0
    4.4250   -1.7417    0.0000 O   0  0  0  0  0  0  0  0  0  0  0  0
   -1.2875   -0.9042    0.0000 C   0  0  0  0  0  0  0  0  0  0  0  0
    0.1417    0.7375    0.0000 C   0  0  0  0  0  0  0  0  0  0  0  0
   -0.5833   -2.9750    0.0000 C   0  0  0  0  0  0  0  0  0  0  0  0
  2  1  2  0  0  0  0
  3  1  1  0  0  0  0
  4  5  1  0  0  0  0
  5  6  2  0  0  0  0
  6  7  1  0  0  0  0
  7  8  1  0  0  0  0
  8  3  2  0  0  0  0
  9  2  1  0  0  0  0
 10  4  2  0  0  0  0
 11  1  1  0  0  0  0
 12  2  1  0  0  0  0
 13  3  1  0  0  0  0
 14  4  1  0  0  0  0
 15 11  1  0  0  0  0
 16 12  1  0  0  0  0
 17 13  1  0  0  0  0
  9  7  2  0  0  0  0
M  END
> <IDNUMBER>
F3284-8534

> <Chemical_Name>
(2E)-3-(3,4,5-trimethoxyphenyl)prop-2-enoic acid

> <CAS>
20329-98-0

> <PriceCoeff>
1.00

> <MW>
238.24

> <Description>
solid

> <FSP3>
0.25

> <clogP>
1.54

> <TPSA>
64.99

> <Acceptor>
5

> <Donor>
0

> <RotBonds>
5

> <HAC>
17

> <Collection>
General

> <Reference_compound>
CHEMBL95770

> <Similarity>
0.8040

$$$$
F5882-4966
  -ISIS-  06222321462D

 25 28  0  0  0  0  0  0  0  0999 V2000
   10.8625   -7.0500    0.0000 N   0  0  3  0  0  0  0  0  0  0  0  0
    8.6917   -5.8375    0.0000 N   0  0  3  0  0  0  0  0  0  0  0  0
    7.9792   -5.4292    0.0000 C   0  0  0  0  0  0  0  0  0  0  0  0
   10.9500   -7.8750    0.0000 C   0  0  0  0  0  0  0  0  0  0  0  0
    7.2667   -5.8417    0.0000 C   0  0  0  0  0  0  0  0  0  0  0  0
    4.4042   -5.8667    0.0000 C   0  0  0  0  0  0  0  0  0  0  0  0
   10.1375   -6.6417    0.0000 C   0  0  3  0  0  0  0  0  0  0  0  0
    6.5417   -5.4292    0.0000 C   0  0  0  0  0  0  0  0  0  0  0  0
    4.4167   -6.6917    0.0000 C   0  0  0  0  0  0  0  0  0  0  0  0
    3.6042   -5.6167    0.0000 O   0  0  0  0  0  0  0  0  0  0  0  0
    9.4167   -7.0667    0.0000 C   0  0  0  0  0  0  0  0  0  0  0  0
   10.1125   -5.8250    0.0000 C   0  0  0  0  0  0  0  0  0  0  0  0
    3.6292   -6.9667    0.0000 O   0  0  0  0  0  0  0  0  0  0  0  0
    8.7000   -6.6667    0.0000 C   0  0  0  0  0  0  0  0  0  0  0  0
    9.3917   -5.4250    0.0000 C   0  0  0  0  0  0  0  0  0  0  0  0
    3.1292   -6.3042    0.0000 C   0  0  0  0  0  0  0  0  0  0  0  0
   10.3417   -8.4292    0.0000 O   0  0  0  0  0  0  0  0  0  0  0  0
    5.1167   -5.4417    0.0000 C   0  0  0  0  0  0  0  0  0  0  0  0
    7.9667   -4.6042    0.0000 O   0  0  0  0  0  0  0  0  0  0  0  0
    5.8292   -5.8542    0.0000 C   0  0  0  0  0  0  0  0  0  0  0  0
    5.1292   -7.1042    0.0000 C   0  0  0  0  0  0  0  0  0  0  0  0
   11.6042   -6.7042    0.0000 C   0  0  0  0  0  0  0  0  0  0  0  0
    5.8417   -6.6792    0.0000 C   0  0  0  0  0  0  0  0  0  0  0  0
   11.7625   -8.0375    0.0000 C   0  0  0  0  0  0  0  0  0  0  0  0
   12.1667   -7.3167    0.0000 C   0  0  0  0  0  0  0  0  0  0  0  0
  2 15  1  0  0  0  0
  3  2  1  0  0  0  0
  4  1  1  0  0  0  0
  5  3  1  0  0  0  0
  6 18  2  0  0  0  0
  7  1  1  0  0  0  0
  8  5  2  0  0  0  0
  9 21  2  0  0  0  0
 10  6  1  0  0  0  0
 11  7  1  0  0  0  0
 12  7  1  0  0  0  0
 13  9  1  0  0  0  0
 14 11  1  0  0  0  0
 15 12  1  0  0  0  0
 16 10  1  0  0  0  0
 17  4  2  0  0  0  0
 18 20  1  0  0  0  0
 19  3  2  0  0  0  0
 20  8  1  0  0  0  0
 21 23  1  0  0  0  0
 22  1  1  0  0  0  0
 23 20  2  0  0  0  0
 24  4  1  0  0  0  0
 25 22  1  0  0  0  0
 24 25  1  0  0  0  0
  2 14  1  0  0  0  0
  6  9  1  0  0  0  0
 16 13  1  0  0  0  0
M  END
> <IDNUMBER>
F5882-4966

> <Chemical_Name>
1-{1-[(2E)-3-(2H-1,3-benzodioxol-5-yl)prop-2-enoyl]piperidin-4-yl}pyrrolidin-2-one

> <CAS>
1421586-44-8

> <PriceCoeff>
1.00

> <MW>
342.39

> <Description>
oil

> <FSP3>
0.47

> <clogP>
1.05

> <TPSA>
59.08

> <Acceptor>
4

> <Donor>
0

> <RotBonds>
4

> <HAC>
25

> <Collection>
General

> <Reference_compound>
CHEMBL43185

> <Similarity>
0.8160

$$$$
F3325-0095
  -ISIS-  06222321462D

 21 22  0  0  0  0  0  0  0  0999 V2000
    0.2500   -2.6000    0.0000 N   0  0  3  0  0  0  0  0  0  0  0  0
    0.7417   -3.2667    0.0000 C   0  0  0  0  0  0  0  0  0  0  0  0
    0.7292   -1.9292    0.0000 C   0  0  0  0  0  0  0  0  0  0  0  0
    1.5250   -3.0042    0.0000 C   0  0  3  0  0  0  0  0  0  0  0  0
    2.9417   -3.0042    0.0000 C   0  0  0  0  0  0  0  0  0  0  0  0
    1.5167   -2.1792    0.0000 C   0  0  0  0  0  0  0  0  0  0  0  0
    3.6542   -3.4167    0.0000 C   0  0  0  0  0  0  0  0  0  0  0  0
    2.2292   -3.4167    0.0000 S   0  0  0  0  0  0  0  0  0  0  0  0
    3.6542   -4.2417    0.0000 C   0  0  0  0  0  0  0  0  0  0  0  0
   -0.5708   -2.6042    0.0000 C   0  0  0  0  0  0  0  0  0  0  0  0
    2.9417   -2.1792    0.0000 N   0  0  0  0  0  0  0  0  0  0  0  0
    0.4875   -4.0500    0.0000 O   0  0  0  0  0  0  0  0  0  0  0  0
    0.4750   -1.1417    0.0000 O   0  0  0  0  0  0  0  0  0  0  0  0
    4.3667   -4.6542    0.0000 O   0  0  0  0  0  0  0  0  0  0  0  0
    2.9417   -4.6542    0.0000 O   0  0  0  0  0  0  0  0  0  0  0  0
    4.3667   -3.0042    0.0000 C   0  0  0  0  0  0  0  0  0  0  0  0
   -0.9833   -3.3167    0.0000 C   0  0  3  0  0  0  0  0  0  0  0  0
    3.6542   -1.7667    0.0000 C   0  0  0  0  0  0  0  0  0  0  0  0
    4.3667   -2.1792    0.0000 C   0  0  0  0  0  0  0  0  0  0  0  0
   -1.8083   -3.3250    0.0000 C   0  0  0  0  0  0  0  0  0  0  0  0
   -0.5708   -4.0292    0.0000 C   0  0  0  0  0  0  0  0  0  0  0  0
  2  1  1  0  0  0  0
  3  1  1  0  0  0  0
  4  2  1  0  0  0  0
  5  8  1  0  0  0  0
  6  3  1  0  0  0  0
  7  5  1  0  0  0  0
  8  4  1  0  0  0  0
  9  7  1  0  0  0  0
 10  1  1  0  0  0  0
 11  5  2  0  0  0  0
 12  2  2  0  0  0  0
 13  3  2  0  0  0  0
 14  9  2  0  0  0  0
 15  9  1  0  0  0  0
 16  7  2  0  0  0  0
 17 10  1  0  0  0  0
 18 11  1  0  0  0  0
 19 18  2  0  0  0  0
 20 17  1  0  0  0  0
 21 17  1  0  0  0  0
  4  6  1  0  0  0  0
 16 19  1  0  0  0  0
M  END
> <IDNUMBER>
F3325-0095

> <Chemical_Name>
2-{[1-(2-methylpropyl)-2,5-dioxopyrrolidin-3-yl]sulfanyl}pyridine-3-carboxylic acid

> <CAS>
924865-46-3

> <PriceCoeff>
1.00

> <MW>
308.35

> <Description>
solid

> <FSP3>
0.43

> <clogP>
2.13

> <TPSA>
112.87

> <Acceptor>
5

> <Donor>
1

> <RotBonds>
5

> <HAC>
21

> <Collection>
General

$$$$
F3023-0293
  -ISIS-  06222321152D

 20 21  0  0  0  0  0  0  0  0999 V2000
    9.2542   -6.3542    0.0000 N   0  0  3  0  0  0  0  0  0  0  0  0
    9.6792   -6.9375    0.0000 C   0  0  0  0  0  0  0  0  0  0  0  0
    9.6750   -5.7750    0.0000 C   0  0  0  0  0  0  0  0  0  0  0  0
   10.3625   -6.7125    0.0000 C   0  0  3  0  0  0  0  0  0  0  0  0
   11.5917   -6.8292    0.0000 C   0  0  0  0  0  0  0  0  0  0  0  0
   10.3542   -5.9917    0.0000 C   0  0  0  0  0  0  0  0  0  0  0  0
   12.1750   -7.2542    0.0000 C   0  0  0  0  0  0  0  0  0  0  0  0
   10.9417   -7.1292    0.0000 S   0  0  0  0  0  0  0  0  0  0  0  0
   12.1042   -7.9667    0.0000 C   0  0  0  0  0  0  0  0  0  0  0  0
   11.6625   -6.1250    0.0000 N   0  0  0  0  0  0  0  0  0  0  0  0
    9.4625   -7.6167    0.0000 O   0  0  0  0  0  0  0  0  0  0  0  0
    9.4500   -5.0917    0.0000 O   0  0  0  0  0  0  0  0  0  0  0  0
   12.6792   -8.3875    0.0000 O   0  0  0  0  0  0  0  0  0  0  0  0
    8.5375   -6.3625    0.0000 C   0  0  0  0  0  0  0  0  0  0  0  0
   11.4500   -8.2625    0.0000 O   0  0  0  0  0  0  0  0  0  0  0  0
   12.8292   -6.9542    0.0000 C   0  0  0  0  0  0  0  0  0  0  0  0
   12.3125   -5.8292    0.0000 C   0  0  0  0  0  0  0  0  0  0  0  0
    8.1750   -5.7417    0.0000 C   0  0  0  0  0  0  0  0  0  0  0  0
   12.9000   -6.2417    0.0000 C   0  0  0  0  0  0  0  0  0  0  0  0
    7.4542   -5.7500    0.0000 C   0  0  0  0  0  0  0  0  0  0  0  0
  2  1  1  0  0  0  0
  3  1  1  0  0  0  0
  4  2  1  0  0  0  0
  5  8  1  0  0  0  0
  6  3  1  0  0  0  0
  7  5  2  0  0  0  0
  8  4  1  0  0  0  0
  9  7  1  0  0  0  0
 10  5  1  0  0  0  0
 11  2  2  0  0  0  0
 12  3  2  0  0  0  0
 13  9  2  0  0  0  0
 14  1  1  0  0  0  0
 15  9  1  0  0  0  0
 16  7  1  0  0  0  0
 17 10  2  0  0  0  0
 18 14  1  0  0  0  0
 19 17  1  0  0  0  0
 20 18  1  0  0  0  0
  6  4  1  0  0  0  0
 19 16  2  0  0  0  0
M  END
> <IDNUMBER>
F3023-0293

> <Chemical_Name>
2-[(2,5-dioxo-1-propylpyrrolidin-3-yl)sulfanyl]pyridine-3-carboxylic acid

> <CAS>
831207-41-1

> <PriceCoeff>
1.00

> <MW>
294.33

> <Description>
solid

> <FSP3>
0.38

> <clogP>
1.73

> <TPSA>
112.87

> <Acceptor>
5

> <Donor>
1

> <RotBonds>
5

> <HAC>
20

> <Collection>
General

$$$$
F2764-0087
  -ISIS-  06222321442D

 23 25  0  0  0  0  0  0  0  0999 V2000
    0.7167    6.6375    0.0000 N   0  3  0  0  0  0  0  0  0  0  0  0
   -1.2333    5.5042    0.0000 C   0  0  0  0  0  0  0  0  0  0  0  0
   -1.8750    5.1292    0.0000 C   0  0  0  0  0  0  0  0  0  0  0  0
   -1.2333    6.2542    0.0000 C   0  0  0  0  0  0  0  0  0  0  0  0
    0.0625    6.2542    0.0000 C   0  0  0  0  0  0  0  0  0  0  0  0
   -0.5875    6.6292    0.0000 C   0  0  0  0  0  0  0  0  0  0  0  0
   -4.6583    6.4375    0.0000 C   0  0  3  0  0  0  0  0  0  0  0  0
   -3.9208    6.2792    0.0000 O   0  0  0  0  0  0  0  0  0  0  0  0
   -0.5875    5.1292    0.0000 C   0  0  0  0  0  0  0  0  0  0  0  0
   -5.0333    5.7917    0.0000 O   0  0  0  0  0  0  0  0  0  0  0  0
   -2.5333    5.5167    0.0000 N   0  0  0  0  0  0  0  0  0  0  0  0
    1.3667    6.2625    0.0000 O   0  5  0  0  0  0  0  0  0  0  0  0
    0.7167    7.3875    0.0000 O   0  0  0  0  0  0  0  0  0  0  0  0
    0.0625    5.5042    0.0000 C   0  0  0  0  0  0  0  0  0  0  0  0
   -3.8458    5.5292    0.0000 C   0  0  3  0  0  0  0  0  0  0  0  0
   -1.8833    4.3792    0.0000 O   0  0  0  0  0  0  0  0  0  0  0  0
   -1.8875    6.6417    0.0000 Cl  0  0  0  0  0  0  0  0  0  0  0  0
   -4.5333    5.2292    0.0000 C   0  0  0  0  0  0  0  0  0  0  0  0
   -3.1875    5.1417    0.0000 C   0  0  0  0  0  0  0  0  0  0  0  0
   -4.2833    7.0917    0.0000 C   0  0  0  0  0  0  0  0  0  0  0  0
   -5.3958    6.5917    0.0000 C   0  0  0  0  0  0  0  0  0  0  0  0
   -5.4708    7.3417    0.0000 C   0  0  0  0  0  0  0  0  0  0  0  0
   -4.7875    7.6417    0.0000 C   0  0  0  0  0  0  0  0  0  0  0  0
  2  9  2  0  0  0  0
  3  2  1  0  0  0  0
  4  6  2  0  0  0  0
  5  1  1  0  0  0  0
  6  5  1  0  0  0  0
  7  8  1  0  0  0  0
  8 15  1  0  0  0  0
  9 14  1  0  0  0  0
 10 18  1  0  0  0  0
 11  3  1  0  0  0  0
 12  1  1  0  0  0  0
 13  1  2  0  0  0  0
 14  5  2  0  0  0  0
 15 19  1  0  0  0  0
 16  3  2  0  0  0  0
 17  4  1  0  0  0  0
 18 15  1  0  0  0  0
 19 11  1  0  0  0  0
 20  7  1  0  0  0  0
 21  7  1  0  0  0  0
 22 21  1  0  0  0  0
 23 20  1  0  0  0  0
  4  2  1  0  0  0  0
 10  7  1  0  0  0  0
 23 22  1  0  0  0  0
M  CHG  2   1   1  12  -1
M  END
> <IDNUMBER>
F2764-0087

> <Chemical_Name>
2-chloro-N-({1,4-dioxaspiro[4.4]nonan-2-yl}methyl)-4-nitrobenzamide

> <CAS>
899733-77-8

> <PriceCoeff>
1.00

> <MW>
340.76

> <Description>
solid

> <FSP3>
0.53

> <clogP>
2.18

> <TPSA>
90.70

> <Acceptor>
5

> <Donor>
1

> <RotBonds>
4

> <HAC>
23

> <Collection>
General

$$$$
F3292-0438
  -ISIS-  06222321462D

 22 25  0  0  0  0  0  0  0  0999 V2000
    1.6417   -1.0167    0.0000 C   0  0  3  0  0  0  0  0  0  0  0  0
    3.7917    0.2125    0.0000 C   0  0  3  0  0  0  0  0  0  0  0  0
    1.6417   -1.8417    0.0000 C   0  0  0  0  0  0  0  0  0  0  0  0
    2.3542   -0.6125    0.0000 C   0  0  3  0  0  0  0  0  0  0  0  0
    3.7917   -0.6125    0.0000 C   0  0  3  0  0  0  0  0  0  0  0  0
    3.0792   -1.0250    0.0000 C   0  0  3  0  0  0  0  0  0  0  0  0
    0.9292   -2.2625    0.0000 C   0  0  0  0  0  0  0  0  0  0  0  0
    4.5792    0.4750    0.0000 C   0  0  3  0  0  0  0  0  0  0  0  0
    3.0667    0.6250    0.0000 C   0  0  0  0  0  0  0  0  0  0  0  0
    2.3542    0.2125    0.0000 C   0  0  0  0  0  0  0  0  0  0  0  0
    0.9292   -0.6042    0.0000 C   0  0  0  0  0  0  0  0  0  0  0  0
    3.0667   -1.8500    0.0000 C   0  0  0  0  0  0  0  0  0  0  0  0
    4.5792   -0.8625    0.0000 C   0  0  0  0  0  0  0  0  0  0  0  0
    2.3667   -2.2625    0.0000 C   0  0  0  0  0  0  0  0  0  0  0  0
    0.2167   -1.8417    0.0000 C   0  0  0  0  0  0  0  0  0  0  0  0
    5.0542   -0.1875    0.0000 C   0  0  0  0  0  0  0  0  0  0  0  0
   -0.5083   -2.2625    0.0000 O   0  0  0  0  0  0  0  0  0  0  0  0
    0.2167   -1.0167    0.0000 C   0  0  0  0  0  0  0  0  0  0  0  0
    5.3917    0.5208    0.0000 O   0  0  0  0  0  0  0  0  0  0  0  0
    1.5292   -0.2000    0.0000 C   0  0  0  0  0  0  0  0  0  0  0  0
    3.6667    1.0333    0.0000 C   0  0  0  0  0  0  0  0  0  0  0  0
    4.7792    1.2708    0.0000 C   0  0  0  0  0  0  0  0  0  0  0  0
  2  9  1  0  0  0  0
  3  1  1  0  0  0  0
  4  1  1  0  0  0  0
  5  6  1  0  0  0  0
  6  4  1  0  0  0  0
  7  3  2  0  0  0  0
  8  2  1  0  0  0  0
  9 10  1  0  0  0  0
 10  4  1  0  0  0  0
 11  1  1  0  0  0  0
 12  6  1  0  0  0  0
 13  5  1  0  0  0  0
 14  3  1  0  0  0  0
 15 18  1  0  0  0  0
 16 13  1  0  0  0  0
 17 15  2  0  0  0  0
 18 11  1  0  0  0  0
 19  8  1  0  0  0  0
 20  1  1  0  0  0  0
 21  2  1  0  0  0  0
 22  8  1  0  0  0  0
 12 14  1  0  0  0  0
 15  7  1  0  0  0  0
  2  5  1  0  0  0  0
 16  8  1  0  0  0  0
M  END
> <IDNUMBER>
F3292-0438

> <Chemical_Name>
14-hydroxy-2,14,15-trimethyltetracyclo[8.7.0.0^{2,7}.0^{11,15}]heptadec-6-en-5-one

> <CAS>


> <PriceCoeff>
1.00

> <MW>
302.45

> <Description>
solid

> <FSP3>
0.85

> <clogP>
3.93

> <TPSA>
37.30

> <Acceptor>
2

> <Donor>
1

> <RotBonds>
0

> <HAC>
22

> <Collection>
General

> <Reference_compound>
CHEMBL464491

> <Similarity>
0.8130

$$$$
F0020-1803
  -ISIS-  06222321442D

 19 20  0  0  0  0  0  0  0  0999 V2000
    0.5542   -1.1667    0.0000 C   0  0  0  0  0  0  0  0  0  0  0  0
   -4.3833    1.5458    0.0000 C   0  0  0  0  0  0  0  0  0  0  0  0
   -0.2625   -1.1792    0.0000 C   0  0  0  0  0  0  0  0  0  0  0  0
   -3.9708    0.8333    0.0000 C   0  0  0  0  0  0  0  0  0  0  0  0
    0.9875   -1.8542    0.0000 O   0  0  0  0  0  0  0  0  0  0  0  0
   -5.1833    1.5208    0.0000 O   0  0  0  0  0  0  0  0  0  0  0  0
   -2.6958   -1.2292    0.0000 O   0  0  0  0  0  0  0  0  0  0  0  0
   -0.6708   -1.9000    0.0000 C   0  0  0  0  0  0  0  0  0  0  0  0
   -4.3708    0.1208    0.0000 C   0  0  0  0  0  0  0  0  0  0  0  0
   -3.1458    0.8500    0.0000 C   0  0  0  0  0  0  0  0  0  0  0  0
   -0.7000   -0.4792    0.0000 C   0  0  0  0  0  0  0  0  0  0  0  0
   -1.9083   -1.2292    0.0000 C   0  0  0  0  0  0  0  0  0  0  0  0
   -3.1125   -0.5500    0.0000 C   0  0  0  0  0  0  0  0  0  0  0  0
    0.9500   -0.4500    0.0000 O   0  0  0  0  0  0  0  0  0  0  0  0
   -3.9958    2.2458    0.0000 O   0  0  0  0  0  0  0  0  0  0  0  0
   -1.5208   -0.5042    0.0000 C   0  0  0  0  0  0  0  0  0  0  0  0
   -3.9458   -0.5667    0.0000 C   0  0  0  0  0  0  0  0  0  0  0  0
   -1.4958   -1.9292    0.0000 C   0  0  0  0  0  0  0  0  0  0  0  0
   -2.7208    0.1708    0.0000 C   0  0  0  0  0  0  0  0  0  0  0  0
  2  4  1  0  0  0  0
  3  1  1  0  0  0  0
  4 10  2  0  0  0  0
  5  1  2  0  0  0  0
  6  2  2  0  0  0  0
  7 12  1  0  0  0  0
  8  3  1  0  0  0  0
  9 17  2  0  0  0  0
 10 19  1  0  0  0  0
 11  3  2  0  0  0  0
 12 16  2  0  0  0  0
 13  7  1  0  0  0  0
 14  1  1  0  0  0  0
 15  2  1  0  0  0  0
 16 11  1  0  0  0  0
 17 13  1  0  0  0  0
 18  8  2  0  0  0  0
 19 13  2  0  0  0  0
 12 18  1  0  0  0  0
  9  4  1  0  0  0  0
M  END
> <IDNUMBER>
F0020-1803

> <Chemical_Name>
4-(4-carboxyphenoxy)benzoic acid

> <CAS>
2215-89-6

> <PriceCoeff>
1.00

> <MW>
258.23

> <Description>
solid

> <FSP3>
0.00

> <clogP>
3.73

> <TPSA>
83.83

> <Acceptor>
5

> <Donor>
0

> <RotBonds>
4

> <HAC>
19

> <Collection>
General

> <Reference_compound>
CHEMBL21932

> <Similarity>
0.8630

$$$$
F6782-0558
  -ISIS-  06222321472D

 13 13  0  0  0  0  0  0  0  0999 V2000
    5.3792   -2.7667    0.0000 C   0  0  0  0  0  0  0  0  0  0  0  0
    4.6667   -3.1792    0.0000 C   0  0  0  0  0  0  0  0  0  0  0  0
    3.9542   -2.7667    0.0000 C   0  0  0  0  0  0  0  0  0  0  0  0
    5.3792   -1.9417    0.0000 O   0  0  0  0  0  0  0  0  0  0  0  0
    3.2417   -3.1875    0.0000 C   0  0  0  0  0  0  0  0  0  0  0  0
    2.5250   -2.7750    0.0000 C   0  0  0  0  0  0  0  0  0  0  0  0
    6.1000   -3.1750    0.0000 O   0  0  0  0  0  0  0  0  0  0  0  0
    1.8125   -3.1875    0.0000 C   0  0  0  0  0  0  0  0  0  0  0  0
    1.1000   -2.7792    0.0000 O   0  0  0  0  0  0  0  0  0  0  0  0
    2.5250   -4.4292    0.0000 C   0  0  0  0  0  0  0  0  0  0  0  0
    3.2417   -4.0167    0.0000 C   0  0  0  0  0  0  0  0  0  0  0  0
    1.8125   -4.0167    0.0000 C   0  0  0  0  0  0  0  0  0  0  0  0
    1.1000   -1.9542    0.0000 C   0  0  0  0  0  0  0  0  0  0  0  0
  2  1  1  0  0  0  0
  3  2  2  0  0  0  0
  4  1  2  0  0  0  0
  5  3  1  0  0  0  0
  6  5  2  0  0  0  0
  7  1  1  0  0  0  0
  8  6  1  0  0  0  0
  9  8  1  0  0  0  0
 10 11  2  0  0  0  0
 11  5  1  0  0  0  0
 12 10  1  0  0  0  0
 13  9  1  0  0  0  0
  8 12  2  0  0  0  0
M  END
> <IDNUMBER>
F6782-0558

> <Chemical_Name>
(2E)-3-(3-methoxyphenyl)prop-2-enoic acid

> <CAS>
17570-26-2

> <PriceCoeff>
1.00

> <MW>
178.18

> <Description>
solid

> <FSP3>
0.10

> <clogP>
2.16

> <TPSA>
46.53

> <Acceptor>
3

> <Donor>
0

> <RotBonds>
3

> <HAC>
13

> <Collection>
General

> <Reference_compound>
CHEMBL95770

> <Similarity>
0.9350

$$$$
F5834-2996
  -ISIS-  06222321152D

 28 31  0  0  0  0  0  0  0  0999 V2000
   -5.2875    2.5625    0.0000 N   0  0  3  0  0  0  0  0  0  0  0  0
   -5.3083    7.5292    0.0000 N   0  0  3  0  0  0  0  0  0  0  0  0
   -6.0000    7.9542    0.0000 C   0  0  0  0  0  0  0  0  0  0  0  0
   -5.3708    1.7333    0.0000 C   0  0  0  0  0  0  0  0  0  0  0  0
   -6.0292    2.9000    0.0000 C   0  0  0  0  0  0  0  0  0  0  0  0
   -6.0000    8.7792    0.0000 C   0  0  0  0  0  0  0  0  0  0  0  0
   -4.5833    6.2792    0.0000 C   0  0  0  0  0  0  0  0  0  0  0  0
   -5.3083    6.7042    0.0000 C   0  0  0  0  0  0  0  0  0  0  0  0
   -4.5833    3.8000    0.0000 C   0  0  0  0  0  0  0  0  0  0  0  0
   -4.5833    2.9833    0.0000 C   0  0  0  0  0  0  0  0  0  0  0  0
   -6.6792    9.2750    0.0000 S   0  0  0  0  0  0  0  0  0  0  0  0
   -3.8625    4.2125    0.0000 N   0  0  0  0  0  0  0  0  0  0  0  0
   -3.8625    6.7042    0.0000 C   0  0  0  0  0  0  0  0  0  0  0  0
   -4.5833    7.9417    0.0000 C   0  0  0  0  0  0  0  0  0  0  0  0
   -4.5958    5.4542    0.0000 C   0  0  0  0  0  0  0  0  0  0  0  0
   -6.7292    7.5417    0.0000 O   0  0  0  0  0  0  0  0  0  0  0  0
   -3.8625    5.0417    0.0000 C   0  0  0  0  0  0  0  0  0  0  0  0
   -5.3458    9.2542    0.0000 C   0  0  0  0  0  0  0  0  0  0  0  0
   -6.1667    1.5583    0.0000 C   0  0  0  0  0  0  0  0  0  0  0  0
   -6.5875    2.2833    0.0000 C   0  0  0  0  0  0  0  0  0  0  0  0
   -4.7583    1.1708    0.0000 O   0  0  0  0  0  0  0  0  0  0  0  0
   -6.2125    3.7083    0.0000 O   0  0  0  0  0  0  0  0  0  0  0  0
   -6.4167   10.0625    0.0000 C   0  0  0  0  0  0  0  0  0  0  0  0
   -5.3000    4.2125    0.0000 O   0  0  0  0  0  0  0  0  0  0  0  0
   -5.5958   10.0500    0.0000 C   0  0  0  0  0  0  0  0  0  0  0  0
   -3.8625    7.5167    0.0000 C   0  0  0  0  0  0  0  0  0  0  0  0
   -3.1583    6.2792    0.0000 C   0  0  0  0  0  0  0  0  0  0  0  0
   -3.1583    5.4542    0.0000 C   0  0  0  0  0  0  0  0  0  0  0  0
  2  8  1  0  0  0  0
  3  2  1  0  0  0  0
  4  1  1  0  0  0  0
  5  1  1  0  0  0  0
  6  3  1  0  0  0  0
  7 15  1  0  0  0  0
  8  7  1  0  0  0  0
  9 10  1  0  0  0  0
 10  1  1  0  0  0  0
 11  6  1  0  0  0  0
 12  9  1  0  0  0  0
 13 27  1  0  0  0  0
 14 26  1  0  0  0  0
 15 17  2  0  0  0  0
 16  3  2  0  0  0  0
 17 12  1  0  0  0  0
 18  6  2  0  0  0  0
 19  4  1  0  0  0  0
 20  5  1  0  0  0  0
 21  4  2  0  0  0  0
 22  5  2  0  0  0  0
 23 11  1  0  0  0  0
 24  9  2  0  0  0  0
 25 18  1  0  0  0  0
 26 13  1  0  0  0  0
 27 28  2  0  0  0  0
 28 17  1  0  0  0  0
 20 19  1  0  0  0  0
 13  7  2  0  0  0  0
 14  2  1  0  0  0  0
 23 25  2  0  0  0  0
M  END
> <IDNUMBER>
F5834-2996

> <Chemical_Name>
2-(2,5-dioxopyrrolidin-1-yl)-N-[2-(thiophene-2-carbonyl)-1,2,3,4-tetrahydroisoquinolin-7-yl]acetamide

> <CAS>
1206987-08-7

> <PriceCoeff>
1.00

> <MW>
397.45

> <Description>
solid

> <FSP3>
0.30

> <clogP>
1.33

> <TPSA>
115.03

> <Acceptor>
4

> <Donor>
1

> <RotBonds>
5

> <HAC>
28

> <Collection>
General

$$$$
F6660-4137
  -ISIS-  06222321162D

 16 18  0  0  0  0  0  0  0  0999 V2000
    5.5792    1.6500    0.0000 N   0  0  0  0  0  0  0  0  0  0  0  0
    4.9167    2.1458    0.0000 C   0  0  0  0  0  0  0  0  0  0  0  0
    6.2542    2.1333    0.0000 C   0  0  0  0  0  0  0  0  0  0  0  0
    6.0000    2.9208    0.0000 N   0  0  0  0  0  0  0  0  0  0  0  0
    5.1750    2.9208    0.0000 O   0  0  0  0  0  0  0  0  0  0  0  0
    4.1292    1.8833    0.0000 C   0  0  0  0  0  0  0  0  0  0  0  0
    3.8750    1.0958    0.0000 N   0  0  0  0  0  0  0  0  0  0  0  0
    7.0292    1.8833    0.0000 C   0  0  0  0  0  0  0  0  0  0  0  0
    3.4625    2.3708    0.0000 C   0  0  0  0  0  0  0  0  0  0  0  0
    3.0500    1.0958    0.0000 C   0  0  0  0  0  0  0  0  0  0  0  0
    2.8000    1.8833    0.0000 C   0  0  0  0  0  0  0  0  0  0  0  0
    7.2042    1.0708    0.0000 C   0  0  0  0  0  0  0  0  0  0  0  0
    7.6417    2.4333    0.0000 C   0  0  0  0  0  0  0  0  0  0  0  0
    8.4250    2.1833    0.0000 C   0  0  0  0  0  0  0  0  0  0  0  0
    7.9875    0.8208    0.0000 C   0  0  0  0  0  0  0  0  0  0  0  0
    8.6000    1.3708    0.0000 C   0  0  0  0  0  0  0  0  0  0  0  0
  2  1  2  0  0  0  0
  3  1  1  0  0  0  0
  4  3  2  0  0  0  0
  5  2  1  0  0  0  0
  6  2  1  0  0  0  0
  7  6  1  0  0  0  0
  8  3  1  0  0  0  0
  9  6  2  0  0  0  0
 10  7  1  0  0  0  0
 11  9  1  0  0  0  0
 12  8  2  0  0  0  0
 13  8  1  0  0  0  0
 14 13  2  0  0  0  0
 15 12  1  0  0  0  0
 16 14  1  0  0  0  0
  4  5  1  0  0  0  0
 11 10  2  0  0  0  0
 15 16  2  0  0  0  0
M  END
> <IDNUMBER>
F6660-4137

> <Chemical_Name>
3-phenyl-5-(1H-pyrrol-2-yl)-1,2,4-oxadiazole

> <CAS>
186809-64-3

> <PriceCoeff>
1.00

> <MW>
211.22

> <Description>
solid

> <FSP3>
0.00

> <clogP>
2.70

> <TPSA>
54.71

> <Acceptor>
3

> <Donor>
1

> <RotBonds>
2

> <HAC>
16

> <Collection>
General

> <Reference_compound>
CHEMBL2268705

> <Similarity>
0.8150

$$$$
F1864-0070
  -ISIS-  06222321442D

 24 27  0  0  0  0  0  0  0  0999 V2000
    5.2292   -2.6250    0.0000 C   0  0  0  0  0  0  0  0  0  0  0  0
    4.5167   -1.3875    0.0000 C   0  0  0  0  0  0  0  0  0  0  0  0
    4.5167   -2.2125    0.0000 C   0  0  0  0  0  0  0  0  0  0  0  0
    5.2292   -0.9750    0.0000 O   0  0  0  0  0  0  0  0  0  0  0  0
    5.9500   -1.3875    0.0000 C   0  0  0  0  0  0  0  0  0  0  0  0
    7.3875   -4.6792    0.0000 C   0  0  3  0  0  0  0  0  0  0  0  0
    5.9500   -2.2125    0.0000 C   0  0  0  0  0  0  0  0  0  0  0  0
    3.8042   -0.9750    0.0000 C   0  0  0  0  0  0  0  0  0  0  0  0
    3.8042   -2.6250    0.0000 C   0  0  0  0  0  0  0  0  0  0  0  0
    5.9500   -3.8625    0.0000 N   0  0  3  0  0  0  0  0  0  0  0  0
    3.0917   -2.2125    0.0000 C   0  0  0  0  0  0  0  0  0  0  0  0
    3.0917   -1.3917    0.0000 C   0  0  0  0  0  0  0  0  0  0  0  0
    5.2292   -3.4500    0.0000 C   0  0  0  0  0  0  0  0  0  0  0  0
    7.3875   -3.8542    0.0000 C   0  0  0  0  0  0  0  0  0  0  0  0
    6.6750   -5.1042    0.0000 C   0  0  0  0  0  0  0  0  0  0  0  0
    8.0667   -4.2417    0.0000 O   0  0  0  0  0  0  0  0  0  0  0  0
    7.6000   -5.4875    0.0000 O   0  0  0  0  0  0  0  0  0  0  0  0
    6.6667   -0.9667    0.0000 O   0  0  0  0  0  0  0  0  0  0  0  0
    5.9500   -4.6917    0.0000 C   0  0  0  0  0  0  0  0  0  0  0  0
    6.6542   -3.4500    0.0000 C   0  0  0  0  0  0  0  0  0  0  0  0
    2.3792   -2.6250    0.0000 Cl  0  0  0  0  0  0  0  0  0  0  0  0
    2.3750   -0.9792    0.0000 O   0  0  0  0  0  0  0  0  0  0  0  0
    8.4167   -5.5167    0.0000 C   0  0  0  0  0  0  0  0  0  0  0  0
    8.7125   -4.7667    0.0000 C   0  0  0  0  0  0  0  0  0  0  0  0
  2  3  2  0  0  0  0
  3  1  1  0  0  0  0
  4  5  1  0  0  0  0
  5  7  1  0  0  0  0
  6 14  1  0  0  0  0
  7  1  2  0  0  0  0
  8  2  1  0  0  0  0
  9  3  1  0  0  0  0
 10 13  1  0  0  0  0
 11  9  2  0  0  0  0
 12 11  1  0  0  0  0
 13  1  1  0  0  0  0
 14 20  1  0  0  0  0
 15 19  1  0  0  0  0
 16  6  1  0  0  0  0
 17  6  1  0  0  0  0
 18  5  2  0  0  0  0
 19 10  1  0  0  0  0
 20 10  1  0  0  0  0
 21 11  1  0  0  0  0
 22 12  1  0  0  0  0
 23 17  1  0  0  0  0
 24 16  1  0  0  0  0
  2  4  1  0  0  0  0
 15  6  1  0  0  0  0
  8 12  2  0  0  0  0
 24 23  1  0  0  0  0
M  END
> <IDNUMBER>
F1864-0070

> <Chemical_Name>
6-chloro-4-({1,4-dioxa-8-azaspiro[4.5]decan-8-yl}methyl)-7-hydroxy-2H-chromen-2-one

> <CAS>
887209-77-0

> <PriceCoeff>
1.00

> <MW>
351.78

> <Description>
solid

> <FSP3>
0.47

> <clogP>
1.61

> <TPSA>
68.23

> <Acceptor>
5

> <Donor>
2

> <RotBonds>
2

> <HAC>
24

> <Collection>
General

$$$$
F3350-0608
  -ISIS-  06222321152D

 26 28  0  0  0  0  0  0  0  0999 V2000
    5.3500   -0.8667    0.0000 S   0  0  3  0  0  0  0  0  0  0  0  0
    8.1917   -2.4792    0.0000 N   0  0  3  0  0  0  0  0  0  0  0  0
    8.2792   -3.3000    0.0000 C   0  0  0  0  0  0  0  0  0  0  0  0
    8.9375   -2.1500    0.0000 C   0  0  0  0  0  0  0  0  0  0  0  0
    4.6417   -0.4667    0.0000 N   0  0  0  0  0  0  0  0  0  0  0  0
    6.0625   -1.2667    0.0000 C   0  0  0  0  0  0  0  0  0  0  0  0
    7.4792   -2.0750    0.0000 C   0  0  0  0  0  0  0  0  0  0  0  0
    5.7542   -0.1542    0.0000 O   0  0  0  0  0  0  0  0  0  0  0  0
    4.9500   -1.5792    0.0000 O   0  0  0  0  0  0  0  0  0  0  0  0
    9.4917   -2.7542    0.0000 C   0  0  0  0  0  0  0  0  0  0  0  0
    9.0792   -3.4667    0.0000 C   0  0  0  0  0  0  0  0  0  0  0  0
    7.6792   -3.8500    0.0000 O   0  0  0  0  0  0  0  0  0  0  0  0
    9.1042   -1.3500    0.0000 O   0  0  0  0  0  0  0  0  0  0  0  0
    6.0667   -2.0875    0.0000 C   0  0  0  0  0  0  0  0  0  0  0  0
    6.7625   -0.8625    0.0000 C   0  0  0  0  0  0  0  0  0  0  0  0
    6.7792   -2.4875    0.0000 C   0  0  0  0  0  0  0  0  0  0  0  0
    7.4750   -1.2625    0.0000 C   0  0  0  0  0  0  0  0  0  0  0  0
    3.9292   -0.0667    0.0000 C   0  0  0  0  0  0  0  0  0  0  0  0
    3.2292   -0.4792    0.0000 C   0  0  0  0  0  0  0  0  0  0  0  0
    1.8000   -1.3042    0.0000 C   0  0  0  0  0  0  0  0  0  0  0  0
    3.2292   -1.3042    0.0000 C   0  0  0  0  0  0  0  0  0  0  0  0
    2.5042   -0.0667    0.0000 C   0  0  0  0  0  0  0  0  0  0  0  0
    2.5042   -1.7167    0.0000 C   0  0  0  0  0  0  0  0  0  0  0  0
    1.8000   -0.4792    0.0000 C   0  0  0  0  0  0  0  0  0  0  0  0
    1.0917   -1.7167    0.0000 O   0  0  0  0  0  0  0  0  0  0  0  0
    0.3792   -1.3042    0.0000 C   0  0  0  0  0  0  0  0  0  0  0  0
  2  7  1  0  0  0  0
  3  2  1  0  0  0  0
  4  2  1  0  0  0  0
  5  1  1  0  0  0  0
  6  1  1  0  0  0  0
  7 17  1  0  0  0  0
  8  1  2  0  0  0  0
  9  1  2  0  0  0  0
 10  4  1  0  0  0  0
 11  3  1  0  0  0  0
 12  3  2  0  0  0  0
 13  4  2  0  0  0  0
 14  6  2  0  0  0  0
 15  6  1  0  0  0  0
 16 14  1  0  0  0  0
 17 15  2  0  0  0  0
 18  5  1  0  0  0  0
 19 18  1  0  0  0  0
 20 24  2  0  0  0  0
 21 19  1  0  0  0  0
 22 19  2  0  0  0  0
 23 21  2  0  0  0  0
 24 22  1  0  0  0  0
 25 20  1  0  0  0  0
 26 25  1  0  0  0  0
  7 16  2  0  0  0  0
 20 23  1  0  0  0  0
 10 11  1  0  0  0  0
M  END
> <IDNUMBER>
F3350-0608

> <Chemical_Name>
4-(2,5-dioxopyrrolidin-1-yl)-N-[(4-methoxyphenyl)methyl]benzene-1-sulfonamide

> <CAS>
919623-30-6

> <PriceCoeff>
1.00

> <MW>
374.41

> <Description>
solid

> <FSP3>
0.22

> <clogP>
0.78

> <TPSA>
101.16

> <Acceptor>
5

> <Donor>
1

> <RotBonds>
6

> <HAC>
26

> <Collection>
General

$$$$
F1831-0048
  -ISIS-  06222321142D

 30 33  0  0  0  0  0  0  0  0999 V2000
   -1.8083    1.2458    0.0000 C   0  0  0  0  0  0  0  0  0  0  0  0
   -2.4625    1.7250    0.0000 C   0  0  0  0  0  0  0  0  0  0  0  0
    2.5917    2.1833    0.0000 N   0  0  3  0  0  0  0  0  0  0  0  0
   -2.0583    0.4583    0.0000 S   0  0  0  0  0  0  0  0  0  0  0  0
   -3.1333    1.2458    0.0000 C   0  0  0  0  0  0  0  0  0  0  0  0
   -1.0333    1.2125    0.0000 N   0  0  0  0  0  0  0  0  0  0  0  0
   -2.8708    0.4625    0.0000 C   0  0  0  0  0  0  0  0  0  0  0  0
   -0.6625    2.1500    0.0000 C   0  0  0  0  0  0  0  0  0  0  0  0
    3.0417    2.8708    0.0000 C   0  0  0  0  0  0  0  0  0  0  0  0
    3.1042    1.5583    0.0000 C   0  0  0  0  0  0  0  0  0  0  0  0
   -2.4500    2.5500    0.0000 C   0  0  0  0  0  0  0  0  0  0  0  0
    1.7750    2.1708    0.0000 C   0  0  0  0  0  0  0  0  0  0  0  0
    0.1500    2.1625    0.0000 C   0  0  0  0  0  0  0  0  0  0  0  0
   -0.9458    2.8083    0.0000 O   0  0  0  0  0  0  0  0  0  0  0  0
    3.8292    2.6458    0.0000 C   0  0  0  0  0  0  0  0  0  0  0  0
    3.8625    1.8458    0.0000 C   0  0  0  0  0  0  0  0  0  0  0  0
    2.7542    3.6458    0.0000 O   0  0  0  0  0  0  0  0  0  0  0  0
    2.8917    0.7625    0.0000 O   0  0  0  0  0  0  0  0  0  0  0  0
   -1.7333    2.9583    0.0000 O   0  0  0  0  0  0  0  0  0  0  0  0
    1.3625    2.8958    0.0000 C   0  0  0  0  0  0  0  0  0  0  0  0
    1.3750    1.4750    0.0000 C   0  0  0  0  0  0  0  0  0  0  0  0
    0.5667    1.4708    0.0000 C   0  0  0  0  0  0  0  0  0  0  0  0
    0.5542    2.8833    0.0000 C   0  0  0  0  0  0  0  0  0  0  0  0
   -3.1625    2.9708    0.0000 N   0  0  0  0  0  0  0  0  0  0  0  0
   -3.7458    1.5458    0.0000 C   0  0  0  0  0  0  0  0  0  0  0  0
   -3.2083   -0.1542    0.0000 C   0  0  0  0  0  0  0  0  0  0  0  0
   -3.1583    3.7833    0.0000 C   0  0  0  0  0  0  0  0  0  0  0  0
   -4.4583    1.1750    0.0000 C   0  0  0  0  0  0  0  0  0  0  0  0
   -4.0083   -0.2667    0.0000 C   0  0  0  0  0  0  0  0  0  0  0  0
   -4.5833    0.3458    0.0000 C   0  0  0  0  0  0  0  0  0  0  0  0
  2  1  2  0  0  0  0
  3 12  1  0  0  0  0
  4  1  1  0  0  0  0
  5  2  1  0  0  0  0
  6  1  1  0  0  0  0
  7  4  1  0  0  0  0
  8  6  1  0  0  0  0
  9  3  1  0  0  0  0
 10  3  1  0  0  0  0
 11  2  1  0  0  0  0
 12 20  1  0  0  0  0
 13  8  1  0  0  0  0
 14  8  2  0  0  0  0
 15  9  1  0  0  0  0
 16 10  1  0  0  0  0
 17  9  2  0  0  0  0
 18 10  2  0  0  0  0
 19 11  2  0  0  0  0
 20 23  2  0  0  0  0
 21 22  1  0  0  0  0
 22 13  2  0  0  0  0
 23 13  1  0  0  0  0
 24 11  1  0  0  0  0
 25  5  1  0  0  0  0
 26  7  1  0  0  0  0
 27 24  1  0  0  0  0
 28 25  1  0  0  0  0
 29 26  1  0  0  0  0
 30 29  1  0  0  0  0
  5  7  2  0  0  0  0
 12 21  2  0  0  0  0
 30 28  1  0  0  0  0
 16 15  1  0  0  0  0
M  END
> <IDNUMBER>
F1831-0048

> <Chemical_Name>
2-[4-(2,5-dioxopyrrolidin-1-yl)benzamido]-N-methyl-4H,5H,6H,7H,8H-cyclohepta[b]thiophene-3-carboxamide

> <CAS>
893125-99-0

> <PriceCoeff>
1.00

> <MW>
425.50

> <Description>
solid

> <FSP3>
0.36

> <clogP>
2.10

> <TPSA>
123.82

> <Acceptor>
4

> <Donor>
2

> <RotBonds>
4

> <HAC>
30

> <Collection>
General

$$$$
F3350-0593
  -ISIS-  06222321152D

 25 27  0  0  0  0  0  0  0  0999 V2000
    4.2792   -2.7667    0.0000 S   0  0  3  0  0  0  0  0  0  0  0  0
    7.1042   -4.4667    0.0000 N   0  0  3  0  0  0  0  0  0  0  0  0
    7.1792   -5.2917    0.0000 C   0  0  0  0  0  0  0  0  0  0  0  0
    7.8667   -4.1500    0.0000 C   0  0  0  0  0  0  0  0  0  0  0  0
    3.5792   -2.3542    0.0000 N   0  0  0  0  0  0  0  0  0  0  0  0
    4.9917   -3.1917    0.0000 C   0  0  0  0  0  0  0  0  0  0  0  0
    6.4000   -4.0417    0.0000 C   0  0  0  0  0  0  0  0  0  0  0  0
    4.7125   -2.0667    0.0000 O   0  0  0  0  0  0  0  0  0  0  0  0
    3.8625   -3.4792    0.0000 O   0  0  0  0  0  0  0  0  0  0  0  0
    2.8667   -1.9292    0.0000 C   0  0  0  0  0  0  0  0  0  0  0  0
    8.4042   -4.7750    0.0000 C   0  0  0  0  0  0  0  0  0  0  0  0
    7.9792   -5.4792    0.0000 C   0  0  0  0  0  0  0  0  0  0  0  0
    6.5542   -5.8375    0.0000 O   0  0  0  0  0  0  0  0  0  0  0  0
    8.0542   -3.3500    0.0000 O   0  0  0  0  0  0  0  0  0  0  0  0
    2.8875   -1.1042    0.0000 C   0  0  0  0  0  0  0  0  0  0  0  0
    4.9750   -4.0167    0.0000 C   0  0  0  0  0  0  0  0  0  0  0  0
    5.7042   -2.8000    0.0000 C   0  0  0  0  0  0  0  0  0  0  0  0
    5.6875   -4.4417    0.0000 C   0  0  0  0  0  0  0  0  0  0  0  0
    6.4125   -3.2250    0.0000 C   0  0  0  0  0  0  0  0  0  0  0  0
    2.1750   -0.6792    0.0000 C   0  0  0  0  0  0  0  0  0  0  0  0
    2.1917    0.1458    0.0000 O   0  0  0  0  0  0  0  0  0  0  0  0
    1.4375   -1.9042    0.0000 C   0  0  0  0  0  0  0  0  0  0  0  0
    2.1417   -2.3292    0.0000 C   0  0  0  0  0  0  0  0  0  0  0  0
    1.4542   -1.0750    0.0000 C   0  0  0  0  0  0  0  0  0  0  0  0
    1.4875    0.5708    0.0000 C   0  0  0  0  0  0  0  0  0  0  0  0
  2  7  1  0  0  0  0
  3  2  1  0  0  0  0
  4  2  1  0  0  0  0
  5  1  1  0  0  0  0
  6  1  1  0  0  0  0
  7 19  1  0  0  0  0
  8  1  2  0  0  0  0
  9  1  2  0  0  0  0
 10  5  1  0  0  0  0
 11  4  1  0  0  0  0
 12  3  1  0  0  0  0
 13  3  2  0  0  0  0
 14  4  2  0  0  0  0
 15 10  1  0  0  0  0
 16  6  2  0  0  0  0
 17  6  1  0  0  0  0
 18 16  1  0  0  0  0
 19 17  2  0  0  0  0
 20 15  2  0  0  0  0
 21 20  1  0  0  0  0
 22 23  1  0  0  0  0
 23 10  2  0  0  0  0
 24 22  2  0  0  0  0
 25 21  1  0  0  0  0
  7 18  2  0  0  0  0
 24 20  1  0  0  0  0
 11 12  1  0  0  0  0
M  END
> <IDNUMBER>
F3350-0593

> <Chemical_Name>
4-(2,5-dioxopyrrolidin-1-yl)-N-(3-methoxyphenyl)benzene-1-sulfonamide

> <CAS>
919624-08-1

> <PriceCoeff>
1.00

> <MW>
360.38

> <Description>
solid

> <FSP3>
0.18

> <clogP>
0.79

> <TPSA>
101.16

> <Acceptor>
6

> <Donor>
1

> <RotBonds>
5

> <HAC>
25

> <Collection>
General

$$$$
F3375-0138
  -ISIS-  06222321152D

 26 28  0  0  0  0  0  0  0  0999 V2000
    8.9542   -2.6417    0.0000 S   0  0  3  0  0  0  0  0  0  0  0  0
    2.8000   -2.8917    0.0000 N   0  3  0  0  0  0  0  0  0  0  0  0
    5.5292   -3.4417    0.0000 C   0  0  0  0  0  0  0  0  0  0  0  0
    4.2292   -3.7167    0.0000 C   0  0  0  0  0  0  0  0  0  0  0  0
    6.3542   -3.5167    0.0000 C   0  0  0  0  0  0  0  0  0  0  0  0
    2.8042   -3.7250    0.0000 C   0  0  0  0  0  0  0  0  0  0  0  0
    3.5167   -4.1292    0.0000 C   0  0  0  0  0  0  0  0  0  0  0  0
    4.9875   -4.0542    0.0000 O   0  0  0  0  0  0  0  0  0  0  0  0
    8.1917   -2.3125    0.0000 C   0  0  0  0  0  0  0  0  0  0  0  0
    6.8292   -2.8500    0.0000 N   0  0  3  0  0  0  0  0  0  0  0  0
    7.6542   -2.9292    0.0000 C   0  0  3  0  0  0  0  0  0  0  0  0
    5.1042   -2.7167    0.0000 C   0  0  0  0  0  0  0  0  0  0  0  0
    4.3125   -2.9042    0.0000 C   0  0  0  0  0  0  0  0  0  0  0  0
    2.0917   -4.1292    0.0000 C   0  0  0  0  0  0  0  0  0  0  0  0
    3.5250   -4.9542    0.0000 C   0  0  0  0  0  0  0  0  0  0  0  0
    9.1667   -1.8417    0.0000 O   0  0  0  0  0  0  0  0  0  0  0  0
    9.6667   -3.0542    0.0000 O   0  0  0  0  0  0  0  0  0  0  0  0
    3.5125   -2.4792    0.0000 O   0  5  0  0  0  0  0  0  0  0  0  0
    8.0667   -3.6417    0.0000 C   0  0  0  0  0  0  0  0  0  0  0  0
    2.0792   -2.4792    0.0000 O   0  0  0  0  0  0  0  0  0  0  0  0
    8.8750   -3.4625    0.0000 C   0  0  0  0  0  0  0  0  0  0  0  0
    6.6917   -4.2667    0.0000 O   0  0  0  0  0  0  0  0  0  0  0  0
    2.0917   -4.9625    0.0000 C   0  0  0  0  0  0  0  0  0  0  0  0
    2.8125   -5.3750    0.0000 C   0  0  0  0  0  0  0  0  0  0  0  0
    1.3750   -5.3667    0.0000 Cl  0  0  0  0  0  0  0  0  0  0  0  0
    6.4917   -2.1000    0.0000 C   0  0  0  0  0  0  0  0  0  0  0  0
  2  6  1  0  0  0  0
  3  5  1  0  0  0  0
  4  8  1  0  0  0  0
  5 10  1  0  0  0  0
  6  7  2  0  0  0  0
  7  4  1  0  0  0  0
  8  3  1  0  0  0  0
  9  1  1  0  0  0  0
 10 11  1  0  0  0  0
 11  9  1  0  0  0  0
 12  3  2  0  0  0  0
 13 12  1  0  0  0  0
 14  6  1  0  0  0  0
 15  7  1  0  0  0  0
 16  1  2  0  0  0  0
 17  1  2  0  0  0  0
 18  2  1  0  0  0  0
 19 21  1  0  0  0  0
 20  2  2  0  0  0  0
 21  1  1  0  0  0  0
 22  5  2  0  0  0  0
 23 24  1  0  0  0  0
 24 15  2  0  0  0  0
 25 23  1  0  0  0  0
 26 10  1  0  0  0  0
 19 11  1  0  0  0  0
  4 13  2  0  0  0  0
 23 14  2  0  0  0  0
M  CHG  2   2   1  18  -1
M  END
> <IDNUMBER>
F3375-0138

> <Chemical_Name>
5-(4-chloro-2-nitrophenyl)-N-(1,1-dioxo-1lambda6-thiolan-3-yl)-N-methylfuran-2-carboxamide

> <CAS>
951901-03-4

> <PriceCoeff>
1.00

> <MW>
398.82

> <Description>
solid

> <FSP3>
0.31

> <clogP>
1.44

> <TPSA>
119.11

> <Acceptor>
6

> <Donor>
0

> <RotBonds>
5

> <HAC>
26

> <Collection>
General

$$$$
F3023-0022
  -ISIS-  06222321442D

 21 22  0  0  0  0  0  0  0  0999 V2000
    3.0917   -5.0625    0.0000 N   0  0  3  0  0  0  0  0  0  0  0  0
    3.5875   -5.7292    0.0000 C   0  0  0  0  0  0  0  0  0  0  0  0
    3.5792   -4.3917    0.0000 C   0  0  0  0  0  0  0  0  0  0  0  0
    4.3667   -5.4667    0.0000 C   0  0  3  0  0  0  0  0  0  0  0  0
    5.7917   -5.6125    0.0000 C   0  0  0  0  0  0  0  0  0  0  0  0
    4.3667   -4.6417    0.0000 C   0  0  0  0  0  0  0  0  0  0  0  0
    6.4542   -6.0917    0.0000 C   0  0  0  0  0  0  0  0  0  0  0  0
    5.0375   -5.9500    0.0000 S   0  0  0  0  0  0  0  0  0  0  0  0
    6.3750   -6.9167    0.0000 C   0  0  0  0  0  0  0  0  0  0  0  0
    5.8667   -4.7917    0.0000 N   0  0  0  0  0  0  0  0  0  0  0  0
    3.3292   -6.5125    0.0000 O   0  0  0  0  0  0  0  0  0  0  0  0
    3.3167   -3.6042    0.0000 O   0  0  0  0  0  0  0  0  0  0  0  0
    7.0417   -7.4000    0.0000 O   0  0  0  0  0  0  0  0  0  0  0  0
    2.2667   -5.0667    0.0000 C   0  0  0  0  0  0  0  0  0  0  0  0
    5.6167   -7.2542    0.0000 O   0  0  0  0  0  0  0  0  0  0  0  0
    7.2125   -5.7542    0.0000 C   0  0  0  0  0  0  0  0  0  0  0  0
    1.0292   -4.3542    0.0000 O   0  0  0  0  0  0  0  0  0  0  0  0
    6.6167   -4.4542    0.0000 C   0  0  0  0  0  0  0  0  0  0  0  0
    1.8542   -4.3542    0.0000 C   0  0  0  0  0  0  0  0  0  0  0  0
    0.6167   -3.6417    0.0000 C   0  0  0  0  0  0  0  0  0  0  0  0
    7.2917   -4.9292    0.0000 C   0  0  0  0  0  0  0  0  0  0  0  0
  2  1  1  0  0  0  0
  3  1  1  0  0  0  0
  4  2  1  0  0  0  0
  5  8  1  0  0  0  0
  6  3  1  0  0  0  0
  7  5  2  0  0  0  0
  8  4  1  0  0  0  0
  9  7  1  0  0  0  0
 10  5  1  0  0  0  0
 11  2  2  0  0  0  0
 12  3  2  0  0  0  0
 13  9  2  0  0  0  0
 14  1  1  0  0  0  0
 15  9  1  0  0  0  0
 16  7  1  0  0  0  0
 17 19  1  0  0  0  0
 18 10  2  0  0  0  0
 19 14  1  0  0  0  0
 20 17  1  0  0  0  0
 21 18  1  0  0  0  0
  6  4  1  0  0  0  0
 21 16  2  0  0  0  0
M  END
> <IDNUMBER>
F3023-0022

> <Chemical_Name>
2-{[1-(2-methoxyethyl)-2,5-dioxopyrrolidin-3-yl]sulfanyl}pyridine-3-carboxylic acid

> <CAS>
857494-02-1

> <PriceCoeff>
1.00

> <MW>
310.33

> <Description>
solid

> <FSP3>
0.38

> <clogP>
0.93

> <TPSA>
122.10

> <Acceptor>
6

> <Donor>
1

> <RotBonds>
6

> <HAC>
21

> <Collection>
General

$$$$
F0909-0423
  -ISIS-  06222304352D

 17 17  0  0  0  0  0  0  0  0999 V2000
    3.1417   -0.5417    0.0000 C   0  0  0  0  0  0  0  0  0  0  0  0
    2.6667   -1.2292    0.0000 N   0  0  0  0  0  0  0  0  0  0  0  0
    2.6667    0.0958    0.0000 S   0  0  0  0  0  0  0  0  0  0  0  0
    1.8917   -0.9792    0.0000 C   0  0  0  0  0  0  0  0  0  0  0  0
    1.8917   -0.1417    0.0000 C   0  0  0  0  0  0  0  0  0  0  0  0
    3.9792   -0.5042    0.0000 S   0  0  0  0  0  0  0  0  0  0  0  0
    1.1667   -1.3917    0.0000 C   0  0  0  0  0  0  0  0  0  0  0  0
    1.1667    0.2708    0.0000 C   0  0  0  0  0  0  0  0  0  0  0  0
    4.4292   -1.2042    0.0000 C   0  0  0  0  0  0  0  0  0  0  0  0
    0.4542   -0.9667    0.0000 C   0  0  0  0  0  0  0  0  0  0  0  0
    0.4542   -0.1542    0.0000 C   0  0  0  0  0  0  0  0  0  0  0  0
    6.7834   -0.5417    0.0000 S   0  0  3  0  0  0  0  0  0  0  0  0
    7.0167    0.2583    0.0000 O   0  0  0  0  0  0  0  0  0  0  0  0
    7.5584   -0.7917    0.0000 O   0  0  0  0  0  0  0  0  0  0  0  0
    6.0334   -0.4417    0.0000 O   0  0  0  0  0  0  0  0  0  0  0  0
    6.5209   -1.3292    0.0000 O   0  0  0  0  0  0  0  0  0  0  0  0
    5.7209   -1.5167    0.0000 C   0  0  0  0  0  0  0  0  0  0  0  0
  8  5  1  0  0  0  0
  9  6  1  0  0  0  0
 10  7  2  0  0  0  0
 11  8  2  0  0  0  0
  5  4  2  0  0  0  0
 11 10  1  0  0  0  0
  2  1  2  0  0  0  0
  3  1  1  0  0  0  0
  4  2  1  0  0  0  0
  5  3  1  0  0  0  0
  6  1  1  0  0  0  0
  7  4  1  0  0  0  0
 13 12  2  0  0  0  0
 14 12  2  0  0  0  0
 15 12  1  0  0  0  0
 16 12  1  0  0  0  0
 17 16  1  0  0  0  0
M  END
> <IDNUMBER>
F0909-0423

> <Chemical_Name>
2-(methylsulfanyl)-1,3-benzothiazole; methoxysulfonic acid

> <CAS>
1329871-59-1

> <PriceCoeff>
1.00

> <MW>
181.27

> <Description>
solid

> <FSP3>
0.12

> <clogP>
3.23

> <TPSA>
66.43

> <Acceptor>
1

> <Donor>
0

> <RotBonds>
1

> <HAC>
11

> <Collection>
General

> <Reference_compound>
PRI300

> <Similarity>
0.8900

$$$$
F3230-0009
  -ISIS-  06222321462D

 23 24  0  0  0  0  0  0  0  0999 V2000
    3.7792   -4.3000    0.0000 N   0  0  3  0  0  0  0  0  0  0  0  0
    2.9542   -4.3000    0.0000 N   0  0  0  0  0  0  0  0  0  0  0  0
    3.3667   -3.0292    0.0000 C   0  0  0  0  0  0  0  0  0  0  0  0
    4.0292   -3.5125    0.0000 C   0  0  0  0  0  0  0  0  0  0  0  0
    2.6917   -3.5125    0.0000 C   0  0  0  0  0  0  0  0  0  0  0  0
    9.4542   -3.2250    0.0000 C   0  0  0  0  0  0  0  0  0  0  0  0
    5.9000   -4.4667    0.0000 C   0  0  0  0  0  0  0  0  0  0  0  0
    4.3625   -4.8792    0.0000 C   0  0  0  0  0  0  0  0  0  0  0  0
    5.1875   -4.8792    0.0000 C   0  0  0  0  0  0  0  0  0  0  0  0
    8.7417   -3.6417    0.0000 C   0  0  0  0  0  0  0  0  0  0  0  0
    3.3625   -2.2042    0.0000 Cl  0  0  0  0  0  0  0  0  0  0  0  0
    9.4542   -2.4000    0.0000 O   0  0  0  0  0  0  0  0  0  0  0  0
    6.6125   -4.8792    0.0000 O   0  0  0  0  0  0  0  0  0  0  0  0
    5.8917   -3.6417    0.0000 O   0  0  0  0  0  0  0  0  0  0  0  0
    8.0292   -3.2292    0.0000 C   0  0  0  0  0  0  0  0  0  0  0  0
    8.7417   -4.4625    0.0000 C   0  0  0  0  0  0  0  0  0  0  0  0
    7.3250   -4.4542    0.0000 C   0  0  0  0  0  0  0  0  0  0  0  0
    4.7417   -3.0917    0.0000 C   0  0  0  0  0  0  0  0  0  0  0  0
   10.1667   -3.6375    0.0000 O   0  0  0  0  0  0  0  0  0  0  0  0
    1.8917   -3.2917    0.0000 C   0  0  0  0  0  0  0  0  0  0  0  0
    8.0292   -4.8667    0.0000 C   0  0  0  0  0  0  0  0  0  0  0  0
    7.3250   -3.6417    0.0000 C   0  0  0  0  0  0  0  0  0  0  0  0
   10.8792   -3.2167    0.0000 C   0  0  0  0  0  0  0  0  0  0  0  0
  2  1  1  0  0  0  0
  3  4  2  0  0  0  0
  4  1  1  0  0  0  0
  5  2  2  0  0  0  0
  6 10  1  0  0  0  0
  7  9  1  0  0  0  0
  8  1  1  0  0  0  0
  9  8  1  0  0  0  0
 10 15  1  0  0  0  0
 11  3  1  0  0  0  0
 12  6  2  0  0  0  0
 13  7  1  0  0  0  0
 14  7  2  0  0  0  0
 15 22  2  0  0  0  0
 16 21  1  0  0  0  0
 17 13  1  0  0  0  0
 18  4  1  0  0  0  0
 19  6  1  0  0  0  0
 20  5  1  0  0  0  0
 21 17  2  0  0  0  0
 22 17  1  0  0  0  0
 23 19  1  0  0  0  0
  5  3  1  0  0  0  0
 10 16  2  0  0  0  0
M  END
> <IDNUMBER>
F3230-0009

> <Chemical_Name>
methyl 4-{[3-(4-chloro-3,5-dimethyl-1H-pyrazol-1-yl)propanoyl]oxy}benzoate

> <CAS>
890596-87-9

> <PriceCoeff>
1.00

> <MW>
336.77

> <Description>
solid

> <FSP3>
0.31

> <clogP>
3.28

> <TPSA>
70.42

> <Acceptor>
5

> <Donor>
0

> <RotBonds>
7

> <HAC>
23

> <Collection>
General

$$$$
F6448-2483
  -ISIS-  06222321152D

 30 33  0  0  0  0  0  0  0  0999 V2000
   -4.5833    2.9792    0.0000 S   0  0  3  0  0  0  0  0  0  0  0  0
   -6.7292    2.6250    0.0000 N   0  0  3  0  0  0  0  0  0  0  0  0
   -3.8708    4.2167    0.0000 C   0  0  0  0  0  0  0  0  0  0  0  0
   -4.3000    5.4792    0.0000 N   0  0  3  0  0  0  0  0  0  0  0  0
   -3.4750    5.4833    0.0000 N   0  0  0  0  0  0  0  0  0  0  0  0
   -4.5458    4.7000    0.0000 C   0  0  0  0  0  0  0  0  0  0  0  0
   -7.4292    3.0708    0.0000 C   0  0  0  0  0  0  0  0  0  0  0  0
   -6.7542    1.8000    0.0000 C   0  0  0  0  0  0  0  0  0  0  0  0
   -3.8708    3.3917    0.0000 N   0  0  0  0  0  0  0  0  0  0  0  0
   -3.6458    7.0042    0.0000 O   0  0  0  0  0  0  0  0  0  0  0  0
   -5.3083    2.5833    0.0000 C   0  0  0  0  0  0  0  0  0  0  0  0
   -3.2083    4.7000    0.0000 C   0  0  0  0  0  0  0  0  0  0  0  0
   -5.9958    3.0208    0.0000 C   0  0  0  0  0  0  0  0  0  0  0  0
   -4.6333    8.3292    0.0000 O   0  0  0  0  0  0  0  0  0  0  0  0
   -3.3208    7.7625    0.0000 C   0  0  0  0  0  0  0  0  0  0  0  0
   -4.4583    6.9042    0.0000 C   0  0  3  0  0  0  0  0  0  0  0  0
   -4.7958    6.1542    0.0000 C   0  0  0  0  0  0  0  0  0  0  0  0
   -4.1875    2.2583    0.0000 O   0  0  0  0  0  0  0  0  0  0  0  0
   -4.7792    3.7917    0.0000 O   0  0  0  0  0  0  0  0  0  0  0  0
   -3.8083    8.4250    0.0000 C   0  0  0  0  0  0  0  0  0  0  0  0
   -6.0333    1.3625    0.0000 O   0  0  0  0  0  0  0  0  0  0  0  0
   -7.4042    3.8958    0.0000 O   0  0  0  0  0  0  0  0  0  0  0  0
   -4.9583    7.5750    0.0000 C   0  0  0  0  0  0  0  0  0  0  0  0
   -7.4792    1.4083    0.0000 C   0  0  0  0  0  0  0  0  0  0  0  0
   -8.1542    2.6708    0.0000 C   0  0  0  0  0  0  0  0  0  0  0  0
   -8.1750    1.8458    0.0000 C   0  0  0  0  0  0  0  0  0  0  0  0
   -2.5000    7.8542    0.0000 C   0  0  0  0  0  0  0  0  0  0  0  0
   -3.4833    9.1875    0.0000 C   0  0  0  0  0  0  0  0  0  0  0  0
   -2.1625    8.6125    0.0000 C   0  0  0  0  0  0  0  0  0  0  0  0
   -2.6625    9.2792    0.0000 C   0  0  0  0  0  0  0  0  0  0  0  0
  2 13  1  0  0  0  0
  3  9  1  0  0  0  0
  4  6  1  0  0  0  0
  5 12  2  0  0  0  0
  6  3  2  0  0  0  0
  7  2  1  0  0  0  0
  8  2  1  0  0  0  0
  9  1  1  0  0  0  0
 10 16  1  0  0  0  0
 11  1  1  0  0  0  0
 12  3  1  0  0  0  0
 13 11  1  0  0  0  0
 14 23  1  0  0  0  0
 15 10  1  0  0  0  0
 16 17  1  0  0  0  0
 17  4  1  0  0  0  0
 18  1  2  0  0  0  0
 19  1  2  0  0  0  0
 20 14  1  0  0  0  0
 21  8  2  0  0  0  0
 22  7  2  0  0  0  0
 23 16  1  0  0  0  0
 24  8  1  0  0  0  0
 25  7  1  0  0  0  0
 26 24  1  0  0  0  0
 27 15  1  0  0  0  0
 28 20  1  0  0  0  0
 29 27  2  0  0  0  0
 30 28  2  0  0  0  0
  5  4  1  0  0  0  0
 26 25  1  0  0  0  0
 15 20  2  0  0  0  0
 29 30  1  0  0  0  0
M  END
> <IDNUMBER>
F6448-2483

> <Chemical_Name>
N-{1-[(2,3-dihydro-1,4-benzodioxin-2-yl)methyl]-1H-pyrazol-4-yl}-2-(2,6-dioxopiperidin-1-yl)ethane-1-sulfonamide

> <CAS>
1798543-37-9

> <PriceCoeff>
1.00

> <MW>
434.47

> <Description>
solid

> <FSP3>
0.42

> <clogP>
1.36

> <TPSA>
128.21

> <Acceptor>
7

> <Donor>
1

> <RotBonds>
7

> <HAC>
30

> <Collection>
General

$$$$
F3350-0566
  -ISIS-  06222321442D

 25 27  0  0  0  0  0  0  0  0999 V2000
    4.2917   -2.5500    0.0000 S   0  0  3  0  0  0  0  0  0  0  0  0
    7.1417   -4.2042    0.0000 N   0  0  3  0  0  0  0  0  0  0  0  0
    3.5750   -2.1375    0.0000 N   0  0  0  0  0  0  0  0  0  0  0  0
    7.2250   -5.0292    0.0000 C   0  0  0  0  0  0  0  0  0  0  0  0
    7.9000   -3.8792    0.0000 C   0  0  0  0  0  0  0  0  0  0  0  0
    2.8542   -1.7250    0.0000 C   0  0  0  0  0  0  0  0  0  0  0  0
    5.0042   -2.9625    0.0000 C   0  0  0  0  0  0  0  0  0  0  0  0
    6.4292   -3.7917    0.0000 C   0  0  0  0  0  0  0  0  0  0  0  0
    4.7042   -1.8417    0.0000 O   0  0  0  0  0  0  0  0  0  0  0  0
    3.8792   -3.2667    0.0000 O   0  0  0  0  0  0  0  0  0  0  0  0
    8.4500   -4.4917    0.0000 C   0  0  0  0  0  0  0  0  0  0  0  0
    8.0292   -5.2125    0.0000 C   0  0  0  0  0  0  0  0  0  0  0  0
    6.6042   -5.5792    0.0000 O   0  0  0  0  0  0  0  0  0  0  0  0
    8.0750   -3.0750    0.0000 O   0  0  0  0  0  0  0  0  0  0  0  0
    2.8542   -0.8917    0.0000 C   0  0  0  0  0  0  0  0  0  0  0  0
    5.0000   -3.7875    0.0000 C   0  0  0  0  0  0  0  0  0  0  0  0
    5.7167   -2.5542    0.0000 C   0  0  0  0  0  0  0  0  0  0  0  0
    5.7167   -4.1917    0.0000 C   0  0  0  0  0  0  0  0  0  0  0  0
    6.4292   -2.9667    0.0000 C   0  0  0  0  0  0  0  0  0  0  0  0
    3.5667   -0.4792    0.0000 O   0  0  0  0  0  0  0  0  0  0  0  0
    2.1417   -2.1375    0.0000 C   0  0  0  0  0  0  0  0  0  0  0  0
    2.1417   -0.4792    0.0000 C   0  0  0  0  0  0  0  0  0  0  0  0
    3.5667    0.3458    0.0000 C   0  0  0  0  0  0  0  0  0  0  0  0
    1.4292   -1.7250    0.0000 C   0  0  0  0  0  0  0  0  0  0  0  0
    1.4292   -0.9000    0.0000 C   0  0  0  0  0  0  0  0  0  0  0  0
  2  8  1  0  0  0  0
  3  1  1  0  0  0  0
  4  2  1  0  0  0  0
  5  2  1  0  0  0  0
  6  3  1  0  0  0  0
  7  1  1  0  0  0  0
  8 19  1  0  0  0  0
  9  1  2  0  0  0  0
 10  1  2  0  0  0  0
 11  5  1  0  0  0  0
 12  4  1  0  0  0  0
 13  4  2  0  0  0  0
 14  5  2  0  0  0  0
 15  6  1  0  0  0  0
 16  7  2  0  0  0  0
 17  7  1  0  0  0  0
 18 16  1  0  0  0  0
 19 17  2  0  0  0  0
 20 15  1  0  0  0  0
 21  6  2  0  0  0  0
 22 15  2  0  0  0  0
 23 20  1  0  0  0  0
 24 21  1  0  0  0  0
 25 24  2  0  0  0  0
  8 18  2  0  0  0  0
 25 22  1  0  0  0  0
 11 12  1  0  0  0  0
M  END
> <IDNUMBER>
F3350-0566

> <Chemical_Name>
4-(2,5-dioxopyrrolidin-1-yl)-N-(2-methoxyphenyl)benzene-1-sulfonamide

> <CAS>
919681-26-8

> <PriceCoeff>
1.00

> <MW>
360.38

> <Description>
solid

> <FSP3>
0.18

> <clogP>
0.79

> <TPSA>
101.16

> <Acceptor>
6

> <Donor>
1

> <RotBonds>
5

> <HAC>
25

> <Collection>
General

$$$$
F0526-0209
  -ISIS-  06222304342D

 33 35  0  0  0  0  0  0  0  0999 V2000
    2.8500    0.6375    0.0000 C   0  0  0  0  0  0  0  0  0  0  0  0
    2.3667    1.3083    0.0000 C   0  0  0  0  0  0  0  0  0  0  0  0
    4.1167   -2.9375    0.0000 N   0  0  3  0  0  0  0  0  0  0  0  0
    1.5792    1.0583    0.0000 C   0  0  0  0  0  0  0  0  0  0  0  0
    1.5792    0.2333    0.0000 C   0  0  0  0  0  0  0  0  0  0  0  0
    2.3667   -0.0292    0.0000 S   0  0  0  0  0  0  0  0  0  0  0  0
    3.6792    0.6333    0.0000 N   0  0  0  0  0  0  0  0  0  0  0  0
    3.6917   -2.2292    0.0000 C   0  0  0  0  0  0  0  0  0  0  0  0
    4.0917   -0.0792    0.0000 C   0  0  0  0  0  0  0  0  0  0  0  0
    4.9292   -3.0500    0.0000 C   0  0  0  0  0  0  0  0  0  0  0  0
    3.7917   -3.6875    0.0000 C   0  0  0  0  0  0  0  0  0  0  0  0
    2.6250    2.1000    0.0000 C   0  0  0  0  0  0  0  0  0  0  0  0
    4.0917   -1.5125    0.0000 C   0  0  0  0  0  0  0  0  0  0  0  0
    0.1417    0.2333    0.0000 N   0  0  3  0  0  0  0  0  0  0  0  0
    0.8667   -0.1792    0.0000 C   0  0  0  0  0  0  0  0  0  0  0  0
    3.6792   -0.8000    0.0000 C   0  0  0  0  0  0  0  0  0  0  0  0
    0.8667    1.4750    0.0000 C   0  0  0  0  0  0  0  0  0  0  0  0
    4.9292   -0.0792    0.0000 O   0  0  0  0  0  0  0  0  0  0  0  0
    4.4042   -4.2250    0.0000 C   0  0  0  0  0  0  0  0  0  0  0  0
    5.0917   -3.8417    0.0000 C   0  0  0  0  0  0  0  0  0  0  0  0
    2.9417   -3.9125    0.0000 O   0  0  0  0  0  0  0  0  0  0  0  0
    5.5292   -2.4167    0.0000 O   0  0  0  0  0  0  0  0  0  0  0  0
    2.0792    2.7250    0.0000 O   0  0  0  0  0  0  0  0  0  0  0  0
    0.1417    1.0583    0.0000 C   0  0  0  0  0  0  0  0  0  0  0  0
    3.4375    2.2833    0.0000 O   0  0  0  0  0  0  0  0  0  0  0  0
    2.8500   -2.2167    0.0000 C   0  0  0  0  0  0  0  0  0  0  0  0
   -0.5833   -0.1792    0.0000 C   0  0  0  0  0  0  0  0  0  0  0  0
    2.8167   -0.8000    0.0000 C   0  0  0  0  0  0  0  0  0  0  0  0
    2.4375   -1.5417    0.0000 C   0  0  0  0  0  0  0  0  0  0  0  0
    3.6792    3.0708    0.0000 C   0  0  0  0  0  0  0  0  0  0  0  0
   -0.5708   -1.0125    0.0000 C   0  0  0  0  0  0  0  0  0  0  0  0
    4.4917    3.2458    0.0000 C   0  0  0  0  0  0  0  0  0  0  0  0
    7.0459   -0.3958    0.0000 Cl  0  0  0  0  0  0  0  0  0  0  0  0
  3  8  1  0  0  0  0
  4  2  1  0  0  0  0
  5  6  1  0  0  0  0
  6  1  1  0  0  0  0
  7  1  1  0  0  0  0
  8 13  2  0  0  0  0
  9  7  1  0  0  0  0
 10  3  1  0  0  0  0
 11  3  1  0  0  0  0
 12  2  1  0  0  0  0
 13 16  1  0  0  0  0
 14 15  1  0  0  0  0
 15  5  1  0  0  0  0
 16  9  1  0  0  0  0
 17  4  1  0  0  0  0
 18  9  2  0  0  0  0
 19 11  1  0  0  0  0
 20 10  1  0  0  0  0
 21 11  2  0  0  0  0
 22 10  2  0  0  0  0
 23 12  2  0  0  0  0
 24 17  1  0  0  0  0
 25 12  1  0  0  0  0
 26 29  2  0  0  0  0
 27 14  1  0  0  0  0
 28 16  2  0  0  0  0
 29 28  1  0  0  0  0
 30 25  1  0  0  0  0
 31 27  1  0  0  0  0
 32 30  1  0  0  0  0
  5  4  2  0  0  0  0
 14 24  1  0  0  0  0
  8 26  1  0  0  0  0
 20 19  1  0  0  0  0
  2  1  2  0  0  0  0
M  END
> <IDNUMBER>
F0526-0209

> <Chemical_Name>
ethyl 2-[3-(2,5-dioxopyrrolidin-1-yl)benzamido]-6-ethyl-4H,5H,6H,7H-thieno[2,3-c]pyridine-3-carboxylate hydrochloride

> <CAS>
1135200-67-7

> <PriceCoeff>
1.00

> <MW>
455.53

> <Description>
solid

> <FSP3>
0.39

> <clogP>
1.92

> <TPSA>
124.26

> <Acceptor>
5

> <Donor>
2

> <RotBonds>
7

> <HAC>
32

> <Collection>
General

$$$$
F3244-0178
  -ISIS-  06222321462D

 19 20  0  0  0  0  0  0  0  0999 V2000
    5.9250   -3.5917    0.0000 C   0  0  0  0  0  0  0  0  0  0  0  0
    5.0500   -4.5917    0.0000 C   0  0  0  0  0  0  0  0  0  0  0  0
    5.1292   -3.7667    0.0000 C   0  0  0  0  0  0  0  0  0  0  0  0
    6.3542   -4.3125    0.0000 C   0  0  0  0  0  0  0  0  0  0  0  0
    2.1917   -6.2542    0.0000 N   0  3  0  0  0  0  0  0  0  0  0  0
    5.8042   -4.9250    0.0000 O   0  0  0  0  0  0  0  0  0  0  0  0
    4.3375   -5.0042    0.0000 C   0  0  0  0  0  0  0  0  0  0  0  0
    6.2542   -2.8292    0.0000 C   0  0  0  0  0  0  0  0  0  0  0  0
    4.3375   -5.8375    0.0000 C   0  0  0  0  0  0  0  0  0  0  0  0
    2.9042   -5.8375    0.0000 C   0  0  0  0  0  0  0  0  0  0  0  0
    3.6167   -6.2500    0.0000 C   0  0  0  0  0  0  0  0  0  0  0  0
    3.6167   -4.5917    0.0000 C   0  0  0  0  0  0  0  0  0  0  0  0
    1.4750   -5.8417    0.0000 O   0  5  0  0  0  0  0  0  0  0  0  0
    2.1917   -7.0792    0.0000 O   0  0  0  0  0  0  0  0  0  0  0  0
    2.9042   -5.0125    0.0000 C   0  0  0  0  0  0  0  0  0  0  0  0
    5.7542   -2.1667    0.0000 O   0  0  0  0  0  0  0  0  0  0  0  0
    5.0500   -6.2500    0.0000 Cl  0  0  0  0  0  0  0  0  0  0  0  0
    7.0667   -2.7292    0.0000 O   0  0  0  0  0  0  0  0  0  0  0  0
    7.1750   -4.3917    0.0000 C   0  0  0  0  0  0  0  0  0  0  0  0
  2  3  2  0  0  0  0
  3  1  1  0  0  0  0
  4  1  2  0  0  0  0
  5 10  1  0  0  0  0
  6  4  1  0  0  0  0
  7  2  1  0  0  0  0
  8  1  1  0  0  0  0
  9  7  1  0  0  0  0
 10 15  2  0  0  0  0
 11  9  2  0  0  0  0
 12  7  2  0  0  0  0
 13  5  1  0  0  0  0
 14  5  2  0  0  0  0
 15 12  1  0  0  0  0
 16  8  2  0  0  0  0
 17  9  1  0  0  0  0
 18  8  1  0  0  0  0
 19  4  1  0  0  0  0
  6  2  1  0  0  0  0
 10 11  1  0  0  0  0
M  CHG  2   5   1  13  -1
M  END
> <IDNUMBER>
F3244-0178

> <Chemical_Name>
5-(2-chloro-4-nitrophenyl)-2-methylfuran-3-carboxylic acid

> <CAS>
890642-11-2

> <PriceCoeff>
1.00

> <MW>
281.65

> <Description>
solid

> <FSP3>
0.08

> <clogP>
3.61

> <TPSA>
93.58

> <Acceptor>
5

> <Donor>
0

> <RotBonds>
3

> <HAC>
19

> <Collection>
General

$$$$
F0327-0402
  -ISIS-  06222321442D

 22 25  0  0  0  0  0  0  0  0999 V2000
    4.5500   -0.9000    0.0000 N   0  0  3  0  0  0  0  0  0  0  0  0
    1.6000   -0.9000    0.0000 C   0  0  0  0  0  0  0  0  0  0  0  0
    1.1292   -1.6000    0.0000 N   0  0  0  0  0  0  0  0  0  0  0  0
    1.2000   -0.3292    0.0000 S   0  0  0  0  0  0  0  0  0  0  0  0
    4.9375   -1.5542    0.0000 C   0  0  0  0  0  0  0  0  0  0  0  0
    5.0167   -0.3167    0.0000 C   0  0  0  0  0  0  0  0  0  0  0  0
    0.3875   -1.3292    0.0000 C   0  0  0  0  0  0  0  0  0  0  0  0
    0.3875   -0.5667    0.0000 C   0  0  0  0  0  0  0  0  0  0  0  0
    3.7792   -0.9000    0.0000 C   0  0  0  0  0  0  0  0  0  0  0  0
    2.2375   -0.9000    0.0000 C   0  0  0  0  0  0  0  0  0  0  0  0
    5.6792   -1.3792    0.0000 C   0  0  0  0  0  0  0  0  0  0  0  0
    5.7375   -0.6000    0.0000 C   0  0  0  0  0  0  0  0  0  0  0  0
    4.8375    0.4208    0.0000 O   0  0  0  0  0  0  0  0  0  0  0  0
    4.6542   -2.3000    0.0000 O   0  0  0  0  0  0  0  0  0  0  0  0
    3.4000   -1.5542    0.0000 C   0  0  0  0  0  0  0  0  0  0  0  0
    3.4167   -0.2375    0.0000 C   0  0  0  0  0  0  0  0  0  0  0  0
    2.6167   -1.5542    0.0000 C   0  0  0  0  0  0  0  0  0  0  0  0
    2.6375   -0.2375    0.0000 C   0  0  0  0  0  0  0  0  0  0  0  0
   -0.2125   -1.7167    0.0000 C   0  0  0  0  0  0  0  0  0  0  0  0
   -0.2625   -0.1792    0.0000 C   0  0  0  0  0  0  0  0  0  0  0  0
   -0.9000   -1.3292    0.0000 C   0  0  0  0  0  0  0  0  0  0  0  0
   -0.9000   -0.5875    0.0000 C   0  0  0  0  0  0  0  0  0  0  0  0
  2 10  1  0  0  0  0
  3  2  2  0  0  0  0
  4  2  1  0  0  0  0
  5  1  1  0  0  0  0
  6  1  1  0  0  0  0
  7  3  1  0  0  0  0
  8  4  1  0  0  0  0
  9  1  1  0  0  0  0
 10 18  1  0  0  0  0
 11  5  1  0  0  0  0
 12  6  1  0  0  0  0
 13  6  2  0  0  0  0
 14  5  2  0  0  0  0
 15  9  2  0  0  0  0
 16  9  1  0  0  0  0
 17 15  1  0  0  0  0
 18 16  2  0  0  0  0
 19  7  1  0  0  0  0
 20  8  1  0  0  0  0
 21 19  2  0  0  0  0
 22 20  2  0  0  0  0
 12 11  1  0  0  0  0
 10 17  2  0  0  0  0
  7  8  2  0  0  0  0
 21 22  1  0  0  0  0
M  END
> <IDNUMBER>
F0327-0402

> <Chemical_Name>
1-[4-(1,3-benzothiazol-2-yl)phenyl]pyrrolidine-2,5-dione

> <CAS>
16707-44-1

> <PriceCoeff>
1.00

> <MW>
308.35

> <Description>
solid

> <FSP3>
0.12

> <clogP>
2.19

> <TPSA>
78.51

> <Acceptor>
3

> <Donor>
0

> <RotBonds>
2

> <HAC>
22

> <Collection>
General

$$$$
F1345-0315
  -ISIS-  06222304352D

 32 35  0  0  0  0  0  0  0  0999 V2000
    1.5667   -0.1792    0.0000 N   0  0  3  0  0  0  0  0  0  0  0  0
    0.7792    0.0833    0.0000 C   0  0  0  0  0  0  0  0  0  0  0  0
    2.0417    0.4833    0.0000 C   0  0  0  0  0  0  0  0  0  0  0  0
    0.7792    0.9083    0.0000 C   0  0  0  0  0  0  0  0  0  0  0  0
    1.5667    1.1500    0.0000 C   0  0  0  0  0  0  0  0  0  0  0  0
    1.8292   -0.9750    0.0000 C   0  0  0  0  0  0  0  0  0  0  0  0
    3.6917   -2.0667    0.0000 N   0  0  3  0  0  0  0  0  0  0  0  0
    2.6292   -1.1500    0.0000 C   0  0  3  0  0  0  0  0  0  0  0  0
    2.8917   -1.9167    0.0000 C   0  0  0  0  0  0  0  0  0  0  0  0
    5.3250   -2.3875    0.0000 O   0  0  0  0  0  0  0  0  0  0  0  0
    3.1792   -0.5292    0.0000 O   0  0  0  0  0  0  0  0  0  0  0  0
    2.8500    0.5708    0.0000 C   0  0  0  0  0  0  0  0  0  0  0  0
    0.0542   -0.3417    0.0000 C   0  0  0  0  0  0  0  0  0  0  0  0
    0.0542    1.3083    0.0000 C   0  0  0  0  0  0  0  0  0  0  0  0
    1.9000    1.9083    0.0000 C   0  0  0  0  0  0  0  0  0  0  0  0
    3.9417   -2.8542    0.0000 C   0  0  0  0  0  0  0  0  0  0  0  0
    4.2292   -1.4417    0.0000 C   0  0  0  0  0  0  0  0  0  0  0  0
    4.7542   -3.0167    0.0000 C   0  0  0  0  0  0  0  0  0  0  0  0
    5.0542   -1.6000    0.0000 C   0  0  0  0  0  0  0  0  0  0  0  0
   -0.6583    0.9083    0.0000 C   0  0  0  0  0  0  0  0  0  0  0  0
    2.7167    1.9958    0.0000 C   0  0  0  0  0  0  0  0  0  0  0  0
   -0.6583    0.0833    0.0000 C   0  0  0  0  0  0  0  0  0  0  0  0
    3.2000    1.3083    0.0000 C   0  0  0  0  0  0  0  0  0  0  0  0
    8.6079    0.0801    0.0000 C   0  0  0  0  0  0  0  0  0  0  0  0
    8.3061    0.8524    0.0000 O   0  0  0  0  0  0  0  0  0  0  0  0
    8.0887   -0.5662    0.0000 C   0  0  0  0  0  0  0  0  0  0  0  0
    9.4219   -0.0397    0.0000 O   0  0  0  0  0  0  0  0  0  0  0  0
    7.2678   -0.4401    0.0000 C   0  0  0  0  0  0  0  0  0  0  0  0
    8.3865   -1.3400    0.0000 C   0  0  0  0  0  0  0  0  0  0  0  0
    6.7471   -1.0825    0.0000 C   0  0  0  0  0  0  0  0  0  0  0  0
    7.8635   -1.9878    0.0000 C   0  0  0  0  0  0  0  0  0  0  0  0
    7.0450   -1.8564    0.0000 C   0  0  0  0  0  0  0  0  0  0  0  0
 11  8  1  0  0  0  0
 12  3  1  0  0  0  0
 13  2  1  0  0  0  0
 14  4  1  0  0  0  0
 15  5  1  0  0  0  0
 16  7  1  0  0  0  0
 17  7  1  0  0  0  0
 18 16  1  0  0  0  0
 19 17  1  0  0  0  0
 20 22  1  0  0  0  0
 21 23  1  0  0  0  0
 22 13  2  0  0  0  0
 23 12  2  0  0  0  0
  4  5  1  0  0  0  0
 15 21  2  0  0  0  0
 14 20  2  0  0  0  0
 18 10  1  0  0  0  0
  2  1  1  0  0  0  0
  3  1  1  0  0  0  0
  4  2  2  0  0  0  0
  5  3  2  0  0  0  0
  6  1  1  0  0  0  0
  7  9  1  0  0  0  0
  8  6  1  0  0  0  0
  9  8  1  0  0  0  0
 10 19  1  0  0  0  0
 25 24  2  0  0  0  0
 26 24  1  0  0  0  0
 27 24  1  0  0  0  0
 28 26  2  0  0  0  0
 29 26  1  0  0  0  0
 30 28  1  0  0  0  0
 31 29  2  0  0  0  0
 32 31  1  0  0  0  0
 32 30  2  0  0  0  0
M  END
> <IDNUMBER>
F1345-0315

> <Chemical_Name>
1-(9H-carbazol-9-yl)-3-(morpholin-4-yl)propan-2-ol; benzoic acid

> <CAS>
479542-48-8

> <PriceCoeff>
1.00

> <MW>
310.39

> <Description>
solid

> <FSP3>
0.37

> <clogP>
3.29

> <TPSA>
37.63

> <Acceptor>
2

> <Donor>
2

> <RotBonds>
4

> <HAC>
23

> <Collection>
General

> <Reference_compound>
PRI1826

> <Similarity>
0.8570

$$$$
F1829-0048
  -ISIS-  06222321142D

 30 33  0  0  0  0  0  0  0  0999 V2000
   -1.6083    1.2458    0.0000 C   0  0  0  0  0  0  0  0  0  0  0  0
   -2.2625    1.7250    0.0000 C   0  0  0  0  0  0  0  0  0  0  0  0
   -2.9333    1.2458    0.0000 C   0  0  0  0  0  0  0  0  0  0  0  0
   -2.6750    0.4583    0.0000 C   0  0  0  0  0  0  0  0  0  0  0  0
   -1.8583    0.4583    0.0000 S   0  0  0  0  0  0  0  0  0  0  0  0
    2.8417    2.1833    0.0000 N   0  0  3  0  0  0  0  0  0  0  0  0
   -0.8333    1.2125    0.0000 N   0  0  0  0  0  0  0  0  0  0  0  0
   -0.4625    2.1500    0.0000 C   0  0  0  0  0  0  0  0  0  0  0  0
    3.3000    2.8750    0.0000 C   0  0  0  0  0  0  0  0  0  0  0  0
    3.3667    1.5458    0.0000 C   0  0  0  0  0  0  0  0  0  0  0  0
   -2.2500    2.5500    0.0000 C   0  0  0  0  0  0  0  0  0  0  0  0
    2.0167    2.1750    0.0000 C   0  0  0  0  0  0  0  0  0  0  0  0
   -3.7375    1.4208    0.0000 C   0  0  0  0  0  0  0  0  0  0  0  0
    0.3625    2.1625    0.0000 C   0  0  0  0  0  0  0  0  0  0  0  0
   -3.2333   -0.1500    0.0000 C   0  0  0  0  0  0  0  0  0  0  0  0
   -0.7458    2.8083    0.0000 O   0  0  0  0  0  0  0  0  0  0  0  0
    4.1042    2.6583    0.0000 C   0  0  0  0  0  0  0  0  0  0  0  0
    4.1292    1.8375    0.0000 C   0  0  0  0  0  0  0  0  0  0  0  0
    3.0042    3.6708    0.0000 O   0  0  0  0  0  0  0  0  0  0  0  0
    3.1500    0.7458    0.0000 O   0  0  0  0  0  0  0  0  0  0  0  0
   -1.5333    2.9583    0.0000 O   0  0  0  0  0  0  0  0  0  0  0  0
    1.5917    2.8958    0.0000 C   0  0  0  0  0  0  0  0  0  0  0  0
    1.6042    1.4708    0.0000 C   0  0  0  0  0  0  0  0  0  0  0  0
    0.7875    1.4583    0.0000 C   0  0  0  0  0  0  0  0  0  0  0  0
    0.7750    2.8958    0.0000 C   0  0  0  0  0  0  0  0  0  0  0  0
   -2.9625    2.9708    0.0000 N   0  0  0  0  0  0  0  0  0  0  0  0
   -4.2958    0.8083    0.0000 C   0  0  0  0  0  0  0  0  0  0  0  0
   -4.0333    0.0250    0.0000 C   0  0  3  0  0  0  0  0  0  0  0  0
   -2.9583    3.7958    0.0000 C   0  0  0  0  0  0  0  0  0  0  0  0
   -4.5833   -0.5917    0.0000 C   0  0  0  0  0  0  0  0  0  0  0  0
  2  1  2  0  0  0  0
  3  2  1  0  0  0  0
  4  5  1  0  0  0  0
  5  1  1  0  0  0  0
  6 12  1  0  0  0  0
  7  1  1  0  0  0  0
  8  7  1  0  0  0  0
  9  6  1  0  0  0  0
 10  6  1  0  0  0  0
 11  2  1  0  0  0  0
 12 22  1  0  0  0  0
 13  3  1  0  0  0  0
 14  8  1  0  0  0  0
 15  4  1  0  0  0  0
 16  8  2  0  0  0  0
 17  9  1  0  0  0  0
 18 10  1  0  0  0  0
 19  9  2  0  0  0  0
 20 10  2  0  0  0  0
 21 11  2  0  0  0  0
 22 25  2  0  0  0  0
 23 24  1  0  0  0  0
 24 14  2  0  0  0  0
 25 14  1  0  0  0  0
 26 11  1  0  0  0  0
 27 13  1  0  0  0  0
 28 15  1  0  0  0  0
 29 26  1  0  0  0  0
 30 28  1  0  0  0  0
  3  4  2  0  0  0  0
 28 27  1  0  0  0  0
 12 23  2  0  0  0  0
 18 17  1  0  0  0  0
M  END
> <IDNUMBER>
F1829-0048

> <Chemical_Name>
2-[4-(2,5-dioxopyrrolidin-1-yl)benzamido]-N,6-dimethyl-4,5,6,7-tetrahydro-1-benzothiophene-3-carboxamide

> <CAS>
892978-51-7

> <PriceCoeff>
1.00

> <MW>
425.50

> <Description>
solid

> <FSP3>
0.36

> <clogP>
2.06

> <TPSA>
123.82

> <Acceptor>
4

> <Donor>
2

> <RotBonds>
4

> <HAC>
30

> <Collection>
General

$$$$
F1831-0066
  -ISIS-  06222321452D

 30 33  0  0  0  0  0  0  0  0999 V2000
   -1.8083    1.2458    0.0000 C   0  0  0  0  0  0  0  0  0  0  0  0
   -2.4625    1.7250    0.0000 C   0  0  0  0  0  0  0  0  0  0  0  0
    1.7917    0.7708    0.0000 N   0  0  3  0  0  0  0  0  0  0  0  0
   -2.0583    0.4583    0.0000 S   0  0  0  0  0  0  0  0  0  0  0  0
   -3.1333    1.2458    0.0000 C   0  0  0  0  0  0  0  0  0  0  0  0
   -1.0333    1.2125    0.0000 N   0  0  0  0  0  0  0  0  0  0  0  0
   -2.8708    0.4625    0.0000 C   0  0  0  0  0  0  0  0  0  0  0  0
    1.3792    1.4708    0.0000 C   0  0  0  0  0  0  0  0  0  0  0  0
   -0.6625    2.1500    0.0000 C   0  0  0  0  0  0  0  0  0  0  0  0
    2.6042    0.6583    0.0000 C   0  0  0  0  0  0  0  0  0  0  0  0
    1.4375    0.0458    0.0000 C   0  0  0  0  0  0  0  0  0  0  0  0
   -2.4500    2.5500    0.0000 C   0  0  0  0  0  0  0  0  0  0  0  0
    0.5667    1.4708    0.0000 C   0  0  0  0  0  0  0  0  0  0  0  0
    0.1500    2.1625    0.0000 C   0  0  0  0  0  0  0  0  0  0  0  0
   -0.9458    2.8083    0.0000 O   0  0  0  0  0  0  0  0  0  0  0  0
    2.7542   -0.1375    0.0000 C   0  0  0  0  0  0  0  0  0  0  0  0
    2.0417   -0.5292    0.0000 C   0  0  0  0  0  0  0  0  0  0  0  0
    3.1667    1.2458    0.0000 O   0  0  0  0  0  0  0  0  0  0  0  0
    0.6417   -0.1042    0.0000 O   0  0  0  0  0  0  0  0  0  0  0  0
   -1.7333    2.9583    0.0000 O   0  0  0  0  0  0  0  0  0  0  0  0
   -3.1625    2.9708    0.0000 N   0  0  0  0  0  0  0  0  0  0  0  0
   -3.7458    1.5458    0.0000 C   0  0  0  0  0  0  0  0  0  0  0  0
    1.7792    2.1750    0.0000 C   0  0  0  0  0  0  0  0  0  0  0  0
   -3.2083   -0.1542    0.0000 C   0  0  0  0  0  0  0  0  0  0  0  0
    0.5542    2.8833    0.0000 C   0  0  0  0  0  0  0  0  0  0  0  0
    1.3667    2.8833    0.0000 C   0  0  0  0  0  0  0  0  0  0  0  0
   -3.1583    3.7833    0.0000 C   0  0  0  0  0  0  0  0  0  0  0  0
   -4.4583    1.1750    0.0000 C   0  0  0  0  0  0  0  0  0  0  0  0
   -4.0083   -0.2667    0.0000 C   0  0  0  0  0  0  0  0  0  0  0  0
   -4.5833    0.3458    0.0000 C   0  0  0  0  0  0  0  0  0  0  0  0
  2  1  2  0  0  0  0
  3  8  1  0  0  0  0
  4  1  1  0  0  0  0
  5  2  1  0  0  0  0
  6  1  1  0  0  0  0
  7  4  1  0  0  0  0
  8 13  1  0  0  0  0
  9  6  1  0  0  0  0
 10  3  1  0  0  0  0
 11  3  1  0  0  0  0
 12  2  1  0  0  0  0
 13 14  2  0  0  0  0
 14  9  1  0  0  0  0
 15  9  2  0  0  0  0
 16 10  1  0  0  0  0
 17 11  1  0  0  0  0
 18 10  2  0  0  0  0
 19 11  2  0  0  0  0
 20 12  2  0  0  0  0
 21 12  1  0  0  0  0
 22  5  1  0  0  0  0
 23 26  1  0  0  0  0
 24  7  1  0  0  0  0
 25 14  1  0  0  0  0
 26 25  2  0  0  0  0
 27 21  1  0  0  0  0
 28 22  1  0  0  0  0
 29 24  1  0  0  0  0
 30 29  1  0  0  0  0
  5  7  2  0  0  0  0
 30 28  1  0  0  0  0
  8 23  2  0  0  0  0
 17 16  1  0  0  0  0
M  END
> <IDNUMBER>
F1831-0066

> <Chemical_Name>
2-[3-(2,5-dioxopyrrolidin-1-yl)benzamido]-N-methyl-4H,5H,6H,7H,8H-cyclohepta[b]thiophene-3-carboxamide

> <CAS>
893126-86-8

> <PriceCoeff>
1.00

> <MW>
425.50

> <Description>
solid

> <FSP3>
0.36

> <clogP>
2.10

> <TPSA>
123.82

> <Acceptor>
4

> <Donor>
2

> <RotBonds>
4

> <HAC>
30

> <Collection>
General

$$$$
F0327-0392
  -ISIS-  06222321142D

 30 33  0  0  0  0  0  0  0  0999 V2000
    0.3792   -0.2500    0.0000 C   0  0  0  0  0  0  0  0  0  0  0  0
   -0.0208    0.3500    0.0000 C   0  0  0  0  0  0  0  0  0  0  0  0
    4.4792   -0.8875    0.0000 N   0  0  3  0  0  0  0  0  0  0  0  0
   -0.0833   -0.8500    0.0000 S   0  0  0  0  0  0  0  0  0  0  0  0
   -0.7500    0.1625    0.0000 C   0  0  0  0  0  0  0  0  0  0  0  0
    1.1167   -0.2500    0.0000 N   0  0  0  0  0  0  0  0  0  0  0  0
   -0.7500   -0.5500    0.0000 C   0  0  0  0  0  0  0  0  0  0  0  0
    1.4792   -0.8875    0.0000 C   0  0  0  0  0  0  0  0  0  0  0  0
    4.8375   -1.5292    0.0000 C   0  0  0  0  0  0  0  0  0  0  0  0
    4.9792   -0.3292    0.0000 C   0  0  0  0  0  0  0  0  0  0  0  0
    0.2542    1.0333    0.0000 C   0  0  0  0  0  0  0  0  0  0  0  0
    3.7167   -0.8875    0.0000 C   0  0  0  0  0  0  0  0  0  0  0  0
    2.2375   -0.8875    0.0000 C   0  0  0  0  0  0  0  0  0  0  0  0
    1.1167   -1.5292    0.0000 O   0  0  0  0  0  0  0  0  0  0  0  0
    5.6542   -0.6292    0.0000 C   0  0  0  0  0  0  0  0  0  0  0  0
    5.5542   -1.3667    0.0000 C   0  0  0  0  0  0  0  0  0  0  0  0
    4.8167    0.4333    0.0000 O   0  0  0  0  0  0  0  0  0  0  0  0
    4.5542   -2.2292    0.0000 O   0  0  0  0  0  0  0  0  0  0  0  0
    1.0292    1.2000    0.0000 O   0  0  0  0  0  0  0  0  0  0  0  0
    3.3542   -1.5292    0.0000 C   0  0  0  0  0  0  0  0  0  0  0  0
    3.3542   -0.2500    0.0000 C   0  0  0  0  0  0  0  0  0  0  0  0
    2.6000   -0.2500    0.0000 C   0  0  0  0  0  0  0  0  0  0  0  0
    2.6000   -1.5292    0.0000 C   0  0  0  0  0  0  0  0  0  0  0  0
   -0.2208    1.5333    0.0000 O   0  0  0  0  0  0  0  0  0  0  0  0
   -1.4000    0.5500    0.0000 C   0  0  0  0  0  0  0  0  0  0  0  0
   -1.4333   -0.9375    0.0000 C   0  0  0  0  0  0  0  0  0  0  0  0
   -0.9458    1.3625    0.0000 C   0  0  0  0  0  0  0  0  0  0  0  0
   -2.0500    0.1958    0.0000 C   0  0  0  0  0  0  0  0  0  0  0  0
   -2.0458   -0.5875    0.0000 C   0  0  0  0  0  0  0  0  0  0  0  0
   -1.4625    1.9000    0.0000 C   0  0  0  0  0  0  0  0  0  0  0  0
  2  1  2  0  0  0  0
  3 12  1  0  0  0  0
  4  1  1  0  0  0  0
  5  2  1  0  0  0  0
  6  1  1  0  0  0  0
  7  4  1  0  0  0  0
  8  6  1  0  0  0  0
  9  3  1  0  0  0  0
 10  3  1  0  0  0  0
 11  2  1  0  0  0  0
 12 20  2  0  0  0  0
 13  8  1  0  0  0  0
 14  8  2  0  0  0  0
 15 10  1  0  0  0  0
 16  9  1  0  0  0  0
 17 10  2  0  0  0  0
 18  9  2  0  0  0  0
 19 11  2  0  0  0  0
 20 23  1  0  0  0  0
 21 22  2  0  0  0  0
 22 13  1  0  0  0  0
 23 13  2  0  0  0  0
 24 11  1  0  0  0  0
 25  5  1  0  0  0  0
 26  7  1  0  0  0  0
 27 24  1  0  0  0  0
 28 25  1  0  0  0  0
 29 26  1  0  0  0  0
 30 27  1  0  0  0  0
  5  7  2  0  0  0  0
 28 29  1  0  0  0  0
 21 12  1  0  0  0  0
 15 16  1  0  0  0  0
M  END
> <IDNUMBER>
F0327-0392

> <Chemical_Name>
ethyl 2-[4-(2,5-dioxopyrrolidin-1-yl)benzamido]-4,5,6,7-tetrahydro-1-benzothiophene-3-carboxylate

> <CAS>
313405-98-0

> <PriceCoeff>
1.00

> <MW>
426.49

> <Description>
solid

> <FSP3>
0.36

> <clogP>
3.06

> <TPSA>
121.02

> <Acceptor>
5

> <Donor>
1

> <RotBonds>
6

> <HAC>
30

> <Collection>
General

$$$$
F2019-0733
  -ISIS-  06222304352D

 28 29  0  0  0  0  0  0  0  0999 V2000
   -3.1583    2.9833    0.0000 C   0  0  0  0  0  0  0  0  0  0  0  0
   -0.2958    2.9833    0.0000 N   0  0  3  0  0  0  0  0  0  0  0  0
   -3.9125    2.6458    0.0000 N   0  0  0  0  0  0  0  0  0  0  0  0
   -2.4375    2.5625    0.0000 N   0  0  3  0  0  0  0  0  0  0  0  0
   -3.2458    3.8083    0.0000 S   0  0  0  0  0  0  0  0  0  0  0  0
   -1.7250    2.9833    0.0000 C   0  0  0  0  0  0  0  0  0  0  0  0
   -1.0125    2.5625    0.0000 C   0  0  0  0  0  0  0  0  0  0  0  0
   -0.2125    3.8000    0.0000 C   0  0  0  0  0  0  0  0  0  0  0  0
    0.4542    2.6458    0.0000 C   0  0  0  0  0  0  0  0  0  0  0  0
   -4.0583    3.9708    0.0000 C   0  0  0  0  0  0  0  0  0  0  0  0
   -4.4708    3.2583    0.0000 C   0  0  0  0  0  0  0  0  0  0  0  0
   -4.4708    4.6667    0.0000 C   0  0  0  0  0  0  0  0  0  0  0  0
   -1.7250    3.8000    0.0000 O   0  0  0  0  0  0  0  0  0  0  0  0
    0.5917    3.9708    0.0000 C   0  0  0  0  0  0  0  0  0  0  0  0
    1.0125    3.2583    0.0000 C   0  0  0  0  0  0  0  0  0  0  0  0
   -0.8125    4.3417    0.0000 O   0  0  0  0  0  0  0  0  0  0  0  0
    0.6292    1.8333    0.0000 O   0  0  0  0  0  0  0  0  0  0  0  0
   -5.2833    3.2458    0.0000 C   0  0  0  0  0  0  0  0  0  0  0  0
   -5.2958    4.6667    0.0000 C   0  0  0  0  0  0  0  0  0  0  0  0
   -2.4375    1.7375    0.0000 C   0  0  0  0  0  0  0  0  0  0  0  0
   -3.1583    1.3250    0.0000 C   0  0  0  0  0  0  0  0  0  0  0  0
   -3.8708    0.0875    0.0000 N   0  0  3  0  0  0  0  0  0  0  0  0
   -5.6958    3.9583    0.0000 C   0  0  0  0  0  0  0  0  0  0  0  0
   -5.7208    5.3917    0.0000 Br  0  0  0  0  0  0  0  0  0  0  0  0
   -3.1583    0.5000    0.0000 C   0  0  0  0  0  0  0  0  0  0  0  0
   -4.5833    0.5000    0.0000 C   0  0  0  0  0  0  0  0  0  0  0  0
   -3.8708   -0.7375    0.0000 C   0  0  0  0  0  0  0  0  0  0  0  0
    2.4000    2.4792    0.0000 Cl  0  0  0  0  0  0  0  0  0  0  0  0
  3  1  2  0  0  0  0
  4  1  1  0  0  0  0
  5  1  1  0  0  0  0
  6  4  1  0  0  0  0
  7  6  1  0  0  0  0
  8  2  1  0  0  0  0
  9  2  1  0  0  0  0
 10  5  1  0  0  0  0
 11  3  1  0  0  0  0
 12 10  1  0  0  0  0
 13  6  2  0  0  0  0
 14  8  1  0  0  0  0
 15  9  1  0  0  0  0
 16  8  2  0  0  0  0
 17  9  2  0  0  0  0
 18 11  1  0  0  0  0
 19 12  2  0  0  0  0
 20  4  1  0  0  0  0
 21 20  1  0  0  0  0
 22 25  1  0  0  0  0
 23 18  2  0  0  0  0
 24 19  1  0  0  0  0
 25 21  1  0  0  0  0
 26 22  1  0  0  0  0
 27 22  1  0  0  0  0
 10 11  2  0  0  0  0
 23 19  1  0  0  0  0
 14 15  1  0  0  0  0
  2  7  1  0  0  0  0
M  END
> <IDNUMBER>
F2019-0733

> <Chemical_Name>
N-(6-bromo-1,3-benzothiazol-2-yl)-N-[3-(dimethylamino)propyl]-2-(2,5-dioxopyrrolidin-1-yl)acetamide hydrochloride

> <CAS>
1217174-40-7

> <PriceCoeff>
1.00

> <MW>
453.35

> <Description>
solid

> <FSP3>
0.44

> <clogP>
2.44

> <TPSA>
102.06

> <Acceptor>
4

> <Donor>
1

> <RotBonds>
8

> <HAC>
27

> <Collection>
General

$$$$
F2167-9997
  -ISIS-  06222304352D

 21 20  0  0  0  0  0  0  0  0999 V2000
   -2.4875    2.3292    0.0000 O   0  0  0  0  0  0  0  0  0  0  0  0
   -3.0542    1.9917    0.0000 C   0  0  0  0  0  0  0  0  0  0  0  0
   -1.9250    2.0042    0.0000 C   0  0  0  0  0  0  0  0  0  0  0  0
   -4.1917    1.3458    0.0000 C   0  0  0  0  0  0  0  0  0  0  0  0
   -0.7875    1.3542    0.0000 C   0  0  0  0  0  0  0  0  0  0  0  0
   -3.0542    1.3458    0.0000 C   0  0  0  0  0  0  0  0  0  0  0  0
   -1.3625    2.3292    0.0000 C   0  0  0  0  0  0  0  0  0  0  0  0
   -3.6292    2.3208    0.0000 C   0  0  0  0  0  0  0  0  0  0  0  0
   -1.9250    1.3500    0.0000 C   0  0  0  0  0  0  0  0  0  0  0  0
   -5.8917    1.0208    0.0000 N   0  0  0  0  0  0  0  0  0  0  0  0
    0.9083    1.0375    0.0000 N   0  0  0  0  0  0  0  0  0  0  0  0
   -1.3583    1.0250    0.0000 C   0  0  0  0  0  0  0  0  0  0  0  0
   -4.1917    1.9917    0.0000 C   0  0  0  0  0  0  0  0  0  0  0  0
   -0.7958    2.0208    0.0000 C   0  0  0  0  0  0  0  0  0  0  0  0
   -3.6292    1.0208    0.0000 C   0  0  0  0  0  0  0  0  0  0  0  0
    0.3458    1.3625    0.0000 C   0  0  0  0  0  0  0  0  0  0  0  0
   -5.3292    1.3458    0.0000 C   0  0  0  0  0  0  0  0  0  0  0  0
   -4.7500    1.0208    0.0000 C   0  0  0  0  0  0  0  0  0  0  0  0
   -0.2250    1.0375    0.0000 C   0  0  0  0  0  0  0  0  0  0  0  0
    2.3959    0.9084    0.0000 Cl  0  0  0  0  0  0  0  0  0  0  0  0
    2.3959    2.4417    0.0000 Cl  0  0  0  0  0  0  0  0  0  0  0  0
  4 13  2  0  0  0  0
  5 12  2  0  0  0  0
  6  2  1  0  0  0  0
  7  3  1  0  0  0  0
  8  2  2  0  0  0  0
  9  3  2  0  0  0  0
 10 17  1  0  0  0  0
 11 16  1  0  0  0  0
 12  9  1  0  0  0  0
 13  8  1  0  0  0  0
 14  7  2  0  0  0  0
 15  6  2  0  0  0  0
 16 19  1  0  0  0  0
 17 18  1  0  0  0  0
 18  4  1  0  0  0  0
 19  5  1  0  0  0  0
 14  5  1  0  0  0  0
 15  4  1  0  0  0  0
  2  1  1  0  0  0  0
  3  1  1  0  0  0  0
M  END
> <IDNUMBER>
F2167-9997

> <Chemical_Name>
2-{4-[4-(2-aminoethyl)phenoxy]phenyl}ethan-1-amine dihydrochloride

> <CAS>
107418-22-4

> <PriceCoeff>
1.00

> <MW>
256.34

> <Description>
solid

> <FSP3>
0.25

> <clogP>
2.82

> <TPSA>
61.27

> <Acceptor>
1

> <Donor>
2

> <RotBonds>
6

> <HAC>
19

> <Collection>
General

> <Reference_compound>
CHEMBL1255790

> <Similarity>
0.8290

$$$$
F0327-0320
  -ISIS-  06222321452D

 26 29  0  0  0  0  0  0  0  0999 V2000
    2.7375   -1.2042    0.0000 N   0  0  3  0  0  0  0  0  0  0  0  0
   -2.8208    0.0125    0.0000 N   0  0  0  0  0  0  0  0  0  0  0  0
   -2.8208    1.1333    0.0000 S   0  0  0  0  0  0  0  0  0  0  0  0
   -2.1458    0.2125    0.0000 C   0  0  0  0  0  0  0  0  0  0  0  0
   -3.2208    0.5500    0.0000 C   0  0  0  0  0  0  0  0  0  0  0  0
    3.4000   -0.9667    0.0000 C   0  0  0  0  0  0  0  0  0  0  0  0
    2.7292   -1.9167    0.0000 C   0  0  0  0  0  0  0  0  0  0  0  0
    0.3167    0.2125    0.0000 C   0  0  0  0  0  0  0  0  0  0  0  0
   -2.1458    0.9333    0.0000 C   0  0  0  0  0  0  0  0  0  0  0  0
   -0.3000   -0.1500    0.0000 N   0  0  0  0  0  0  0  0  0  0  0  0
    2.1667   -0.8500    0.0000 C   0  0  0  0  0  0  0  0  0  0  0  0
   -1.5458   -0.1500    0.0000 C   0  0  0  0  0  0  0  0  0  0  0  0
    0.9167   -0.1500    0.0000 C   0  0  0  0  0  0  0  0  0  0  0  0
   -0.9208    0.2125    0.0000 C   0  0  0  0  0  0  0  0  0  0  0  0
    3.8167   -1.5292    0.0000 C   0  0  0  0  0  0  0  0  0  0  0  0
    3.4375   -2.1042    0.0000 C   0  0  0  0  0  0  0  0  0  0  0  0
    0.3167    0.9125    0.0000 O   0  0  0  0  0  0  0  0  0  0  0  0
    3.6000   -0.2875    0.0000 O   0  0  0  0  0  0  0  0  0  0  0  0
    2.1917   -2.3500    0.0000 O   0  0  0  0  0  0  0  0  0  0  0  0
   -1.5458    1.2708    0.0000 C   0  0  0  0  0  0  0  0  0  0  0  0
    1.5167   -1.1875    0.0000 C   0  0  0  0  0  0  0  0  0  0  0  0
    2.1792   -0.1542    0.0000 C   0  0  0  0  0  0  0  0  0  0  0  0
    0.9167   -0.8292    0.0000 C   0  0  0  0  0  0  0  0  0  0  0  0
    1.5375    0.2125    0.0000 C   0  0  0  0  0  0  0  0  0  0  0  0
   -0.9208    0.9333    0.0000 C   0  0  0  0  0  0  0  0  0  0  0  0
   -3.9000    0.5500    0.0000 C   0  0  0  0  0  0  0  0  0  0  0  0
  2  4  1  0  0  0  0
  3  9  1  0  0  0  0
  4 12  1  0  0  0  0
  5  2  2  0  0  0  0
  6  1  1  0  0  0  0
  7  1  1  0  0  0  0
  8 13  1  0  0  0  0
  9 20  1  0  0  0  0
 10  8  1  0  0  0  0
 11  1  1  0  0  0  0
 12 14  2  0  0  0  0
 13 24  1  0  0  0  0
 14 10  1  0  0  0  0
 15  6  1  0  0  0  0
 16  7  1  0  0  0  0
 17  8  2  0  0  0  0
 18  6  2  0  0  0  0
 19  7  2  0  0  0  0
 20 25  2  0  0  0  0
 21 11  2  0  0  0  0
 22 11  1  0  0  0  0
 23 21  1  0  0  0  0
 24 22  2  0  0  0  0
 25 14  1  0  0  0  0
 26  5  1  0  0  0  0
 16 15  1  0  0  0  0
 23 13  2  0  0  0  0
  9  4  2  0  0  0  0
  5  3  1  0  0  0  0
M  END
> <IDNUMBER>
F0327-0320

> <Chemical_Name>
4-(2,5-dioxopyrrolidin-1-yl)-N-(2-methyl-1,3-benzothiazol-5-yl)benzamide

> <CAS>
476281-71-7

> <PriceCoeff>
1.00

> <MW>
365.41

> <Description>
solid

> <FSP3>
0.16

> <clogP>
1.90

> <TPSA>
107.61

> <Acceptor>
4

> <Donor>
1

> <RotBonds>
3

> <HAC>
26

> <Collection>
General

$$$$
F0327-0319
  -ISIS-  06222321442D

 26 29  0  0  0  0  0  0  0  0999 V2000
    0.2167   -2.2792    0.0000 N   0  0  3  0  0  0  0  0  0  0  0  0
   -1.6208    1.0833    0.0000 N   0  0  0  0  0  0  0  0  0  0  0  0
   -1.0208    2.1000    0.0000 S   0  0  0  0  0  0  0  0  0  0  0  0
   -1.6833    1.8000    0.0000 C   0  0  0  0  0  0  0  0  0  0  0  0
   -0.5208   -2.3375    0.0000 C   0  0  0  0  0  0  0  0  0  0  0  0
    0.4792   -2.9542    0.0000 C   0  0  0  0  0  0  0  0  0  0  0  0
   -0.5458    1.5625    0.0000 C   0  0  0  0  0  0  0  0  0  0  0  0
    1.6792    0.2833    0.0000 C   0  0  0  0  0  0  0  0  0  0  0  0
   -0.9000    0.9208    0.0000 C   0  0  0  0  0  0  0  0  0  0  0  0
    1.3167    0.9208    0.0000 N   0  0  0  0  0  0  0  0  0  0  0  0
    0.5792   -1.6375    0.0000 C   0  0  0  0  0  0  0  0  0  0  0  0
    0.2000    1.5625    0.0000 C   0  0  0  0  0  0  0  0  0  0  0  0
    1.3167   -0.3542    0.0000 C   0  0  0  0  0  0  0  0  0  0  0  0
    0.5792    0.9208    0.0000 C   0  0  0  0  0  0  0  0  0  0  0  0
   -0.0833   -3.4167    0.0000 C   0  0  0  0  0  0  0  0  0  0  0  0
   -0.7000   -3.0375    0.0000 C   0  0  0  0  0  0  0  0  0  0  0  0
    2.4167    0.2833    0.0000 O   0  0  0  0  0  0  0  0  0  0  0  0
    1.2000   -3.1167    0.0000 O   0  0  0  0  0  0  0  0  0  0  0  0
   -1.0000   -1.7542    0.0000 O   0  0  0  0  0  0  0  0  0  0  0  0
   -0.5458    0.2833    0.0000 C   0  0  0  0  0  0  0  0  0  0  0  0
    1.3167   -1.6375    0.0000 C   0  0  0  0  0  0  0  0  0  0  0  0
    0.2167   -1.0000    0.0000 C   0  0  0  0  0  0  0  0  0  0  0  0
    1.6792   -1.0000    0.0000 C   0  0  0  0  0  0  0  0  0  0  0  0
    0.5792   -0.3542    0.0000 C   0  0  0  0  0  0  0  0  0  0  0  0
    0.2000    0.2833    0.0000 C   0  0  0  0  0  0  0  0  0  0  0  0
   -2.3458    2.1833    0.0000 C   0  0  0  0  0  0  0  0  0  0  0  0
  2  9  1  0  0  0  0
  3  7  1  0  0  0  0
  4  3  1  0  0  0  0
  5  1  1  0  0  0  0
  6  1  1  0  0  0  0
  7 12  1  0  0  0  0
  8 13  1  0  0  0  0
  9 20  1  0  0  0  0
 10  8  1  0  0  0  0
 11  1  1  0  0  0  0
 12 14  2  0  0  0  0
 13 24  2  0  0  0  0
 14 10  1  0  0  0  0
 15  6  1  0  0  0  0
 16  5  1  0  0  0  0
 17  8  2  0  0  0  0
 18  6  2  0  0  0  0
 19  5  2  0  0  0  0
 20 25  2  0  0  0  0
 21 11  1  0  0  0  0
 22 11  2  0  0  0  0
 23 21  2  0  0  0  0
 24 22  1  0  0  0  0
 25 14  1  0  0  0  0
 26  4  1  0  0  0  0
 15 16  1  0  0  0  0
 13 23  1  0  0  0  0
  9  7  2  0  0  0  0
  2  4  2  0  0  0  0
M  END
> <IDNUMBER>
F0327-0319

> <Chemical_Name>
4-(2,5-dioxopyrrolidin-1-yl)-N-(2-methyl-1,3-benzothiazol-6-yl)benzamide

> <CAS>
330200-78-7

> <PriceCoeff>
1.00

> <MW>
365.41

> <Description>
solid

> <FSP3>
0.16

> <clogP>
1.90

> <TPSA>
107.61

> <Acceptor>
4

> <Donor>
1

> <RotBonds>
3

> <HAC>
26

> <Collection>
General

$$$$
F3350-0625
  -ISIS-  06222321152D

 26 28  0  0  0  0  0  0  0  0999 V2000
    4.3042    0.9583    0.0000 S   0  0  3  0  0  0  0  0  0  0  0  0
    7.1667    2.6000    0.0000 N   0  0  3  0  0  0  0  0  0  0  0  0
    7.9250    2.2708    0.0000 C   0  0  0  0  0  0  0  0  0  0  0  0
    7.2542    3.4208    0.0000 C   0  0  0  0  0  0  0  0  0  0  0  0
    3.5917    0.5458    0.0000 N   0  0  0  0  0  0  0  0  0  0  0  0
    5.0250    1.3708    0.0000 C   0  0  0  0  0  0  0  0  0  0  0  0
    6.4500    2.1958    0.0000 C   0  0  0  0  0  0  0  0  0  0  0  0
    3.9042    1.6708    0.0000 O   0  0  0  0  0  0  0  0  0  0  0  0
    4.7292    0.2375    0.0000 O   0  0  0  0  0  0  0  0  0  0  0  0
    2.1667   -1.1167    0.0000 C   0  0  0  0  0  0  0  0  0  0  0  0
    2.1667   -1.9417    0.0000 C   0  0  0  0  0  0  0  0  0  0  0  0
    2.8792    0.1250    0.0000 C   0  0  0  0  0  0  0  0  0  0  0  0
    8.0667    3.5958    0.0000 C   0  0  0  0  0  0  0  0  0  0  0  0
    8.4792    2.8750    0.0000 C   0  0  0  0  0  0  0  0  0  0  0  0
    2.8792   -0.7042    0.0000 C   0  0  0  0  0  0  0  0  0  0  0  0
    8.0917    1.4583    0.0000 O   0  0  0  0  0  0  0  0  0  0  0  0
    6.6500    3.9833    0.0000 O   0  0  0  0  0  0  0  0  0  0  0  0
    5.7375    0.9583    0.0000 C   0  0  0  0  0  0  0  0  0  0  0  0
    5.0250    2.1875    0.0000 C   0  0  0  0  0  0  0  0  0  0  0  0
    6.4542    1.3708    0.0000 C   0  0  0  0  0  0  0  0  0  0  0  0
    5.7417    2.6000    0.0000 C   0  0  0  0  0  0  0  0  0  0  0  0
    1.4542   -2.3542    0.0000 O   0  0  0  0  0  0  0  0  0  0  0  0
    1.4542   -0.7042    0.0000 C   0  0  0  0  0  0  0  0  0  0  0  0
    1.4542    0.1250    0.0000 C   0  0  0  0  0  0  0  0  0  0  0  0
    2.1667    0.5375    0.0000 C   0  0  0  0  0  0  0  0  0  0  0  0
    2.8792   -2.3542    0.0000 C   0  0  0  0  0  0  0  0  0  0  0  0
  2  7  1  0  0  0  0
  3  2  1  0  0  0  0
  4  2  1  0  0  0  0
  5  1  1  0  0  0  0
  6  1  1  0  0  0  0
  7 21  1  0  0  0  0
  8  1  2  0  0  0  0
  9  1  2  0  0  0  0
 10 15  2  0  0  0  0
 11 10  1  0  0  0  0
 12  5  1  0  0  0  0
 13  4  1  0  0  0  0
 14  3  1  0  0  0  0
 15 12  1  0  0  0  0
 16  3  2  0  0  0  0
 17  4  2  0  0  0  0
 18  6  2  0  0  0  0
 19  6  1  0  0  0  0
 20 18  1  0  0  0  0
 21 19  2  0  0  0  0
 22 11  2  0  0  0  0
 23 24  2  0  0  0  0
 24 25  1  0  0  0  0
 25 12  2  0  0  0  0
 26 11  1  0  0  0  0
  7 20  2  0  0  0  0
 23 10  1  0  0  0  0
 13 14  1  0  0  0  0
M  END
> <IDNUMBER>
F3350-0625

> <Chemical_Name>
N-(3-acetylphenyl)-4-(2,5-dioxopyrrolidin-1-yl)benzene-1-sulfonamide

> <CAS>
919693-07-5

> <PriceCoeff>
1.00

> <MW>
372.40

> <Description>
solid

> <FSP3>
0.17

> <clogP>
0.55

> <TPSA>
109.00

> <Acceptor>
6

> <Donor>
1

> <RotBonds>
5

> <HAC>
26

> <Collection>
General

$$$$
F1864-0084
  -ISIS-  06222321442D

 22 24  0  0  0  0  0  0  0  0999 V2000
    5.2292   -2.6250    0.0000 C   0  0  0  0  0  0  0  0  0  0  0  0
    4.5167   -1.3875    0.0000 C   0  0  0  0  0  0  0  0  0  0  0  0
    4.5167   -2.2125    0.0000 C   0  0  0  0  0  0  0  0  0  0  0  0
    5.9500   -3.8625    0.0000 N   0  0  3  0  0  0  0  0  0  0  0  0
    5.2292   -0.9750    0.0000 O   0  0  0  0  0  0  0  0  0  0  0  0
    5.9500   -1.3875    0.0000 C   0  0  0  0  0  0  0  0  0  0  0  0
    5.9500   -2.2125    0.0000 C   0  0  0  0  0  0  0  0  0  0  0  0
    3.8042   -0.9750    0.0000 C   0  0  0  0  0  0  0  0  0  0  0  0
    3.8042   -2.6250    0.0000 C   0  0  0  0  0  0  0  0  0  0  0  0
    5.2375   -3.4500    0.0000 C   0  0  0  0  0  0  0  0  0  0  0  0
    3.0917   -2.2125    0.0000 C   0  0  0  0  0  0  0  0  0  0  0  0
    3.0917   -1.3917    0.0000 C   0  0  0  0  0  0  0  0  0  0  0  0
    7.3792   -4.6792    0.0000 O   0  0  0  0  0  0  0  0  0  0  0  0
    6.6667   -0.9667    0.0000 O   0  0  0  0  0  0  0  0  0  0  0  0
    5.9500   -4.6875    0.0000 C   0  0  0  0  0  0  0  0  0  0  0  0
    6.6542   -3.4500    0.0000 C   0  0  0  0  0  0  0  0  0  0  0  0
    7.3792   -3.8542    0.0000 C   0  0  3  0  0  0  0  0  0  0  0  0
    6.6750   -5.1000    0.0000 C   0  0  3  0  0  0  0  0  0  0  0  0
    2.3792   -2.6250    0.0000 Cl  0  0  0  0  0  0  0  0  0  0  0  0
    2.3750   -0.9792    0.0000 O   0  0  0  0  0  0  0  0  0  0  0  0
    6.6792   -5.9167    0.0000 C   0  0  0  0  0  0  0  0  0  0  0  0
    8.0875   -3.4417    0.0000 C   0  0  0  0  0  0  0  0  0  0  0  0
  2  3  2  0  0  0  0
  3  1  1  0  0  0  0
  4 10  1  0  0  0  0
  5  6  1  0  0  0  0
  6  7  1  0  0  0  0
  7  1  2  0  0  0  0
  8  2  1  0  0  0  0
  9  3  1  0  0  0  0
 10  1  1  0  0  0  0
 11  9  2  0  0  0  0
 12 11  1  0  0  0  0
 13 17  1  0  0  0  0
 14  6  2  0  0  0  0
 15  4  1  0  0  0  0
 16  4  1  0  0  0  0
 17 16  1  0  0  0  0
 18 15  1  0  0  0  0
 19 11  1  0  0  0  0
 20 12  1  0  0  0  0
 21 18  1  0  0  0  0
 22 17  1  0  0  0  0
  2  5  1  0  0  0  0
 18 13  1  0  0  0  0
  8 12  2  0  0  0  0
M  END
> <IDNUMBER>
F1864-0084

> <Chemical_Name>
6-chloro-4-[(2,6-dimethylmorpholin-4-yl)methyl]-7-hydroxy-2H-chromen-2-one

> <CAS>
887210-02-8

> <PriceCoeff>
1.00

> <MW>
323.77

> <Description>
solid

> <FSP3>
0.44

> <clogP>
2.83

> <TPSA>
59.00

> <Acceptor>
4

> <Donor>
2

> <RotBonds>
2

> <HAC>
22

> <Collection>
General

$$$$
F6233-0526
  -ISIS-  06222321462D

 27 29  0  0  0  0  0  0  0  0999 V2000
   -3.1333    7.5042    0.0000 N   0  0  3  0  0  0  0  0  0  0  0  0
   -2.4750    8.0083    0.0000 C   0  0  0  0  0  0  0  0  0  0  0  0
   -3.8083    7.9667    0.0000 N   0  0  0  0  0  0  0  0  0  0  0  0
   -2.7583    8.7792    0.0000 N   0  0  3  0  0  0  0  0  0  0  0  0
   -3.5833    8.7542    0.0000 N   0  0  0  0  0  0  0  0  0  0  0  0
   -3.8708    3.8000    0.0000 C   0  0  0  0  0  0  0  0  0  0  0  0
   -3.1333    6.6875    0.0000 C   0  0  0  0  0  0  0  0  0  0  0  0
   -1.6833    7.7917    0.0000 O   0  0  0  0  0  0  0  0  0  0  0  0
   -4.6458    4.1083    0.0000 N   0  0  0  0  0  0  0  0  0  0  0  0
   -3.1583    4.2042    0.0000 N   0  0  0  0  0  0  0  0  0  0  0  0
   -3.9583    3.1333    0.0000 O   0  0  0  0  0  0  0  0  0  0  0  0
   -4.7583    4.9417    0.0000 C   0  0  0  0  0  0  0  0  0  0  0  0
   -2.2958    9.4667    0.0000 C   0  0  0  0  0  0  0  0  0  0  0  0
   -4.0958    5.4542    0.0000 C   0  0  0  0  0  0  0  0  0  0  0  0
   -3.8583    6.2792    0.0000 C   0  0  0  0  0  0  0  0  0  0  0  0
   -2.4333    6.2667    0.0000 C   0  0  0  0  0  0  0  0  0  0  0  0
   -3.1583    5.0417    0.0000 C   0  0  0  0  0  0  0  0  0  0  0  0
   -4.2208    6.2792    0.0000 C   0  0  0  0  0  0  0  0  0  0  0  0
   -2.4458    5.4417    0.0000 C   0  0  0  0  0  0  0  0  0  0  0  0
   -3.8583    5.4542    0.0000 C   0  0  0  0  0  0  0  0  0  0  0  0
   -3.5625    6.8000    0.0000 Cl  0  0  0  0  0  0  0  0  0  0  0  0
   -1.0208   10.1042    0.0000 O   0  0  0  0  0  0  0  0  0  0  0  0
   -5.6583    6.0917    0.0000 C   0  0  0  0  0  0  0  0  0  0  0  0
   -5.5458    5.2625    0.0000 C   0  0  0  0  0  0  0  0  0  0  0  0
   -1.4750    9.4167    0.0000 C   0  0  0  0  0  0  0  0  0  0  0  0
   -5.0000    6.5958    0.0000 C   0  0  0  0  0  0  0  0  0  0  0  0
   -0.2000   10.0500    0.0000 C   0  0  0  0  0  0  0  0  0  0  0  0
  2  1  1  0  0  0  0
  3  1  1  0  0  0  0
  4  2  1  0  0  0  0
  5  3  2  0  0  0  0
  6 10  1  0  0  0  0
  7  1  1  0  0  0  0
  8  2  2  0  0  0  0
  9  6  1  0  0  0  0
 10 17  1  0  0  0  0
 11  6  2  0  0  0  0
 12  9  1  0  0  0  0
 13  4  1  0  0  0  0
 14 12  2  0  0  0  0
 15  7  2  0  0  0  0
 16  7  1  0  0  0  0
 17 19  1  0  0  0  0
 18 14  1  0  0  0  0
 19 16  2  0  0  0  0
 20 15  1  0  0  0  0
 21 18  1  0  0  0  0
 22 25  1  0  0  0  0
 23 24  2  0  0  0  0
 24 12  1  0  0  0  0
 25 13  1  0  0  0  0
 26 23  1  0  0  0  0
 27 22  1  0  0  0  0
  4  5  1  0  0  0  0
 20 17  2  0  0  0  0
 26 18  2  0  0  0  0
M  END
> <IDNUMBER>
F6233-0526

> <Chemical_Name>
1-(3-chlorophenyl)-3-{4-[4-(2-methoxyethyl)-5-oxo-4,5-dihydro-1H-1,2,3,4-tetrazol-1-yl]phenyl}urea

> <CAS>
1396864-49-5

> <PriceCoeff>
1.00

> <MW>
388.81

> <Description>
solid

> <FSP3>
0.18

> <clogP>
3.83

> <TPSA>
98.63

> <Acceptor>
3

> <Donor>
2

> <RotBonds>
6

> <HAC>
27

> <Collection>
General

> <Reference_compound>
CHEMBL225708

> <Similarity>
0.8370

$$$$
F6233-0549
  -ISIS-  06222321462D

 28 30  0  0  0  0  0  0  0  0999 V2000
   -3.1333    7.5042    0.0000 N   0  0  3  0  0  0  0  0  0  0  0  0
   -2.4750    8.0083    0.0000 C   0  0  0  0  0  0  0  0  0  0  0  0
   -3.8083    7.9667    0.0000 N   0  0  0  0  0  0  0  0  0  0  0  0
   -2.7583    8.7792    0.0000 N   0  0  3  0  0  0  0  0  0  0  0  0
   -3.5833    8.7542    0.0000 N   0  0  0  0  0  0  0  0  0  0  0  0
   -3.8708    3.8000    0.0000 C   0  0  0  0  0  0  0  0  0  0  0  0
   -3.1333    6.6875    0.0000 C   0  0  0  0  0  0  0  0  0  0  0  0
   -1.6833    7.7917    0.0000 O   0  0  0  0  0  0  0  0  0  0  0  0
   -3.1583    4.2042    0.0000 N   0  0  0  0  0  0  0  0  0  0  0  0
   -3.8333    2.9792    0.0000 N   0  0  0  0  0  0  0  0  0  0  0  0
   -4.5375    4.2167    0.0000 O   0  0  0  0  0  0  0  0  0  0  0  0
   -2.2958    9.4667    0.0000 C   0  0  0  0  0  0  0  0  0  0  0  0
   -3.8583    6.2792    0.0000 C   0  0  0  0  0  0  0  0  0  0  0  0
   -2.4333    6.2667    0.0000 C   0  0  0  0  0  0  0  0  0  0  0  0
   -3.1583    5.0417    0.0000 C   0  0  0  0  0  0  0  0  0  0  0  0
   -3.8000    2.1583    0.0000 C   0  0  0  0  0  0  0  0  0  0  0  0
   -1.6000    1.0083    0.0000 C   0  0  0  0  0  0  0  0  0  0  0  0
   -3.0708    1.7833    0.0000 C   0  0  0  0  0  0  0  0  0  0  0  0
   -2.4458    5.4417    0.0000 C   0  0  0  0  0  0  0  0  0  0  0  0
   -3.8583    5.4542    0.0000 C   0  0  0  0  0  0  0  0  0  0  0  0
   -0.8833    0.6208    0.0000 Cl  0  0  0  0  0  0  0  0  0  0  0  0
   -2.3000    0.5625    0.0000 C   0  0  0  0  0  0  0  0  0  0  0  0
   -1.6375    1.8250    0.0000 C   0  0  0  0  0  0  0  0  0  0  0  0
   -3.0333    0.9458    0.0000 C   0  0  0  0  0  0  0  0  0  0  0  0
   -2.3708    2.2250    0.0000 C   0  0  0  0  0  0  0  0  0  0  0  0
   -1.0208   10.1042    0.0000 O   0  0  0  0  0  0  0  0  0  0  0  0
   -1.4750    9.4167    0.0000 C   0  0  0  0  0  0  0  0  0  0  0  0
   -0.2000   10.0500    0.0000 C   0  0  0  0  0  0  0  0  0  0  0  0
  2  1  1  0  0  0  0
  3  1  1  0  0  0  0
  4  2  1  0  0  0  0
  5  3  2  0  0  0  0
  6  9  1  0  0  0  0
  7  1  1  0  0  0  0
  8  2  2  0  0  0  0
  9 15  1  0  0  0  0
 10  6  1  0  0  0  0
 11  6  2  0  0  0  0
 12  4  1  0  0  0  0
 13  7  2  0  0  0  0
 14  7  1  0  0  0  0
 15 19  1  0  0  0  0
 16 10  1  0  0  0  0
 17 23  1  0  0  0  0
 18 16  1  0  0  0  0
 19 14  2  0  0  0  0
 20 13  1  0  0  0  0
 21 17  1  0  0  0  0
 22 24  1  0  0  0  0
 23 25  2  0  0  0  0
 24 18  2  0  0  0  0
 25 18  1  0  0  0  0
 26 27  1  0  0  0  0
 27 12  1  0  0  0  0
 28 26  1  0  0  0  0
  4  5  1  0  0  0  0
 20 15  2  0  0  0  0
 22 17  2  0  0  0  0
M  END
> <IDNUMBER>
F6233-0549

> <Chemical_Name>
1-[(4-chlorophenyl)methyl]-3-{4-[4-(2-methoxyethyl)-5-oxo-4,5-dihydro-1H-1,2,3,4-tetrazol-1-yl]phenyl}urea

> <CAS>
1396881-31-4

> <PriceCoeff>
1.00

> <MW>
402.83

> <Description>
solid

> <FSP3>
0.22

> <clogP>
3.39

> <TPSA>
98.63

> <Acceptor>
3

> <Donor>
2

> <RotBonds>
7

> <HAC>
28

> <Collection>
General

> <Reference_compound>
CHEMBL226141

> <Similarity>
0.8250

$$$$
F0466-0009
  -ISIS-  06222321452D

 25 28  0  0  0  0  0  0  0  0999 V2000
   -1.8833   -0.4000    0.0000 C   0  0  0  0  0  0  0  0  0  0  0  0
   -2.7625   -1.9500    0.0000 N   0  0  3  0  0  0  0  0  0  0  0  0
   -2.2208   -0.9000    0.0000 N   0  0  0  0  0  0  0  0  0  0  0  0
   -1.2625   -0.3667    0.0000 N   0  0  0  0  0  0  0  0  0  0  0  0
   -2.2208    0.0833    0.0000 S   0  0  0  0  0  0  0  0  0  0  0  0
   -2.1458   -1.9292    0.0000 C   0  0  0  0  0  0  0  0  0  0  0  0
   -0.9458   -0.8667    0.0000 C   0  0  0  0  0  0  0  0  0  0  0  0
   -3.0625   -1.4292    0.0000 C   0  0  0  0  0  0  0  0  0  0  0  0
   -3.1625   -2.4000    0.0000 C   0  0  0  0  0  0  0  0  0  0  0  0
   -2.8000   -0.7042    0.0000 C   0  0  0  0  0  0  0  0  0  0  0  0
   -2.8000   -0.1042    0.0000 C   0  0  0  0  0  0  0  0  0  0  0  0
   -1.8458   -1.4042    0.0000 C   0  0  0  0  0  0  0  0  0  0  0  0
   -1.2458   -1.4042    0.0000 C   0  0  0  0  0  0  0  0  0  0  0  0
   -0.3458   -0.8500    0.0000 O   0  0  0  0  0  0  0  0  0  0  0  0
   -3.7000   -2.1500    0.0000 C   0  0  0  0  0  0  0  0  0  0  0  0
   -3.6458   -1.5500    0.0000 C   0  0  0  0  0  0  0  0  0  0  0  0
   -2.8000   -0.8500    0.0000 O   0  0  0  0  0  0  0  0  0  0  0  0
   -3.0625   -3.0042    0.0000 O   0  0  0  0  0  0  0  0  0  0  0  0
   -1.8000   -2.4667    0.0000 C   0  0  0  0  0  0  0  0  0  0  0  0
   -0.9208   -1.9292    0.0000 C   0  0  0  0  0  0  0  0  0  0  0  0
   -1.2000   -2.4500    0.0000 C   0  0  0  0  0  0  0  0  0  0  0  0
   -3.3208   -1.0042    0.0000 C   0  0  0  0  0  0  0  0  0  0  0  0
   -3.3208    0.2000    0.0000 C   0  0  0  0  0  0  0  0  0  0  0  0
   -3.8458   -0.1042    0.0000 C   0  0  0  0  0  0  0  0  0  0  0  0
   -3.8458   -0.7042    0.0000 C   0  0  0  0  0  0  0  0  0  0  0  0
  2  6  1  0  0  0  0
  3  1  2  0  0  0  0
  4  1  1  0  0  0  0
  5  1  1  0  0  0  0
  6 12  2  0  0  0  0
  7  4  1  0  0  0  0
  8  2  1  0  0  0  0
  9  2  1  0  0  0  0
 10  3  1  0  0  0  0
 11  5  1  0  0  0  0
 12 13  1  0  0  0  0
 13  7  1  0  0  0  0
 14  7  2  0  0  0  0
 15  9  1  0  0  0  0
 16  8  1  0  0  0  0
 17  8  2  0  0  0  0
 18  9  2  0  0  0  0
 19 21  2  0  0  0  0
 20 13  2  0  0  0  0
 21 20  1  0  0  0  0
 22 10  1  0  0  0  0
 23 11  1  0  0  0  0
 24 23  2  0  0  0  0
 25 22  2  0  0  0  0
 10 11  2  0  0  0  0
 24 25  1  0  0  0  0
  6 19  1  0  0  0  0
 16 15  1  0  0  0  0
M  END
> <IDNUMBER>
F0466-0009

> <Chemical_Name>
N-(1,3-benzothiazol-2-yl)-3-(2,5-dioxopyrrolidin-1-yl)benzamide

> <CAS>
314043-88-4

> <PriceCoeff>
1.00

> <MW>
351.38

> <Description>
solid

> <FSP3>
0.11

> <clogP>
1.62

> <TPSA>
107.61

> <Acceptor>
4

> <Donor>
1

> <RotBonds>
3

> <HAC>
25

> <Collection>
General

$$$$
F5834-1816
  -ISIS-  06222321462D

 26 28  0  0  0  0  0  0  0  0999 V2000
   -4.5833    3.8000    0.0000 S   0  0  3  0  0  0  0  0  0  0  0  0
   -6.7167    3.3583    0.0000 N   0  0  3  0  0  0  0  0  0  0  0  0
   -2.5375    6.8292    0.0000 N   0  0  3  0  0  0  0  0  0  0  0  0
   -3.1583    6.2792    0.0000 C   0  0  0  0  0  0  0  0  0  0  0  0
   -7.4417    3.7583    0.0000 C   0  0  0  0  0  0  0  0  0  0  0  0
   -6.7042    2.5208    0.0000 C   0  0  0  0  0  0  0  0  0  0  0  0
   -1.7375    6.6667    0.0000 C   0  0  0  0  0  0  0  0  0  0  0  0
   -5.2875    3.3833    0.0000 C   0  0  0  0  0  0  0  0  0  0  0  0
   -6.0042    3.7833    0.0000 C   0  0  0  0  0  0  0  0  0  0  0  0
   -3.8625    4.2125    0.0000 N   0  0  0  0  0  0  0  0  0  0  0  0
   -2.8833    7.5792    0.0000 C   0  0  0  0  0  0  0  0  0  0  0  0
   -3.1500    5.4542    0.0000 C   0  0  0  0  0  0  0  0  0  0  0  0
   -3.8708    6.6875    0.0000 C   0  0  0  0  0  0  0  0  0  0  0  0
   -4.1583    3.1083    0.0000 O   0  0  0  0  0  0  0  0  0  0  0  0
   -5.0083    4.5042    0.0000 O   0  0  0  0  0  0  0  0  0  0  0  0
   -3.8625    5.0417    0.0000 C   0  0  0  0  0  0  0  0  0  0  0  0
   -5.9833    2.1208    0.0000 O   0  0  0  0  0  0  0  0  0  0  0  0
   -7.4667    4.5792    0.0000 O   0  0  0  0  0  0  0  0  0  0  0  0
   -1.4833    5.8792    0.0000 O   0  0  0  0  0  0  0  0  0  0  0  0
   -3.7000    7.4917    0.0000 C   0  0  0  0  0  0  0  0  0  0  0  0
   -4.5958    6.2750    0.0000 C   0  0  0  0  0  0  0  0  0  0  0  0
   -4.5833    5.4542    0.0000 C   0  0  0  0  0  0  0  0  0  0  0  0
   -7.4042    2.0958    0.0000 C   0  0  0  0  0  0  0  0  0  0  0  0
   -8.1542    3.3208    0.0000 C   0  0  0  0  0  0  0  0  0  0  0  0
   -1.1875    7.2792    0.0000 C   0  0  0  0  0  0  0  0  0  0  0  0
   -8.1292    2.4875    0.0000 C   0  0  0  0  0  0  0  0  0  0  0  0
  2  9  1  0  0  0  0
  3  4  1  0  0  0  0
  4 12  1  0  0  0  0
  5  2  1  0  0  0  0
  6  2  1  0  0  0  0
  7  3  1  0  0  0  0
  8  1  1  0  0  0  0
  9  8  1  0  0  0  0
 10  1  1  0  0  0  0
 11  3  1  0  0  0  0
 12 16  2  0  0  0  0
 13 21  1  0  0  0  0
 14  1  2  0  0  0  0
 15  1  2  0  0  0  0
 16 10  1  0  0  0  0
 17  6  2  0  0  0  0
 18  5  2  0  0  0  0
 19  7  2  0  0  0  0
 20 13  1  0  0  0  0
 21 22  2  0  0  0  0
 22 16  1  0  0  0  0
 23  6  1  0  0  0  0
 24  5  1  0  0  0  0
 25  7  1  0  0  0  0
 26 23  1  0  0  0  0
 13  4  2  0  0  0  0
 20 11  1  0  0  0  0
 26 24  1  0  0  0  0
M  END
> <IDNUMBER>
F5834-1816

> <Chemical_Name>
N-(1-acetyl-2,3-dihydro-1H-indol-6-yl)-2-(2,6-dioxopiperidin-1-yl)ethane-1-sulfonamide

> <CAS>
1207055-49-9

> <PriceCoeff>
1.00

> <MW>
379.43

> <Description>
solid

> <FSP3>
0.47

> <clogP>
0.40

> <TPSA>
112.24

> <Acceptor>
6

> <Donor>
1

> <RotBonds>
6

> <HAC>
26

> <Collection>
General

$$$$
F3350-0621
  -ISIS-  06222321462D

 24 26  0  0  0  0  0  0  0  0999 V2000
    4.5875   -2.6417    0.0000 S   0  0  3  0  0  0  0  0  0  0  0  0
    7.4250   -4.3167    0.0000 N   0  0  3  0  0  0  0  0  0  0  0  0
    7.5042   -5.1500    0.0000 C   0  0  0  0  0  0  0  0  0  0  0  0
    8.1875   -3.9917    0.0000 C   0  0  0  0  0  0  0  0  0  0  0  0
    5.2917   -3.0625    0.0000 C   0  0  0  0  0  0  0  0  0  0  0  0
    6.7125   -3.9000    0.0000 C   0  0  0  0  0  0  0  0  0  0  0  0
    1.7000   -0.8917    0.0000 S   0  0  0  0  0  0  0  0  0  0  0  0
    5.0042   -1.9375    0.0000 O   0  0  0  0  0  0  0  0  0  0  0  0
    4.1667   -3.3542    0.0000 O   0  0  0  0  0  0  0  0  0  0  0  0
    2.4542   -0.5667    0.0000 C   0  0  0  0  0  0  0  0  0  0  0  0
    3.8667   -2.2167    0.0000 N   0  0  0  0  0  0  0  0  0  0  0  0
    8.7292   -4.6167    0.0000 C   0  0  0  0  0  0  0  0  0  0  0  0
    8.3042   -5.3292    0.0000 C   0  0  0  0  0  0  0  0  0  0  0  0
    6.8792   -5.6917    0.0000 O   0  0  0  0  0  0  0  0  0  0  0  0
    8.3667   -3.1917    0.0000 O   0  0  0  0  0  0  0  0  0  0  0  0
    1.1500   -0.2792    0.0000 C   0  0  0  0  0  0  0  0  0  0  0  0
    2.3750    0.2583    0.0000 C   0  0  0  0  0  0  0  0  0  0  0  0
    1.5667    0.4333    0.0000 C   0  0  0  0  0  0  0  0  0  0  0  0
    5.2875   -3.8875    0.0000 C   0  0  0  0  0  0  0  0  0  0  0  0
    6.0125   -2.6542    0.0000 C   0  0  0  0  0  0  0  0  0  0  0  0
    6.0000   -4.3042    0.0000 C   0  0  0  0  0  0  0  0  0  0  0  0
    6.7167   -3.0792    0.0000 C   0  0  0  0  0  0  0  0  0  0  0  0
    3.1667   -0.9792    0.0000 C   0  0  0  0  0  0  0  0  0  0  0  0
    3.1625   -1.8042    0.0000 C   0  0  0  0  0  0  0  0  0  0  0  0
  2  6  1  0  0  0  0
  3  2  1  0  0  0  0
  4  2  1  0  0  0  0
  5  1  1  0  0  0  0
  6 22  1  0  0  0  0
  7 10  1  0  0  0  0
  8  1  2  0  0  0  0
  9  1  2  0  0  0  0
 10 23  1  0  0  0  0
 11  1  1  0  0  0  0
 12  4  1  0  0  0  0
 13  3  1  0  0  0  0
 14  3  2  0  0  0  0
 15  4  2  0  0  0  0
 16  7  1  0  0  0  0
 17 10  2  0  0  0  0
 18 17  1  0  0  0  0
 19  5  2  0  0  0  0
 20  5  1  0  0  0  0
 21 19  1  0  0  0  0
 22 20  2  0  0  0  0
 23 24  1  0  0  0  0
 24 11  1  0  0  0  0
  6 21  2  0  0  0  0
 16 18  2  0  0  0  0
 12 13  1  0  0  0  0
M  END
> <IDNUMBER>
F3350-0621

> <Chemical_Name>
4-(2,5-dioxopyrrolidin-1-yl)-N-[2-(thiophen-2-yl)ethyl]benzene-1-sulfonamide

> <CAS>
919701-69-2

> <PriceCoeff>
1.00

> <MW>
364.44

> <Description>
solid

> <FSP3>
0.25

> <clogP>
0.84

> <TPSA>
120.17

> <Acceptor>
4

> <Donor>
1

> <RotBonds>
6

> <HAC>
24

> <Collection>
General

$$$$
F3210-0020
  -ISIS-  06222321152D

 19 20  0  0  0  0  0  0  0  0999 V2000
    4.3917   -2.2792    0.0000 C   0  0  0  0  0  0  0  0  0  0  0  0
    3.5042   -3.2750    0.0000 C   0  0  0  0  0  0  0  0  0  0  0  0
    3.5875   -2.4542    0.0000 C   0  0  0  0  0  0  0  0  0  0  0  0
    2.0667   -2.4500    0.0000 N   0  3  0  0  0  0  0  0  0  0  0  0
    2.7917   -3.6917    0.0000 C   0  0  0  0  0  0  0  0  0  0  0  0
    4.8042   -2.9917    0.0000 C   0  0  0  0  0  0  0  0  0  0  0  0
    2.0792   -3.2792    0.0000 C   0  0  0  0  0  0  0  0  0  0  0  0
    4.2542   -3.6042    0.0000 O   0  0  0  0  0  0  0  0  0  0  0  0
    4.7292   -1.5250    0.0000 C   0  0  0  0  0  0  0  0  0  0  0  0
    1.3667   -3.6917    0.0000 C   0  0  0  0  0  0  0  0  0  0  0  0
    2.7917   -4.5167    0.0000 C   0  0  0  0  0  0  0  0  0  0  0  0
    2.7875   -2.0375    0.0000 O   0  5  0  0  0  0  0  0  0  0  0  0
    1.3542   -2.0417    0.0000 O   0  0  0  0  0  0  0  0  0  0  0  0
    4.2417   -0.8625    0.0000 O   0  0  0  0  0  0  0  0  0  0  0  0
    1.3667   -4.5167    0.0000 C   0  0  0  0  0  0  0  0  0  0  0  0
    5.5417   -1.4375    0.0000 O   0  0  0  0  0  0  0  0  0  0  0  0
    2.0792   -4.9292    0.0000 C   0  0  0  0  0  0  0  0  0  0  0  0
    0.6500   -4.9292    0.0000 Cl  0  0  0  0  0  0  0  0  0  0  0  0
    5.6292   -3.0792    0.0000 C   0  0  0  0  0  0  0  0  0  0  0  0
  2  3  2  0  0  0  0
  3  1  1  0  0  0  0
  4  7  1  0  0  0  0
  5  2  1  0  0  0  0
  6  1  2  0  0  0  0
  7  5  2  0  0  0  0
  8  6  1  0  0  0  0
  9  1  1  0  0  0  0
 10  7  1  0  0  0  0
 11  5  1  0  0  0  0
 12  4  1  0  0  0  0
 13  4  2  0  0  0  0
 14  9  2  0  0  0  0
 15 17  1  0  0  0  0
 16  9  1  0  0  0  0
 17 11  2  0  0  0  0
 18 15  1  0  0  0  0
 19  6  1  0  0  0  0
  8  2  1  0  0  0  0
 15 10  2  0  0  0  0
M  CHG  2   4   1  12  -1
M  END
> <IDNUMBER>
F3210-0020

> <Chemical_Name>
5-(4-chloro-2-nitrophenyl)-2-methylfuran-3-carboxylic acid

> <CAS>
900136-77-8

> <PriceCoeff>
1.00

> <MW>
281.65

> <Description>
solid

> <FSP3>
0.08

> <clogP>
3.86

> <TPSA>
93.58

> <Acceptor>
5

> <Donor>
0

> <RotBonds>
3

> <HAC>
19

> <Collection>
General

$$$$
F3350-0564
  -ISIS-  06222321152D

 26 28  0  0  0  0  0  0  0  0999 V2000
    5.0042   -2.5625    0.0000 S   0  0  3  0  0  0  0  0  0  0  0  0
    7.8500   -4.2042    0.0000 N   0  0  3  0  0  0  0  0  0  0  0  0
    7.9292   -5.0292    0.0000 C   0  0  0  0  0  0  0  0  0  0  0  0
    8.6042   -3.8792    0.0000 C   0  0  0  0  0  0  0  0  0  0  0  0
    4.2917   -2.1542    0.0000 N   0  0  0  0  0  0  0  0  0  0  0  0
    5.7167   -2.9750    0.0000 C   0  0  0  0  0  0  0  0  0  0  0  0
    7.1375   -3.7917    0.0000 C   0  0  0  0  0  0  0  0  0  0  0  0
    4.5917   -3.2792    0.0000 O   0  0  0  0  0  0  0  0  0  0  0  0
    5.4167   -1.8542    0.0000 O   0  0  0  0  0  0  0  0  0  0  0  0
    1.4667   -0.4625    0.0000 C   0  0  0  0  0  0  0  0  0  0  0  0
    2.1750   -0.8875    0.0000 C   0  0  0  0  0  0  0  0  0  0  0  0
    9.1542   -4.4917    0.0000 C   0  0  0  0  0  0  0  0  0  0  0  0
    8.7417   -5.2042    0.0000 C   0  0  0  0  0  0  0  0  0  0  0  0
    7.3167   -5.5792    0.0000 O   0  0  0  0  0  0  0  0  0  0  0  0
    8.7792   -3.0750    0.0000 O   0  0  0  0  0  0  0  0  0  0  0  0
    6.4250   -2.5667    0.0000 C   0  0  0  0  0  0  0  0  0  0  0  0
    5.7167   -3.7917    0.0000 C   0  0  0  0  0  0  0  0  0  0  0  0
    7.1375   -2.9792    0.0000 C   0  0  0  0  0  0  0  0  0  0  0  0
    6.4292   -4.2042    0.0000 C   0  0  0  0  0  0  0  0  0  0  0  0
    0.7542   -0.8542    0.0000 O   0  0  0  0  0  0  0  0  0  0  0  0
    3.5792   -1.7292    0.0000 C   0  0  0  0  0  0  0  0  0  0  0  0
    2.1750   -1.7000    0.0000 C   0  0  0  0  0  0  0  0  0  0  0  0
    2.9042   -0.4875    0.0000 C   0  0  0  0  0  0  0  0  0  0  0  0
    2.8625   -2.1042    0.0000 C   0  0  0  0  0  0  0  0  0  0  0  0
    3.5917   -0.9000    0.0000 C   0  0  0  0  0  0  0  0  0  0  0  0
    1.4792    0.3625    0.0000 C   0  0  0  0  0  0  0  0  0  0  0  0
  2  7  1  0  0  0  0
  3  2  1  0  0  0  0
  4  2  1  0  0  0  0
  5  1  1  0  0  0  0
  6  1  1  0  0  0  0
  7 19  2  0  0  0  0
  8  1  2  0  0  0  0
  9  1  2  0  0  0  0
 10 11  1  0  0  0  0
 11 23  2  0  0  0  0
 12  4  1  0  0  0  0
 13  3  1  0  0  0  0
 14  3  2  0  0  0  0
 15  4  2  0  0  0  0
 16  6  1  0  0  0  0
 17  6  2  0  0  0  0
 18 16  2  0  0  0  0
 19 17  1  0  0  0  0
 20 10  2  0  0  0  0
 21  5  1  0  0  0  0
 22 24  2  0  0  0  0
 23 25  1  0  0  0  0
 24 21  1  0  0  0  0
 25 21  2  0  0  0  0
 26 10  1  0  0  0  0
  7 18  1  0  0  0  0
 11 22  1  0  0  0  0
 12 13  1  0  0  0  0
M  END
> <IDNUMBER>
F3350-0564

> <Chemical_Name>
N-(4-acetylphenyl)-4-(2,5-dioxopyrrolidin-1-yl)benzene-1-sulfonamide

> <CAS>
331432-29-2

> <PriceCoeff>
1.00

> <MW>
372.40

> <Description>
solid

> <FSP3>
0.17

> <clogP>
0.55

> <TPSA>
109.00

> <Acceptor>
6

> <Donor>
1

> <RotBonds>
5

> <HAC>
26

> <Collection>
General

$$$$
F3350-0696
  -ISIS-  06222321442D

 27 29  0  0  0  0  0  0  0  0999 V2000
    1.8542   -3.3750    0.0000 S   0  0  3  0  0  0  0  0  0  0  0  0
    4.7167   -1.7292    0.0000 N   0  0  3  0  0  0  0  0  0  0  0  0
    4.0000   -2.1417    0.0000 C   0  0  0  0  0  0  0  0  0  0  0  0
    5.4667   -2.0750    0.0000 C   0  0  0  0  0  0  0  0  0  0  0  0
    4.8042   -0.9125    0.0000 C   0  0  0  0  0  0  0  0  0  0  0  0
    2.5667   -2.9625    0.0000 C   0  0  0  0  0  0  0  0  0  0  0  0
    1.1417   -3.7875    0.0000 N   0  0  0  0  0  0  0  0  0  0  0  0
    3.2875   -1.7292    0.0000 C   0  0  0  0  0  0  0  0  0  0  0  0
    2.5667   -2.1417    0.0000 C   0  0  0  0  0  0  0  0  0  0  0  0
    1.4417   -2.6542    0.0000 O   0  0  0  0  0  0  0  0  0  0  0  0
    2.2750   -4.0875    0.0000 O   0  0  0  0  0  0  0  0  0  0  0  0
    3.9917   -2.9667    0.0000 C   0  0  0  0  0  0  0  0  0  0  0  0
   -0.2875   -5.4417    0.0000 C   0  0  0  0  0  0  0  0  0  0  0  0
   -0.2875   -6.2667    0.0000 C   0  0  0  0  0  0  0  0  0  0  0  0
    0.4292   -4.2042    0.0000 C   0  0  0  0  0  0  0  0  0  0  0  0
    3.2792   -3.3750    0.0000 C   0  0  0  0  0  0  0  0  0  0  0  0
    5.6125   -0.7417    0.0000 C   0  0  0  0  0  0  0  0  0  0  0  0
    6.0250   -1.4625    0.0000 C   0  0  0  0  0  0  0  0  0  0  0  0
    0.4292   -5.0292    0.0000 C   0  0  0  0  0  0  0  0  0  0  0  0
    5.6375   -2.8792    0.0000 O   0  0  0  0  0  0  0  0  0  0  0  0
    4.1917   -0.3542    0.0000 O   0  0  0  0  0  0  0  0  0  0  0  0
   -1.0000   -6.6792    0.0000 O   0  0  0  0  0  0  0  0  0  0  0  0
    3.2875   -0.9000    0.0000 C   0  0  0  0  0  0  0  0  0  0  0  0
   -1.0000   -5.0292    0.0000 C   0  0  0  0  0  0  0  0  0  0  0  0
   -1.0000   -4.2042    0.0000 C   0  0  0  0  0  0  0  0  0  0  0  0
   -0.2875   -3.7917    0.0000 C   0  0  0  0  0  0  0  0  0  0  0  0
    0.4292   -6.6792    0.0000 C   0  0  0  0  0  0  0  0  0  0  0  0
  2  3  1  0  0  0  0
  3 12  1  0  0  0  0
  4  2  1  0  0  0  0
  5  2  1  0  0  0  0
  6  1  1  0  0  0  0
  7  1  1  0  0  0  0
  8  9  1  0  0  0  0
  9  6  2  0  0  0  0
 10  1  2  0  0  0  0
 11  1  2  0  0  0  0
 12 16  2  0  0  0  0
 13 19  2  0  0  0  0
 14 13  1  0  0  0  0
 15  7  1  0  0  0  0
 16  6  1  0  0  0  0
 17  5  1  0  0  0  0
 18  4  1  0  0  0  0
 19 15  1  0  0  0  0
 20  4  2  0  0  0  0
 21  5  2  0  0  0  0
 22 14  2  0  0  0  0
 23  8  1  0  0  0  0
 24 25  2  0  0  0  0
 25 26  1  0  0  0  0
 26 15  2  0  0  0  0
 27 14  1  0  0  0  0
  8  3  2  0  0  0  0
 13 24  1  0  0  0  0
 17 18  1  0  0  0  0
M  END
> <IDNUMBER>
F3350-0696

> <Chemical_Name>
N-(3-acetylphenyl)-4-(2,5-dioxopyrrolidin-1-yl)-3-methylbenzene-1-sulfonamide

> <CAS>
946339-81-7

> <PriceCoeff>
1.00

> <MW>
386.42

> <Description>
solid

> <FSP3>
0.21

> <clogP>
0.65

> <TPSA>
109.00

> <Acceptor>
6

> <Donor>
1

> <RotBonds>
5

> <HAC>
27

> <Collection>
General

$$$$
F3350-0586
  -ISIS-  06222321462D

 26 28  0  0  0  0  0  0  0  0999 V2000
    5.3292   -2.2042    0.0000 S   0  0  3  0  0  0  0  0  0  0  0  0
    8.1375   -3.9375    0.0000 N   0  0  3  0  0  0  0  0  0  0  0  0
    8.2000   -4.7667    0.0000 C   0  0  0  0  0  0  0  0  0  0  0  0
    8.9042   -3.6292    0.0000 C   0  0  0  0  0  0  0  0  0  0  0  0
    4.6292   -1.7792    0.0000 N   0  0  0  0  0  0  0  0  0  0  0  0
    6.0292   -2.6417    0.0000 C   0  0  0  0  0  0  0  0  0  0  0  0
    7.4292   -3.5042    0.0000 C   0  0  0  0  0  0  0  0  0  0  0  0
    5.7667   -1.5125    0.0000 O   0  0  0  0  0  0  0  0  0  0  0  0
    4.9000   -2.9167    0.0000 O   0  0  0  0  0  0  0  0  0  0  0  0
    9.4375   -4.2542    0.0000 C   0  0  0  0  0  0  0  0  0  0  0  0
    9.0000   -4.9667    0.0000 C   0  0  0  0  0  0  0  0  0  0  0  0
    7.5667   -5.3000    0.0000 O   0  0  0  0  0  0  0  0  0  0  0  0
    9.1000   -2.8292    0.0000 O   0  0  0  0  0  0  0  0  0  0  0  0
    6.0042   -3.4667    0.0000 C   0  0  0  0  0  0  0  0  0  0  0  0
    6.7542   -2.2542    0.0000 C   0  0  0  0  0  0  0  0  0  0  0  0
    6.7125   -3.8917    0.0000 C   0  0  0  0  0  0  0  0  0  0  0  0
    7.4542   -2.6875    0.0000 C   0  0  0  0  0  0  0  0  0  0  0  0
    3.9250   -1.3542    0.0000 C   0  0  0  0  0  0  0  0  0  0  0  0
    2.5167   -0.4792    0.0000 C   0  0  0  0  0  0  0  0  0  0  0  0
    3.9417   -0.5292    0.0000 C   0  0  0  0  0  0  0  0  0  0  0  0
    3.1917   -1.7417    0.0000 C   0  0  0  0  0  0  0  0  0  0  0  0
    2.4917   -1.3042    0.0000 C   0  0  0  0  0  0  0  0  0  0  0  0
    3.2417   -0.0917    0.0000 C   0  0  0  0  0  0  0  0  0  0  0  0
    1.8167   -0.0542    0.0000 O   0  0  0  0  0  0  0  0  0  0  0  0
    1.0917   -0.4417    0.0000 C   0  0  0  0  0  0  0  0  0  0  0  0
    0.3875   -0.0042    0.0000 C   0  0  0  0  0  0  0  0  0  0  0  0
  2  7  1  0  0  0  0
  3  2  1  0  0  0  0
  4  2  1  0  0  0  0
  5  1  1  0  0  0  0
  6  1  1  0  0  0  0
  7 17  1  0  0  0  0
  8  1  2  0  0  0  0
  9  1  2  0  0  0  0
 10  4  1  0  0  0  0
 11  3  1  0  0  0  0
 12  3  2  0  0  0  0
 13  4  2  0  0  0  0
 14  6  2  0  0  0  0
 15  6  1  0  0  0  0
 16 14  1  0  0  0  0
 17 15  2  0  0  0  0
 18  5  1  0  0  0  0
 19 22  2  0  0  0  0
 20 18  1  0  0  0  0
 21 18  2  0  0  0  0
 22 21  1  0  0  0  0
 23 20  2  0  0  0  0
 24 19  1  0  0  0  0
 25 24  1  0  0  0  0
 26 25  1  0  0  0  0
  7 16  2  0  0  0  0
 19 23  1  0  0  0  0
 10 11  1  0  0  0  0
M  END
> <IDNUMBER>
F3350-0586

> <Chemical_Name>
4-(2,5-dioxopyrrolidin-1-yl)-N-(4-ethoxyphenyl)benzene-1-sulfonamide

> <CAS>
904051-99-6

> <PriceCoeff>
1.00

> <MW>
374.41

> <Description>
solid

> <FSP3>
0.22

> <clogP>
1.32

> <TPSA>
101.16

> <Acceptor>
6

> <Donor>
1

> <RotBonds>
6

> <HAC>
26

> <Collection>
General

$$$$
F2416-0239
  -ISIS-  06222321142D

 27 29  0  0  0  0  0  0  0  0999 V2000
   -4.4708    7.5167    0.0000 N   0  0  3  0  0  0  0  0  0  0  0  0
   -5.1833    7.9375    0.0000 C   0  0  0  0  0  0  0  0  0  0  0  0
   -3.7583    6.2750    0.0000 C   0  0  0  0  0  0  0  0  0  0  0  0
   -4.4833    6.6875    0.0000 C   0  0  0  0  0  0  0  0  0  0  0  0
   -3.7333    1.3333    0.0000 C   0  0  0  0  0  0  0  0  0  0  0  0
   -3.7500    3.8000    0.0000 C   0  0  0  0  0  0  0  0  0  0  0  0
   -3.7375    0.5000    0.0000 C   0  0  0  0  0  0  0  0  0  0  0  0
   -3.0458    6.6875    0.0000 C   0  0  0  0  0  0  0  0  0  0  0  0
   -3.0375    4.2125    0.0000 N   0  0  0  0  0  0  0  0  0  0  0  0
   -4.4583    1.7500    0.0000 C   0  0  0  0  0  0  0  0  0  0  0  0
   -3.7583    7.9292    0.0000 C   0  0  0  0  0  0  0  0  0  0  0  0
   -3.7583    5.4500    0.0000 C   0  0  0  0  0  0  0  0  0  0  0  0
   -3.0375    5.0292    0.0000 C   0  0  0  0  0  0  0  0  0  0  0  0
   -4.4708    2.5625    0.0000 O   0  0  0  0  0  0  0  0  0  0  0  0
   -5.9083    7.5250    0.0000 O   0  0  0  0  0  0  0  0  0  0  0  0
   -4.4708    4.2042    0.0000 O   0  0  0  0  0  0  0  0  0  0  0  0
   -3.0375    7.5125    0.0000 C   0  0  0  0  0  0  0  0  0  0  0  0
   -2.3250    6.2792    0.0000 C   0  0  0  0  0  0  0  0  0  0  0  0
   -5.1708    1.3208    0.0000 C   0  0  0  0  0  0  0  0  0  0  0  0
   -4.4708    0.0875    0.0000 C   0  0  0  0  0  0  0  0  0  0  0  0
   -3.7583    2.9833    0.0000 C   0  0  0  0  0  0  0  0  0  0  0  0
   -3.0250    1.7458    0.0000 Cl  0  0  0  0  0  0  0  0  0  0  0  0
   -2.3250    5.4542    0.0000 C   0  0  0  0  0  0  0  0  0  0  0  0
   -5.1708    0.4875    0.0000 C   0  0  0  0  0  0  0  0  0  0  0  0
   -4.4458   -0.7500    0.0000 Cl  0  0  0  0  0  0  0  0  0  0  0  0
   -5.1875    8.7542    0.0000 C   0  0  0  0  0  0  0  0  0  0  0  0
   -5.8958    9.1667    0.0000 C   0  0  0  0  0  0  0  0  0  0  0  0
  2  1  1  0  0  0  0
  3  4  1  0  0  0  0
  4  1  1  0  0  0  0
  5 10  1  0  0  0  0
  6  9  1  0  0  0  0
  7  5  2  0  0  0  0
  8 17  1  0  0  0  0
  9 13  1  0  0  0  0
 10 14  1  0  0  0  0
 11  1  1  0  0  0  0
 12  3  1  0  0  0  0
 13 12  2  0  0  0  0
 14 21  1  0  0  0  0
 15  2  2  0  0  0  0
 16  6  2  0  0  0  0
 17 11  1  0  0  0  0
 18  8  1  0  0  0  0
 19 10  2  0  0  0  0
 20 24  2  0  0  0  0
 21  6  1  0  0  0  0
 22  5  1  0  0  0  0
 23 18  2  0  0  0  0
 24 19  1  0  0  0  0
 25 20  1  0  0  0  0
 26  2  1  0  0  0  0
 27 26  1  0  0  0  0
  3  8  2  0  0  0  0
 13 23  1  0  0  0  0
 20  7  1  0  0  0  0
M  END
> <IDNUMBER>
F2416-0239

> <Chemical_Name>
2-(2,4-dichlorophenoxy)-N-(2-propanoyl-1,2,3,4-tetrahydroisoquinolin-7-yl)acetamide

> <CAS>
955736-01-3

> <PriceCoeff>
1.00

> <MW>
407.29

> <Description>
solid

> <FSP3>
0.30

> <clogP>
3.09

> <TPSA>
58.64

> <Acceptor>
3

> <Donor>
1

> <RotBonds>
6

> <HAC>
27

> <Collection>
General

> <Reference_compound>
CHEMBL1459580

> <Similarity>
0.8020

$$$$
F1903-9745
  -ISIS-  06222321142D

 11 11  0  0  0  0  0  0  0  0999 V2000
    4.6667   -0.1542    0.0000 C   0  0  0  0  0  0  0  0  0  0  0  0
    4.6667   -0.9875    0.0000 C   0  0  0  0  0  0  0  0  0  0  0  0
    3.9500   -1.4000    0.0000 N   0  0  0  0  0  0  0  0  0  0  0  0
    5.3792    0.2583    0.0000 C   0  0  0  0  0  0  0  0  0  0  0  0
    3.9500    0.2583    0.0000 C   0  0  0  0  0  0  0  0  0  0  0  0
    5.3750    1.0833    0.0000 O   0  0  0  0  0  0  0  0  0  0  0  0
    5.3792   -1.4000    0.0000 S   0  0  0  0  0  0  0  0  0  0  0  0
    3.2375   -0.9875    0.0000 C   0  0  0  0  0  0  0  0  0  0  0  0
    3.2375   -0.1542    0.0000 C   0  0  0  0  0  0  0  0  0  0  0  0
    6.0917   -0.1500    0.0000 O   0  0  0  0  0  0  0  0  0  0  0  0
    2.5167   -1.4000    0.0000 C   0  0  0  0  0  0  0  0  0  0  0  0
  2  1  1  0  0  0  0
  3  2  2  0  0  0  0
  4  1  1  0  0  0  0
  5  1  2  0  0  0  0
  6  4  2  0  0  0  0
  7  2  1  0  0  0  0
  8  9  2  0  0  0  0
  9  5  1  0  0  0  0
 10  4  1  0  0  0  0
 11  8  1  0  0  0  0
  3  8  1  0  0  0  0
M  END
> <IDNUMBER>
F1903-9745

> <Chemical_Name>
6-methyl-2-sulfanylpyridine-3-carboxylic acid

> <CAS>
3395-05-9

> <PriceCoeff>
1.00

> <MW>
169.20

> <Description>
solid

> <FSP3>
0.14

> <clogP>
2.13

> <TPSA>
88.99

> <Acceptor>
3

> <Donor>
2

> <RotBonds>
1

> <HAC>
11

> <Collection>
General

> <Reference_compound>
CHEMBL1521174

> <Similarity>
0.8290

$$$$
F2992-0095
  -ISIS-  06222321152D

 25 28  0  0  0  0  0  0  0  0999 V2000
   -2.1583    1.9083    0.0000 C   0  0  0  0  0  0  0  0  0  0  0  0
   -1.4958    1.4208    0.0000 C   0  0  0  0  0  0  0  0  0  0  0  0
    0.3000    4.0417    0.0000 N   0  0  3  0  0  0  0  0  0  0  0  0
   -0.7000    1.6833    0.0000 C   0  0  0  0  0  0  0  0  0  0  0  0
   -2.1583    2.7333    0.0000 N   0  0  0  0  0  0  0  0  0  0  0  0
   -2.9458    1.6500    0.0000 S   0  0  0  0  0  0  0  0  0  0  0  0
   -0.4458    2.4625    0.0000 N   0  0  0  0  0  0  0  0  0  0  0  0
    0.6042    4.7917    0.0000 C   0  0  0  0  0  0  0  0  0  0  0  0
   -0.5125    4.0917    0.0000 C   0  0  0  0  0  0  0  0  0  0  0  0
    0.3625    2.6333    0.0000 C   0  0  0  0  0  0  0  0  0  0  0  0
   -0.2208    1.0083    0.0000 S   0  0  0  0  0  0  0  0  0  0  0  0
   -2.9375    2.9875    0.0000 C   0  0  0  0  0  0  0  0  0  0  0  0
   -3.4250    2.3208    0.0000 C   0  0  0  0  0  0  0  0  0  0  0  0
    0.7417    3.3583    0.0000 C   0  0  0  0  0  0  0  0  0  0  0  0
   -1.4958    0.5958    0.0000 C   0  0  0  0  0  0  0  0  0  0  0  0
   -0.7083    0.3458    0.0000 C   0  0  0  0  0  0  0  0  0  0  0  0
   -0.7208    4.8792    0.0000 C   0  0  0  0  0  0  0  0  0  0  0  0
   -0.0333    5.3250    0.0000 C   0  0  0  0  0  0  0  0  0  0  0  0
   -1.0333    3.4833    0.0000 O   0  0  0  0  0  0  0  0  0  0  0  0
    1.4000    5.0000    0.0000 O   0  0  0  0  0  0  0  0  0  0  0  0
    0.6042    2.0458    0.0000 O   0  0  0  0  0  0  0  0  0  0  0  0
   -3.2708    3.7458    0.0000 C   0  0  0  0  0  0  0  0  0  0  0  0
   -4.2458    2.4083    0.0000 C   0  0  0  0  0  0  0  0  0  0  0  0
   -4.0958    3.8333    0.0000 C   0  0  0  0  0  0  0  0  0  0  0  0
   -4.5833    3.1583    0.0000 C   0  0  0  0  0  0  0  0  0  0  0  0
  2  1  1  0  0  0  0
  3 14  1  0  0  0  0
  4  2  2  0  0  0  0
  5  1  2  0  0  0  0
  6  1  1  0  0  0  0
  7  4  1  0  0  0  0
  8  3  1  0  0  0  0
  9  3  1  0  0  0  0
 10  7  1  0  0  0  0
 11  4  1  0  0  0  0
 12  5  1  0  0  0  0
 13  6  1  0  0  0  0
 14 10  1  0  0  0  0
 15  2  1  0  0  0  0
 16 15  2  0  0  0  0
 17  9  1  0  0  0  0
 18  8  1  0  0  0  0
 19  9  2  0  0  0  0
 20  8  2  0  0  0  0
 21 10  2  0  0  0  0
 22 12  1  0  0  0  0
 23 13  1  0  0  0  0
 24 22  2  0  0  0  0
 25 23  2  0  0  0  0
 13 12  2  0  0  0  0
 16 11  1  0  0  0  0
 24 25  1  0  0  0  0
 18 17  1  0  0  0  0
M  END
> <IDNUMBER>
F2992-0095

> <Chemical_Name>
N-[3-(1,3-benzothiazol-2-yl)thiophen-2-yl]-2-(2,5-dioxopyrrolidin-1-yl)acetamide

> <CAS>
923465-37-6

> <PriceCoeff>
1.00

> <MW>
371.43

> <Description>
solid

> <FSP3>
0.18

> <clogP>
1.55

> <TPSA>
135.85

> <Acceptor>
4

> <Donor>
1

> <RotBonds>
4

> <HAC>
25

> <Collection>
General

$$$$
F0817-0075
  -ISIS-  06222321452D

 25 28  0  0  0  0  0  0  0  0999 V2000
    1.8792   -0.8667    0.0000 N   0  0  3  0  0  0  0  0  0  0  0  0
    1.4542   -0.1500    0.0000 C   0  0  0  0  0  0  0  0  0  0  0  0
    2.7000   -0.9792    0.0000 C   0  0  0  0  0  0  0  0  0  0  0  0
    1.5792   -1.6375    0.0000 C   0  0  0  0  0  0  0  0  0  0  0  0
   -0.6333    0.5625    0.0000 C   0  0  0  0  0  0  0  0  0  0  0  0
   -1.0500    1.2833    0.0000 N   0  0  0  0  0  0  0  0  0  0  0  0
    0.6167   -0.1542    0.0000 C   0  0  0  0  0  0  0  0  0  0  0  0
    0.2000    0.5625    0.0000 C   0  0  0  0  0  0  0  0  0  0  0  0
   -3.1500    2.0208    0.0000 C   0  0  0  0  0  0  0  0  0  0  0  0
   -4.3958    1.4833    0.0000 S   0  0  0  0  0  0  0  0  0  0  0  0
   -3.5708    1.3000    0.0000 C   0  0  0  0  0  0  0  0  0  0  0  0
   -4.4583    2.3000    0.0000 C   0  0  0  0  0  0  0  0  0  0  0  0
   -1.8958    1.2833    0.0000 C   0  0  0  0  0  0  0  0  0  0  0  0
   -2.3125    2.0000    0.0000 C   0  0  0  0  0  0  0  0  0  0  0  0
   -3.7125    2.6458    0.0000 C   0  0  0  0  0  0  0  0  0  0  0  0
   -1.0500   -0.1542    0.0000 O   0  0  0  0  0  0  0  0  0  0  0  0
    2.8792   -1.7792    0.0000 C   0  0  0  0  0  0  0  0  0  0  0  0
    2.1667   -2.1792    0.0000 C   0  0  0  0  0  0  0  0  0  0  0  0
    3.3000   -0.3375    0.0000 O   0  0  0  0  0  0  0  0  0  0  0  0
    0.7167   -1.8542    0.0000 O   0  0  0  0  0  0  0  0  0  0  0  0
   -3.1500    0.5625    0.0000 C   0  0  0  0  0  0  0  0  0  0  0  0
   -2.3125    0.5625    0.0000 C   0  0  0  0  0  0  0  0  0  0  0  0
    1.8792    0.5833    0.0000 C   0  0  0  0  0  0  0  0  0  0  0  0
    0.6042    1.2833    0.0000 C   0  0  0  0  0  0  0  0  0  0  0  0
    1.4500    1.2958    0.0000 C   0  0  0  0  0  0  0  0  0  0  0  0
  2  1  1  0  0  0  0
  3  1  1  0  0  0  0
  4  1  1  0  0  0  0
  5  8  1  0  0  0  0
  6  5  1  0  0  0  0
  7  2  1  0  0  0  0
  8  7  2  0  0  0  0
  9 14  1  0  0  0  0
 10 11  1  0  0  0  0
 11 21  1  0  0  0  0
 12 15  2  0  0  0  0
 13  6  1  0  0  0  0
 14 13  2  0  0  0  0
 15  9  1  0  0  0  0
 16  5  2  0  0  0  0
 17  3  1  0  0  0  0
 18  4  1  0  0  0  0
 19  3  2  0  0  0  0
 20  4  2  0  0  0  0
 21 22  2  0  0  0  0
 22 13  1  0  0  0  0
 23  2  2  0  0  0  0
 24 25  2  0  0  0  0
 25 23  1  0  0  0  0
 18 17  1  0  0  0  0
 24  8  1  0  0  0  0
 11  9  2  0  0  0  0
 12 10  1  0  0  0  0
M  END
> <IDNUMBER>
F0817-0075

> <Chemical_Name>
N-(1-benzothiophen-5-yl)-3-(2,5-dioxopyrrolidin-1-yl)benzamide

> <CAS>
477503-09-6

> <PriceCoeff>
1.00

> <MW>
350.39

> <Description>
solid

> <FSP3>
0.11

> <clogP>
1.96

> <TPSA>
94.72

> <Acceptor>
3

> <Donor>
1

> <RotBonds>
3

> <HAC>
25

> <Collection>
General

$$$$
F0817-0057
  -ISIS-  06222321142D

 25 28  0  0  0  0  0  0  0  0999 V2000
    2.1292    0.9958    0.0000 N   0  0  3  0  0  0  0  0  0  0  0  0
    2.6167    1.6833    0.0000 C   0  0  0  0  0  0  0  0  0  0  0  0
    2.7000    0.3458    0.0000 C   0  0  0  0  0  0  0  0  0  0  0  0
   -1.3208    0.9500    0.0000 C   0  0  0  0  0  0  0  0  0  0  0  0
   -1.7625    1.6958    0.0000 N   0  0  0  0  0  0  0  0  0  0  0  0
    1.2792    0.9500    0.0000 C   0  0  0  0  0  0  0  0  0  0  0  0
   -3.9208    2.4333    0.0000 C   0  0  0  0  0  0  0  0  0  0  0  0
   -5.2083    1.8708    0.0000 S   0  0  0  0  0  0  0  0  0  0  0  0
   -4.3625    1.6958    0.0000 C   0  0  0  0  0  0  0  0  0  0  0  0
   -0.4625    0.9500    0.0000 C   0  0  0  0  0  0  0  0  0  0  0  0
   -5.3000    2.7125    0.0000 C   0  0  0  0  0  0  0  0  0  0  0  0
   -2.6208    1.6958    0.0000 C   0  0  0  0  0  0  0  0  0  0  0  0
   -3.0625    2.4333    0.0000 C   0  0  0  0  0  0  0  0  0  0  0  0
   -4.5208    3.0708    0.0000 C   0  0  0  0  0  0  0  0  0  0  0  0
    3.4375    1.4833    0.0000 C   0  0  0  0  0  0  0  0  0  0  0  0
    3.4792    0.6500    0.0000 C   0  0  0  0  0  0  0  0  0  0  0  0
   -1.7625    0.1958    0.0000 O   0  0  0  0  0  0  0  0  0  0  0  0
    2.3042    2.5500    0.0000 O   0  0  0  0  0  0  0  0  0  0  0  0
    2.4875   -0.5500    0.0000 O   0  0  0  0  0  0  0  0  0  0  0  0
    0.8542    1.6958    0.0000 C   0  0  0  0  0  0  0  0  0  0  0  0
    0.8375    0.1708    0.0000 C   0  0  0  0  0  0  0  0  0  0  0  0
   -0.0208    1.6958    0.0000 C   0  0  0  0  0  0  0  0  0  0  0  0
   -0.0208    0.1958    0.0000 C   0  0  0  0  0  0  0  0  0  0  0  0
   -3.9208    0.9333    0.0000 C   0  0  0  0  0  0  0  0  0  0  0  0
   -3.0625    0.9125    0.0000 C   0  0  0  0  0  0  0  0  0  0  0  0
  2  1  1  0  0  0  0
  3  1  1  0  0  0  0
  4 10  1  0  0  0  0
  5  4  1  0  0  0  0
  6  1  1  0  0  0  0
  7 13  1  0  0  0  0
  8  9  1  0  0  0  0
  9 24  1  0  0  0  0
 10 23  2  0  0  0  0
 11 14  2  0  0  0  0
 12  5  1  0  0  0  0
 13 12  2  0  0  0  0
 14  7  1  0  0  0  0
 15  2  1  0  0  0  0
 16  3  1  0  0  0  0
 17  4  2  0  0  0  0
 18  2  2  0  0  0  0
 19  3  2  0  0  0  0
 20  6  1  0  0  0  0
 21  6  2  0  0  0  0
 22 20  2  0  0  0  0
 23 21  1  0  0  0  0
 24 25  2  0  0  0  0
 25 12  1  0  0  0  0
 16 15  1  0  0  0  0
 10 22  1  0  0  0  0
  9  7  2  0  0  0  0
 11  8  1  0  0  0  0
M  END
> <IDNUMBER>
F0817-0057

> <Chemical_Name>
N-(1-benzothiophen-5-yl)-4-(2,5-dioxopyrrolidin-1-yl)benzamide

> <CAS>
477502-91-3

> <PriceCoeff>
1.00

> <MW>
350.39

> <Description>
solid

> <FSP3>
0.11

> <clogP>
1.96

> <TPSA>
94.72

> <Acceptor>
3

> <Donor>
1

> <RotBonds>
3

> <HAC>
25

> <Collection>
General

$$$$
F3386-1380
  -ISIS-  06222321152D

 22 23  0  0  0  0  0  0  0  0999 V2000
    5.1250   -1.9375    0.0000 S   0  0  3  0  0  0  0  0  0  0  0  0
    4.3000   -1.9417    0.0000 C   0  0  0  0  0  0  0  0  0  0  0  0
    5.9500   -1.9250    0.0000 N   0  0  0  0  0  0  0  0  0  0  0  0
    6.7750   -1.9250    0.0000 C   0  0  0  0  0  0  0  0  0  0  0  0
    5.1167   -1.1125    0.0000 O   0  0  0  0  0  0  0  0  0  0  0  0
    5.1292   -2.7625    0.0000 O   0  0  0  0  0  0  0  0  0  0  0  0
    7.1792   -2.6375    0.0000 C   0  0  0  0  0  0  0  0  0  0  0  0
    3.8792   -1.2375    0.0000 C   0  0  0  0  0  0  0  0  0  0  0  0
    3.9042   -2.6542    0.0000 C   0  0  0  0  0  0  0  0  0  0  0  0
    7.1792   -1.2125    0.0000 C   0  0  0  0  0  0  0  0  0  0  0  0
    3.0667   -1.2417    0.0000 C   0  0  0  0  0  0  0  0  0  0  0  0
    8.0000   -1.2042    0.0000 C   0  0  0  0  0  0  0  0  0  0  0  0
    8.0042   -2.6292    0.0000 C   0  0  0  0  0  0  0  0  0  0  0  0
    3.0792   -2.6667    0.0000 C   0  0  0  0  0  0  0  0  0  0  0  0
    8.4167   -1.9167    0.0000 C   0  0  0  0  0  0  0  0  0  0  0  0
    2.6542   -1.9542    0.0000 C   0  0  0  0  0  0  0  0  0  0  0  0
    8.4167   -3.3500    0.0000 Cl  0  0  0  0  0  0  0  0  0  0  0  0
    6.7625   -0.5000    0.0000 O   0  0  0  0  0  0  0  0  0  0  0  0
    4.2917   -0.5167    0.0000 O   0  0  0  0  0  0  0  0  0  0  0  0
    5.1167   -0.5125    0.0000 C   0  0  0  0  0  0  0  0  0  0  0  0
    2.6750   -3.3917    0.0000 C   0  0  0  0  0  0  0  0  0  0  0  0
    5.5250    0.2083    0.0000 C   0  0  0  0  0  0  0  0  0  0  0  0
  2  1  1  0  0  0  0
  3  1  1  0  0  0  0
  4  3  1  0  0  0  0
  5  1  2  0  0  0  0
  6  1  2  0  0  0  0
  7  4  2  0  0  0  0
  8  2  2  0  0  0  0
  9  2  1  0  0  0  0
 10  4  1  0  0  0  0
 11  8  1  0  0  0  0
 12 10  2  0  0  0  0
 13  7  1  0  0  0  0
 14  9  2  0  0  0  0
 15 12  1  0  0  0  0
 16 14  1  0  0  0  0
 17 13  1  0  0  0  0
 18 10  1  0  0  0  0
 19  8  1  0  0  0  0
 20 19  1  0  0  0  0
 21 14  1  0  0  0  0
 22 20  1  0  0  0  0
 16 11  2  0  0  0  0
 15 13  2  0  0  0  0
M  END
> <IDNUMBER>
F3386-1380

> <Chemical_Name>
N-(5-chloro-2-hydroxyphenyl)-2-ethoxy-5-methylbenzene-1-sulfonamide

> <CAS>
1171535-55-9

> <PriceCoeff>
1.00

> <MW>
341.81

> <Description>
solid

> <FSP3>
0.20

> <clogP>
3.69

> <TPSA>
84.01

> <Acceptor>
5

> <Donor>
2

> <RotBonds>
5

> <HAC>
22

> <Collection>
General

$$$$
F1864-0146
  -ISIS-  06222321442D

 20 22  0  0  0  0  0  0  0  0999 V2000
    5.2292   -2.6250    0.0000 C   0  0  0  0  0  0  0  0  0  0  0  0
    4.5167   -1.3875    0.0000 C   0  0  0  0  0  0  0  0  0  0  0  0
    4.5167   -2.2125    0.0000 C   0  0  0  0  0  0  0  0  0  0  0  0
    5.2292   -0.9750    0.0000 O   0  0  0  0  0  0  0  0  0  0  0  0
    5.9500   -1.3875    0.0000 C   0  0  0  0  0  0  0  0  0  0  0  0
    5.9500   -2.2125    0.0000 C   0  0  0  0  0  0  0  0  0  0  0  0
    3.8042   -0.9750    0.0000 C   0  0  0  0  0  0  0  0  0  0  0  0
    3.8042   -2.6250    0.0000 C   0  0  0  0  0  0  0  0  0  0  0  0
    3.0917   -2.2125    0.0000 C   0  0  0  0  0  0  0  0  0  0  0  0
    3.0917   -1.3917    0.0000 C   0  0  0  0  0  0  0  0  0  0  0  0
    5.2375   -3.4500    0.0000 C   0  0  0  0  0  0  0  0  0  0  0  0
    5.9500   -3.8625    0.0000 N   0  0  3  0  0  0  0  0  0  0  0  0
    6.6667   -0.9667    0.0000 O   0  0  0  0  0  0  0  0  0  0  0  0
    2.3792   -2.6250    0.0000 Cl  0  0  0  0  0  0  0  0  0  0  0  0
    2.3750   -0.9792    0.0000 O   0  0  0  0  0  0  0  0  0  0  0  0
    6.6625   -3.4417    0.0000 C   0  0  0  0  0  0  0  0  0  0  0  0
    5.9500   -4.6792    0.0000 C   0  0  0  0  0  0  0  0  0  0  0  0
    6.6750   -5.0917    0.0000 C   0  0  0  0  0  0  0  0  0  0  0  0
    7.3792   -3.8542    0.0000 C   0  0  0  0  0  0  0  0  0  0  0  0
    7.3792   -4.6792    0.0000 C   0  0  0  0  0  0  0  0  0  0  0  0
  2  3  2  0  0  0  0
  3  1  1  0  0  0  0
  4  5  1  0  0  0  0
  5  6  1  0  0  0  0
  6  1  2  0  0  0  0
  7  2  1  0  0  0  0
  8  3  1  0  0  0  0
  9  8  2  0  0  0  0
 10  9  1  0  0  0  0
 11  1  1  0  0  0  0
 12 11  1  0  0  0  0
 13  5  2  0  0  0  0
 14  9  1  0  0  0  0
 15 10  1  0  0  0  0
 16 12  1  0  0  0  0
 17 12  1  0  0  0  0
 18 17  1  0  0  0  0
 19 16  1  0  0  0  0
 20 18  1  0  0  0  0
  2  4  1  0  0  0  0
  7 10  2  0  0  0  0
 19 20  1  0  0  0  0
M  END
> <IDNUMBER>
F1864-0146

> <Chemical_Name>
6-chloro-7-hydroxy-4-[(piperidin-1-yl)methyl]-2H-chromen-2-one

> <CAS>
849054-21-3

> <PriceCoeff>
1.00

> <MW>
293.75

> <Description>
solid

> <FSP3>
0.40

> <clogP>
3.07

> <TPSA>
49.77

> <Acceptor>
3

> <Donor>
2

> <RotBonds>
2

> <HAC>
20

> <Collection>
General

$$$$
F9995-0036
  -ISIS-  06222321472D

 19 21  0  0  0  0  0  0  0  0999 V2000
   -1.0958    0.6708    0.0000 C   0  0  0  0  0  0  0  0  0  0  0  0
   -1.5833    0.0083    0.0000 N   0  0  0  0  0  0  0  0  0  0  0  0
   -1.5833    1.3375    0.0000 S   0  0  0  0  0  0  0  0  0  0  0  0
   -2.3625    1.0833    0.0000 C   0  0  0  0  0  0  0  0  0  0  0  0
   -2.3625    0.2583    0.0000 C   0  0  0  0  0  0  0  0  0  0  0  0
   -3.0750    1.4958    0.0000 C   0  0  0  0  0  0  0  0  0  0  0  0
   -0.2708    0.6250    0.0000 C   0  0  0  0  0  0  0  0  0  0  0  0
   -3.0750   -0.1542    0.0000 C   0  0  0  0  0  0  0  0  0  0  0  0
    0.1167   -0.1042    0.0000 C   0  0  0  0  0  0  0  0  0  0  0  0
    0.1750    1.3208    0.0000 C   0  0  0  0  0  0  0  0  0  0  0  0
   -3.7958    1.0833    0.0000 C   0  0  0  0  0  0  0  0  0  0  0  0
    1.3917    0.5625    0.0000 C   0  0  0  0  0  0  0  0  0  0  0  0
   -3.7958    0.2583    0.0000 C   0  0  0  0  0  0  0  0  0  0  0  0
    2.2167    0.5458    0.0000 N   0  0  0  0  0  0  0  0  0  0  0  0
    1.0042    1.2875    0.0000 C   0  0  0  0  0  0  0  0  0  0  0  0
    0.9417   -0.1417    0.0000 C   0  0  0  0  0  0  0  0  0  0  0  0
   -4.5208    1.4958    0.0000 O   0  0  0  0  0  0  0  0  0  0  0  0
   -5.2250    1.0833    0.0000 C   0  0  0  0  0  0  0  0  0  0  0  0
   -5.9458    1.4875    0.0000 C   0  0  0  0  0  0  0  0  0  0  0  0
  2  1  2  0  0  0  0
  3  1  1  0  0  0  0
  4  3  1  0  0  0  0
  5  2  1  0  0  0  0
  6  4  2  0  0  0  0
  7  1  1  0  0  0  0
  8  5  2  0  0  0  0
  9  7  2  0  0  0  0
 10  7  1  0  0  0  0
 11  6  1  0  0  0  0
 12 15  1  0  0  0  0
 13  8  1  0  0  0  0
 14 12  1  0  0  0  0
 15 10  2  0  0  0  0
 16  9  1  0  0  0  0
 17 11  1  0  0  0  0
 18 17  1  0  0  0  0
 19 18  1  0  0  0  0
  4  5  1  0  0  0  0
 16 12  2  0  0  0  0
 11 13  2  0  0  0  0
M  END
> <IDNUMBER>
F9995-0036

> <Chemical_Name>
4-(6-ethoxy-1,3-benzothiazol-2-yl)aniline

> <CAS>
328109-15-5

> <PriceCoeff>
1.00

> <MW>
270.35

> <Description>
solid

> <FSP3>
0.13

> <clogP>
3.97

> <TPSA>
76.38

> <Acceptor>
3

> <Donor>
1

> <RotBonds>
3

> <HAC>
19

> <Collection>
General

> <Reference_compound>
CHEMBL2269944

> <Similarity>
0.8430

$$$$
F2763-0086
  -ISIS-  06222321152D

 24 26  0  0  0  0  0  0  0  0999 V2000
    0.6500    7.2792    0.0000 N   0  3  0  0  0  0  0  0  0  0  0  0
   -1.1708    5.9167    0.0000 C   0  0  0  0  0  0  0  0  0  0  0  0
   -1.7708    5.4792    0.0000 C   0  0  0  0  0  0  0  0  0  0  0  0
   -1.2583    6.6750    0.0000 C   0  0  0  0  0  0  0  0  0  0  0  0
    0.0417    6.8167    0.0000 C   0  0  0  0  0  0  0  0  0  0  0  0
   -0.6500    7.1167    0.0000 C   0  0  0  0  0  0  0  0  0  0  0  0
   -4.6708    6.4500    0.0000 C   0  0  3  0  0  0  0  0  0  0  0  0
   -3.9208    6.3750    0.0000 O   0  0  0  0  0  0  0  0  0  0  0  0
   -0.4833    5.6167    0.0000 C   0  0  0  0  0  0  0  0  0  0  0  0
   -4.9708    5.7625    0.0000 O   0  0  0  0  0  0  0  0  0  0  0  0
   -2.4625    5.7792    0.0000 N   0  0  0  0  0  0  0  0  0  0  0  0
    1.3417    6.9792    0.0000 O   0  5  0  0  0  0  0  0  0  0  0  0
    0.5542    8.0167    0.0000 O   0  0  0  0  0  0  0  0  0  0  0  0
    0.1250    6.0667    0.0000 C   0  0  0  0  0  0  0  0  0  0  0  0
   -3.7625    5.6417    0.0000 C   0  0  3  0  0  0  0  0  0  0  0  0
   -1.6958    4.7292    0.0000 O   0  0  0  0  0  0  0  0  0  0  0  0
   -1.9458    6.9792    0.0000 Cl  0  0  0  0  0  0  0  0  0  0  0  0
   -4.4083    5.2625    0.0000 C   0  0  0  0  0  0  0  0  0  0  0  0
   -3.0708    5.3375    0.0000 C   0  0  0  0  0  0  0  0  0  0  0  0
   -5.4083    6.5625    0.0000 C   0  0  0  0  0  0  0  0  0  0  0  0
   -4.2083    7.0292    0.0000 C   0  0  0  0  0  0  0  0  0  0  0  0
   -5.6833    7.2542    0.0000 C   0  0  0  0  0  0  0  0  0  0  0  0
   -4.4750    7.7292    0.0000 C   0  0  0  0  0  0  0  0  0  0  0  0
   -5.2208    7.8417    0.0000 C   0  0  0  0  0  0  0  0  0  0  0  0
  2  9  2  0  0  0  0
  3  2  1  0  0  0  0
  4  6  2  0  0  0  0
  5  1  1  0  0  0  0
  6  5  1  0  0  0  0
  7  8  1  0  0  0  0
  8 15  1  0  0  0  0
  9 14  1  0  0  0  0
 10 18  1  0  0  0  0
 11  3  1  0  0  0  0
 12  1  1  0  0  0  0
 13  1  2  0  0  0  0
 14  5  2  0  0  0  0
 15 19  1  0  0  0  0
 16  3  2  0  0  0  0
 17  4  1  0  0  0  0
 18 15  1  0  0  0  0
 19 11  1  0  0  0  0
 20  7  1  0  0  0  0
 21  7  1  0  0  0  0
 22 20  1  0  0  0  0
 23 21  1  0  0  0  0
 24 23  1  0  0  0  0
  4  2  1  0  0  0  0
 10  7  1  0  0  0  0
 24 22  1  0  0  0  0
M  CHG  2   1   1  12  -1
M  END
> <IDNUMBER>
F2763-0086

> <Chemical_Name>
2-chloro-N-({1,4-dioxaspiro[4.5]decan-2-yl}methyl)-4-nitrobenzamide

> <CAS>
899957-72-3

> <PriceCoeff>
1.00

> <MW>
354.79

> <Description>
solid

> <FSP3>
0.56

> <clogP>
3.00

> <TPSA>
90.70

> <Acceptor>
5

> <Donor>
1

> <RotBonds>
4

> <HAC>
24

> <Collection>
General

$$$$
F0526-0208
  -ISIS-  06222304342D

 34 36  0  0  0  0  0  0  0  0999 V2000
    3.4917    0.8000    0.0000 C   0  0  0  0  0  0  0  0  0  0  0  0
    3.0167    1.4708    0.0000 C   0  0  0  0  0  0  0  0  0  0  0  0
    2.2292    0.3958    0.0000 C   0  0  0  0  0  0  0  0  0  0  0  0
    2.2292    1.2208    0.0000 C   0  0  0  0  0  0  0  0  0  0  0  0
    3.0167    0.1375    0.0000 S   0  0  0  0  0  0  0  0  0  0  0  0
    3.0542   -2.7500    0.0000 N   0  0  3  0  0  0  0  0  0  0  0  0
    4.3167    0.7958    0.0000 N   0  0  0  0  0  0  0  0  0  0  0  0
    0.8042    0.3958    0.0000 N   0  0  3  0  0  0  0  0  0  0  0  0
    4.7292    0.0833    0.0000 C   0  0  0  0  0  0  0  0  0  0  0  0
    3.4167   -3.4917    0.0000 C   0  0  0  0  0  0  0  0  0  0  0  0
    2.2417   -2.8375    0.0000 C   0  0  0  0  0  0  0  0  0  0  0  0
    3.2667    2.2583    0.0000 C   0  0  0  0  0  0  0  0  0  0  0  0
    1.5167   -0.0167    0.0000 C   0  0  0  0  0  0  0  0  0  0  0  0
    1.5167    1.6333    0.0000 C   0  0  0  0  0  0  0  0  0  0  0  0
    3.4792   -2.0625    0.0000 C   0  0  0  0  0  0  0  0  0  0  0  0
    4.3167   -0.6292    0.0000 C   0  0  0  0  0  0  0  0  0  0  0  0
    0.8042    1.2208    0.0000 C   0  0  0  0  0  0  0  0  0  0  0  0
    5.5667    0.0833    0.0000 O   0  0  0  0  0  0  0  0  0  0  0  0
    2.1167   -3.6667    0.0000 C   0  0  0  0  0  0  0  0  0  0  0  0
    2.8042   -4.0625    0.0000 C   0  0  0  0  0  0  0  0  0  0  0  0
    1.6542   -2.2417    0.0000 O   0  0  0  0  0  0  0  0  0  0  0  0
    4.2292   -3.6542    0.0000 O   0  0  0  0  0  0  0  0  0  0  0  0
    2.7292    2.8833    0.0000 O   0  0  0  0  0  0  0  0  0  0  0  0
    4.3167   -2.0417    0.0000 C   0  0  0  0  0  0  0  0  0  0  0  0
    3.0917   -1.3292    0.0000 C   0  0  0  0  0  0  0  0  0  0  0  0
    4.7542   -1.3542    0.0000 C   0  0  0  0  0  0  0  0  0  0  0  0
    3.5042   -0.6125    0.0000 C   0  0  0  0  0  0  0  0  0  0  0  0
    0.0792   -0.0167    0.0000 C   0  0  3  0  0  0  0  0  0  0  0  0
    4.0792    2.4333    0.0000 O   0  0  0  0  0  0  0  0  0  0  0  0
    0.0917   -0.8542    0.0000 C   0  0  0  0  0  0  0  0  0  0  0  0
   -0.6208    0.3958    0.0000 C   0  0  0  0  0  0  0  0  0  0  0  0
    4.6292    1.8250    0.0000 C   0  0  0  0  0  0  0  0  0  0  0  0
    5.4375    2.0000    0.0000 C   0  0  0  0  0  0  0  0  0  0  0  0
    7.0834   -0.4375    0.0000 Cl  0  0  0  0  0  0  0  0  0  0  0  0
  3  5  1  0  0  0  0
  4  2  1  0  0  0  0
  5  1  1  0  0  0  0
  6 15  1  0  0  0  0
  7  1  1  0  0  0  0
  8 13  1  0  0  0  0
  9  7  1  0  0  0  0
 10  6  1  0  0  0  0
 11  6  1  0  0  0  0
 12  2  1  0  0  0  0
 13  3  1  0  0  0  0
 14  4  1  0  0  0  0
 15 25  2  0  0  0  0
 16  9  1  0  0  0  0
 17 14  1  0  0  0  0
 18  9  2  0  0  0  0
 19 11  1  0  0  0  0
 20 10  1  0  0  0  0
 21 11  2  0  0  0  0
 22 10  2  0  0  0  0
 23 12  2  0  0  0  0
 24 26  2  0  0  0  0
 25 27  1  0  0  0  0
 26 16  1  0  0  0  0
 27 16  2  0  0  0  0
 28  8  1  0  0  0  0
 29 12  1  0  0  0  0
 30 28  1  0  0  0  0
 31 28  1  0  0  0  0
 32 29  1  0  0  0  0
 33 32  1  0  0  0  0
  3  4  2  0  0  0  0
  8 17  1  0  0  0  0
 15 24  1  0  0  0  0
 20 19  1  0  0  0  0
  2  1  2  0  0  0  0
M  END
> <IDNUMBER>
F0526-0208

> <Chemical_Name>
ethyl 2-[4-(2,5-dioxopyrrolidin-1-yl)benzamido]-6-(propan-2-yl)-4H,5H,6H,7H-thieno[2,3-c]pyridine-3-carboxylate hydrochloride

> <CAS>
1330030-39-1

> <PriceCoeff>
1.00

> <MW>
469.55

> <Description>
solid

> <FSP3>
0.42

> <clogP>
2.45

> <TPSA>
124.26

> <Acceptor>
5

> <Donor>
2

> <RotBonds>
7

> <HAC>
33

> <Collection>
General

$$$$
F3205-0033
  -ISIS-  06222321462D

 22 23  0  0  0  0  0  0  0  0999 V2000
    4.4167   -6.4125    0.0000 N   0  0  3  0  0  0  0  0  0  0  0  0
    4.9042   -7.0792    0.0000 C   0  0  0  0  0  0  0  0  0  0  0  0
    4.9000   -5.7417    0.0000 C   0  0  0  0  0  0  0  0  0  0  0  0
    5.6917   -6.8167    0.0000 C   0  0  3  0  0  0  0  0  0  0  0  0
    7.1042   -6.9542    0.0000 C   0  0  0  0  0  0  0  0  0  0  0  0
    5.6875   -5.9917    0.0000 C   0  0  0  0  0  0  0  0  0  0  0  0
    7.7750   -7.4375    0.0000 C   0  0  0  0  0  0  0  0  0  0  0  0
    6.3542   -7.2917    0.0000 S   0  0  0  0  0  0  0  0  0  0  0  0
    7.6917   -8.2625    0.0000 C   0  0  0  0  0  0  0  0  0  0  0  0
    7.1792   -6.1417    0.0000 N   0  0  0  0  0  0  0  0  0  0  0  0
    4.6542   -7.8625    0.0000 O   0  0  0  0  0  0  0  0  0  0  0  0
    4.6417   -4.9542    0.0000 O   0  0  0  0  0  0  0  0  0  0  0  0
    8.3667   -8.7417    0.0000 O   0  0  0  0  0  0  0  0  0  0  0  0
    3.5917   -6.4167    0.0000 C   0  0  0  0  0  0  0  0  0  0  0  0
    6.9417   -8.6042    0.0000 O   0  0  0  0  0  0  0  0  0  0  0  0
    8.5250   -7.0917    0.0000 C   0  0  0  0  0  0  0  0  0  0  0  0
    3.1750   -5.7042    0.0000 C   0  0  0  0  0  0  0  0  0  0  0  0
    1.9292   -5.0000    0.0000 O   0  0  0  0  0  0  0  0  0  0  0  0
    7.9292   -5.8000    0.0000 C   0  0  0  0  0  0  0  0  0  0  0  0
    2.3542   -5.7125    0.0000 C   0  0  0  0  0  0  0  0  0  0  0  0
    1.1042   -5.0042    0.0000 C   0  0  0  0  0  0  0  0  0  0  0  0
    8.6042   -6.2792    0.0000 C   0  0  0  0  0  0  0  0  0  0  0  0
  2  1  1  0  0  0  0
  3  1  1  0  0  0  0
  4  2  1  0  0  0  0
  5  8  1  0  0  0  0
  6  3  1  0  0  0  0
  7  5  2  0  0  0  0
  8  4  1  0  0  0  0
  9  7  1  0  0  0  0
 10  5  1  0  0  0  0
 11  2  2  0  0  0  0
 12  3  2  0  0  0  0
 13  9  2  0  0  0  0
 14  1  1  0  0  0  0
 15  9  1  0  0  0  0
 16  7  1  0  0  0  0
 17 14  1  0  0  0  0
 18 20  1  0  0  0  0
 19 10  2  0  0  0  0
 20 17  1  0  0  0  0
 21 18  1  0  0  0  0
 22 19  1  0  0  0  0
  6  4  1  0  0  0  0
 16 22  2  0  0  0  0
M  END
> <IDNUMBER>
F3205-0033

> <Chemical_Name>
2-{[1-(3-methoxypropyl)-2,5-dioxopyrrolidin-3-yl]sulfanyl}pyridine-3-carboxylic acid

> <CAS>
881483-65-4

> <PriceCoeff>
1.00

> <MW>
324.35

> <Description>
solid

> <FSP3>
0.43

> <clogP>
1.11

> <TPSA>
122.10

> <Acceptor>
6

> <Donor>
1

> <RotBonds>
7

> <HAC>
22

> <Collection>
General

$$$$
F1813-1188
  -ISIS-  06222321142D

 26 29  0  0  0  0  0  0  0  0999 V2000
   -5.2958    3.8000    0.0000 C   0  0  0  0  0  0  0  0  0  0  0  0
   -1.0083    3.7958    0.0000 N   0  0  3  0  0  0  0  0  0  0  0  0
   -5.3833    2.9833    0.0000 N   0  0  0  0  0  0  0  0  0  0  0  0
   -4.5833    4.2042    0.0000 N   0  0  0  0  0  0  0  0  0  0  0  0
   -6.1917    2.7958    0.0000 C   0  0  0  0  0  0  0  0  0  0  0  0
   -6.0417    4.1292    0.0000 S   0  0  0  0  0  0  0  0  0  0  0  0
   -1.7208    4.2125    0.0000 C   0  0  0  0  0  0  0  0  0  0  0  0
   -3.8708    3.8000    0.0000 C   0  0  0  0  0  0  0  0  0  0  0  0
   -0.2375    4.0917    0.0000 C   0  0  0  0  0  0  0  0  0  0  0  0
   -0.9625    2.9708    0.0000 C   0  0  0  0  0  0  0  0  0  0  0  0
   -6.6042    3.5208    0.0000 C   0  0  0  0  0  0  0  0  0  0  0  0
   -2.4375    3.8083    0.0000 C   0  0  0  0  0  0  0  0  0  0  0  0
   -3.1583    4.2125    0.0000 C   0  0  0  0  0  0  0  0  0  0  0  0
   -6.6042    2.0833    0.0000 C   0  0  0  0  0  0  0  0  0  0  0  0
   -3.8708    2.9833    0.0000 O   0  0  0  0  0  0  0  0  0  0  0  0
   -0.1458    2.7708    0.0000 C   0  0  0  0  0  0  0  0  0  0  0  0
    0.2917    3.4708    0.0000 C   0  0  0  0  0  0  0  0  0  0  0  0
   -1.5958    2.4583    0.0000 O   0  0  0  0  0  0  0  0  0  0  0  0
   -0.0208    4.8875    0.0000 O   0  0  0  0  0  0  0  0  0  0  0  0
   -6.1875    1.3708    0.0000 F   0  0  0  0  0  0  0  0  0  0  0  0
   -1.7125    5.0292    0.0000 C   0  0  0  0  0  0  0  0  0  0  0  0
   -7.4292    3.5208    0.0000 C   0  0  0  0  0  0  0  0  0  0  0  0
   -3.1500    5.0417    0.0000 C   0  0  0  0  0  0  0  0  0  0  0  0
   -2.4333    5.4542    0.0000 C   0  0  0  0  0  0  0  0  0  0  0  0
   -7.8417    2.8000    0.0000 C   0  0  0  0  0  0  0  0  0  0  0  0
   -7.4292    2.0833    0.0000 C   0  0  0  0  0  0  0  0  0  0  0  0
  2  7  1  0  0  0  0
  3  1  2  0  0  0  0
  4  1  1  0  0  0  0
  5  3  1  0  0  0  0
  6  1  1  0  0  0  0
  7 12  1  0  0  0  0
  8  4  1  0  0  0  0
  9  2  1  0  0  0  0
 10  2  1  0  0  0  0
 11  6  1  0  0  0  0
 12 13  2  0  0  0  0
 13  8  1  0  0  0  0
 14  5  2  0  0  0  0
 15  8  2  0  0  0  0
 16 10  1  0  0  0  0
 17  9  1  0  0  0  0
 18 10  2  0  0  0  0
 19  9  2  0  0  0  0
 20 14  1  0  0  0  0
 21 24  1  0  0  0  0
 22 11  2  0  0  0  0
 23 13  1  0  0  0  0
 24 23  2  0  0  0  0
 25 22  1  0  0  0  0
 26 14  1  0  0  0  0
 11  5  1  0  0  0  0
 25 26  2  0  0  0  0
  7 21  2  0  0  0  0
 17 16  1  0  0  0  0
M  END
> <IDNUMBER>
F1813-1188

> <Chemical_Name>
3-(2,5-dioxopyrrolidin-1-yl)-N-(4-fluoro-1,3-benzothiazol-2-yl)benzamide

> <CAS>
897618-19-8

> <PriceCoeff>
1.00

> <MW>
369.37

> <Description>
solid

> <FSP3>
0.11

> <clogP>
1.77

> <TPSA>
107.61

> <Acceptor>
4

> <Donor>
1

> <RotBonds>
3

> <HAC>
26

> <Collection>
General

$$$$
F9994-5243
  -ISIS-  06222321162D

 14 14  0  0  0  0  0  0  0  0999 V2000
   -1.2583   -0.2875    0.0000 C   0  0  0  0  0  0  0  0  0  0  0  0
   -1.2583    0.5375    0.0000 C   0  0  0  0  0  0  0  0  0  0  0  0
   -1.9708    1.7750    0.0000 N   0  0  0  0  0  0  0  0  0  0  0  0
   -0.5375   -0.7000    0.0000 N   0  0  0  0  0  0  0  0  0  0  0  0
   -1.2583    2.1958    0.0000 C   0  0  0  0  0  0  0  0  0  0  0  0
    0.1750   -1.9375    0.0000 C   0  0  0  0  0  0  0  0  0  0  0  0
   -1.9708    0.9500    0.0000 C   0  0  0  0  0  0  0  0  0  0  0  0
   -1.9708   -0.7000    0.0000 O   0  0  0  0  0  0  0  0  0  0  0  0
   -0.5375    0.9500    0.0000 C   0  0  0  0  0  0  0  0  0  0  0  0
    0.1750   -2.7625    0.0000 O   0  0  0  0  0  0  0  0  0  0  0  0
   -0.5375   -1.5250    0.0000 C   0  0  0  0  0  0  0  0  0  0  0  0
   -0.5375    1.7833    0.0000 C   0  0  0  0  0  0  0  0  0  0  0  0
   -1.2583    3.0208    0.0000 Cl  0  0  0  0  0  0  0  0  0  0  0  0
    0.8917   -1.5250    0.0000 O   0  0  0  0  0  0  0  0  0  0  0  0
  2  1  1  0  0  0  0
  3  7  2  0  0  0  0
  4  1  1  0  0  0  0
  5 12  2  0  0  0  0
  6 11  1  0  0  0  0
  7  2  1  0  0  0  0
  8  1  2  0  0  0  0
  9  2  2  0  0  0  0
 10  6  2  0  0  0  0
 11  4  1  0  0  0  0
 12  9  1  0  0  0  0
 13  5  1  0  0  0  0
 14  6  1  0  0  0  0
  3  5  1  0  0  0  0
M  END
> <IDNUMBER>
F9994-5243

> <Chemical_Name>
2-[(6-chloropyridin-3-yl)formamido]acetic acid

> <CAS>
1099143-66-4

> <PriceCoeff>
1.00

> <MW>
214.61

> <Description>
solid

> <FSP3>
0.12

> <clogP>
0.69

> <TPSA>
79.29

> <Acceptor>
4

> <Donor>
2

> <RotBonds>
3

> <HAC>
14

> <Collection>
General

> <Reference_compound>
CHEMBL458725

> <Similarity>
0.8480

$$$$
F1300-0241
  -ISIS-  06222321452D

 27 30  0  0  0  0  0  0  0  0999 V2000
   -1.4958    3.2750    0.0000 C   0  0  0  0  0  0  0  0  0  0  0  0
    3.0667    3.7208    0.0000 N   0  0  3  0  0  0  0  0  0  0  0  0
   -1.7958    2.5083    0.0000 N   0  0  0  0  0  0  0  0  0  0  0  0
   -0.6958    3.4833    0.0000 N   0  0  0  0  0  0  0  0  0  0  0  0
   -2.6208    2.5583    0.0000 C   0  0  0  0  0  0  0  0  0  0  0  0
   -2.1333    3.8000    0.0000 S   0  0  0  0  0  0  0  0  0  0  0  0
   -0.1208    2.9000    0.0000 C   0  0  0  0  0  0  0  0  0  0  0  0
   -2.8208    3.3583    0.0000 C   0  0  0  0  0  0  0  0  0  0  0  0
    3.7125    3.2458    0.0000 C   0  0  0  0  0  0  0  0  0  0  0  0
    3.3292    4.4917    0.0000 C   0  0  0  0  0  0  0  0  0  0  0  0
   -3.2000    1.9750    0.0000 C   0  0  0  0  0  0  0  0  0  0  0  0
    2.2667    3.5208    0.0000 C   0  0  0  0  0  0  0  0  0  0  0  0
    0.6750    3.1083    0.0000 C   0  0  0  0  0  0  0  0  0  0  0  0
   -3.9958    2.1958    0.0000 C   0  0  0  0  0  0  0  0  0  0  0  0
   -0.3333    2.1125    0.0000 O   0  0  0  0  0  0  0  0  0  0  0  0
    4.3875    3.7083    0.0000 C   0  0  0  0  0  0  0  0  0  0  0  0
    4.1542    4.4792    0.0000 C   0  0  0  0  0  0  0  0  0  0  0  0
    3.7042    2.4208    0.0000 O   0  0  0  0  0  0  0  0  0  0  0  0
    2.8542    5.1792    0.0000 O   0  0  0  0  0  0  0  0  0  0  0  0
   -3.6208    3.5708    0.0000 C   0  0  0  0  0  0  0  0  0  0  0  0
    1.6917    4.1042    0.0000 C   0  0  0  0  0  0  0  0  0  0  0  0
    2.0417    2.7375    0.0000 C   0  0  0  0  0  0  0  0  0  0  0  0
    1.2417    2.5333    0.0000 C   0  0  0  0  0  0  0  0  0  0  0  0
    0.8917    3.9083    0.0000 C   0  0  0  0  0  0  0  0  0  0  0  0
   -4.2083    2.9958    0.0000 C   0  0  0  0  0  0  0  0  0  0  0  0
   -2.9875    1.1750    0.0000 C   0  0  0  0  0  0  0  0  0  0  0  0
   -4.5833    1.6125    0.0000 C   0  0  0  0  0  0  0  0  0  0  0  0
  2 12  1  0  0  0  0
  3  1  2  0  0  0  0
  4  1  1  0  0  0  0
  5  3  1  0  0  0  0
  6  1  1  0  0  0  0
  7  4  1  0  0  0  0
  8  6  1  0  0  0  0
  9  2  1  0  0  0  0
 10  2  1  0  0  0  0
 11  5  1  0  0  0  0
 12 21  1  0  0  0  0
 13  7  1  0  0  0  0
 14 11  2  0  0  0  0
 15  7  2  0  0  0  0
 16  9  1  0  0  0  0
 17 10  1  0  0  0  0
 18  9  2  0  0  0  0
 19 10  2  0  0  0  0
 20  8  1  0  0  0  0
 21 24  2  0  0  0  0
 22 23  1  0  0  0  0
 23 13  2  0  0  0  0
 24 13  1  0  0  0  0
 25 20  2  0  0  0  0
 26 11  1  0  0  0  0
 27 14  1  0  0  0  0
  8  5  2  0  0  0  0
 25 14  1  0  0  0  0
 22 12  2  0  0  0  0
 16 17  1  0  0  0  0
M  END
> <IDNUMBER>
F1300-0241

> <Chemical_Name>
N-(4,5-dimethyl-1,3-benzothiazol-2-yl)-4-(2,5-dioxopyrrolidin-1-yl)benzamide

> <CAS>
864860-78-6

> <PriceCoeff>
1.00

> <MW>
379.43

> <Description>
solid

> <FSP3>
0.20

> <clogP>
2.57

> <TPSA>
107.61

> <Acceptor>
4

> <Donor>
1

> <RotBonds>
3

> <HAC>
27

> <Collection>
General

$$$$
F1300-0252
  -ISIS-  06222321442D

 27 30  0  0  0  0  0  0  0  0999 V2000
   -1.4958    3.2750    0.0000 C   0  0  0  0  0  0  0  0  0  0  0  0
    2.6167    2.1458    0.0000 N   0  0  3  0  0  0  0  0  0  0  0  0
   -1.7958    2.5083    0.0000 N   0  0  0  0  0  0  0  0  0  0  0  0
   -0.6958    3.4833    0.0000 N   0  0  0  0  0  0  0  0  0  0  0  0
   -2.6208    2.5583    0.0000 C   0  0  0  0  0  0  0  0  0  0  0  0
   -2.1333    3.8000    0.0000 S   0  0  0  0  0  0  0  0  0  0  0  0
    2.0417    2.7333    0.0000 C   0  0  0  0  0  0  0  0  0  0  0  0
   -0.1208    2.9000    0.0000 C   0  0  0  0  0  0  0  0  0  0  0  0
   -2.8208    3.3583    0.0000 C   0  0  0  0  0  0  0  0  0  0  0  0
    2.4417    1.3375    0.0000 C   0  0  0  0  0  0  0  0  0  0  0  0
    3.4292    2.2375    0.0000 C   0  0  0  0  0  0  0  0  0  0  0  0
   -3.2000    1.9750    0.0000 C   0  0  0  0  0  0  0  0  0  0  0  0
    1.2417    2.5208    0.0000 C   0  0  0  0  0  0  0  0  0  0  0  0
    0.6667    3.1083    0.0000 C   0  0  0  0  0  0  0  0  0  0  0  0
   -3.9958    2.1958    0.0000 C   0  0  0  0  0  0  0  0  0  0  0  0
   -0.3333    2.1083    0.0000 O   0  0  0  0  0  0  0  0  0  0  0  0
    3.1750    0.9333    0.0000 C   0  0  0  0  0  0  0  0  0  0  0  0
    3.7792    1.4875    0.0000 C   0  0  0  0  0  0  0  0  0  0  0  0
    1.6917    1.0083    0.0000 O   0  0  0  0  0  0  0  0  0  0  0  0
    3.8417    2.9333    0.0000 O   0  0  0  0  0  0  0  0  0  0  0  0
   -3.6208    3.5708    0.0000 C   0  0  0  0  0  0  0  0  0  0  0  0
   -4.2083    2.9958    0.0000 C   0  0  0  0  0  0  0  0  0  0  0  0
    2.2667    3.5208    0.0000 C   0  0  0  0  0  0  0  0  0  0  0  0
   -2.9875    1.1750    0.0000 C   0  0  0  0  0  0  0  0  0  0  0  0
    0.8875    3.8958    0.0000 C   0  0  0  0  0  0  0  0  0  0  0  0
    1.6875    4.0917    0.0000 C   0  0  0  0  0  0  0  0  0  0  0  0
   -4.5833    1.6125    0.0000 C   0  0  0  0  0  0  0  0  0  0  0  0
  2  7  1  0  0  0  0
  3  1  2  0  0  0  0
  4  1  1  0  0  0  0
  5  3  1  0  0  0  0
  6  1  1  0  0  0  0
  7 13  1  0  0  0  0
  8  4  1  0  0  0  0
  9  6  1  0  0  0  0
 10  2  1  0  0  0  0
 11  2  1  0  0  0  0
 12  5  1  0  0  0  0
 13 14  2  0  0  0  0
 14  8  1  0  0  0  0
 15 12  2  0  0  0  0
 16  8  2  0  0  0  0
 17 10  1  0  0  0  0
 18 11  1  0  0  0  0
 19 10  2  0  0  0  0
 20 11  2  0  0  0  0
 21  9  1  0  0  0  0
 22 21  2  0  0  0  0
 23 26  1  0  0  0  0
 24 12  1  0  0  0  0
 25 14  1  0  0  0  0
 26 25  2  0  0  0  0
 27 15  1  0  0  0  0
  9  5  2  0  0  0  0
 22 15  1  0  0  0  0
 23  7  2  0  0  0  0
 17 18  1  0  0  0  0
M  END
> <IDNUMBER>
F1300-0252

> <Chemical_Name>
N-(4,5-dimethyl-1,3-benzothiazol-2-yl)-3-(2,5-dioxopyrrolidin-1-yl)benzamide

> <CAS>
864860-79-7

> <PriceCoeff>
1.00

> <MW>
379.43

> <Description>
solid

> <FSP3>
0.20

> <clogP>
2.57

> <TPSA>
107.61

> <Acceptor>
4

> <Donor>
1

> <RotBonds>
3

> <HAC>
27

> <Collection>
General

$$$$
F1813-0349
  -ISIS-  06222321452D

 27 30  0  0  0  0  0  0  0  0999 V2000
   -6.0000    3.3958    0.0000 C   0  0  0  0  0  0  0  0  0  0  0  0
   -1.7250    5.0167    0.0000 N   0  0  3  0  0  0  0  0  0  0  0  0
   -6.0792    2.5625    0.0000 N   0  0  0  0  0  0  0  0  0  0  0  0
   -5.2958    3.8083    0.0000 N   0  0  0  0  0  0  0  0  0  0  0  0
   -6.8917    2.3958    0.0000 C   0  0  0  0  0  0  0  0  0  0  0  0
   -6.7542    3.7333    0.0000 S   0  0  0  0  0  0  0  0  0  0  0  0
   -7.3042    3.1125    0.0000 C   0  0  0  0  0  0  0  0  0  0  0  0
   -4.5833    3.3958    0.0000 C   0  0  0  0  0  0  0  0  0  0  0  0
   -0.9625    4.7167    0.0000 C   0  0  0  0  0  0  0  0  0  0  0  0
   -1.6708    5.8417    0.0000 C   0  0  0  0  0  0  0  0  0  0  0  0
   -2.4458    4.6042    0.0000 C   0  0  0  0  0  0  0  0  0  0  0  0
   -3.8708    3.8000    0.0000 C   0  0  0  0  0  0  0  0  0  0  0  0
   -7.3042    1.6833    0.0000 C   0  0  0  0  0  0  0  0  0  0  0  0
   -8.1292    3.1083    0.0000 C   0  0  0  0  0  0  0  0  0  0  0  0
   -4.5833    2.5708    0.0000 O   0  0  0  0  0  0  0  0  0  0  0  0
   -0.8625    6.0417    0.0000 C   0  0  0  0  0  0  0  0  0  0  0  0
   -0.4458    5.3417    0.0000 C   0  0  0  0  0  0  0  0  0  0  0  0
   -2.3083    6.3917    0.0000 O   0  0  0  0  0  0  0  0  0  0  0  0
   -0.7625    3.9250    0.0000 O   0  0  0  0  0  0  0  0  0  0  0  0
   -3.1583    5.0292    0.0000 C   0  0  0  0  0  0  0  0  0  0  0  0
   -2.4500    3.8000    0.0000 C   0  0  0  0  0  0  0  0  0  0  0  0
   -3.1625    3.3958    0.0000 C   0  0  0  0  0  0  0  0  0  0  0  0
   -3.8708    4.6250    0.0000 C   0  0  0  0  0  0  0  0  0  0  0  0
   -8.5292    2.3958    0.0000 C   0  0  0  0  0  0  0  0  0  0  0  0
   -8.1292    1.6833    0.0000 C   0  0  0  0  0  0  0  0  0  0  0  0
   -6.8917    0.9750    0.0000 C   0  0  0  0  0  0  0  0  0  0  0  0
   -8.5417    3.8208    0.0000 C   0  0  0  0  0  0  0  0  0  0  0  0
  2 11  1  0  0  0  0
  3  1  2  0  0  0  0
  4  1  1  0  0  0  0
  5  3  1  0  0  0  0
  6  1  1  0  0  0  0
  7  6  1  0  0  0  0
  8  4  1  0  0  0  0
  9  2  1  0  0  0  0
 10  2  1  0  0  0  0
 11 20  1  0  0  0  0
 12  8  1  0  0  0  0
 13  5  2  0  0  0  0
 14  7  2  0  0  0  0
 15  8  2  0  0  0  0
 16 10  1  0  0  0  0
 17  9  1  0  0  0  0
 18 10  2  0  0  0  0
 19  9  2  0  0  0  0
 20 23  2  0  0  0  0
 21 22  1  0  0  0  0
 22 12  2  0  0  0  0
 23 12  1  0  0  0  0
 24 14  1  0  0  0  0
 25 13  1  0  0  0  0
 26 13  1  0  0  0  0
 27 14  1  0  0  0  0
  7  5  1  0  0  0  0
 24 25  2  0  0  0  0
 21 11  2  0  0  0  0
 16 17  1  0  0  0  0
M  END
> <IDNUMBER>
F1813-0349

> <Chemical_Name>
N-(4,7-dimethyl-1,3-benzothiazol-2-yl)-4-(2,5-dioxopyrrolidin-1-yl)benzamide

> <CAS>
897618-00-7

> <PriceCoeff>
1.00

> <MW>
379.43

> <Description>
solid

> <FSP3>
0.20

> <clogP>
2.62

> <TPSA>
107.61

> <Acceptor>
4

> <Donor>
1

> <RotBonds>
3

> <HAC>
27

> <Collection>
General

$$$$
F1813-0352
  -ISIS-  06222321142D

 27 30  0  0  0  0  0  0  0  0999 V2000
   -6.0000    3.3958    0.0000 C   0  0  0  0  0  0  0  0  0  0  0  0
   -1.7250    5.0167    0.0000 N   0  0  3  0  0  0  0  0  0  0  0  0
   -6.0792    2.5625    0.0000 N   0  0  0  0  0  0  0  0  0  0  0  0
   -5.2958    3.8083    0.0000 N   0  0  0  0  0  0  0  0  0  0  0  0
   -6.8917    2.3958    0.0000 C   0  0  0  0  0  0  0  0  0  0  0  0
   -6.7542    3.7333    0.0000 S   0  0  0  0  0  0  0  0  0  0  0  0
   -7.3042    3.1083    0.0000 C   0  0  0  0  0  0  0  0  0  0  0  0
   -4.5833    3.3958    0.0000 C   0  0  0  0  0  0  0  0  0  0  0  0
   -0.9625    4.7167    0.0000 C   0  0  0  0  0  0  0  0  0  0  0  0
   -1.6708    5.8417    0.0000 C   0  0  0  0  0  0  0  0  0  0  0  0
   -8.1292    3.1125    0.0000 C   0  0  0  0  0  0  0  0  0  0  0  0
   -2.4458    4.6042    0.0000 C   0  0  0  0  0  0  0  0  0  0  0  0
   -3.8708    3.8000    0.0000 C   0  0  0  0  0  0  0  0  0  0  0  0
   -7.3042    1.6833    0.0000 C   0  0  0  0  0  0  0  0  0  0  0  0
   -8.5292    2.3958    0.0000 C   0  0  0  0  0  0  0  0  0  0  0  0
   -4.5833    2.5708    0.0000 O   0  0  0  0  0  0  0  0  0  0  0  0
   -0.4458    5.3417    0.0000 C   0  0  0  0  0  0  0  0  0  0  0  0
   -0.8625    6.0417    0.0000 C   0  0  0  0  0  0  0  0  0  0  0  0
   -0.7625    3.9250    0.0000 O   0  0  0  0  0  0  0  0  0  0  0  0
   -2.3083    6.3917    0.0000 O   0  0  0  0  0  0  0  0  0  0  0  0
   -8.1250    1.6833    0.0000 C   0  0  0  0  0  0  0  0  0  0  0  0
   -3.1583    5.0292    0.0000 C   0  0  0  0  0  0  0  0  0  0  0  0
   -2.4500    3.8000    0.0000 C   0  0  0  0  0  0  0  0  0  0  0  0
   -3.1625    3.3958    0.0000 C   0  0  0  0  0  0  0  0  0  0  0  0
   -3.8708    4.6250    0.0000 C   0  0  0  0  0  0  0  0  0  0  0  0
   -8.5292    3.8333    0.0000 C   0  0  0  0  0  0  0  0  0  0  0  0
   -8.5292    0.9708    0.0000 C   0  0  0  0  0  0  0  0  0  0  0  0
  2 12  1  0  0  0  0
  3  1  2  0  0  0  0
  4  1  1  0  0  0  0
  5  3  1  0  0  0  0
  6  1  1  0  0  0  0
  7  6  1  0  0  0  0
  8  4  1  0  0  0  0
  9  2  1  0  0  0  0
 10  2  1  0  0  0  0
 11  7  2  0  0  0  0
 12 22  1  0  0  0  0
 13  8  1  0  0  0  0
 14  5  2  0  0  0  0
 15 11  1  0  0  0  0
 16  8  2  0  0  0  0
 17  9  1  0  0  0  0
 18 10  1  0  0  0  0
 19  9  2  0  0  0  0
 20 10  2  0  0  0  0
 21 14  1  0  0  0  0
 22 25  2  0  0  0  0
 23 24  1  0  0  0  0
 24 13  2  0  0  0  0
 25 13  1  0  0  0  0
 26 11  1  0  0  0  0
 27 21  1  0  0  0  0
  7  5  1  0  0  0  0
 15 21  2  0  0  0  0
 23 12  2  0  0  0  0
 18 17  1  0  0  0  0
M  END
> <IDNUMBER>
F1813-0352

> <Chemical_Name>
N-(5,7-dimethyl-1,3-benzothiazol-2-yl)-4-(2,5-dioxopyrrolidin-1-yl)benzamide

> <CAS>
897618-01-8

> <PriceCoeff>
1.00

> <MW>
379.43

> <Description>
solid

> <FSP3>
0.20

> <clogP>
2.62

> <TPSA>
107.61

> <Acceptor>
4

> <Donor>
1

> <RotBonds>
3

> <HAC>
27

> <Collection>
General

$$$$
F1015-0025
  -ISIS-  06222321142D

 31 34  0  0  0  0  0  0  0  0999 V2000
   -1.1500    0.5208    0.0000 C   0  0  0  0  0  0  0  0  0  0  0  0
   -1.4500    0.9625    0.0000 C   0  0  0  0  0  0  0  0  0  0  0  0
   -1.9500    0.8000    0.0000 C   0  0  0  0  0  0  0  0  0  0  0  0
   -1.9500    0.2625    0.0000 C   0  0  0  0  0  0  0  0  0  0  0  0
   -1.4500    0.1000    0.0000 S   0  0  0  0  0  0  0  0  0  0  0  0
    1.8167    0.0708    0.0000 N   0  0  3  0  0  0  0  0  0  0  0  0
   -0.6125    0.5208    0.0000 N   0  0  0  0  0  0  0  0  0  0  0  0
   -0.3333    0.0625    0.0000 C   0  0  0  0  0  0  0  0  0  0  0  0
    2.1292    0.5000    0.0000 C   0  0  0  0  0  0  0  0  0  0  0  0
    2.1292   -0.3292    0.0000 C   0  0  0  0  0  0  0  0  0  0  0  0
   -1.2500    1.4833    0.0000 C   0  0  0  0  0  0  0  0  0  0  0  0
    1.2875    0.0625    0.0000 C   0  0  0  0  0  0  0  0  0  0  0  0
   -2.4125    1.0833    0.0000 C   0  0  0  0  0  0  0  0  0  0  0  0
    0.2042    0.0625    0.0000 C   0  0  0  0  0  0  0  0  0  0  0  0
   -2.4125   -0.0000    0.0000 C   0  0  0  0  0  0  0  0  0  0  0  0
   -0.6125   -0.4167    0.0000 O   0  0  0  0  0  0  0  0  0  0  0  0
    2.6292    0.3458    0.0000 C   0  0  0  0  0  0  0  0  0  0  0  0
    2.6375   -0.1667    0.0000 C   0  0  0  0  0  0  0  0  0  0  0  0
    1.9542    1.0333    0.0000 O   0  0  0  0  0  0  0  0  0  0  0  0
    1.9875   -0.8792    0.0000 O   0  0  0  0  0  0  0  0  0  0  0  0
   -0.7333    1.5833    0.0000 O   0  0  0  0  0  0  0  0  0  0  0  0
    1.0042   -0.4167    0.0000 C   0  0  0  0  0  0  0  0  0  0  0  0
    1.0292    0.5208    0.0000 C   0  0  0  0  0  0  0  0  0  0  0  0
    0.4875    0.5208    0.0000 C   0  0  0  0  0  0  0  0  0  0  0  0
    0.4667   -0.4167    0.0000 C   0  0  0  0  0  0  0  0  0  0  0  0
   -1.6125    1.9000    0.0000 O   0  0  0  0  0  0  0  0  0  0  0  0
   -2.8958    0.8208    0.0000 C   0  0  0  0  0  0  0  0  0  0  0  0
   -2.8958    0.2625    0.0000 C   0  0  3  0  0  0  0  0  0  0  0  0
   -1.4333    2.4000    0.0000 C   0  0  0  0  0  0  0  0  0  0  0  0
   -3.3500   -0.0167    0.0000 C   0  0  0  0  0  0  0  0  0  0  0  0
   -1.7958    2.8000    0.0000 C   0  0  0  0  0  0  0  0  0  0  0  0
  2  1  2  0  0  0  0
  3  2  1  0  0  0  0
  4  5  1  0  0  0  0
  5  1  1  0  0  0  0
  6 12  1  0  0  0  0
  7  1  1  0  0  0  0
  8  7  1  0  0  0  0
  9  6  1  0  0  0  0
 10  6  1  0  0  0  0
 11  2  1  0  0  0  0
 12 22  2  0  0  0  0
 13  3  1  0  0  0  0
 14  8  1  0  0  0  0
 15  4  1  0  0  0  0
 16  8  2  0  0  0  0
 17  9  1  0  0  0  0
 18 10  1  0  0  0  0
 19  9  2  0  0  0  0
 20 10  2  0  0  0  0
 21 11  2  0  0  0  0
 22 25  1  0  0  0  0
 23 24  2  0  0  0  0
 24 14  1  0  0  0  0
 25 14  2  0  0  0  0
 26 11  1  0  0  0  0
 27 13  1  0  0  0  0
 28 15  1  0  0  0  0
 29 26  1  0  0  0  0
 30 28  1  0  0  0  0
 31 29  1  0  0  0  0
  3  4  2  0  0  0  0
 27 28  1  0  0  0  0
 23 12  1  0  0  0  0
 18 17  1  0  0  0  0
M  END
> <IDNUMBER>
F1015-0025

> <Chemical_Name>
ethyl 2-[4-(2,5-dioxopyrrolidin-1-yl)benzamido]-6-methyl-4,5,6,7-tetrahydro-1-benzothiophene-3-carboxylate

> <CAS>
681236-05-5

> <PriceCoeff>
1.00

> <MW>
440.51

> <Description>
solid

> <FSP3>
0.39

> <clogP>
3.58

> <TPSA>
121.02

> <Acceptor>
5

> <Donor>
1

> <RotBonds>
6

> <HAC>
31

> <Collection>
General

$$$$
F1813-1164
  -ISIS-  06222321142D

 26 29  0  0  0  0  0  0  0  0999 V2000
   -5.2958    3.8000    0.0000 C   0  0  0  0  0  0  0  0  0  0  0  0
   -0.9958    5.4375    0.0000 N   0  0  3  0  0  0  0  0  0  0  0  0
   -5.3833    2.9833    0.0000 N   0  0  0  0  0  0  0  0  0  0  0  0
   -4.5833    4.2042    0.0000 N   0  0  0  0  0  0  0  0  0  0  0  0
   -6.1917    2.7958    0.0000 C   0  0  0  0  0  0  0  0  0  0  0  0
   -6.0417    4.1292    0.0000 S   0  0  0  0  0  0  0  0  0  0  0  0
   -3.8708    3.8000    0.0000 C   0  0  0  0  0  0  0  0  0  0  0  0
   -0.9375    6.2667    0.0000 C   0  0  0  0  0  0  0  0  0  0  0  0
   -0.2333    5.1375    0.0000 C   0  0  0  0  0  0  0  0  0  0  0  0
   -6.6042    3.5208    0.0000 C   0  0  0  0  0  0  0  0  0  0  0  0
   -1.7125    5.0292    0.0000 C   0  0  0  0  0  0  0  0  0  0  0  0
   -3.1583    4.2125    0.0000 C   0  0  0  0  0  0  0  0  0  0  0  0
   -6.6042    2.0833    0.0000 C   0  0  0  0  0  0  0  0  0  0  0  0
   -3.8708    2.9833    0.0000 O   0  0  0  0  0  0  0  0  0  0  0  0
    0.2917    5.7667    0.0000 C   0  0  0  0  0  0  0  0  0  0  0  0
   -0.1333    6.4667    0.0000 C   0  0  0  0  0  0  0  0  0  0  0  0
   -0.0333    4.3292    0.0000 O   0  0  0  0  0  0  0  0  0  0  0  0
   -1.5833    6.8125    0.0000 O   0  0  0  0  0  0  0  0  0  0  0  0
   -1.7333    4.2042    0.0000 C   0  0  0  0  0  0  0  0  0  0  0  0
   -2.4333    5.4542    0.0000 C   0  0  0  0  0  0  0  0  0  0  0  0
   -3.1500    5.0417    0.0000 C   0  0  0  0  0  0  0  0  0  0  0  0
   -2.4458    3.8083    0.0000 C   0  0  0  0  0  0  0  0  0  0  0  0
   -6.1875    1.3708    0.0000 F   0  0  0  0  0  0  0  0  0  0  0  0
   -7.4292    3.5208    0.0000 C   0  0  0  0  0  0  0  0  0  0  0  0
   -7.8417    2.8000    0.0000 C   0  0  0  0  0  0  0  0  0  0  0  0
   -7.4292    2.0833    0.0000 C   0  0  0  0  0  0  0  0  0  0  0  0
  2 11  1  0  0  0  0
  3  1  2  0  0  0  0
  4  1  1  0  0  0  0
  5  3  1  0  0  0  0
  6  1  1  0  0  0  0
  7  4  1  0  0  0  0
  8  2  1  0  0  0  0
  9  2  1  0  0  0  0
 10  6  1  0  0  0  0
 11 19  2  0  0  0  0
 12  7  1  0  0  0  0
 13  5  2  0  0  0  0
 14  7  2  0  0  0  0
 15  9  1  0  0  0  0
 16  8  1  0  0  0  0
 17  9  2  0  0  0  0
 18  8  2  0  0  0  0
 19 22  1  0  0  0  0
 20 21  2  0  0  0  0
 21 12  1  0  0  0  0
 22 12  2  0  0  0  0
 23 13  1  0  0  0  0
 24 10  2  0  0  0  0
 25 24  1  0  0  0  0
 26 13  1  0  0  0  0
 10  5  1  0  0  0  0
 25 26  2  0  0  0  0
 20 11  1  0  0  0  0
 16 15  1  0  0  0  0
M  END
> <IDNUMBER>
F1813-1164

> <Chemical_Name>
4-(2,5-dioxopyrrolidin-1-yl)-N-(4-fluoro-1,3-benzothiazol-2-yl)benzamide

> <CAS>
897618-18-7

> <PriceCoeff>
1.00

> <MW>
369.37

> <Description>
solid

> <FSP3>
0.11

> <clogP>
1.77

> <TPSA>
107.61

> <Acceptor>
4

> <Donor>
1

> <RotBonds>
3

> <HAC>
26

> <Collection>
General

$$$$
F3386-1386
  -ISIS-  06222321462D

 23 24  0  0  0  0  0  0  0  0999 V2000
    5.1250   -1.9375    0.0000 S   0  0  3  0  0  0  0  0  0  0  0  0
    4.3000   -1.9417    0.0000 C   0  0  0  0  0  0  0  0  0  0  0  0
    5.9500   -1.9250    0.0000 N   0  0  0  0  0  0  0  0  0  0  0  0
    3.9042   -2.6542    0.0000 C   0  0  0  0  0  0  0  0  0  0  0  0
    6.7750   -1.9250    0.0000 C   0  0  0  0  0  0  0  0  0  0  0  0
    3.8792   -1.2375    0.0000 C   0  0  0  0  0  0  0  0  0  0  0  0
    3.0792   -2.6667    0.0000 C   0  0  0  0  0  0  0  0  0  0  0  0
    5.1292   -2.7625    0.0000 O   0  0  0  0  0  0  0  0  0  0  0  0
    5.1167   -1.1125    0.0000 O   0  0  0  0  0  0  0  0  0  0  0  0
    7.1792   -2.6375    0.0000 C   0  0  0  0  0  0  0  0  0  0  0  0
    3.0667   -1.2417    0.0000 C   0  0  0  0  0  0  0  0  0  0  0  0
    2.6542   -1.9542    0.0000 C   0  0  0  0  0  0  0  0  0  0  0  0
    7.1792   -1.2125    0.0000 C   0  0  0  0  0  0  0  0  0  0  0  0
    8.0000   -1.2042    0.0000 C   0  0  0  0  0  0  0  0  0  0  0  0
    8.0042   -2.6292    0.0000 C   0  0  0  0  0  0  0  0  0  0  0  0
    4.2917   -0.5167    0.0000 O   0  0  0  0  0  0  0  0  0  0  0  0
    2.6750   -3.3917    0.0000 O   0  0  0  0  0  0  0  0  0  0  0  0
    8.4167   -1.9167    0.0000 C   0  0  0  0  0  0  0  0  0  0  0  0
    8.4167   -3.3500    0.0000 Cl  0  0  0  0  0  0  0  0  0  0  0  0
    6.7625   -0.5000    0.0000 O   0  0  0  0  0  0  0  0  0  0  0  0
    1.8292   -1.9667    0.0000 C   0  0  0  0  0  0  0  0  0  0  0  0
    5.1167   -0.5125    0.0000 C   0  0  0  0  0  0  0  0  0  0  0  0
    1.8500   -3.4042    0.0000 C   0  0  0  0  0  0  0  0  0  0  0  0
  2  1  1  0  0  0  0
  3  1  1  0  0  0  0
  4  2  1  0  0  0  0
  5  3  1  0  0  0  0
  6  2  2  0  0  0  0
  7  4  2  0  0  0  0
  8  1  2  0  0  0  0
  9  1  2  0  0  0  0
 10  5  2  0  0  0  0
 11  6  1  0  0  0  0
 12 11  2  0  0  0  0
 13  5  1  0  0  0  0
 14 13  2  0  0  0  0
 15 10  1  0  0  0  0
 16  6  1  0  0  0  0
 17  7  1  0  0  0  0
 18 14  1  0  0  0  0
 19 15  1  0  0  0  0
 20 13  1  0  0  0  0
 21 12  1  0  0  0  0
 22 16  1  0  0  0  0
 23 17  1  0  0  0  0
  7 12  1  0  0  0  0
 18 15  2  0  0  0  0
M  END
> <IDNUMBER>
F3386-1386

> <Chemical_Name>
N-(5-chloro-2-hydroxyphenyl)-2,5-dimethoxy-4-methylbenzene-1-sulfonamide

> <CAS>
1170882-42-4

> <PriceCoeff>
1.00

> <MW>
357.81

> <Description>
solid

> <FSP3>
0.20

> <clogP>
3.17

> <TPSA>
93.24

> <Acceptor>
6

> <Donor>
2

> <RotBonds>
5

> <HAC>
23

> <Collection>
General

$$$$
F5971-0150
  -ISIS-  06222321462D

 21 22  0  0  0  0  0  0  0  0999 V2000
   -6.0042    0.5125    0.0000 C   0  0  0  0  0  0  0  0  0  0  0  0
   -4.5833    3.8000    0.0000 C   0  0  0  0  0  0  0  0  0  0  0  0
   -4.5833    2.9833    0.0000 C   0  0  0  0  0  0  0  0  0  0  0  0
   -5.2958    0.1083    0.0000 C   0  0  0  0  0  0  0  0  0  0  0  0
   -6.6250   -0.0542    0.0000 O   0  0  0  0  0  0  0  0  0  0  0  0
   -5.3000    2.5708    0.0000 C   0  0  0  0  0  0  0  0  0  0  0  0
   -5.4708   -0.7125    0.0000 O   0  0  0  0  0  0  0  0  0  0  0  0
   -3.1500    5.4500    0.0000 C   0  0  3  0  0  0  0  0  0  0  0  0
   -6.2792   -0.8042    0.0000 C   0  0  0  0  0  0  0  0  0  0  0  0
   -3.8625    4.2125    0.0000 N   0  0  0  0  0  0  0  0  0  0  0  0
   -6.0042    1.3375    0.0000 C   0  0  0  0  0  0  0  0  0  0  0  0
   -5.2958    4.2042    0.0000 O   0  0  0  0  0  0  0  0  0  0  0  0
   -5.3000    1.7458    0.0000 C   0  0  0  0  0  0  0  0  0  0  0  0
   -4.5833    0.5083    0.0000 C   0  0  0  0  0  0  0  0  0  0  0  0
   -3.8625    5.0292    0.0000 C   0  0  0  0  0  0  0  0  0  0  0  0
   -3.5583    6.1542    0.0000 O   0  0  0  0  0  0  0  0  0  0  0  0
   -4.5958    1.3333    0.0000 C   0  0  0  0  0  0  0  0  0  0  0  0
   -2.4458    5.8667    0.0000 C   0  0  0  0  0  0  0  0  0  0  0  0
   -1.7250    5.4542    0.0000 O   0  0  0  0  0  0  0  0  0  0  0  0
   -2.7333    4.7167    0.0000 C   0  0  0  0  0  0  0  0  0  0  0  0
   -1.0125    5.8667    0.0000 C   0  0  0  0  0  0  0  0  0  0  0  0
  2  3  1  0  0  0  0
  3  6  2  0  0  0  0
  4  1  1  0  0  0  0
  5  1  1  0  0  0  0
  6 13  1  0  0  0  0
  7  4  1  0  0  0  0
  8 15  1  0  0  0  0
  9  5  1  0  0  0  0
 10  2  1  0  0  0  0
 11  1  2  0  0  0  0
 12  2  2  0  0  0  0
 13 11  1  0  0  0  0
 14  4  2  0  0  0  0
 15 10  1  0  0  0  0
 16  8  1  0  0  0  0
 17 13  2  0  0  0  0
 18  8  1  0  0  0  0
 19 18  1  0  0  0  0
 20  8  1  0  0  0  0
 21 19  1  0  0  0  0
  7  9  1  0  0  0  0
 17 14  1  0  0  0  0
M  END
> <IDNUMBER>
F5971-0150

> <Chemical_Name>
(2E)-3-(2H-1,3-benzodioxol-5-yl)-N-(2-hydroxy-3-methoxy-2-methylpropyl)prop-2-enamide

> <CAS>
1334377-01-3

> <PriceCoeff>
1.00

> <MW>
293.32

> <Description>
oil

> <FSP3>
0.40

> <clogP>
1.50

> <TPSA>
77.02

> <Acceptor>
5

> <Donor>
2

> <RotBonds>
6

> <HAC>
21

> <Collection>
General

> <Reference_compound>
CHEMBL252709

> <Similarity>
0.8010

$$$$
F3386-1379
  -ISIS-  06222321152D

 21 22  0  0  0  0  0  0  0  0999 V2000
    4.0167   -0.1792    0.0000 S   0  0  3  0  0  0  0  0  0  0  0  0
    4.8417   -0.1667    0.0000 N   0  0  0  0  0  0  0  0  0  0  0  0
    5.6667   -0.1667    0.0000 C   0  0  0  0  0  0  0  0  0  0  0  0
    3.1917   -0.1875    0.0000 C   0  0  0  0  0  0  0  0  0  0  0  0
    6.0750   -0.8792    0.0000 C   0  0  0  0  0  0  0  0  0  0  0  0
    4.0250   -1.0042    0.0000 O   0  0  0  0  0  0  0  0  0  0  0  0
    4.0042    0.6458    0.0000 O   0  0  0  0  0  0  0  0  0  0  0  0
    6.0667    0.5458    0.0000 C   0  0  0  0  0  0  0  0  0  0  0  0
    2.7917   -0.9042    0.0000 C   0  0  0  0  0  0  0  0  0  0  0  0
    2.7750    0.5208    0.0000 C   0  0  0  0  0  0  0  0  0  0  0  0
    6.8917    0.5458    0.0000 C   0  0  0  0  0  0  0  0  0  0  0  0
    6.8917   -0.8792    0.0000 C   0  0  0  0  0  0  0  0  0  0  0  0
    1.5417   -0.2042    0.0000 C   0  0  0  0  0  0  0  0  0  0  0  0
    7.3042   -0.1667    0.0000 C   0  0  0  0  0  0  0  0  0  0  0  0
    1.9667   -0.9167    0.0000 C   0  0  0  0  0  0  0  0  0  0  0  0
    1.9542    0.5125    0.0000 C   0  0  0  0  0  0  0  0  0  0  0  0
    7.3042   -1.5917    0.0000 Cl  0  0  0  0  0  0  0  0  0  0  0  0
    5.6542    1.2583    0.0000 O   0  0  0  0  0  0  0  0  0  0  0  0
    0.7167   -0.2125    0.0000 O   0  0  0  0  0  0  0  0  0  0  0  0
    0.3000    0.4958    0.0000 C   0  0  0  0  0  0  0  0  0  0  0  0
   -0.5250    0.4958    0.0000 C   0  0  0  0  0  0  0  0  0  0  0  0
  2  1  1  0  0  0  0
  3  2  1  0  0  0  0
  4  1  1  0  0  0  0
  5  3  2  0  0  0  0
  6  1  2  0  0  0  0
  7  1  2  0  0  0  0
  8  3  1  0  0  0  0
  9  4  1  0  0  0  0
 10  4  2  0  0  0  0
 11  8  2  0  0  0  0
 12  5  1  0  0  0  0
 13 16  2  0  0  0  0
 14 11  1  0  0  0  0
 15  9  2  0  0  0  0
 16 10  1  0  0  0  0
 17 12  1  0  0  0  0
 18  8  1  0  0  0  0
 19 13  1  0  0  0  0
 20 19  1  0  0  0  0
 21 20  1  0  0  0  0
 13 15  1  0  0  0  0
 14 12  2  0  0  0  0
M  END
> <IDNUMBER>
F3386-1379

> <Chemical_Name>
N-(5-chloro-2-hydroxyphenyl)-4-ethoxybenzene-1-sulfonamide

> <CAS>
835887-45-1

> <PriceCoeff>
1.00

> <MW>
327.78

> <Description>
solid

> <FSP3>
0.14

> <clogP>
3.67

> <TPSA>
84.01

> <Acceptor>
5

> <Donor>
2

> <RotBonds>
5

> <HAC>
21

> <Collection>
General

$$$$
F3386-1376
  -ISIS-  06222321442D

 21 22  0  0  0  0  0  0  0  0999 V2000
    5.1250   -1.9375    0.0000 S   0  0  3  0  0  0  0  0  0  0  0  0
    4.3000   -1.9417    0.0000 C   0  0  0  0  0  0  0  0  0  0  0  0
    5.9500   -1.9250    0.0000 N   0  0  0  0  0  0  0  0  0  0  0  0
    6.7750   -1.9250    0.0000 C   0  0  0  0  0  0  0  0  0  0  0  0
    3.9042   -2.6542    0.0000 C   0  0  0  0  0  0  0  0  0  0  0  0
    5.1292   -2.7625    0.0000 O   0  0  0  0  0  0  0  0  0  0  0  0
    5.1167   -1.1125    0.0000 O   0  0  0  0  0  0  0  0  0  0  0  0
    7.1792   -2.6375    0.0000 C   0  0  0  0  0  0  0  0  0  0  0  0
    3.8792   -1.2375    0.0000 C   0  0  0  0  0  0  0  0  0  0  0  0
    7.1792   -1.2125    0.0000 C   0  0  0  0  0  0  0  0  0  0  0  0
    3.0667   -1.2417    0.0000 C   0  0  0  0  0  0  0  0  0  0  0  0
    8.0000   -1.2042    0.0000 C   0  0  0  0  0  0  0  0  0  0  0  0
    3.0792   -2.6667    0.0000 C   0  0  0  0  0  0  0  0  0  0  0  0
    8.0042   -2.6292    0.0000 C   0  0  0  0  0  0  0  0  0  0  0  0
    2.6542   -1.9542    0.0000 C   0  0  0  0  0  0  0  0  0  0  0  0
    8.4167   -1.9167    0.0000 C   0  0  0  0  0  0  0  0  0  0  0  0
    8.4167   -3.3500    0.0000 Cl  0  0  0  0  0  0  0  0  0  0  0  0
    2.6750   -3.3917    0.0000 Cl  0  0  0  0  0  0  0  0  0  0  0  0
    6.7625   -0.5000    0.0000 O   0  0  0  0  0  0  0  0  0  0  0  0
    4.2917   -0.5167    0.0000 O   0  0  0  0  0  0  0  0  0  0  0  0
    5.1167   -0.5125    0.0000 C   0  0  0  0  0  0  0  0  0  0  0  0
  2  1  1  0  0  0  0
  3  1  1  0  0  0  0
  4  3  1  0  0  0  0
  5  2  1  0  0  0  0
  6  1  2  0  0  0  0
  7  1  2  0  0  0  0
  8  4  2  0  0  0  0
  9  2  2  0  0  0  0
 10  4  1  0  0  0  0
 11  9  1  0  0  0  0
 12 10  2  0  0  0  0
 13  5  2  0  0  0  0
 14  8  1  0  0  0  0
 15 11  2  0  0  0  0
 16 12  1  0  0  0  0
 17 14  1  0  0  0  0
 18 13  1  0  0  0  0
 19 10  1  0  0  0  0
 20  9  1  0  0  0  0
 21 20  1  0  0  0  0
 15 13  1  0  0  0  0
 16 14  2  0  0  0  0
M  END
> <IDNUMBER>
F3386-1376

> <Chemical_Name>
5-chloro-N-(5-chloro-2-hydroxyphenyl)-2-methoxybenzene-1-sulfonamide

> <CAS>
1171334-40-9

> <PriceCoeff>
1.00

> <MW>
348.20

> <Description>
solid

> <FSP3>
0.08

> <clogP>
3.61

> <TPSA>
84.01

> <Acceptor>
5

> <Donor>
2

> <RotBonds>
4

> <HAC>
21

> <Collection>
General

$$$$
F1864-0335
  -ISIS-  06222321142D

 21 23  0  0  0  0  0  0  0  0999 V2000
    5.2292   -2.6250    0.0000 C   0  0  0  0  0  0  0  0  0  0  0  0
    4.5167   -1.3875    0.0000 C   0  0  0  0  0  0  0  0  0  0  0  0
    4.5167   -2.2125    0.0000 C   0  0  0  0  0  0  0  0  0  0  0  0
    5.2292   -0.9750    0.0000 O   0  0  0  0  0  0  0  0  0  0  0  0
    5.9500   -1.3875    0.0000 C   0  0  0  0  0  0  0  0  0  0  0  0
    5.9500   -2.2125    0.0000 C   0  0  0  0  0  0  0  0  0  0  0  0
    3.8042   -0.9750    0.0000 C   0  0  0  0  0  0  0  0  0  0  0  0
    3.8042   -2.6250    0.0000 C   0  0  0  0  0  0  0  0  0  0  0  0
    5.9500   -3.8542    0.0000 N   0  0  3  0  0  0  0  0  0  0  0  0
    3.0917   -2.2125    0.0000 C   0  0  0  0  0  0  0  0  0  0  0  0
    3.0917   -1.3917    0.0000 C   0  0  0  0  0  0  0  0  0  0  0  0
    5.2292   -3.4500    0.0000 C   0  0  0  0  0  0  0  0  0  0  0  0
    6.6667   -0.9667    0.0000 O   0  0  0  0  0  0  0  0  0  0  0  0
    6.6542   -3.4417    0.0000 C   0  0  0  0  0  0  0  0  0  0  0  0
    5.9417   -4.6792    0.0000 C   0  0  0  0  0  0  0  0  0  0  0  0
    2.3792   -2.6250    0.0000 Cl  0  0  0  0  0  0  0  0  0  0  0  0
    2.3750   -0.9792    0.0000 O   0  0  0  0  0  0  0  0  0  0  0  0
    6.6667   -5.0917    0.0000 C   0  0  0  0  0  0  0  0  0  0  0  0
    7.3750   -3.8542    0.0000 C   0  0  0  0  0  0  0  0  0  0  0  0
    7.3792   -4.6750    0.0000 C   0  0  3  0  0  0  0  0  0  0  0  0
    8.1000   -5.0792    0.0000 C   0  0  0  0  0  0  0  0  0  0  0  0
  2  3  2  0  0  0  0
  3  1  1  0  0  0  0
  4  5  1  0  0  0  0
  5  6  1  0  0  0  0
  6  1  2  0  0  0  0
  7  2  1  0  0  0  0
  8  3  1  0  0  0  0
  9 12  1  0  0  0  0
 10  8  2  0  0  0  0
 11 10  1  0  0  0  0
 12  1  1  0  0  0  0
 13  5  2  0  0  0  0
 14  9  1  0  0  0  0
 15  9  1  0  0  0  0
 16 10  1  0  0  0  0
 17 11  1  0  0  0  0
 18 15  1  0  0  0  0
 19 14  1  0  0  0  0
 20 18  1  0  0  0  0
 21 20  1  0  0  0  0
  2  4  1  0  0  0  0
  7 11  2  0  0  0  0
 19 20  1  0  0  0  0
M  END
> <IDNUMBER>
F1864-0335

> <Chemical_Name>
6-chloro-7-hydroxy-4-[(4-methylpiperidin-1-yl)methyl]-2H-chromen-2-one

> <CAS>
848911-79-5

> <PriceCoeff>
1.00

> <MW>
307.77

> <Description>
solid

> <FSP3>
0.44

> <clogP>
3.59

> <TPSA>
49.77

> <Acceptor>
3

> <Donor>
2

> <RotBonds>
2

> <HAC>
21

> <Collection>
General

$$$$
F6244-1336
  -ISIS-  06222321442D

 23 25  0  0  0  0  0  0  0  0999 V2000
    1.1542   -0.3167    0.0000 C   0  0  0  0  0  0  0  0  0  0  0  0
   -3.1500    2.9583    0.0000 C   0  0  0  0  0  0  0  0  0  0  0  0
   -2.4375    3.3750    0.0000 C   0  0  0  0  0  0  0  0  0  0  0  0
   -1.0083    2.5583    0.0000 C   0  0  0  0  0  0  0  0  0  0  0  0
   -0.2958    2.1458    0.0000 C   0  0  0  0  0  0  0  0  0  0  0  0
   -4.5833    2.9583    0.0000 N   0  0  3  0  0  0  0  0  0  0  0  0
    1.8667    0.1000    0.0000 C   0  0  0  0  0  0  0  0  0  0  0  0
    1.3375   -1.1292    0.0000 O   0  0  0  0  0  0  0  0  0  0  0  0
   -0.2958    1.3208    0.0000 C   0  0  0  0  0  0  0  0  0  0  0  0
    2.4875   -0.4500    0.0000 O   0  0  0  0  0  0  0  0  0  0  0  0
    2.1667   -1.2042    0.0000 C   0  0  0  0  0  0  0  0  0  0  0  0
    0.4292    0.0875    0.0000 C   0  0  0  0  0  0  0  0  0  0  0  0
   -1.7208    2.1417    0.0000 O   0  0  0  0  0  0  0  0  0  0  0  0
    0.4292    0.9125    0.0000 C   0  0  0  0  0  0  0  0  0  0  0  0
    1.8625    0.9333    0.0000 C   0  0  0  0  0  0  0  0  0  0  0  0
   -1.0083    3.3833    0.0000 N   0  0  0  0  0  0  0  0  0  0  0  0
   -3.8625    2.5458    0.0000 C   0  0  0  0  0  0  0  0  0  0  0  0
    1.1417    1.3333    0.0000 C   0  0  0  0  0  0  0  0  0  0  0  0
   -1.7250    3.7958    0.0000 C   0  0  0  0  0  0  0  0  0  0  0  0
   -5.3333    2.6208    0.0000 C   0  0  0  0  0  0  0  0  0  0  0  0
   -4.6708    3.7833    0.0000 C   0  0  0  0  0  0  0  0  0  0  0  0
   -5.4750    3.9542    0.0000 C   0  0  0  0  0  0  0  0  0  0  0  0
   -5.8917    3.2333    0.0000 C   0  0  0  0  0  0  0  0  0  0  0  0
  2  3  3  0  0  0  0
  3 19  1  0  0  0  0
  4  5  1  0  0  0  0
  5  9  2  0  0  0  0
  6 17  1  0  0  0  0
  7  1  1  0  0  0  0
  8  1  1  0  0  0  0
  9 14  1  0  0  0  0
 10  7  1  0  0  0  0
 11  8  1  0  0  0  0
 12  1  2  0  0  0  0
 13  4  2  0  0  0  0
 14 12  1  0  0  0  0
 15  7  2  0  0  0  0
 16  4  1  0  0  0  0
 17  2  1  0  0  0  0
 18 14  2  0  0  0  0
 19 16  1  0  0  0  0
 20  6  1  0  0  0  0
 21  6  1  0  0  0  0
 22 21  1  0  0  0  0
 23 20  1  0  0  0  0
 10 11  1  0  0  0  0
 18 15  1  0  0  0  0
 22 23  1  0  0  0  0
M  END
> <IDNUMBER>
F6244-1336

> <Chemical_Name>
(2E)-3-(2H-1,3-benzodioxol-5-yl)-N-[4-(pyrrolidin-1-yl)but-2-yn-1-yl]prop-2-enamide

> <CAS>
1396890-94-0

> <PriceCoeff>
1.00

> <MW>
312.36

> <Description>
solid

> <FSP3>
0.39

> <clogP>
3.40

> <TPSA>
50.80

> <Acceptor>
3

> <Donor>
2

> <RotBonds>
5

> <HAC>
23

> <Collection>
General

> <Reference_compound>
CHEMBL252709

> <Similarity>
0.8020

$$$$
F1813-0481
  -ISIS-  06222321142D

 27 30  0  0  0  0  0  0  0  0999 V2000
   -6.0000    3.3958    0.0000 C   0  0  0  0  0  0  0  0  0  0  0  0
   -1.7333    3.3958    0.0000 N   0  0  3  0  0  0  0  0  0  0  0  0
   -6.0792    2.5625    0.0000 N   0  0  0  0  0  0  0  0  0  0  0  0
   -5.2958    3.8083    0.0000 N   0  0  0  0  0  0  0  0  0  0  0  0
   -6.8917    2.3958    0.0000 C   0  0  0  0  0  0  0  0  0  0  0  0
   -6.7542    3.7333    0.0000 S   0  0  0  0  0  0  0  0  0  0  0  0
   -7.3042    3.1125    0.0000 C   0  0  0  0  0  0  0  0  0  0  0  0
   -2.4458    3.8000    0.0000 C   0  0  0  0  0  0  0  0  0  0  0  0
   -4.5833    3.3958    0.0000 C   0  0  0  0  0  0  0  0  0  0  0  0
   -1.6875    2.5708    0.0000 C   0  0  0  0  0  0  0  0  0  0  0  0
   -0.9708    3.6875    0.0000 C   0  0  0  0  0  0  0  0  0  0  0  0
   -3.1583    3.3958    0.0000 C   0  0  0  0  0  0  0  0  0  0  0  0
   -3.8708    3.8000    0.0000 C   0  0  0  0  0  0  0  0  0  0  0  0
   -7.3042    1.6833    0.0000 C   0  0  0  0  0  0  0  0  0  0  0  0
   -8.1292    3.1083    0.0000 C   0  0  0  0  0  0  0  0  0  0  0  0
   -4.5833    2.5708    0.0000 O   0  0  0  0  0  0  0  0  0  0  0  0
   -0.4375    3.0583    0.0000 C   0  0  0  0  0  0  0  0  0  0  0  0
   -0.8708    2.3708    0.0000 C   0  0  0  0  0  0  0  0  0  0  0  0
   -0.7583    4.4667    0.0000 O   0  0  0  0  0  0  0  0  0  0  0  0
   -2.3208    2.0458    0.0000 O   0  0  0  0  0  0  0  0  0  0  0  0
   -8.5292    2.3958    0.0000 C   0  0  0  0  0  0  0  0  0  0  0  0
   -8.1292    1.6833    0.0000 C   0  0  0  0  0  0  0  0  0  0  0  0
   -2.4375    4.6167    0.0000 C   0  0  0  0  0  0  0  0  0  0  0  0
   -3.8708    4.6167    0.0000 C   0  0  0  0  0  0  0  0  0  0  0  0
   -3.1583    5.0292    0.0000 C   0  0  0  0  0  0  0  0  0  0  0  0
   -6.8917    0.9750    0.0000 C   0  0  0  0  0  0  0  0  0  0  0  0
   -8.5417    3.8208    0.0000 C   0  0  0  0  0  0  0  0  0  0  0  0
  2  8  1  0  0  0  0
  3  1  2  0  0  0  0
  4  1  1  0  0  0  0
  5  3  1  0  0  0  0
  6  1  1  0  0  0  0
  7  6  1  0  0  0  0
  8 12  1  0  0  0  0
  9  4  1  0  0  0  0
 10  2  1  0  0  0  0
 11  2  1  0  0  0  0
 12 13  2  0  0  0  0
 13  9  1  0  0  0  0
 14  5  2  0  0  0  0
 15  7  2  0  0  0  0
 16  9  2  0  0  0  0
 17 11  1  0  0  0  0
 18 10  1  0  0  0  0
 19 11  2  0  0  0  0
 20 10  2  0  0  0  0
 21 15  1  0  0  0  0
 22 14  1  0  0  0  0
 23 25  1  0  0  0  0
 24 13  1  0  0  0  0
 25 24  2  0  0  0  0
 26 14  1  0  0  0  0
 27 15  1  0  0  0  0
  7  5  1  0  0  0  0
 21 22  2  0  0  0  0
  8 23  2  0  0  0  0
 17 18  1  0  0  0  0
M  END
> <IDNUMBER>
F1813-0481

> <Chemical_Name>
N-(4,7-dimethyl-1,3-benzothiazol-2-yl)-3-(2,5-dioxopyrrolidin-1-yl)benzamide

> <CAS>
897618-07-4

> <PriceCoeff>
1.00

> <MW>
379.43

> <Description>
solid

> <FSP3>
0.20

> <clogP>
2.62

> <TPSA>
107.61

> <Acceptor>
4

> <Donor>
1

> <RotBonds>
3

> <HAC>
27

> <Collection>
General

$$$$
F1813-0484
  -ISIS-  06222321142D

 27 30  0  0  0  0  0  0  0  0999 V2000
   -6.0000    3.3958    0.0000 C   0  0  0  0  0  0  0  0  0  0  0  0
   -1.7333    3.3958    0.0000 N   0  0  3  0  0  0  0  0  0  0  0  0
   -6.0792    2.5625    0.0000 N   0  0  0  0  0  0  0  0  0  0  0  0
   -5.2958    3.8083    0.0000 N   0  0  0  0  0  0  0  0  0  0  0  0
   -6.8917    2.3958    0.0000 C   0  0  0  0  0  0  0  0  0  0  0  0
   -6.7542    3.7333    0.0000 S   0  0  0  0  0  0  0  0  0  0  0  0
   -7.3042    3.1083    0.0000 C   0  0  0  0  0  0  0  0  0  0  0  0
   -2.4458    3.8000    0.0000 C   0  0  0  0  0  0  0  0  0  0  0  0
   -4.5833    3.3958    0.0000 C   0  0  0  0  0  0  0  0  0  0  0  0
   -1.6875    2.5708    0.0000 C   0  0  0  0  0  0  0  0  0  0  0  0
   -0.9708    3.6875    0.0000 C   0  0  0  0  0  0  0  0  0  0  0  0
   -8.1292    3.1125    0.0000 C   0  0  0  0  0  0  0  0  0  0  0  0
   -3.1583    3.3958    0.0000 C   0  0  0  0  0  0  0  0  0  0  0  0
   -3.8708    3.8000    0.0000 C   0  0  0  0  0  0  0  0  0  0  0  0
   -7.3042    1.6833    0.0000 C   0  0  0  0  0  0  0  0  0  0  0  0
   -8.5292    2.3958    0.0000 C   0  0  0  0  0  0  0  0  0  0  0  0
   -4.5833    2.5708    0.0000 O   0  0  0  0  0  0  0  0  0  0  0  0
   -0.8708    2.3708    0.0000 C   0  0  0  0  0  0  0  0  0  0  0  0
   -0.4375    3.0583    0.0000 C   0  0  0  0  0  0  0  0  0  0  0  0
   -2.3208    2.0458    0.0000 O   0  0  0  0  0  0  0  0  0  0  0  0
   -0.7583    4.4667    0.0000 O   0  0  0  0  0  0  0  0  0  0  0  0
   -8.1250    1.6833    0.0000 C   0  0  0  0  0  0  0  0  0  0  0  0
   -2.4375    4.6167    0.0000 C   0  0  0  0  0  0  0  0  0  0  0  0
   -8.5292    3.8333    0.0000 C   0  0  0  0  0  0  0  0  0  0  0  0
   -3.8708    4.6167    0.0000 C   0  0  0  0  0  0  0  0  0  0  0  0
   -3.1583    5.0292    0.0000 C   0  0  0  0  0  0  0  0  0  0  0  0
   -8.5292    0.9708    0.0000 C   0  0  0  0  0  0  0  0  0  0  0  0
  2  8  1  0  0  0  0
  3  1  2  0  0  0  0
  4  1  1  0  0  0  0
  5  3  1  0  0  0  0
  6  1  1  0  0  0  0
  7  6  1  0  0  0  0
  8 13  1  0  0  0  0
  9  4  1  0  0  0  0
 10  2  1  0  0  0  0
 11  2  1  0  0  0  0
 12  7  2  0  0  0  0
 13 14  2  0  0  0  0
 14  9  1  0  0  0  0
 15  5  2  0  0  0  0
 16 12  1  0  0  0  0
 17  9  2  0  0  0  0
 18 10  1  0  0  0  0
 19 11  1  0  0  0  0
 20 10  2  0  0  0  0
 21 11  2  0  0  0  0
 22 15  1  0  0  0  0
 23 26  1  0  0  0  0
 24 12  1  0  0  0  0
 25 14  1  0  0  0  0
 26 25  2  0  0  0  0
 27 22  1  0  0  0  0
  7  5  1  0  0  0  0
 16 22  2  0  0  0  0
  8 23  2  0  0  0  0
 19 18  1  0  0  0  0
M  END
> <IDNUMBER>
F1813-0484

> <Chemical_Name>
N-(5,7-dimethyl-1,3-benzothiazol-2-yl)-3-(2,5-dioxopyrrolidin-1-yl)benzamide

> <CAS>
897618-08-5

> <PriceCoeff>
1.00

> <MW>
379.43

> <Description>
solid

> <FSP3>
0.20

> <clogP>
2.62

> <TPSA>
107.61

> <Acceptor>
4

> <Donor>
1

> <RotBonds>
3

> <HAC>
27

> <Collection>
General

$$$$
F0327-0303
  -ISIS-  06222321452D

 27 30  0  0  0  0  0  0  0  0999 V2000
   -1.9083    0.4333    0.0000 C   0  0  0  0  0  0  0  0  0  0  0  0
    2.9167   -0.3292    0.0000 N   0  0  3  0  0  0  0  0  0  0  0  0
   -2.4125   -0.2792    0.0000 N   0  0  0  0  0  0  0  0  0  0  0  0
   -1.0458    0.4333    0.0000 N   0  0  0  0  0  0  0  0  0  0  0  0
   -2.4000    1.1333    0.0000 S   0  0  0  0  0  0  0  0  0  0  0  0
   -3.2458   -0.0292    0.0000 C   0  0  0  0  0  0  0  0  0  0  0  0
   -3.2458    0.8708    0.0000 C   0  0  0  0  0  0  0  0  0  0  0  0
   -0.6000   -0.3292    0.0000 C   0  0  0  0  0  0  0  0  0  0  0  0
    3.4167    0.3333    0.0000 C   0  0  0  0  0  0  0  0  0  0  0  0
    3.4042   -1.0500    0.0000 C   0  0  0  0  0  0  0  0  0  0  0  0
   -4.0000   -0.4500    0.0000 C   0  0  0  0  0  0  0  0  0  0  0  0
    2.0375   -0.3292    0.0000 C   0  0  0  0  0  0  0  0  0  0  0  0
    0.2792   -0.3292    0.0000 C   0  0  0  0  0  0  0  0  0  0  0  0
   -4.0000    1.3125    0.0000 C   0  0  0  0  0  0  0  0  0  0  0  0
   -4.7708   -0.0292    0.0000 C   0  0  0  0  0  0  0  0  0  0  0  0
   -1.0458   -1.0875    0.0000 O   0  0  0  0  0  0  0  0  0  0  0  0
    4.2500    0.0708    0.0000 C   0  0  0  0  0  0  0  0  0  0  0  0
    4.2542   -0.8000    0.0000 C   0  0  0  0  0  0  0  0  0  0  0  0
    3.1292    1.1833    0.0000 O   0  0  0  0  0  0  0  0  0  0  0  0
    3.1000   -1.8667    0.0000 O   0  0  0  0  0  0  0  0  0  0  0  0
   -4.7708    0.8625    0.0000 C   0  0  0  0  0  0  0  0  0  0  0  0
    1.6000   -1.0875    0.0000 C   0  0  0  0  0  0  0  0  0  0  0  0
    1.6000    0.4333    0.0000 C   0  0  0  0  0  0  0  0  0  0  0  0
    0.7167   -1.0875    0.0000 C   0  0  0  0  0  0  0  0  0  0  0  0
    0.7167    0.4333    0.0000 C   0  0  0  0  0  0  0  0  0  0  0  0
   -4.0000   -1.3167    0.0000 C   0  0  0  0  0  0  0  0  0  0  0  0
   -5.5208    1.3000    0.0000 C   0  0  0  0  0  0  0  0  0  0  0  0
  2 12  1  0  0  0  0
  3  1  2  0  0  0  0
  4  1  1  0  0  0  0
  5  1  1  0  0  0  0
  6  3  1  0  0  0  0
  7  5  1  0  0  0  0
  8  4  1  0  0  0  0
  9  2  1  0  0  0  0
 10  2  1  0  0  0  0
 11  6  1  0  0  0  0
 12 23  1  0  0  0  0
 13  8  1  0  0  0  0
 14  7  1  0  0  0  0
 15 11  2  0  0  0  0
 16  8  2  0  0  0  0
 17  9  1  0  0  0  0
 18 10  1  0  0  0  0
 19  9  2  0  0  0  0
 20 10  2  0  0  0  0
 21 14  2  0  0  0  0
 22 24  1  0  0  0  0
 23 25  2  0  0  0  0
 24 13  2  0  0  0  0
 25 13  1  0  0  0  0
 26 11  1  0  0  0  0
 27 21  1  0  0  0  0
  7  6  2  0  0  0  0
 15 21  1  0  0  0  0
 22 12  2  0  0  0  0
 18 17  1  0  0  0  0
M  END
> <IDNUMBER>
F0327-0303

> <Chemical_Name>
N-(4,6-dimethyl-1,3-benzothiazol-2-yl)-4-(2,5-dioxopyrrolidin-1-yl)benzamide

> <CAS>
476281-68-2

> <PriceCoeff>
1.00

> <MW>
379.43

> <Description>
solid

> <FSP3>
0.20

> <clogP>
2.62

> <TPSA>
107.61

> <Acceptor>
4

> <Donor>
1

> <RotBonds>
3

> <HAC>
27

> <Collection>
General

$$$$
F1813-1187
  -ISIS-  06222321452D

 27 30  0  0  0  0  0  0  0  0999 V2000
   -5.2958    3.8083    0.0000 C   0  0  0  0  0  0  0  0  0  0  0  0
   -1.0083    3.7958    0.0000 N   0  0  3  0  0  0  0  0  0  0  0  0
   -5.3833    2.9833    0.0000 N   0  0  0  0  0  0  0  0  0  0  0  0
   -6.1917    2.8000    0.0000 C   0  0  0  0  0  0  0  0  0  0  0  0
   -4.5833    4.2042    0.0000 N   0  0  0  0  0  0  0  0  0  0  0  0
   -6.6042    3.5208    0.0000 C   0  0  0  0  0  0  0  0  0  0  0  0
   -6.0417    4.1292    0.0000 S   0  0  0  0  0  0  0  0  0  0  0  0
   -1.7208    4.2125    0.0000 C   0  0  0  0  0  0  0  0  0  0  0  0
   -3.8708    3.8000    0.0000 C   0  0  0  0  0  0  0  0  0  0  0  0
   -0.9625    2.9708    0.0000 C   0  0  0  0  0  0  0  0  0  0  0  0
   -0.2375    4.0917    0.0000 C   0  0  0  0  0  0  0  0  0  0  0  0
   -6.5917    2.0875    0.0000 C   0  0  0  0  0  0  0  0  0  0  0  0
   -7.4167    3.5208    0.0000 C   0  0  0  0  0  0  0  0  0  0  0  0
   -2.4375    3.8083    0.0000 C   0  0  0  0  0  0  0  0  0  0  0  0
   -3.1583    4.2125    0.0000 C   0  0  0  0  0  0  0  0  0  0  0  0
   -7.4292    2.0875    0.0000 C   0  0  0  0  0  0  0  0  0  0  0  0
   -7.8417    2.8083    0.0000 C   0  0  0  0  0  0  0  0  0  0  0  0
   -3.8708    2.9833    0.0000 O   0  0  0  0  0  0  0  0  0  0  0  0
    0.2917    3.4708    0.0000 C   0  0  0  0  0  0  0  0  0  0  0  0
   -0.1458    2.7708    0.0000 C   0  0  0  0  0  0  0  0  0  0  0  0
   -0.0208    4.8875    0.0000 O   0  0  0  0  0  0  0  0  0  0  0  0
   -1.5958    2.4583    0.0000 O   0  0  0  0  0  0  0  0  0  0  0  0
   -6.1792    1.3750    0.0000 F   0  0  0  0  0  0  0  0  0  0  0  0
   -8.6667    2.8000    0.0000 F   0  0  0  0  0  0  0  0  0  0  0  0
   -1.7125    5.0292    0.0000 C   0  0  0  0  0  0  0  0  0  0  0  0
   -3.1500    5.0417    0.0000 C   0  0  0  0  0  0  0  0  0  0  0  0
   -2.4333    5.4542    0.0000 C   0  0  0  0  0  0  0  0  0  0  0  0
  2  8  1  0  0  0  0
  3  1  2  0  0  0  0
  4  3  1  0  0  0  0
  5  1  1  0  0  0  0
  6  7  1  0  0  0  0
  7  1  1  0  0  0  0
  8 14  1  0  0  0  0
  9  5  1  0  0  0  0
 10  2  1  0  0  0  0
 11  2  1  0  0  0  0
 12  4  2  0  0  0  0
 13  6  2  0  0  0  0
 14 15  2  0  0  0  0
 15  9  1  0  0  0  0
 16 12  1  0  0  0  0
 17 13  1  0  0  0  0
 18  9  2  0  0  0  0
 19 11  1  0  0  0  0
 20 10  1  0  0  0  0
 21 11  2  0  0  0  0
 22 10  2  0  0  0  0
 23 12  1  0  0  0  0
 24 17  1  0  0  0  0
 25 27  1  0  0  0  0
 26 15  1  0  0  0  0
 27 26  2  0  0  0  0
  6  4  1  0  0  0  0
 17 16  2  0  0  0  0
  8 25  2  0  0  0  0
 19 20  1  0  0  0  0
M  END
> <IDNUMBER>
F1813-1187

> <Chemical_Name>
N-(4,6-difluoro-1,3-benzothiazol-2-yl)-3-(2,5-dioxopyrrolidin-1-yl)benzamide

> <CAS>
897759-78-3

> <PriceCoeff>
1.00

> <MW>
387.36

> <Description>
solid

> <FSP3>
0.11

> <clogP>
1.92

> <TPSA>
107.61

> <Acceptor>
4

> <Donor>
1

> <RotBonds>
3

> <HAC>
27

> <Collection>
General

$$$$
F0009-0381
  -ISIS-  06222321142D

 21 22  0  0  0  0  0  0  0  0999 V2000
   -2.9125    1.2000    0.0000 S   0  0  3  0  0  0  0  0  0  0  0  0
   -3.4500    1.1000    0.0000 N   0  0  0  0  0  0  0  0  0  0  0  0
   -3.6333    0.5833    0.0000 C   0  0  0  0  0  0  0  0  0  0  0  0
   -0.5958    2.1833    0.0000 C   0  0  0  0  0  0  0  0  0  0  0  0
   -3.3708    0.1000    0.0000 N   0  0  0  0  0  0  0  0  0  0  0  0
   -2.3708    1.3208    0.0000 C   0  0  0  0  0  0  0  0  0  0  0  0
   -0.7958    1.6625    0.0000 N   0  0  0  0  0  0  0  0  0  0  0  0
   -4.1583    0.4833    0.0000 S   0  0  0  0  0  0  0  0  0  0  0  0
   -2.7958    0.6833    0.0000 O   0  0  0  0  0  0  0  0  0  0  0  0
   -3.0125    1.7458    0.0000 O   0  0  0  0  0  0  0  0  0  0  0  0
   -3.7500   -0.2792    0.0000 C   0  0  0  0  0  0  0  0  0  0  0  0
   -0.9500    2.5833    0.0000 O   0  0  0  0  0  0  0  0  0  0  0  0
   -4.2333   -0.0542    0.0000 C   0  0  0  0  0  0  0  0  0  0  0  0
   -2.0125    0.9458    0.0000 C   0  0  0  0  0  0  0  0  0  0  0  0
   -2.2125    1.8458    0.0000 C   0  0  0  0  0  0  0  0  0  0  0  0
   -1.3333    1.5625    0.0000 C   0  0  0  0  0  0  0  0  0  0  0  0
   -0.0708    2.2833    0.0000 C   0  0  3  0  0  0  0  0  0  0  0  0
   -1.6958    1.9625    0.0000 C   0  0  0  0  0  0  0  0  0  0  0  0
   -1.4958    1.0833    0.0000 C   0  0  0  0  0  0  0  0  0  0  0  0
    0.1042    2.7833    0.0000 C   0  0  0  0  0  0  0  0  0  0  0  0
    0.2875    1.8625    0.0000 C   0  0  0  0  0  0  0  0  0  0  0  0
  2  1  1  0  0  0  0
  3  2  1  0  0  0  0
  4  7  1  0  0  0  0
  5  3  2  0  0  0  0
  6  1  1  0  0  0  0
  7 16  1  0  0  0  0
  8  3  1  0  0  0  0
  9  1  2  0  0  0  0
 10  1  2  0  0  0  0
 11  5  1  0  0  0  0
 12  4  2  0  0  0  0
 13  8  1  0  0  0  0
 14  6  2  0  0  0  0
 15  6  1  0  0  0  0
 16 18  1  0  0  0  0
 17  4  1  0  0  0  0
 18 15  2  0  0  0  0
 19 14  1  0  0  0  0
 20 17  1  0  0  0  0
 21 17  1  0  0  0  0
 19 16  2  0  0  0  0
 13 11  2  0  0  0  0
M  END
> <IDNUMBER>
F0009-0381

> <Chemical_Name>
2-methyl-N-{4-[(1,3-thiazol-2-yl)sulfamoyl]phenyl}propanamide

> <CAS>
100379-21-3

> <PriceCoeff>
1.00

> <MW>
325.41

> <Description>
solid

> <FSP3>
0.23

> <clogP>
1.78

> <TPSA>
124.78

> <Acceptor>
4

> <Donor>
2

> <RotBonds>
5

> <HAC>
21

> <Collection>
General

> <Reference_compound>
CHEMBL437

> <Similarity>
0.8000

$$$$
F0440-0388
  -ISIS-  06222321142D

 23 25  0  0  0  0  0  0  0  0999 V2000
   -0.2833    0.0458    0.0000 C   0  0  0  0  0  0  0  0  0  0  0  0
   -0.3458    0.4208    0.0000 C   0  0  0  0  0  0  0  0  0  0  0  0
   -0.5208   -0.2500    0.0000 N   0  0  3  0  0  0  0  0  0  0  0  0
    0.1667    1.3000    0.0000 N   0  0  3  0  0  0  0  0  0  0  0  0
    0.0500   -0.0875    0.0000 N   0  0  0  0  0  0  0  0  0  0  0  0
   -0.0625    0.6833    0.0000 C   0  0  0  0  0  0  0  0  0  0  0  0
   -0.1208    1.0458    0.0000 C   0  0  0  0  0  0  0  0  0  0  0  0
   -0.3208   -0.5667    0.0000 C   0  0  0  0  0  0  0  0  0  0  0  0
    0.1667    1.6833    0.0000 C   0  0  0  0  0  0  0  0  0  0  0  0
    0.5292    1.1625    0.0000 C   0  0  0  0  0  0  0  0  0  0  0  0
    0.0292   -0.4667    0.0000 C   0  0  0  0  0  0  0  0  0  0  0  0
   -0.7000    0.5625    0.0000 C   0  0  0  0  0  0  0  0  0  0  0  0
   -1.0625    0.6833    0.0000 N   0  0  0  0  0  0  0  0  0  0  0  0
    0.5500    1.8000    0.0000 C   0  0  0  0  0  0  0  0  0  0  0  0
    0.7667    1.4625    0.0000 C   0  0  0  0  0  0  0  0  0  0  0  0
    0.3042    0.5458    0.0000 O   0  0  0  0  0  0  0  0  0  0  0  0
   -0.1208    1.9000    0.0000 O   0  0  0  0  0  0  0  0  0  0  0  0
    0.6500    0.8000    0.0000 O   0  0  0  0  0  0  0  0  0  0  0  0
   -0.9208   -0.2042    0.0000 C   0  0  0  0  0  0  0  0  0  0  0  0
   -0.4208   -0.9500    0.0000 C   0  0  0  0  0  0  0  0  0  0  0  0
    0.3042   -0.7500    0.0000 C   0  0  0  0  0  0  0  0  0  0  0  0
   -0.1625   -1.2042    0.0000 C   0  0  0  0  0  0  0  0  0  0  0  0
    0.2000   -1.1042    0.0000 C   0  0  0  0  0  0  0  0  0  0  0  0
  2  1  2  0  0  0  0
  3  1  1  0  0  0  0
  4  7  1  0  0  0  0
  5  1  1  0  0  0  0
  6  2  1  0  0  0  0
  7  6  1  0  0  0  0
  8  3  1  0  0  0  0
  9  4  1  0  0  0  0
 10  4  1  0  0  0  0
 11  5  1  0  0  0  0
 12  2  1  0  0  0  0
 13 12  3  0  0  0  0
 14  9  1  0  0  0  0
 15 10  1  0  0  0  0
 16  6  2  0  0  0  0
 17  9  2  0  0  0  0
 18 10  2  0  0  0  0
 19  3  1  0  0  0  0
 20  8  1  0  0  0  0
 21 11  1  0  0  0  0
 22 20  2  0  0  0  0
 23 21  2  0  0  0  0
 11  8  2  0  0  0  0
 23 22  1  0  0  0  0
 15 14  1  0  0  0  0
M  END
> <IDNUMBER>
F0440-0388

> <Chemical_Name>
4-(2,5-dioxopyrrolidin-1-yl)-2-[(2E)-1-methyl-2,3-dihydro-1H-1,3-benzodiazol-2-ylidene]-3-oxobutanenitrile

> <CAS>
392325-04-1

> <PriceCoeff>
1.00

> <MW>
310.31

> <Description>
solid

> <FSP3>
0.25

> <clogP>
0.89

> <TPSA>
93.51

> <Acceptor>
6

> <Donor>
2

> <RotBonds>
3

> <HAC>
23

> <Collection>
General

$$$$
F6617-4185
  -ISIS-  06222321162D

 16 17  0  0  0  0  0  0  0  0999 V2000
    6.8125   -1.4917    0.0000 C   0  0  0  0  0  0  0  0  0  0  0  0
    6.5542   -2.2875    0.0000 N   0  0  0  0  0  0  0  0  0  0  0  0
    6.1417   -1.0042    0.0000 N   0  0  0  0  0  0  0  0  0  0  0  0
    7.6000   -1.2417    0.0000 C   0  0  0  0  0  0  0  0  0  0  0  0
    5.7250   -2.2875    0.0000 C   0  0  0  0  0  0  0  0  0  0  0  0
    5.4750   -1.4917    0.0000 O   0  0  0  0  0  0  0  0  0  0  0  0
    8.3125   -1.6542    0.0000 S   0  0  0  0  0  0  0  0  0  0  0  0
    3.9250   -3.5375    0.0000 C   0  0  0  0  0  0  0  0  0  0  0  0
    7.7667   -0.4292    0.0000 C   0  0  0  0  0  0  0  0  0  0  0  0
    8.9292   -1.1042    0.0000 C   0  0  0  0  0  0  0  0  0  0  0  0
    8.5917   -0.3500    0.0000 C   0  0  0  0  0  0  0  0  0  0  0  0
    3.1000   -3.5375    0.0000 O   0  0  0  0  0  0  0  0  0  0  0  0
    4.1792   -4.3167    0.0000 N   0  0  0  0  0  0  0  0  0  0  0  0
    5.2375   -2.9542    0.0000 C   0  0  0  0  0  0  0  0  0  0  0  0
    4.4125   -2.8667    0.0000 C   0  0  0  0  0  0  0  0  0  0  0  0
    3.5042   -4.8125    0.0000 N   0  0  0  0  0  0  0  0  0  0  0  0
  2  1  1  0  0  0  0
  3  1  2  0  0  0  0
  4  1  1  0  0  0  0
  5  2  2  0  0  0  0
  6  3  1  0  0  0  0
  7  4  1  0  0  0  0
  8 15  1  0  0  0  0
  9  4  2  0  0  0  0
 10  7  1  0  0  0  0
 11  9  1  0  0  0  0
 12  8  2  0  0  0  0
 13  8  1  0  0  0  0
 14  5  1  0  0  0  0
 15 14  1  0  0  0  0
 16 13  1  0  0  0  0
  6  5  1  0  0  0  0
 10 11  2  0  0  0  0
M  END
> <IDNUMBER>
F6617-4185

> <Chemical_Name>
3-[3-(thiophen-2-yl)-1,2,4-oxadiazol-5-yl]propanehydrazide

> <CAS>
1351849-88-1

> <PriceCoeff>
1.00

> <MW>
238.27

> <Description>
solid

> <FSP3>
0.22

> <clogP>
-0.18

> <TPSA>
122.28

> <Acceptor>
4

> <Donor>
2

> <RotBonds>
4

> <HAC>
16

> <Collection>
General

> <Reference_compound>
CHEMBL4747189

> <Similarity>
0.8170

$$$$
F6237-0243
  -ISIS-  06222321152D

 22 24  0  0  0  0  0  0  0  0999 V2000
   -2.3625    4.4375    0.0000 C   0  0  0  0  0  0  0  0  0  0  0  0
   -2.0958    5.2042    0.0000 N   0  0  0  0  0  0  0  0  0  0  0  0
   -1.2708    5.2000    0.0000 N   0  0  3  0  0  0  0  0  0  0  0  0
   -1.0333    4.4083    0.0000 N   0  0  0  0  0  0  0  0  0  0  0  0
   -1.7083    3.9458    0.0000 N   0  0  0  0  0  0  0  0  0  0  0  0
   -3.1583    4.2042    0.0000 C   0  0  0  0  0  0  0  0  0  0  0  0
   -3.7500    4.7750    0.0000 N   0  0  0  0  0  0  0  0  0  0  0  0
   -4.3500    5.3417    0.0000 C   0  0  0  0  0  0  0  0  0  0  0  0
   -4.1583    6.1417    0.0000 C   0  0  0  0  0  0  0  0  0  0  0  0
   -0.7083    5.8042    0.0000 C   0  0  0  0  0  0  0  0  0  0  0  0
   -5.1417    5.1083    0.0000 C   0  0  0  0  0  0  0  0  0  0  0  0
   -3.3458    3.4083    0.0000 O   0  0  0  0  0  0  0  0  0  0  0  0
   -5.7333    5.6792    0.0000 C   0  0  0  0  0  0  0  0  0  0  0  0
   -4.7500    6.7042    0.0000 C   0  0  0  0  0  0  0  0  0  0  0  0
   -5.5375    6.4792    0.0000 C   0  0  0  0  0  0  0  0  0  0  0  0
   -4.5583    7.5042    0.0000 Cl  0  0  0  0  0  0  0  0  0  0  0  0
   -5.3333    4.3125    0.0000 O   0  0  0  0  0  0  0  0  0  0  0  0
   -0.9458    6.5917    0.0000 C   0  0  0  0  0  0  0  0  0  0  0  0
    0.0917    5.6167    0.0000 C   0  0  0  0  0  0  0  0  0  0  0  0
    0.6542    6.2208    0.0000 C   0  0  0  0  0  0  0  0  0  0  0  0
   -0.3833    7.1917    0.0000 C   0  0  0  0  0  0  0  0  0  0  0  0
    0.4167    7.0125    0.0000 C   0  0  0  0  0  0  0  0  0  0  0  0
  2  1  2  0  0  0  0
  3  2  1  0  0  0  0
  4  5  2  0  0  0  0
  5  1  1  0  0  0  0
  6  1  1  0  0  0  0
  7  6  1  0  0  0  0
  8  7  1  0  0  0  0
  9  8  2  0  0  0  0
 10  3  1  0  0  0  0
 11  8  1  0  0  0  0
 12  6  2  0  0  0  0
 13 11  2  0  0  0  0
 14  9  1  0  0  0  0
 15 13  1  0  0  0  0
 16 14  1  0  0  0  0
 17 11  1  0  0  0  0
 18 10  2  0  0  0  0
 19 10  1  0  0  0  0
 20 19  2  0  0  0  0
 21 18  1  0  0  0  0
 22 20  1  0  0  0  0
  3  4  1  0  0  0  0
 14 15  2  0  0  0  0
 21 22  2  0  0  0  0
M  END
> <IDNUMBER>
F6237-0243

> <Chemical_Name>
N-(5-chloro-2-hydroxyphenyl)-2-phenyl-2H-1,2,3,4-tetrazole-5-carboxamide

> <CAS>
1396582-38-9

> <PriceCoeff>
1.00

> <MW>
315.71

> <Description>
solid

> <FSP3>
0.00

> <clogP>
2.64

> <TPSA>
92.93

> <Acceptor>
5

> <Donor>
2

> <RotBonds>
3

> <HAC>
22

> <Collection>
General

$$$$
F1199-0067
  -ISIS-  06222321452D

 20 21  0  0  0  0  0  0  0  0999 V2000
    1.3542    0.1708    0.0000 N   0  0  3  0  0  0  0  0  0  0  0  0
    2.0250    0.6583    0.0000 C   0  0  0  0  0  0  0  0  0  0  0  0
    1.6125   -0.6167    0.0000 C   0  0  0  0  0  0  0  0  0  0  0  0
    2.4375   -0.6167    0.0000 C   0  0  3  0  0  0  0  0  0  0  0  0
    2.6917    0.1708    0.0000 C   0  0  0  0  0  0  0  0  0  0  0  0
    4.2167   -1.8667    0.0000 C   0  0  0  0  0  0  0  0  0  0  0  0
    2.9167   -1.2792    0.0000 S   0  0  0  0  0  0  0  0  0  0  0  0
    3.7417   -1.1917    0.0000 C   0  0  0  0  0  0  0  0  0  0  0  0
    3.8792   -2.6167    0.0000 C   0  0  0  0  0  0  0  0  0  0  0  0
    2.0167    1.4833    0.0000 O   0  0  0  0  0  0  0  0  0  0  0  0
    1.1250   -1.2792    0.0000 O   0  0  0  0  0  0  0  0  0  0  0  0
    0.5750    0.4250    0.0000 C   0  0  3  0  0  0  0  0  0  0  0  0
    4.3625   -3.2917    0.0000 O   0  0  0  0  0  0  0  0  0  0  0  0
    3.0625   -2.7042    0.0000 O   0  0  0  0  0  0  0  0  0  0  0  0
    5.0417   -1.7792    0.0000 C   0  0  0  0  0  0  0  0  0  0  0  0
    4.0667   -0.4417    0.0000 C   0  0  0  0  0  0  0  0  0  0  0  0
    0.4000    1.2333    0.0000 C   0  0  0  0  0  0  0  0  0  0  0  0
   -0.0458   -0.1292    0.0000 C   0  0  0  0  0  0  0  0  0  0  0  0
    5.3792   -1.0250    0.0000 C   0  0  0  0  0  0  0  0  0  0  0  0
    4.8875   -0.3542    0.0000 C   0  0  0  0  0  0  0  0  0  0  0  0
  2  1  1  0  0  0  0
  3  1  1  0  0  0  0
  4  3  1  0  0  0  0
  5  2  1  0  0  0  0
  6  8  2  0  0  0  0
  7  4  1  0  0  0  0
  8  7  1  0  0  0  0
  9  6  1  0  0  0  0
 10  2  2  0  0  0  0
 11  3  2  0  0  0  0
 12  1  1  0  0  0  0
 13  9  2  0  0  0  0
 14  9  1  0  0  0  0
 15  6  1  0  0  0  0
 16  8  1  0  0  0  0
 17 12  1  0  0  0  0
 18 12  1  0  0  0  0
 19 20  1  0  0  0  0
 20 16  2  0  0  0  0
  5  4  1  0  0  0  0
 19 15  2  0  0  0  0
M  END
> <IDNUMBER>
F1199-0067

> <Chemical_Name>
2-{[2,5-dioxo-1-(propan-2-yl)pyrrolidin-3-yl]sulfanyl}benzoic acid

> <CAS>
459421-23-9

> <PriceCoeff>
1.00

> <MW>
293.34

> <Description>
solid

> <FSP3>
0.36

> <clogP>
2.08

> <TPSA>
99.98

> <Acceptor>
4

> <Donor>
0

> <RotBonds>
4

> <HAC>
20

> <Collection>
General

$$$$
F0326-0268
  -ISIS-  06222321142D

 28 31  0  0  0  0  0  0  0  0999 V2000
   -1.6833   -1.4042    0.0000 S   0  0  0  0  0  0  0  0  0  0  0  0
   -0.9500   -0.8667    0.0000 C   0  0  0  0  0  0  0  0  0  0  0  0
    4.0292   -1.0375    0.0000 N   0  0  3  0  0  0  0  0  0  0  0  0
   -2.4208   -0.8792    0.0000 C   0  0  0  0  0  0  0  0  0  0  0  0
   -2.1625   -0.0292    0.0000 N   0  0  0  0  0  0  0  0  0  0  0  0
   -0.0958   -1.0375    0.0000 N   0  0  0  0  0  0  0  0  0  0  0  0
   -1.2833   -0.0292    0.0000 N   0  0  0  0  0  0  0  0  0  0  0  0
    0.5000   -0.3500    0.0000 C   0  0  0  0  0  0  0  0  0  0  0  0
    4.4042   -1.8500    0.0000 C   0  0  0  0  0  0  0  0  0  0  0  0
    4.6667   -0.4167    0.0000 C   0  0  0  0  0  0  0  0  0  0  0  0
   -3.2708   -1.1375    0.0000 C   0  0  0  0  0  0  0  0  0  0  0  0
    3.1500   -0.8792    0.0000 C   0  0  0  0  0  0  0  0  0  0  0  0
    1.3792   -0.5167    0.0000 C   0  0  0  0  0  0  0  0  0  0  0  0
    0.2000    0.5208    0.0000 O   0  0  0  0  0  0  0  0  0  0  0  0
    5.4542   -0.8375    0.0000 C   0  0  0  0  0  0  0  0  0  0  0  0
    5.3000   -1.7375    0.0000 C   0  0  0  0  0  0  0  0  0  0  0  0
    4.5042    0.4708    0.0000 O   0  0  0  0  0  0  0  0  0  0  0  0
    3.9542   -2.6375    0.0000 O   0  0  0  0  0  0  0  0  0  0  0  0
   -3.9333   -0.5292    0.0000 C   0  0  0  0  0  0  0  0  0  0  0  0
    2.8542   -0.0292    0.0000 C   0  0  0  0  0  0  0  0  0  0  0  0
    2.5500   -1.5542    0.0000 C   0  0  0  0  0  0  0  0  0  0  0  0
    1.9792    0.1625    0.0000 C   0  0  0  0  0  0  0  0  0  0  0  0
    1.6542   -1.3792    0.0000 C   0  0  0  0  0  0  0  0  0  0  0  0
   -4.8000   -0.8000    0.0000 C   0  0  0  0  0  0  0  0  0  0  0  0
   -3.4708   -2.0167    0.0000 C   0  0  0  0  0  0  0  0  0  0  0  0
   -4.3333   -2.2792    0.0000 C   0  0  0  0  0  0  0  0  0  0  0  0
   -4.9958   -1.6542    0.0000 C   0  0  0  0  0  0  0  0  0  0  0  0
   -5.4708   -0.2167    0.0000 C   0  0  0  0  0  0  0  0  0  0  0  0
  2  1  1  0  0  0  0
  3 12  1  0  0  0  0
  4  1  1  0  0  0  0
  5  4  2  0  0  0  0
  6  2  1  0  0  0  0
  7  2  2  0  0  0  0
  8  6  1  0  0  0  0
  9  3  1  0  0  0  0
 10  3  1  0  0  0  0
 11  4  1  0  0  0  0
 12 21  2  0  0  0  0
 13  8  1  0  0  0  0
 14  8  2  0  0  0  0
 15 10  1  0  0  0  0
 16  9  1  0  0  0  0
 17 10  2  0  0  0  0
 18  9  2  0  0  0  0
 19 11  2  0  0  0  0
 20 22  2  0  0  0  0
 21 23  1  0  0  0  0
 22 13  1  0  0  0  0
 23 13  2  0  0  0  0
 24 19  1  0  0  0  0
 25 11  1  0  0  0  0
 26 25  2  0  0  0  0
 27 26  1  0  0  0  0
 28 24  1  0  0  0  0
  7  5  1  0  0  0  0
 24 27  2  0  0  0  0
 12 20  1  0  0  0  0
 16 15  1  0  0  0  0
M  END
> <IDNUMBER>
F0326-0268

> <Chemical_Name>
4-(2,5-dioxopyrrolidin-1-yl)-N-[5-(3-methylphenyl)-1,3,4-thiadiazol-2-yl]benzamide

> <CAS>
392241-50-8

> <PriceCoeff>
1.00

> <MW>
392.43

> <Description>
solid

> <FSP3>
0.15

> <clogP>
1.91

> <TPSA>
120.50

> <Acceptor>
5

> <Donor>
1

> <RotBonds>
4

> <HAC>
28

> <Collection>
General

$$$$
F3269-0037
  -ISIS-  06222321442D

 24 26  0  0  0  0  0  0  0  0999 V2000
    3.0250   -2.6375    0.0000 N   0  0  3  0  0  0  0  0  0  0  0  0
    3.5167   -3.3000    0.0000 C   0  0  0  0  0  0  0  0  0  0  0  0
    4.3000   -3.0375    0.0000 S   0  0  0  0  0  0  0  0  0  0  0  0
    3.5042   -1.9625    0.0000 C   0  0  0  0  0  0  0  0  0  0  0  0
    4.2917   -2.2125    0.0000 C   0  0  3  0  0  0  0  0  0  0  0  0
    0.9542   -1.9375    0.0000 N   0  0  3  0  0  0  0  0  0  0  0  0
    0.4750   -1.2667    0.0000 C   0  0  0  0  0  0  0  0  0  0  0  0
    0.4792   -2.6042    0.0000 C   0  0  0  0  0  0  0  0  0  0  0  0
    2.1917   -2.6417    0.0000 C   0  0  0  0  0  0  0  0  0  0  0  0
    1.7792   -1.9292    0.0000 C   0  0  0  0  0  0  0  0  0  0  0  0
    4.9542   -1.7250    0.0000 N   0  0  0  0  0  0  0  0  0  0  0  0
    3.2667   -4.0792    0.0000 O   0  0  0  0  0  0  0  0  0  0  0  0
    3.2417   -1.1792    0.0000 O   0  0  0  0  0  0  0  0  0  0  0  0
   -0.3083   -2.3542    0.0000 C   0  0  0  0  0  0  0  0  0  0  0  0
   -0.3083   -1.5292    0.0000 C   0  0  0  0  0  0  0  0  0  0  0  0
    0.7292   -0.4875    0.0000 O   0  0  0  0  0  0  0  0  0  0  0  0
    0.7417   -3.3875    0.0000 O   0  0  0  0  0  0  0  0  0  0  0  0
    5.7125   -2.0542    0.0000 C   0  0  0  0  0  0  0  0  0  0  0  0
    7.2250   -2.7167    0.0000 C   0  0  0  0  0  0  0  0  0  0  0  0
    6.3750   -1.5625    0.0000 C   0  0  0  0  0  0  0  0  0  0  0  0
    5.8042   -2.8750    0.0000 C   0  0  0  0  0  0  0  0  0  0  0  0
    7.1250   -1.8917    0.0000 C   0  0  0  0  0  0  0  0  0  0  0  0
    6.5542   -3.2042    0.0000 C   0  0  0  0  0  0  0  0  0  0  0  0
    7.9792   -3.0417    0.0000 C   0  0  0  0  0  0  0  0  0  0  0  0
  2  1  1  0  0  0  0
  3  2  1  0  0  0  0
  4  1  1  0  0  0  0
  5  4  1  0  0  0  0
  6 10  1  0  0  0  0
  7  6  1  0  0  0  0
  8  6  1  0  0  0  0
  9  1  1  0  0  0  0
 10  9  1  0  0  0  0
 11  5  1  0  0  0  0
 12  2  2  0  0  0  0
 13  4  2  0  0  0  0
 14  8  1  0  0  0  0
 15  7  1  0  0  0  0
 16  7  2  0  0  0  0
 17  8  2  0  0  0  0
 18 11  1  0  0  0  0
 19 23  2  0  0  0  0
 20 18  1  0  0  0  0
 21 18  2  0  0  0  0
 22 20  2  0  0  0  0
 23 21  1  0  0  0  0
 24 19  1  0  0  0  0
  3  5  1  0  0  0  0
 15 14  1  0  0  0  0
 22 19  1  0  0  0  0
M  END
> <IDNUMBER>
F3269-0037

> <Chemical_Name>
3-[2-(2,5-dioxopyrrolidin-1-yl)ethyl]-5-[(4-methylphenyl)amino]-1,3-thiazolidine-2,4-dione

> <CAS>
1025031-50-8

> <PriceCoeff>
1.00

> <MW>
347.39

> <Description>
solid

> <FSP3>
0.38

> <clogP>
0.97

> <TPSA>
112.09

> <Acceptor>
5

> <Donor>
1

> <RotBonds>
5

> <HAC>
24

> <Collection>
General

$$$$
F0327-0299
  -ISIS-  06222321452D

 26 29  0  0  0  0  0  0  0  0999 V2000
   -1.9083    0.4333    0.0000 C   0  0  0  0  0  0  0  0  0  0  0  0
    2.9167   -0.3292    0.0000 N   0  0  3  0  0  0  0  0  0  0  0  0
   -2.4125   -0.2792    0.0000 N   0  0  0  0  0  0  0  0  0  0  0  0
   -1.0458    0.4333    0.0000 N   0  0  0  0  0  0  0  0  0  0  0  0
   -3.2458   -0.0292    0.0000 C   0  0  0  0  0  0  0  0  0  0  0  0
   -2.4000    1.1333    0.0000 S   0  0  0  0  0  0  0  0  0  0  0  0
   -0.6000   -0.3292    0.0000 C   0  0  0  0  0  0  0  0  0  0  0  0
    3.4167    0.3333    0.0000 C   0  0  0  0  0  0  0  0  0  0  0  0
    3.4042   -1.0500    0.0000 C   0  0  0  0  0  0  0  0  0  0  0  0
   -3.2458    0.8708    0.0000 C   0  0  0  0  0  0  0  0  0  0  0  0
    2.0375   -0.3292    0.0000 C   0  0  0  0  0  0  0  0  0  0  0  0
    0.2792   -0.3292    0.0000 C   0  0  0  0  0  0  0  0  0  0  0  0
   -4.0000   -0.4500    0.0000 C   0  0  0  0  0  0  0  0  0  0  0  0
   -1.0458   -1.0875    0.0000 O   0  0  0  0  0  0  0  0  0  0  0  0
    4.2500    0.0708    0.0000 C   0  0  0  0  0  0  0  0  0  0  0  0
    4.2542   -0.8000    0.0000 C   0  0  0  0  0  0  0  0  0  0  0  0
    3.1292    1.1833    0.0000 O   0  0  0  0  0  0  0  0  0  0  0  0
    3.1000   -1.8667    0.0000 O   0  0  0  0  0  0  0  0  0  0  0  0
    1.6000   -1.0875    0.0000 C   0  0  0  0  0  0  0  0  0  0  0  0
    1.6000    0.4333    0.0000 C   0  0  0  0  0  0  0  0  0  0  0  0
    0.7167   -1.0875    0.0000 C   0  0  0  0  0  0  0  0  0  0  0  0
    0.7167    0.4333    0.0000 C   0  0  0  0  0  0  0  0  0  0  0  0
   -4.0000   -1.3167    0.0000 Cl  0  0  0  0  0  0  0  0  0  0  0  0
   -4.0000    1.3125    0.0000 C   0  0  0  0  0  0  0  0  0  0  0  0
   -4.7708    0.8625    0.0000 C   0  0  0  0  0  0  0  0  0  0  0  0
   -4.7708   -0.0292    0.0000 C   0  0  0  0  0  0  0  0  0  0  0  0
  2 11  1  0  0  0  0
  3  1  2  0  0  0  0
  4  1  1  0  0  0  0
  5  3  1  0  0  0  0
  6  1  1  0  0  0  0
  7  4  1  0  0  0  0
  8  2  1  0  0  0  0
  9  2  1  0  0  0  0
 10  6  1  0  0  0  0
 11 20  1  0  0  0  0
 12  7  1  0  0  0  0
 13  5  1  0  0  0  0
 14  7  2  0  0  0  0
 15  8  1  0  0  0  0
 16  9  1  0  0  0  0
 17  8  2  0  0  0  0
 18  9  2  0  0  0  0
 19 21  1  0  0  0  0
 20 22  2  0  0  0  0
 21 12  2  0  0  0  0
 22 12  1  0  0  0  0
 23 13  1  0  0  0  0
 24 10  1  0  0  0  0
 25 24  2  0  0  0  0
 26 13  2  0  0  0  0
  5 10  2  0  0  0  0
 25 26  1  0  0  0  0
 11 19  2  0  0  0  0
 15 16  1  0  0  0  0
M  END
> <IDNUMBER>
F0327-0299

> <Chemical_Name>
N-(4-chloro-1,3-benzothiazol-2-yl)-4-(2,5-dioxopyrrolidin-1-yl)benzamide

> <CAS>
313405-84-4

> <PriceCoeff>
1.00

> <MW>
385.82

> <Description>
solid

> <FSP3>
0.11

> <clogP>
2.34

> <TPSA>
107.61

> <Acceptor>
4

> <Donor>
1

> <RotBonds>
3

> <HAC>
26

> <Collection>
General

$$$$
F0327-0293
  -ISIS-  06222321142D

 26 29  0  0  0  0  0  0  0  0999 V2000
   -1.9083    0.4333    0.0000 C   0  0  0  0  0  0  0  0  0  0  0  0
    2.9167   -0.3292    0.0000 N   0  0  3  0  0  0  0  0  0  0  0  0
   -2.4125   -0.2792    0.0000 N   0  0  0  0  0  0  0  0  0  0  0  0
   -1.0458    0.4333    0.0000 N   0  0  0  0  0  0  0  0  0  0  0  0
   -2.4000    1.1333    0.0000 S   0  0  0  0  0  0  0  0  0  0  0  0
   -0.6000   -0.3292    0.0000 C   0  0  0  0  0  0  0  0  0  0  0  0
    3.4042   -1.0500    0.0000 C   0  0  0  0  0  0  0  0  0  0  0  0
    3.4167    0.3333    0.0000 C   0  0  0  0  0  0  0  0  0  0  0  0
   -3.2458    0.8708    0.0000 C   0  0  0  0  0  0  0  0  0  0  0  0
   -3.2458   -0.0292    0.0000 C   0  0  0  0  0  0  0  0  0  0  0  0
    2.0375   -0.3292    0.0000 C   0  0  0  0  0  0  0  0  0  0  0  0
   -4.0000    1.3125    0.0000 C   0  0  0  0  0  0  0  0  0  0  0  0
    0.2792   -0.3292    0.0000 C   0  0  0  0  0  0  0  0  0  0  0  0
   -1.0458   -1.0875    0.0000 O   0  0  0  0  0  0  0  0  0  0  0  0
    4.2542   -0.8000    0.0000 C   0  0  0  0  0  0  0  0  0  0  0  0
    4.2500    0.0708    0.0000 C   0  0  0  0  0  0  0  0  0  0  0  0
    3.1000   -1.8667    0.0000 O   0  0  0  0  0  0  0  0  0  0  0  0
    3.1292    1.1833    0.0000 O   0  0  0  0  0  0  0  0  0  0  0  0
   -4.0000   -0.4500    0.0000 C   0  0  0  0  0  0  0  0  0  0  0  0
    1.6000   -1.0875    0.0000 C   0  0  0  0  0  0  0  0  0  0  0  0
    1.6000    0.4333    0.0000 C   0  0  0  0  0  0  0  0  0  0  0  0
    0.7167   -1.0875    0.0000 C   0  0  0  0  0  0  0  0  0  0  0  0
    0.7167    0.4333    0.0000 C   0  0  0  0  0  0  0  0  0  0  0  0
   -4.7708    0.8625    0.0000 C   0  0  0  0  0  0  0  0  0  0  0  0
   -4.7708   -0.0292    0.0000 C   0  0  0  0  0  0  0  0  0  0  0  0
   -5.5208    1.3000    0.0000 Cl  0  0  0  0  0  0  0  0  0  0  0  0
  2 11  1  0  0  0  0
  3  1  2  0  0  0  0
  4  1  1  0  0  0  0
  5  1  1  0  0  0  0
  6  4  1  0  0  0  0
  7  2  1  0  0  0  0
  8  2  1  0  0  0  0
  9  5  1  0  0  0  0
 10  3  1  0  0  0  0
 11 21  1  0  0  0  0
 12  9  1  0  0  0  0
 13  6  1  0  0  0  0
 14  6  2  0  0  0  0
 15  7  1  0  0  0  0
 16  8  1  0  0  0  0
 17  7  2  0  0  0  0
 18  8  2  0  0  0  0
 19 10  1  0  0  0  0
 20 22  1  0  0  0  0
 21 23  2  0  0  0  0
 22 13  2  0  0  0  0
 23 13  1  0  0  0  0
 24 12  2  0  0  0  0
 25 19  2  0  0  0  0
 26 24  1  0  0  0  0
 10  9  2  0  0  0  0
 24 25  1  0  0  0  0
 11 20  2  0  0  0  0
 16 15  1  0  0  0  0
M  END
> <IDNUMBER>
F0327-0293

> <Chemical_Name>
N-(6-chloro-1,3-benzothiazol-2-yl)-4-(2,5-dioxopyrrolidin-1-yl)benzamide

> <CAS>
330191-21-4

> <PriceCoeff>
1.00

> <MW>
385.82

> <Description>
solid

> <FSP3>
0.11

> <clogP>
2.34

> <TPSA>
107.61

> <Acceptor>
4

> <Donor>
1

> <RotBonds>
3

> <HAC>
26

> <Collection>
General

$$$$
F1822-0283
  -ISIS-  06222321142D

 27 30  0  0  0  0  0  0  0  0999 V2000
   -5.9708    3.3958    0.0000 C   0  0  0  0  0  0  0  0  0  0  0  0
   -1.7250    5.0167    0.0000 N   0  0  3  0  0  0  0  0  0  0  0  0
   -6.0542    2.5583    0.0000 N   0  0  0  0  0  0  0  0  0  0  0  0
   -5.2833    3.7958    0.0000 N   0  0  0  0  0  0  0  0  0  0  0  0
   -6.7292    3.7333    0.0000 S   0  0  0  0  0  0  0  0  0  0  0  0
   -6.8750    2.3833    0.0000 C   0  0  0  0  0  0  0  0  0  0  0  0
   -4.5833    3.3958    0.0000 C   0  0  0  0  0  0  0  0  0  0  0  0
   -1.6708    5.8417    0.0000 C   0  0  0  0  0  0  0  0  0  0  0  0
   -0.9625    4.7167    0.0000 C   0  0  0  0  0  0  0  0  0  0  0  0
   -7.2792    3.1125    0.0000 C   0  0  0  0  0  0  0  0  0  0  0  0
   -2.4458    4.6042    0.0000 C   0  0  0  0  0  0  0  0  0  0  0  0
   -3.8708    3.8000    0.0000 C   0  0  0  0  0  0  0  0  0  0  0  0
   -4.5833    2.5875    0.0000 O   0  0  0  0  0  0  0  0  0  0  0  0
   -0.8625    6.0417    0.0000 C   0  0  0  0  0  0  0  0  0  0  0  0
   -0.4458    5.3417    0.0000 C   0  0  0  0  0  0  0  0  0  0  0  0
   -2.3083    6.3917    0.0000 O   0  0  0  0  0  0  0  0  0  0  0  0
   -0.7625    3.9250    0.0000 O   0  0  0  0  0  0  0  0  0  0  0  0
   -7.2792    1.6625    0.0000 C   0  0  0  0  0  0  0  0  0  0  0  0
   -2.4500    3.8000    0.0000 C   0  0  0  0  0  0  0  0  0  0  0  0
   -3.1583    5.0292    0.0000 C   0  0  0  0  0  0  0  0  0  0  0  0
   -3.8708    4.6250    0.0000 C   0  0  0  0  0  0  0  0  0  0  0  0
   -3.1625    3.3958    0.0000 C   0  0  0  0  0  0  0  0  0  0  0  0
   -8.1250    3.1208    0.0000 C   0  0  0  0  0  0  0  0  0  0  0  0
   -8.5417    2.3958    0.0000 C   0  0  0  0  0  0  0  0  0  0  0  0
   -8.1167    1.6583    0.0000 C   0  0  0  0  0  0  0  0  0  0  0  0
   -6.8792    0.9750    0.0000 C   0  0  0  0  0  0  0  0  0  0  0  0
   -7.2792    0.2833    0.0000 C   0  0  0  0  0  0  0  0  0  0  0  0
  2 11  1  0  0  0  0
  3  1  2  0  0  0  0
  4  1  1  0  0  0  0
  5  1  1  0  0  0  0
  6  3  1  0  0  0  0
  7  4  1  0  0  0  0
  8  2  1  0  0  0  0
  9  2  1  0  0  0  0
 10  5  1  0  0  0  0
 11 19  2  0  0  0  0
 12  7  1  0  0  0  0
 13  7  2  0  0  0  0
 14  8  1  0  0  0  0
 15  9  1  0  0  0  0
 16  8  2  0  0  0  0
 17  9  2  0  0  0  0
 18  6  1  0  0  0  0
 19 22  1  0  0  0  0
 20 21  2  0  0  0  0
 21 12  1  0  0  0  0
 22 12  2  0  0  0  0
 23 10  1  0  0  0  0
 24 23  2  0  0  0  0
 25 18  2  0  0  0  0
 26 18  1  0  0  0  0
 27 26  1  0  0  0  0
 10  6  2  0  0  0  0
 25 24  1  0  0  0  0
 11 20  1  0  0  0  0
 15 14  1  0  0  0  0
M  END
> <IDNUMBER>
F1822-0283

> <Chemical_Name>
4-(2,5-dioxopyrrolidin-1-yl)-N-(4-ethyl-1,3-benzothiazol-2-yl)benzamide

> <CAS>
892857-73-7

> <PriceCoeff>
1.00

> <MW>
379.43

> <Description>
solid

> <FSP3>
0.20

> <clogP>
2.65

> <TPSA>
107.61

> <Acceptor>
4

> <Donor>
1

> <RotBonds>
4

> <HAC>
27

> <Collection>
General

$$$$
F6250-0278
  -ISIS-  06222321152D

 30 32  0  0  0  0  0  0  0  0999 V2000
   -3.8708    3.8000    0.0000 S   0  0  3  0  0  0  0  0  0  0  0  0
   -6.0042    3.4458    0.0000 N   0  0  3  0  0  0  0  0  0  0  0  0
   -4.5708    7.5000    0.0000 C   0  0  0  0  0  0  0  0  0  0  0  0
   -6.7042    3.8750    0.0000 C   0  0  0  0  0  0  0  0  0  0  0  0
   -6.0250    2.6208    0.0000 C   0  0  0  0  0  0  0  0  0  0  0  0
   -4.5917    3.4083    0.0000 C   0  0  0  0  0  0  0  0  0  0  0  0
   -5.2833    3.8333    0.0000 C   0  0  0  0  0  0  0  0  0  0  0  0
   -3.1583    4.2042    0.0000 N   0  0  0  0  0  0  0  0  0  0  0  0
   -5.2833    7.9167    0.0000 N   0  0  0  0  0  0  0  0  0  0  0  0
   -3.4750    3.0833    0.0000 O   0  0  0  0  0  0  0  0  0  0  0  0
   -4.0708    4.6042    0.0000 O   0  0  0  0  0  0  0  0  0  0  0  0
   -4.5833    6.6792    0.0000 O   0  0  0  0  0  0  0  0  0  0  0  0
   -3.8583    7.9042    0.0000 O   0  0  0  0  0  0  0  0  0  0  0  0
   -5.3208    2.1875    0.0000 O   0  0  0  0  0  0  0  0  0  0  0  0
   -6.6875    4.6917    0.0000 O   0  0  0  0  0  0  0  0  0  0  0  0
   -3.8750    5.4375    0.0000 C   0  0  0  0  0  0  0  0  0  0  0  0
   -3.1583    5.0292    0.0000 C   0  0  3  0  0  0  0  0  0  0  0  0
   -3.8708    6.2667    0.0000 C   0  0  3  0  0  0  0  0  0  0  0  0
   -5.2833    8.7417    0.0000 C   0  0  0  0  0  0  0  0  0  0  0  0
   -6.7417    2.2250    0.0000 C   0  0  0  0  0  0  0  0  0  0  0  0
   -7.4167    3.4792    0.0000 C   0  0  0  0  0  0  0  0  0  0  0  0
   -7.4417    2.6583    0.0000 C   0  0  0  0  0  0  0  0  0  0  0  0
   -2.4458    6.2625    0.0000 C   0  0  0  0  0  0  0  0  0  0  0  0
   -2.4458    5.4417    0.0000 C   0  0  0  0  0  0  0  0  0  0  0  0
   -3.1583    6.6750    0.0000 C   0  0  0  0  0  0  0  0  0  0  0  0
   -5.9958    9.1542    0.0000 C   0  0  0  0  0  0  0  0  0  0  0  0
   -4.5625    9.1500    0.0000 C   0  0  0  0  0  0  0  0  0  0  0  0
   -4.5625    9.9667    0.0000 C   0  0  0  0  0  0  0  0  0  0  0  0
   -5.9958    9.9750    0.0000 C   0  0  0  0  0  0  0  0  0  0  0  0
   -5.2708   10.3833    0.0000 C   0  0  0  0  0  0  0  0  0  0  0  0
  2  7  1  0  0  0  0
  3 12  1  0  0  0  0
  4  2  1  0  0  0  0
  5  2  1  0  0  0  0
  6  1  1  0  0  0  0
  7  6  1  0  0  0  0
  8  1  1  0  0  0  0
  9  3  1  0  0  0  0
 10  1  2  0  0  0  0
 11  1  2  0  0  0  0
 12 18  1  0  0  0  0
 13  3  2  0  0  0  0
 14  5  2  0  0  0  0
 15  4  2  0  0  0  0
 16 17  1  0  0  0  0
 17  8  1  0  0  0  0
 18 16  1  0  0  0  0
 19  9  1  0  0  0  0
 20  5  1  0  0  0  0
 21  4  1  0  0  0  0
 22 20  1  0  0  0  0
 23 24  1  0  0  0  0
 24 17  1  0  0  0  0
 25 23  1  0  0  0  0
 26 19  1  0  0  0  0
 27 19  2  0  0  0  0
 28 27  1  0  0  0  0
 29 26  2  0  0  0  0
 30 28  2  0  0  0  0
 18 25  1  0  0  0  0
 22 21  1  0  0  0  0
 30 29  1  0  0  0  0
M  END
> <IDNUMBER>
F6250-0278

> <Chemical_Name>
3-[2-(2,6-dioxopiperidin-1-yl)ethanesulfonamido]cyclohexyl N-phenylcarbamate

> <CAS>
1396857-41-2

> <PriceCoeff>
1.00

> <MW>
437.51

> <Description>
solid

> <FSP3>
0.55

> <clogP>
2.57

> <TPSA>
130.26

> <Acceptor>
6

> <Donor>
2

> <RotBonds>
8

> <HAC>
30

> <Collection>
General

$$$$
F3350-0579
  -ISIS-  06222321462D

 27 29  0  0  0  0  0  0  0  0999 V2000
    5.0042    0.6833    0.0000 S   0  0  3  0  0  0  0  0  0  0  0  0
    7.8500    2.3500    0.0000 N   0  0  3  0  0  0  0  0  0  0  0  0
    8.6125    2.0208    0.0000 C   0  0  0  0  0  0  0  0  0  0  0  0
    7.9375    3.1708    0.0000 C   0  0  0  0  0  0  0  0  0  0  0  0
    4.2917    0.2625    0.0000 N   0  0  0  0  0  0  0  0  0  0  0  0
    5.7167    1.1000    0.0000 C   0  0  0  0  0  0  0  0  0  0  0  0
    7.1375    1.9333    0.0000 C   0  0  0  0  0  0  0  0  0  0  0  0
    5.4250   -0.0292    0.0000 O   0  0  0  0  0  0  0  0  0  0  0  0
    4.5917    1.3958    0.0000 O   0  0  0  0  0  0  0  0  0  0  0  0
    2.8667    0.2583    0.0000 C   0  0  0  0  0  0  0  0  0  0  0  0
    2.1542   -0.1542    0.0000 C   0  0  0  0  0  0  0  0  0  0  0  0
    3.5792   -0.1542    0.0000 C   0  0  0  0  0  0  0  0  0  0  0  0
    2.1542   -0.9792    0.0000 C   0  0  0  0  0  0  0  0  0  0  0  0
    8.7417    3.3458    0.0000 C   0  0  0  0  0  0  0  0  0  0  0  0
    9.1625    2.6333    0.0000 C   0  0  0  0  0  0  0  0  0  0  0  0
    8.7875    1.2083    0.0000 O   0  0  0  0  0  0  0  0  0  0  0  0
    7.3250    3.7208    0.0000 O   0  0  0  0  0  0  0  0  0  0  0  0
    5.7125    1.9208    0.0000 C   0  0  0  0  0  0  0  0  0  0  0  0
    6.4292    0.6958    0.0000 C   0  0  0  0  0  0  0  0  0  0  0  0
    6.4250    2.3375    0.0000 C   0  0  0  0  0  0  0  0  0  0  0  0
    7.1417    1.1125    0.0000 C   0  0  0  0  0  0  0  0  0  0  0  0
    2.8667   -1.3917    0.0000 C   0  0  0  0  0  0  0  0  0  0  0  0
    3.5792   -0.9792    0.0000 C   0  0  0  0  0  0  0  0  0  0  0  0
    1.4417    0.2583    0.0000 O   0  0  0  0  0  0  0  0  0  0  0  0
    1.4417   -1.3917    0.0000 O   0  0  0  0  0  0  0  0  0  0  0  0
    0.7250   -0.1542    0.0000 C   0  0  0  0  0  0  0  0  0  0  0  0
    1.4417   -2.2167    0.0000 C   0  0  0  0  0  0  0  0  0  0  0  0
  2  7  1  0  0  0  0
  3  2  1  0  0  0  0
  4  2  1  0  0  0  0
  5  1  1  0  0  0  0
  6  1  1  0  0  0  0
  7 21  2  0  0  0  0
  8  1  2  0  0  0  0
  9  1  2  0  0  0  0
 10 12  2  0  0  0  0
 11 10  1  0  0  0  0
 12  5  1  0  0  0  0
 13 22  1  0  0  0  0
 14  4  1  0  0  0  0
 15  3  1  0  0  0  0
 16  3  2  0  0  0  0
 17  4  2  0  0  0  0
 18  6  1  0  0  0  0
 19  6  2  0  0  0  0
 20 18  2  0  0  0  0
 21 19  1  0  0  0  0
 22 23  2  0  0  0  0
 23 12  1  0  0  0  0
 24 11  1  0  0  0  0
 25 13  1  0  0  0  0
 26 24  1  0  0  0  0
 27 25  1  0  0  0  0
  7 20  1  0  0  0  0
 13 11  2  0  0  0  0
 14 15  1  0  0  0  0
M  END
> <IDNUMBER>
F3350-0579

> <Chemical_Name>
N-(3,4-dimethoxyphenyl)-4-(2,5-dioxopyrrolidin-1-yl)benzene-1-sulfonamide

> <CAS>
919681-34-8

> <PriceCoeff>
1.00

> <MW>
390.41

> <Description>
solid

> <FSP3>
0.22

> <clogP>
0.45

> <TPSA>
110.39

> <Acceptor>
7

> <Donor>
1

> <RotBonds>
6

> <HAC>
27

> <Collection>
General

$$$$
F0920-5439
  -ISIS-  06222321452D

 34 36  0  0  0  0  0  0  0  0999 V2000
    5.3792   -3.3417    0.0000 C   0  0  0  0  0  0  0  0  0  0  0  0
    8.9000   -3.3417    0.0000 C   0  0  0  0  0  0  0  0  0  0  0  0
    7.1375   -2.3125    0.0000 C   0  0  3  0  0  0  0  0  0  0  0  0
    3.6167   -2.3250    0.0000 C   0  0  0  0  0  0  0  0  0  0  0  0
    5.3792   -5.3792    0.0000 C   0  0  0  0  0  0  0  0  0  0  0  0
    8.9000   -5.3792    0.0000 C   0  0  0  0  0  0  0  0  0  0  0  0
   10.6875   -2.3250    0.0000 C   0  0  0  0  0  0  0  0  0  0  0  0
    1.8292   -3.3417    0.0000 C   0  0  3  0  0  0  0  0  0  0  0  0
    7.1375   -6.4000    0.0000 N   0  0  0  0  0  0  0  0  0  0  0  0
    7.1375   -0.2542    0.0000 C   0  0  0  0  0  0  0  0  0  0  0  0
    1.8292   -5.3792    0.0000 C   0  0  3  0  0  0  0  0  0  0  0  0
    7.1375    3.8583    0.0000 C   0  0  0  0  0  0  0  0  0  0  0  0
    0.0667   -2.3125    0.0000 C   0  0  0  0  0  0  0  0  0  0  0  0
    3.6167   -6.4167    0.0000 C   0  0  0  0  0  0  0  0  0  0  0  0
    5.3500    2.8333    0.0000 C   0  0  0  0  0  0  0  0  0  0  0  0
    8.9292    2.8333    0.0000 C   0  0  0  0  0  0  0  0  0  0  0  0
    5.3667    0.7625    0.0000 C   0  0  0  0  0  0  0  0  0  0  0  0
    8.9292    0.7750    0.0000 C   0  0  0  0  0  0  0  0  0  0  0  0
   12.4500   -3.3417    0.0000 O   0  0  0  0  0  0  0  0  0  0  0  0
    3.6167   -0.2750    0.0000 O   0  0  0  0  0  0  0  0  0  0  0  0
   10.6875   -0.2750    0.0000 O   0  0  0  0  0  0  0  0  0  0  0  0
    0.0667   -0.2542    0.0000 O   0  0  0  0  0  0  0  0  0  0  0  0
    3.5792    3.8583    0.0000 Cl  0  0  0  0  0  0  0  0  0  0  0  0
    7.1375    5.9042    0.0000 O   0  0  0  0  0  0  0  0  0  0  0  0
   -1.7208   -3.3292    0.0000 O   0  0  0  0  0  0  0  0  0  0  0  0
   10.6875    3.8583    0.0000 O   0  0  0  0  0  0  0  0  0  0  0  0
   10.6875   -6.4167    0.0000 C   0  0  0  0  0  0  0  0  0  0  0  0
    0.0667   -6.4000    0.0000 C   0  0  0  0  0  0  0  0  0  0  0  0
   14.2375   -2.3250    0.0000 C   0  0  3  0  0  0  0  0  0  0  0  0
   12.4792    2.8333    0.0000 C   0  0  0  0  0  0  0  0  0  0  0  0
   -3.4833   -2.3125    0.0000 C   0  0  0  0  0  0  0  0  0  0  0  0
   14.2375   -0.2875    0.0000 C   0  0  0  0  0  0  0  0  0  0  0  0
   16.0000   -3.3625    0.0000 C   0  0  0  0  0  0  0  0  0  0  0  0
   14.2375    3.8625    0.0000 C   0  0  0  0  0  0  0  0  0  0  0  0
  2  3  1  0  0  0  0
  3  1  1  0  0  0  0
  4  1  1  0  0  0  0
  5  1  2  0  0  0  0
  6  9  1  0  0  0  0
  7  2  1  0  0  0  0
  8  4  1  0  0  0  0
  9  5  1  0  0  0  0
 10  3  1  0  0  0  0
 11 14  1  0  0  0  0
 12 16  2  0  0  0  0
 13  8  1  0  0  0  0
 14  5  1  0  0  0  0
 15 17  2  0  0  0  0
 16 18  1  0  0  0  0
 17 10  1  0  0  0  0
 18 10  2  0  0  0  0
 19  7  1  0  0  0  0
 20  4  2  0  0  0  0
 21  7  2  0  0  0  0
 22 13  2  0  0  0  0
 23 15  1  0  0  0  0
 24 12  1  0  0  0  0
 25 13  1  0  0  0  0
 26 16  1  0  0  0  0
 27  6  1  0  0  0  0
 28 11  1  0  0  0  0
 29 19  1  0  0  0  0
 30 26  1  0  0  0  0
 31 25  1  0  0  0  0
 32 29  1  0  0  0  0
 33 29  1  0  0  0  0
 34 30  1  0  0  0  0
 11  8  1  0  0  0  0
  2  6  2  0  0  0  0
 15 12  1  0  0  0  0
M  END
> <IDNUMBER>
F0920-5439

> <Chemical_Name>
6-methyl 3-propan-2-yl 4-(3-chloro-5-ethoxy-4-hydroxyphenyl)-2,7-dimethyl-5-oxo-1,4,5,6,7,8-hexahydroquinoline-3,6-dicarboxylate

> <CAS>
1005122-65-5

> <PriceCoeff>
1.00

> <MW>
491.96

> <Description>
solid

> <FSP3>
0.48

> <clogP>
3.91

> <TPSA>
111.16

> <Acceptor>
7

> <Donor>
2

> <RotBonds>
8

> <HAC>
34

> <Collection>
General

$$$$
F1199-0041
  -ISIS-  06222321452D

 19 20  0  0  0  0  0  0  0  0999 V2000
   -1.3833    1.1958    0.0000 N   0  0  3  0  0  0  0  0  0  0  0  0
   -1.1333    0.4083    0.0000 C   0  0  0  0  0  0  0  0  0  0  0  0
   -0.7208    1.6833    0.0000 C   0  0  0  0  0  0  0  0  0  0  0  0
   -0.3083    0.4083    0.0000 C   0  0  3  0  0  0  0  0  0  0  0  0
   -0.0500    1.1958    0.0000 C   0  0  0  0  0  0  0  0  0  0  0  0
    1.4792   -0.8417    0.0000 C   0  0  0  0  0  0  0  0  0  0  0  0
    0.1792   -0.2542    0.0000 S   0  0  0  0  0  0  0  0  0  0  0  0
    1.0000   -0.1667    0.0000 C   0  0  0  0  0  0  0  0  0  0  0  0
    1.1417   -1.5917    0.0000 C   0  0  0  0  0  0  0  0  0  0  0  0
   -1.6208   -0.2542    0.0000 O   0  0  0  0  0  0  0  0  0  0  0  0
   -0.7208    2.5083    0.0000 O   0  0  0  0  0  0  0  0  0  0  0  0
    1.6167   -2.2667    0.0000 O   0  0  0  0  0  0  0  0  0  0  0  0
   -2.1708    1.4500    0.0000 C   0  0  0  0  0  0  0  0  0  0  0  0
    0.3167   -1.6792    0.0000 O   0  0  0  0  0  0  0  0  0  0  0  0
    2.3000   -0.7542    0.0000 C   0  0  0  0  0  0  0  0  0  0  0  0
    1.3292    0.5833    0.0000 C   0  0  0  0  0  0  0  0  0  0  0  0
   -2.3458    2.2583    0.0000 C   0  0  0  0  0  0  0  0  0  0  0  0
    2.6375   -0.0000    0.0000 C   0  0  0  0  0  0  0  0  0  0  0  0
    2.1417    0.6708    0.0000 C   0  0  0  0  0  0  0  0  0  0  0  0
  2  1  1  0  0  0  0
  3  1  1  0  0  0  0
  4  2  1  0  0  0  0
  5  3  1  0  0  0  0
  6  8  2  0  0  0  0
  7  4  1  0  0  0  0
  8  7  1  0  0  0  0
  9  6  1  0  0  0  0
 10  2  2  0  0  0  0
 11  3  2  0  0  0  0
 12  9  2  0  0  0  0
 13  1  1  0  0  0  0
 14  9  1  0  0  0  0
 15  6  1  0  0  0  0
 16  8  1  0  0  0  0
 17 13  1  0  0  0  0
 18 19  1  0  0  0  0
 19 16  2  0  0  0  0
  5  4  1  0  0  0  0
 18 15  2  0  0  0  0
M  END
> <IDNUMBER>
F1199-0041

> <Chemical_Name>
2-[(1-ethyl-2,5-dioxopyrrolidin-3-yl)sulfanyl]benzoic acid

> <CAS>
350030-47-6

> <PriceCoeff>
1.00

> <MW>
279.31

> <Description>
solid

> <FSP3>
0.31

> <clogP>
1.77

> <TPSA>
99.98

> <Acceptor>
4

> <Donor>
0

> <RotBonds>
4

> <HAC>
19

> <Collection>
General

$$$$
F2708-0061
  -ISIS-  06222321152D

 28 31  0  0  0  0  0  0  0  0999 V2000
   -1.7375    4.2125    0.0000 C   0  0  0  0  0  0  0  0  0  0  0  0
   -6.0042    4.2125    0.0000 N   0  0  3  0  0  0  0  0  0  0  0  0
   -1.6583    5.0292    0.0000 N   0  0  0  0  0  0  0  0  0  0  0  0
   -0.8583    5.2042    0.0000 C   0  0  0  0  0  0  0  0  0  0  0  0
   -0.4458    4.4917    0.0000 C   0  0  0  0  0  0  0  0  0  0  0  0
   -2.4458    3.8000    0.0000 N   0  0  0  0  0  0  0  0  0  0  0  0
   -0.9833    3.8958    0.0000 S   0  0  0  0  0  0  0  0  0  0  0  0
   -5.2958    3.8000    0.0000 C   0  0  0  0  0  0  0  0  0  0  0  0
   -3.1583    4.2042    0.0000 C   0  0  0  0  0  0  0  0  0  0  0  0
   -6.7667    3.9208    0.0000 C   0  0  0  0  0  0  0  0  0  0  0  0
   -6.0417    5.0292    0.0000 C   0  0  0  0  0  0  0  0  0  0  0  0
   -4.5833    4.2042    0.0000 C   0  0  0  0  0  0  0  0  0  0  0  0
   -3.8708    3.8000    0.0000 C   0  0  0  0  0  0  0  0  0  0  0  0
    0.3667    4.4917    0.0000 C   0  0  0  0  0  0  0  0  0  0  0  0
   -0.4500    5.9042    0.0000 C   0  0  0  0  0  0  0  0  0  0  0  0
   -3.1583    5.0250    0.0000 O   0  0  0  0  0  0  0  0  0  0  0  0
   -7.2917    4.5292    0.0000 C   0  0  0  0  0  0  0  0  0  0  0  0
   -6.8542    5.2292    0.0000 C   0  0  0  0  0  0  0  0  0  0  0  0
   -6.9792    3.1208    0.0000 O   0  0  0  0  0  0  0  0  0  0  0  0
   -5.4208    5.5542    0.0000 O   0  0  0  0  0  0  0  0  0  0  0  0
    0.7792    5.2042    0.0000 C   0  0  0  0  0  0  0  0  0  0  0  0
    0.3625    5.9042    0.0000 C   0  0  0  0  0  0  0  0  0  0  0  0
    0.8417    3.6750    0.0000 Cl  0  0  0  0  0  0  0  0  0  0  0  0
   -5.2958    2.9833    0.0000 C   0  0  0  0  0  0  0  0  0  0  0  0
   -0.8708    6.6125    0.0000 O   0  0  0  0  0  0  0  0  0  0  0  0
   -3.8708    2.9833    0.0000 C   0  0  0  0  0  0  0  0  0  0  0  0
   -4.5833    2.5625    0.0000 C   0  0  0  0  0  0  0  0  0  0  0  0
   -0.7208    7.3625    0.0000 C   0  0  0  0  0  0  0  0  0  0  0  0
  2  8  1  0  0  0  0
  3  1  2  0  0  0  0
  4  3  1  0  0  0  0
  5  7  1  0  0  0  0
  6  1  1  0  0  0  0
  7  1  1  0  0  0  0
  8 12  1  0  0  0  0
  9  6  1  0  0  0  0
 10  2  1  0  0  0  0
 11  2  1  0  0  0  0
 12 13  2  0  0  0  0
 13  9  1  0  0  0  0
 14  5  1  0  0  0  0
 15  4  1  0  0  0  0
 16  9  2  0  0  0  0
 17 10  1  0  0  0  0
 18 11  1  0  0  0  0
 19 10  2  0  0  0  0
 20 11  2  0  0  0  0
 21 14  2  0  0  0  0
 22 15  2  0  0  0  0
 23 14  1  0  0  0  0
 24 27  1  0  0  0  0
 25 15  1  0  0  0  0
 26 13  1  0  0  0  0
 27 26  2  0  0  0  0
 28 25  1  0  0  0  0
  5  4  2  0  0  0  0
 22 21  1  0  0  0  0
  8 24  2  0  0  0  0
 17 18  1  0  0  0  0
M  END
> <IDNUMBER>
F2708-0061

> <Chemical_Name>
N-(7-chloro-4-methoxy-1,3-benzothiazol-2-yl)-3-(2,5-dioxopyrrolidin-1-yl)benzamide

> <CAS>
886948-70-5

> <PriceCoeff>
1.00

> <MW>
415.85

> <Description>
solid

> <FSP3>
0.16

> <clogP>
2.61

> <TPSA>
116.84

> <Acceptor>
5

> <Donor>
1

> <RotBonds>
4

> <HAC>
28

> <Collection>
General

$$$$
F0327-0291
  -ISIS-  06222321452D

 27 30  0  0  0  0  0  0  0  0999 V2000
   -1.9083    0.4333    0.0000 C   0  0  0  0  0  0  0  0  0  0  0  0
    2.9167   -0.3292    0.0000 N   0  0  3  0  0  0  0  0  0  0  0  0
   -2.4125   -0.2792    0.0000 N   0  0  0  0  0  0  0  0  0  0  0  0
   -1.0458    0.4333    0.0000 N   0  0  0  0  0  0  0  0  0  0  0  0
   -3.2458   -0.0292    0.0000 C   0  0  0  0  0  0  0  0  0  0  0  0
   -2.4000    1.1333    0.0000 S   0  0  0  0  0  0  0  0  0  0  0  0
   -0.6000   -0.3292    0.0000 C   0  0  0  0  0  0  0  0  0  0  0  0
    3.4042   -1.0500    0.0000 C   0  0  0  0  0  0  0  0  0  0  0  0
    3.4167    0.3333    0.0000 C   0  0  0  0  0  0  0  0  0  0  0  0
   -3.2458    0.8708    0.0000 C   0  0  0  0  0  0  0  0  0  0  0  0
    2.0375   -0.3292    0.0000 C   0  0  0  0  0  0  0  0  0  0  0  0
    0.2792   -0.3292    0.0000 C   0  0  0  0  0  0  0  0  0  0  0  0
   -4.0000   -0.4500    0.0000 C   0  0  0  0  0  0  0  0  0  0  0  0
   -1.0458   -1.0875    0.0000 O   0  0  0  0  0  0  0  0  0  0  0  0
    4.2500    0.0708    0.0000 C   0  0  0  0  0  0  0  0  0  0  0  0
    4.2542   -0.8000    0.0000 C   0  0  0  0  0  0  0  0  0  0  0  0
    3.1292    1.1833    0.0000 O   0  0  0  0  0  0  0  0  0  0  0  0
    3.1000   -1.8667    0.0000 O   0  0  0  0  0  0  0  0  0  0  0  0
    1.6000    0.4333    0.0000 C   0  0  0  0  0  0  0  0  0  0  0  0
    1.6000   -1.0875    0.0000 C   0  0  0  0  0  0  0  0  0  0  0  0
    0.7167    0.4333    0.0000 C   0  0  0  0  0  0  0  0  0  0  0  0
    0.7167   -1.0875    0.0000 C   0  0  0  0  0  0  0  0  0  0  0  0
   -4.0000   -1.3167    0.0000 O   0  0  0  0  0  0  0  0  0  0  0  0
   -4.0000    1.3125    0.0000 C   0  0  0  0  0  0  0  0  0  0  0  0
   -4.7708    0.8625    0.0000 C   0  0  0  0  0  0  0  0  0  0  0  0
   -4.7708   -0.0292    0.0000 C   0  0  0  0  0  0  0  0  0  0  0  0
   -4.7708   -1.7500    0.0000 C   0  0  0  0  0  0  0  0  0  0  0  0
  2 11  1  0  0  0  0
  3  1  2  0  0  0  0
  4  1  1  0  0  0  0
  5  3  1  0  0  0  0
  6  1  1  0  0  0  0
  7  4  1  0  0  0  0
  8  2  1  0  0  0  0
  9  2  1  0  0  0  0
 10  6  1  0  0  0  0
 11 20  2  0  0  0  0
 12  7  1  0  0  0  0
 13  5  1  0  0  0  0
 14  7  2  0  0  0  0
 15  9  1  0  0  0  0
 16  8  1  0  0  0  0
 17  9  2  0  0  0  0
 18  8  2  0  0  0  0
 19 21  2  0  0  0  0
 20 22  1  0  0  0  0
 21 12  1  0  0  0  0
 22 12  2  0  0  0  0
 23 13  1  0  0  0  0
 24 10  1  0  0  0  0
 25 24  2  0  0  0  0
 26 13  2  0  0  0  0
 27 23  1  0  0  0  0
  5 10  2  0  0  0  0
 25 26  1  0  0  0  0
 19 11  1  0  0  0  0
 15 16  1  0  0  0  0
M  END
> <IDNUMBER>
F0327-0291

> <Chemical_Name>
4-(2,5-dioxopyrrolidin-1-yl)-N-(4-methoxy-1,3-benzothiazol-2-yl)benzamide

> <CAS>
476281-64-8

> <PriceCoeff>
1.00

> <MW>
381.41

> <Description>
solid

> <FSP3>
0.16

> <clogP>
1.92

> <TPSA>
116.84

> <Acceptor>
5

> <Donor>
1

> <RotBonds>
4

> <HAC>
27

> <Collection>
General

$$$$
F0466-0001
  -ISIS-  06222321452D

 27 30  0  0  0  0  0  0  0  0999 V2000
   -2.1833   -0.1167    0.0000 C   0  0  0  0  0  0  0  0  0  0  0  0
   -3.1625   -1.8792    0.0000 N   0  0  3  0  0  0  0  0  0  0  0  0
   -2.5625   -0.6542    0.0000 N   0  0  0  0  0  0  0  0  0  0  0  0
   -1.5208   -0.1167    0.0000 N   0  0  0  0  0  0  0  0  0  0  0  0
   -2.5625    0.3958    0.0000 S   0  0  0  0  0  0  0  0  0  0  0  0
   -2.5000   -1.8542    0.0000 C   0  0  0  0  0  0  0  0  0  0  0  0
   -1.1833   -0.7000    0.0000 C   0  0  0  0  0  0  0  0  0  0  0  0
   -3.5000   -1.3167    0.0000 C   0  0  0  0  0  0  0  0  0  0  0  0
   -3.6000   -2.3792    0.0000 C   0  0  0  0  0  0  0  0  0  0  0  0
   -3.1833    0.1958    0.0000 C   0  0  0  0  0  0  0  0  0  0  0  0
   -3.1833   -0.4542    0.0000 C   0  0  0  0  0  0  0  0  0  0  0  0
   -2.1833   -1.2792    0.0000 C   0  0  0  0  0  0  0  0  0  0  0  0
   -1.5208   -1.2792    0.0000 C   0  0  0  0  0  0  0  0  0  0  0  0
   -3.7458    0.5333    0.0000 C   0  0  0  0  0  0  0  0  0  0  0  0
   -0.5458   -0.7000    0.0000 O   0  0  0  0  0  0  0  0  0  0  0  0
   -4.2083   -2.1167    0.0000 C   0  0  0  0  0  0  0  0  0  0  0  0
   -4.1458   -1.4792    0.0000 C   0  0  0  0  0  0  0  0  0  0  0  0
   -3.2458   -0.7000    0.0000 O   0  0  0  0  0  0  0  0  0  0  0  0
   -3.4833   -3.0500    0.0000 O   0  0  0  0  0  0  0  0  0  0  0  0
   -3.7458   -0.8000    0.0000 C   0  0  0  0  0  0  0  0  0  0  0  0
   -4.3000    0.1958    0.0000 C   0  0  0  0  0  0  0  0  0  0  0  0
   -4.3000   -0.4542    0.0000 C   0  0  0  0  0  0  0  0  0  0  0  0
   -2.1625   -2.4167    0.0000 C   0  0  0  0  0  0  0  0  0  0  0  0
   -4.9083    0.5333    0.0000 O   0  0  0  0  0  0  0  0  0  0  0  0
   -1.1833   -1.8500    0.0000 C   0  0  0  0  0  0  0  0  0  0  0  0
   -1.5000   -2.4000    0.0000 C   0  0  0  0  0  0  0  0  0  0  0  0
   -4.9083    1.1958    0.0000 C   0  0  0  0  0  0  0  0  0  0  0  0
  2  6  1  0  0  0  0
  3  1  2  0  0  0  0
  4  1  1  0  0  0  0
  5  1  1  0  0  0  0
  6 12  2  0  0  0  0
  7  4  1  0  0  0  0
  8  2  1  0  0  0  0
  9  2  1  0  0  0  0
 10  5  1  0  0  0  0
 11  3  1  0  0  0  0
 12 13  1  0  0  0  0
 13  7  1  0  0  0  0
 14 10  1  0  0  0  0
 15  7  2  0  0  0  0
 16  9  1  0  0  0  0
 17  8  1  0  0  0  0
 18  8  2  0  0  0  0
 19  9  2  0  0  0  0
 20 11  1  0  0  0  0
 21 14  2  0  0  0  0
 22 20  2  0  0  0  0
 23 26  2  0  0  0  0
 24 21  1  0  0  0  0
 25 13  2  0  0  0  0
 26 25  1  0  0  0  0
 27 24  1  0  0  0  0
 10 11  2  0  0  0  0
 22 21  1  0  0  0  0
 23  6  1  0  0  0  0
 17 16  1  0  0  0  0
M  END
> <IDNUMBER>
F0466-0001

> <Chemical_Name>
3-(2,5-dioxopyrrolidin-1-yl)-N-(6-methoxy-1,3-benzothiazol-2-yl)benzamide

> <CAS>
476321-51-4

> <PriceCoeff>
1.00

> <MW>
381.41

> <Description>
solid

> <FSP3>
0.16

> <clogP>
1.92

> <TPSA>
116.84

> <Acceptor>
5

> <Donor>
1

> <RotBonds>
4

> <HAC>
27

> <Collection>
General

$$$$
F3269-0033
  -ISIS-  06222321152D

 23 25  0  0  0  0  0  0  0  0999 V2000
    3.0250   -2.6375    0.0000 N   0  0  3  0  0  0  0  0  0  0  0  0
    3.5167   -3.3000    0.0000 C   0  0  0  0  0  0  0  0  0  0  0  0
    4.3000   -3.0375    0.0000 S   0  0  0  0  0  0  0  0  0  0  0  0
    3.5042   -1.9625    0.0000 C   0  0  0  0  0  0  0  0  0  0  0  0
    4.2917   -2.2125    0.0000 C   0  0  3  0  0  0  0  0  0  0  0  0
    0.9542   -1.9375    0.0000 N   0  0  3  0  0  0  0  0  0  0  0  0
    0.4667   -1.2667    0.0000 C   0  0  0  0  0  0  0  0  0  0  0  0
    0.4750   -2.6125    0.0000 C   0  0  0  0  0  0  0  0  0  0  0  0
    2.1917   -2.6417    0.0000 C   0  0  0  0  0  0  0  0  0  0  0  0
    1.7792   -1.9292    0.0000 C   0  0  0  0  0  0  0  0  0  0  0  0
    4.9542   -1.7250    0.0000 N   0  0  0  0  0  0  0  0  0  0  0  0
    3.2667   -4.0792    0.0000 O   0  0  0  0  0  0  0  0  0  0  0  0
    3.2417   -1.1792    0.0000 O   0  0  0  0  0  0  0  0  0  0  0  0
   -0.3208   -2.3542    0.0000 C   0  0  0  0  0  0  0  0  0  0  0  0
   -0.3208   -1.5292    0.0000 C   0  0  0  0  0  0  0  0  0  0  0  0
    0.7167   -0.4792    0.0000 O   0  0  0  0  0  0  0  0  0  0  0  0
    0.7292   -3.3917    0.0000 O   0  0  0  0  0  0  0  0  0  0  0  0
    5.7125   -2.0542    0.0000 C   0  0  0  0  0  0  0  0  0  0  0  0
    5.8042   -2.8750    0.0000 C   0  0  0  0  0  0  0  0  0  0  0  0
    6.3750   -1.5625    0.0000 C   0  0  0  0  0  0  0  0  0  0  0  0
    6.5542   -3.2042    0.0000 C   0  0  0  0  0  0  0  0  0  0  0  0
    7.1250   -1.8917    0.0000 C   0  0  0  0  0  0  0  0  0  0  0  0
    7.2250   -2.7167    0.0000 C   0  0  0  0  0  0  0  0  0  0  0  0
  2  1  1  0  0  0  0
  3  2  1  0  0  0  0
  4  1  1  0  0  0  0
  5  4  1  0  0  0  0
  6 10  1  0  0  0  0
  7  6  1  0  0  0  0
  8  6  1  0  0  0  0
  9  1  1  0  0  0  0
 10  9  1  0  0  0  0
 11  5  1  0  0  0  0
 12  2  2  0  0  0  0
 13  4  2  0  0  0  0
 14  8  1  0  0  0  0
 15  7  1  0  0  0  0
 16  7  2  0  0  0  0
 17  8  2  0  0  0  0
 18 11  1  0  0  0  0
 19 18  2  0  0  0  0
 20 18  1  0  0  0  0
 21 19  1  0  0  0  0
 22 20  2  0  0  0  0
 23 22  1  0  0  0  0
  3  5  1  0  0  0  0
 15 14  1  0  0  0  0
 21 23  2  0  0  0  0
M  END
> <IDNUMBER>
F3269-0033

> <Chemical_Name>
3-[2-(2,5-dioxopyrrolidin-1-yl)ethyl]-5-(phenylamino)-1,3-thiazolidine-2,4-dione

> <CAS>
1025687-77-7

> <PriceCoeff>
1.00

> <MW>
333.36

> <Description>
solid

> <FSP3>
0.33

> <clogP>
0.47

> <TPSA>
112.09

> <Acceptor>
5

> <Donor>
1

> <RotBonds>
5

> <HAC>
23

> <Collection>
General

$$$$
F1757-0285
  -ISIS-  06222321142D

 23 25  0  0  0  0  0  0  0  0999 V2000
    0.2292   -5.8667    0.0000 N   0  0  3  0  0  0  0  0  0  0  0  0
   -0.5208   -6.2250    0.0000 N   0  0  0  0  0  0  0  0  0  0  0  0
    0.1167   -5.0500    0.0000 C   0  0  0  0  0  0  0  0  0  0  0  0
   -0.6958   -4.9042    0.0000 C   0  0  0  0  0  0  0  0  0  0  0  0
   -1.0958   -5.6292    0.0000 C   0  0  0  0  0  0  0  0  0  0  0  0
    0.9542   -6.2625    0.0000 C   0  0  0  0  0  0  0  0  0  0  0  0
    4.5667   -7.4750    0.0000 C   0  0  0  0  0  0  0  0  0  0  0  0
   -1.0583   -4.1542    0.0000 Cl  0  0  0  0  0  0  0  0  0  0  0  0
    3.8417   -7.0625    0.0000 C   0  0  0  0  0  0  0  0  0  0  0  0
    1.6542   -5.8250    0.0000 C   0  0  3  0  0  0  0  0  0  0  0  0
    4.5667   -8.2917    0.0000 C   0  0  0  0  0  0  0  0  0  0  0  0
    3.8417   -8.7042    0.0000 C   0  0  0  0  0  0  0  0  0  0  0  0
    3.1417   -7.4750    0.0000 C   0  0  0  0  0  0  0  0  0  0  0  0
    2.4167   -7.0625    0.0000 O   0  0  0  0  0  0  0  0  0  0  0  0
    0.7042   -4.4792    0.0000 C   0  0  0  0  0  0  0  0  0  0  0  0
    2.3917   -6.2167    0.0000 C   0  0  0  0  0  0  0  0  0  0  0  0
   -1.9083   -5.7375    0.0000 C   0  0  0  0  0  0  0  0  0  0  0  0
    3.1417   -8.2917    0.0000 C   0  0  0  0  0  0  0  0  0  0  0  0
    1.6292   -5.0000    0.0000 O   0  0  0  0  0  0  0  0  0  0  0  0
    5.2792   -7.0625    0.0000 C   0  0  0  0  0  0  0  0  0  0  0  0
    5.2792   -8.7042    0.0000 C   0  0  0  0  0  0  0  0  0  0  0  0
    6.0042   -7.4750    0.0000 C   0  0  0  0  0  0  0  0  0  0  0  0
    6.0042   -8.2917    0.0000 C   0  0  0  0  0  0  0  0  0  0  0  0
  2  1  1  0  0  0  0
  3  1  1  0  0  0  0
  4  3  2  0  0  0  0
  5  2  2  0  0  0  0
  6  1  1  0  0  0  0
  7  9  2  0  0  0  0
  8  4  1  0  0  0  0
  9 13  1  0  0  0  0
 10  6  1  0  0  0  0
 11 12  2  0  0  0  0
 12 18  1  0  0  0  0
 13 14  1  0  0  0  0
 14 16  1  0  0  0  0
 15  3  1  0  0  0  0
 16 10  1  0  0  0  0
 17  5  1  0  0  0  0
 18 13  2  0  0  0  0
 19 10  1  0  0  0  0
 20  7  1  0  0  0  0
 21 11  1  0  0  0  0
 22 20  2  0  0  0  0
 23 21  2  0  0  0  0
  4  5  1  0  0  0  0
 11  7  1  0  0  0  0
 23 22  1  0  0  0  0
M  END
> <IDNUMBER>
F1757-0285

> <Chemical_Name>
1-(4-chloro-3,5-dimethyl-1H-pyrazol-1-yl)-3-(naphthalen-2-yloxy)propan-2-ol

> <CAS>
890603-23-3

> <PriceCoeff>
1.00

> <MW>
330.81

> <Description>
solid

> <FSP3>
0.28

> <clogP>
3.81

> <TPSA>
47.28

> <Acceptor>
3

> <Donor>
1

> <RotBonds>
5

> <HAC>
23

> <Collection>
General

$$$$
F3023-0448
  -ISIS-  06222321152D

 20 21  0  0  0  0  0  0  0  0999 V2000
    3.5375   -4.8417    0.0000 N   0  0  3  0  0  0  0  0  0  0  0  0
    4.0292   -5.5042    0.0000 C   0  0  0  0  0  0  0  0  0  0  0  0
    4.0167   -4.1667    0.0000 C   0  0  0  0  0  0  0  0  0  0  0  0
    4.8125   -5.2417    0.0000 C   0  0  3  0  0  0  0  0  0  0  0  0
    4.8042   -4.4167    0.0000 C   0  0  0  0  0  0  0  0  0  0  0  0
    6.9000   -5.8750    0.0000 C   0  0  0  0  0  0  0  0  0  0  0  0
    5.4792   -5.7292    0.0000 S   0  0  0  0  0  0  0  0  0  0  0  0
    6.2292   -5.3917    0.0000 C   0  0  0  0  0  0  0  0  0  0  0  0
    6.8167   -6.6917    0.0000 C   0  0  0  0  0  0  0  0  0  0  0  0
    3.7750   -6.2917    0.0000 O   0  0  0  0  0  0  0  0  0  0  0  0
    3.7625   -3.3875    0.0000 O   0  0  0  0  0  0  0  0  0  0  0  0
    7.4792   -7.1792    0.0000 O   0  0  0  0  0  0  0  0  0  0  0  0
    2.7125   -4.8417    0.0000 C   0  0  0  0  0  0  0  0  0  0  0  0
    6.0625   -7.0292    0.0000 O   0  0  0  0  0  0  0  0  0  0  0  0
    7.6500   -5.5375    0.0000 C   0  0  0  0  0  0  0  0  0  0  0  0
    6.3125   -4.5750    0.0000 C   0  0  0  0  0  0  0  0  0  0  0  0
    2.2917   -4.1292    0.0000 C   0  0  0  0  0  0  0  0  0  0  0  0
    7.7292   -4.7125    0.0000 C   0  0  0  0  0  0  0  0  0  0  0  0
    7.0542   -4.2292    0.0000 C   0  0  0  0  0  0  0  0  0  0  0  0
    1.4667   -4.1292    0.0000 C   0  0  0  0  0  0  0  0  0  0  0  0
  2  1  1  0  0  0  0
  3  1  1  0  0  0  0
  4  2  1  0  0  0  0
  5  3  1  0  0  0  0
  6  8  2  0  0  0  0
  7  4  1  0  0  0  0
  8  7  1  0  0  0  0
  9  6  1  0  0  0  0
 10  2  2  0  0  0  0
 11  3  2  0  0  0  0
 12  9  2  0  0  0  0
 13  1  1  0  0  0  0
 14  9  1  0  0  0  0
 15  6  1  0  0  0  0
 16  8  1  0  0  0  0
 17 13  1  0  0  0  0
 18 19  1  0  0  0  0
 19 16  2  0  0  0  0
 20 17  1  0  0  0  0
  5  4  1  0  0  0  0
 18 15  2  0  0  0  0
M  END
> <IDNUMBER>
F3023-0448

> <Chemical_Name>
2-[(2,5-dioxo-1-propylpyrrolidin-3-yl)sulfanyl]benzoic acid

> <CAS>
838867-39-3

> <PriceCoeff>
1.00

> <MW>
293.34

> <Description>
solid

> <FSP3>
0.36

> <clogP>
2.30

> <TPSA>
99.98

> <Acceptor>
4

> <Donor>
0

> <RotBonds>
5

> <HAC>
20

> <Collection>
General

$$$$
F3350-0559
  -ISIS-  06222321152D

 27 29  0  0  0  0  0  0  0  0999 V2000
    5.0167   -2.7500    0.0000 S   0  0  3  0  0  0  0  0  0  0  0  0
    7.8625   -4.3917    0.0000 N   0  0  3  0  0  0  0  0  0  0  0  0
    7.9417   -5.2167    0.0000 C   0  0  0  0  0  0  0  0  0  0  0  0
    8.6167   -4.0667    0.0000 C   0  0  0  0  0  0  0  0  0  0  0  0
    4.3042   -2.3417    0.0000 N   0  0  0  0  0  0  0  0  0  0  0  0
    5.7292   -3.1625    0.0000 C   0  0  0  0  0  0  0  0  0  0  0  0
    1.4542   -0.6792    0.0000 C   0  0  0  0  0  0  0  0  0  0  0  0
    7.1500   -3.9792    0.0000 C   0  0  0  0  0  0  0  0  0  0  0  0
    5.4292   -2.0417    0.0000 O   0  0  0  0  0  0  0  0  0  0  0  0
    4.6042   -3.4667    0.0000 O   0  0  0  0  0  0  0  0  0  0  0  0
    2.1667   -1.1000    0.0000 C   0  0  0  0  0  0  0  0  0  0  0  0
    9.1667   -4.6792    0.0000 C   0  0  0  0  0  0  0  0  0  0  0  0
    8.7542   -5.3917    0.0000 C   0  0  0  0  0  0  0  0  0  0  0  0
    7.3292   -5.7667    0.0000 O   0  0  0  0  0  0  0  0  0  0  0  0
    8.7917   -3.2625    0.0000 O   0  0  0  0  0  0  0  0  0  0  0  0
    0.7417   -1.0917    0.0000 O   0  0  0  0  0  0  0  0  0  0  0  0
    5.7292   -3.9792    0.0000 C   0  0  0  0  0  0  0  0  0  0  0  0
    6.4375   -2.7542    0.0000 C   0  0  0  0  0  0  0  0  0  0  0  0
    6.4417   -4.3917    0.0000 C   0  0  0  0  0  0  0  0  0  0  0  0
    7.1500   -3.1667    0.0000 C   0  0  0  0  0  0  0  0  0  0  0  0
    3.5917   -1.9292    0.0000 C   0  0  0  0  0  0  0  0  0  0  0  0
    2.8792   -0.6917    0.0000 C   0  0  0  0  0  0  0  0  0  0  0  0
    2.1667   -1.9167    0.0000 C   0  0  0  0  0  0  0  0  0  0  0  0
    1.4625    0.1458    0.0000 O   0  0  0  0  0  0  0  0  0  0  0  0
    3.5917   -1.1000    0.0000 C   0  0  0  0  0  0  0  0  0  0  0  0
    2.8750   -2.3375    0.0000 C   0  0  0  0  0  0  0  0  0  0  0  0
    2.1792    0.5500    0.0000 C   0  0  0  0  0  0  0  0  0  0  0  0
  2  8  1  0  0  0  0
  3  2  1  0  0  0  0
  4  2  1  0  0  0  0
  5  1  1  0  0  0  0
  6  1  1  0  0  0  0
  7 11  1  0  0  0  0
  8 20  1  0  0  0  0
  9  1  2  0  0  0  0
 10  1  2  0  0  0  0
 11 23  2  0  0  0  0
 12  4  1  0  0  0  0
 13  3  1  0  0  0  0
 14  3  2  0  0  0  0
 15  4  2  0  0  0  0
 16  7  2  0  0  0  0
 17  6  2  0  0  0  0
 18  6  1  0  0  0  0
 19 17  1  0  0  0  0
 20 18  2  0  0  0  0
 21  5  1  0  0  0  0
 22 25  2  0  0  0  0
 23 26  1  0  0  0  0
 24  7  1  0  0  0  0
 25 21  1  0  0  0  0
 26 21  2  0  0  0  0
 27 24  1  0  0  0  0
  8 19  2  0  0  0  0
 11 22  1  0  0  0  0
 12 13  1  0  0  0  0
M  END
> <IDNUMBER>
F3350-0559

> <Chemical_Name>
methyl 4-[4-(2,5-dioxopyrrolidin-1-yl)benzenesulfonamido]benzoate

> <CAS>
311323-58-7

> <PriceCoeff>
1.00

> <MW>
388.39

> <Description>
solid

> <FSP3>
0.17

> <clogP>
1.08

> <TPSA>
118.23

> <Acceptor>
7

> <Donor>
1

> <RotBonds>
6

> <HAC>
27

> <Collection>
General

$$$$
F3350-0575
  -ISIS-  06222321152D

 27 29  0  0  0  0  0  0  0  0999 V2000
    3.6125   -2.5417    0.0000 S   0  0  3  0  0  0  0  0  0  0  0  0
    6.5042   -4.1792    0.0000 N   0  0  3  0  0  0  0  0  0  0  0  0
    2.8917   -2.1417    0.0000 N   0  0  0  0  0  0  0  0  0  0  0  0
    2.1625   -0.9167    0.0000 C   0  0  0  0  0  0  0  0  0  0  0  0
    6.6000   -5.0042    0.0000 C   0  0  0  0  0  0  0  0  0  0  0  0
    7.2625   -3.8375    0.0000 C   0  0  0  0  0  0  0  0  0  0  0  0
    2.1667   -1.7417    0.0000 C   0  0  0  0  0  0  0  0  0  0  0  0
    2.8667   -0.4917    0.0000 C   0  0  0  0  0  0  0  0  0  0  0  0
    4.3375   -2.9542    0.0000 C   0  0  0  0  0  0  0  0  0  0  0  0
    5.7792   -3.7667    0.0000 C   0  0  0  0  0  0  0  0  0  0  0  0
    4.0250   -1.8292    0.0000 O   0  0  0  0  0  0  0  0  0  0  0  0
    3.2042   -3.2750    0.0000 O   0  0  0  0  0  0  0  0  0  0  0  0
    7.8250   -4.4417    0.0000 C   0  0  0  0  0  0  0  0  0  0  0  0
    7.4125   -5.1750    0.0000 C   0  0  0  0  0  0  0  0  0  0  0  0
    5.9875   -5.5667    0.0000 O   0  0  0  0  0  0  0  0  0  0  0  0
    7.4292   -3.0250    0.0000 O   0  0  0  0  0  0  0  0  0  0  0  0
    2.8667    0.3333    0.0000 O   0  0  0  0  0  0  0  0  0  0  0  0
    4.3417   -3.7792    0.0000 C   0  0  0  0  0  0  0  0  0  0  0  0
    5.0500   -2.5375    0.0000 C   0  0  0  0  0  0  0  0  0  0  0  0
    5.0667   -4.1917    0.0000 C   0  0  0  0  0  0  0  0  0  0  0  0
    5.7667   -2.9417    0.0000 C   0  0  0  0  0  0  0  0  0  0  0  0
    3.5875   -0.9042    0.0000 O   0  0  0  0  0  0  0  0  0  0  0  0
    1.4417   -0.5042    0.0000 C   0  0  0  0  0  0  0  0  0  0  0  0
    1.4542   -2.1625    0.0000 C   0  0  0  0  0  0  0  0  0  0  0  0
    4.3000   -0.4875    0.0000 C   0  0  0  0  0  0  0  0  0  0  0  0
    0.7292   -0.9250    0.0000 C   0  0  0  0  0  0  0  0  0  0  0  0
    0.7375   -1.7542    0.0000 C   0  0  0  0  0  0  0  0  0  0  0  0
  2 10  1  0  0  0  0
  3  1  1  0  0  0  0
  4  7  1  0  0  0  0
  5  2  1  0  0  0  0
  6  2  1  0  0  0  0
  7  3  1  0  0  0  0
  8  4  1  0  0  0  0
  9  1  1  0  0  0  0
 10 21  1  0  0  0  0
 11  1  2  0  0  0  0
 12  1  2  0  0  0  0
 13  6  1  0  0  0  0
 14  5  1  0  0  0  0
 15  5  2  0  0  0  0
 16  6  2  0  0  0  0
 17  8  2  0  0  0  0
 18  9  2  0  0  0  0
 19  9  1  0  0  0  0
 20 18  1  0  0  0  0
 21 19  2  0  0  0  0
 22  8  1  0  0  0  0
 23  4  2  0  0  0  0
 24  7  2  0  0  0  0
 25 22  1  0  0  0  0
 26 27  2  0  0  0  0
 27 24  1  0  0  0  0
 10 20  2  0  0  0  0
 26 23  1  0  0  0  0
 13 14  1  0  0  0  0
M  END
> <IDNUMBER>
F3350-0575

> <Chemical_Name>
methyl 2-[4-(2,5-dioxopyrrolidin-1-yl)benzenesulfonamido]benzoate

> <CAS>
919624-23-0

> <PriceCoeff>
1.00

> <MW>
388.39

> <Description>
solid

> <FSP3>
0.17

> <clogP>
1.08

> <TPSA>
118.23

> <Acceptor>
7

> <Donor>
1

> <RotBonds>
6

> <HAC>
27

> <Collection>
General

$$$$
F1902-0079
  -ISIS-  06222321442D

 20 22  0  0  0  0  0  0  0  0999 V2000
    3.2292   -0.3667    0.0000 C   0  0  0  0  0  0  0  0  0  0  0  0
    1.7917   -0.3667    0.0000 C   0  0  0  0  0  0  0  0  0  0  0  0
    2.5042   -0.7792    0.0000 C   0  0  0  0  0  0  0  0  0  0  0  0
    3.2292    0.4708    0.0000 C   0  0  0  0  0  0  0  0  0  0  0  0
    1.7917    0.4708    0.0000 C   0  0  0  0  0  0  0  0  0  0  0  0
    2.5042    0.8875    0.0000 O   0  0  0  0  0  0  0  0  0  0  0  0
    1.0792   -0.7750    0.0000 C   0  0  0  0  0  0  0  0  0  0  0  0
    1.0792    0.8833    0.0000 C   0  0  0  0  0  0  0  0  0  0  0  0
    0.3667   -0.3625    0.0000 C   0  0  0  0  0  0  0  0  0  0  0  0
    3.9417   -0.7792    0.0000 C   0  0  0  0  0  0  0  0  0  0  0  0
    0.3667    0.4625    0.0000 C   0  0  0  0  0  0  0  0  0  0  0  0
    2.5042   -1.6042    0.0000 O   0  0  0  0  0  0  0  0  0  0  0  0
    3.9375   -1.6042    0.0000 C   0  0  0  0  0  0  0  0  0  0  0  0
    4.6542   -0.3667    0.0000 C   0  0  0  0  0  0  0  0  0  0  0  0
    5.3667   -1.6125    0.0000 C   0  0  0  0  0  0  0  0  0  0  0  0
    6.0792   -2.0250    0.0000 N   0  0  0  0  0  0  0  0  0  0  0  0
    4.6500   -2.0167    0.0000 C   0  0  0  0  0  0  0  0  0  0  0  0
    5.3667   -0.7792    0.0000 C   0  0  0  0  0  0  0  0  0  0  0  0
   -0.3500   -0.7750    0.0000 C   0  0  0  0  0  0  0  0  0  0  0  0
   -0.3458    0.8750    0.0000 C   0  0  0  0  0  0  0  0  0  0  0  0
  2  3  1  0  0  0  0
  3  1  1  0  0  0  0
  4  1  2  0  0  0  0
  5  6  1  0  0  0  0
  6  4  1  0  0  0  0
  7  2  2  0  0  0  0
  8  5  2  0  0  0  0
  9  7  1  0  0  0  0
 10  1  1  0  0  0  0
 11  8  1  0  0  0  0
 12  3  2  0  0  0  0
 13 10  2  0  0  0  0
 14 10  1  0  0  0  0
 15 18  1  0  0  0  0
 16 15  1  0  0  0  0
 17 13  1  0  0  0  0
 18 14  2  0  0  0  0
 19  9  1  0  0  0  0
 20 11  1  0  0  0  0
 15 17  2  0  0  0  0
  5  2  1  0  0  0  0
 11  9  2  0  0  0  0
M  END
> <IDNUMBER>
F1902-0079

> <Chemical_Name>
3-(4-aminophenyl)-6,7-dimethyl-4H-chromen-4-one

> <CAS>
2034157-06-5

> <PriceCoeff>
1.00

> <MW>
265.31

> <Description>
solid

> <FSP3>
0.12

> <clogP>
2.80

> <TPSA>
52.32

> <Acceptor>
3

> <Donor>
1

> <RotBonds>
1

> <HAC>
20

> <Collection>
General

> <Reference_compound>
CHEMBL44

> <Similarity>
0.8160

$$$$
F3374-0425
  -ISIS-  06222321442D

 27 30  0  0  0  0  0  0  0  0999 V2000
    3.7417   -0.8917    0.0000 N   0  0  3  0  0  0  0  0  0  0  0  0
    4.2167   -1.5542    0.0000 C   0  0  0  0  0  0  0  0  0  0  0  0
    4.2167   -0.2292    0.0000 C   0  0  0  0  0  0  0  0  0  0  0  0
    0.4792   -0.8917    0.0000 C   0  0  0  0  0  0  0  0  0  0  0  0
    0.0625   -0.1875    0.0000 N   0  0  0  0  0  0  0  0  0  0  0  0
   -1.1625    0.5333    0.0000 C   0  0  0  0  0  0  0  0  0  0  0  0
   -0.7625   -0.1792    0.0000 C   0  0  0  0  0  0  0  0  0  0  0  0
    2.9250   -0.8917    0.0000 C   0  0  0  0  0  0  0  0  0  0  0  0
    1.2917   -0.8917    0.0000 C   0  0  0  0  0  0  0  0  0  0  0  0
   -1.9875    0.5375    0.0000 C   0  0  0  0  0  0  0  0  0  0  0  0
   -2.4083   -0.1667    0.0000 N   0  0  0  0  0  0  0  0  0  0  0  0
   -0.7500    1.2375    0.0000 C   0  0  0  0  0  0  0  0  0  0  0  0
    0.0667   -1.6042    0.0000 O   0  0  0  0  0  0  0  0  0  0  0  0
    4.9917   -1.3000    0.0000 C   0  0  0  0  0  0  0  0  0  0  0  0
    4.9917   -0.4792    0.0000 C   0  0  0  0  0  0  0  0  0  0  0  0
    3.9542    0.5458    0.0000 O   0  0  0  0  0  0  0  0  0  0  0  0
    3.9667   -2.3292    0.0000 O   0  0  0  0  0  0  0  0  0  0  0  0
    2.5042   -0.1875    0.0000 C   0  0  0  0  0  0  0  0  0  0  0  0
    2.5167   -1.6042    0.0000 C   0  0  0  0  0  0  0  0  0  0  0  0
    1.7000   -0.1875    0.0000 C   0  0  0  0  0  0  0  0  0  0  0  0
    1.7000   -1.6042    0.0000 C   0  0  0  0  0  0  0  0  0  0  0  0
   -2.3958    1.2583    0.0000 C   0  0  0  0  0  0  0  0  0  0  0  0
   -1.1750   -0.8917    0.0000 C   0  0  0  0  0  0  0  0  0  0  0  0
   -1.1500    1.9583    0.0000 C   0  0  0  0  0  0  0  0  0  0  0  0
   -2.0000   -0.8792    0.0000 C   0  0  0  0  0  0  0  0  0  0  0  0
   -1.9750    1.9625    0.0000 C   0  0  0  0  0  0  0  0  0  0  0  0
   -0.7333    2.6583    0.0000 Cl  0  0  0  0  0  0  0  0  0  0  0  0
  2  1  1  0  0  0  0
  3  1  1  0  0  0  0
  4  9  1  0  0  0  0
  5  4  1  0  0  0  0
  6  7  1  0  0  0  0
  7  5  1  0  0  0  0
  8  1  1  0  0  0  0
  9 21  2  0  0  0  0
 10  6  1  0  0  0  0
 11 25  2  0  0  0  0
 12  6  2  0  0  0  0
 13  4  2  0  0  0  0
 14  2  1  0  0  0  0
 15  3  1  0  0  0  0
 16  3  2  0  0  0  0
 17  2  2  0  0  0  0
 18  8  1  0  0  0  0
 19  8  2  0  0  0  0
 20 18  2  0  0  0  0
 21 19  1  0  0  0  0
 22 10  2  0  0  0  0
 23  7  2  0  0  0  0
 24 12  1  0  0  0  0
 25 23  1  0  0  0  0
 26 24  2  0  0  0  0
 27 24  1  0  0  0  0
 15 14  1  0  0  0  0
 20  9  1  0  0  0  0
 10 11  1  0  0  0  0
 22 26  1  0  0  0  0
M  END
> <IDNUMBER>
F3374-0425

> <Chemical_Name>
N-(6-chloroquinolin-4-yl)-4-(2,5-dioxopyrrolidin-1-yl)benzamide

> <CAS>
955314-97-3

> <PriceCoeff>
1.00

> <MW>
379.80

> <Description>
solid

> <FSP3>
0.10

> <clogP>
2.31

> <TPSA>
79.37

> <Acceptor>
4

> <Donor>
2

> <RotBonds>
3

> <HAC>
27

> <Collection>
General

$$$$
F1822-0391
  -ISIS-  06222321452D

 27 30  0  0  0  0  0  0  0  0999 V2000
   -5.9708    3.3958    0.0000 C   0  0  0  0  0  0  0  0  0  0  0  0
   -1.7333    3.3958    0.0000 N   0  0  3  0  0  0  0  0  0  0  0  0
   -6.0542    2.5583    0.0000 N   0  0  0  0  0  0  0  0  0  0  0  0
   -5.2833    3.7958    0.0000 N   0  0  0  0  0  0  0  0  0  0  0  0
   -6.7292    3.7333    0.0000 S   0  0  0  0  0  0  0  0  0  0  0  0
   -2.4458    3.8000    0.0000 C   0  0  0  0  0  0  0  0  0  0  0  0
   -6.8750    2.3833    0.0000 C   0  0  0  0  0  0  0  0  0  0  0  0
   -4.5833    3.3958    0.0000 C   0  0  0  0  0  0  0  0  0  0  0  0
   -0.9708    3.6875    0.0000 C   0  0  0  0  0  0  0  0  0  0  0  0
   -1.6875    2.5708    0.0000 C   0  0  0  0  0  0  0  0  0  0  0  0
   -7.2792    3.1125    0.0000 C   0  0  0  0  0  0  0  0  0  0  0  0
   -3.1583    3.3958    0.0000 C   0  0  0  0  0  0  0  0  0  0  0  0
   -3.8708    3.8000    0.0000 C   0  0  0  0  0  0  0  0  0  0  0  0
   -4.5833    2.5875    0.0000 O   0  0  0  0  0  0  0  0  0  0  0  0
   -0.4375    3.0583    0.0000 C   0  0  0  0  0  0  0  0  0  0  0  0
   -0.8708    2.3708    0.0000 C   0  0  0  0  0  0  0  0  0  0  0  0
   -0.7583    4.4667    0.0000 O   0  0  0  0  0  0  0  0  0  0  0  0
   -2.3208    2.0458    0.0000 O   0  0  0  0  0  0  0  0  0  0  0  0
   -7.2792    1.6625    0.0000 C   0  0  0  0  0  0  0  0  0  0  0  0
   -2.4375    4.6167    0.0000 C   0  0  0  0  0  0  0  0  0  0  0  0
   -8.1250    3.1208    0.0000 C   0  0  0  0  0  0  0  0  0  0  0  0
   -3.8708    4.6167    0.0000 C   0  0  0  0  0  0  0  0  0  0  0  0
   -3.1583    5.0292    0.0000 C   0  0  0  0  0  0  0  0  0  0  0  0
   -8.5417    2.3958    0.0000 C   0  0  0  0  0  0  0  0  0  0  0  0
   -8.1167    1.6583    0.0000 C   0  0  0  0  0  0  0  0  0  0  0  0
   -6.8792    0.9750    0.0000 C   0  0  0  0  0  0  0  0  0  0  0  0
   -7.2792    0.2833    0.0000 C   0  0  0  0  0  0  0  0  0  0  0  0
  2  6  1  0  0  0  0
  3  1  2  0  0  0  0
  4  1  1  0  0  0  0
  5  1  1  0  0  0  0
  6 12  1  0  0  0  0
  7  3  1  0  0  0  0
  8  4  1  0  0  0  0
  9  2  1  0  0  0  0
 10  2  1  0  0  0  0
 11  5  1  0  0  0  0
 12 13  2  0  0  0  0
 13  8  1  0  0  0  0
 14  8  2  0  0  0  0
 15  9  1  0  0  0  0
 16 10  1  0  0  0  0
 17  9  2  0  0  0  0
 18 10  2  0  0  0  0
 19  7  1  0  0  0  0
 20 23  1  0  0  0  0
 21 11  1  0  0  0  0
 22 13  1  0  0  0  0
 23 22  2  0  0  0  0
 24 21  2  0  0  0  0
 25 19  2  0  0  0  0
 26 19  1  0  0  0  0
 27 26  1  0  0  0  0
 11  7  2  0  0  0  0
 25 24  1  0  0  0  0
 20  6  2  0  0  0  0
 16 15  1  0  0  0  0
M  END
> <IDNUMBER>
F1822-0391

> <Chemical_Name>
3-(2,5-dioxopyrrolidin-1-yl)-N-(4-ethyl-1,3-benzothiazol-2-yl)benzamide

> <CAS>
892842-90-9

> <PriceCoeff>
1.00

> <MW>
379.43

> <Description>
solid

> <FSP3>
0.20

> <clogP>
2.65

> <TPSA>
107.61

> <Acceptor>
4

> <Donor>
1

> <RotBonds>
4

> <HAC>
27

> <Collection>
General

$$$$
F6213-0361
  -ISIS-  06222321152D

 24 26  0  0  0  0  0  0  0  0999 V2000
   -0.5833    3.8000    0.0000 S   0  0  3  0  0  0  0  0  0  0  0  0
    1.5875    4.0542    0.0000 N   0  0  3  0  0  0  0  0  0  0  0  0
   -1.3125    3.4208    0.0000 N   0  0  3  0  0  0  0  0  0  0  0  0
   -2.3500    2.8708    0.0000 C   0  0  3  0  0  0  0  0  0  0  0  0
    0.1625    4.1542    0.0000 C   0  0  0  0  0  0  0  0  0  0  0  0
    1.6417    4.8792    0.0000 C   0  0  0  0  0  0  0  0  0  0  0  0
    2.2667    3.5958    0.0000 C   0  0  0  0  0  0  0  0  0  0  0  0
    0.8417    3.7042    0.0000 C   0  0  0  0  0  0  0  0  0  0  0  0
   -3.7833    2.0458    0.0000 C   0  0  3  0  0  0  0  0  0  0  0  0
   -2.1000    3.6667    0.0000 C   0  0  0  0  0  0  0  0  0  0  0  0
   -1.5583    2.6250    0.0000 C   0  0  0  0  0  0  0  0  0  0  0  0
   -3.7833    2.8708    0.0000 O   0  0  0  0  0  0  0  0  0  0  0  0
   -3.0708    1.6375    0.0000 O   0  0  0  0  0  0  0  0  0  0  0  0
   -0.9458    4.5292    0.0000 O   0  0  0  0  0  0  0  0  0  0  0  0
   -0.4208    2.9833    0.0000 O   0  0  0  0  0  0  0  0  0  0  0  0
   -2.3500    2.0458    0.0000 C   0  0  0  0  0  0  0  0  0  0  0  0
   -3.0708    3.2958    0.0000 C   0  0  0  0  0  0  0  0  0  0  0  0
    0.9542    5.3417    0.0000 O   0  0  0  0  0  0  0  0  0  0  0  0
    2.2125    2.7708    0.0000 O   0  0  0  0  0  0  0  0  0  0  0  0
    2.3833    5.2417    0.0000 C   0  0  0  0  0  0  0  0  0  0  0  0
    3.0042    3.9625    0.0000 C   0  0  0  0  0  0  0  0  0  0  0  0
   -4.5833    2.2708    0.0000 C   0  0  0  0  0  0  0  0  0  0  0  0
   -4.0000    1.2458    0.0000 C   0  0  0  0  0  0  0  0  0  0  0  0
    3.0625    4.7792    0.0000 C   0  0  0  0  0  0  0  0  0  0  0  0
  2  8  1  0  0  0  0
  3  1  1  0  0  0  0
  4 11  1  0  0  0  0
  5  1  1  0  0  0  0
  6  2  1  0  0  0  0
  7  2  1  0  0  0  0
  8  5  1  0  0  0  0
  9 12  1  0  0  0  0
 10  3  1  0  0  0  0
 11  3  1  0  0  0  0
 12 17  1  0  0  0  0
 13 16  1  0  0  0  0
 14  1  2  0  0  0  0
 15  1  2  0  0  0  0
 16  4  1  0  0  0  0
 17  4  1  0  0  0  0
 18  6  2  0  0  0  0
 19  7  2  0  0  0  0
 20  6  1  0  0  0  0
 21  7  1  0  0  0  0
 22  9  1  0  0  0  0
 23  9  1  0  0  0  0
 24 21  1  0  0  0  0
 10  4  1  0  0  0  0
  9 13  1  0  0  0  0
 20 24  1  0  0  0  0
M  END
> <IDNUMBER>
F6213-0361

> <Chemical_Name>
1-[2-({7,7-dimethyl-6,8-dioxa-2-azaspiro[3.5]nonan-2-yl}sulfonyl)ethyl]piperidine-2,6-dione

> <CAS>
1396809-06-5

> <PriceCoeff>
1.00

> <MW>
360.43

> <Description>
solid

> <FSP3>
0.87

> <clogP>
1.11

> <TPSA>
101.60

> <Acceptor>
6

> <Donor>
0

> <RotBonds>
4

> <HAC>
24

> <Collection>
General

$$$$
F0806-0249
  -ISIS-  06222321452D

 27 30  0  0  0  0  0  0  0  0999 V2000
    2.5542   -1.9375    0.0000 N   0  0  3  0  0  0  0  0  0  0  0  0
   -0.7833   -0.9042    0.0000 C   0  0  0  0  0  0  0  0  0  0  0  0
   -0.4000   -0.2500    0.0000 N   0  0  0  0  0  0  0  0  0  0  0  0
   -1.5125   -0.9042    0.0000 S   0  0  0  0  0  0  0  0  0  0  0  0
   -0.4708   -1.6167    0.0000 N   0  0  0  0  0  0  0  0  0  0  0  0
    1.8542   -1.6542    0.0000 C   0  0  0  0  0  0  0  0  0  0  0  0
    0.3667   -0.2500    0.0000 C   0  0  0  0  0  0  0  0  0  0  0  0
   -1.7125   -1.6542    0.0000 C   0  0  0  0  0  0  0  0  0  0  0  0
    3.0542   -1.3500    0.0000 C   0  0  0  0  0  0  0  0  0  0  0  0
    2.9542   -2.5875    0.0000 C   0  0  0  0  0  0  0  0  0  0  0  0
   -1.0458   -2.0792    0.0000 C   0  0  0  0  0  0  0  0  0  0  0  0
    1.4792   -0.9667    0.0000 C   0  0  0  0  0  0  0  0  0  0  0  0
    0.7167   -0.9375    0.0000 C   0  0  0  0  0  0  0  0  0  0  0  0
    0.7792    0.4000    0.0000 O   0  0  0  0  0  0  0  0  0  0  0  0
    3.7667   -1.6542    0.0000 C   0  0  0  0  0  0  0  0  0  0  0  0
    3.7167   -2.3792    0.0000 C   0  0  0  0  0  0  0  0  0  0  0  0
    2.8875   -0.5667    0.0000 O   0  0  0  0  0  0  0  0  0  0  0  0
    2.6792   -3.3292    0.0000 O   0  0  0  0  0  0  0  0  0  0  0  0
   -2.4125   -1.9875    0.0000 C   0  0  0  0  0  0  0  0  0  0  0  0
    1.4500   -2.3000    0.0000 C   0  0  0  0  0  0  0  0  0  0  0  0
    0.3167   -1.5792    0.0000 C   0  0  0  0  0  0  0  0  0  0  0  0
    0.6875   -2.2792    0.0000 C   0  0  0  0  0  0  0  0  0  0  0  0
   -2.4958   -2.7500    0.0000 C   0  0  0  0  0  0  0  0  0  0  0  0
   -3.0333   -1.5500    0.0000 C   0  0  0  0  0  0  0  0  0  0  0  0
   -3.2125   -3.1292    0.0000 C   0  0  0  0  0  0  0  0  0  0  0  0
   -3.7708   -1.8792    0.0000 C   0  0  0  0  0  0  0  0  0  0  0  0
   -3.8458   -2.6542    0.0000 C   0  0  0  0  0  0  0  0  0  0  0  0
  2  3  1  0  0  0  0
  3  7  1  0  0  0  0
  4  2  1  0  0  0  0
  5  2  2  0  0  0  0
  6  1  1  0  0  0  0
  7 13  1  0  0  0  0
  8  4  1  0  0  0  0
  9  1  1  0  0  0  0
 10  1  1  0  0  0  0
 11  5  1  0  0  0  0
 12  6  2  0  0  0  0
 13 12  1  0  0  0  0
 14  7  2  0  0  0  0
 15  9  1  0  0  0  0
 16 10  1  0  0  0  0
 17  9  2  0  0  0  0
 18 10  2  0  0  0  0
 19  8  1  0  0  0  0
 20  6  1  0  0  0  0
 21 22  1  0  0  0  0
 22 20  2  0  0  0  0
 23 19  1  0  0  0  0
 24 19  2  0  0  0  0
 25 23  2  0  0  0  0
 26 24  1  0  0  0  0
 27 26  2  0  0  0  0
 16 15  1  0  0  0  0
 21 13  2  0  0  0  0
  8 11  2  0  0  0  0
 25 27  1  0  0  0  0
M  END
> <IDNUMBER>
F0806-0249

> <Chemical_Name>
3-(2,5-dioxopyrrolidin-1-yl)-N-(5-phenyl-1,3-thiazol-2-yl)benzamide

> <CAS>
397279-12-8

> <PriceCoeff>
1.00

> <MW>
377.42

> <Description>
solid

> <FSP3>
0.10

> <clogP>
2.13

> <TPSA>
107.61

> <Acceptor>
4

> <Donor>
1

> <RotBonds>
4

> <HAC>
27

> <Collection>
General

$$$$
F1721-0034
  -ISIS-  06222321452D

 20 22  0  0  0  0  0  0  0  0999 V2000
    4.2792   -1.3750    0.0000 N   0  0  0  0  0  0  0  0  0  0  0  0
    4.0792   -2.0542    0.0000 C   0  0  0  0  0  0  0  0  0  0  0  0
    4.6667   -2.4542    0.0000 O   0  0  0  0  0  0  0  0  0  0  0  0
    4.9917   -1.3542    0.0000 N   0  0  0  0  0  0  0  0  0  0  0  0
    5.2292   -2.0250    0.0000 C   0  0  0  0  0  0  0  0  0  0  0  0
    3.4167   -2.2917    0.0000 C   0  0  0  0  0  0  0  0  0  0  0  0
    5.9042   -2.2250    0.0000 C   0  0  0  0  0  0  0  0  0  0  0  0
    6.0667   -2.9167    0.0000 O   0  0  0  0  0  0  0  0  0  0  0  0
    6.7500   -3.1167    0.0000 C   0  0  0  0  0  0  0  0  0  0  0  0
    8.1042   -3.5167    0.0000 C   0  0  0  0  0  0  0  0  0  0  0  0
    6.9042   -3.8042    0.0000 C   0  0  0  0  0  0  0  0  0  0  0  0
    7.2542   -2.6292    0.0000 C   0  0  0  0  0  0  0  0  0  0  0  0
    7.9375   -2.8292    0.0000 C   0  0  0  0  0  0  0  0  0  0  0  0
    7.5875   -4.0042    0.0000 C   0  0  0  0  0  0  0  0  0  0  0  0
    3.2917   -2.9792    0.0000 C   0  0  0  0  0  0  0  0  0  0  0  0
    2.8792   -1.8250    0.0000 C   0  0  0  0  0  0  0  0  0  0  0  0
    8.7792   -3.7250    0.0000 C   0  0  0  0  0  0  0  0  0  0  0  0
    2.6250   -3.2167    0.0000 C   0  0  0  0  0  0  0  0  0  0  0  0
    2.2125   -2.0625    0.0000 C   0  0  0  0  0  0  0  0  0  0  0  0
    2.0792   -2.7625    0.0000 C   0  0  0  0  0  0  0  0  0  0  0  0
  2  1  2  0  0  0  0
  3  2  1  0  0  0  0
  4  1  1  0  0  0  0
  5  4  2  0  0  0  0
  6  2  1  0  0  0  0
  7  5  1  0  0  0  0
  8  7  1  0  0  0  0
  9  8  1  0  0  0  0
 10 13  1  0  0  0  0
 11  9  2  0  0  0  0
 12  9  1  0  0  0  0
 13 12  2  0  0  0  0
 14 11  1  0  0  0  0
 15  6  1  0  0  0  0
 16  6  2  0  0  0  0
 17 10  1  0  0  0  0
 18 15  2  0  0  0  0
 19 16  1  0  0  0  0
 20 19  2  0  0  0  0
  5  3  1  0  0  0  0
 18 20  1  0  0  0  0
 10 14  2  0  0  0  0
M  END
> <IDNUMBER>
F1721-0034

> <Chemical_Name>
2-[(4-methylphenoxy)methyl]-5-phenyl-1,3,4-oxadiazole

> <CAS>
723325-25-5

> <PriceCoeff>
1.00

> <MW>
266.29

> <Description>
solid

> <FSP3>
0.12

> <clogP>
2.88

> <TPSA>
48.15

> <Acceptor>
4

> <Donor>
0

> <RotBonds>
4

> <HAC>
20

> <Collection>
General

> <Reference_compound>
CHEMBL2270338

> <Similarity>
0.8080

$$$$
F2738-1944
  -ISIS-  06222321152D

 29 32  0  0  0  0  0  0  0  0999 V2000
   -3.1583    3.3958    0.0000 C   0  0  0  0  0  0  0  0  0  0  0  0
   -2.4083    3.7333    0.0000 N   0  0  0  0  0  0  0  0  0  0  0  0
   -6.0042    3.3958    0.0000 N   0  0  3  0  0  0  0  0  0  0  0  0
   -3.8708    3.8000    0.0000 N   0  0  3  0  0  0  0  0  0  0  0  0
   -3.0833    2.5833    0.0000 S   0  0  0  0  0  0  0  0  0  0  0  0
   -4.5833    3.3958    0.0000 C   0  0  0  0  0  0  0  0  0  0  0  0
   -1.8583    3.1208    0.0000 C   0  0  0  0  0  0  0  0  0  0  0  0
   -2.2708    2.4083    0.0000 C   0  0  0  0  0  0  0  0  0  0  0  0
   -5.3083    3.8083    0.0000 C   0  0  0  0  0  0  0  0  0  0  0  0
   -6.7542    3.7333    0.0000 C   0  0  0  0  0  0  0  0  0  0  0  0
   -6.0792    2.5708    0.0000 C   0  0  0  0  0  0  0  0  0  0  0  0
   -1.0333    3.1208    0.0000 C   0  0  0  0  0  0  0  0  0  0  0  0
   -3.8708    4.6167    0.0000 C   0  0  0  0  0  0  0  0  0  0  0  0
   -1.8583    1.6958    0.0000 C   0  0  0  0  0  0  0  0  0  0  0  0
   -4.5833    2.5708    0.0000 O   0  0  0  0  0  0  0  0  0  0  0  0
   -0.6333    2.4000    0.0000 C   0  0  0  0  0  0  0  0  0  0  0  0
   -7.3042    3.1083    0.0000 C   0  0  0  0  0  0  0  0  0  0  0  0
   -6.8917    2.3958    0.0000 C   0  0  0  0  0  0  0  0  0  0  0  0
   -6.9292    4.5125    0.0000 O   0  0  0  0  0  0  0  0  0  0  0  0
   -5.4833    2.0250    0.0000 O   0  0  0  0  0  0  0  0  0  0  0  0
   -2.4500    4.6042    0.0000 N   0  0  0  0  0  0  0  0  0  0  0  0
   -1.0375    1.6875    0.0000 C   0  0  0  0  0  0  0  0  0  0  0  0
   -3.1583    5.0250    0.0000 C   0  0  0  0  0  0  0  0  0  0  0  0
   -0.6250    3.8208    0.0000 C   0  0  0  0  0  0  0  0  0  0  0  0
   -1.7458    5.0167    0.0000 C   0  0  0  0  0  0  0  0  0  0  0  0
   -0.6250    0.9750    0.0000 C   0  0  0  0  0  0  0  0  0  0  0  0
   -3.1625    5.8417    0.0000 C   0  0  0  0  0  0  0  0  0  0  0  0
   -1.7375    5.8417    0.0000 C   0  0  0  0  0  0  0  0  0  0  0  0
   -2.4583    6.2542    0.0000 C   0  0  0  0  0  0  0  0  0  0  0  0
  2  1  2  0  0  0  0
  3  9  1  0  0  0  0
  4  1  1  0  0  0  0
  5  1  1  0  0  0  0
  6  4  1  0  0  0  0
  7  2  1  0  0  0  0
  8  5  1  0  0  0  0
  9  6  1  0  0  0  0
 10  3  1  0  0  0  0
 11  3  1  0  0  0  0
 12  7  1  0  0  0  0
 13  4  1  0  0  0  0
 14  8  1  0  0  0  0
 15  6  2  0  0  0  0
 16 12  2  0  0  0  0
 17 10  1  0  0  0  0
 18 11  1  0  0  0  0
 19 10  2  0  0  0  0
 20 11  2  0  0  0  0
 21 23  2  0  0  0  0
 22 14  2  0  0  0  0
 23 13  1  0  0  0  0
 24 12  1  0  0  0  0
 25 21  1  0  0  0  0
 26 22  1  0  0  0  0
 27 23  1  0  0  0  0
 28 29  1  0  0  0  0
 29 27  2  0  0  0  0
  8  7  2  0  0  0  0
 16 22  1  0  0  0  0
 28 25  2  0  0  0  0
 17 18  1  0  0  0  0
M  END
> <IDNUMBER>
F2738-1944

> <Chemical_Name>
N-(4,6-dimethyl-1,3-benzothiazol-2-yl)-2-(2,5-dioxopyrrolidin-1-yl)-N-[(pyridin-2-yl)methyl]acetamide

> <CAS>
922941-61-5

> <PriceCoeff>
1.00

> <MW>
408.47

> <Description>
solid

> <FSP3>
0.29

> <clogP>
1.96

> <TPSA>
111.71

> <Acceptor>
5

> <Donor>
1

> <RotBonds>
6

> <HAC>
29

> <Collection>
General

$$$$
F1822-0288
  -ISIS-  06222321452D

 28 31  0  0  0  0  0  0  0  0999 V2000
   -5.9708    3.3833    0.0000 C   0  0  0  0  0  0  0  0  0  0  0  0
   -1.7250    5.0167    0.0000 N   0  0  3  0  0  0  0  0  0  0  0  0
   -6.0292    2.5583    0.0000 N   0  0  0  0  0  0  0  0  0  0  0  0
   -5.2708    3.7958    0.0000 N   0  0  0  0  0  0  0  0  0  0  0  0
   -6.7167    3.7208    0.0000 S   0  0  0  0  0  0  0  0  0  0  0  0
   -4.5833    3.3958    0.0000 C   0  0  0  0  0  0  0  0  0  0  0  0
   -0.9625    4.7167    0.0000 C   0  0  0  0  0  0  0  0  0  0  0  0
   -1.6708    5.8417    0.0000 C   0  0  0  0  0  0  0  0  0  0  0  0
   -7.2667    3.1083    0.0000 C   0  0  0  0  0  0  0  0  0  0  0  0
   -6.8417    2.3833    0.0000 C   0  0  0  0  0  0  0  0  0  0  0  0
   -2.4458    4.6042    0.0000 C   0  0  0  0  0  0  0  0  0  0  0  0
   -8.1125    3.1083    0.0000 C   0  0  0  0  0  0  0  0  0  0  0  0
   -8.5042    2.3708    0.0000 C   0  0  0  0  0  0  0  0  0  0  0  0
   -3.8708    3.8000    0.0000 C   0  0  0  0  0  0  0  0  0  0  0  0
   -4.5833    2.5958    0.0000 O   0  0  0  0  0  0  0  0  0  0  0  0
   -0.8625    6.0417    0.0000 C   0  0  0  0  0  0  0  0  0  0  0  0
   -0.4458    5.3417    0.0000 C   0  0  0  0  0  0  0  0  0  0  0  0
   -2.3083    6.3917    0.0000 O   0  0  0  0  0  0  0  0  0  0  0  0
   -0.7625    3.9250    0.0000 O   0  0  0  0  0  0  0  0  0  0  0  0
   -7.2625    1.6625    0.0000 C   0  0  0  0  0  0  0  0  0  0  0  0
   -8.0917    1.6500    0.0000 C   0  0  0  0  0  0  0  0  0  0  0  0
   -3.1583    5.0292    0.0000 C   0  0  0  0  0  0  0  0  0  0  0  0
   -2.4500    3.8000    0.0000 C   0  0  0  0  0  0  0  0  0  0  0  0
   -3.1625    3.3958    0.0000 C   0  0  0  0  0  0  0  0  0  0  0  0
   -3.8708    4.6250    0.0000 C   0  0  0  0  0  0  0  0  0  0  0  0
   -9.3375    2.3750    0.0000 C   0  0  3  0  0  0  0  0  0  0  0  0
   -9.7500    3.0708    0.0000 C   0  0  0  0  0  0  0  0  0  0  0  0
   -9.7417    1.6583    0.0000 C   0  0  0  0  0  0  0  0  0  0  0  0
  2 11  1  0  0  0  0
  3  1  2  0  0  0  0
  4  1  1  0  0  0  0
  5  1  1  0  0  0  0
  6  4  1  0  0  0  0
  7  2  1  0  0  0  0
  8  2  1  0  0  0  0
  9  5  1  0  0  0  0
 10  3  1  0  0  0  0
 11 22  1  0  0  0  0
 12  9  1  0  0  0  0
 13 12  2  0  0  0  0
 14  6  1  0  0  0  0
 15  6  2  0  0  0  0
 16  8  1  0  0  0  0
 17  7  1  0  0  0  0
 18  8  2  0  0  0  0
 19  7  2  0  0  0  0
 20 10  1  0  0  0  0
 21 20  2  0  0  0  0
 22 25  2  0  0  0  0
 23 24  1  0  0  0  0
 24 14  2  0  0  0  0
 25 14  1  0  0  0  0
 26 13  1  0  0  0  0
 27 26  1  0  0  0  0
 28 26  1  0  0  0  0
  9 10  2  0  0  0  0
 21 13  1  0  0  0  0
 11 23  2  0  0  0  0
 17 16  1  0  0  0  0
M  END
> <IDNUMBER>
F1822-0288

> <Chemical_Name>
4-(2,5-dioxopyrrolidin-1-yl)-N-[6-(propan-2-yl)-1,3-benzothiazol-2-yl]benzamide

> <CAS>
892857-81-7

> <PriceCoeff>
1.00

> <MW>
393.46

> <Description>
solid

> <FSP3>
0.24

> <clogP>
3.05

> <TPSA>
107.61

> <Acceptor>
4

> <Donor>
1

> <RotBonds>
4

> <HAC>
28

> <Collection>
General

$$$$
F1813-0344
  -ISIS-  06222321142D

 27 30  0  0  0  0  0  0  0  0999 V2000
   -6.0000    3.3958    0.0000 C   0  0  0  0  0  0  0  0  0  0  0  0
   -1.7250    5.0167    0.0000 N   0  0  3  0  0  0  0  0  0  0  0  0
   -6.0792    2.5625    0.0000 N   0  0  0  0  0  0  0  0  0  0  0  0
   -6.8917    2.3958    0.0000 C   0  0  0  0  0  0  0  0  0  0  0  0
   -5.2958    3.8083    0.0000 N   0  0  0  0  0  0  0  0  0  0  0  0
   -6.7542    3.7333    0.0000 S   0  0  0  0  0  0  0  0  0  0  0  0
   -4.5833    3.3958    0.0000 C   0  0  0  0  0  0  0  0  0  0  0  0
   -7.3042    3.1083    0.0000 C   0  0  0  0  0  0  0  0  0  0  0  0
   -7.3042    1.6833    0.0000 C   0  0  0  0  0  0  0  0  0  0  0  0
   -1.6708    5.8417    0.0000 C   0  0  0  0  0  0  0  0  0  0  0  0
   -0.9625    4.7167    0.0000 C   0  0  0  0  0  0  0  0  0  0  0  0
   -2.4458    4.6042    0.0000 C   0  0  0  0  0  0  0  0  0  0  0  0
   -3.8708    3.8000    0.0000 C   0  0  0  0  0  0  0  0  0  0  0  0
   -8.1292    1.6833    0.0000 C   0  0  0  0  0  0  0  0  0  0  0  0
   -4.5833    2.5708    0.0000 O   0  0  0  0  0  0  0  0  0  0  0  0
   -0.8625    6.0417    0.0000 C   0  0  0  0  0  0  0  0  0  0  0  0
   -0.4458    5.3417    0.0000 C   0  0  0  0  0  0  0  0  0  0  0  0
   -2.3083    6.3917    0.0000 O   0  0  0  0  0  0  0  0  0  0  0  0
   -0.7625    3.9250    0.0000 O   0  0  0  0  0  0  0  0  0  0  0  0
   -8.1292    3.1083    0.0000 C   0  0  0  0  0  0  0  0  0  0  0  0
   -2.4500    3.8000    0.0000 C   0  0  0  0  0  0  0  0  0  0  0  0
   -3.1583    5.0292    0.0000 C   0  0  0  0  0  0  0  0  0  0  0  0
   -8.5292    2.3958    0.0000 C   0  0  0  0  0  0  0  0  0  0  0  0
   -3.1625    3.3958    0.0000 C   0  0  0  0  0  0  0  0  0  0  0  0
   -3.8708    4.6250    0.0000 C   0  0  0  0  0  0  0  0  0  0  0  0
   -8.5292    0.9708    0.0000 Cl  0  0  0  0  0  0  0  0  0  0  0  0
   -6.8917    0.9708    0.0000 C   0  0  0  0  0  0  0  0  0  0  0  0
  2 12  1  0  0  0  0
  3  1  2  0  0  0  0
  4  3  1  0  0  0  0
  5  1  1  0  0  0  0
  6  1  1  0  0  0  0
  7  5  1  0  0  0  0
  8  6  1  0  0  0  0
  9  4  2  0  0  0  0
 10  2  1  0  0  0  0
 11  2  1  0  0  0  0
 12 22  1  0  0  0  0
 13  7  1  0  0  0  0
 14  9  1  0  0  0  0
 15  7  2  0  0  0  0
 16 10  1  0  0  0  0
 17 11  1  0  0  0  0
 18 10  2  0  0  0  0
 19 11  2  0  0  0  0
 20  8  2  0  0  0  0
 21 24  1  0  0  0  0
 22 25  2  0  0  0  0
 23 20  1  0  0  0  0
 24 13  2  0  0  0  0
 25 13  1  0  0  0  0
 26 14  1  0  0  0  0
 27  9  1  0  0  0  0
  8  4  1  0  0  0  0
 23 14  2  0  0  0  0
 21 12  2  0  0  0  0
 16 17  1  0  0  0  0
M  END
> <IDNUMBER>
F1813-0344

> <Chemical_Name>
N-(5-chloro-4-methyl-1,3-benzothiazol-2-yl)-4-(2,5-dioxopyrrolidin-1-yl)benzamide

> <CAS>
897759-43-2

> <PriceCoeff>
1.00

> <MW>
399.85

> <Description>
solid

> <FSP3>
0.16

> <clogP>
2.84

> <TPSA>
107.61

> <Acceptor>
4

> <Donor>
1

> <RotBonds>
3

> <HAC>
27

> <Collection>
General

$$$$
F1813-0345
  -ISIS-  06222321142D

 27 30  0  0  0  0  0  0  0  0999 V2000
   -6.0000    3.3958    0.0000 C   0  0  0  0  0  0  0  0  0  0  0  0
   -1.7250    5.0167    0.0000 N   0  0  3  0  0  0  0  0  0  0  0  0
   -6.0875    2.5625    0.0000 N   0  0  0  0  0  0  0  0  0  0  0  0
   -5.2958    3.8000    0.0000 N   0  0  0  0  0  0  0  0  0  0  0  0
   -6.7542    3.7333    0.0000 S   0  0  0  0  0  0  0  0  0  0  0  0
   -7.3042    3.1083    0.0000 C   0  0  0  0  0  0  0  0  0  0  0  0
   -6.8917    2.3958    0.0000 C   0  0  0  0  0  0  0  0  0  0  0  0
   -4.5833    3.3958    0.0000 C   0  0  0  0  0  0  0  0  0  0  0  0
   -0.9625    4.7167    0.0000 C   0  0  0  0  0  0  0  0  0  0  0  0
   -1.6708    5.8417    0.0000 C   0  0  0  0  0  0  0  0  0  0  0  0
   -7.3042    1.6833    0.0000 C   0  0  0  0  0  0  0  0  0  0  0  0
   -8.1292    3.1083    0.0000 C   0  0  0  0  0  0  0  0  0  0  0  0
   -2.4458    4.6042    0.0000 C   0  0  0  0  0  0  0  0  0  0  0  0
   -3.8708    3.8000    0.0000 C   0  0  0  0  0  0  0  0  0  0  0  0
   -8.5417    2.3958    0.0000 C   0  0  0  0  0  0  0  0  0  0  0  0
   -8.1292    1.6833    0.0000 C   0  0  0  0  0  0  0  0  0  0  0  0
   -4.5833    2.5708    0.0000 O   0  0  0  0  0  0  0  0  0  0  0  0
   -0.8625    6.0417    0.0000 C   0  0  0  0  0  0  0  0  0  0  0  0
   -0.4458    5.3417    0.0000 C   0  0  0  0  0  0  0  0  0  0  0  0
   -2.3083    6.3917    0.0000 O   0  0  0  0  0  0  0  0  0  0  0  0
   -0.7625    3.9250    0.0000 O   0  0  0  0  0  0  0  0  0  0  0  0
   -3.1583    5.0292    0.0000 C   0  0  0  0  0  0  0  0  0  0  0  0
   -2.4500    3.8000    0.0000 C   0  0  0  0  0  0  0  0  0  0  0  0
   -3.1625    3.3958    0.0000 C   0  0  0  0  0  0  0  0  0  0  0  0
   -3.8708    4.6250    0.0000 C   0  0  0  0  0  0  0  0  0  0  0  0
   -9.3625    2.3958    0.0000 Cl  0  0  0  0  0  0  0  0  0  0  0  0
   -6.8917    0.9708    0.0000 C   0  0  0  0  0  0  0  0  0  0  0  0
  2 13  1  0  0  0  0
  3  1  2  0  0  0  0
  4  1  1  0  0  0  0
  5  1  1  0  0  0  0
  6  5  1  0  0  0  0
  7  3  1  0  0  0  0
  8  4  1  0  0  0  0
  9  2  1  0  0  0  0
 10  2  1  0  0  0  0
 11  7  2  0  0  0  0
 12  6  2  0  0  0  0
 13 22  1  0  0  0  0
 14  8  1  0  0  0  0
 15 12  1  0  0  0  0
 16 11  1  0  0  0  0
 17  8  2  0  0  0  0
 18 10  1  0  0  0  0
 19  9  1  0  0  0  0
 20 10  2  0  0  0  0
 21  9  2  0  0  0  0
 22 25  2  0  0  0  0
 23 24  1  0  0  0  0
 24 14  2  0  0  0  0
 25 14  1  0  0  0  0
 26 15  1  0  0  0  0
 27 11  1  0  0  0  0
  6  7  1  0  0  0  0
 15 16  2  0  0  0  0
 23 13  2  0  0  0  0
 18 19  1  0  0  0  0
M  END
> <IDNUMBER>
F1813-0345

> <Chemical_Name>
N-(6-chloro-4-methyl-1,3-benzothiazol-2-yl)-4-(2,5-dioxopyrrolidin-1-yl)benzamide

> <CAS>
897617-98-0

> <PriceCoeff>
1.00

> <MW>
399.85

> <Description>
solid

> <FSP3>
0.16

> <clogP>
2.84

> <TPSA>
107.61

> <Acceptor>
4

> <Donor>
1

> <RotBonds>
3

> <HAC>
27

> <Collection>
General

$$$$
F1813-0348
  -ISIS-  06222321142D

 27 30  0  0  0  0  0  0  0  0999 V2000
   -6.0000    3.3958    0.0000 C   0  0  0  0  0  0  0  0  0  0  0  0
   -1.7250    5.0167    0.0000 N   0  0  3  0  0  0  0  0  0  0  0  0
   -6.0792    2.5583    0.0000 N   0  0  0  0  0  0  0  0  0  0  0  0
   -7.3125    3.1083    0.0000 C   0  0  0  0  0  0  0  0  0  0  0  0
   -6.8917    2.3958    0.0000 C   0  0  0  0  0  0  0  0  0  0  0  0
   -5.2958    3.8000    0.0000 N   0  0  0  0  0  0  0  0  0  0  0  0
   -6.7542    3.7208    0.0000 S   0  0  0  0  0  0  0  0  0  0  0  0
   -4.5833    3.3958    0.0000 C   0  0  0  0  0  0  0  0  0  0  0  0
   -0.9625    4.7167    0.0000 C   0  0  0  0  0  0  0  0  0  0  0  0
   -1.6708    5.8417    0.0000 C   0  0  0  0  0  0  0  0  0  0  0  0
   -2.4458    4.6042    0.0000 C   0  0  0  0  0  0  0  0  0  0  0  0
   -8.1292    3.1083    0.0000 C   0  0  0  0  0  0  0  0  0  0  0  0
   -3.8708    3.8000    0.0000 C   0  0  0  0  0  0  0  0  0  0  0  0
   -7.3042    1.6833    0.0000 C   0  0  0  0  0  0  0  0  0  0  0  0
   -4.5833    2.5708    0.0000 O   0  0  0  0  0  0  0  0  0  0  0  0
   -0.8625    6.0417    0.0000 C   0  0  0  0  0  0  0  0  0  0  0  0
   -0.4458    5.3417    0.0000 C   0  0  0  0  0  0  0  0  0  0  0  0
   -2.3083    6.3917    0.0000 O   0  0  0  0  0  0  0  0  0  0  0  0
   -0.7625    3.9250    0.0000 O   0  0  0  0  0  0  0  0  0  0  0  0
   -3.1583    5.0292    0.0000 C   0  0  0  0  0  0  0  0  0  0  0  0
   -2.4500    3.8000    0.0000 C   0  0  0  0  0  0  0  0  0  0  0  0
   -8.5417    2.3958    0.0000 C   0  0  0  0  0  0  0  0  0  0  0  0
   -3.8708    4.6250    0.0000 C   0  0  0  0  0  0  0  0  0  0  0  0
   -3.1625    3.3958    0.0000 C   0  0  0  0  0  0  0  0  0  0  0  0
   -8.1292    1.6750    0.0000 C   0  0  0  0  0  0  0  0  0  0  0  0
   -8.5417    3.8125    0.0000 Cl  0  0  0  0  0  0  0  0  0  0  0  0
   -6.8917    0.9708    0.0000 C   0  0  0  0  0  0  0  0  0  0  0  0
  2 11  1  0  0  0  0
  3  1  2  0  0  0  0
  4  7  1  0  0  0  0
  5  3  1  0  0  0  0
  6  1  1  0  0  0  0
  7  1  1  0  0  0  0
  8  6  1  0  0  0  0
  9  2  1  0  0  0  0
 10  2  1  0  0  0  0
 11 21  2  0  0  0  0
 12  4  2  0  0  0  0
 13  8  1  0  0  0  0
 14  5  2  0  0  0  0
 15  8  2  0  0  0  0
 16 10  1  0  0  0  0
 17  9  1  0  0  0  0
 18 10  2  0  0  0  0
 19  9  2  0  0  0  0
 20 23  2  0  0  0  0
 21 24  1  0  0  0  0
 22 12  1  0  0  0  0
 23 13  1  0  0  0  0
 24 13  2  0  0  0  0
 25 14  1  0  0  0  0
 26 12  1  0  0  0  0
 27 14  1  0  0  0  0
  4  5  1  0  0  0  0
 22 25  2  0  0  0  0
 20 11  1  0  0  0  0
 16 17  1  0  0  0  0
M  END
> <IDNUMBER>
F1813-0348

> <Chemical_Name>
N-(7-chloro-4-methyl-1,3-benzothiazol-2-yl)-4-(2,5-dioxopyrrolidin-1-yl)benzamide

> <CAS>
897759-45-4

> <PriceCoeff>
1.00

> <MW>
399.85

> <Description>
solid

> <FSP3>
0.16

> <clogP>
2.84

> <TPSA>
107.61

> <Acceptor>
4

> <Donor>
1

> <RotBonds>
3

> <HAC>
27

> <Collection>
General

$$$$
F1813-0480
  -ISIS-  06222321442D

 27 30  0  0  0  0  0  0  0  0999 V2000
   -6.0000    3.3958    0.0000 C   0  0  0  0  0  0  0  0  0  0  0  0
   -1.7333    3.3958    0.0000 N   0  0  3  0  0  0  0  0  0  0  0  0
   -6.0792    2.5583    0.0000 N   0  0  0  0  0  0  0  0  0  0  0  0
   -7.3125    3.1083    0.0000 C   0  0  0  0  0  0  0  0  0  0  0  0
   -6.8917    2.3958    0.0000 C   0  0  0  0  0  0  0  0  0  0  0  0
   -5.2958    3.8000    0.0000 N   0  0  0  0  0  0  0  0  0  0  0  0
   -6.7542    3.7208    0.0000 S   0  0  0  0  0  0  0  0  0  0  0  0
   -2.4458    3.8000    0.0000 C   0  0  0  0  0  0  0  0  0  0  0  0
   -4.5833    3.3958    0.0000 C   0  0  0  0  0  0  0  0  0  0  0  0
   -1.6875    2.5708    0.0000 C   0  0  0  0  0  0  0  0  0  0  0  0
   -0.9708    3.6875    0.0000 C   0  0  0  0  0  0  0  0  0  0  0  0
   -3.1583    3.3958    0.0000 C   0  0  0  0  0  0  0  0  0  0  0  0
   -3.8708    3.8000    0.0000 C   0  0  0  0  0  0  0  0  0  0  0  0
   -8.1292    3.1083    0.0000 C   0  0  0  0  0  0  0  0  0  0  0  0
   -7.3042    1.6833    0.0000 C   0  0  0  0  0  0  0  0  0  0  0  0
   -4.5833    2.5708    0.0000 O   0  0  0  0  0  0  0  0  0  0  0  0
   -0.4375    3.0583    0.0000 C   0  0  0  0  0  0  0  0  0  0  0  0
   -0.8708    2.3708    0.0000 C   0  0  0  0  0  0  0  0  0  0  0  0
   -0.7583    4.4667    0.0000 O   0  0  0  0  0  0  0  0  0  0  0  0
   -2.3208    2.0458    0.0000 O   0  0  0  0  0  0  0  0  0  0  0  0
   -8.5417    2.3958    0.0000 C   0  0  0  0  0  0  0  0  0  0  0  0
   -8.1292    1.6750    0.0000 C   0  0  0  0  0  0  0  0  0  0  0  0
   -8.5417    3.8125    0.0000 Cl  0  0  0  0  0  0  0  0  0  0  0  0
   -2.4375    4.6167    0.0000 C   0  0  0  0  0  0  0  0  0  0  0  0
   -3.8708    4.6167    0.0000 C   0  0  0  0  0  0  0  0  0  0  0  0
   -3.1583    5.0292    0.0000 C   0  0  0  0  0  0  0  0  0  0  0  0
   -6.8917    0.9708    0.0000 C   0  0  0  0  0  0  0  0  0  0  0  0
  2  8  1  0  0  0  0
  3  1  2  0  0  0  0
  4  7  1  0  0  0  0
  5  3  1  0  0  0  0
  6  1  1  0  0  0  0
  7  1  1  0  0  0  0
  8 12  1  0  0  0  0
  9  6  1  0  0  0  0
 10  2  1  0  0  0  0
 11  2  1  0  0  0  0
 12 13  2  0  0  0  0
 13  9  1  0  0  0  0
 14  4  2  0  0  0  0
 15  5  2  0  0  0  0
 16  9  2  0  0  0  0
 17 11  1  0  0  0  0
 18 10  1  0  0  0  0
 19 11  2  0  0  0  0
 20 10  2  0  0  0  0
 21 14  1  0  0  0  0
 22 15  1  0  0  0  0
 23 14  1  0  0  0  0
 24 26  1  0  0  0  0
 25 13  1  0  0  0  0
 26 25  2  0  0  0  0
 27 15  1  0  0  0  0
  4  5  1  0  0  0  0
 21 22  2  0  0  0  0
  8 24  2  0  0  0  0
 17 18  1  0  0  0  0
M  END
> <IDNUMBER>
F1813-0480

> <Chemical_Name>
N-(7-chloro-4-methyl-1,3-benzothiazol-2-yl)-3-(2,5-dioxopyrrolidin-1-yl)benzamide

> <CAS>
897759-54-5

> <PriceCoeff>
1.00

> <MW>
399.85

> <Description>
solid

> <FSP3>
0.16

> <clogP>
2.84

> <TPSA>
107.61

> <Acceptor>
4

> <Donor>
1

> <RotBonds>
3

> <HAC>
27

> <Collection>
General

$$$$
F0327-0290
  -ISIS-  06222321452D

 27 30  0  0  0  0  0  0  0  0999 V2000
   -1.9083    0.4333    0.0000 C   0  0  0  0  0  0  0  0  0  0  0  0
    2.9167   -0.3292    0.0000 N   0  0  3  0  0  0  0  0  0  0  0  0
   -2.4125   -0.2792    0.0000 N   0  0  0  0  0  0  0  0  0  0  0  0
   -1.0458    0.4333    0.0000 N   0  0  0  0  0  0  0  0  0  0  0  0
   -2.4000    1.1333    0.0000 S   0  0  0  0  0  0  0  0  0  0  0  0
   -0.6000   -0.3292    0.0000 C   0  0  0  0  0  0  0  0  0  0  0  0
    3.4167    0.3333    0.0000 C   0  0  0  0  0  0  0  0  0  0  0  0
    3.4042   -1.0500    0.0000 C   0  0  0  0  0  0  0  0  0  0  0  0
   -3.2458    0.8708    0.0000 C   0  0  0  0  0  0  0  0  0  0  0  0
   -3.2458   -0.0292    0.0000 C   0  0  0  0  0  0  0  0  0  0  0  0
    2.0375   -0.3292    0.0000 C   0  0  0  0  0  0  0  0  0  0  0  0
   -4.0000    1.3125    0.0000 C   0  0  0  0  0  0  0  0  0  0  0  0
    0.2792   -0.3292    0.0000 C   0  0  0  0  0  0  0  0  0  0  0  0
   -1.0458   -1.0875    0.0000 O   0  0  0  0  0  0  0  0  0  0  0  0
    4.2542   -0.8000    0.0000 C   0  0  0  0  0  0  0  0  0  0  0  0
    4.2500    0.0708    0.0000 C   0  0  0  0  0  0  0  0  0  0  0  0
    3.1000   -1.8667    0.0000 O   0  0  0  0  0  0  0  0  0  0  0  0
    3.1292    1.1833    0.0000 O   0  0  0  0  0  0  0  0  0  0  0  0
   -4.0000   -0.4500    0.0000 C   0  0  0  0  0  0  0  0  0  0  0  0
    1.6000    0.4333    0.0000 C   0  0  0  0  0  0  0  0  0  0  0  0
    1.6000   -1.0875    0.0000 C   0  0  0  0  0  0  0  0  0  0  0  0
    0.7167    0.4333    0.0000 C   0  0  0  0  0  0  0  0  0  0  0  0
    0.7167   -1.0875    0.0000 C   0  0  0  0  0  0  0  0  0  0  0  0
   -4.7708    0.8625    0.0000 C   0  0  0  0  0  0  0  0  0  0  0  0
   -4.7708   -0.0292    0.0000 C   0  0  0  0  0  0  0  0  0  0  0  0
   -5.5208    1.3125    0.0000 O   0  0  0  0  0  0  0  0  0  0  0  0
   -6.2792    0.8708    0.0000 C   0  0  0  0  0  0  0  0  0  0  0  0
  2 11  1  0  0  0  0
  3  1  2  0  0  0  0
  4  1  1  0  0  0  0
  5  1  1  0  0  0  0
  6  4  1  0  0  0  0
  7  2  1  0  0  0  0
  8  2  1  0  0  0  0
  9  5  1  0  0  0  0
 10  3  1  0  0  0  0
 11 21  2  0  0  0  0
 12  9  1  0  0  0  0
 13  6  1  0  0  0  0
 14  6  2  0  0  0  0
 15  8  1  0  0  0  0
 16  7  1  0  0  0  0
 17  8  2  0  0  0  0
 18  7  2  0  0  0  0
 19 10  1  0  0  0  0
 20 22  2  0  0  0  0
 21 23  1  0  0  0  0
 22 13  1  0  0  0  0
 23 13  2  0  0  0  0
 24 12  2  0  0  0  0
 25 19  2  0  0  0  0
 26 24  1  0  0  0  0
 27 26  1  0  0  0  0
  9 10  2  0  0  0  0
 25 24  1  0  0  0  0
 11 20  1  0  0  0  0
 15 16  1  0  0  0  0
M  END
> <IDNUMBER>
F0327-0290

> <Chemical_Name>
4-(2,5-dioxopyrrolidin-1-yl)-N-(6-methoxy-1,3-benzothiazol-2-yl)benzamide

> <CAS>
330191-20-3

> <PriceCoeff>
1.00

> <MW>
381.41

> <Description>
solid

> <FSP3>
0.16

> <clogP>
1.92

> <TPSA>
116.84

> <Acceptor>
5

> <Donor>
1

> <RotBonds>
4

> <HAC>
27

> <Collection>
General

$$$$
F1382-0013
  -ISIS-  06222321452D

 31 34  0  0  0  0  0  0  0  0999 V2000
    1.2542   -0.5542    0.0000 S   0  0  3  0  0  0  0  0  0  0  0  0
    6.2542   -4.2667    0.0000 N   0  0  3  0  0  0  0  0  0  0  0  0
    6.2542   -3.4417    0.0000 C   0  0  0  0  0  0  0  0  0  0  0  0
    1.6667    0.1583    0.0000 N   0  0  3  0  0  0  0  0  0  0  0  0
    5.5917   -4.7542    0.0000 C   0  0  0  0  0  0  0  0  0  0  0  0
    6.9250   -4.7542    0.0000 C   0  0  0  0  0  0  0  0  0  0  0  0
    4.8250   -1.8000    0.0000 C   0  0  0  0  0  0  0  0  0  0  0  0
    1.9625   -0.9750    0.0000 C   0  0  0  0  0  0  0  0  0  0  0  0
    4.1125   -2.2125    0.0000 N   0  0  0  0  0  0  0  0  0  0  0  0
    5.5375   -3.0292    0.0000 C   0  0  0  0  0  0  0  0  0  0  0  0
    5.5375   -2.2042    0.0000 C   0  0  0  0  0  0  0  0  0  0  0  0
    0.5375   -0.1500    0.0000 O   0  0  0  0  0  0  0  0  0  0  0  0
    0.8375   -1.2667    0.0000 O   0  0  0  0  0  0  0  0  0  0  0  0
    4.8250   -0.9750    0.0000 O   0  0  0  0  0  0  0  0  0  0  0  0
    6.6667   -5.5417    0.0000 C   0  0  0  0  0  0  0  0  0  0  0  0
    5.8417   -5.5417    0.0000 C   0  0  0  0  0  0  0  0  0  0  0  0
    4.8042   -4.5042    0.0000 O   0  0  0  0  0  0  0  0  0  0  0  0
    7.7042   -4.5000    0.0000 O   0  0  0  0  0  0  0  0  0  0  0  0
    2.6750   -0.5542    0.0000 C   0  0  0  0  0  0  0  0  0  0  0  0
    1.9625   -1.8000    0.0000 C   0  0  0  0  0  0  0  0  0  0  0  0
    3.3917   -1.8000    0.0000 C   0  0  0  0  0  0  0  0  0  0  0  0
    2.6750   -2.2125    0.0000 C   0  0  0  0  0  0  0  0  0  0  0  0
    3.3917   -0.9667    0.0000 C   0  0  0  0  0  0  0  0  0  0  0  0
    6.9667   -3.0292    0.0000 C   0  0  0  0  0  0  0  0  0  0  0  0
    2.4917    0.1583    0.0000 C   0  0  0  0  0  0  0  0  0  0  0  0
    1.2500    0.8708    0.0000 C   0  0  0  0  0  0  0  0  0  0  0  0
    6.2500   -1.7917    0.0000 C   0  0  0  0  0  0  0  0  0  0  0  0
    6.9625   -2.2000    0.0000 C   0  0  0  0  0  0  0  0  0  0  0  0
    1.6667    1.5875    0.0000 C   0  0  0  0  0  0  0  0  0  0  0  0
    2.9042    0.8708    0.0000 C   0  0  0  0  0  0  0  0  0  0  0  0
    2.4917    1.5833    0.0000 C   0  0  0  0  0  0  0  0  0  0  0  0
  2  3  1  0  0  0  0
  3 10  1  0  0  0  0
  4  1  1  0  0  0  0
  5  2  1  0  0  0  0
  6  2  1  0  0  0  0
  7  9  1  0  0  0  0
  8  1  1  0  0  0  0
  9 21  1  0  0  0  0
 10 11  2  0  0  0  0
 11  7  1  0  0  0  0
 12  1  2  0  0  0  0
 13  1  2  0  0  0  0
 14  7  2  0  0  0  0
 15  6  1  0  0  0  0
 16  5  1  0  0  0  0
 17  5  2  0  0  0  0
 18  6  2  0  0  0  0
 19  8  1  0  0  0  0
 20  8  2  0  0  0  0
 21 22  2  0  0  0  0
 22 20  1  0  0  0  0
 23 19  2  0  0  0  0
 24 28  1  0  0  0  0
 25  4  1  0  0  0  0
 26  4  1  0  0  0  0
 27 11  1  0  0  0  0
 28 27  2  0  0  0  0
 29 26  1  0  0  0  0
 30 25  1  0  0  0  0
 31 29  1  0  0  0  0
 21 23  1  0  0  0  0
 30 31  1  0  0  0  0
  3 24  2  0  0  0  0
 16 15  1  0  0  0  0
M  END
> <IDNUMBER>
F1382-0013

> <Chemical_Name>
3-(2,5-dioxopyrrolidin-1-yl)-N-[4-(piperidine-1-sulfonyl)phenyl]benzamide

> <CAS>
380321-96-0

> <PriceCoeff>
1.00

> <MW>
441.50

> <Description>
solid

> <FSP3>
0.32

> <clogP>
1.64

> <TPSA>
112.24

> <Acceptor>
5

> <Donor>
1

> <RotBonds>
5

> <HAC>
31

> <Collection>
General

$$$$
F0327-0322
  -ISIS-  06222321442D

 27 30  0  0  0  0  0  0  0  0999 V2000
    2.9167   -0.3292    0.0000 N   0  0  3  0  0  0  0  0  0  0  0  0
   -1.9083    0.4333    0.0000 C   0  0  0  0  0  0  0  0  0  0  0  0
   -2.4125   -0.2792    0.0000 N   0  0  0  0  0  0  0  0  0  0  0  0
   -1.0458    0.4333    0.0000 N   0  0  0  0  0  0  0  0  0  0  0  0
   -3.2458   -0.0292    0.0000 C   0  0  0  0  0  0  0  0  0  0  0  0
   -0.6000   -0.3292    0.0000 C   0  0  0  0  0  0  0  0  0  0  0  0
    3.4042   -1.0500    0.0000 C   0  0  0  0  0  0  0  0  0  0  0  0
    3.4167    0.3333    0.0000 C   0  0  0  0  0  0  0  0  0  0  0  0
   -2.4000    1.1333    0.0000 S   0  0  0  0  0  0  0  0  0  0  0  0
   -3.2458    0.8708    0.0000 C   0  0  0  0  0  0  0  0  0  0  0  0
    2.0375   -0.3292    0.0000 C   0  0  0  0  0  0  0  0  0  0  0  0
    0.2792   -0.3292    0.0000 C   0  0  0  0  0  0  0  0  0  0  0  0
   -1.0458   -1.0875    0.0000 O   0  0  0  0  0  0  0  0  0  0  0  0
    4.2500    0.0708    0.0000 C   0  0  0  0  0  0  0  0  0  0  0  0
    4.2542   -0.8000    0.0000 C   0  0  0  0  0  0  0  0  0  0  0  0
    3.1292    1.1833    0.0000 O   0  0  0  0  0  0  0  0  0  0  0  0
    3.1000   -1.8667    0.0000 O   0  0  0  0  0  0  0  0  0  0  0  0
   -3.9208   -0.5542    0.0000 C   0  0  0  0  0  0  0  0  0  0  0  0
    1.6000    0.4333    0.0000 C   0  0  0  0  0  0  0  0  0  0  0  0
    1.6000   -1.0875    0.0000 C   0  0  0  0  0  0  0  0  0  0  0  0
    0.7167    0.4333    0.0000 C   0  0  0  0  0  0  0  0  0  0  0  0
    0.7167   -1.0875    0.0000 C   0  0  0  0  0  0  0  0  0  0  0  0
   -4.7458   -0.2292    0.0000 C   0  0  0  0  0  0  0  0  0  0  0  0
   -3.8000   -1.4375    0.0000 C   0  0  0  0  0  0  0  0  0  0  0  0
   -4.4958   -1.9792    0.0000 C   0  0  0  0  0  0  0  0  0  0  0  0
   -5.4458   -0.7667    0.0000 C   0  0  0  0  0  0  0  0  0  0  0  0
   -5.3208   -1.6500    0.0000 C   0  0  0  0  0  0  0  0  0  0  0  0
  2  4  1  0  0  0  0
  3  2  2  0  0  0  0
  4  6  1  0  0  0  0
  5  3  1  0  0  0  0
  6 12  1  0  0  0  0
  7  1  1  0  0  0  0
  8  1  1  0  0  0  0
  9  2  1  0  0  0  0
 10  9  1  0  0  0  0
 11  1  1  0  0  0  0
 12 22  2  0  0  0  0
 13  6  2  0  0  0  0
 14  8  1  0  0  0  0
 15  7  1  0  0  0  0
 16  8  2  0  0  0  0
 17  7  2  0  0  0  0
 18  5  1  0  0  0  0
 19 11  1  0  0  0  0
 20 11  2  0  0  0  0
 21 19  2  0  0  0  0
 22 20  1  0  0  0  0
 23 18  2  0  0  0  0
 24 18  1  0  0  0  0
 25 24  2  0  0  0  0
 26 23  1  0  0  0  0
 27 25  1  0  0  0  0
 14 15  1  0  0  0  0
 21 12  1  0  0  0  0
  5 10  2  0  0  0  0
 27 26  2  0  0  0  0
M  END
> <IDNUMBER>
F0327-0322

> <Chemical_Name>
4-(2,5-dioxopyrrolidin-1-yl)-N-(4-phenyl-1,3-thiazol-2-yl)benzamide

> <CAS>
476281-72-8

> <PriceCoeff>
1.00

> <MW>
377.42

> <Description>
solid

> <FSP3>
0.10

> <clogP>
2.13

> <TPSA>
107.61

> <Acceptor>
4

> <Donor>
1

> <RotBonds>
4

> <HAC>
27

> <Collection>
General

$$$$
F0012-0791
  -ISIS-  06222321142D

 19 20  0  0  0  0  0  0  0  0999 V2000
   -3.4958   -0.8042    0.0000 S   0  0  3  0  0  0  0  0  0  0  0  0
   -3.9958   -0.8042    0.0000 N   0  0  0  0  0  0  0  0  0  0  0  0
   -4.2333   -1.2292    0.0000 C   0  0  0  0  0  0  0  0  0  0  0  0
   -4.7208   -1.3500    0.0000 N   0  0  0  0  0  0  0  0  0  0  0  0
   -2.9958   -0.8042    0.0000 C   0  0  0  0  0  0  0  0  0  0  0  0
   -3.9958   -1.6500    0.0000 S   0  0  0  0  0  0  0  0  0  0  0  0
   -3.4958   -1.3167    0.0000 O   0  0  0  0  0  0  0  0  0  0  0  0
   -3.4958   -0.3000    0.0000 O   0  0  0  0  0  0  0  0  0  0  0  0
   -1.2333   -0.4167    0.0000 C   0  0  0  0  0  0  0  0  0  0  0  0
   -1.4958   -0.8375    0.0000 N   0  0  0  0  0  0  0  0  0  0  0  0
   -4.7500   -1.8292    0.0000 C   0  0  0  0  0  0  0  0  0  0  0  0
   -4.3125   -2.0375    0.0000 C   0  0  0  0  0  0  0  0  0  0  0  0
   -1.4708    0.0333    0.0000 O   0  0  0  0  0  0  0  0  0  0  0  0
   -2.7333   -1.2292    0.0000 C   0  0  0  0  0  0  0  0  0  0  0  0
   -2.7333   -0.3875    0.0000 C   0  0  0  0  0  0  0  0  0  0  0  0
   -1.9958   -0.8042    0.0000 C   0  0  0  0  0  0  0  0  0  0  0  0
   -2.2500   -0.3875    0.0000 C   0  0  0  0  0  0  0  0  0  0  0  0
   -2.2333   -1.2292    0.0000 C   0  0  0  0  0  0  0  0  0  0  0  0
   -0.7333   -0.4167    0.0000 C   0  0  0  0  0  0  0  0  0  0  0  0
  2  1  1  0  0  0  0
  3  2  1  0  0  0  0
  4  3  2  0  0  0  0
  5  1  1  0  0  0  0
  6  3  1  0  0  0  0
  7  1  2  0  0  0  0
  8  1  2  0  0  0  0
  9 10  1  0  0  0  0
 10 16  1  0  0  0  0
 11  4  1  0  0  0  0
 12  6  1  0  0  0  0
 13  9  2  0  0  0  0
 14  5  2  0  0  0  0
 15  5  1  0  0  0  0
 16 17  1  0  0  0  0
 17 15  2  0  0  0  0
 18 14  1  0  0  0  0
 19  9  1  0  0  0  0
 18 16  2  0  0  0  0
 11 12  2  0  0  0  0
M  END
> <IDNUMBER>
F0012-0791

> <Chemical_Name>
N-{4-[(1,3-thiazol-2-yl)sulfamoyl]phenyl}acetamide

> <CAS>
127-76-4

> <PriceCoeff>
1.00

> <MW>
297.35

> <Description>
solid

> <FSP3>
0.09

> <clogP>
0.94

> <TPSA>
124.78

> <Acceptor>
4

> <Donor>
2

> <RotBonds>
4

> <HAC>
19

> <Collection>
General

> <Reference_compound>
CHEMBL437

> <Similarity>
0.8630

$$$$
F1374-1927
  -ISIS-  06222321142D

 29 32  0  0  0  0  0  0  0  0999 V2000
   -3.7958    3.0208    0.0000 C   0  0  0  0  0  0  0  0  0  0  0  0
   -2.4583    3.0208    0.0000 C   0  0  0  0  0  0  0  0  0  0  0  0
   -3.1208    2.5333    0.0000 O   0  0  0  0  0  0  0  0  0  0  0  0
    1.4667    5.4625    0.0000 N   0  0  3  0  0  0  0  0  0  0  0  0
   -3.5333    3.8000    0.0000 N   0  0  0  0  0  0  0  0  0  0  0  0
   -4.5833    2.7583    0.0000 C   0  0  0  0  0  0  0  0  0  0  0  0
   -1.6708    2.7583    0.0000 N   0  0  0  0  0  0  0  0  0  0  0  0
   -2.7083    3.8000    0.0000 N   0  0  0  0  0  0  0  0  0  0  0  0
   -1.0583    3.3083    0.0000 C   0  0  0  0  0  0  0  0  0  0  0  0
    2.2667    5.3042    0.0000 C   0  0  0  0  0  0  0  0  0  0  0  0
    1.3667    6.2792    0.0000 C   0  0  0  0  0  0  0  0  0  0  0  0
   -4.9083    1.9958    0.0000 C   0  0  0  0  0  0  0  0  0  0  0  0
    0.8375    4.9167    0.0000 C   0  0  0  0  0  0  0  0  0  0  0  0
   -5.0833    3.4208    0.0000 C   0  0  0  0  0  0  0  0  0  0  0  0
   -5.7208    1.9000    0.0000 C   0  0  0  0  0  0  0  0  0  0  0  0
   -0.4250    3.8583    0.0000 C   0  0  0  0  0  0  0  0  0  0  0  0
   -1.8333    3.5875    0.0000 O   0  0  0  0  0  0  0  0  0  0  0  0
    2.6667    6.0292    0.0000 C   0  0  0  0  0  0  0  0  0  0  0  0
    2.1167    6.6292    0.0000 C   0  0  0  0  0  0  0  0  0  0  0  0
    2.6250    4.5542    0.0000 O   0  0  0  0  0  0  0  0  0  0  0  0
    0.6292    6.7000    0.0000 O   0  0  0  0  0  0  0  0  0  0  0  0
    0.9750    4.1042    0.0000 C   0  0  0  0  0  0  0  0  0  0  0  0
    0.0417    5.2000    0.0000 C   0  0  0  0  0  0  0  0  0  0  0  0
   -0.5833    4.6667    0.0000 C   0  0  0  0  0  0  0  0  0  0  0  0
    0.3500    3.5833    0.0000 C   0  0  0  0  0  0  0  0  0  0  0  0
   -6.2000    2.5500    0.0000 C   0  0  0  0  0  0  0  0  0  0  0  0
   -4.4083    1.3458    0.0000 F   0  0  0  0  0  0  0  0  0  0  0  0
   -5.8833    3.3083    0.0000 C   0  0  0  0  0  0  0  0  0  0  0  0
   -7.0167    2.4583    0.0000 F   0  0  0  0  0  0  0  0  0  0  0  0
  2  3  1  0  0  0  0
  3  1  1  0  0  0  0
  4 13  1  0  0  0  0
  5  1  2  0  0  0  0
  6  1  1  0  0  0  0
  7  2  1  0  0  0  0
  8  5  1  0  0  0  0
  9  7  1  0  0  0  0
 10  4  1  0  0  0  0
 11  4  1  0  0  0  0
 12  6  1  0  0  0  0
 13 22  2  0  0  0  0
 14  6  2  0  0  0  0
 15 12  2  0  0  0  0
 16  9  1  0  0  0  0
 17  9  2  0  0  0  0
 18 10  1  0  0  0  0
 19 11  1  0  0  0  0
 20 10  2  0  0  0  0
 21 11  2  0  0  0  0
 22 25  1  0  0  0  0
 23 24  2  0  0  0  0
 24 16  1  0  0  0  0
 25 16  2  0  0  0  0
 26 28  2  0  0  0  0
 27 12  1  0  0  0  0
 28 14  1  0  0  0  0
 29 26  1  0  0  0  0
  8  2  2  0  0  0  0
 15 26  1  0  0  0  0
 13 23  1  0  0  0  0
 19 18  1  0  0  0  0
M  END
> <IDNUMBER>
F1374-1927

> <Chemical_Name>
N-[5-(2,4-difluorophenyl)-1,3,4-oxadiazol-2-yl]-4-(2,5-dioxopyrrolidin-1-yl)benzamide

> <CAS>
1170020-32-2

> <PriceCoeff>
1.00

> <MW>
398.32

> <Description>
solid

> <FSP3>
0.11

> <clogP>
0.89

> <TPSA>
105.40

> <Acceptor>
6

> <Donor>
1

> <RotBonds>
4

> <HAC>
29

> <Collection>
General

$$$$
F5497-0110
  -ISIS-  06222321442D

 29 32  0  0  0  0  0  0  0  0999 V2000
   -3.7583    2.9833    0.0000 S   0  0  3  0  0  0  0  0  0  0  0  0
    0.8375    2.6250    0.0000 C   0  0  0  0  0  0  0  0  0  0  0  0
    0.0667    2.3333    0.0000 S   0  0  0  0  0  0  0  0  0  0  0  0
   -4.5583    1.5458    0.0000 N   0  0  3  0  0  0  0  0  0  0  0  0
    0.8000    3.4375    0.0000 N   0  0  0  0  0  0  0  0  0  0  0  0
    0.0042    3.6583    0.0000 N   0  0  0  0  0  0  0  0  0  0  0  0
   -0.4458    2.9833    0.0000 C   0  0  0  0  0  0  0  0  0  0  0  0
   -2.9333    2.9833    0.0000 N   0  0  3  0  0  0  0  0  0  0  0  0
   -4.5833    2.9708    0.0000 C   0  0  0  0  0  0  0  0  0  0  0  0
   -3.7333    1.5583    0.0000 C   0  0  0  0  0  0  0  0  0  0  0  0
   -4.9833    0.8333    0.0000 C   0  0  0  0  0  0  0  0  0  0  0  0
    1.5250    2.1750    0.0000 C   0  0  0  0  0  0  0  0  0  0  0  0
   -4.9833    2.2583    0.0000 C   0  0  0  0  0  0  0  0  0  0  0  0
   -3.7583    2.1500    0.0000 O   0  0  0  0  0  0  0  0  0  0  0  0
   -3.7583    3.8000    0.0000 O   0  0  0  0  0  0  0  0  0  0  0  0
    1.5667    1.3625    0.0000 O   0  0  0  0  0  0  0  0  0  0  0  0
   -1.2750    2.9833    0.0000 C   0  0  3  0  0  0  0  0  0  0  0  0
   -2.5208    3.6875    0.0000 C   0  0  0  0  0  0  0  0  0  0  0  0
   -2.5208    2.2583    0.0000 C   0  0  0  0  0  0  0  0  0  0  0  0
    2.2917    2.4708    0.0000 C   0  0  0  0  0  0  0  0  0  0  0  0
   -3.3333    2.2708    0.0000 O   0  0  0  0  0  0  0  0  0  0  0  0
   -5.8083    0.8208    0.0000 O   0  0  0  0  0  0  0  0  0  0  0  0
    2.3542    1.1375    0.0000 C   0  0  0  0  0  0  0  0  0  0  0  0
    2.8042    1.8250    0.0000 C   0  0  0  0  0  0  0  0  0  0  0  0
   -1.6875    2.2583    0.0000 C   0  0  0  0  0  0  0  0  0  0  0  0
   -1.6875    3.6875    0.0000 C   0  0  0  0  0  0  0  0  0  0  0  0
   -3.3208    0.8458    0.0000 C   0  0  0  0  0  0  0  0  0  0  0  0
   -4.5458    0.1250    0.0000 C   0  0  0  0  0  0  0  0  0  0  0  0
   -3.7208    0.1333    0.0000 C   0  0  0  0  0  0  0  0  0  0  0  0
  2  3  1  0  0  0  0
  3  7  1  0  0  0  0
  4 13  1  0  0  0  0
  5  6  1  0  0  0  0
  6  7  2  0  0  0  0
  7 17  1  0  0  0  0
  8  1  1  0  0  0  0
  9  1  1  0  0  0  0
 10  4  1  0  0  0  0
 11  4  1  0  0  0  0
 12  2  1  0  0  0  0
 13  9  1  0  0  0  0
 14  1  2  0  0  0  0
 15  1  2  0  0  0  0
 16 12  1  0  0  0  0
 17 25  1  0  0  0  0
 18  8  1  0  0  0  0
 19  8  1  0  0  0  0
 20 12  2  0  0  0  0
 21 10  2  0  0  0  0
 22 11  2  0  0  0  0
 23 16  1  0  0  0  0
 24 20  1  0  0  0  0
 25 19  1  0  0  0  0
 26 18  1  0  0  0  0
 27 10  1  0  0  0  0
 28 11  1  0  0  0  0
 29 28  1  0  0  0  0
 26 17  1  0  0  0  0
 29 27  1  0  0  0  0
  5  2  2  0  0  0  0
 24 23  2  0  0  0  0
M  END
> <IDNUMBER>
F5497-0110

> <Chemical_Name>
1-[2-({4-[5-(furan-2-yl)-1,3,4-thiadiazol-2-yl]piperidin-1-yl}sulfonyl)ethyl]piperidine-2,6-dione

> <CAS>
1105209-37-7

> <PriceCoeff>
1.00

> <MW>
438.52

> <Description>
solid

> <FSP3>
0.56

> <clogP>
1.25

> <TPSA>
150.30

> <Acceptor>
7

> <Donor>
0

> <RotBonds>
6

> <HAC>
29

> <Collection>
General

$$$$
F6237-2966
  -ISIS-  06222321442D

 26 28  0  0  0  0  0  0  0  0999 V2000
   -2.3458    4.3792    0.0000 C   0  0  0  0  0  0  0  0  0  0  0  0
   -2.0208    5.1292    0.0000 N   0  0  0  0  0  0  0  0  0  0  0  0
   -1.1958    5.0542    0.0000 N   0  0  3  0  0  0  0  0  0  0  0  0
   -1.0125    4.2542    0.0000 N   0  0  0  0  0  0  0  0  0  0  0  0
   -1.7250    3.8375    0.0000 N   0  0  0  0  0  0  0  0  0  0  0  0
   -3.1583    4.2042    0.0000 C   0  0  0  0  0  0  0  0  0  0  0  0
    1.2292    7.3167    0.0000 C   0  0  3  0  0  0  0  0  0  0  0  0
   -3.7083    4.8167    0.0000 N   0  0  0  0  0  0  0  0  0  0  0  0
   -4.2708    5.4167    0.0000 C   0  0  0  0  0  0  0  0  0  0  0  0
   -0.5875    5.6250    0.0000 C   0  0  0  0  0  0  0  0  0  0  0  0
   -4.0208    6.2042    0.0000 C   0  0  0  0  0  0  0  0  0  0  0  0
    0.6250    6.7542    0.0000 C   0  0  0  0  0  0  0  0  0  0  0  0
   -5.0708    5.2500    0.0000 C   0  0  0  0  0  0  0  0  0  0  0  0
   -3.4000    3.4250    0.0000 O   0  0  0  0  0  0  0  0  0  0  0  0
    0.2000    5.3792    0.0000 C   0  0  0  0  0  0  0  0  0  0  0  0
   -0.7708    6.4292    0.0000 C   0  0  0  0  0  0  0  0  0  0  0  0
   -0.1625    6.9917    0.0000 C   0  0  0  0  0  0  0  0  0  0  0  0
    0.8042    5.9500    0.0000 C   0  0  0  0  0  0  0  0  0  0  0  0
    0.6667    7.9167    0.0000 F   0  0  0  0  0  0  0  0  0  0  0  0
    1.7917    6.7042    0.0000 F   0  0  0  0  0  0  0  0  0  0  0  0
    1.8292    7.8792    0.0000 F   0  0  0  0  0  0  0  0  0  0  0  0
   -5.6208    5.8542    0.0000 C   0  0  0  0  0  0  0  0  0  0  0  0
   -4.5708    6.8125    0.0000 C   0  0  0  0  0  0  0  0  0  0  0  0
   -5.3708    6.6375    0.0000 C   0  0  0  0  0  0  0  0  0  0  0  0
   -4.3208    7.5917    0.0000 Cl  0  0  0  0  0  0  0  0  0  0  0  0
   -5.3208    4.4667    0.0000 O   0  0  0  0  0  0  0  0  0  0  0  0
  2  1  2  0  0  0  0
  3  2  1  0  0  0  0
  4  5  2  0  0  0  0
  5  1  1  0  0  0  0
  6  1  1  0  0  0  0
  7 12  1  0  0  0  0
  8  6  1  0  0  0  0
  9  8  1  0  0  0  0
 10  3  1  0  0  0  0
 11  9  2  0  0  0  0
 12 17  2  0  0  0  0
 13  9  1  0  0  0  0
 14  6  2  0  0  0  0
 15 10  1  0  0  0  0
 16 10  2  0  0  0  0
 17 16  1  0  0  0  0
 18 15  2  0  0  0  0
 19  7  1  0  0  0  0
 20  7  1  0  0  0  0
 21  7  1  0  0  0  0
 22 13  2  0  0  0  0
 23 11  1  0  0  0  0
 24 22  1  0  0  0  0
 25 23  1  0  0  0  0
 26 13  1  0  0  0  0
  3  4  1  0  0  0  0
 12 18  1  0  0  0  0
 23 24  2  0  0  0  0
M  END
> <IDNUMBER>
F6237-2966

> <Chemical_Name>
N-(5-chloro-2-hydroxyphenyl)-2-[4-(trifluoromethyl)phenyl]-2H-1,2,3,4-tetrazole-5-carboxamide

> <CAS>
1396714-93-4

> <PriceCoeff>
1.00

> <MW>
383.71

> <Description>
solid

> <FSP3>
0.07

> <clogP>
3.55

> <TPSA>
92.93

> <Acceptor>
5

> <Donor>
2

> <RotBonds>
3

> <HAC>
26

> <Collection>
General

$$$$
F2895-0419
  -ISIS-  06222321462D

 29 32  0  0  0  0  0  0  0  0999 V2000
   -1.0583    2.0583    0.0000 C   0  0  0  0  0  0  0  0  0  0  0  0
   -1.3125    1.2750    0.0000 N   0  0  0  0  0  0  0  0  0  0  0  0
    1.8917    0.0833    0.0000 N   0  0  3  0  0  0  0  0  0  0  0  0
   -0.2708    2.3125    0.0000 N   0  0  3  0  0  0  0  0  0  0  0  0
   -1.7125    2.5458    0.0000 S   0  0  0  0  0  0  0  0  0  0  0  0
    1.1292    1.3958    0.0000 C   0  0  0  0  0  0  0  0  0  0  0  0
   -2.1333    1.2750    0.0000 C   0  0  0  0  0  0  0  0  0  0  0  0
   -2.3875    2.0583    0.0000 C   0  0  0  0  0  0  0  0  0  0  0  0
    1.1292    0.5208    0.0000 C   0  0  0  0  0  0  0  0  0  0  0  0
    2.6792    0.4458    0.0000 C   0  0  0  0  0  0  0  0  0  0  0  0
    1.9792   -0.7792    0.0000 C   0  0  0  0  0  0  0  0  0  0  0  0
   -2.6875    0.6708    0.0000 C   0  0  0  0  0  0  0  0  0  0  0  0
   -3.1958    2.2333    0.0000 C   0  0  0  0  0  0  0  0  0  0  0  0
   -0.0958    3.1125    0.0000 C   0  0  0  0  0  0  0  0  0  0  0  0
   -3.7458    1.6208    0.0000 C   0  0  0  0  0  0  0  0  0  0  0  0
    1.7542    1.8000    0.0000 O   0  0  0  0  0  0  0  0  0  0  0  0
   -3.4875    0.8458    0.0000 C   0  0  0  0  0  0  0  0  0  0  0  0
    3.2667   -0.1917    0.0000 C   0  0  0  0  0  0  0  0  0  0  0  0
    2.8417   -0.9542    0.0000 C   0  0  0  0  0  0  0  0  0  0  0  0
    2.8667    1.2958    0.0000 O   0  0  0  0  0  0  0  0  0  0  0  0
    1.3292   -1.3625    0.0000 O   0  0  0  0  0  0  0  0  0  0  0  0
    2.2042    3.0583    0.0000 N   0  0  0  0  0  0  0  0  0  0  0  0
    0.7292    3.3750    0.0000 C   0  0  0  0  0  0  0  0  0  0  0  0
   -4.5625    1.7875    0.0000 Cl  0  0  0  0  0  0  0  0  0  0  0  0
    1.3750    2.7958    0.0000 C   0  0  0  0  0  0  0  0  0  0  0  0
   -2.4458   -0.1292    0.0000 C   0  0  0  0  0  0  0  0  0  0  0  0
    2.3917    3.9083    0.0000 C   0  0  0  0  0  0  0  0  0  0  0  0
    0.9167    4.2167    0.0000 C   0  0  0  0  0  0  0  0  0  0  0  0
    1.7500    4.4792    0.0000 C   0  0  0  0  0  0  0  0  0  0  0  0
  2  1  2  0  0  0  0
  3  9  1  0  0  0  0
  4  1  1  0  0  0  0
  5  1  1  0  0  0  0
  6  4  1  0  0  0  0
  7  2  1  0  0  0  0
  8  5  1  0  0  0  0
  9  6  1  0  0  0  0
 10  3  1  0  0  0  0
 11  3  1  0  0  0  0
 12  7  1  0  0  0  0
 13  8  1  0  0  0  0
 14  4  1  0  0  0  0
 15 13  2  0  0  0  0
 16  6  2  0  0  0  0
 17 12  2  0  0  0  0
 18 10  1  0  0  0  0
 19 11  1  0  0  0  0
 20 10  2  0  0  0  0
 21 11  2  0  0  0  0
 22 25  2  0  0  0  0
 23 14  1  0  0  0  0
 24 15  1  0  0  0  0
 25 23  1  0  0  0  0
 26 12  1  0  0  0  0
 27 29  2  0  0  0  0
 28 23  2  0  0  0  0
 29 28  1  0  0  0  0
  7  8  2  0  0  0  0
 15 17  1  0  0  0  0
 22 27  1  0  0  0  0
 19 18  1  0  0  0  0
M  END
> <IDNUMBER>
F2895-0419

> <Chemical_Name>
N-(6-chloro-4-methyl-1,3-benzothiazol-2-yl)-2-(2,5-dioxopyrrolidin-1-yl)-N-[(pyridin-3-yl)methyl]acetamide

> <CAS>
920174-72-7

> <PriceCoeff>
1.00

> <MW>
428.89

> <Description>
solid

> <FSP3>
0.25

> <clogP>
2.20

> <TPSA>
111.71

> <Acceptor>
5

> <Donor>
1

> <RotBonds>
6

> <HAC>
29

> <Collection>
General

$$$$
F2895-0253
  -ISIS-  06222321442D

 29 32  0  0  0  0  0  0  0  0999 V2000
   -1.0583    2.0583    0.0000 C   0  0  0  0  0  0  0  0  0  0  0  0
   -1.3125    1.2750    0.0000 N   0  0  0  0  0  0  0  0  0  0  0  0
    1.8917    0.0833    0.0000 N   0  0  3  0  0  0  0  0  0  0  0  0
   -0.2708    2.3125    0.0000 N   0  0  3  0  0  0  0  0  0  0  0  0
   -1.7125    2.5458    0.0000 S   0  0  0  0  0  0  0  0  0  0  0  0
    1.1292    1.3958    0.0000 C   0  0  0  0  0  0  0  0  0  0  0  0
   -2.1333    1.2750    0.0000 C   0  0  0  0  0  0  0  0  0  0  0  0
   -2.3875    2.0583    0.0000 C   0  0  0  0  0  0  0  0  0  0  0  0
    1.1292    0.5208    0.0000 C   0  0  0  0  0  0  0  0  0  0  0  0
    2.6792    0.4458    0.0000 C   0  0  0  0  0  0  0  0  0  0  0  0
    1.9792   -0.7792    0.0000 C   0  0  0  0  0  0  0  0  0  0  0  0
   -2.6875    0.6708    0.0000 C   0  0  0  0  0  0  0  0  0  0  0  0
   -3.1958    2.2333    0.0000 C   0  0  0  0  0  0  0  0  0  0  0  0
   -0.0958    3.1125    0.0000 C   0  0  0  0  0  0  0  0  0  0  0  0
   -3.7458    1.6208    0.0000 C   0  0  0  0  0  0  0  0  0  0  0  0
    1.7542    1.8000    0.0000 O   0  0  0  0  0  0  0  0  0  0  0  0
   -3.4875    0.8458    0.0000 C   0  0  0  0  0  0  0  0  0  0  0  0
    3.2667   -0.1917    0.0000 C   0  0  0  0  0  0  0  0  0  0  0  0
    2.8417   -0.9542    0.0000 C   0  0  0  0  0  0  0  0  0  0  0  0
    2.8667    1.2958    0.0000 O   0  0  0  0  0  0  0  0  0  0  0  0
    1.3292   -1.3625    0.0000 O   0  0  0  0  0  0  0  0  0  0  0  0
    1.3750    2.7958    0.0000 N   0  0  0  0  0  0  0  0  0  0  0  0
    0.7292    3.3750    0.0000 C   0  0  0  0  0  0  0  0  0  0  0  0
   -4.5625    1.7875    0.0000 Cl  0  0  0  0  0  0  0  0  0  0  0  0
   -2.4458   -0.1292    0.0000 C   0  0  0  0  0  0  0  0  0  0  0  0
    2.2042    3.0583    0.0000 C   0  0  0  0  0  0  0  0  0  0  0  0
    0.9167    4.2167    0.0000 C   0  0  0  0  0  0  0  0  0  0  0  0
    2.3917    3.9083    0.0000 C   0  0  0  0  0  0  0  0  0  0  0  0
    1.7500    4.4792    0.0000 C   0  0  0  0  0  0  0  0  0  0  0  0
  2  1  2  0  0  0  0
  3  9  1  0  0  0  0
  4  1  1  0  0  0  0
  5  1  1  0  0  0  0
  6  4  1  0  0  0  0
  7  2  1  0  0  0  0
  8  5  1  0  0  0  0
  9  6  1  0  0  0  0
 10  3  1  0  0  0  0
 11  3  1  0  0  0  0
 12  7  1  0  0  0  0
 13  8  1  0  0  0  0
 14  4  1  0  0  0  0
 15 13  2  0  0  0  0
 16  6  2  0  0  0  0
 17 12  2  0  0  0  0
 18 10  1  0  0  0  0
 19 11  1  0  0  0  0
 20 10  2  0  0  0  0
 21 11  2  0  0  0  0
 22 23  1  0  0  0  0
 23 14  1  0  0  0  0
 24 15  1  0  0  0  0
 25 12  1  0  0  0  0
 26 22  2  0  0  0  0
 27 23  2  0  0  0  0
 28 29  2  0  0  0  0
 29 27  1  0  0  0  0
  7  8  2  0  0  0  0
 15 17  1  0  0  0  0
 26 28  1  0  0  0  0
 19 18  1  0  0  0  0
M  END
> <IDNUMBER>
F2895-0253

> <Chemical_Name>
N-(6-chloro-4-methyl-1,3-benzothiazol-2-yl)-2-(2,5-dioxopyrrolidin-1-yl)-N-[(pyridin-2-yl)methyl]acetamide

> <CAS>
920398-57-8

> <PriceCoeff>
1.00

> <MW>
428.89

> <Description>
solid

> <FSP3>
0.25

> <clogP>
2.20

> <TPSA>
111.71

> <Acceptor>
5

> <Donor>
1

> <RotBonds>
6

> <HAC>
29

> <Collection>
General

$$$$
F1757-0030
  -ISIS-  06222321452D

 23 25  0  0  0  0  0  0  0  0999 V2000
    4.7167   -9.2417    0.0000 N   0  0  3  0  0  0  0  0  0  0  0  0
    3.9750   -9.6042    0.0000 N   0  0  0  0  0  0  0  0  0  0  0  0
    4.6042   -8.4292    0.0000 C   0  0  0  0  0  0  0  0  0  0  0  0
    3.7917   -8.2792    0.0000 C   0  0  0  0  0  0  0  0  0  0  0  0
    3.4042   -9.0042    0.0000 C   0  0  0  0  0  0  0  0  0  0  0  0
    5.4500   -9.6417    0.0000 C   0  0  0  0  0  0  0  0  0  0  0  0
    9.0625  -10.8542    0.0000 C   0  0  0  0  0  0  0  0  0  0  0  0
    3.4417   -7.5375    0.0000 Br  0  0  0  0  0  0  0  0  0  0  0  0
    8.3417  -10.4417    0.0000 C   0  0  0  0  0  0  0  0  0  0  0  0
    6.1542   -9.2042    0.0000 C   0  0  3  0  0  0  0  0  0  0  0  0
    9.0625  -11.6750    0.0000 C   0  0  0  0  0  0  0  0  0  0  0  0
    8.3417  -12.0792    0.0000 C   0  0  0  0  0  0  0  0  0  0  0  0
    7.6417  -10.8542    0.0000 C   0  0  0  0  0  0  0  0  0  0  0  0
    6.9125  -10.4417    0.0000 O   0  0  0  0  0  0  0  0  0  0  0  0
    5.2042   -7.8542    0.0000 C   0  0  0  0  0  0  0  0  0  0  0  0
    6.8875   -9.6000    0.0000 C   0  0  0  0  0  0  0  0  0  0  0  0
    2.5875   -9.1167    0.0000 C   0  0  0  0  0  0  0  0  0  0  0  0
    7.6417  -11.6750    0.0000 C   0  0  0  0  0  0  0  0  0  0  0  0
    6.1292   -8.3792    0.0000 O   0  0  0  0  0  0  0  0  0  0  0  0
    9.7750  -10.4417    0.0000 C   0  0  0  0  0  0  0  0  0  0  0  0
    9.7750  -12.0792    0.0000 C   0  0  0  0  0  0  0  0  0  0  0  0
   10.5042  -10.8542    0.0000 C   0  0  0  0  0  0  0  0  0  0  0  0
   10.5042  -11.6750    0.0000 C   0  0  0  0  0  0  0  0  0  0  0  0
  2  1  1  0  0  0  0
  3  1  1  0  0  0  0
  4  3  2  0  0  0  0
  5  2  2  0  0  0  0
  6  1  1  0  0  0  0
  7  9  2  0  0  0  0
  8  4  1  0  0  0  0
  9 13  1  0  0  0  0
 10  6  1  0  0  0  0
 11 12  2  0  0  0  0
 12 18  1  0  0  0  0
 13 14  1  0  0  0  0
 14 16  1  0  0  0  0
 15  3  1  0  0  0  0
 16 10  1  0  0  0  0
 17  5  1  0  0  0  0
 18 13  2  0  0  0  0
 19 10  1  0  0  0  0
 20  7  1  0  0  0  0
 21 11  1  0  0  0  0
 22 20  2  0  0  0  0
 23 21  2  0  0  0  0
  4  5  1  0  0  0  0
 11  7  1  0  0  0  0
 23 22  1  0  0  0  0
M  END
> <IDNUMBER>
F1757-0030

> <Chemical_Name>
1-(4-bromo-3,5-dimethyl-1H-pyrazol-1-yl)-3-(naphthalen-2-yloxy)propan-2-ol

> <CAS>
890643-96-6

> <PriceCoeff>
1.00

> <MW>
375.26

> <Description>
solid

> <FSP3>
0.28

> <clogP>
3.96

> <TPSA>
47.28

> <Acceptor>
3

> <Donor>
1

> <RotBonds>
5

> <HAC>
23

> <Collection>
General

$$$$
F1813-0350
  -ISIS-  06222321452D

 28 31  0  0  0  0  0  0  0  0999 V2000
   -5.9958    3.3958    0.0000 C   0  0  0  0  0  0  0  0  0  0  0  0
   -6.0750    2.5708    0.0000 N   0  0  0  0  0  0  0  0  0  0  0  0
   -1.7250    5.0167    0.0000 N   0  0  3  0  0  0  0  0  0  0  0  0
   -6.8792    2.3958    0.0000 C   0  0  0  0  0  0  0  0  0  0  0  0
   -5.2875    3.8000    0.0000 N   0  0  0  0  0  0  0  0  0  0  0  0
   -7.2917    3.1125    0.0000 C   0  0  0  0  0  0  0  0  0  0  0  0
   -6.7417    3.7208    0.0000 S   0  0  0  0  0  0  0  0  0  0  0  0
   -4.5833    3.3958    0.0000 C   0  0  0  0  0  0  0  0  0  0  0  0
   -0.9625    4.7167    0.0000 C   0  0  0  0  0  0  0  0  0  0  0  0
   -1.6708    5.8417    0.0000 C   0  0  0  0  0  0  0  0  0  0  0  0
   -2.4458    4.6042    0.0000 C   0  0  0  0  0  0  0  0  0  0  0  0
   -7.2792    1.6958    0.0000 C   0  0  0  0  0  0  0  0  0  0  0  0
   -3.8708    3.8000    0.0000 C   0  0  0  0  0  0  0  0  0  0  0  0
   -8.1042    3.1083    0.0000 C   0  0  0  0  0  0  0  0  0  0  0  0
   -4.5833    2.5708    0.0000 O   0  0  0  0  0  0  0  0  0  0  0  0
   -0.8625    6.0417    0.0000 C   0  0  0  0  0  0  0  0  0  0  0  0
   -0.4458    5.3417    0.0000 C   0  0  0  0  0  0  0  0  0  0  0  0
   -2.3083    6.3917    0.0000 O   0  0  0  0  0  0  0  0  0  0  0  0
   -0.7625    3.9250    0.0000 O   0  0  0  0  0  0  0  0  0  0  0  0
   -3.1583    5.0292    0.0000 C   0  0  0  0  0  0  0  0  0  0  0  0
   -2.4500    3.8000    0.0000 C   0  0  0  0  0  0  0  0  0  0  0  0
   -8.1042    1.6958    0.0000 C   0  0  0  0  0  0  0  0  0  0  0  0
   -3.8708    4.6250    0.0000 C   0  0  0  0  0  0  0  0  0  0  0  0
   -3.1625    3.3958    0.0000 C   0  0  0  0  0  0  0  0  0  0  0  0
   -8.5167    2.4083    0.0000 C   0  0  0  0  0  0  0  0  0  0  0  0
   -6.8750    0.9875    0.0000 O   0  0  0  0  0  0  0  0  0  0  0  0
   -8.5042    3.8208    0.0000 C   0  0  0  0  0  0  0  0  0  0  0  0
   -7.1917    0.1458    0.0000 C   0  0  0  0  0  0  0  0  0  0  0  0
  2  1  2  0  0  0  0
  3 11  1  0  0  0  0
  4  2  1  0  0  0  0
  5  1  1  0  0  0  0
  6  7  1  0  0  0  0
  7  1  1  0  0  0  0
  8  5  1  0  0  0  0
  9  3  1  0  0  0  0
 10  3  1  0  0  0  0
 11 21  2  0  0  0  0
 12  4  2  0  0  0  0
 13  8  1  0  0  0  0
 14  6  2  0  0  0  0
 15  8  2  0  0  0  0
 16 10  1  0  0  0  0
 17  9  1  0  0  0  0
 18 10  2  0  0  0  0
 19  9  2  0  0  0  0
 20 23  2  0  0  0  0
 21 24  1  0  0  0  0
 22 12  1  0  0  0  0
 23 13  1  0  0  0  0
 24 13  2  0  0  0  0
 25 14  1  0  0  0  0
 26 12  1  0  0  0  0
 27 14  1  0  0  0  0
 28 26  1  0  0  0  0
  6  4  1  0  0  0  0
 25 22  2  0  0  0  0
 20 11  1  0  0  0  0
 16 17  1  0  0  0  0
M  END
> <IDNUMBER>
F1813-0350

> <Chemical_Name>
4-(2,5-dioxopyrrolidin-1-yl)-N-(4-methoxy-7-methyl-1,3-benzothiazol-2-yl)benzamide

> <CAS>
897759-46-5

> <PriceCoeff>
1.00

> <MW>
395.43

> <Description>
solid

> <FSP3>
0.20

> <clogP>
2.42

> <TPSA>
116.84

> <Acceptor>
5

> <Donor>
1

> <RotBonds>
4

> <HAC>
28

> <Collection>
General

$$$$
F0777-2101
  -ISIS-  06222321142D

 19 21  0  0  0  0  0  0  0  0999 V2000
    0.6542   -0.5792    0.0000 N   0  0  0  0  0  0  0  0  0  0  0  0
   -0.0958   -0.9042    0.0000 C   0  0  0  0  0  0  0  0  0  0  0  0
   -0.0125   -1.7292    0.0000 O   0  0  0  0  0  0  0  0  0  0  0  0
    1.2042   -1.1917    0.0000 N   0  0  0  0  0  0  0  0  0  0  0  0
    0.7917   -1.9042    0.0000 C   0  0  0  0  0  0  0  0  0  0  0  0
   -0.8083   -0.4917    0.0000 C   0  0  0  0  0  0  0  0  0  0  0  0
    1.1292   -2.6542    0.0000 C   0  0  0  0  0  0  0  0  0  0  0  0
    1.9500   -2.7417    0.0000 O   0  0  0  0  0  0  0  0  0  0  0  0
    2.2792   -3.5000    0.0000 C   0  0  0  0  0  0  0  0  0  0  0  0
   -0.8083    0.3333    0.0000 C   0  0  0  0  0  0  0  0  0  0  0  0
   -1.5208   -0.9042    0.0000 C   0  0  0  0  0  0  0  0  0  0  0  0
    1.7917   -4.1625    0.0000 C   0  0  0  0  0  0  0  0  0  0  0  0
    3.1042   -3.5792    0.0000 C   0  0  0  0  0  0  0  0  0  0  0  0
   -2.2333   -0.4917    0.0000 C   0  0  0  0  0  0  0  0  0  0  0  0
   -1.5208    0.7458    0.0000 C   0  0  0  0  0  0  0  0  0  0  0  0
    2.1250   -4.9125    0.0000 C   0  0  0  0  0  0  0  0  0  0  0  0
    3.4292   -4.3375    0.0000 C   0  0  0  0  0  0  0  0  0  0  0  0
    2.9417   -5.0042    0.0000 C   0  0  0  0  0  0  0  0  0  0  0  0
   -2.2333    0.3333    0.0000 C   0  0  0  0  0  0  0  0  0  0  0  0
  2  1  2  0  0  0  0
  3  2  1  0  0  0  0
  4  1  1  0  0  0  0
  5  4  2  0  0  0  0
  6  2  1  0  0  0  0
  7  5  1  0  0  0  0
  8  7  1  0  0  0  0
  9  8  1  0  0  0  0
 10  6  1  0  0  0  0
 11  6  2  0  0  0  0
 12  9  2  0  0  0  0
 13  9  1  0  0  0  0
 14 11  1  0  0  0  0
 15 10  2  0  0  0  0
 16 12  1  0  0  0  0
 17 13  2  0  0  0  0
 18 17  1  0  0  0  0
 19 14  2  0  0  0  0
  3  5  1  0  0  0  0
 15 19  1  0  0  0  0
 16 18  2  0  0  0  0
M  END
> <IDNUMBER>
F0777-2101

> <Chemical_Name>
2-(phenoxymethyl)-5-phenyl-1,3,4-oxadiazole

> <CAS>
325804-03-3

> <PriceCoeff>
1.00

> <MW>
252.27

> <Description>
solid

> <FSP3>
0.07

> <clogP>
2.38

> <TPSA>
48.15

> <Acceptor>
4

> <Donor>
0

> <RotBonds>
4

> <HAC>
19

> <Collection>
General

> <Reference_compound>
CHEMBL2270338

> <Similarity>
0.8230

$$$$
F0852-0174
  -ISIS-  06222321142D

 17 19  0  0  0  0  0  0  0  0999 V2000
    4.5250    1.4000    0.0000 C   0  0  0  0  0  0  0  0  0  0  0  0
    3.6792    2.5708    0.0000 N   0  0  0  0  0  0  0  0  0  0  0  0
    3.6792    0.2833    0.0000 N   0  0  0  0  0  0  0  0  0  0  0  0
    2.3792    2.1500    0.0000 C   0  0  0  0  0  0  0  0  0  0  0  0
    2.3792    0.7000    0.0000 C   0  0  0  0  0  0  0  0  0  0  0  0
    5.9250    1.4000    0.0000 C   0  0  0  0  0  0  0  0  0  0  0  0
    6.6250    0.1875    0.0000 C   0  0  0  0  0  0  0  0  0  0  0  0
    6.6250    2.6208    0.0000 C   0  0  0  0  0  0  0  0  0  0  0  0
    8.7250    1.4000    0.0000 C   0  0  0  0  0  0  0  0  0  0  0  0
    8.0250    2.6208    0.0000 C   0  0  0  0  0  0  0  0  0  0  0  0
    8.0250    0.1875    0.0000 C   0  0  0  0  0  0  0  0  0  0  0  0
   10.1250    1.4000    0.0000 O   0  0  0  0  0  0  0  0  0  0  0  0
    1.1167    2.7583    0.0000 C   0  0  0  0  0  0  0  0  0  0  0  0
    1.1667   -0.0000    0.0000 C   0  0  0  0  0  0  0  0  0  0  0  0
   11.3375    0.7000    0.0000 C   0  0  0  0  0  0  0  0  0  0  0  0
    0.0000    0.7000    0.0000 C   0  0  0  0  0  0  0  0  0  0  0  0
    0.0000    2.1000    0.0000 C   0  0  0  0  0  0  0  0  0  0  0  0
  2  1  2  0  0  0  0
  3  1  1  0  0  0  0
  4  2  1  0  0  0  0
  5  3  1  0  0  0  0
  6  1  1  0  0  0  0
  7  6  2  0  0  0  0
  8  6  1  0  0  0  0
  9 10  1  0  0  0  0
 10  8  2  0  0  0  0
 11  7  1  0  0  0  0
 12  9  1  0  0  0  0
 13  4  2  0  0  0  0
 14  5  2  0  0  0  0
 15 12  1  0  0  0  0
 16 14  1  0  0  0  0
 17 13  1  0  0  0  0
  5  4  1  0  0  0  0
  9 11  2  0  0  0  0
 16 17  2  0  0  0  0
M  END
> <IDNUMBER>
F0852-0174

> <Chemical_Name>
2-(4-methoxyphenyl)-1H-1,3-benzodiazole

> <CAS>
2620-81-7

> <PriceCoeff>
1.00

> <MW>
224.26

> <Description>
solid

> <FSP3>
0.07

> <clogP>
3.68

> <TPSA>
37.91

> <Acceptor>
3

> <Donor>
2

> <RotBonds>
2

> <HAC>
17

> <Collection>
General

> <Reference_compound>
CHEMBL2269948

> <Similarity>
0.8370

$$$$
F2590-0796
  -ISIS-  06222321142D

 24 25  0  0  0  0  0  0  0  0999 V2000
   -3.8500    2.9833    0.0000 C   0  0  0  0  0  0  0  0  0  0  0  0
   -4.5208    2.5000    0.0000 C   0  0  0  0  0  0  0  0  0  0  0  0
   -3.1958    2.4958    0.0000 S   0  0  0  0  0  0  0  0  0  0  0  0
   -3.4583    1.7208    0.0000 C   0  0  0  0  0  0  0  0  0  0  0  0
   -1.7083    4.2125    0.0000 N   0  0  3  0  0  0  0  0  0  0  0  0
   -4.2708    1.7208    0.0000 C   0  0  0  0  0  0  0  0  0  0  0  0
   -3.8500    3.8000    0.0000 N   0  0  0  0  0  0  0  0  0  0  0  0
   -0.9625    3.8833    0.0000 C   0  0  0  0  0  0  0  0  0  0  0  0
   -1.6333    5.0292    0.0000 C   0  0  0  0  0  0  0  0  0  0  0  0
   -2.9833    1.0583    0.0000 C   0  0  0  0  0  0  0  0  0  0  0  0
   -5.3083    2.7708    0.0000 C   0  0  0  0  0  0  0  0  0  0  0  0
   -3.1375    4.2042    0.0000 C   0  0  0  0  0  0  0  0  0  0  0  0
   -2.4208    3.8000    0.0000 C   0  0  0  0  0  0  0  0  0  0  0  0
   -6.0792    3.0250    0.0000 N   0  0  0  0  0  0  0  0  0  0  0  0
   -0.4125    4.4917    0.0000 C   0  0  0  0  0  0  0  0  0  0  0  0
   -0.8333    5.2042    0.0000 C   0  0  0  0  0  0  0  0  0  0  0  0
   -0.7875    3.0833    0.0000 O   0  0  0  0  0  0  0  0  0  0  0  0
   -2.2375    5.5667    0.0000 O   0  0  0  0  0  0  0  0  0  0  0  0
   -2.1583    1.1333    0.0000 O   0  0  0  0  0  0  0  0  0  0  0  0
   -3.1375    5.0167    0.0000 O   0  0  0  0  0  0  0  0  0  0  0  0
   -3.3083    0.3000    0.0000 O   0  0  0  0  0  0  0  0  0  0  0  0
   -4.7583    1.0583    0.0000 C   0  0  0  0  0  0  0  0  0  0  0  0
   -2.6500   -0.1917    0.0000 C   0  0  0  0  0  0  0  0  0  0  0  0
   -2.7458   -1.0042    0.0000 C   0  0  0  0  0  0  0  0  0  0  0  0
  2  1  2  0  0  0  0
  3  1  1  0  0  0  0
  4  3  1  0  0  0  0
  5 13  1  0  0  0  0
  6  2  1  0  0  0  0
  7  1  1  0  0  0  0
  8  5  1  0  0  0  0
  9  5  1  0  0  0  0
 10  4  1  0  0  0  0
 11  2  1  0  0  0  0
 12  7  1  0  0  0  0
 13 12  1  0  0  0  0
 14 11  3  0  0  0  0
 15  8  1  0  0  0  0
 16  9  1  0  0  0  0
 17  8  2  0  0  0  0
 18  9  2  0  0  0  0
 19 10  2  0  0  0  0
 20 12  2  0  0  0  0
 21 10  1  0  0  0  0
 22  6  1  0  0  0  0
 23 21  1  0  0  0  0
 24 23  1  0  0  0  0
  6  4  2  0  0  0  0
 15 16  1  0  0  0  0
M  END
> <IDNUMBER>
F2590-0796

> <Chemical_Name>
ethyl 4-cyano-5-[2-(2,5-dioxopyrrolidin-1-yl)acetamido]-3-methylthiophene-2-carboxylate

> <CAS>
896323-68-5

> <PriceCoeff>
1.00

> <MW>
349.36

> <Description>
solid

> <FSP3>
0.40

> <clogP>
0.95

> <TPSA>
144.81

> <Acceptor>
6

> <Donor>
1

> <RotBonds>
6

> <HAC>
24

> <Collection>
General

$$$$
F2491-0021
  -ISIS-  06222321462D

 21 23  0  0  0  0  0  0  0  0999 V2000
   -4.5833    2.5708    0.0000 C   0  0  0  0  0  0  0  0  0  0  0  0
   -4.6625    1.7583    0.0000 N   0  0  0  0  0  0  0  0  0  0  0  0
   -5.3333    2.9083    0.0000 C   0  0  0  0  0  0  0  0  0  0  0  0
   -5.4708    1.5750    0.0000 N   0  0  0  0  0  0  0  0  0  0  0  0
   -3.8708    2.9833    0.0000 C   0  0  0  0  0  0  0  0  0  0  0  0
   -5.8833    2.2958    0.0000 C   0  0  0  0  0  0  0  0  0  0  0  0
   -3.1583    2.5708    0.0000 N   0  0  0  0  0  0  0  0  0  0  0  0
   -3.8708    3.8000    0.0000 O   0  0  0  0  0  0  0  0  0  0  0  0
   -2.4458    2.9833    0.0000 C   0  0  0  0  0  0  0  0  0  0  0  0
   -2.4333    3.7958    0.0000 C   0  0  0  0  0  0  0  0  0  0  0  0
   -2.4333    5.4375    0.0000 C   0  0  0  0  0  0  0  0  0  0  0  0
   -5.5958    3.6833    0.0000 C   0  0  0  0  0  0  0  0  0  0  0  0
   -3.1500    4.2167    0.0000 C   0  0  0  0  0  0  0  0  0  0  0  0
   -1.7208    4.2000    0.0000 C   0  0  0  0  0  0  0  0  0  0  0  0
   -3.1375    5.0417    0.0000 C   0  0  0  0  0  0  0  0  0  0  0  0
   -1.7208    5.0167    0.0000 C   0  0  0  0  0  0  0  0  0  0  0  0
   -2.4208    6.2625    0.0000 O   0  0  0  0  0  0  0  0  0  0  0  0
   -6.6792    2.4583    0.0000 C   0  0  0  0  0  0  0  0  0  0  0  0
   -1.7083    6.6667    0.0000 C   0  0  0  0  0  0  0  0  0  0  0  0
   -6.3875    3.8458    0.0000 C   0  0  0  0  0  0  0  0  0  0  0  0
   -6.9292    3.2375    0.0000 C   0  0  0  0  0  0  0  0  0  0  0  0
  2  1  2  0  0  0  0
  3  1  1  0  0  0  0
  4  2  1  0  0  0  0
  5  1  1  0  0  0  0
  6  3  1  0  0  0  0
  7  5  1  0  0  0  0
  8  5  2  0  0  0  0
  9  7  1  0  0  0  0
 10  9  1  0  0  0  0
 11 16  2  0  0  0  0
 12  3  2  0  0  0  0
 13 10  1  0  0  0  0
 14 10  2  0  0  0  0
 15 13  2  0  0  0  0
 16 14  1  0  0  0  0
 17 11  1  0  0  0  0
 18  6  2  0  0  0  0
 19 17  1  0  0  0  0
 20 12  1  0  0  0  0
 21 20  2  0  0  0  0
  4  6  1  0  0  0  0
 18 21  1  0  0  0  0
 11 15  1  0  0  0  0
M  END
> <IDNUMBER>
F2491-0021

> <Chemical_Name>
N-[(4-methoxyphenyl)methyl]-1H-indazole-3-carboxamide

> <CAS>
930037-61-9

> <PriceCoeff>
1.00

> <MW>
281.31

> <Description>
solid

> <FSP3>
0.12

> <clogP>
3.10

> <TPSA>
67.01

> <Acceptor>
4

> <Donor>
3

> <RotBonds>
4

> <HAC>
21

> <Collection>
General

> <Reference_compound>
CHEMBL2269991

> <Similarity>
0.8160

$$$$
F1822-0396
  -ISIS-  06222321452D

 28 31  0  0  0  0  0  0  0  0999 V2000
   -5.9708    3.3833    0.0000 C   0  0  0  0  0  0  0  0  0  0  0  0
   -1.7333    3.3958    0.0000 N   0  0  3  0  0  0  0  0  0  0  0  0
   -6.0292    2.5583    0.0000 N   0  0  0  0  0  0  0  0  0  0  0  0
   -5.2708    3.7958    0.0000 N   0  0  0  0  0  0  0  0  0  0  0  0
   -6.7167    3.7208    0.0000 S   0  0  0  0  0  0  0  0  0  0  0  0
   -2.4458    3.8000    0.0000 C   0  0  0  0  0  0  0  0  0  0  0  0
   -4.5833    3.3958    0.0000 C   0  0  0  0  0  0  0  0  0  0  0  0
   -1.6875    2.5708    0.0000 C   0  0  0  0  0  0  0  0  0  0  0  0
   -0.9708    3.6875    0.0000 C   0  0  0  0  0  0  0  0  0  0  0  0
   -7.2667    3.1083    0.0000 C   0  0  0  0  0  0  0  0  0  0  0  0
   -6.8417    2.3833    0.0000 C   0  0  0  0  0  0  0  0  0  0  0  0
   -3.1583    3.3958    0.0000 C   0  0  0  0  0  0  0  0  0  0  0  0
   -3.8708    3.8000    0.0000 C   0  0  0  0  0  0  0  0  0  0  0  0
   -8.1125    3.1083    0.0000 C   0  0  0  0  0  0  0  0  0  0  0  0
   -8.5042    2.3708    0.0000 C   0  0  0  0  0  0  0  0  0  0  0  0
   -4.5833    2.5958    0.0000 O   0  0  0  0  0  0  0  0  0  0  0  0
   -0.4375    3.0583    0.0000 C   0  0  0  0  0  0  0  0  0  0  0  0
   -0.8708    2.3708    0.0000 C   0  0  0  0  0  0  0  0  0  0  0  0
   -0.7583    4.4667    0.0000 O   0  0  0  0  0  0  0  0  0  0  0  0
   -2.3208    2.0458    0.0000 O   0  0  0  0  0  0  0  0  0  0  0  0
   -7.2625    1.6625    0.0000 C   0  0  0  0  0  0  0  0  0  0  0  0
   -8.0917    1.6500    0.0000 C   0  0  0  0  0  0  0  0  0  0  0  0
   -9.3375    2.3750    0.0000 C   0  0  3  0  0  0  0  0  0  0  0  0
   -2.4375    4.6167    0.0000 C   0  0  0  0  0  0  0  0  0  0  0  0
   -3.8708    4.6167    0.0000 C   0  0  0  0  0  0  0  0  0  0  0  0
   -3.1583    5.0292    0.0000 C   0  0  0  0  0  0  0  0  0  0  0  0
   -9.7500    3.0708    0.0000 C   0  0  0  0  0  0  0  0  0  0  0  0
   -9.7417    1.6583    0.0000 C   0  0  0  0  0  0  0  0  0  0  0  0
  2  6  1  0  0  0  0
  3  1  2  0  0  0  0
  4  1  1  0  0  0  0
  5  1  1  0  0  0  0
  6 12  1  0  0  0  0
  7  4  1  0  0  0  0
  8  2  1  0  0  0  0
  9  2  1  0  0  0  0
 10  5  1  0  0  0  0
 11  3  1  0  0  0  0
 12 13  2  0  0  0  0
 13  7  1  0  0  0  0
 14 10  1  0  0  0  0
 15 14  2  0  0  0  0
 16  7  2  0  0  0  0
 17  9  1  0  0  0  0
 18  8  1  0  0  0  0
 19  9  2  0  0  0  0
 20  8  2  0  0  0  0
 21 11  1  0  0  0  0
 22 21  2  0  0  0  0
 23 15  1  0  0  0  0
 24 26  1  0  0  0  0
 25 13  1  0  0  0  0
 26 25  2  0  0  0  0
 27 23  1  0  0  0  0
 28 23  1  0  0  0  0
 10 11  2  0  0  0  0
 22 15  1  0  0  0  0
  6 24  2  0  0  0  0
 18 17  1  0  0  0  0
M  END
> <IDNUMBER>
F1822-0396

> <Chemical_Name>
3-(2,5-dioxopyrrolidin-1-yl)-N-[6-(propan-2-yl)-1,3-benzothiazol-2-yl]benzamide

> <CAS>
892843-13-9

> <PriceCoeff>
1.00

> <MW>
393.46

> <Description>
solid

> <FSP3>
0.24

> <clogP>
3.05

> <TPSA>
107.61

> <Acceptor>
4

> <Donor>
1

> <RotBonds>
4

> <HAC>
28

> <Collection>
General

$$$$
F2368-0950
  -ISIS-  06222321462D

 29 32  0  0  0  0  0  0  0  0999 V2000
    1.9667    4.9917    0.0000 N   0  0  3  0  0  0  0  0  0  0  0  0
   -1.7375    3.0208    0.0000 C   0  0  0  0  0  0  0  0  0  0  0  0
   -2.4083    2.5333    0.0000 O   0  0  0  0  0  0  0  0  0  0  0  0
   -0.9583    2.7583    0.0000 N   0  0  0  0  0  0  0  0  0  0  0  0
   -1.9958    3.8000    0.0000 N   0  0  0  0  0  0  0  0  0  0  0  0
   -2.8208    3.8000    0.0000 N   0  0  0  0  0  0  0  0  0  0  0  0
    1.1417    4.9042    0.0000 C   0  0  0  0  0  0  0  0  0  0  0  0
   -0.3375    3.3083    0.0000 C   0  0  0  0  0  0  0  0  0  0  0  0
   -3.0750    3.0208    0.0000 C   0  0  0  0  0  0  0  0  0  0  0  0
    2.4917    4.3417    0.0000 C   0  0  0  0  0  0  0  0  0  0  0  0
    2.4042    5.6875    0.0000 C   0  0  0  0  0  0  0  0  0  0  0  0
    0.8042    4.1417    0.0000 C   0  0  0  0  0  0  0  0  0  0  0  0
   -0.0083    4.0542    0.0000 C   0  0  0  0  0  0  0  0  0  0  0  0
   -1.1708    3.2333    0.0000 O   0  0  0  0  0  0  0  0  0  0  0  0
    3.2750    4.6667    0.0000 C   0  0  0  0  0  0  0  0  0  0  0  0
    3.2125    5.4917    0.0000 C   0  0  0  0  0  0  0  0  0  0  0  0
    2.2917    3.5583    0.0000 O   0  0  0  0  0  0  0  0  0  0  0  0
    2.1125    6.4542    0.0000 O   0  0  0  0  0  0  0  0  0  0  0  0
   -3.8583    2.7583    0.0000 C   0  0  0  0  0  0  0  0  0  0  0  0
   -4.0333    1.9583    0.0000 C   0  0  0  0  0  0  0  0  0  0  0  0
    0.6667    5.5667    0.0000 C   0  0  0  0  0  0  0  0  0  0  0  0
   -4.3708    0.3375    0.0000 C   0  0  0  0  0  0  0  0  0  0  0  0
   -4.8208    1.6958    0.0000 C   0  0  0  0  0  0  0  0  0  0  0  0
   -3.4208    1.3958    0.0000 C   0  0  0  0  0  0  0  0  0  0  0  0
   -4.9833    0.8875    0.0000 C   0  0  0  0  0  0  0  0  0  0  0  0
   -3.5875    0.5958    0.0000 C   0  0  0  0  0  0  0  0  0  0  0  0
   -0.5000    4.7167    0.0000 C   0  0  0  0  0  0  0  0  0  0  0  0
   -0.1625    5.4792    0.0000 C   0  0  0  0  0  0  0  0  0  0  0  0
   -4.5458   -0.4667    0.0000 C   0  0  0  0  0  0  0  0  0  0  0  0
  2  4  1  0  0  0  0
  3  2  1  0  0  0  0
  4  8  1  0  0  0  0
  5  2  2  0  0  0  0
  6  5  1  0  0  0  0
  7  1  1  0  0  0  0
  8 13  1  0  0  0  0
  9  3  1  0  0  0  0
 10  1  1  0  0  0  0
 11  1  1  0  0  0  0
 12  7  1  0  0  0  0
 13 12  2  0  0  0  0
 14  8  2  0  0  0  0
 15 10  1  0  0  0  0
 16 11  1  0  0  0  0
 17 10  2  0  0  0  0
 18 11  2  0  0  0  0
 19  9  1  0  0  0  0
 20 19  1  0  0  0  0
 21  7  2  0  0  0  0
 22 26  1  0  0  0  0
 23 20  2  0  0  0  0
 24 20  1  0  0  0  0
 25 23  1  0  0  0  0
 26 24  2  0  0  0  0
 27 28  2  0  0  0  0
 28 21  1  0  0  0  0
 29 22  1  0  0  0  0
 16 15  1  0  0  0  0
 13 27  1  0  0  0  0
  9  6  2  0  0  0  0
 22 25  2  0  0  0  0
M  END
> <IDNUMBER>
F2368-0950

> <Chemical_Name>
3-(2,5-dioxopyrrolidin-1-yl)-N-{5-[(4-methylphenyl)methyl]-1,3,4-oxadiazol-2-yl}benzamide

> <CAS>
1170885-20-7

> <PriceCoeff>
1.00

> <MW>
390.39

> <Description>
solid

> <FSP3>
0.19

> <clogP>
1.05

> <TPSA>
105.40

> <Acceptor>
6

> <Donor>
1

> <RotBonds>
5

> <HAC>
29

> <Collection>
General

$$$$
F1374-0894
  -ISIS-  06222321442D

 27 30  0  0  0  0  0  0  0  0999 V2000
    0.4042   -0.1792    0.0000 N   0  0  3  0  0  0  0  0  0  0  0  0
   -2.4583    3.0208    0.0000 C   0  0  0  0  0  0  0  0  0  0  0  0
   -3.1250    2.5333    0.0000 O   0  0  0  0  0  0  0  0  0  0  0  0
   -3.5375    3.8000    0.0000 N   0  0  0  0  0  0  0  0  0  0  0  0
   -3.7958    3.0208    0.0000 C   0  0  0  0  0  0  0  0  0  0  0  0
   -1.6750    2.7583    0.0000 N   0  0  0  0  0  0  0  0  0  0  0  0
   -2.7125    3.8000    0.0000 N   0  0  0  0  0  0  0  0  0  0  0  0
    0.2292    0.6333    0.0000 C   0  0  0  0  0  0  0  0  0  0  0  0
   -1.5083    1.9583    0.0000 C   0  0  0  0  0  0  0  0  0  0  0  0
    1.1417   -0.5375    0.0000 C   0  0  0  0  0  0  0  0  0  0  0  0
   -0.1833   -0.7542    0.0000 C   0  0  0  0  0  0  0  0  0  0  0  0
   -0.5458    0.8875    0.0000 C   0  0  0  0  0  0  0  0  0  0  0  0
   -0.7208    1.6958    0.0000 C   0  0  0  0  0  0  0  0  0  0  0  0
   -4.5833    2.7583    0.0000 C   0  0  0  0  0  0  0  0  0  0  0  0
   -2.1208    1.4000    0.0000 O   0  0  0  0  0  0  0  0  0  0  0  0
    1.0292   -1.3542    0.0000 C   0  0  0  0  0  0  0  0  0  0  0  0
    0.2167   -1.4917    0.0000 C   0  0  0  0  0  0  0  0  0  0  0  0
    1.8750   -0.1667    0.0000 O   0  0  0  0  0  0  0  0  0  0  0  0
   -0.9875   -0.6375    0.0000 O   0  0  0  0  0  0  0  0  0  0  0  0
    0.8542    1.1833    0.0000 C   0  0  0  0  0  0  0  0  0  0  0  0
   -0.1000    2.2458    0.0000 C   0  0  0  0  0  0  0  0  0  0  0  0
    0.6792    1.9958    0.0000 C   0  0  0  0  0  0  0  0  0  0  0  0
   -5.2083    3.3125    0.0000 C   0  0  0  0  0  0  0  0  0  0  0  0
   -4.7583    1.9583    0.0000 C   0  0  0  0  0  0  0  0  0  0  0  0
   -5.9833    3.0500    0.0000 C   0  0  0  0  0  0  0  0  0  0  0  0
   -5.5458    1.6958    0.0000 C   0  0  0  0  0  0  0  0  0  0  0  0
   -6.1417    2.2500    0.0000 C   0  0  0  0  0  0  0  0  0  0  0  0
  2  6  1  0  0  0  0
  3  2  1  0  0  0  0
  4  7  1  0  0  0  0
  5  3  1  0  0  0  0
  6  9  1  0  0  0  0
  7  2  2  0  0  0  0
  8  1  1  0  0  0  0
  9 13  1  0  0  0  0
 10  1  1  0  0  0  0
 11  1  1  0  0  0  0
 12  8  1  0  0  0  0
 13 12  2  0  0  0  0
 14  5  1  0  0  0  0
 15  9  2  0  0  0  0
 16 10  1  0  0  0  0
 17 11  1  0  0  0  0
 18 10  2  0  0  0  0
 19 11  2  0  0  0  0
 20  8  2  0  0  0  0
 21 22  2  0  0  0  0
 22 20  1  0  0  0  0
 23 14  2  0  0  0  0
 24 14  1  0  0  0  0
 25 23  1  0  0  0  0
 26 24  2  0  0  0  0
 27 26  1  0  0  0  0
 16 17  1  0  0  0  0
 13 21  1  0  0  0  0
  5  4  2  0  0  0  0
 27 25  2  0  0  0  0
M  END
> <IDNUMBER>
F1374-0894

> <Chemical_Name>
3-(2,5-dioxopyrrolidin-1-yl)-N-(5-phenyl-1,3,4-oxadiazol-2-yl)benzamide

> <CAS>
865287-49-6

> <PriceCoeff>
1.00

> <MW>
362.34

> <Description>
solid

> <FSP3>
0.11

> <clogP>
0.58

> <TPSA>
105.40

> <Acceptor>
6

> <Donor>
1

> <RotBonds>
4

> <HAC>
27

> <Collection>
General

$$$$
F1813-0476
  -ISIS-  06222321442D

 27 30  0  0  0  0  0  0  0  0999 V2000
   -6.0000    3.3958    0.0000 C   0  0  0  0  0  0  0  0  0  0  0  0
   -1.7333    3.3958    0.0000 N   0  0  3  0  0  0  0  0  0  0  0  0
   -6.0792    2.5625    0.0000 N   0  0  0  0  0  0  0  0  0  0  0  0
   -6.8917    2.3958    0.0000 C   0  0  0  0  0  0  0  0  0  0  0  0
   -5.2958    3.8083    0.0000 N   0  0  0  0  0  0  0  0  0  0  0  0
   -6.7542    3.7333    0.0000 S   0  0  0  0  0  0  0  0  0  0  0  0
   -2.4458    3.8000    0.0000 C   0  0  0  0  0  0  0  0  0  0  0  0
   -4.5833    3.3958    0.0000 C   0  0  0  0  0  0  0  0  0  0  0  0
   -7.3042    3.1083    0.0000 C   0  0  0  0  0  0  0  0  0  0  0  0
   -7.3042    1.6833    0.0000 C   0  0  0  0  0  0  0  0  0  0  0  0
   -0.9708    3.6875    0.0000 C   0  0  0  0  0  0  0  0  0  0  0  0
   -1.6875    2.5708    0.0000 C   0  0  0  0  0  0  0  0  0  0  0  0
   -3.1583    3.3958    0.0000 C   0  0  0  0  0  0  0  0  0  0  0  0
   -3.8708    3.8000    0.0000 C   0  0  0  0  0  0  0  0  0  0  0  0
   -8.1292    1.6833    0.0000 C   0  0  0  0  0  0  0  0  0  0  0  0
   -4.5833    2.5708    0.0000 O   0  0  0  0  0  0  0  0  0  0  0  0
   -0.4375    3.0583    0.0000 C   0  0  0  0  0  0  0  0  0  0  0  0
   -0.8708    2.3708    0.0000 C   0  0  0  0  0  0  0  0  0  0  0  0
   -0.7583    4.4667    0.0000 O   0  0  0  0  0  0  0  0  0  0  0  0
   -2.3208    2.0458    0.0000 O   0  0  0  0  0  0  0  0  0  0  0  0
   -8.1292    3.1083    0.0000 C   0  0  0  0  0  0  0  0  0  0  0  0
   -8.5292    2.3958    0.0000 C   0  0  0  0  0  0  0  0  0  0  0  0
   -8.5292    0.9708    0.0000 Cl  0  0  0  0  0  0  0  0  0  0  0  0
   -2.4375    4.6167    0.0000 C   0  0  0  0  0  0  0  0  0  0  0  0
   -6.8917    0.9708    0.0000 C   0  0  0  0  0  0  0  0  0  0  0  0
   -3.8708    4.6167    0.0000 C   0  0  0  0  0  0  0  0  0  0  0  0
   -3.1583    5.0292    0.0000 C   0  0  0  0  0  0  0  0  0  0  0  0
  2  7  1  0  0  0  0
  3  1  2  0  0  0  0
  4  3  1  0  0  0  0
  5  1  1  0  0  0  0
  6  1  1  0  0  0  0
  7 13  1  0  0  0  0
  8  5  1  0  0  0  0
  9  6  1  0  0  0  0
 10  4  2  0  0  0  0
 11  2  1  0  0  0  0
 12  2  1  0  0  0  0
 13 14  2  0  0  0  0
 14  8  1  0  0  0  0
 15 10  1  0  0  0  0
 16  8  2  0  0  0  0
 17 11  1  0  0  0  0
 18 12  1  0  0  0  0
 19 11  2  0  0  0  0
 20 12  2  0  0  0  0
 21  9  2  0  0  0  0
 22 21  1  0  0  0  0
 23 15  1  0  0  0  0
 24 27  1  0  0  0  0
 25 10  1  0  0  0  0
 26 14  1  0  0  0  0
 27 26  2  0  0  0  0
  9  4  1  0  0  0  0
 22 15  2  0  0  0  0
  7 24  2  0  0  0  0
 17 18  1  0  0  0  0
M  END
> <IDNUMBER>
F1813-0476

> <Chemical_Name>
N-(5-chloro-4-methyl-1,3-benzothiazol-2-yl)-3-(2,5-dioxopyrrolidin-1-yl)benzamide

> <CAS>
897759-50-1

> <PriceCoeff>
1.00

> <MW>
399.85

> <Description>
solid

> <FSP3>
0.16

> <clogP>
2.84

> <TPSA>
107.61

> <Acceptor>
4

> <Donor>
1

> <RotBonds>
3

> <HAC>
27

> <Collection>
General

$$$$
F1786-0014
  -ISIS-  06222321452D

 23 24  0  0  0  0  0  0  0  0999 V2000
    5.8500   -2.2500    0.0000 S   0  0  3  0  0  0  0  0  0  0  0  0
    5.0250   -2.2792    0.0000 C   0  0  0  0  0  0  0  0  0  0  0  0
    6.6750   -2.2500    0.0000 N   0  0  3  0  0  0  0  0  0  0  0  0
    4.5875   -1.5875    0.0000 C   0  0  0  0  0  0  0  0  0  0  0  0
    8.3167   -2.2500    0.0000 N   0  0  3  0  0  0  0  0  0  0  0  0
    9.1417   -2.2500    0.0000 C   0  0  0  0  0  0  0  0  0  0  0  0
    3.7542   -1.6167    0.0000 C   0  0  0  0  0  0  0  0  0  0  0  0
    4.6417   -3.0167    0.0000 C   0  0  0  0  0  0  0  0  0  0  0  0
    5.8292   -1.4250    0.0000 O   0  0  0  0  0  0  0  0  0  0  0  0
    5.8667   -3.0750    0.0000 O   0  0  0  0  0  0  0  0  0  0  0  0
    7.0792   -1.5292    0.0000 C   0  0  0  0  0  0  0  0  0  0  0  0
    7.0792   -2.9625    0.0000 C   0  0  0  0  0  0  0  0  0  0  0  0
    3.3750   -2.3500    0.0000 C   0  0  0  0  0  0  0  0  0  0  0  0
    3.8167   -3.0500    0.0000 C   0  0  0  0  0  0  0  0  0  0  0  0
    7.9042   -2.9625    0.0000 C   0  0  0  0  0  0  0  0  0  0  0  0
    7.9042   -1.5375    0.0000 C   0  0  0  0  0  0  0  0  0  0  0  0
    9.5542   -2.9667    0.0000 O   0  0  0  0  0  0  0  0  0  0  0  0
    4.9667   -0.8542    0.0000 O   0  0  0  0  0  0  0  0  0  0  0  0
    3.3167   -0.9167    0.0000 Cl  0  0  0  0  0  0  0  0  0  0  0  0
    9.5542   -1.5375    0.0000 O   0  0  0  0  0  0  0  0  0  0  0  0
    3.4292   -3.7792    0.0000 Cl  0  0  0  0  0  0  0  0  0  0  0  0
   10.3792   -1.5375    0.0000 C   0  0  0  0  0  0  0  0  0  0  0  0
   10.7917   -0.8250    0.0000 C   0  0  0  0  0  0  0  0  0  0  0  0
  2  1  1  0  0  0  0
  3  1  1  0  0  0  0
  4  2  1  0  0  0  0
  5 15  1  0  0  0  0
  6  5  1  0  0  0  0
  7  4  2  0  0  0  0
  8  2  2  0  0  0  0
  9  1  2  0  0  0  0
 10  1  2  0  0  0  0
 11  3  1  0  0  0  0
 12  3  1  0  0  0  0
 13 14  2  0  0  0  0
 14  8  1  0  0  0  0
 15 12  1  0  0  0  0
 16 11  1  0  0  0  0
 17  6  2  0  0  0  0
 18  4  1  0  0  0  0
 19  7  1  0  0  0  0
 20  6  1  0  0  0  0
 21 14  1  0  0  0  0
 22 20  1  0  0  0  0
 23 22  1  0  0  0  0
 16  5  1  0  0  0  0
  7 13  1  0  0  0  0
M  END
> <IDNUMBER>
F1786-0014

> <Chemical_Name>
ethyl 4-(3,5-dichloro-2-hydroxybenzenesulfonyl)piperazine-1-carboxylate

> <CAS>
853751-14-1

> <PriceCoeff>
1.00

> <MW>
383.25

> <Description>
solid

> <FSP3>
0.46

> <clogP>
3.90

> <TPSA>
95.53

> <Acceptor>
5

> <Donor>
1

> <RotBonds>
5

> <HAC>
23

> <Collection>
General

$$$$
F0739-0014
  -ISIS-  06222321142D

 32 35  0  0  0  0  0  0  0  0999 V2000
   -3.1708   -0.5792    0.0000 C   0  0  0  0  0  0  0  0  0  0  0  0
   -2.8958   -1.4167    0.0000 C   0  0  0  0  0  0  0  0  0  0  0  0
   -1.7125   -0.1167    0.0000 N   0  0  3  0  0  0  0  0  0  0  0  0
   -1.4500   -0.9375    0.0000 C   0  0  0  0  0  0  0  0  0  0  0  0
   -2.0333   -1.6000    0.0000 N   0  0  0  0  0  0  0  0  0  0  0  0
   -2.5708    0.0833    0.0000 C   0  0  0  0  0  0  0  0  0  0  0  0
   -3.6125   -1.9375    0.0000 S   0  0  0  0  0  0  0  0  0  0  0  0
   -4.0500   -0.5542    0.0000 C   0  0  0  0  0  0  0  0  0  0  0  0
   -4.3125   -1.4000    0.0000 C   0  0  0  0  0  0  0  0  0  0  0  0
   -0.5500   -1.1167    0.0000 S   0  0  0  0  0  0  0  0  0  0  0  0
   -1.1125    0.5208    0.0000 C   0  0  0  0  0  0  0  0  0  0  0  0
   -2.8333    0.9458    0.0000 O   0  0  0  0  0  0  0  0  0  0  0  0
    4.3042    1.1625    0.0000 N   0  0  3  0  0  0  0  0  0  0  0  0
    0.8875   -0.6000    0.0000 C   0  0  0  0  0  0  0  0  0  0  0  0
    1.1875   -1.4375    0.0000 O   0  0  0  0  0  0  0  0  0  0  0  0
    0.0292   -0.4375    0.0000 C   0  0  0  0  0  0  0  0  0  0  0  0
    5.4042    2.5208    0.0000 O   0  0  0  0  0  0  0  0  0  0  0  0
    1.4500    0.0625    0.0000 N   0  0  0  0  0  0  0  0  0  0  0  0
   -4.5958    0.1625    0.0000 C   0  0  0  0  0  0  0  0  0  0  0  0
   -5.1708   -1.6792    0.0000 C   0  0  0  0  0  0  0  0  0  0  0  0
    3.7500    0.4625    0.0000 C   0  0  0  0  0  0  0  0  0  0  0  0
    2.8667    0.6000    0.0000 C   0  0  0  0  0  0  0  0  0  0  0  0
    3.9875    1.9833    0.0000 C   0  0  0  0  0  0  0  0  0  0  0  0
    5.1667    1.0208    0.0000 C   0  0  0  0  0  0  0  0  0  0  0  0
    2.3042   -0.0792    0.0000 C   0  0  0  0  0  0  0  0  0  0  0  0
    4.5292    2.6625    0.0000 C   0  0  0  0  0  0  0  0  0  0  0  0
    5.7292    1.7208    0.0000 C   0  0  0  0  0  0  0  0  0  0  0  0
   -0.2500    0.3458    0.0000 C   0  0  0  0  0  0  0  0  0  0  0  0
   -1.3708    1.3625    0.0000 C   0  0  0  0  0  0  0  0  0  0  0  0
   -0.7708    2.0208    0.0000 C   0  0  0  0  0  0  0  0  0  0  0  0
    0.3292    1.0000    0.0000 C   0  0  0  0  0  0  0  0  0  0  0  0
    0.0500    1.8458    0.0000 C   0  0  0  0  0  0  0  0  0  0  0  0
  2  1  2  0  0  0  0
  3  6  1  0  0  0  0
  4  3  1  0  0  0  0
  5  2  1  0  0  0  0
  6  1  1  0  0  0  0
  7  2  1  0  0  0  0
  8  1  1  0  0  0  0
  9  8  2  0  0  0  0
 10  4  1  0  0  0  0
 11  3  1  0  0  0  0
 12  6  2  0  0  0  0
 13 21  1  0  0  0  0
 14 16  1  0  0  0  0
 15 14  2  0  0  0  0
 16 10  1  0  0  0  0
 17 27  1  0  0  0  0
 18 14  1  0  0  0  0
 19  8  1  0  0  0  0
 20  9  1  0  0  0  0
 21 22  1  0  0  0  0
 22 25  1  0  0  0  0
 23 13  1  0  0  0  0
 24 13  1  0  0  0  0
 25 18  1  0  0  0  0
 26 23  1  0  0  0  0
 27 24  1  0  0  0  0
 28 11  2  0  0  0  0
 29 11  1  0  0  0  0
 30 29  2  0  0  0  0
 31 28  1  0  0  0  0
 32 30  1  0  0  0  0
  7  9  1  0  0  0  0
  5  4  2  0  0  0  0
 31 32  2  0  0  0  0
 26 17  1  0  0  0  0
M  END
> <IDNUMBER>
F0739-0014

> <Chemical_Name>
2-({5,6-dimethyl-4-oxo-3-phenyl-3H,4H-thieno[2,3-d]pyrimidin-2-yl}sulfanyl)-N-[3-(morpholin-4-yl)propyl]acetamide

> <CAS>
325693-68-3

> <PriceCoeff>
1.00

> <MW>
472.62

> <Description>
solid

> <FSP3>
0.43

> <clogP>
3.81

> <TPSA>
127.78

> <Acceptor>
4

> <Donor>
2

> <RotBonds>
8

> <HAC>
32

> <Collection>
General

> <Reference_compound>
CHEMBL577016

> <Similarity>
0.8140

$$$$
F0703-0001
  -ISIS-  06222321442D

 14 14  0  0  0  0  0  0  0  0999 V2000
   -0.4500    1.7125    0.0000 C   0  0  0  0  0  0  0  0  0  0  0  0
   -1.2125    2.1500    0.0000 C   0  0  0  0  0  0  0  0  0  0  0  0
   -1.9708    1.7125    0.0000 C   0  0  0  0  0  0  0  0  0  0  0  0
   -0.4500    0.8333    0.0000 C   0  0  0  0  0  0  0  0  0  0  0  0
   -1.2125    0.3958    0.0000 C   0  0  0  0  0  0  0  0  0  0  0  0
   -1.9708    0.8333    0.0000 C   0  0  0  0  0  0  0  0  0  0  0  0
   -2.7333    2.1708    0.0000 N   0  0  0  0  0  0  0  0  0  0  0  0
   -3.4958    1.7333    0.0000 C   0  0  0  0  0  0  0  0  0  0  0  0
    0.3292    2.1708    0.0000 Cl  0  0  0  0  0  0  0  0  0  0  0  0
   -4.2500    2.1708    0.0000 O   0  0  0  0  0  0  0  0  0  0  0  0
   -1.2125    3.0333    0.0000 Cl  0  0  0  0  0  0  0  0  0  0  0  0
    0.3292    0.3958    0.0000 O   0  0  0  0  0  0  0  0  0  0  0  0
   -1.2125   -0.4875    0.0000 Cl  0  0  0  0  0  0  0  0  0  0  0  0
   -3.4958    0.8500    0.0000 C   0  0  0  0  0  0  0  0  0  0  0  0
  2  1  1  0  0  0  0
  3  2  2  0  0  0  0
  4  1  2  0  0  0  0
  5  4  1  0  0  0  0
  6  5  2  0  0  0  0
  7  3  1  0  0  0  0
  8  7  1  0  0  0  0
  9  1  1  0  0  0  0
 10  8  2  0  0  0  0
 11  2  1  0  0  0  0
 12  4  1  0  0  0  0
 13  5  1  0  0  0  0
 14  8  1  0  0  0  0
  6  3  1  0  0  0  0
M  END
> <IDNUMBER>
F0703-0001

> <Chemical_Name>
N-(2,3,5-trichloro-4-hydroxyphenyl)acetamide

> <CAS>
307553-56-6

> <PriceCoeff>
1.00

> <MW>
254.50

> <Description>
solid

> <FSP3>
0.12

> <clogP>
1.67

> <TPSA>
49.33

> <Acceptor>
2

> <Donor>
2

> <RotBonds>
1

> <HAC>
14

> <Collection>
General

$$$$
F0778-0280
  -ISIS-  06222321452D

 32 36  0  0  0  0  0  0  0  0999 V2000
   -3.2375    2.4958    0.0000 C   0  0  0  0  0  0  0  0  0  0  0  0
   -3.9083    2.9833    0.0000 N   0  0  3  0  0  0  0  0  0  0  0  0
   -4.5833    2.4958    0.0000 N   0  0  0  0  0  0  0  0  0  0  0  0
   -3.4958    1.7000    0.0000 C   0  0  0  0  0  0  0  0  0  0  0  0
   -2.4583    2.7458    0.0000 N   0  0  0  0  0  0  0  0  0  0  0  0
   -4.3333    1.7000    0.0000 C   0  0  0  0  0  0  0  0  0  0  0  0
    1.2875    3.2333    0.0000 N   0  0  3  0  0  0  0  0  0  0  0  0
   -3.9083    3.8000    0.0000 C   0  0  0  0  0  0  0  0  0  0  0  0
   -1.8458    2.1958    0.0000 C   0  0  0  0  0  0  0  0  0  0  0  0
    1.9542    2.7958    0.0000 C   0  0  0  0  0  0  0  0  0  0  0  0
    1.5625    4.0000    0.0000 C   0  0  0  0  0  0  0  0  0  0  0  0
   -4.6333    4.2167    0.0000 C   0  0  0  0  0  0  0  0  0  0  0  0
    0.5000    2.9833    0.0000 C   0  0  0  0  0  0  0  0  0  0  0  0
   -3.1958    4.2042    0.0000 C   0  0  0  0  0  0  0  0  0  0  0  0
   -3.9083    0.4250    0.0000 S   0  0  0  0  0  0  0  0  0  0  0  0
   -1.0583    2.4458    0.0000 C   0  0  0  0  0  0  0  0  0  0  0  0
   -2.0125    1.3875    0.0000 O   0  0  0  0  0  0  0  0  0  0  0  0
    2.3750    4.0042    0.0000 C   0  0  0  0  0  0  0  0  0  0  0  0
    2.6042    3.2375    0.0000 C   0  0  0  0  0  0  0  0  0  0  0  0
   -4.6208    5.0417    0.0000 C   0  0  0  0  0  0  0  0  0  0  0  0
    1.9875    1.8958    0.0000 O   0  0  0  0  0  0  0  0  0  0  0  0
    1.0667    4.7125    0.0000 O   0  0  0  0  0  0  0  0  0  0  0  0
   -3.2375    0.9125    0.0000 C   0  0  0  0  0  0  0  0  0  0  0  0
    0.3292    2.1583    0.0000 C   0  0  0  0  0  0  0  0  0  0  0  0
   -0.1083    3.5250    0.0000 C   0  0  0  0  0  0  0  0  0  0  0  0
   -0.4458    1.8958    0.0000 C   0  0  0  0  0  0  0  0  0  0  0  0
   -0.8833    3.2708    0.0000 C   0  0  0  0  0  0  0  0  0  0  0  0
   -4.5833    0.9125    0.0000 C   0  0  0  0  0  0  0  0  0  0  0  0
   -3.1875    5.0292    0.0000 C   0  0  0  0  0  0  0  0  0  0  0  0
   -3.8958    5.4542    0.0000 C   0  0  0  0  0  0  0  0  0  0  0  0
   -5.3458    3.7958    0.0000 C   0  0  0  0  0  0  0  0  0  0  0  0
   -3.8958    6.2792    0.0000 C   0  0  0  0  0  0  0  0  0  0  0  0
  2  1  1  0  0  0  0
  3  2  1  0  0  0  0
  4  1  2  0  0  0  0
  5  1  1  0  0  0  0
  6  4  1  0  0  0  0
  7 13  1  0  0  0  0
  8  2  1  0  0  0  0
  9  5  1  0  0  0  0
 10  7  1  0  0  0  0
 11  7  1  0  0  0  0
 12  8  1  0  0  0  0
 13 25  2  0  0  0  0
 14  8  2  0  0  0  0
 15 23  1  0  0  0  0
 16  9  1  0  0  0  0
 17  9  2  0  0  0  0
 18 11  1  0  0  0  0
 19 10  1  0  0  0  0
 20 12  2  0  0  0  0
 21 10  2  0  0  0  0
 22 11  2  0  0  0  0
 23  4  1  0  0  0  0
 24 26  2  0  0  0  0
 25 27  1  0  0  0  0
 26 16  1  0  0  0  0
 27 16  2  0  0  0  0
 28  6  1  0  0  0  0
 29 14  1  0  0  0  0
 30 29  2  0  0  0  0
 31 12  1  0  0  0  0
 32 30  1  0  0  0  0
  6  3  2  0  0  0  0
 15 28  1  0  0  0  0
 13 24  1  0  0  0  0
 20 30  1  0  0  0  0
 18 19  1  0  0  0  0
M  END
> <IDNUMBER>
F0778-0280

> <Chemical_Name>
N-[2-(2,4-dimethylphenyl)-2H,4H,6H-thieno[3,4-c]pyrazol-3-yl]-4-(2,5-dioxopyrrolidin-1-yl)benzamide

> <CAS>
396722-72-8

> <PriceCoeff>
1.00

> <MW>
446.52

> <Description>
solid

> <FSP3>
0.25

> <clogP>
2.21

> <TPSA>
109.60

> <Acceptor>
4

> <Donor>
1

> <RotBonds>
4

> <HAC>
32

> <Collection>
General

$$$$
F1620-0030
  -ISIS-  06222321452D

 28 31  0  0  0  0  0  0  0  0999 V2000
    0.5750   -0.4375    0.0000 C   0  0  0  0  0  0  0  0  0  0  0  0
    0.8292    0.3500    0.0000 C   0  0  0  0  0  0  0  0  0  0  0  0
   -0.2500   -0.4375    0.0000 O   0  0  0  0  0  0  0  0  0  0  0  0
    5.2417    1.3833    0.0000 N   0  0  3  0  0  0  0  0  0  0  0  0
    1.6125    0.6083    0.0000 N   0  0  0  0  0  0  0  0  0  0  0  0
    0.1625    0.8333    0.0000 C   0  0  0  0  0  0  0  0  0  0  0  0
    2.2292    0.0500    0.0000 C   0  0  0  0  0  0  0  0  0  0  0  0
    5.9542    0.9708    0.0000 C   0  0  0  0  0  0  0  0  0  0  0  0
    5.4167    2.1875    0.0000 C   0  0  0  0  0  0  0  0  0  0  0  0
   -0.5083    0.3500    0.0000 C   0  0  0  0  0  0  0  0  0  0  0  0
    1.0542   -1.1042    0.0000 C   0  0  0  0  0  0  0  0  0  0  0  0
    4.4917    1.0500    0.0000 C   0  0  0  0  0  0  0  0  0  0  0  0
    2.9792    0.3833    0.0000 C   0  0  0  0  0  0  0  0  0  0  0  0
    2.2250   -0.7750    0.0000 O   0  0  0  0  0  0  0  0  0  0  0  0
    6.2375    2.2750    0.0000 C   0  0  0  0  0  0  0  0  0  0  0  0
    6.5667    1.5208    0.0000 C   0  0  0  0  0  0  0  0  0  0  0  0
    6.0417    0.1458    0.0000 O   0  0  0  0  0  0  0  0  0  0  0  0
    4.8625    2.8000    0.0000 O   0  0  0  0  0  0  0  0  0  0  0  0
    0.7167   -1.8542    0.0000 O   0  0  0  0  0  0  0  0  0  0  0  0
    3.8167    1.5375    0.0000 C   0  0  0  0  0  0  0  0  0  0  0  0
    4.4000    0.2333    0.0000 C   0  0  0  0  0  0  0  0  0  0  0  0
    3.0667    1.2000    0.0000 C   0  0  0  0  0  0  0  0  0  0  0  0
    3.6417   -0.1042    0.0000 C   0  0  0  0  0  0  0  0  0  0  0  0
    1.8667   -1.2167    0.0000 N   0  0  0  0  0  0  0  0  0  0  0  0
    0.0750    1.6500    0.0000 C   0  0  0  0  0  0  0  0  0  0  0  0
   -1.2583    0.6833    0.0000 C   0  0  0  0  0  0  0  0  0  0  0  0
   -0.6833    1.9833    0.0000 C   0  0  0  0  0  0  0  0  0  0  0  0
   -1.3458    1.4958    0.0000 C   0  0  0  0  0  0  0  0  0  0  0  0
  2  1  2  0  0  0  0
  3  1  1  0  0  0  0
  4 12  1  0  0  0  0
  5  2  1  0  0  0  0
  6  2  1  0  0  0  0
  7  5  1  0  0  0  0
  8  4  1  0  0  0  0
  9  4  1  0  0  0  0
 10  3  1  0  0  0  0
 11  1  1  0  0  0  0
 12 21  2  0  0  0  0
 13  7  1  0  0  0  0
 14  7  2  0  0  0  0
 15  9  1  0  0  0  0
 16  8  1  0  0  0  0
 17  8  2  0  0  0  0
 18  9  2  0  0  0  0
 19 11  2  0  0  0  0
 20 22  2  0  0  0  0
 21 23  1  0  0  0  0
 22 13  1  0  0  0  0
 23 13  2  0  0  0  0
 24 11  1  0  0  0  0
 25  6  1  0  0  0  0
 26 10  1  0  0  0  0
 27 25  2  0  0  0  0
 28 26  2  0  0  0  0
  6 10  2  0  0  0  0
 28 27  1  0  0  0  0
 12 20  1  0  0  0  0
 15 16  1  0  0  0  0
M  END
> <IDNUMBER>
F1620-0030

> <Chemical_Name>
3-[4-(2,5-dioxopyrrolidin-1-yl)benzamido]-1-benzofuran-2-carboxamide

> <CAS>
867041-56-3

> <PriceCoeff>
1.00

> <MW>
377.35

> <Description>
solid

> <FSP3>
0.10

> <clogP>
0.46

> <TPSA>
122.71

> <Acceptor>
5

> <Donor>
2

> <RotBonds>
4

> <HAC>
28

> <Collection>
General

$$$$
F3350-0558
  -ISIS-  06222321462D

 28 30  0  0  0  0  0  0  0  0999 V2000
    5.0375   -3.1417    0.0000 S   0  0  3  0  0  0  0  0  0  0  0  0
    7.8792   -4.7917    0.0000 N   0  0  3  0  0  0  0  0  0  0  0  0
    7.9667   -5.6167    0.0000 C   0  0  0  0  0  0  0  0  0  0  0  0
    8.6375   -4.4625    0.0000 C   0  0  0  0  0  0  0  0  0  0  0  0
    4.3250   -2.7375    0.0000 N   0  0  0  0  0  0  0  0  0  0  0  0
    5.7500   -3.5542    0.0000 C   0  0  0  0  0  0  0  0  0  0  0  0
    1.4292   -1.1292    0.0000 C   0  0  0  0  0  0  0  0  0  0  0  0
    7.1667   -4.3792    0.0000 C   0  0  0  0  0  0  0  0  0  0  0  0
    5.4500   -2.4375    0.0000 O   0  0  0  0  0  0  0  0  0  0  0  0
    4.6250   -3.8625    0.0000 O   0  0  0  0  0  0  0  0  0  0  0  0
    2.1542   -1.5292    0.0000 C   0  0  0  0  0  0  0  0  0  0  0  0
    9.1875   -5.0792    0.0000 C   0  0  0  0  0  0  0  0  0  0  0  0
    8.7750   -5.7917    0.0000 C   0  0  0  0  0  0  0  0  0  0  0  0
    7.3542   -6.1667    0.0000 O   0  0  0  0  0  0  0  0  0  0  0  0
    8.8167   -3.6542    0.0000 O   0  0  0  0  0  0  0  0  0  0  0  0
    0.7250   -1.5542    0.0000 O   0  0  0  0  0  0  0  0  0  0  0  0
    5.7500   -4.3792    0.0000 C   0  0  0  0  0  0  0  0  0  0  0  0
    6.4542   -3.1500    0.0000 C   0  0  0  0  0  0  0  0  0  0  0  0
    6.4625   -4.7875    0.0000 C   0  0  0  0  0  0  0  0  0  0  0  0
    7.1667   -3.5625    0.0000 C   0  0  0  0  0  0  0  0  0  0  0  0
    3.6042   -2.3375    0.0000 C   0  0  0  0  0  0  0  0  0  0  0  0
    2.1667   -2.3542    0.0000 C   0  0  0  0  0  0  0  0  0  0  0  0
    2.8667   -1.1125    0.0000 C   0  0  0  0  0  0  0  0  0  0  0  0
    1.4167   -0.3042    0.0000 O   0  0  0  0  0  0  0  0  0  0  0  0
    2.8917   -2.7625    0.0000 C   0  0  0  0  0  0  0  0  0  0  0  0
    3.5917   -1.5167    0.0000 C   0  0  0  0  0  0  0  0  0  0  0  0
    2.1250    0.1208    0.0000 C   0  0  0  0  0  0  0  0  0  0  0  0
    2.1125    0.9458    0.0000 C   0  0  0  0  0  0  0  0  0  0  0  0
  2  8  1  0  0  0  0
  3  2  1  0  0  0  0
  4  2  1  0  0  0  0
  5  1  1  0  0  0  0
  6  1  1  0  0  0  0
  7 11  1  0  0  0  0
  8 20  1  0  0  0  0
  9  1  2  0  0  0  0
 10  1  2  0  0  0  0
 11 23  1  0  0  0  0
 12  4  1  0  0  0  0
 13  3  1  0  0  0  0
 14  3  2  0  0  0  0
 15  4  2  0  0  0  0
 16  7  2  0  0  0  0
 17  6  2  0  0  0  0
 18  6  1  0  0  0  0
 19 17  1  0  0  0  0
 20 18  2  0  0  0  0
 21  5  1  0  0  0  0
 22 25  1  0  0  0  0
 23 26  2  0  0  0  0
 24  7  1  0  0  0  0
 25 21  2  0  0  0  0
 26 21  1  0  0  0  0
 27 24  1  0  0  0  0
 28 27  1  0  0  0  0
  8 19  2  0  0  0  0
 11 22  2  0  0  0  0
 12 13  1  0  0  0  0
M  END
> <IDNUMBER>
F3350-0558

> <Chemical_Name>
ethyl 4-[4-(2,5-dioxopyrrolidin-1-yl)benzenesulfonamido]benzoate

> <CAS>
919693-35-9

> <PriceCoeff>
1.00

> <MW>
402.42

> <Description>
solid

> <FSP3>
0.21

> <clogP>
1.61

> <TPSA>
118.23

> <Acceptor>
7

> <Donor>
1

> <RotBonds>
7

> <HAC>
28

> <Collection>
General

$$$$
F1813-0477
  -ISIS-  06222321442D

 27 30  0  0  0  0  0  0  0  0999 V2000
   -6.0000    3.3958    0.0000 C   0  0  0  0  0  0  0  0  0  0  0  0
   -1.7333    3.3958    0.0000 N   0  0  3  0  0  0  0  0  0  0  0  0
   -6.0875    2.5625    0.0000 N   0  0  0  0  0  0  0  0  0  0  0  0
   -5.2958    3.8000    0.0000 N   0  0  0  0  0  0  0  0  0  0  0  0
   -6.7542    3.7333    0.0000 S   0  0  0  0  0  0  0  0  0  0  0  0
   -7.3042    3.1083    0.0000 C   0  0  0  0  0  0  0  0  0  0  0  0
   -6.8917    2.3958    0.0000 C   0  0  0  0  0  0  0  0  0  0  0  0
   -2.4458    3.8000    0.0000 C   0  0  0  0  0  0  0  0  0  0  0  0
   -4.5833    3.3958    0.0000 C   0  0  0  0  0  0  0  0  0  0  0  0
   -1.6875    2.5708    0.0000 C   0  0  0  0  0  0  0  0  0  0  0  0
   -0.9708    3.6875    0.0000 C   0  0  0  0  0  0  0  0  0  0  0  0
   -7.3042    1.6833    0.0000 C   0  0  0  0  0  0  0  0  0  0  0  0
   -8.1292    3.1083    0.0000 C   0  0  0  0  0  0  0  0  0  0  0  0
   -3.1583    3.3958    0.0000 C   0  0  0  0  0  0  0  0  0  0  0  0
   -3.8708    3.8000    0.0000 C   0  0  0  0  0  0  0  0  0  0  0  0
   -8.5417    2.3958    0.0000 C   0  0  0  0  0  0  0  0  0  0  0  0
   -8.1292    1.6833    0.0000 C   0  0  0  0  0  0  0  0  0  0  0  0
   -4.5833    2.5708    0.0000 O   0  0  0  0  0  0  0  0  0  0  0  0
   -0.4375    3.0583    0.0000 C   0  0  0  0  0  0  0  0  0  0  0  0
   -0.8708    2.3708    0.0000 C   0  0  0  0  0  0  0  0  0  0  0  0
   -0.7583    4.4667    0.0000 O   0  0  0  0  0  0  0  0  0  0  0  0
   -2.3208    2.0458    0.0000 O   0  0  0  0  0  0  0  0  0  0  0  0
   -9.3625    2.3958    0.0000 Cl  0  0  0  0  0  0  0  0  0  0  0  0
   -2.4375    4.6167    0.0000 C   0  0  0  0  0  0  0  0  0  0  0  0
   -6.8917    0.9708    0.0000 C   0  0  0  0  0  0  0  0  0  0  0  0
   -3.8708    4.6167    0.0000 C   0  0  0  0  0  0  0  0  0  0  0  0
   -3.1583    5.0292    0.0000 C   0  0  0  0  0  0  0  0  0  0  0  0
  2  8  1  0  0  0  0
  3  1  2  0  0  0  0
  4  1  1  0  0  0  0
  5  1  1  0  0  0  0
  6  5  1  0  0  0  0
  7  3  1  0  0  0  0
  8 14  1  0  0  0  0
  9  4  1  0  0  0  0
 10  2  1  0  0  0  0
 11  2  1  0  0  0  0
 12  7  2  0  0  0  0
 13  6  2  0  0  0  0
 14 15  2  0  0  0  0
 15  9  1  0  0  0  0
 16 13  1  0  0  0  0
 17 12  1  0  0  0  0
 18  9  2  0  0  0  0
 19 11  1  0  0  0  0
 20 10  1  0  0  0  0
 21 11  2  0  0  0  0
 22 10  2  0  0  0  0
 23 16  1  0  0  0  0
 24 27  1  0  0  0  0
 25 12  1  0  0  0  0
 26 15  1  0  0  0  0
 27 26  2  0  0  0  0
  6  7  1  0  0  0  0
 16 17  2  0  0  0  0
  8 24  2  0  0  0  0
 19 20  1  0  0  0  0
M  END
> <IDNUMBER>
F1813-0477

> <Chemical_Name>
N-(6-chloro-4-methyl-1,3-benzothiazol-2-yl)-3-(2,5-dioxopyrrolidin-1-yl)benzamide

> <CAS>
897618-05-2

> <PriceCoeff>
1.00

> <MW>
399.85

> <Description>
solid

> <FSP3>
0.16

> <clogP>
2.84

> <TPSA>
107.61

> <Acceptor>
4

> <Donor>
1

> <RotBonds>
3

> <HAC>
27

> <Collection>
General

$$$$
F1108-0022
  -ISIS-  06222321452D

 20 22  0  0  0  0  0  0  0  0999 V2000
   -2.7583   -1.0917    0.0000 C   0  0  0  0  0  0  0  0  0  0  0  0
   -2.8625   -2.4292    0.0000 N   0  0  0  0  0  0  0  0  0  0  0  0
   -2.3250   -1.7917    0.0000 C   0  0  0  0  0  0  0  0  0  0  0  0
   -3.5708   -1.2875    0.0000 C   0  0  0  0  0  0  0  0  0  0  0  0
   -1.6333   -0.2167    0.0000 C   0  0  0  0  0  0  0  0  0  0  0  0
   -2.4458   -0.3250    0.0000 C   0  0  0  0  0  0  0  0  0  0  0  0
   -3.6333   -2.1125    0.0000 C   0  0  0  0  0  0  0  0  0  0  0  0
   -1.1208   -0.8667    0.0000 N   0  0  0  0  0  0  0  0  0  0  0  0
   -1.3125    0.5458    0.0000 O   0  0  0  0  0  0  0  0  0  0  0  0
   -0.3083   -0.7542    0.0000 C   0  0  0  0  0  0  0  0  0  0  0  0
    0.2042   -1.4042    0.0000 C   0  0  0  0  0  0  0  0  0  0  0  0
   -4.2458   -0.8167    0.0000 C   0  0  0  0  0  0  0  0  0  0  0  0
   -4.3708   -2.4667    0.0000 C   0  0  0  0  0  0  0  0  0  0  0  0
    1.0167   -1.2917    0.0000 C   0  0  0  0  0  0  0  0  0  0  0  0
   -0.1083   -2.1667    0.0000 C   0  0  0  0  0  0  0  0  0  0  0  0
   -4.9875   -1.1792    0.0000 C   0  0  0  0  0  0  0  0  0  0  0  0
   -5.0500   -2.0042    0.0000 C   0  0  0  0  0  0  0  0  0  0  0  0
    1.5292   -1.9417    0.0000 C   0  0  0  0  0  0  0  0  0  0  0  0
    0.4000   -2.8167    0.0000 C   0  0  0  0  0  0  0  0  0  0  0  0
    1.2167   -2.7042    0.0000 C   0  0  0  0  0  0  0  0  0  0  0  0
  2  3  1  0  0  0  0
  3  1  2  0  0  0  0
  4  1  1  0  0  0  0
  5  6  1  0  0  0  0
  6  1  1  0  0  0  0
  7  4  2  0  0  0  0
  8  5  1  0  0  0  0
  9  5  2  0  0  0  0
 10  8  1  0  0  0  0
 11 10  1  0  0  0  0
 12  4  1  0  0  0  0
 13  7  1  0  0  0  0
 14 11  2  0  0  0  0
 15 11  1  0  0  0  0
 16 12  2  0  0  0  0
 17 16  1  0  0  0  0
 18 14  1  0  0  0  0
 19 15  2  0  0  0  0
 20 19  1  0  0  0  0
  7  2  1  0  0  0  0
 17 13  2  0  0  0  0
 20 18  2  0  0  0  0
M  END
> <IDNUMBER>
F1108-0022

> <Chemical_Name>
N-benzyl-2-(1H-indol-3-yl)acetamide

> <CAS>
73031-14-8

> <PriceCoeff>
1.00

> <MW>
264.32

> <Description>
solid

> <FSP3>
0.12

> <clogP>
2.71

> <TPSA>
44.89

> <Acceptor>
1

> <Donor>
2

> <RotBonds>
4

> <HAC>
20

> <Collection>
General

> <Reference_compound>
CHEMBL33171

> <Similarity>
0.8420

$$$$
F0326-0686
  -ISIS-  06222321142D

 28 31  0  0  0  0  0  0  0  0999 V2000
   -3.2500   -0.8042    0.0000 S   0  0  0  0  0  0  0  0  0  0  0  0
   -2.5208   -0.2667    0.0000 C   0  0  0  0  0  0  0  0  0  0  0  0
   -3.9958   -0.2792    0.0000 C   0  0  0  0  0  0  0  0  0  0  0  0
    2.4542   -0.4375    0.0000 N   0  0  3  0  0  0  0  0  0  0  0  0
   -3.7333    0.5625    0.0000 N   0  0  0  0  0  0  0  0  0  0  0  0
   -1.6625   -0.4375    0.0000 N   0  0  0  0  0  0  0  0  0  0  0  0
   -2.8500    0.5625    0.0000 N   0  0  0  0  0  0  0  0  0  0  0  0
   -1.0708    0.2500    0.0000 C   0  0  0  0  0  0  0  0  0  0  0  0
    3.1000    0.1833    0.0000 C   0  0  0  0  0  0  0  0  0  0  0  0
    2.8375   -1.2500    0.0000 C   0  0  0  0  0  0  0  0  0  0  0  0
   -4.8458   -0.5375    0.0000 C   0  0  0  0  0  0  0  0  0  0  0  0
    1.5792   -0.2792    0.0000 C   0  0  0  0  0  0  0  0  0  0  0  0
   -0.1958    0.0833    0.0000 C   0  0  0  0  0  0  0  0  0  0  0  0
   -1.3708    1.1208    0.0000 O   0  0  0  0  0  0  0  0  0  0  0  0
    3.8875   -0.2375    0.0000 C   0  0  0  0  0  0  0  0  0  0  0  0
    3.7292   -1.1375    0.0000 C   0  0  0  0  0  0  0  0  0  0  0  0
    2.9375    1.0708    0.0000 O   0  0  0  0  0  0  0  0  0  0  0  0
    2.3792   -2.0375    0.0000 O   0  0  0  0  0  0  0  0  0  0  0  0
   -5.5000    0.0708    0.0000 C   0  0  0  0  0  0  0  0  0  0  0  0
    0.9792   -0.9542    0.0000 C   0  0  0  0  0  0  0  0  0  0  0  0
    1.2875    0.5708    0.0000 C   0  0  0  0  0  0  0  0  0  0  0  0
    0.0875   -0.7792    0.0000 C   0  0  0  0  0  0  0  0  0  0  0  0
    0.4042    0.7625    0.0000 C   0  0  0  0  0  0  0  0  0  0  0  0
   -5.0458   -1.4167    0.0000 C   0  0  0  0  0  0  0  0  0  0  0  0
   -5.3000    0.9458    0.0000 C   0  0  0  0  0  0  0  0  0  0  0  0
   -6.3667   -0.2000    0.0000 C   0  0  0  0  0  0  0  0  0  0  0  0
   -5.9083   -1.6792    0.0000 C   0  0  0  0  0  0  0  0  0  0  0  0
   -6.5542   -1.0542    0.0000 C   0  0  0  0  0  0  0  0  0  0  0  0
  2  1  1  0  0  0  0
  3  1  1  0  0  0  0
  4 12  1  0  0  0  0
  5  3  2  0  0  0  0
  6  2  1  0  0  0  0
  7  2  2  0  0  0  0
  8  6  1  0  0  0  0
  9  4  1  0  0  0  0
 10  4  1  0  0  0  0
 11  3  1  0  0  0  0
 12 21  1  0  0  0  0
 13  8  1  0  0  0  0
 14  8  2  0  0  0  0
 15  9  1  0  0  0  0
 16 10  1  0  0  0  0
 17  9  2  0  0  0  0
 18 10  2  0  0  0  0
 19 11  2  0  0  0  0
 20 22  1  0  0  0  0
 21 23  2  0  0  0  0
 22 13  2  0  0  0  0
 23 13  1  0  0  0  0
 24 11  1  0  0  0  0
 25 19  1  0  0  0  0
 26 19  1  0  0  0  0
 27 24  2  0  0  0  0
 28 27  1  0  0  0  0
  5  7  1  0  0  0  0
 28 26  2  0  0  0  0
 12 20  2  0  0  0  0
 16 15  1  0  0  0  0
M  END
> <IDNUMBER>
F0326-0686

> <Chemical_Name>
4-(2,5-dioxopyrrolidin-1-yl)-N-[5-(2-methylphenyl)-1,3,4-thiadiazol-2-yl]benzamide

> <CAS>
392243-49-1

> <PriceCoeff>
1.00

> <MW>
392.43

> <Description>
solid

> <FSP3>
0.15

> <clogP>
1.61

> <TPSA>
120.50

> <Acceptor>
5

> <Donor>
1

> <RotBonds>
4

> <HAC>
28

> <Collection>
General

$$$$
F0326-0655
  -ISIS-  06222321452D

 27 30  0  0  0  0  0  0  0  0999 V2000
   -3.2500   -0.8042    0.0000 S   0  0  0  0  0  0  0  0  0  0  0  0
   -2.5208   -0.2667    0.0000 C   0  0  0  0  0  0  0  0  0  0  0  0
    2.4542   -0.4375    0.0000 N   0  0  3  0  0  0  0  0  0  0  0  0
   -3.9958   -0.2792    0.0000 C   0  0  0  0  0  0  0  0  0  0  0  0
   -3.7333    0.5625    0.0000 N   0  0  0  0  0  0  0  0  0  0  0  0
   -1.6625   -0.4375    0.0000 N   0  0  0  0  0  0  0  0  0  0  0  0
   -2.8500    0.5625    0.0000 N   0  0  0  0  0  0  0  0  0  0  0  0
   -1.0708    0.2500    0.0000 C   0  0  0  0  0  0  0  0  0  0  0  0
    3.1000    0.1833    0.0000 C   0  0  0  0  0  0  0  0  0  0  0  0
    2.8375   -1.2500    0.0000 C   0  0  0  0  0  0  0  0  0  0  0  0
    1.5792   -0.2792    0.0000 C   0  0  0  0  0  0  0  0  0  0  0  0
   -0.1958    0.0833    0.0000 C   0  0  0  0  0  0  0  0  0  0  0  0
   -4.8458   -0.5375    0.0000 C   0  0  0  0  0  0  0  0  0  0  0  0
   -1.3708    1.1208    0.0000 O   0  0  0  0  0  0  0  0  0  0  0  0
    3.8875   -0.2375    0.0000 C   0  0  0  0  0  0  0  0  0  0  0  0
    3.7292   -1.1375    0.0000 C   0  0  0  0  0  0  0  0  0  0  0  0
    2.9375    1.0708    0.0000 O   0  0  0  0  0  0  0  0  0  0  0  0
    2.3792   -2.0375    0.0000 O   0  0  0  0  0  0  0  0  0  0  0  0
    1.2875    0.5708    0.0000 C   0  0  0  0  0  0  0  0  0  0  0  0
    0.9792   -0.9542    0.0000 C   0  0  0  0  0  0  0  0  0  0  0  0
    0.4042    0.7625    0.0000 C   0  0  0  0  0  0  0  0  0  0  0  0
    0.0875   -0.7792    0.0000 C   0  0  0  0  0  0  0  0  0  0  0  0
   -5.5000    0.0708    0.0000 C   0  0  0  0  0  0  0  0  0  0  0  0
   -5.0458   -1.4167    0.0000 C   0  0  0  0  0  0  0  0  0  0  0  0
   -5.9083   -1.6792    0.0000 C   0  0  0  0  0  0  0  0  0  0  0  0
   -6.3667   -0.2000    0.0000 C   0  0  0  0  0  0  0  0  0  0  0  0
   -6.5542   -1.0542    0.0000 C   0  0  0  0  0  0  0  0  0  0  0  0
  2  1  1  0  0  0  0
  3 11  1  0  0  0  0
  4  1  1  0  0  0  0
  5  4  2  0  0  0  0
  6  2  1  0  0  0  0
  7  2  2  0  0  0  0
  8  6  1  0  0  0  0
  9  3  1  0  0  0  0
 10  3  1  0  0  0  0
 11 20  2  0  0  0  0
 12  8  1  0  0  0  0
 13  4  1  0  0  0  0
 14  8  2  0  0  0  0
 15  9  1  0  0  0  0
 16 10  1  0  0  0  0
 17  9  2  0  0  0  0
 18 10  2  0  0  0  0
 19 21  2  0  0  0  0
 20 22  1  0  0  0  0
 21 12  1  0  0  0  0
 22 12  2  0  0  0  0
 23 13  2  0  0  0  0
 24 13  1  0  0  0  0
 25 24  2  0  0  0  0
 26 23  1  0  0  0  0
 27 25  1  0  0  0  0
  7  5  1  0  0  0  0
 26 27  2  0  0  0  0
 11 19  1  0  0  0  0
 15 16  1  0  0  0  0
M  END
> <IDNUMBER>
F0326-0655

> <Chemical_Name>
4-(2,5-dioxopyrrolidin-1-yl)-N-(5-phenyl-1,3,4-thiadiazol-2-yl)benzamide

> <CAS>
392243-29-7

> <PriceCoeff>
1.00

> <MW>
378.40

> <Description>
solid

> <FSP3>
0.11

> <clogP>
1.41

> <TPSA>
120.50

> <Acceptor>
5

> <Donor>
1

> <RotBonds>
4

> <HAC>
27

> <Collection>
General

$$$$
F2738-2549
  -ISIS-  06222321152D

 29 32  0  0  0  0  0  0  0  0999 V2000
   -3.1583    3.3958    0.0000 C   0  0  0  0  0  0  0  0  0  0  0  0
   -2.4083    3.7333    0.0000 N   0  0  0  0  0  0  0  0  0  0  0  0
   -6.0042    3.3958    0.0000 N   0  0  3  0  0  0  0  0  0  0  0  0
   -3.8708    3.8000    0.0000 N   0  0  3  0  0  0  0  0  0  0  0  0
   -3.0708    2.5833    0.0000 S   0  0  0  0  0  0  0  0  0  0  0  0
   -1.8583    3.1250    0.0000 C   0  0  0  0  0  0  0  0  0  0  0  0
   -4.5833    3.3958    0.0000 C   0  0  0  0  0  0  0  0  0  0  0  0
   -5.3083    3.8083    0.0000 C   0  0  0  0  0  0  0  0  0  0  0  0
   -2.2583    2.4083    0.0000 C   0  0  0  0  0  0  0  0  0  0  0  0
   -6.7542    3.7333    0.0000 C   0  0  0  0  0  0  0  0  0  0  0  0
   -6.0792    2.5708    0.0000 C   0  0  0  0  0  0  0  0  0  0  0  0
   -1.0250    3.1250    0.0000 C   0  0  0  0  0  0  0  0  0  0  0  0
   -3.8708    4.6042    0.0000 C   0  0  0  0  0  0  0  0  0  0  0  0
   -4.5833    2.5708    0.0000 O   0  0  0  0  0  0  0  0  0  0  0  0
   -0.6250    2.4125    0.0000 C   0  0  0  0  0  0  0  0  0  0  0  0
   -7.3042    3.1083    0.0000 C   0  0  0  0  0  0  0  0  0  0  0  0
   -6.8917    2.3958    0.0000 C   0  0  0  0  0  0  0  0  0  0  0  0
   -6.9292    4.5125    0.0000 O   0  0  0  0  0  0  0  0  0  0  0  0
   -5.4833    2.0250    0.0000 O   0  0  0  0  0  0  0  0  0  0  0  0
   -2.4500    4.6042    0.0000 N   0  0  0  0  0  0  0  0  0  0  0  0
   -1.8458    1.6958    0.0000 C   0  0  0  0  0  0  0  0  0  0  0  0
   -1.0208    1.6958    0.0000 C   0  0  0  0  0  0  0  0  0  0  0  0
   -3.1625    5.0167    0.0000 C   0  0  0  0  0  0  0  0  0  0  0  0
   -0.6208    3.8333    0.0000 C   0  0  0  0  0  0  0  0  0  0  0  0
   -1.7458    5.0250    0.0000 C   0  0  0  0  0  0  0  0  0  0  0  0
    0.2042    2.4125    0.0000 C   0  0  0  0  0  0  0  0  0  0  0  0
   -3.1625    5.8417    0.0000 C   0  0  0  0  0  0  0  0  0  0  0  0
   -1.7458    5.8417    0.0000 C   0  0  0  0  0  0  0  0  0  0  0  0
   -2.4583    6.2542    0.0000 C   0  0  0  0  0  0  0  0  0  0  0  0
  2  1  2  0  0  0  0
  3  8  1  0  0  0  0
  4  1  1  0  0  0  0
  5  1  1  0  0  0  0
  6  2  1  0  0  0  0
  7  4  1  0  0  0  0
  8  7  1  0  0  0  0
  9  5  1  0  0  0  0
 10  3  1  0  0  0  0
 11  3  1  0  0  0  0
 12  6  1  0  0  0  0
 13  4  1  0  0  0  0
 14  7  2  0  0  0  0
 15 12  2  0  0  0  0
 16 10  1  0  0  0  0
 17 11  1  0  0  0  0
 18 10  2  0  0  0  0
 19 11  2  0  0  0  0
 20 23  2  0  0  0  0
 21  9  1  0  0  0  0
 22 21  2  0  0  0  0
 23 13  1  0  0  0  0
 24 12  1  0  0  0  0
 25 20  1  0  0  0  0
 26 15  1  0  0  0  0
 27 23  1  0  0  0  0
 28 29  1  0  0  0  0
 29 27  2  0  0  0  0
  9  6  2  0  0  0  0
 15 22  1  0  0  0  0
 28 25  2  0  0  0  0
 16 17  1  0  0  0  0
M  END
> <IDNUMBER>
F2738-2549

> <Chemical_Name>
N-(4,5-dimethyl-1,3-benzothiazol-2-yl)-2-(2,5-dioxopyrrolidin-1-yl)-N-[(pyridin-2-yl)methyl]acetamide

> <CAS>
922870-81-3

> <PriceCoeff>
1.00

> <MW>
408.47

> <Description>
solid

> <FSP3>
0.29

> <clogP>
1.91

> <TPSA>
111.71

> <Acceptor>
5

> <Donor>
1

> <RotBonds>
6

> <HAC>
29

> <Collection>
General

$$$$
F2738-0218
  -ISIS-  06222321442D

 29 32  0  0  0  0  0  0  0  0999 V2000
   -3.1583    3.3958    0.0000 C   0  0  0  0  0  0  0  0  0  0  0  0
   -2.4083    3.7333    0.0000 N   0  0  0  0  0  0  0  0  0  0  0  0
   -6.0042    3.3958    0.0000 N   0  0  3  0  0  0  0  0  0  0  0  0
   -3.8708    3.8000    0.0000 N   0  0  3  0  0  0  0  0  0  0  0  0
   -3.0750    2.5833    0.0000 S   0  0  0  0  0  0  0  0  0  0  0  0
   -4.5833    3.3958    0.0000 C   0  0  0  0  0  0  0  0  0  0  0  0
   -1.8583    3.1250    0.0000 C   0  0  0  0  0  0  0  0  0  0  0  0
   -5.3083    3.8083    0.0000 C   0  0  0  0  0  0  0  0  0  0  0  0
   -6.7542    3.7333    0.0000 C   0  0  0  0  0  0  0  0  0  0  0  0
   -6.0792    2.5708    0.0000 C   0  0  0  0  0  0  0  0  0  0  0  0
   -2.2583    2.4083    0.0000 C   0  0  0  0  0  0  0  0  0  0  0  0
   -3.8708    4.6042    0.0000 C   0  0  0  0  0  0  0  0  0  0  0  0
   -4.5833    2.5708    0.0000 O   0  0  0  0  0  0  0  0  0  0  0  0
   -7.3042    3.1083    0.0000 C   0  0  0  0  0  0  0  0  0  0  0  0
   -6.8917    2.3958    0.0000 C   0  0  0  0  0  0  0  0  0  0  0  0
   -6.9292    4.5125    0.0000 O   0  0  0  0  0  0  0  0  0  0  0  0
   -5.4833    2.0250    0.0000 O   0  0  0  0  0  0  0  0  0  0  0  0
   -2.4500    4.6042    0.0000 N   0  0  0  0  0  0  0  0  0  0  0  0
   -1.0333    3.1208    0.0000 C   0  0  0  0  0  0  0  0  0  0  0  0
   -3.1583    5.0167    0.0000 C   0  0  0  0  0  0  0  0  0  0  0  0
   -1.8458    1.6958    0.0000 C   0  0  0  0  0  0  0  0  0  0  0  0
   -1.0333    1.6958    0.0000 C   0  0  0  0  0  0  0  0  0  0  0  0
   -1.7458    5.0167    0.0000 C   0  0  0  0  0  0  0  0  0  0  0  0
   -0.6250    2.4083    0.0000 C   0  0  0  0  0  0  0  0  0  0  0  0
   -0.6208    3.8333    0.0000 C   0  0  0  0  0  0  0  0  0  0  0  0
   -3.1625    5.8417    0.0000 C   0  0  0  0  0  0  0  0  0  0  0  0
    0.2000    3.8333    0.0000 C   0  0  0  0  0  0  0  0  0  0  0  0
   -1.7375    5.8417    0.0000 C   0  0  0  0  0  0  0  0  0  0  0  0
   -2.4583    6.2542    0.0000 C   0  0  0  0  0  0  0  0  0  0  0  0
  2  1  2  0  0  0  0
  3  8  1  0  0  0  0
  4  1  1  0  0  0  0
  5  1  1  0  0  0  0
  6  4  1  0  0  0  0
  7  2  1  0  0  0  0
  8  6  1  0  0  0  0
  9  3  1  0  0  0  0
 10  3  1  0  0  0  0
 11  5  1  0  0  0  0
 12  4  1  0  0  0  0
 13  6  2  0  0  0  0
 14  9  1  0  0  0  0
 15 10  1  0  0  0  0
 16  9  2  0  0  0  0
 17 10  2  0  0  0  0
 18 20  2  0  0  0  0
 19  7  1  0  0  0  0
 20 12  1  0  0  0  0
 21 11  1  0  0  0  0
 22 21  2  0  0  0  0
 23 18  1  0  0  0  0
 24 19  2  0  0  0  0
 25 19  1  0  0  0  0
 26 20  1  0  0  0  0
 27 25  1  0  0  0  0
 28 29  1  0  0  0  0
 29 26  2  0  0  0  0
 11  7  2  0  0  0  0
 24 22  1  0  0  0  0
 28 23  2  0  0  0  0
 14 15  1  0  0  0  0
M  END
> <IDNUMBER>
F2738-0218

> <Chemical_Name>
2-(2,5-dioxopyrrolidin-1-yl)-N-(4-ethyl-1,3-benzothiazol-2-yl)-N-[(pyridin-2-yl)methyl]acetamide

> <CAS>
922665-87-0

> <PriceCoeff>
1.00

> <MW>
408.47

> <Description>
solid

> <FSP3>
0.29

> <clogP>
1.99

> <TPSA>
111.71

> <Acceptor>
5

> <Donor>
1

> <RotBonds>
7

> <HAC>
29

> <Collection>
General

$$$$
F0834-1072
  -ISIS-  06222321142D

 28 31  0  0  0  0  0  0  0  0999 V2000
   -3.1958    2.4958    0.0000 C   0  0  0  0  0  0  0  0  0  0  0  0
   -3.8708    2.9583    0.0000 C   0  0  0  0  0  0  0  0  0  0  0  0
   -1.7333    6.6667    0.0000 N   0  0  3  0  0  0  0  0  0  0  0  0
   -3.4250    1.7000    0.0000 O   0  0  0  0  0  0  0  0  0  0  0  0
   -3.8708    3.8000    0.0000 N   0  0  0  0  0  0  0  0  0  0  0  0
   -4.5208    2.4625    0.0000 C   0  0  0  0  0  0  0  0  0  0  0  0
   -2.4458    6.2542    0.0000 C   0  0  0  0  0  0  0  0  0  0  0  0
   -3.1583    4.2042    0.0000 C   0  0  0  0  0  0  0  0  0  0  0  0
   -1.6333    7.4667    0.0000 C   0  0  0  0  0  0  0  0  0  0  0  0
   -0.9875    6.3417    0.0000 C   0  0  0  0  0  0  0  0  0  0  0  0
   -4.2375    1.6708    0.0000 C   0  0  0  0  0  0  0  0  0  0  0  0
   -2.4375    2.8000    0.0000 C   0  0  0  0  0  0  0  0  0  0  0  0
   -2.4500    5.4292    0.0000 C   0  0  0  0  0  0  0  0  0  0  0  0
   -3.1583    5.0250    0.0000 C   0  0  0  0  0  0  0  0  0  0  0  0
   -2.4458    3.7958    0.0000 O   0  0  0  0  0  0  0  0  0  0  0  0
   -0.8458    7.6375    0.0000 C   0  0  0  0  0  0  0  0  0  0  0  0
   -0.4500    6.9500    0.0000 C   0  0  0  0  0  0  0  0  0  0  0  0
   -2.2583    8.0667    0.0000 O   0  0  0  0  0  0  0  0  0  0  0  0
   -0.7625    5.5000    0.0000 O   0  0  0  0  0  0  0  0  0  0  0  0
   -1.7833    2.2833    0.0000 O   0  0  0  0  0  0  0  0  0  0  0  0
   -2.3125    3.6208    0.0000 N   0  0  0  0  0  0  0  0  0  0  0  0
   -3.1583    6.6750    0.0000 C   0  0  0  0  0  0  0  0  0  0  0  0
   -5.3208    2.6083    0.0000 C   0  0  0  0  0  0  0  0  0  0  0  0
   -4.7708    1.0583    0.0000 C   0  0  0  0  0  0  0  0  0  0  0  0
   -3.8708    5.4292    0.0000 C   0  0  0  0  0  0  0  0  0  0  0  0
   -3.8708    6.2542    0.0000 C   0  0  0  0  0  0  0  0  0  0  0  0
   -5.8625    1.9875    0.0000 C   0  0  0  0  0  0  0  0  0  0  0  0
   -5.5958    1.2208    0.0000 C   0  0  0  0  0  0  0  0  0  0  0  0
  2  1  2  0  0  0  0
  3  7  1  0  0  0  0
  4  1  1  0  0  0  0
  5  2  1  0  0  0  0
  6  2  1  0  0  0  0
  7 13  1  0  0  0  0
  8  5  1  0  0  0  0
  9  3  1  0  0  0  0
 10  3  1  0  0  0  0
 11  4  1  0  0  0  0
 12  1  1  0  0  0  0
 13 14  2  0  0  0  0
 14  8  1  0  0  0  0
 15  8  2  0  0  0  0
 16  9  1  0  0  0  0
 17 10  1  0  0  0  0
 18  9  2  0  0  0  0
 19 10  2  0  0  0  0
 20 12  2  0  0  0  0
 21 12  1  0  0  0  0
 22 26  1  0  0  0  0
 23  6  1  0  0  0  0
 24 11  1  0  0  0  0
 25 14  1  0  0  0  0
 26 25  2  0  0  0  0
 27 23  2  0  0  0  0
 28 24  2  0  0  0  0
 11  6  2  0  0  0  0
 27 28  1  0  0  0  0
 22  7  2  0  0  0  0
 16 17  1  0  0  0  0
M  END
> <IDNUMBER>
F0834-1072

> <Chemical_Name>
3-[3-(2,5-dioxopyrrolidin-1-yl)benzamido]-1-benzofuran-2-carboxamide

> <CAS>
399000-59-0

> <PriceCoeff>
1.00

> <MW>
377.35

> <Description>
solid

> <FSP3>
0.10

> <clogP>
0.46

> <TPSA>
122.71

> <Acceptor>
5

> <Donor>
2

> <RotBonds>
4

> <HAC>
28

> <Collection>
General

$$$$
F1174-3261
  -ISIS-  06222321142D

 22 24  0  0  0  0  0  0  0  0999 V2000
   -1.0625    0.5208    0.0000 C   0  0  0  0  0  0  0  0  0  0  0  0
   -1.0625    1.1833    0.0000 C   0  0  0  0  0  0  0  0  0  0  0  0
   -1.6208    1.5208    0.0000 C   0  0  0  0  0  0  0  0  0  0  0  0
   -1.6208    0.2000    0.0000 N   0  0  0  0  0  0  0  0  0  0  0  0
   -0.4625    0.1833    0.0000 C   0  0  0  0  0  0  0  0  0  0  0  0
   -2.1833    1.1833    0.0000 C   0  0  0  0  0  0  0  0  0  0  0  0
   -1.6000    2.1833    0.0000 C   0  0  0  0  0  0  0  0  0  0  0  0
   -2.1833    0.5208    0.0000 C   0  0  0  0  0  0  0  0  0  0  0  0
   -0.4833    1.5208    0.0000 C   0  0  0  0  0  0  0  0  0  0  0  0
    0.1167    0.5208    0.0000 O   0  0  0  0  0  0  0  0  0  0  0  0
   -2.1625    2.5208    0.0000 O   0  0  0  0  0  0  0  0  0  0  0  0
   -0.4625   -0.4792    0.0000 O   0  0  0  0  0  0  0  0  0  0  0  0
   -1.0208    2.5000    0.0000 O   0  0  0  0  0  0  0  0  0  0  0  0
   -2.7625    1.5208    0.0000 C   0  0  0  0  0  0  0  0  0  0  0  0
   -2.7625    0.2000    0.0000 C   0  0  0  0  0  0  0  0  0  0  0  0
    0.1000    1.1833    0.0000 C   0  0  0  0  0  0  0  0  0  0  0  0
   -0.4833    2.1625    0.0000 C   0  0  0  0  0  0  0  0  0  0  0  0
   -3.3208    1.1833    0.0000 C   0  0  0  0  0  0  0  0  0  0  0  0
   -3.3208    0.5208    0.0000 C   0  0  0  0  0  0  0  0  0  0  0  0
    0.1000    2.5000    0.0000 C   0  0  0  0  0  0  0  0  0  0  0  0
    0.6542    1.5208    0.0000 C   0  0  0  0  0  0  0  0  0  0  0  0
    0.6542    2.1625    0.0000 C   0  0  0  0  0  0  0  0  0  0  0  0
  2  1  2  0  0  0  0
  3  2  1  0  0  0  0
  4  1  1  0  0  0  0
  5  1  1  0  0  0  0
  6  8  1  0  0  0  0
  7  3  1  0  0  0  0
  8  4  2  0  0  0  0
  9  2  1  0  0  0  0
 10  5  2  0  0  0  0
 11  7  2  0  0  0  0
 12  5  1  0  0  0  0
 13  7  1  0  0  0  0
 14  6  1  0  0  0  0
 15  8  1  0  0  0  0
 16  9  2  0  0  0  0
 17  9  1  0  0  0  0
 18 19  1  0  0  0  0
 19 15  2  0  0  0  0
 20 17  2  0  0  0  0
 21 16  1  0  0  0  0
 22 20  1  0  0  0  0
  3  6  2  0  0  0  0
 14 18  2  0  0  0  0
 22 21  2  0  0  0  0
M  END
> <IDNUMBER>
F1174-3261

> <Chemical_Name>
3-phenylquinoline-2,4-dicarboxylic acid

> <CAS>
19585-90-1

> <PriceCoeff>
1.00

> <MW>
293.27

> <Description>
solid

> <FSP3>
0.00

> <clogP>
2.75

> <TPSA>
87.49

> <Acceptor>
5

> <Donor>
1

> <RotBonds>
3

> <HAC>
22

> <Collection>
General

$$$$
F1813-0482
  -ISIS-  06222321142D

 28 31  0  0  0  0  0  0  0  0999 V2000
   -5.9958    3.3958    0.0000 C   0  0  0  0  0  0  0  0  0  0  0  0
   -1.7333    3.3958    0.0000 N   0  0  3  0  0  0  0  0  0  0  0  0
   -6.0750    2.5708    0.0000 N   0  0  0  0  0  0  0  0  0  0  0  0
   -6.8792    2.3958    0.0000 C   0  0  0  0  0  0  0  0  0  0  0  0
   -5.2875    3.8000    0.0000 N   0  0  0  0  0  0  0  0  0  0  0  0
   -7.2917    3.1125    0.0000 C   0  0  0  0  0  0  0  0  0  0  0  0
   -6.7417    3.7208    0.0000 S   0  0  0  0  0  0  0  0  0  0  0  0
   -2.4458    3.8000    0.0000 C   0  0  0  0  0  0  0  0  0  0  0  0
   -4.5833    3.3958    0.0000 C   0  0  0  0  0  0  0  0  0  0  0  0
   -1.6875    2.5708    0.0000 C   0  0  0  0  0  0  0  0  0  0  0  0
   -0.9708    3.6875    0.0000 C   0  0  0  0  0  0  0  0  0  0  0  0
   -3.1583    3.3958    0.0000 C   0  0  0  0  0  0  0  0  0  0  0  0
   -3.8708    3.8000    0.0000 C   0  0  0  0  0  0  0  0  0  0  0  0
   -7.2792    1.6958    0.0000 C   0  0  0  0  0  0  0  0  0  0  0  0
   -8.1042    3.1083    0.0000 C   0  0  0  0  0  0  0  0  0  0  0  0
   -4.5833    2.5708    0.0000 O   0  0  0  0  0  0  0  0  0  0  0  0
   -0.4375    3.0583    0.0000 C   0  0  0  0  0  0  0  0  0  0  0  0
   -0.8708    2.3708    0.0000 C   0  0  0  0  0  0  0  0  0  0  0  0
   -0.7583    4.4667    0.0000 O   0  0  0  0  0  0  0  0  0  0  0  0
   -2.3208    2.0458    0.0000 O   0  0  0  0  0  0  0  0  0  0  0  0
   -8.1042    1.6958    0.0000 C   0  0  0  0  0  0  0  0  0  0  0  0
   -8.5167    2.4083    0.0000 C   0  0  0  0  0  0  0  0  0  0  0  0
   -2.4375    4.6167    0.0000 C   0  0  0  0  0  0  0  0  0  0  0  0
   -6.8750    0.9875    0.0000 O   0  0  0  0  0  0  0  0  0  0  0  0
   -3.8708    4.6167    0.0000 C   0  0  0  0  0  0  0  0  0  0  0  0
   -3.1583    5.0292    0.0000 C   0  0  0  0  0  0  0  0  0  0  0  0
   -8.5042    3.8208    0.0000 C   0  0  0  0  0  0  0  0  0  0  0  0
   -7.1917    0.1458    0.0000 C   0  0  0  0  0  0  0  0  0  0  0  0
  2  8  1  0  0  0  0
  3  1  2  0  0  0  0
  4  3  1  0  0  0  0
  5  1  1  0  0  0  0
  6  7  1  0  0  0  0
  7  1  1  0  0  0  0
  8 12  1  0  0  0  0
  9  5  1  0  0  0  0
 10  2  1  0  0  0  0
 11  2  1  0  0  0  0
 12 13  2  0  0  0  0
 13  9  1  0  0  0  0
 14  4  2  0  0  0  0
 15  6  2  0  0  0  0
 16  9  2  0  0  0  0
 17 11  1  0  0  0  0
 18 10  1  0  0  0  0
 19 11  2  0  0  0  0
 20 10  2  0  0  0  0
 21 14  1  0  0  0  0
 22 15  1  0  0  0  0
 23 26  1  0  0  0  0
 24 14  1  0  0  0  0
 25 13  1  0  0  0  0
 26 25  2  0  0  0  0
 27 15  1  0  0  0  0
 28 24  1  0  0  0  0
  6  4  1  0  0  0  0
 22 21  2  0  0  0  0
 23  8  2  0  0  0  0
 17 18  1  0  0  0  0
M  END
> <IDNUMBER>
F1813-0482

> <Chemical_Name>
3-(2,5-dioxopyrrolidin-1-yl)-N-(4-methoxy-7-methyl-1,3-benzothiazol-2-yl)benzamide

> <CAS>
897759-56-7

> <PriceCoeff>
1.00

> <MW>
395.43

> <Description>
solid

> <FSP3>
0.20

> <clogP>
2.42

> <TPSA>
116.84

> <Acceptor>
5

> <Donor>
1

> <RotBonds>
4

> <HAC>
28

> <Collection>
General

$$$$
F3019-0042
  -ISIS-  06222321152D

 21 22  0  0  0  0  0  0  0  0999 V2000
    2.1625    0.4833    0.0000 N   0  0  3  0  0  0  0  0  0  0  0  0
    2.4125   -0.3042    0.0000 C   0  0  0  0  0  0  0  0  0  0  0  0
    2.8250    0.9708    0.0000 C   0  0  0  0  0  0  0  0  0  0  0  0
    3.2417   -0.3042    0.0000 C   0  0  3  0  0  0  0  0  0  0  0  0
    3.5000    0.4833    0.0000 C   0  0  0  0  0  0  0  0  0  0  0  0
    3.8792   -2.4000    0.0000 C   0  0  0  0  0  0  0  0  0  0  0  0
    3.7292   -0.9792    0.0000 S   0  0  0  0  0  0  0  0  0  0  0  0
    3.3917   -1.7375    0.0000 C   0  0  0  0  0  0  0  0  0  0  0  0
    4.7042   -2.3042    0.0000 C   0  0  0  0  0  0  0  0  0  0  0  0
    1.3750    0.7333    0.0000 C   0  0  0  0  0  0  0  0  0  0  0  0
    1.9250   -0.9792    0.0000 O   0  0  0  0  0  0  0  0  0  0  0  0
    2.8250    1.8000    0.0000 O   0  0  0  0  0  0  0  0  0  0  0  0
    5.0375   -1.5500    0.0000 O   0  0  0  0  0  0  0  0  0  0  0  0
    5.1917   -2.9792    0.0000 O   0  0  0  0  0  0  0  0  0  0  0  0
    3.5417   -3.1542    0.0000 C   0  0  0  0  0  0  0  0  0  0  0  0
    2.5667   -1.8167    0.0000 C   0  0  0  0  0  0  0  0  0  0  0  0
    0.7625    0.1833    0.0000 C   0  0  3  0  0  0  0  0  0  0  0  0
   -0.0208    0.4375    0.0000 C   0  0  0  0  0  0  0  0  0  0  0  0
    0.9292   -0.6250    0.0000 C   0  0  0  0  0  0  0  0  0  0  0  0
    2.7125   -3.2417    0.0000 C   0  0  0  0  0  0  0  0  0  0  0  0
    2.2292   -2.5750    0.0000 C   0  0  0  0  0  0  0  0  0  0  0  0
  2  1  1  0  0  0  0
  3  1  1  0  0  0  0
  4  2  1  0  0  0  0
  5  3  1  0  0  0  0
  6  8  1  0  0  0  0
  7  4  1  0  0  0  0
  8  7  1  0  0  0  0
  9  6  1  0  0  0  0
 10  1  1  0  0  0  0
 11  2  2  0  0  0  0
 12  3  2  0  0  0  0
 13  9  2  0  0  0  0
 14  9  1  0  0  0  0
 15  6  2  0  0  0  0
 16  8  2  0  0  0  0
 17 10  1  0  0  0  0
 18 17  1  0  0  0  0
 19 17  1  0  0  0  0
 20 21  2  0  0  0  0
 21 16  1  0  0  0  0
  5  4  1  0  0  0  0
 15 20  1  0  0  0  0
M  END
> <IDNUMBER>
F3019-0042

> <Chemical_Name>
2-{[1-(2-methylpropyl)-2,5-dioxopyrrolidin-3-yl]sulfanyl}benzoic acid

> <CAS>
831194-72-0

> <PriceCoeff>
1.00

> <MW>
307.36

> <Description>
solid

> <FSP3>
0.40

> <clogP>
2.70

> <TPSA>
99.98

> <Acceptor>
4

> <Donor>
0

> <RotBonds>
5

> <HAC>
21

> <Collection>
General

$$$$
F5460-0730
  -ISIS-  06222321442D

 27 30  0  0  0  0  0  0  0  0999 V2000
   -4.0208    5.3792    0.0000 N   0  0  3  0  0  0  0  0  0  0  0  0
   -4.7500    5.2167    0.0000 C   0  0  0  0  0  0  0  0  0  0  0  0
   -3.4458    4.9042    0.0000 C   0  0  0  0  0  0  0  0  0  0  0  0
   -5.2833    5.7542    0.0000 N   0  0  0  0  0  0  0  0  0  0  0  0
   -2.2708    2.5958    0.0000 N   0  0  3  0  0  0  0  0  0  0  0  0
   -3.7375    6.0792    0.0000 N   0  0  0  0  0  0  0  0  0  0  0  0
   -5.0833    4.5667    0.0000 S   0  0  0  0  0  0  0  0  0  0  0  0
   -2.8125    5.3125    0.0000 C   0  0  0  0  0  0  0  0  0  0  0  0
   -5.9458    5.4042    0.0000 C   0  0  0  0  0  0  0  0  0  0  0  0
   -3.4833    4.1542    0.0000 N   0  0  0  0  0  0  0  0  0  0  0  0
   -2.1458    1.8583    0.0000 C   0  0  0  0  0  0  0  0  0  0  0  0
   -1.6000    2.9458    0.0000 C   0  0  0  0  0  0  0  0  0  0  0  0
   -5.8208    4.6667    0.0000 C   0  0  0  0  0  0  0  0  0  0  0  0
   -2.9958    6.0292    0.0000 C   0  0  0  0  0  0  0  0  0  0  0  0
   -2.8583    3.7500    0.0000 C   0  0  0  0  0  0  0  0  0  0  0  0
   -2.8958    3.0000    0.0000 C   0  0  0  0  0  0  0  0  0  0  0  0
   -6.6417    5.6667    0.0000 C   0  0  0  0  0  0  0  0  0  0  0  0
   -1.0708    2.4083    0.0000 C   0  0  0  0  0  0  0  0  0  0  0  0
   -1.4083    1.7375    0.0000 C   0  0  0  0  0  0  0  0  0  0  0  0
   -1.4833    3.6833    0.0000 O   0  0  0  0  0  0  0  0  0  0  0  0
   -2.6708    1.3250    0.0000 O   0  0  0  0  0  0  0  0  0  0  0  0
   -2.1958    4.0917    0.0000 O   0  0  0  0  0  0  0  0  0  0  0  0
   -6.7667    6.4042    0.0000 F   0  0  0  0  0  0  0  0  0  0  0  0
   -6.3917    4.2000    0.0000 C   0  0  0  0  0  0  0  0  0  0  0  0
   -7.0917    4.4625    0.0000 C   0  0  0  0  0  0  0  0  0  0  0  0
   -2.5083    6.6042    0.0000 C   0  0  0  0  0  0  0  0  0  0  0  0
   -7.2167    5.1875    0.0000 C   0  0  0  0  0  0  0  0  0  0  0  0
  2  1  1  0  0  0  0
  3  1  1  0  0  0  0
  4  2  2  0  0  0  0
  5 16  1  0  0  0  0
  6  1  1  0  0  0  0
  7  2  1  0  0  0  0
  8  3  2  0  0  0  0
  9  4  1  0  0  0  0
 10  3  1  0  0  0  0
 11  5  1  0  0  0  0
 12  5  1  0  0  0  0
 13  7  1  0  0  0  0
 14  6  2  0  0  0  0
 15 10  1  0  0  0  0
 16 15  1  0  0  0  0
 17  9  1  0  0  0  0
 18 12  1  0  0  0  0
 19 11  1  0  0  0  0
 20 12  2  0  0  0  0
 21 11  2  0  0  0  0
 22 15  2  0  0  0  0
 23 17  1  0  0  0  0
 24 13  1  0  0  0  0
 25 24  2  0  0  0  0
 26 14  1  0  0  0  0
 27 17  2  0  0  0  0
 14  8  1  0  0  0  0
  9 13  2  0  0  0  0
 25 27  1  0  0  0  0
 18 19  1  0  0  0  0
M  END
> <IDNUMBER>
F5460-0730

> <Chemical_Name>
2-(2,5-dioxopyrrolidin-1-yl)-N-[1-(4-fluoro-1,3-benzothiazol-2-yl)-3-methyl-1H-pyrazol-5-yl]acetamide

> <CAS>
1173100-97-4

> <PriceCoeff>
1.00

> <MW>
387.39

> <Description>
solid

> <FSP3>
0.24

> <clogP>
1.94

> <TPSA>
125.43

> <Acceptor>
5

> <Donor>
1

> <RotBonds>
4

> <HAC>
27

> <Collection>
General

$$$$
F6213-0291
  -ISIS-  06222321442D

 22 24  0  0  0  0  0  0  0  0999 V2000
   -1.3125    3.4208    0.0000 N   0  0  3  0  0  0  0  0  0  0  0  0
   -0.5833    3.8000    0.0000 C   0  0  0  0  0  0  0  0  0  0  0  0
   -2.3500    2.8708    0.0000 C   0  0  3  0  0  0  0  0  0  0  0  0
   -0.5958    4.6167    0.0000 N   0  0  0  0  0  0  0  0  0  0  0  0
   -3.7833    2.0458    0.0000 C   0  0  3  0  0  0  0  0  0  0  0  0
   -2.1000    3.6667    0.0000 C   0  0  0  0  0  0  0  0  0  0  0  0
   -1.5583    2.6250    0.0000 C   0  0  0  0  0  0  0  0  0  0  0  0
   -3.7833    2.8708    0.0000 O   0  0  0  0  0  0  0  0  0  0  0  0
   -3.0708    1.6375    0.0000 O   0  0  0  0  0  0  0  0  0  0  0  0
    1.5417    5.0667    0.0000 C   0  0  0  0  0  0  0  0  0  0  0  0
    0.8375    4.6417    0.0000 C   0  0  0  0  0  0  0  0  0  0  0  0
    0.1167    5.0417    0.0000 C   0  0  0  0  0  0  0  0  0  0  0  0
    0.0917    3.3125    0.0000 O   0  0  0  0  0  0  0  0  0  0  0  0
    1.5292    5.9000    0.0000 C   0  0  0  0  0  0  0  0  0  0  0  0
   -3.0708    3.2958    0.0000 C   0  0  0  0  0  0  0  0  0  0  0  0
   -2.3500    2.0458    0.0000 C   0  0  0  0  0  0  0  0  0  0  0  0
    0.8125    6.3000    0.0000 C   0  0  0  0  0  0  0  0  0  0  0  0
    2.2667    4.6667    0.0000 Cl  0  0  0  0  0  0  0  0  0  0  0  0
    0.1000    5.8792    0.0000 C   0  0  0  0  0  0  0  0  0  0  0  0
    2.2417    6.3250    0.0000 Cl  0  0  0  0  0  0  0  0  0  0  0  0
   -4.0000    1.2458    0.0000 C   0  0  0  0  0  0  0  0  0  0  0  0
   -4.5833    2.2708    0.0000 C   0  0  0  0  0  0  0  0  0  0  0  0
  2  1  1  0  0  0  0
  3  7  1  0  0  0  0
  4  2  1  0  0  0  0
  5  9  1  0  0  0  0
  6  1  1  0  0  0  0
  7  1  1  0  0  0  0
  8 15  1  0  0  0  0
  9 16  1  0  0  0  0
 10 11  1  0  0  0  0
 11 12  2  0  0  0  0
 12  4  1  0  0  0  0
 13  2  2  0  0  0  0
 14 17  1  0  0  0  0
 15  3  1  0  0  0  0
 16  3  1  0  0  0  0
 17 19  2  0  0  0  0
 18 10  1  0  0  0  0
 19 12  1  0  0  0  0
 20 14  1  0  0  0  0
 21  5  1  0  0  0  0
 22  5  1  0  0  0  0
  6  3  1  0  0  0  0
  8  5  1  0  0  0  0
 14 10  2  0  0  0  0
M  END
> <IDNUMBER>
F6213-0291

> <Chemical_Name>
N-(3,4-dichlorophenyl)-7,7-dimethyl-6,8-dioxa-2-azaspiro[3.5]nonane-2-carboxamide

> <CAS>
1396860-33-5

> <PriceCoeff>
1.00

> <MW>
345.22

> <Description>
solid

> <FSP3>
0.53

> <clogP>
3.50

> <TPSA>
50.80

> <Acceptor>
3

> <Donor>
1

> <RotBonds>
2

> <HAC>
22

> <Collection>
General

$$$$
F2756-0037
  -ISIS-  06222304352D

 34 37  0  0  0  0  0  0  0  0999 V2000
   -3.1583    5.0292    0.0000 C   0  0  0  0  0  0  0  0  0  0  0  0
   -3.1583    4.2042    0.0000 N   0  0  3  0  0  0  0  0  0  0  0  0
   -3.8250    5.5167    0.0000 N   0  0  0  0  0  0  0  0  0  0  0  0
   -3.8833    0.5125    0.0000 N   0  0  3  0  0  0  0  0  0  0  0  0
   -2.4958    5.5167    0.0000 S   0  0  0  0  0  0  0  0  0  0  0  0
   -3.8708    3.8000    0.0000 C   0  0  0  0  0  0  0  0  0  0  0  0
   -4.5083    0.0083    0.0000 C   0  0  0  0  0  0  0  0  0  0  0  0
   -3.1958    0.0583    0.0000 C   0  0  0  0  0  0  0  0  0  0  0  0
   -3.5750    6.3000    0.0000 C   0  0  0  0  0  0  0  0  0  0  0  0
   -2.7500    6.3000    0.0000 C   0  0  0  0  0  0  0  0  0  0  0  0
   -2.4458    3.8000    0.0000 C   0  0  0  0  0  0  0  0  0  0  0  0
   -3.8750    1.3375    0.0000 C   0  0  0  0  0  0  0  0  0  0  0  0
   -3.8708    2.9833    0.0000 C   0  0  0  0  0  0  0  0  0  0  0  0
   -1.7333    2.5583    0.0000 N   0  0  3  0  0  0  0  0  0  0  0  0
   -4.5833    4.2042    0.0000 O   0  0  0  0  0  0  0  0  0  0  0  0
   -4.2333   -0.7625    0.0000 C   0  0  0  0  0  0  0  0  0  0  0  0
   -3.4208   -0.7375    0.0000 C   0  0  0  0  0  0  0  0  0  0  0  0
   -5.3083    0.2333    0.0000 O   0  0  0  0  0  0  0  0  0  0  0  0
   -2.4083    0.3375    0.0000 O   0  0  0  0  0  0  0  0  0  0  0  0
   -3.1500    1.7458    0.0000 C   0  0  0  0  0  0  0  0  0  0  0  0
   -4.5833    1.7500    0.0000 C   0  0  0  0  0  0  0  0  0  0  0  0
   -2.4458    2.9708    0.0000 C   0  0  0  0  0  0  0  0  0  0  0  0
   -4.5708    2.5833    0.0000 C   0  0  0  0  0  0  0  0  0  0  0  0
   -3.1458    2.5708    0.0000 C   0  0  0  0  0  0  0  0  0  0  0  0
   -0.3083    1.7333    0.0000 O   0  0  0  0  0  0  0  0  0  0  0  0
   -1.0208    2.9833    0.0000 C   0  0  0  0  0  0  0  0  0  0  0  0
   -1.7333    1.7375    0.0000 C   0  0  0  0  0  0  0  0  0  0  0  0
   -3.9833    7.0125    0.0000 C   0  0  0  0  0  0  0  0  0  0  0  0
   -2.3375    7.0125    0.0000 C   0  0  0  0  0  0  0  0  0  0  0  0
   -1.0208    1.3250    0.0000 C   0  0  0  0  0  0  0  0  0  0  0  0
   -0.3083    2.5625    0.0000 C   0  0  0  0  0  0  0  0  0  0  0  0
   -2.7500    7.7292    0.0000 C   0  0  0  0  0  0  0  0  0  0  0  0
   -3.5708    7.7167    0.0000 C   0  0  0  0  0  0  0  0  0  0  0  0
    1.2084    3.5792    0.0000 Cl  0  0  0  0  0  0  0  0  0  0  0  0
  3  1  2  0  0  0  0
  4 12  1  0  0  0  0
  5  1  1  0  0  0  0
  6  2  1  0  0  0  0
  7  4  1  0  0  0  0
  8  4  1  0  0  0  0
  9  3  1  0  0  0  0
 10  5  1  0  0  0  0
 11  2  1  0  0  0  0
 12 20  1  0  0  0  0
 13  6  1  0  0  0  0
 14 22  1  0  0  0  0
 15  6  2  0  0  0  0
 16  7  1  0  0  0  0
 17  8  1  0  0  0  0
 18  7  2  0  0  0  0
 19  8  2  0  0  0  0
 20 24  2  0  0  0  0
 21 23  1  0  0  0  0
 22 11  1  0  0  0  0
 23 13  2  0  0  0  0
 24 13  1  0  0  0  0
 25 30  1  0  0  0  0
 26 14  1  0  0  0  0
 27 14  1  0  0  0  0
 28  9  1  0  0  0  0
 29 10  1  0  0  0  0
 30 27  1  0  0  0  0
 31 26  1  0  0  0  0
 32 29  2  0  0  0  0
 33 28  2  0  0  0  0
 10  9  2  0  0  0  0
 33 32  1  0  0  0  0
 12 21  2  0  0  0  0
 31 25  1  0  0  0  0
 17 16  1  0  0  0  0
  2  1  1  0  0  0  0
M  END
> <IDNUMBER>
F2756-0037

> <Chemical_Name>
N-(1,3-benzothiazol-2-yl)-4-(2,5-dioxopyrrolidin-1-yl)-N-[2-(morpholin-4-yl)ethyl]benzamide hydrochloride

> <CAS>
1329982-96-8

> <PriceCoeff>
1.00

> <MW>
464.54

> <Description>
solid

> <FSP3>
0.33

> <clogP>
1.10

> <TPSA>
111.29

> <Acceptor>
5

> <Donor>
1

> <RotBonds>
7

> <HAC>
33

> <Collection>
General

$$$$
F1328-0052
  -ISIS-  06222321142D

 21 23  0  0  0  0  0  0  0  0999 V2000
    0.3042   -1.5500    0.0000 N   0  0  3  0  0  0  0  0  0  0  0  0
    1.1250   -1.6375    0.0000 C   0  0  0  0  0  0  0  0  0  0  0  0
    1.4667   -0.8875    0.0000 C   0  0  0  0  0  0  0  0  0  0  0  0
    2.2750   -0.7167    0.0000 C   0  0  0  0  0  0  0  0  0  0  0  0
    0.1417   -0.7417    0.0000 C   0  0  0  0  0  0  0  0  0  0  0  0
    0.8542   -0.3375    0.0000 C   0  0  0  0  0  0  0  0  0  0  0  0
   -0.2458   -2.1625    0.0000 C   0  0  0  0  0  0  0  0  0  0  0  0
    2.8250   -1.3417    0.0000 C   0  0  0  0  0  0  0  0  0  0  0  0
    2.5292    0.0625    0.0000 C   0  0  0  0  0  0  0  0  0  0  0  0
    3.9000   -0.3875    0.0000 O   0  0  0  0  0  0  0  0  0  0  0  0
    3.3417    0.2333    0.0000 C   0  0  0  0  0  0  0  0  0  0  0  0
    3.6292   -1.1750    0.0000 C   0  0  0  0  0  0  0  0  0  0  0  0
    1.5417   -2.3542    0.0000 O   0  0  0  0  0  0  0  0  0  0  0  0
   -1.0583   -1.9875    0.0000 O   0  0  0  0  0  0  0  0  0  0  0  0
   -0.5750   -0.3375    0.0000 C   0  0  0  0  0  0  0  0  0  0  0  0
    0.8542    0.4958    0.0000 C   0  0  0  0  0  0  0  0  0  0  0  0
    0.0042   -2.9500    0.0000 C   0  0  0  0  0  0  0  0  0  0  0  0
    3.6042    1.0208    0.0000 C   0  0  0  0  0  0  0  0  0  0  0  0
    4.1875   -1.7917    0.0000 C   0  0  0  0  0  0  0  0  0  0  0  0
    0.1375    0.9083    0.0000 C   0  0  0  0  0  0  0  0  0  0  0  0
   -0.5750    0.4958    0.0000 C   0  0  0  0  0  0  0  0  0  0  0  0
  2  1  1  0  0  0  0
  3  2  1  0  0  0  0
  4  3  2  0  0  0  0
  5  1  1  0  0  0  0
  6  5  2  0  0  0  0
  7  1  1  0  0  0  0
  8  4  1  0  0  0  0
  9  4  1  0  0  0  0
 10 11  1  0  0  0  0
 11  9  2  0  0  0  0
 12  8  2  0  0  0  0
 13  2  2  0  0  0  0
 14  7  2  0  0  0  0
 15  5  1  0  0  0  0
 16  6  1  0  0  0  0
 17  7  1  0  0  0  0
 18 11  1  0  0  0  0
 19 12  1  0  0  0  0
 20 21  1  0  0  0  0
 21 15  2  0  0  0  0
  3  6  1  0  0  0  0
 16 20  2  0  0  0  0
 12 10  1  0  0  0  0
M  END
> <IDNUMBER>
F1328-0052

> <Chemical_Name>
1-acetyl-3-(2,6-dimethyl-4H-pyran-4-ylidene)-2,3-dihydro-1H-indol-2-one

> <CAS>
531493-59-1

> <PriceCoeff>
1.00

> <MW>
281.31

> <Description>
solid

> <FSP3>
0.18

> <clogP>
0.87

> <TPSA>
46.61

> <Acceptor>
3

> <Donor>
0

> <RotBonds>
1

> <HAC>
21

> <Collection>
General

$$$$
F0327-0327
  -ISIS-  06222321142D

 28 31  0  0  0  0  0  0  0  0999 V2000
    4.4167    0.3500    0.0000 N   0  0  3  0  0  0  0  0  0  0  0  0
   -0.4000    1.1125    0.0000 C   0  0  0  0  0  0  0  0  0  0  0  0
   -0.9125    0.4000    0.0000 N   0  0  0  0  0  0  0  0  0  0  0  0
    0.4542    1.1125    0.0000 N   0  0  0  0  0  0  0  0  0  0  0  0
   -1.7458    0.6500    0.0000 C   0  0  0  0  0  0  0  0  0  0  0  0
    0.9000    0.3500    0.0000 C   0  0  0  0  0  0  0  0  0  0  0  0
    4.9042   -0.3667    0.0000 C   0  0  0  0  0  0  0  0  0  0  0  0
    4.9167    1.0125    0.0000 C   0  0  0  0  0  0  0  0  0  0  0  0
   -0.9000    1.8125    0.0000 S   0  0  0  0  0  0  0  0  0  0  0  0
   -1.7458    1.5500    0.0000 C   0  0  0  0  0  0  0  0  0  0  0  0
    3.5375    0.3500    0.0000 C   0  0  0  0  0  0  0  0  0  0  0  0
    1.7792    0.3500    0.0000 C   0  0  0  0  0  0  0  0  0  0  0  0
   -2.4208    0.1208    0.0000 C   0  0  0  0  0  0  0  0  0  0  0  0
    0.4542   -0.4042    0.0000 O   0  0  0  0  0  0  0  0  0  0  0  0
    5.7542   -0.1167    0.0000 C   0  0  0  0  0  0  0  0  0  0  0  0
    5.7500    0.7500    0.0000 C   0  0  0  0  0  0  0  0  0  0  0  0
    4.6000   -1.1875    0.0000 O   0  0  0  0  0  0  0  0  0  0  0  0
    4.6292    1.8625    0.0000 O   0  0  0  0  0  0  0  0  0  0  0  0
    3.1000    1.1125    0.0000 C   0  0  0  0  0  0  0  0  0  0  0  0
    3.1000   -0.4042    0.0000 C   0  0  0  0  0  0  0  0  0  0  0  0
    2.2167    1.1125    0.0000 C   0  0  0  0  0  0  0  0  0  0  0  0
    2.2167   -0.4042    0.0000 C   0  0  0  0  0  0  0  0  0  0  0  0
   -3.2458    0.4500    0.0000 C   0  0  0  0  0  0  0  0  0  0  0  0
   -2.3000   -0.7542    0.0000 C   0  0  0  0  0  0  0  0  0  0  0  0
   -2.9958   -1.3000    0.0000 C   0  0  0  0  0  0  0  0  0  0  0  0
   -3.9458   -0.0875    0.0000 C   0  0  0  0  0  0  0  0  0  0  0  0
   -3.8208   -0.9667    0.0000 C   0  0  0  0  0  0  0  0  0  0  0  0
   -4.5208   -1.5000    0.0000 C   0  0  0  0  0  0  0  0  0  0  0  0
  2  4  1  0  0  0  0
  3  2  2  0  0  0  0
  4  6  1  0  0  0  0
  5  3  1  0  0  0  0
  6 12  1  0  0  0  0
  7  1  1  0  0  0  0
  8  1  1  0  0  0  0
  9  2  1  0  0  0  0
 10  9  1  0  0  0  0
 11  1  1  0  0  0  0
 12 22  2  0  0  0  0
 13  5  1  0  0  0  0
 14  6  2  0  0  0  0
 15  7  1  0  0  0  0
 16  8  1  0  0  0  0
 17  7  2  0  0  0  0
 18  8  2  0  0  0  0
 19 11  1  0  0  0  0
 20 11  2  0  0  0  0
 21 19  2  0  0  0  0
 22 20  1  0  0  0  0
 23 13  2  0  0  0  0
 24 13  1  0  0  0  0
 25 24  2  0  0  0  0
 26 23  1  0  0  0  0
 27 25  1  0  0  0  0
 28 27  1  0  0  0  0
 15 16  1  0  0  0  0
 12 21  1  0  0  0  0
 10  5  2  0  0  0  0
 26 27  2  0  0  0  0
M  END
> <IDNUMBER>
F0327-0327

> <Chemical_Name>
4-(2,5-dioxopyrrolidin-1-yl)-N-[4-(4-methylphenyl)-1,3-thiazol-2-yl]benzamide

> <CAS>
406194-82-9

> <PriceCoeff>
1.00

> <MW>
391.44

> <Description>
solid

> <FSP3>
0.14

> <clogP>
2.62

> <TPSA>
107.61

> <Acceptor>
4

> <Donor>
1

> <RotBonds>
4

> <HAC>
28

> <Collection>
General

$$$$
F5860-4860
  -ISIS-  06222321152D

 29 31  0  0  0  0  0  0  0  0999 V2000
    9.4167   -5.1417    0.0000 S   0  0  3  0  0  0  0  0  0  0  0  0
    7.3375   -5.8167    0.0000 N   0  0  3  0  0  0  0  0  0  0  0  0
    6.9375   -5.1000    0.0000 C   0  0  0  0  0  0  0  0  0  0  0  0
    6.9042   -6.5167    0.0000 C   0  0  0  0  0  0  0  0  0  0  0  0
    8.5917   -5.1292    0.0000 C   0  0  0  0  0  0  0  0  0  0  0  0
    8.1667   -5.8375    0.0000 C   0  0  0  0  0  0  0  0  0  0  0  0
   10.2417   -5.1625    0.0000 N   0  0  0  0  0  0  0  0  0  0  0  0
    9.4375   -4.3167    0.0000 O   0  0  0  0  0  0  0  0  0  0  0  0
    9.4042   -5.9667    0.0000 O   0  0  0  0  0  0  0  0  0  0  0  0
    7.3625   -4.3792    0.0000 O   0  0  0  0  0  0  0  0  0  0  0  0
    7.3042   -7.2417    0.0000 O   0  0  0  0  0  0  0  0  0  0  0  0
   13.1000   -5.9292    0.0000 O   0  0  0  0  0  0  0  0  0  0  0  0
   12.7042   -5.2042    0.0000 C   0  0  0  0  0  0  0  0  0  0  0  0
   13.9250   -5.9500    0.0000 C   0  0  0  0  0  0  0  0  0  0  0  0
   11.8875   -5.1917    0.0000 C   0  0  0  0  0  0  0  0  0  0  0  0
   10.6667   -4.4542    0.0000 C   0  0  0  0  0  0  0  0  0  0  0  0
   15.5667   -5.9875    0.0000 C   0  0  0  0  0  0  0  0  0  0  0  0
   11.4875   -4.4750    0.0000 C   0  0  0  0  0  0  0  0  0  0  0  0
   16.3917   -6.0042    0.0000 F   0  0  0  0  0  0  0  0  0  0  0  0
   14.3500   -5.2500    0.0000 C   0  0  0  0  0  0  0  0  0  0  0  0
   14.3167   -6.6667    0.0000 C   0  0  0  0  0  0  0  0  0  0  0  0
   15.1417   -6.6917    0.0000 C   0  0  0  0  0  0  0  0  0  0  0  0
   15.1667   -5.2625    0.0000 C   0  0  0  0  0  0  0  0  0  0  0  0
    6.0792   -6.5042    0.0000 C   0  0  0  0  0  0  0  0  0  0  0  0
    6.1167   -5.0792    0.0000 C   0  0  0  0  0  0  0  0  0  0  0  0
    5.6875   -5.7792    0.0000 C   0  0  0  0  0  0  0  0  0  0  0  0
   12.7417   -3.7792    0.0000 C   0  0  0  0  0  0  0  0  0  0  0  0
   13.1375   -4.5042    0.0000 C   0  0  0  0  0  0  0  0  0  0  0  0
   11.9167   -3.7625    0.0000 C   0  0  0  0  0  0  0  0  0  0  0  0
  2  6  1  0  0  0  0
  3  2  1  0  0  0  0
  4  2  1  0  0  0  0
  5  1  1  0  0  0  0
  6  5  1  0  0  0  0
  7  1  1  0  0  0  0
  8  1  2  0  0  0  0
  9  1  2  0  0  0  0
 10  3  2  0  0  0  0
 11  4  2  0  0  0  0
 12 13  1  0  0  0  0
 13 15  1  0  0  0  0
 14 12  1  0  0  0  0
 15 18  2  0  0  0  0
 16  7  1  0  0  0  0
 17 22  2  0  0  0  0
 18 16  1  0  0  0  0
 19 17  1  0  0  0  0
 20 14  1  0  0  0  0
 21 14  2  0  0  0  0
 22 21  1  0  0  0  0
 23 20  2  0  0  0  0
 24  4  1  0  0  0  0
 25  3  1  0  0  0  0
 26 24  1  0  0  0  0
 27 29  2  0  0  0  0
 28 27  1  0  0  0  0
 29 18  1  0  0  0  0
 13 28  2  0  0  0  0
 26 25  1  0  0  0  0
 23 17  1  0  0  0  0
M  END
> <IDNUMBER>
F5860-4860

> <Chemical_Name>
2-(2,6-dioxopiperidin-1-yl)-N-{[3-(4-fluorophenoxy)phenyl]methyl}ethane-1-sulfonamide

> <CAS>
1207011-92-4

> <PriceCoeff>
1.00

> <MW>
420.45

> <Description>
solid

> <FSP3>
0.30

> <clogP>
3.43

> <TPSA>
101.16

> <Acceptor>
5

> <Donor>
1

> <RotBonds>
8

> <HAC>
29

> <Collection>
General

$$$$
F0327-0339
  -ISIS-  06222321142D

 28 31  0  0  0  0  0  0  0  0999 V2000
    4.4167    0.3500    0.0000 N   0  0  3  0  0  0  0  0  0  0  0  0
   -0.4000    1.1125    0.0000 C   0  0  0  0  0  0  0  0  0  0  0  0
   -0.9125    0.4000    0.0000 N   0  0  0  0  0  0  0  0  0  0  0  0
    0.4542    1.1125    0.0000 N   0  0  0  0  0  0  0  0  0  0  0  0
   -1.7458    0.6500    0.0000 C   0  0  0  0  0  0  0  0  0  0  0  0
    0.9000    0.3500    0.0000 C   0  0  0  0  0  0  0  0  0  0  0  0
    4.9042   -0.3667    0.0000 C   0  0  0  0  0  0  0  0  0  0  0  0
    4.9167    1.0125    0.0000 C   0  0  0  0  0  0  0  0  0  0  0  0
   -0.9000    1.8125    0.0000 S   0  0  0  0  0  0  0  0  0  0  0  0
   -1.7458    1.5500    0.0000 C   0  0  0  0  0  0  0  0  0  0  0  0
    3.5375    0.3500    0.0000 C   0  0  0  0  0  0  0  0  0  0  0  0
    1.7792    0.3500    0.0000 C   0  0  0  0  0  0  0  0  0  0  0  0
   -2.4208    0.1208    0.0000 C   0  0  0  0  0  0  0  0  0  0  0  0
    0.4542   -0.4042    0.0000 O   0  0  0  0  0  0  0  0  0  0  0  0
    5.7542   -0.1167    0.0000 C   0  0  0  0  0  0  0  0  0  0  0  0
    5.7500    0.7500    0.0000 C   0  0  0  0  0  0  0  0  0  0  0  0
    4.6000   -1.1875    0.0000 O   0  0  0  0  0  0  0  0  0  0  0  0
    4.6292    1.8625    0.0000 O   0  0  0  0  0  0  0  0  0  0  0  0
    3.1000   -0.4042    0.0000 C   0  0  0  0  0  0  0  0  0  0  0  0
    3.1000    1.1125    0.0000 C   0  0  0  0  0  0  0  0  0  0  0  0
    2.2167   -0.4042    0.0000 C   0  0  0  0  0  0  0  0  0  0  0  0
    2.2167    1.1125    0.0000 C   0  0  0  0  0  0  0  0  0  0  0  0
   -2.3000   -0.7542    0.0000 C   0  0  0  0  0  0  0  0  0  0  0  0
   -3.2458    0.4500    0.0000 C   0  0  0  0  0  0  0  0  0  0  0  0
   -3.8208   -0.9667    0.0000 C   0  0  0  0  0  0  0  0  0  0  0  0
   -3.9458   -0.0875    0.0000 C   0  0  0  0  0  0  0  0  0  0  0  0
   -2.9958   -1.3000    0.0000 C   0  0  0  0  0  0  0  0  0  0  0  0
   -4.5208   -1.5000    0.0000 F   0  0  0  0  0  0  0  0  0  0  0  0
  2  4  1  0  0  0  0
  3  2  2  0  0  0  0
  4  6  1  0  0  0  0
  5  3  1  0  0  0  0
  6 12  1  0  0  0  0
  7  1  1  0  0  0  0
  8  1  1  0  0  0  0
  9  2  1  0  0  0  0
 10  9  1  0  0  0  0
 11  1  1  0  0  0  0
 12 22  1  0  0  0  0
 13  5  1  0  0  0  0
 14  6  2  0  0  0  0
 15  7  1  0  0  0  0
 16  8  1  0  0  0  0
 17  7  2  0  0  0  0
 18  8  2  0  0  0  0
 19 11  2  0  0  0  0
 20 11  1  0  0  0  0
 21 19  1  0  0  0  0
 22 20  2  0  0  0  0
 23 13  1  0  0  0  0
 24 13  2  0  0  0  0
 25 26  2  0  0  0  0
 26 24  1  0  0  0  0
 27 23  2  0  0  0  0
 28 25  1  0  0  0  0
 15 16  1  0  0  0  0
 12 21  2  0  0  0  0
  5 10  2  0  0  0  0
 25 27  1  0  0  0  0
M  END
> <IDNUMBER>
F0327-0339

> <Chemical_Name>
4-(2,5-dioxopyrrolidin-1-yl)-N-[4-(4-fluorophenyl)-1,3-thiazol-2-yl]benzamide

> <CAS>
330200-82-3

> <PriceCoeff>
1.00

> <MW>
395.41

> <Description>
solid

> <FSP3>
0.10

> <clogP>
2.28

> <TPSA>
107.61

> <Acceptor>
4

> <Donor>
1

> <RotBonds>
4

> <HAC>
28

> <Collection>
General

$$$$
F0526-2106
  -ISIS-  06222321142D

 31 34  0  0  0  0  0  0  0  0999 V2000
    3.4167   -0.4292    0.0000 C   0  0  0  0  0  0  0  0  0  0  0  0
    3.7500    0.3208    0.0000 C   0  0  0  0  0  0  0  0  0  0  0  0
    4.7000   -2.5792    0.0000 N   0  0  3  0  0  0  0  0  0  0  0  0
    2.4167    0.4583    0.0000 C   0  0  0  0  0  0  0  0  0  0  0  0
    2.5917   -0.3542    0.0000 S   0  0  0  0  0  0  0  0  0  0  0  0
    3.1292    0.8708    0.0000 C   0  0  0  0  0  0  0  0  0  0  0  0
    3.8417   -1.1542    0.0000 N   0  0  0  0  0  0  0  0  0  0  0  0
    5.1792   -1.9250    0.0000 C   0  0  0  0  0  0  0  0  0  0  0  0
    5.1792   -3.2417    0.0000 C   0  0  0  0  0  0  0  0  0  0  0  0
    4.5542    0.5083    0.0000 C   0  0  0  0  0  0  0  0  0  0  0  0
    3.4292   -1.8792    0.0000 C   0  0  0  0  0  0  0  0  0  0  0  0
    3.8542   -2.5917    0.0000 C   0  0  0  0  0  0  0  0  0  0  0  0
   -0.4583    0.4458    0.0000 C   0  0  0  0  0  0  0  0  0  0  0  0
    1.6917    0.8708    0.0000 C   0  0  0  0  0  0  0  0  0  0  0  0
   -0.4583   -0.3792    0.0000 C   0  0  0  0  0  0  0  0  0  0  0  0
   -1.2375    0.7000    0.0000 O   0  0  0  0  0  0  0  0  0  0  0  0
   -1.2375   -0.6292    0.0000 O   0  0  0  0  0  0  0  0  0  0  0  0
   -1.7208    0.0375    0.0000 C   0  0  0  0  0  0  0  0  0  0  0  0
    0.2542    0.8583    0.0000 C   0  0  0  0  0  0  0  0  0  0  0  0
    5.9750   -2.9917    0.0000 C   0  0  0  0  0  0  0  0  0  0  0  0
    5.9792   -2.1875    0.0000 C   0  0  0  0  0  0  0  0  0  0  0  0
    0.9750    0.4458    0.0000 C   0  0  0  0  0  0  0  0  0  0  0  0
    4.9250   -4.0250    0.0000 O   0  0  0  0  0  0  0  0  0  0  0  0
    4.9250   -1.1375    0.0000 O   0  0  0  0  0  0  0  0  0  0  0  0
    4.7917    1.2333    0.0000 O   0  0  0  0  0  0  0  0  0  0  0  0
    2.6042   -1.8917    0.0000 O   0  0  0  0  0  0  0  0  0  0  0  0
    0.2542   -0.7917    0.0000 C   0  0  0  0  0  0  0  0  0  0  0  0
    5.0750   -0.0542    0.0000 O   0  0  0  0  0  0  0  0  0  0  0  0
    0.9750   -0.3792    0.0000 C   0  0  0  0  0  0  0  0  0  0  0  0
    3.2042    1.6958    0.0000 C   0  0  0  0  0  0  0  0  0  0  0  0
    6.0167    0.0583    0.0000 C   0  0  0  0  0  0  0  0  0  0  0  0
  2  1  2  0  0  0  0
  3 12  1  0  0  0  0
  4  5  1  0  0  0  0
  5  1  1  0  0  0  0
  6  2  1  0  0  0  0
  7  1  1  0  0  0  0
  8  3  1  0  0  0  0
  9  3  1  0  0  0  0
 10  2  1  0  0  0  0
 11  7  1  0  0  0  0
 12 11  1  0  0  0  0
 13 19  1  0  0  0  0
 14  4  1  0  0  0  0
 15 27  1  0  0  0  0
 16 13  1  0  0  0  0
 17 15  1  0  0  0  0
 18 16  1  0  0  0  0
 19 22  2  0  0  0  0
 20  9  1  0  0  0  0
 21  8  1  0  0  0  0
 22 14  1  0  0  0  0
 23  9  2  0  0  0  0
 24  8  2  0  0  0  0
 25 10  2  0  0  0  0
 26 11  2  0  0  0  0
 27 29  2  0  0  0  0
 28 10  1  0  0  0  0
 29 22  1  0  0  0  0
 30  6  1  0  0  0  0
 31 28  1  0  0  0  0
  4  6  2  0  0  0  0
 21 20  1  0  0  0  0
 13 15  2  0  0  0  0
 17 18  1  0  0  0  0
M  END
> <IDNUMBER>
F0526-2106

> <Chemical_Name>
methyl 5-[(2H-1,3-benzodioxol-5-yl)methyl]-2-[2-(2,5-dioxopyrrolidin-1-yl)acetamido]-4-methylthiophene-3-carboxylate

> <CAS>
476367-00-7

> <PriceCoeff>
1.00

> <MW>
444.46

> <Description>
solid

> <FSP3>
0.33

> <clogP>
3.26

> <TPSA>
139.48

> <Acceptor>
7

> <Donor>
1

> <RotBonds>
7

> <HAC>
31

> <Collection>
General

$$$$
F2635-0575
  -ISIS-  06222321152D

 27 30  0  0  0  0  0  0  0  0999 V2000
    1.8542   -1.5042    0.0000 C   0  0  0  0  0  0  0  0  0  0  0  0
    3.6875   -3.1542    0.0000 N   0  0  3  0  0  0  0  0  0  0  0  0
    2.6417   -1.2500    0.0000 N   0  0  3  0  0  0  0  0  0  0  0  0
    1.6000   -2.2875    0.0000 N   0  0  0  0  0  0  0  0  0  0  0  0
    1.1917   -1.0167    0.0000 S   0  0  0  0  0  0  0  0  0  0  0  0
    3.2500   -1.8042    0.0000 C   0  0  0  0  0  0  0  0  0  0  0  0
    3.0750   -2.6042    0.0000 C   0  0  0  0  0  0  0  0  0  0  0  0
    4.5042   -3.0750    0.0000 C   0  0  0  0  0  0  0  0  0  0  0  0
    3.5125   -3.9625    0.0000 C   0  0  0  0  0  0  0  0  0  0  0  0
    0.7792   -2.2875    0.0000 C   0  0  0  0  0  0  0  0  0  0  0  0
    0.5250   -1.5042    0.0000 C   0  0  0  0  0  0  0  0  0  0  0  0
    2.8167   -0.4500    0.0000 C   0  0  0  0  0  0  0  0  0  0  0  0
    4.0375   -1.5500    0.0000 O   0  0  0  0  0  0  0  0  0  0  0  0
    4.8375   -3.8292    0.0000 C   0  0  0  0  0  0  0  0  0  0  0  0
    4.2292   -4.3667    0.0000 C   0  0  0  0  0  0  0  0  0  0  0  0
    4.9167   -2.3542    0.0000 O   0  0  0  0  0  0  0  0  0  0  0  0
    2.7542   -4.3000    0.0000 O   0  0  0  0  0  0  0  0  0  0  0  0
    3.7792    0.6083    0.0000 N   0  0  0  0  0  0  0  0  0  0  0  0
    3.6042   -0.1917    0.0000 C   0  0  0  0  0  0  0  0  0  0  0  0
    0.2250   -2.8917    0.0000 C   0  0  0  0  0  0  0  0  0  0  0  0
   -0.2833   -1.3292    0.0000 C   0  0  0  0  0  0  0  0  0  0  0  0
    4.5667    0.8583    0.0000 C   0  0  0  0  0  0  0  0  0  0  0  0
    4.2125   -0.7500    0.0000 C   0  0  0  0  0  0  0  0  0  0  0  0
    5.1750    0.3083    0.0000 C   0  0  0  0  0  0  0  0  0  0  0  0
   -0.8333   -1.9417    0.0000 C   0  0  0  0  0  0  0  0  0  0  0  0
   -0.5750   -2.7167    0.0000 C   0  0  0  0  0  0  0  0  0  0  0  0
    4.9917   -0.5000    0.0000 C   0  0  0  0  0  0  0  0  0  0  0  0
  2  7  1  0  0  0  0
  3  1  1  0  0  0  0
  4  1  2  0  0  0  0
  5  1  1  0  0  0  0
  6  3  1  0  0  0  0
  7  6  1  0  0  0  0
  8  2  1  0  0  0  0
  9  2  1  0  0  0  0
 10  4  1  0  0  0  0
 11  5  1  0  0  0  0
 12  3  1  0  0  0  0
 13  6  2  0  0  0  0
 14  8  1  0  0  0  0
 15  9  1  0  0  0  0
 16  8  2  0  0  0  0
 17  9  2  0  0  0  0
 18 19  1  0  0  0  0
 19 12  1  0  0  0  0
 20 10  1  0  0  0  0
 21 11  1  0  0  0  0
 22 18  2  0  0  0  0
 23 19  2  0  0  0  0
 24 27  2  0  0  0  0
 25 21  2  0  0  0  0
 26 20  2  0  0  0  0
 27 23  1  0  0  0  0
 10 11  2  0  0  0  0
 25 26  1  0  0  0  0
 22 24  1  0  0  0  0
 14 15  1  0  0  0  0
M  END
> <IDNUMBER>
F2635-0575

> <Chemical_Name>
N-(1,3-benzothiazol-2-yl)-2-(2,5-dioxopyrrolidin-1-yl)-N-[(pyridin-2-yl)methyl]acetamide

> <CAS>
886904-54-7

> <PriceCoeff>
1.00

> <MW>
380.42

> <Description>
solid

> <FSP3>
0.21

> <clogP>
0.96

> <TPSA>
111.71

> <Acceptor>
5

> <Donor>
1

> <RotBonds>
6

> <HAC>
27

> <Collection>
General

$$$$
F2738-1339
  -ISIS-  06222321152D

 28 31  0  0  0  0  0  0  0  0999 V2000
   -3.1583    3.3958    0.0000 C   0  0  0  0  0  0  0  0  0  0  0  0
   -6.0042    3.3958    0.0000 N   0  0  3  0  0  0  0  0  0  0  0  0
   -3.8708    3.8000    0.0000 N   0  0  3  0  0  0  0  0  0  0  0  0
   -2.4083    3.7333    0.0000 N   0  0  0  0  0  0  0  0  0  0  0  0
   -3.0833    2.5833    0.0000 S   0  0  0  0  0  0  0  0  0  0  0  0
   -4.5833    3.3958    0.0000 C   0  0  0  0  0  0  0  0  0  0  0  0
   -5.3083    3.8083    0.0000 C   0  0  0  0  0  0  0  0  0  0  0  0
   -6.7542    3.7333    0.0000 C   0  0  0  0  0  0  0  0  0  0  0  0
   -6.0792    2.5708    0.0000 C   0  0  0  0  0  0  0  0  0  0  0  0
   -2.2708    2.4083    0.0000 C   0  0  0  0  0  0  0  0  0  0  0  0
   -1.8583    3.1208    0.0000 C   0  0  0  0  0  0  0  0  0  0  0  0
   -1.8583    1.6875    0.0000 C   0  0  0  0  0  0  0  0  0  0  0  0
   -3.8708    4.6167    0.0000 C   0  0  0  0  0  0  0  0  0  0  0  0
   -4.5833    2.5708    0.0000 O   0  0  0  0  0  0  0  0  0  0  0  0
   -7.3042    3.1083    0.0000 C   0  0  0  0  0  0  0  0  0  0  0  0
   -6.8917    2.3958    0.0000 C   0  0  0  0  0  0  0  0  0  0  0  0
   -6.9292    4.5125    0.0000 O   0  0  0  0  0  0  0  0  0  0  0  0
   -5.4833    2.0250    0.0000 O   0  0  0  0  0  0  0  0  0  0  0  0
   -2.5875    4.6375    0.0000 N   0  0  0  0  0  0  0  0  0  0  0  0
   -1.0333    3.1208    0.0000 C   0  0  0  0  0  0  0  0  0  0  0  0
   -1.0333    1.6833    0.0000 C   0  0  0  0  0  0  0  0  0  0  0  0
   -3.1583    5.0292    0.0000 C   0  0  0  0  0  0  0  0  0  0  0  0
   -0.6333    2.4000    0.0000 C   0  0  0  0  0  0  0  0  0  0  0  0
   -0.6208    0.9708    0.0000 Cl  0  0  0  0  0  0  0  0  0  0  0  0
   -1.7458    5.0167    0.0000 C   0  0  0  0  0  0  0  0  0  0  0  0
   -3.1583    5.8417    0.0000 C   0  0  0  0  0  0  0  0  0  0  0  0
   -1.7375    5.8417    0.0000 C   0  0  0  0  0  0  0  0  0  0  0  0
   -2.4500    6.2542    0.0000 C   0  0  0  0  0  0  0  0  0  0  0  0
  2  7  1  0  0  0  0
  3  1  1  0  0  0  0
  4  1  2  0  0  0  0
  5  1  1  0  0  0  0
  6  3  1  0  0  0  0
  7  6  1  0  0  0  0
  8  2  1  0  0  0  0
  9  2  1  0  0  0  0
 10  5  1  0  0  0  0
 11  4  1  0  0  0  0
 12 10  1  0  0  0  0
 13  3  1  0  0  0  0
 14  6  2  0  0  0  0
 15  8  1  0  0  0  0
 16  9  1  0  0  0  0
 17  8  2  0  0  0  0
 18  9  2  0  0  0  0
 19 22  2  0  0  0  0
 20 11  1  0  0  0  0
 21 12  2  0  0  0  0
 22 13  1  0  0  0  0
 23 20  2  0  0  0  0
 24 21  1  0  0  0  0
 25 19  1  0  0  0  0
 26 22  1  0  0  0  0
 27 28  1  0  0  0  0
 28 26  2  0  0  0  0
 10 11  2  0  0  0  0
 23 21  1  0  0  0  0
 27 25  2  0  0  0  0
 15 16  1  0  0  0  0
M  END
> <IDNUMBER>
F2738-1339

> <Chemical_Name>
N-(6-chloro-1,3-benzothiazol-2-yl)-2-(2,5-dioxopyrrolidin-1-yl)-N-[(pyridin-2-yl)methyl]acetamide

> <CAS>
922673-95-8

> <PriceCoeff>
1.00

> <MW>
414.87

> <Description>
solid

> <FSP3>
0.21

> <clogP>
1.70

> <TPSA>
111.71

> <Acceptor>
5

> <Donor>
1

> <RotBonds>
6

> <HAC>
28

> <Collection>
General

$$$$
F0466-0002
  -ISIS-  06222321452D

 28 31  0  0  0  0  0  0  0  0999 V2000
   -1.9125   -0.4000    0.0000 C   0  0  0  0  0  0  0  0  0  0  0  0
   -2.8958   -1.9667    0.0000 N   0  0  3  0  0  0  0  0  0  0  0  0
   -2.2708   -0.9000    0.0000 N   0  0  0  0  0  0  0  0  0  0  0  0
   -1.2958   -0.4292    0.0000 N   0  0  0  0  0  0  0  0  0  0  0  0
   -2.2708    0.1208    0.0000 S   0  0  0  0  0  0  0  0  0  0  0  0
   -2.2708   -2.0042    0.0000 C   0  0  0  0  0  0  0  0  0  0  0  0
   -0.9958   -0.9667    0.0000 C   0  0  0  0  0  0  0  0  0  0  0  0
   -3.1708   -1.4042    0.0000 C   0  0  0  0  0  0  0  0  0  0  0  0
   -3.3500   -2.4000    0.0000 C   0  0  0  0  0  0  0  0  0  0  0  0
   -2.8708   -0.0667    0.0000 C   0  0  0  0  0  0  0  0  0  0  0  0
   -2.8708   -0.7000    0.0000 C   0  0  0  0  0  0  0  0  0  0  0  0
   -1.9500   -1.4667    0.0000 C   0  0  0  0  0  0  0  0  0  0  0  0
   -1.3333   -1.5042    0.0000 C   0  0  0  0  0  0  0  0  0  0  0  0
   -3.4125    0.2458    0.0000 C   0  0  0  0  0  0  0  0  0  0  0  0
   -0.3708   -1.0042    0.0000 O   0  0  0  0  0  0  0  0  0  0  0  0
   -3.8708   -2.1042    0.0000 C   0  0  0  0  0  0  0  0  0  0  0  0
   -3.7958   -1.5000    0.0000 C   0  0  0  0  0  0  0  0  0  0  0  0
   -2.8958   -0.8292    0.0000 O   0  0  0  0  0  0  0  0  0  0  0  0
   -3.2708   -3.0292    0.0000 O   0  0  0  0  0  0  0  0  0  0  0  0
   -3.4125   -1.0042    0.0000 C   0  0  0  0  0  0  0  0  0  0  0  0
   -3.9583   -0.0667    0.0000 C   0  0  0  0  0  0  0  0  0  0  0  0
   -3.9583   -0.7000    0.0000 C   0  0  0  0  0  0  0  0  0  0  0  0
   -1.9958   -2.5667    0.0000 C   0  0  0  0  0  0  0  0  0  0  0  0
   -4.4958    0.2625    0.0000 O   0  0  0  0  0  0  0  0  0  0  0  0
   -1.0333   -2.0667    0.0000 C   0  0  0  0  0  0  0  0  0  0  0  0
   -1.3708   -2.6000    0.0000 C   0  0  0  0  0  0  0  0  0  0  0  0
   -4.4958    0.8833    0.0000 C   0  0  0  0  0  0  0  0  0  0  0  0
   -5.0333    1.1833    0.0000 C   0  0  0  0  0  0  0  0  0  0  0  0
  2  6  1  0  0  0  0
  3  1  2  0  0  0  0
  4  1  1  0  0  0  0
  5  1  1  0  0  0  0
  6 12  2  0  0  0  0
  7  4  1  0  0  0  0
  8  2  1  0  0  0  0
  9  2  1  0  0  0  0
 10  5  1  0  0  0  0
 11  3  1  0  0  0  0
 12 13  1  0  0  0  0
 13  7  1  0  0  0  0
 14 10  1  0  0  0  0
 15  7  2  0  0  0  0
 16  9  1  0  0  0  0
 17  8  1  0  0  0  0
 18  8  2  0  0  0  0
 19  9  2  0  0  0  0
 20 11  1  0  0  0  0
 21 14  2  0  0  0  0
 22 20  2  0  0  0  0
 23 26  2  0  0  0  0
 24 21  1  0  0  0  0
 25 13  2  0  0  0  0
 26 25  1  0  0  0  0
 27 24  1  0  0  0  0
 28 27  1  0  0  0  0
 11 10  2  0  0  0  0
 21 22  1  0  0  0  0
  6 23  1  0  0  0  0
 17 16  1  0  0  0  0
M  END
> <IDNUMBER>
F0466-0002

> <Chemical_Name>
3-(2,5-dioxopyrrolidin-1-yl)-N-(6-ethoxy-1,3-benzothiazol-2-yl)benzamide

> <CAS>
476321-52-5

> <PriceCoeff>
1.00

> <MW>
395.43

> <Description>
solid

> <FSP3>
0.20

> <clogP>
2.45

> <TPSA>
116.84

> <Acceptor>
5

> <Donor>
1

> <RotBonds>
5

> <HAC>
28

> <Collection>
General

$$$$
F3095-3044
  -ISIS-  06222321462D

 22 23  0  0  0  0  0  0  0  0999 V2000
    0.7542    0.7125    0.0000 N   0  0  3  0  0  0  0  0  0  0  0  0
    0.0500    1.1208    0.0000 C   0  0  0  0  0  0  0  0  0  0  0  0
   -0.6500    0.7000    0.0000 C   0  0  0  0  0  0  0  0  0  0  0  0
   -2.8000   -0.5292    0.0000 C   0  0  0  0  0  0  0  0  0  0  0  0
   -1.3708    1.1125    0.0000 C   0  0  0  0  0  0  0  0  0  0  0  0
   -3.5125   -0.1042    0.0000 C   0  0  0  0  0  0  0  0  0  0  0  0
    0.7542   -0.0917    0.0000 C   0  0  0  0  0  0  0  0  0  0  0  0
    1.4667    1.1208    0.0000 C   0  0  0  0  0  0  0  0  0  0  0  0
    0.0500    1.9458    0.0000 O   0  0  0  0  0  0  0  0  0  0  0  0
   -2.0833   -0.1042    0.0000 C   0  0  0  0  0  0  0  0  0  0  0  0
   -2.0833    0.7000    0.0000 C   0  0  0  0  0  0  0  0  0  0  0  0
   -3.5125    0.7000    0.0000 C   0  0  0  0  0  0  0  0  0  0  0  0
   -2.8000    1.1125    0.0000 C   0  0  0  0  0  0  0  0  0  0  0  0
   -2.8000   -1.3500    0.0000 O   0  0  0  0  0  0  0  0  0  0  0  0
    2.1875    0.7125    0.0000 C   0  0  0  0  0  0  0  0  0  0  0  0
    1.4667   -0.5042    0.0000 C   0  0  0  0  0  0  0  0  0  0  0  0
   -4.2208   -0.5292    0.0000 O   0  0  0  0  0  0  0  0  0  0  0  0
    2.1875   -0.0917    0.0000 C   0  0  3  0  0  0  0  0  0  0  0  0
   -4.9458   -0.1042    0.0000 C   0  0  0  0  0  0  0  0  0  0  0  0
   -3.5125   -1.7542    0.0000 C   0  0  0  0  0  0  0  0  0  0  0  0
    2.9000   -0.5042    0.0000 C   0  0  0  0  0  0  0  0  0  0  0  0
   -5.6583   -0.5167    0.0000 C   0  0  0  0  0  0  0  0  0  0  0  0
  2  1  1  0  0  0  0
  3  2  1  0  0  0  0
  4 10  2  0  0  0  0
  5  3  2  0  0  0  0
  6 12  2  0  0  0  0
  7  1  1  0  0  0  0
  8  1  1  0  0  0  0
  9  2  2  0  0  0  0
 10 11  1  0  0  0  0
 11  5  1  0  0  0  0
 12 13  1  0  0  0  0
 13 11  2  0  0  0  0
 14  4  1  0  0  0  0
 15  8  1  0  0  0  0
 16  7  1  0  0  0  0
 17  6  1  0  0  0  0
 18 15  1  0  0  0  0
 19 17  1  0  0  0  0
 20 14  1  0  0  0  0
 21 18  1  0  0  0  0
 22 19  1  0  0  0  0
 18 16  1  0  0  0  0
  6  4  1  0  0  0  0
M  END
> <IDNUMBER>
F3095-3044

> <Chemical_Name>
(2E)-3-(4-ethoxy-3-methoxyphenyl)-1-(4-methylpiperidin-1-yl)prop-2-en-1-one

> <CAS>
302807-70-1

> <PriceCoeff>
1.00

> <MW>
303.40

> <Description>
solid

> <FSP3>
0.50

> <clogP>
3.60

> <TPSA>
38.77

> <Acceptor>
3

> <Donor>
0

> <RotBonds>
6

> <HAC>
22

> <Collection>
General

> <Reference_compound>
CHEMBL43185

> <Similarity>
0.8040

$$$$
F1822-0285
  -ISIS-  06222321142D

 26 29  0  0  0  0  0  0  0  0999 V2000
   -5.9708    3.3833    0.0000 C   0  0  0  0  0  0  0  0  0  0  0  0
   -1.7250    5.0167    0.0000 N   0  0  3  0  0  0  0  0  0  0  0  0
   -6.0417    2.5583    0.0000 N   0  0  0  0  0  0  0  0  0  0  0  0
   -5.2708    3.7958    0.0000 N   0  0  0  0  0  0  0  0  0  0  0  0
   -6.8542    2.3833    0.0000 C   0  0  0  0  0  0  0  0  0  0  0  0
   -6.7167    3.7208    0.0000 S   0  0  0  0  0  0  0  0  0  0  0  0
   -4.5833    3.3958    0.0000 C   0  0  0  0  0  0  0  0  0  0  0  0
   -1.6708    5.8417    0.0000 C   0  0  0  0  0  0  0  0  0  0  0  0
   -0.9625    4.7167    0.0000 C   0  0  0  0  0  0  0  0  0  0  0  0
   -7.2750    3.1083    0.0000 C   0  0  0  0  0  0  0  0  0  0  0  0
   -2.4458    4.6042    0.0000 C   0  0  0  0  0  0  0  0  0  0  0  0
   -3.8708    3.8000    0.0000 C   0  0  0  0  0  0  0  0  0  0  0  0
   -7.2667    1.6583    0.0000 C   0  0  0  0  0  0  0  0  0  0  0  0
   -4.5833    2.5958    0.0000 O   0  0  0  0  0  0  0  0  0  0  0  0
   -0.4458    5.3417    0.0000 C   0  0  0  0  0  0  0  0  0  0  0  0
   -0.8625    6.0417    0.0000 C   0  0  0  0  0  0  0  0  0  0  0  0
   -0.7625    3.9250    0.0000 O   0  0  0  0  0  0  0  0  0  0  0  0
   -2.3083    6.3917    0.0000 O   0  0  0  0  0  0  0  0  0  0  0  0
   -2.4500    3.8000    0.0000 C   0  0  0  0  0  0  0  0  0  0  0  0
   -3.1583    5.0292    0.0000 C   0  0  0  0  0  0  0  0  0  0  0  0
   -3.8708    4.6250    0.0000 C   0  0  0  0  0  0  0  0  0  0  0  0
   -3.1625    3.3958    0.0000 C   0  0  0  0  0  0  0  0  0  0  0  0
   -6.8542    0.9708    0.0000 Br  0  0  0  0  0  0  0  0  0  0  0  0
   -8.1167    3.0958    0.0000 C   0  0  0  0  0  0  0  0  0  0  0  0
   -8.5167    2.3708    0.0000 C   0  0  0  0  0  0  0  0  0  0  0  0
   -8.0917    1.6458    0.0000 C   0  0  0  0  0  0  0  0  0  0  0  0
  2 11  1  0  0  0  0
  3  1  2  0  0  0  0
  4  1  1  0  0  0  0
  5  3  1  0  0  0  0
  6  1  1  0  0  0  0
  7  4  1  0  0  0  0
  8  2  1  0  0  0  0
  9  2  1  0  0  0  0
 10  6  1  0  0  0  0
 11 19  2  0  0  0  0
 12  7  1  0  0  0  0
 13  5  1  0  0  0  0
 14  7  2  0  0  0  0
 15  9  1  0  0  0  0
 16  8  1  0  0  0  0
 17  9  2  0  0  0  0
 18  8  2  0  0  0  0
 19 22  1  0  0  0  0
 20 21  2  0  0  0  0
 21 12  1  0  0  0  0
 22 12  2  0  0  0  0
 23 13  1  0  0  0  0
 24 10  1  0  0  0  0
 25 24  2  0  0  0  0
 26 13  2  0  0  0  0
 10  5  2  0  0  0  0
 26 25  1  0  0  0  0
 11 20  1  0  0  0  0
 15 16  1  0  0  0  0
M  END
> <IDNUMBER>
F1822-0285

> <Chemical_Name>
N-(4-bromo-1,3-benzothiazol-2-yl)-4-(2,5-dioxopyrrolidin-1-yl)benzamide

> <CAS>
892857-77-1

> <PriceCoeff>
1.00

> <MW>
430.28

> <Description>
solid

> <FSP3>
0.11

> <clogP>
2.49

> <TPSA>
107.61

> <Acceptor>
4

> <Donor>
1

> <RotBonds>
3

> <HAC>
26

> <Collection>
General

$$$$
F0807-0406
  -ISIS-  06222321142D

 14 15  0  0  0  0  0  0  0  0999 V2000
   -1.3500    0.1625    0.0000 C   0  0  0  0  0  0  0  0  0  0  0  0
   -1.3500    1.0458    0.0000 C   0  0  0  0  0  0  0  0  0  0  0  0
   -2.1125   -0.3000    0.0000 N   0  0  3  0  0  0  0  0  0  0  0  0
   -2.8708    1.0458    0.0000 N   0  0  3  0  0  0  0  0  0  0  0  0
   -2.8708    0.1625    0.0000 C   0  0  0  0  0  0  0  0  0  0  0  0
   -2.1125    1.4833    0.0000 C   0  0  0  0  0  0  0  0  0  0  0  0
   -0.5333   -0.1167    0.0000 N   0  0  0  0  0  0  0  0  0  0  0  0
   -0.5333    1.3000    0.0000 N   0  0  0  0  0  0  0  0  0  0  0  0
   -0.0333    0.6000    0.0000 C   0  0  0  0  0  0  0  0  0  0  0  0
   -3.6500   -0.3000    0.0000 O   0  0  0  0  0  0  0  0  0  0  0  0
   -2.1125    2.3625    0.0000 O   0  0  0  0  0  0  0  0  0  0  0  0
   -2.1125   -1.1792    0.0000 C   0  0  0  0  0  0  0  0  0  0  0  0
    0.8667    0.6000    0.0000 Br  0  0  0  0  0  0  0  0  0  0  0  0
   -3.6500    1.4833    0.0000 C   0  0  0  0  0  0  0  0  0  0  0  0
  2  1  2  0  0  0  0
  3  1  1  0  0  0  0
  4  5  1  0  0  0  0
  5  3  1  0  0  0  0
  6  2  1  0  0  0  0
  7  1  1  0  0  0  0
  8  2  1  0  0  0  0
  9  7  1  0  0  0  0
 10  5  2  0  0  0  0
 11  6  2  0  0  0  0
 12  3  1  0  0  0  0
 13  9  1  0  0  0  0
 14  4  1  0  0  0  0
  9  8  2  0  0  0  0
  4  6  1  0  0  0  0
M  END
> <IDNUMBER>
F0807-0406

> <Chemical_Name>
8-bromo-1,3-dimethyl-2,3,6,9-tetrahydro-1H-purine-2,6-dione

> <CAS>
10381-75-6

> <PriceCoeff>
1.00

> <MW>
259.06

> <Description>
solid

> <FSP3>
0.29

> <clogP>
0.93

> <TPSA>
69.30

> <Acceptor>
4

> <Donor>
2

> <RotBonds>
0

> <HAC>
14

> <Collection>
General

> <Reference_compound>
CHEMBL190

> <Similarity>
0.8890

$$$$
F1799-0246
  -ISIS-  06222321142D

 24 27  0  0  0  0  0  0  0  0999 V2000
    1.0792    0.0958    0.0000 N   0  0  3  0  0  0  0  0  0  0  0  0
    0.8500    0.5833    0.0000 C   0  0  0  0  0  0  0  0  0  0  0  0
   -0.0458    0.9458    0.0000 N   0  0  3  0  0  0  0  0  0  0  0  0
    0.3167    0.5125    0.0000 C   0  0  3  0  0  0  0  0  0  0  0  0
    0.6792   -0.2875    0.0000 C   0  0  0  0  0  0  0  0  0  0  0  0
   -0.4708    1.2958    0.0000 C   0  0  0  0  0  0  0  0  0  0  0  0
   -0.9125    1.0208    0.0000 N   0  0  0  0  0  0  0  0  0  0  0  0
    0.2042   -0.0042    0.0000 C   0  0  0  0  0  0  0  0  0  0  0  0
   -0.2458    0.4458    0.0000 C   0  0  0  0  0  0  0  0  0  0  0  0
   -0.8000    0.4958    0.0000 C   0  0  0  0  0  0  0  0  0  0  0  0
    1.6000    0.0958    0.0000 C   0  0  0  0  0  0  0  0  0  0  0  0
    1.1042    1.0833    0.0000 O   0  0  0  0  0  0  0  0  0  0  0  0
    0.7500   -0.8292    0.0000 O   0  0  0  0  0  0  0  0  0  0  0  0
    1.8792   -0.3792    0.0000 C   0  0  0  0  0  0  0  0  0  0  0  0
    1.8792    0.5625    0.0000 C   0  0  0  0  0  0  0  0  0  0  0  0
   -0.4625    1.8625    0.0000 C   0  0  0  0  0  0  0  0  0  0  0  0
    2.7042    0.0708    0.0000 C   0  0  0  0  0  0  0  0  0  0  0  0
    2.4167   -0.3667    0.0000 C   0  0  0  0  0  0  0  0  0  0  0  0
    2.4292    0.5625    0.0000 C   0  0  0  0  0  0  0  0  0  0  0  0
    3.2542    0.0708    0.0000 Br  0  0  0  0  0  0  0  0  0  0  0  0
   -0.0125   -0.0292    0.0000 C   0  0  0  0  0  0  0  0  0  0  0  0
   -1.1125    0.0500    0.0000 C   0  0  0  0  0  0  0  0  0  0  0  0
   -0.3208   -0.4792    0.0000 C   0  0  0  0  0  0  0  0  0  0  0  0
   -0.8833   -0.4292    0.0000 C   0  0  0  0  0  0  0  0  0  0  0  0
  2  1  1  0  0  0  0
  3  4  1  0  0  0  0
  4  2  1  0  0  0  0
  5  1  1  0  0  0  0
  6  3  1  0  0  0  0
  7  6  2  0  0  0  0
  8  5  1  0  0  0  0
  9  3  1  0  0  0  0
 10  9  2  0  0  0  0
 11  1  1  0  0  0  0
 12  2  2  0  0  0  0
 13  5  2  0  0  0  0
 14 11  2  0  0  0  0
 15 11  1  0  0  0  0
 16  6  1  0  0  0  0
 17 19  1  0  0  0  0
 18 14  1  0  0  0  0
 19 15  2  0  0  0  0
 20 17  1  0  0  0  0
 21  9  1  0  0  0  0
 22 10  1  0  0  0  0
 23 21  2  0  0  0  0
 24 23  1  0  0  0  0
  4  8  1  0  0  0  0
 17 18  2  0  0  0  0
 10  7  1  0  0  0  0
 24 22  2  0  0  0  0
M  END
> <IDNUMBER>
F1799-0246

> <Chemical_Name>
1-(4-bromophenyl)-3-(2-methyl-1H-1,3-benzodiazol-1-yl)pyrrolidine-2,5-dione

> <CAS>
62955-53-7

> <PriceCoeff>
1.00

> <MW>
384.23

> <Description>
solid

> <FSP3>
0.17

> <clogP>
3.55

> <TPSA>
55.20

> <Acceptor>
3

> <Donor>
0

> <RotBonds>
2

> <HAC>
24

> <Collection>
General

$$$$
F0918-6267
  -ISIS-  06222321142D

 16 18  0  0  0  0  0  0  0  0999 V2000
   11.3125   -2.8625    0.0000 C   0  0  3  0  0  0  0  0  0  0  0  0
   13.3417   -0.8667    0.0000 N   0  0  0  0  0  0  0  0  0  0  0  0
    8.1292    4.0042    0.0000 C   0  0  3  0  0  0  0  0  0  0  0  0
   11.1625    1.5250    0.0000 C   0  0  3  0  0  0  0  0  0  0  0  0
   13.3417    1.9458    0.0000 C   0  0  0  0  0  0  0  0  0  0  0  0
    8.4917   -2.8625    0.0000 O   0  0  0  0  0  0  0  0  0  0  0  0
   11.3875    3.9625    0.0000 N   0  0  0  0  0  0  0  0  0  0  0  0
    6.5167    2.0208    0.0000 C   0  0  0  0  0  0  0  0  0  0  0  0
    6.5167   -0.8250    0.0000 C   0  0  0  0  0  0  0  0  0  0  0  0
   16.0000    3.0208    0.0000 S   0  0  0  0  0  0  0  0  0  0  0  0
   11.7625   -5.6417    0.0000 C   0  0  0  0  0  0  0  0  0  0  0  0
   13.2875    3.4208    0.0000 C   0  0  0  0  0  0  0  0  0  0  0  0
    4.0792    3.4208    0.0000 C   0  0  0  0  0  0  0  0  0  0  0  0
    4.0667   -2.2292    0.0000 C   0  0  0  0  0  0  0  0  0  0  0  0
    1.6417    2.0208    0.0000 C   0  0  0  0  0  0  0  0  0  0  0  0
    1.6250   -0.7792    0.0000 C   0  0  0  0  0  0  0  0  0  0  0  0
  2  1  1  0  0  0  0
  3  4  1  0  0  0  0
  4  1  1  0  0  0  0
  5  2  1  0  0  0  0
  6  1  1  0  0  0  0
  7  3  1  0  0  0  0
  8  9  1  0  0  0  0
  9  6  1  0  0  0  0
 10  5  2  0  0  0  0
 11  1  1  0  0  0  0
 12  4  1  0  0  0  0
 13  8  2  0  0  0  0
 14  9  2  0  0  0  0
 15 16  2  0  0  0  0
 16 14  1  0  0  0  0
  3  8  1  0  0  0  0
  7  5  1  0  0  0  0
 15 13  1  0  0  0  0
M  END
> <IDNUMBER>
F0918-6267

> <Chemical_Name>
9,13-dimethyl-8-oxa-10,12-diazatricyclo[7.3.1.0^{2,7}]trideca-2,4,6-triene-11-thione

> <CAS>
1005287-24-0

> <PriceCoeff>
1.00

> <MW>
234.32

> <Description>
solid

> <FSP3>
0.42

> <clogP>
1.95

> <TPSA>
65.38

> <Acceptor>
2

> <Donor>
2

> <RotBonds>
0

> <HAC>
16

> <Collection>
General

> <Reference_compound>
CHEMBL2252041

> <Similarity>
0.8070

$$$$
F2510-0331
  -ISIS-  06222321462D

 28 30  0  0  0  0  0  0  0  0999 V2000
   -2.9833    2.5583    0.0000 C   0  0  0  0  0  0  0  0  0  0  0  0
   -3.9958    3.5708    0.0000 C   0  0  0  0  0  0  0  0  0  0  0  0
   -2.2708    2.9833    0.0000 C   0  0  0  0  0  0  0  0  0  0  0  0
   -1.5583    2.5583    0.0000 C   0  0  0  0  0  0  0  0  0  0  0  0
   -3.7833    2.7750    0.0000 O   0  0  0  0  0  0  0  0  0  0  0  0
   -4.7958    3.7833    0.0000 C   0  0  0  0  0  0  0  0  0  0  0  0
   -5.3833    3.2083    0.0000 C   0  0  0  0  0  0  0  0  0  0  0  0
   -2.9833    1.7333    0.0000 C   0  0  0  0  0  0  0  0  0  0  0  0
    0.5292    1.7000    0.0000 C   0  0  0  0  0  0  0  0  0  0  0  0
   -5.1708    2.4000    0.0000 C   0  0  0  0  0  0  0  0  0  0  0  0
   -2.2708    1.3250    0.0000 O   0  0  0  0  0  0  0  0  0  0  0  0
   -1.5583    1.7333    0.0000 C   0  0  0  0  0  0  0  0  0  0  0  0
    1.1125    2.2875    0.0000 N   0  0  0  0  0  0  0  0  0  0  0  0
    0.7417    0.9083    0.0000 N   0  0  0  0  0  0  0  0  0  0  0  0
   -0.2625    1.9083    0.0000 S   0  0  0  0  0  0  0  0  0  0  0  0
   -3.4083    4.1417    0.0000 O   0  0  0  0  0  0  0  0  0  0  0  0
   -2.2708    3.8000    0.0000 O   0  0  0  0  0  0  0  0  0  0  0  0
   -4.3708    2.1875    0.0000 O   0  0  0  0  0  0  0  0  0  0  0  0
   -0.8458    1.3208    0.0000 C   0  0  0  0  0  0  0  0  0  0  0  0
   -5.7500    1.8208    0.0000 O   0  0  0  0  0  0  0  0  0  0  0  0
    2.1250    1.2833    0.0000 C   0  0  0  0  0  0  0  0  0  0  0  0
   -4.9958    4.5667    0.0000 C   0  0  0  0  0  0  0  0  0  0  0  0
   -6.1667    3.4208    0.0000 C   0  0  0  0  0  0  0  0  0  0  0  0
    1.5375    0.6958    0.0000 C   0  0  0  0  0  0  0  0  0  0  0  0
    1.9042    2.0833    0.0000 C   0  0  0  0  0  0  0  0  0  0  0  0
   -6.5292    2.0458    0.0000 C   0  0  0  0  0  0  0  0  0  0  0  0
   -6.3667    4.2042    0.0000 C   0  0  0  0  0  0  0  0  0  0  0  0
   -5.7875    4.7792    0.0000 C   0  0  0  0  0  0  0  0  0  0  0  0
  2  5  1  0  0  0  0
  3  1  1  0  0  0  0
  4  3  1  0  0  0  0
  5  1  1  0  0  0  0
  6  2  1  0  0  0  0
  7  6  1  0  0  0  0
  8  1  2  0  0  0  0
  9 15  1  0  0  0  0
 10  7  1  0  0  0  0
 11  8  1  0  0  0  0
 12 11  1  0  0  0  0
 13  9  2  0  0  0  0
 14  9  1  0  0  0  0
 15 19  1  0  0  0  0
 16  2  2  0  0  0  0
 17  3  2  0  0  0  0
 18 10  2  0  0  0  0
 19 12  1  0  0  0  0
 20 10  1  0  0  0  0
 21 24  1  0  0  0  0
 22  6  2  0  0  0  0
 23  7  2  0  0  0  0
 24 14  2  0  0  0  0
 25 13  1  0  0  0  0
 26 20  1  0  0  0  0
 27 28  2  0  0  0  0
 28 22  1  0  0  0  0
 12  4  2  0  0  0  0
 23 27  1  0  0  0  0
 25 21  2  0  0  0  0
M  END
> <IDNUMBER>
F2510-0331

> <Chemical_Name>
1-methyl 2-{4-oxo-6-[(pyrimidin-2-ylsulfanyl)methyl]-4H-pyran-3-yl} benzene-1,2-dicarboxylate

> <CAS>
877638-23-8

> <PriceCoeff>
1.00

> <MW>
398.39

> <Description>
solid

> <FSP3>
0.11

> <clogP>
1.28

> <TPSA>
129.98

> <Acceptor>
8

> <Donor>
0

> <RotBonds>
8

> <HAC>
28

> <Collection>
General

$$$$
F1721-0084
  -ISIS-  06222321142D

 22 24  0  0  0  0  0  0  0  0999 V2000
    2.2417    0.7458    0.0000 C   0  0  0  0  0  0  0  0  0  0  0  0
    2.4417    1.4208    0.0000 N   0  0  0  0  0  0  0  0  0  0  0  0
    2.8292    0.3458    0.0000 O   0  0  0  0  0  0  0  0  0  0  0  0
    3.1542    1.4458    0.0000 N   0  0  0  0  0  0  0  0  0  0  0  0
    1.5792    0.5083    0.0000 C   0  0  0  0  0  0  0  0  0  0  0  0
    3.3917    0.7708    0.0000 C   0  0  0  0  0  0  0  0  0  0  0  0
    1.4542   -0.1875    0.0000 C   0  0  0  0  0  0  0  0  0  0  0  0
    4.2292   -0.1167    0.0000 O   0  0  0  0  0  0  0  0  0  0  0  0
    4.9042   -0.3167    0.0000 C   0  0  0  0  0  0  0  0  0  0  0  0
    4.0667    0.5708    0.0000 C   0  0  0  0  0  0  0  0  0  0  0  0
    5.4167    0.1708    0.0000 C   0  0  0  0  0  0  0  0  0  0  0  0
    1.9917   -0.6417    0.0000 Cl  0  0  0  0  0  0  0  0  0  0  0  0
    1.0417    0.9708    0.0000 C   0  0  0  0  0  0  0  0  0  0  0  0
    5.2500    0.8583    0.0000 O   0  0  0  0  0  0  0  0  0  0  0  0
    0.7875   -0.4250    0.0000 C   0  0  0  0  0  0  0  0  0  0  0  0
    5.0667   -1.0042    0.0000 C   0  0  0  0  0  0  0  0  0  0  0  0
    6.0917   -0.0292    0.0000 C   0  0  0  0  0  0  0  0  0  0  0  0
    5.7625    1.3458    0.0000 C   0  0  0  0  0  0  0  0  0  0  0  0
    0.3750    0.7333    0.0000 C   0  0  0  0  0  0  0  0  0  0  0  0
    5.7417   -1.2125    0.0000 C   0  0  0  0  0  0  0  0  0  0  0  0
    6.2542   -0.7250    0.0000 C   0  0  0  0  0  0  0  0  0  0  0  0
    0.2417    0.0333    0.0000 C   0  0  0  0  0  0  0  0  0  0  0  0
  2  1  2  0  0  0  0
  3  1  1  0  0  0  0
  4  2  1  0  0  0  0
  5  1  1  0  0  0  0
  6  3  1  0  0  0  0
  7  5  1  0  0  0  0
  8 10  1  0  0  0  0
  9  8  1  0  0  0  0
 10  6  1  0  0  0  0
 11  9  1  0  0  0  0
 12  7  1  0  0  0  0
 13  5  2  0  0  0  0
 14 11  1  0  0  0  0
 15  7  2  0  0  0  0
 16  9  2  0  0  0  0
 17 11  2  0  0  0  0
 18 14  1  0  0  0  0
 19 13  1  0  0  0  0
 20 16  1  0  0  0  0
 21 20  2  0  0  0  0
 22 19  2  0  0  0  0
  4  6  2  0  0  0  0
 15 22  1  0  0  0  0
 21 17  1  0  0  0  0
M  END
> <IDNUMBER>
F1721-0084

> <Chemical_Name>
2-(2-chlorophenyl)-5-[(2-methoxyphenoxy)methyl]-1,3,4-oxadiazole

> <CAS>
853752-00-8

> <PriceCoeff>
1.00

> <MW>
316.74

> <Description>
solid

> <FSP3>
0.12

> <clogP>
2.61

> <TPSA>
57.38

> <Acceptor>
5

> <Donor>
0

> <RotBonds>
5

> <HAC>
22

> <Collection>
General

> <Reference_compound>
CHEMBL2270340

> <Similarity>
0.9000

$$$$
F2738-2307
  -ISIS-  06222321152D

 30 33  0  0  0  0  0  0  0  0999 V2000
   -3.1500    3.3958    0.0000 C   0  0  0  0  0  0  0  0  0  0  0  0
   -2.4083    3.7333    0.0000 N   0  0  0  0  0  0  0  0  0  0  0  0
   -6.0042    3.3958    0.0000 N   0  0  3  0  0  0  0  0  0  0  0  0
   -3.8708    3.8000    0.0000 N   0  0  3  0  0  0  0  0  0  0  0  0
   -3.0708    2.5833    0.0000 S   0  0  0  0  0  0  0  0  0  0  0  0
   -1.8583    3.1250    0.0000 C   0  0  0  0  0  0  0  0  0  0  0  0
   -2.2583    2.4083    0.0000 C   0  0  0  0  0  0  0  0  0  0  0  0
   -4.5833    3.3958    0.0000 C   0  0  0  0  0  0  0  0  0  0  0  0
   -5.3083    3.8083    0.0000 C   0  0  0  0  0  0  0  0  0  0  0  0
   -6.7542    3.7333    0.0000 C   0  0  0  0  0  0  0  0  0  0  0  0
   -6.0792    2.5708    0.0000 C   0  0  0  0  0  0  0  0  0  0  0  0
   -3.8708    4.6167    0.0000 C   0  0  0  0  0  0  0  0  0  0  0  0
   -1.0333    3.1208    0.0000 C   0  0  0  0  0  0  0  0  0  0  0  0
   -1.8458    1.6958    0.0000 C   0  0  0  0  0  0  0  0  0  0  0  0
   -4.5833    2.5708    0.0000 O   0  0  0  0  0  0  0  0  0  0  0  0
   -7.3042    3.1083    0.0000 C   0  0  0  0  0  0  0  0  0  0  0  0
   -6.8917    2.3958    0.0000 C   0  0  0  0  0  0  0  0  0  0  0  0
   -6.9292    4.5125    0.0000 O   0  0  0  0  0  0  0  0  0  0  0  0
   -5.4833    2.0250    0.0000 O   0  0  0  0  0  0  0  0  0  0  0  0
   -2.4500    4.6042    0.0000 N   0  0  0  0  0  0  0  0  0  0  0  0
   -0.6250    2.4083    0.0000 C   0  0  0  0  0  0  0  0  0  0  0  0
   -1.0250    1.6875    0.0000 C   0  0  0  0  0  0  0  0  0  0  0  0
   -3.1583    5.0250    0.0000 C   0  0  0  0  0  0  0  0  0  0  0  0
   -0.6208    3.8208    0.0000 O   0  0  0  0  0  0  0  0  0  0  0  0
   -1.7375    5.0167    0.0000 C   0  0  0  0  0  0  0  0  0  0  0  0
   -2.2583    0.9875    0.0000 C   0  0  0  0  0  0  0  0  0  0  0  0
   -3.1583    5.8417    0.0000 C   0  0  0  0  0  0  0  0  0  0  0  0
   -1.0250    4.5292    0.0000 C   0  0  0  0  0  0  0  0  0  0  0  0
   -1.7375    5.8417    0.0000 C   0  0  0  0  0  0  0  0  0  0  0  0
   -2.4500    6.2542    0.0000 C   0  0  0  0  0  0  0  0  0  0  0  0
  2  1  2  0  0  0  0
  3  9  1  0  0  0  0
  4  1  1  0  0  0  0
  5  1  1  0  0  0  0
  6  2  1  0  0  0  0
  7  5  1  0  0  0  0
  8  4  1  0  0  0  0
  9  8  1  0  0  0  0
 10  3  1  0  0  0  0
 11  3  1  0  0  0  0
 12  4  1  0  0  0  0
 13  6  1  0  0  0  0
 14  7  1  0  0  0  0
 15  8  2  0  0  0  0
 16 10  1  0  0  0  0
 17 11  1  0  0  0  0
 18 10  2  0  0  0  0
 19 11  2  0  0  0  0
 20 23  2  0  0  0  0
 21 13  2  0  0  0  0
 22 14  2  0  0  0  0
 23 12  1  0  0  0  0
 24 13  1  0  0  0  0
 25 20  1  0  0  0  0
 26 14  1  0  0  0  0
 27 23  1  0  0  0  0
 28 24  1  0  0  0  0
 29 30  1  0  0  0  0
 30 27  2  0  0  0  0
  7  6  2  0  0  0  0
 21 22  1  0  0  0  0
 29 25  2  0  0  0  0
 16 17  1  0  0  0  0
M  END
> <IDNUMBER>
F2738-2307

> <Chemical_Name>
2-(2,5-dioxopyrrolidin-1-yl)-N-(4-methoxy-7-methyl-1,3-benzothiazol-2-yl)-N-[(pyridin-2-yl)methyl]acetamide

> <CAS>
922911-84-0

> <PriceCoeff>
1.00

> <MW>
424.47

> <Description>
solid

> <FSP3>
0.29

> <clogP>
1.76

> <TPSA>
120.94

> <Acceptor>
6

> <Donor>
1

> <RotBonds>
7

> <HAC>
30

> <Collection>
General

$$$$
F2510-0332
  -ISIS-  06222321442D

 29 31  0  0  0  0  0  0  0  0999 V2000
   -2.9833    2.5583    0.0000 C   0  0  0  0  0  0  0  0  0  0  0  0
   -3.9958    3.5708    0.0000 C   0  0  0  0  0  0  0  0  0  0  0  0
   -2.2708    2.9833    0.0000 C   0  0  0  0  0  0  0  0  0  0  0  0
   -1.5583    2.5583    0.0000 C   0  0  0  0  0  0  0  0  0  0  0  0
   -3.7833    2.7750    0.0000 O   0  0  0  0  0  0  0  0  0  0  0  0
   -4.7958    3.7833    0.0000 C   0  0  0  0  0  0  0  0  0  0  0  0
   -5.3833    3.2083    0.0000 C   0  0  0  0  0  0  0  0  0  0  0  0
    0.5292    1.7000    0.0000 C   0  0  0  0  0  0  0  0  0  0  0  0
   -2.9833    1.7333    0.0000 C   0  0  0  0  0  0  0  0  0  0  0  0
   -5.1708    2.4000    0.0000 C   0  0  0  0  0  0  0  0  0  0  0  0
    0.7417    0.9125    0.0000 N   0  0  0  0  0  0  0  0  0  0  0  0
   -1.5583    1.7333    0.0000 C   0  0  0  0  0  0  0  0  0  0  0  0
   -2.2708    1.3250    0.0000 O   0  0  0  0  0  0  0  0  0  0  0  0
    1.1125    2.2875    0.0000 N   0  0  0  0  0  0  0  0  0  0  0  0
   -0.2625    1.9083    0.0000 S   0  0  0  0  0  0  0  0  0  0  0  0
   -3.4083    4.1417    0.0000 O   0  0  0  0  0  0  0  0  0  0  0  0
   -2.2708    3.8000    0.0000 O   0  0  0  0  0  0  0  0  0  0  0  0
   -4.3708    2.1875    0.0000 O   0  0  0  0  0  0  0  0  0  0  0  0
    1.5375    0.7000    0.0000 C   0  0  0  0  0  0  0  0  0  0  0  0
   -0.8458    1.3208    0.0000 C   0  0  0  0  0  0  0  0  0  0  0  0
    1.9000    2.0833    0.0000 C   0  0  0  0  0  0  0  0  0  0  0  0
   -5.7500    1.8208    0.0000 O   0  0  0  0  0  0  0  0  0  0  0  0
    2.1167    1.2833    0.0000 C   0  0  0  0  0  0  0  0  0  0  0  0
   -4.9958    4.5667    0.0000 C   0  0  0  0  0  0  0  0  0  0  0  0
   -6.1667    3.4208    0.0000 C   0  0  0  0  0  0  0  0  0  0  0  0
    1.7542   -0.0917    0.0000 C   0  0  0  0  0  0  0  0  0  0  0  0
   -6.5292    2.0458    0.0000 C   0  0  0  0  0  0  0  0  0  0  0  0
   -5.7875    4.7792    0.0000 C   0  0  0  0  0  0  0  0  0  0  0  0
   -6.3667    4.2042    0.0000 C   0  0  0  0  0  0  0  0  0  0  0  0
  2  5  1  0  0  0  0
  3  1  1  0  0  0  0
  4  3  1  0  0  0  0
  5  1  1  0  0  0  0
  6  2  1  0  0  0  0
  7  6  1  0  0  0  0
  8 15  1  0  0  0  0
  9  1  2  0  0  0  0
 10  7  1  0  0  0  0
 11  8  1  0  0  0  0
 12 13  1  0  0  0  0
 13  9  1  0  0  0  0
 14  8  2  0  0  0  0
 15 20  1  0  0  0  0
 16  2  2  0  0  0  0
 17  3  2  0  0  0  0
 18 10  2  0  0  0  0
 19 11  2  0  0  0  0
 20 12  1  0  0  0  0
 21 14  1  0  0  0  0
 22 10  1  0  0  0  0
 23 21  2  0  0  0  0
 24  6  2  0  0  0  0
 25  7  2  0  0  0  0
 26 19  1  0  0  0  0
 27 22  1  0  0  0  0
 28 24  1  0  0  0  0
 29 28  2  0  0  0  0
  4 12  2  0  0  0  0
 25 29  1  0  0  0  0
 19 23  1  0  0  0  0
M  END
> <IDNUMBER>
F2510-0332

> <Chemical_Name>
1-methyl 2-(6-{[(4-methylpyrimidin-2-yl)sulfanyl]methyl}-4-oxo-4H-pyran-3-yl) benzene-1,2-dicarboxylate

> <CAS>
877638-25-0

> <PriceCoeff>
1.00

> <MW>
412.42

> <Description>
solid

> <FSP3>
0.15

> <clogP>
1.78

> <TPSA>
129.98

> <Acceptor>
8

> <Donor>
0

> <RotBonds>
8

> <HAC>
29

> <Collection>
General

$$$$
F0853-0315
  -ISIS-  06222321452D

 15 17  0  0  0  0  0  0  0  0999 V2000
    4.5667    1.4000    0.0000 C   0  0  0  0  0  0  0  0  0  0  0  0
    3.7292    2.5708    0.0000 N   0  0  0  0  0  0  0  0  0  0  0  0
    3.7292    0.2833    0.0000 N   0  0  0  0  0  0  0  0  0  0  0  0
    2.4250    2.1500    0.0000 C   0  0  0  0  0  0  0  0  0  0  0  0
    2.4250    0.7000    0.0000 C   0  0  0  0  0  0  0  0  0  0  0  0
    5.9667    1.4500    0.0000 C   0  0  0  0  0  0  0  0  0  0  0  0
    1.1667    2.8000    0.0000 C   0  0  0  0  0  0  0  0  0  0  0  0
    1.2125   -0.0000    0.0000 C   0  0  0  0  0  0  0  0  0  0  0  0
    6.7167    0.2333    0.0000 C   0  0  0  0  0  0  0  0  0  0  0  0
    6.6250    2.6208    0.0000 C   0  0  0  0  0  0  0  0  0  0  0  0
    0.0000    2.1000    0.0000 C   0  0  0  0  0  0  0  0  0  0  0  0
    0.0000    0.7000    0.0000 C   0  0  0  0  0  0  0  0  0  0  0  0
    8.0250    2.6208    0.0000 C   0  0  0  0  0  0  0  0  0  0  0  0
    8.1167    0.2333    0.0000 C   0  0  0  0  0  0  0  0  0  0  0  0
    8.7667    1.4500    0.0000 C   0  0  0  0  0  0  0  0  0  0  0  0
  2  1  2  0  0  0  0
  3  1  1  0  0  0  0
  4  2  1  0  0  0  0
  5  3  1  0  0  0  0
  6  1  1  0  0  0  0
  7  4  2  0  0  0  0
  8  5  2  0  0  0  0
  9  6  2  0  0  0  0
 10  6  1  0  0  0  0
 11  7  1  0  0  0  0
 12  8  1  0  0  0  0
 13 10  2  0  0  0  0
 14  9  1  0  0  0  0
 15 13  1  0  0  0  0
  5  4  1  0  0  0  0
 15 14  2  0  0  0  0
 12 11  2  0  0  0  0
M  END
> <IDNUMBER>
F0853-0315

> <Chemical_Name>
2-phenyl-1H-1,3-benzodiazole

> <CAS>
716-79-0

> <PriceCoeff>
1.00

> <MW>
194.23

> <Description>
solid

> <FSP3>
0.00

> <clogP>
3.66

> <TPSA>
28.68

> <Acceptor>
2

> <Donor>
2

> <RotBonds>
1

> <HAC>
15

> <Collection>
General

> <Reference_compound>
CHEMBL379376

> <Similarity>
0.8520

$$$$
F2645-0211
  -ISIS-  06222321462D

 29 32  0  0  0  0  0  0  0  0999 V2000
    0.4917    0.5083    0.0000 N   0  0  3  0  0  0  0  0  0  0  0  0
   -2.4583    2.8125    0.0000 C   0  0  0  0  0  0  0  0  0  0  0  0
   -3.1250    2.3333    0.0000 O   0  0  0  0  0  0  0  0  0  0  0  0
   -3.7958    2.8125    0.0000 C   0  0  0  0  0  0  0  0  0  0  0  0
   -3.5375    3.6083    0.0000 N   0  0  0  0  0  0  0  0  0  0  0  0
   -1.6750    2.5583    0.0000 N   0  0  0  0  0  0  0  0  0  0  0  0
   -2.7125    3.6083    0.0000 N   0  0  0  0  0  0  0  0  0  0  0  0
    0.4792    1.3458    0.0000 C   0  0  0  0  0  0  0  0  0  0  0  0
   -0.9625    2.9833    0.0000 C   0  0  0  0  0  0  0  0  0  0  0  0
    1.1417    0.0083    0.0000 C   0  0  0  0  0  0  0  0  0  0  0  0
   -0.2000    0.0583    0.0000 C   0  0  0  0  0  0  0  0  0  0  0  0
   -0.2333    1.7500    0.0000 C   0  0  0  0  0  0  0  0  0  0  0  0
   -0.2458    2.5708    0.0000 C   0  0  0  0  0  0  0  0  0  0  0  0
   -4.5833    2.5583    0.0000 C   0  0  0  0  0  0  0  0  0  0  0  0
   -0.9750    3.8000    0.0000 O   0  0  0  0  0  0  0  0  0  0  0  0
    0.8667   -0.7750    0.0000 C   0  0  0  0  0  0  0  0  0  0  0  0
    0.0417   -0.7542    0.0000 C   0  0  0  0  0  0  0  0  0  0  0  0
    1.9292    0.2208    0.0000 O   0  0  0  0  0  0  0  0  0  0  0  0
   -0.9708    0.3333    0.0000 O   0  0  0  0  0  0  0  0  0  0  0  0
   -4.7583    1.7458    0.0000 C   0  0  0  0  0  0  0  0  0  0  0  0
   -5.5375    1.4958    0.0000 C   0  0  0  0  0  0  0  0  0  0  0  0
   -5.7083    0.6875    0.0000 S   0  0  0  0  0  0  0  0  0  0  0  0
    1.1917    1.7583    0.0000 C   0  0  0  0  0  0  0  0  0  0  0  0
    0.4667    2.9958    0.0000 C   0  0  0  0  0  0  0  0  0  0  0  0
   -5.1958    3.1083    0.0000 C   0  0  0  0  0  0  0  0  0  0  0  0
    1.1917    2.5875    0.0000 C   0  0  0  0  0  0  0  0  0  0  0  0
   -5.9708    2.8458    0.0000 C   0  0  0  0  0  0  0  0  0  0  0  0
   -6.1292    2.0458    0.0000 C   0  0  0  0  0  0  0  0  0  0  0  0
   -6.4917    0.4458    0.0000 C   0  0  0  0  0  0  0  0  0  0  0  0
  2  6  1  0  0  0  0
  3  2  1  0  0  0  0
  4  3  1  0  0  0  0
  5  7  1  0  0  0  0
  6  9  1  0  0  0  0
  7  2  2  0  0  0  0
  8  1  1  0  0  0  0
  9 13  1  0  0  0  0
 10  1  1  0  0  0  0
 11  1  1  0  0  0  0
 12  8  1  0  0  0  0
 13 12  2  0  0  0  0
 14  4  1  0  0  0  0
 15  9  2  0  0  0  0
 16 10  1  0  0  0  0
 17 11  1  0  0  0  0
 18 10  2  0  0  0  0
 19 11  2  0  0  0  0
 20 14  1  0  0  0  0
 21 20  2  0  0  0  0
 22 21  1  0  0  0  0
 23  8  2  0  0  0  0
 24 26  2  0  0  0  0
 25 14  2  0  0  0  0
 26 23  1  0  0  0  0
 27 25  1  0  0  0  0
 28 27  2  0  0  0  0
 29 22  1  0  0  0  0
 16 17  1  0  0  0  0
 13 24  1  0  0  0  0
  4  5  2  0  0  0  0
 21 28  1  0  0  0  0
M  END
> <IDNUMBER>
F2645-0211

> <Chemical_Name>
3-(2,5-dioxopyrrolidin-1-yl)-N-{5-[3-(methylsulfanyl)phenyl]-1,3,4-oxadiazol-2-yl}benzamide

> <CAS>
886914-03-0

> <PriceCoeff>
1.00

> <MW>
408.43

> <Description>
solid

> <FSP3>
0.15

> <clogP>
1.20

> <TPSA>
130.70

> <Acceptor>
6

> <Donor>
1

> <RotBonds>
5

> <HAC>
29

> <Collection>
General

$$$$
F2738-0976
  -ISIS-  06222321152D

 29 32  0  0  0  0  0  0  0  0999 V2000
   -3.1583    3.3958    0.0000 C   0  0  0  0  0  0  0  0  0  0  0  0
   -6.0042    3.3958    0.0000 N   0  0  3  0  0  0  0  0  0  0  0  0
   -3.8708    3.8000    0.0000 N   0  0  3  0  0  0  0  0  0  0  0  0
   -2.4125    3.7333    0.0000 N   0  0  0  0  0  0  0  0  0  0  0  0
   -3.0833    2.5833    0.0000 S   0  0  0  0  0  0  0  0  0  0  0  0
   -4.5833    3.3958    0.0000 C   0  0  0  0  0  0  0  0  0  0  0  0
   -5.3083    3.8083    0.0000 C   0  0  0  0  0  0  0  0  0  0  0  0
   -6.7542    3.7333    0.0000 C   0  0  0  0  0  0  0  0  0  0  0  0
   -6.0792    2.5708    0.0000 C   0  0  0  0  0  0  0  0  0  0  0  0
   -2.2708    2.4083    0.0000 C   0  0  0  0  0  0  0  0  0  0  0  0
   -1.8583    3.1208    0.0000 C   0  0  0  0  0  0  0  0  0  0  0  0
   -3.8708    4.6042    0.0000 C   0  0  0  0  0  0  0  0  0  0  0  0
   -4.5833    2.5708    0.0000 O   0  0  0  0  0  0  0  0  0  0  0  0
   -1.8583    1.6958    0.0000 C   0  0  0  0  0  0  0  0  0  0  0  0
   -7.3042    3.1083    0.0000 C   0  0  0  0  0  0  0  0  0  0  0  0
   -6.8917    2.3958    0.0000 C   0  0  0  0  0  0  0  0  0  0  0  0
   -6.9292    4.5125    0.0000 O   0  0  0  0  0  0  0  0  0  0  0  0
   -5.4833    2.0250    0.0000 O   0  0  0  0  0  0  0  0  0  0  0  0
   -2.5333    4.5667    0.0000 N   0  0  0  0  0  0  0  0  0  0  0  0
   -1.0375    3.1250    0.0000 C   0  0  0  0  0  0  0  0  0  0  0  0
   -3.1625    5.0167    0.0000 C   0  0  0  0  0  0  0  0  0  0  0  0
   -1.0375    1.6958    0.0000 C   0  0  0  0  0  0  0  0  0  0  0  0
   -0.6333    2.4083    0.0000 C   0  0  0  0  0  0  0  0  0  0  0  0
   -1.7500    5.0167    0.0000 C   0  0  0  0  0  0  0  0  0  0  0  0
   -0.6333    0.9833    0.0000 C   0  0  0  0  0  0  0  0  0  0  0  0
   -3.1625    5.8417    0.0000 C   0  0  0  0  0  0  0  0  0  0  0  0
   -1.0375    0.2750    0.0000 C   0  0  0  0  0  0  0  0  0  0  0  0
   -1.7458    5.8417    0.0000 C   0  0  0  0  0  0  0  0  0  0  0  0
   -2.4583    6.2500    0.0000 C   0  0  0  0  0  0  0  0  0  0  0  0
  2  7  1  0  0  0  0
  3  1  1  0  0  0  0
  4  1  2  0  0  0  0
  5  1  1  0  0  0  0
  6  3  1  0  0  0  0
  7  6  1  0  0  0  0
  8  2  1  0  0  0  0
  9  2  1  0  0  0  0
 10  5  1  0  0  0  0
 11  4  1  0  0  0  0
 12  3  1  0  0  0  0
 13  6  2  0  0  0  0
 14 10  1  0  0  0  0
 15  8  1  0  0  0  0
 16  9  1  0  0  0  0
 17  8  2  0  0  0  0
 18  9  2  0  0  0  0
 19 21  2  0  0  0  0
 20 11  1  0  0  0  0
 21 12  1  0  0  0  0
 22 14  2  0  0  0  0
 23 20  2  0  0  0  0
 24 19  1  0  0  0  0
 25 22  1  0  0  0  0
 26 21  1  0  0  0  0
 27 25  1  0  0  0  0
 28 29  1  0  0  0  0
 29 26  2  0  0  0  0
 10 11  2  0  0  0  0
 23 22  1  0  0  0  0
 28 24  2  0  0  0  0
 15 16  1  0  0  0  0
M  END
> <IDNUMBER>
F2738-0976

> <Chemical_Name>
2-(2,5-dioxopyrrolidin-1-yl)-N-(6-ethyl-1,3-benzothiazol-2-yl)-N-[(pyridin-2-yl)methyl]acetamide

> <CAS>
922837-32-9

> <PriceCoeff>
1.00

> <MW>
408.47

> <Description>
solid

> <FSP3>
0.29

> <clogP>
1.99

> <TPSA>
111.71

> <Acceptor>
5

> <Donor>
1

> <RotBonds>
7

> <HAC>
29

> <Collection>
General

$$$$
F2738-2670
  -ISIS-  06222321152D

 29 32  0  0  0  0  0  0  0  0999 V2000
   -3.1583    3.3958    0.0000 C   0  0  0  0  0  0  0  0  0  0  0  0
   -2.4125    3.7333    0.0000 N   0  0  0  0  0  0  0  0  0  0  0  0
   -6.0042    3.3958    0.0000 N   0  0  3  0  0  0  0  0  0  0  0  0
   -3.8708    3.8000    0.0000 N   0  0  3  0  0  0  0  0  0  0  0  0
   -1.8583    3.1208    0.0000 C   0  0  0  0  0  0  0  0  0  0  0  0
   -3.0833    2.5833    0.0000 S   0  0  0  0  0  0  0  0  0  0  0  0
   -4.5833    3.3958    0.0000 C   0  0  0  0  0  0  0  0  0  0  0  0
   -5.3083    3.8083    0.0000 C   0  0  0  0  0  0  0  0  0  0  0  0
   -2.2625    2.4125    0.0000 C   0  0  0  0  0  0  0  0  0  0  0  0
   -6.7542    3.7333    0.0000 C   0  0  0  0  0  0  0  0  0  0  0  0
   -6.0792    2.5708    0.0000 C   0  0  0  0  0  0  0  0  0  0  0  0
   -1.0375    3.1250    0.0000 C   0  0  0  0  0  0  0  0  0  0  0  0
   -3.8708    4.6042    0.0000 C   0  0  0  0  0  0  0  0  0  0  0  0
   -0.6375    2.4208    0.0000 C   0  0  0  0  0  0  0  0  0  0  0  0
   -4.5833    2.5708    0.0000 O   0  0  0  0  0  0  0  0  0  0  0  0
   -7.3042    3.1083    0.0000 C   0  0  0  0  0  0  0  0  0  0  0  0
   -6.8917    2.3958    0.0000 C   0  0  0  0  0  0  0  0  0  0  0  0
   -6.9292    4.5125    0.0000 O   0  0  0  0  0  0  0  0  0  0  0  0
   -5.4833    2.0250    0.0000 O   0  0  0  0  0  0  0  0  0  0  0  0
   -2.5583    4.5417    0.0000 N   0  0  0  0  0  0  0  0  0  0  0  0
   -1.8583    1.7000    0.0000 C   0  0  0  0  0  0  0  0  0  0  0  0
   -1.0375    1.6958    0.0000 C   0  0  0  0  0  0  0  0  0  0  0  0
   -3.1625    5.0167    0.0000 C   0  0  0  0  0  0  0  0  0  0  0  0
    0.1875    2.4208    0.0000 Cl  0  0  0  0  0  0  0  0  0  0  0  0
   -0.6333    3.8333    0.0000 C   0  0  0  0  0  0  0  0  0  0  0  0
   -1.7500    5.0167    0.0000 C   0  0  0  0  0  0  0  0  0  0  0  0
   -3.1708    5.8375    0.0000 C   0  0  0  0  0  0  0  0  0  0  0  0
   -1.7500    5.8417    0.0000 C   0  0  0  0  0  0  0  0  0  0  0  0
   -2.4625    6.2417    0.0000 C   0  0  0  0  0  0  0  0  0  0  0  0
  2  1  2  0  0  0  0
  3  8  1  0  0  0  0
  4  1  1  0  0  0  0
  5  2  1  0  0  0  0
  6  1  1  0  0  0  0
  7  4  1  0  0  0  0
  8  7  1  0  0  0  0
  9  6  1  0  0  0  0
 10  3  1  0  0  0  0
 11  3  1  0  0  0  0
 12  5  1  0  0  0  0
 13  4  1  0  0  0  0
 14 12  2  0  0  0  0
 15  7  2  0  0  0  0
 16 10  1  0  0  0  0
 17 11  1  0  0  0  0
 18 10  2  0  0  0  0
 19 11  2  0  0  0  0
 20 23  2  0  0  0  0
 21  9  1  0  0  0  0
 22 21  2  0  0  0  0
 23 13  1  0  0  0  0
 24 14  1  0  0  0  0
 25 12  1  0  0  0  0
 26 20  1  0  0  0  0
 27 23  1  0  0  0  0
 28 29  1  0  0  0  0
 29 27  2  0  0  0  0
  9  5  2  0  0  0  0
 14 22  1  0  0  0  0
 28 26  2  0  0  0  0
 16 17  1  0  0  0  0
M  END
> <IDNUMBER>
F2738-2670

> <Chemical_Name>
N-(5-chloro-4-methyl-1,3-benzothiazol-2-yl)-2-(2,5-dioxopyrrolidin-1-yl)-N-[(pyridin-2-yl)methyl]acetamide

> <CAS>
923066-72-2

> <PriceCoeff>
1.00

> <MW>
428.89

> <Description>
solid

> <FSP3>
0.25

> <clogP>
2.20

> <TPSA>
111.71

> <Acceptor>
5

> <Donor>
1

> <RotBonds>
6

> <HAC>
29

> <Collection>
General

$$$$
F3019-0047
  -ISIS-  06222321152D

 21 22  0  0  0  0  0  0  0  0999 V2000
    1.5375   -0.2750    0.0000 N   0  0  3  0  0  0  0  0  0  0  0  0
    1.7875   -1.0625    0.0000 C   0  0  0  0  0  0  0  0  0  0  0  0
    2.1917    0.2125    0.0000 C   0  0  0  0  0  0  0  0  0  0  0  0
    2.6167   -1.0625    0.0000 C   0  0  3  0  0  0  0  0  0  0  0  0
    2.8750   -0.2750    0.0000 C   0  0  0  0  0  0  0  0  0  0  0  0
    4.4125   -2.3167    0.0000 C   0  0  0  0  0  0  0  0  0  0  0  0
    3.1042   -1.7292    0.0000 S   0  0  0  0  0  0  0  0  0  0  0  0
    3.9292   -1.6417    0.0000 C   0  0  0  0  0  0  0  0  0  0  0  0
    4.0750   -3.0750    0.0000 C   0  0  0  0  0  0  0  0  0  0  0  0
    1.3000   -1.7292    0.0000 O   0  0  0  0  0  0  0  0  0  0  0  0
    2.1917    1.0458    0.0000 O   0  0  0  0  0  0  0  0  0  0  0  0
    4.5542   -3.7417    0.0000 O   0  0  0  0  0  0  0  0  0  0  0  0
    0.7500   -0.0167    0.0000 C   0  0  0  0  0  0  0  0  0  0  0  0
    3.2542   -3.1542    0.0000 O   0  0  0  0  0  0  0  0  0  0  0  0
    5.2375   -2.2292    0.0000 C   0  0  0  0  0  0  0  0  0  0  0  0
    4.2625   -0.8917    0.0000 C   0  0  0  0  0  0  0  0  0  0  0  0
   -0.6500   -0.3167    0.0000 O   0  0  0  0  0  0  0  0  0  0  0  0
    0.1375   -0.5750    0.0000 C   0  0  0  0  0  0  0  0  0  0  0  0
   -1.2583   -0.8750    0.0000 C   0  0  0  0  0  0  0  0  0  0  0  0
    5.5792   -1.4750    0.0000 C   0  0  0  0  0  0  0  0  0  0  0  0
    5.0875   -0.8042    0.0000 C   0  0  0  0  0  0  0  0  0  0  0  0
  2  1  1  0  0  0  0
  3  1  1  0  0  0  0
  4  2  1  0  0  0  0
  5  3  1  0  0  0  0
  6  8  2  0  0  0  0
  7  4  1  0  0  0  0
  8  7  1  0  0  0  0
  9  6  1  0  0  0  0
 10  2  2  0  0  0  0
 11  3  2  0  0  0  0
 12  9  2  0  0  0  0
 13  1  1  0  0  0  0
 14  9  1  0  0  0  0
 15  6  1  0  0  0  0
 16  8  1  0  0  0  0
 17 18  1  0  0  0  0
 18 13  1  0  0  0  0
 19 17  1  0  0  0  0
 20 21  1  0  0  0  0
 21 16  2  0  0  0  0
  5  4  1  0  0  0  0
 20 15  2  0  0  0  0
M  END
> <IDNUMBER>
F3019-0047

> <Chemical_Name>
2-{[1-(2-methoxyethyl)-2,5-dioxopyrrolidin-3-yl]sulfanyl}benzoic acid

> <CAS>
831207-85-3

> <PriceCoeff>
1.00

> <MW>
309.34

> <Description>
solid

> <FSP3>
0.36

> <clogP>
1.49

> <TPSA>
109.21

> <Acceptor>
5

> <Donor>
0

> <RotBonds>
6

> <HAC>
21

> <Collection>
General

$$$$
F1822-0393
  -ISIS-  06222321142D

 26 29  0  0  0  0  0  0  0  0999 V2000
   -5.9708    3.3833    0.0000 C   0  0  0  0  0  0  0  0  0  0  0  0
   -1.7333    3.3958    0.0000 N   0  0  3  0  0  0  0  0  0  0  0  0
   -6.0417    2.5583    0.0000 N   0  0  0  0  0  0  0  0  0  0  0  0
   -5.2708    3.7958    0.0000 N   0  0  0  0  0  0  0  0  0  0  0  0
   -6.8542    2.3833    0.0000 C   0  0  0  0  0  0  0  0  0  0  0  0
   -6.7167    3.7208    0.0000 S   0  0  0  0  0  0  0  0  0  0  0  0
   -2.4458    3.8000    0.0000 C   0  0  0  0  0  0  0  0  0  0  0  0
   -4.5833    3.3958    0.0000 C   0  0  0  0  0  0  0  0  0  0  0  0
   -0.9708    3.6875    0.0000 C   0  0  0  0  0  0  0  0  0  0  0  0
   -1.6875    2.5708    0.0000 C   0  0  0  0  0  0  0  0  0  0  0  0
   -7.2750    3.1083    0.0000 C   0  0  0  0  0  0  0  0  0  0  0  0
   -3.1583    3.3958    0.0000 C   0  0  0  0  0  0  0  0  0  0  0  0
   -3.8708    3.8000    0.0000 C   0  0  0  0  0  0  0  0  0  0  0  0
   -7.2667    1.6583    0.0000 C   0  0  0  0  0  0  0  0  0  0  0  0
   -4.5833    2.5958    0.0000 O   0  0  0  0  0  0  0  0  0  0  0  0
   -0.8708    2.3708    0.0000 C   0  0  0  0  0  0  0  0  0  0  0  0
   -0.4375    3.0583    0.0000 C   0  0  0  0  0  0  0  0  0  0  0  0
   -2.3208    2.0458    0.0000 O   0  0  0  0  0  0  0  0  0  0  0  0
   -0.7583    4.4667    0.0000 O   0  0  0  0  0  0  0  0  0  0  0  0
   -6.8542    0.9708    0.0000 Br  0  0  0  0  0  0  0  0  0  0  0  0
   -2.4375    4.6167    0.0000 C   0  0  0  0  0  0  0  0  0  0  0  0
   -8.1167    3.0958    0.0000 C   0  0  0  0  0  0  0  0  0  0  0  0
   -3.8708    4.6167    0.0000 C   0  0  0  0  0  0  0  0  0  0  0  0
   -3.1583    5.0292    0.0000 C   0  0  0  0  0  0  0  0  0  0  0  0
   -8.5167    2.3708    0.0000 C   0  0  0  0  0  0  0  0  0  0  0  0
   -8.0917    1.6458    0.0000 C   0  0  0  0  0  0  0  0  0  0  0  0
  2  7  1  0  0  0  0
  3  1  2  0  0  0  0
  4  1  1  0  0  0  0
  5  3  1  0  0  0  0
  6  1  1  0  0  0  0
  7 12  1  0  0  0  0
  8  4  1  0  0  0  0
  9  2  1  0  0  0  0
 10  2  1  0  0  0  0
 11  6  1  0  0  0  0
 12 13  2  0  0  0  0
 13  8  1  0  0  0  0
 14  5  1  0  0  0  0
 15  8  2  0  0  0  0
 16 10  1  0  0  0  0
 17  9  1  0  0  0  0
 18 10  2  0  0  0  0
 19  9  2  0  0  0  0
 20 14  1  0  0  0  0
 21 24  1  0  0  0  0
 22 11  1  0  0  0  0
 23 13  1  0  0  0  0
 24 23  2  0  0  0  0
 25 22  2  0  0  0  0
 26 14  2  0  0  0  0
 11  5  2  0  0  0  0
 26 25  1  0  0  0  0
 21  7  2  0  0  0  0
 16 17  1  0  0  0  0
M  END
> <IDNUMBER>
F1822-0393

> <Chemical_Name>
N-(4-bromo-1,3-benzothiazol-2-yl)-3-(2,5-dioxopyrrolidin-1-yl)benzamide

> <CAS>
892843-02-6

> <PriceCoeff>
1.00

> <MW>
430.28

> <Description>
solid

> <FSP3>
0.11

> <clogP>
2.49

> <TPSA>
107.61

> <Acceptor>
4

> <Donor>
1

> <RotBonds>
3

> <HAC>
26

> <Collection>
General

$$$$
F0326-0401
  -ISIS-  06222321442D

 28 31  0  0  0  0  0  0  0  0999 V2000
    0.1292   -1.5500    0.0000 S   0  0  0  0  0  0  0  0  0  0  0  0
    0.8542   -1.0042    0.0000 C   0  0  0  0  0  0  0  0  0  0  0  0
    5.8375   -1.1792    0.0000 N   0  0  3  0  0  0  0  0  0  0  0  0
   -0.6125   -1.0167    0.0000 C   0  0  0  0  0  0  0  0  0  0  0  0
   -0.3500   -0.1792    0.0000 N   0  0  0  0  0  0  0  0  0  0  0  0
    1.7167   -1.1792    0.0000 N   0  0  0  0  0  0  0  0  0  0  0  0
    0.5292   -0.1792    0.0000 N   0  0  0  0  0  0  0  0  0  0  0  0
    2.3042   -0.4875    0.0000 C   0  0  0  0  0  0  0  0  0  0  0  0
    6.4792   -0.5542    0.0000 C   0  0  0  0  0  0  0  0  0  0  0  0
    6.2167   -1.9875    0.0000 C   0  0  0  0  0  0  0  0  0  0  0  0
    4.9542   -1.0167    0.0000 C   0  0  0  0  0  0  0  0  0  0  0  0
   -1.4625   -1.2792    0.0000 C   0  0  0  0  0  0  0  0  0  0  0  0
    3.1875   -0.6542    0.0000 C   0  0  0  0  0  0  0  0  0  0  0  0
    2.0042    0.3833    0.0000 O   0  0  0  0  0  0  0  0  0  0  0  0
    7.1042   -1.8792    0.0000 C   0  0  0  0  0  0  0  0  0  0  0  0
    7.2667   -0.9792    0.0000 C   0  0  0  0  0  0  0  0  0  0  0  0
    5.7667   -2.7792    0.0000 O   0  0  0  0  0  0  0  0  0  0  0  0
    6.3167    0.3333    0.0000 O   0  0  0  0  0  0  0  0  0  0  0  0
    4.6667   -0.1667    0.0000 C   0  0  0  0  0  0  0  0  0  0  0  0
    4.3542   -1.7000    0.0000 C   0  0  0  0  0  0  0  0  0  0  0  0
    3.7875    0.0208    0.0000 C   0  0  0  0  0  0  0  0  0  0  0  0
    3.4667   -1.5167    0.0000 C   0  0  0  0  0  0  0  0  0  0  0  0
   -2.1208   -0.6667    0.0000 C   0  0  0  0  0  0  0  0  0  0  0  0
   -1.6625   -2.1542    0.0000 C   0  0  0  0  0  0  0  0  0  0  0  0
   -3.1833   -1.8000    0.0000 C   0  0  0  0  0  0  0  0  0  0  0  0
   -2.5208   -2.4167    0.0000 C   0  0  0  0  0  0  0  0  0  0  0  0
   -2.9958   -0.9375    0.0000 C   0  0  0  0  0  0  0  0  0  0  0  0
   -4.0333   -2.0375    0.0000 Cl  0  0  0  0  0  0  0  0  0  0  0  0
  2  1  1  0  0  0  0
  3 11  1  0  0  0  0
  4  1  1  0  0  0  0
  5  4  2  0  0  0  0
  6  2  1  0  0  0  0
  7  2  2  0  0  0  0
  8  6  1  0  0  0  0
  9  3  1  0  0  0  0
 10  3  1  0  0  0  0
 11 20  2  0  0  0  0
 12  4  1  0  0  0  0
 13  8  1  0  0  0  0
 14  8  2  0  0  0  0
 15 10  1  0  0  0  0
 16  9  1  0  0  0  0
 17 10  2  0  0  0  0
 18  9  2  0  0  0  0
 19 21  2  0  0  0  0
 20 22  1  0  0  0  0
 21 13  1  0  0  0  0
 22 13  2  0  0  0  0
 23 12  2  0  0  0  0
 24 12  1  0  0  0  0
 25 26  1  0  0  0  0
 26 24  2  0  0  0  0
 27 23  1  0  0  0  0
 28 25  1  0  0  0  0
  5  7  1  0  0  0  0
 27 25  2  0  0  0  0
 11 19  1  0  0  0  0
 15 16  1  0  0  0  0
M  END
> <IDNUMBER>
F0326-0401

> <Chemical_Name>
N-[5-(4-chlorophenyl)-1,3,4-thiadiazol-2-yl]-4-(2,5-dioxopyrrolidin-1-yl)benzamide

> <CAS>
392242-23-8

> <PriceCoeff>
1.00

> <MW>
412.85

> <Description>
solid

> <FSP3>
0.11

> <clogP>
2.12

> <TPSA>
120.50

> <Acceptor>
5

> <Donor>
1

> <RotBonds>
4

> <HAC>
28

> <Collection>
General

$$$$
F0327-0294
  -ISIS-  06222321442D

 26 29  0  0  0  0  0  0  0  0999 V2000
   -1.9083    0.4333    0.0000 C   0  0  0  0  0  0  0  0  0  0  0  0
    2.9167   -0.3292    0.0000 N   0  0  3  0  0  0  0  0  0  0  0  0
   -2.4125   -0.2792    0.0000 N   0  0  0  0  0  0  0  0  0  0  0  0
   -1.0458    0.4333    0.0000 N   0  0  0  0  0  0  0  0  0  0  0  0
   -2.4000    1.1333    0.0000 S   0  0  0  0  0  0  0  0  0  0  0  0
   -0.6000   -0.3292    0.0000 C   0  0  0  0  0  0  0  0  0  0  0  0
    3.4042   -1.0500    0.0000 C   0  0  0  0  0  0  0  0  0  0  0  0
    3.4167    0.3333    0.0000 C   0  0  0  0  0  0  0  0  0  0  0  0
   -3.2458    0.8708    0.0000 C   0  0  0  0  0  0  0  0  0  0  0  0
   -3.2458   -0.0292    0.0000 C   0  0  0  0  0  0  0  0  0  0  0  0
    2.0375   -0.3292    0.0000 C   0  0  0  0  0  0  0  0  0  0  0  0
   -4.0000    1.3125    0.0000 C   0  0  0  0  0  0  0  0  0  0  0  0
    0.2792   -0.3292    0.0000 C   0  0  0  0  0  0  0  0  0  0  0  0
   -1.0458   -1.0875    0.0000 O   0  0  0  0  0  0  0  0  0  0  0  0
    4.2542   -0.8000    0.0000 C   0  0  0  0  0  0  0  0  0  0  0  0
    4.2500    0.0708    0.0000 C   0  0  0  0  0  0  0  0  0  0  0  0
    3.1000   -1.8667    0.0000 O   0  0  0  0  0  0  0  0  0  0  0  0
    3.1292    1.1833    0.0000 O   0  0  0  0  0  0  0  0  0  0  0  0
   -4.0000   -0.4500    0.0000 C   0  0  0  0  0  0  0  0  0  0  0  0
    1.6000   -1.0875    0.0000 C   0  0  0  0  0  0  0  0  0  0  0  0
    1.6000    0.4333    0.0000 C   0  0  0  0  0  0  0  0  0  0  0  0
    0.7167   -1.0875    0.0000 C   0  0  0  0  0  0  0  0  0  0  0  0
    0.7167    0.4333    0.0000 C   0  0  0  0  0  0  0  0  0  0  0  0
   -4.7708    0.8625    0.0000 C   0  0  0  0  0  0  0  0  0  0  0  0
   -4.7708   -0.0292    0.0000 C   0  0  0  0  0  0  0  0  0  0  0  0
   -5.5208    1.3000    0.0000 Br  0  0  0  0  0  0  0  0  0  0  0  0
  2 11  1  0  0  0  0
  3  1  2  0  0  0  0
  4  1  1  0  0  0  0
  5  1  1  0  0  0  0
  6  4  1  0  0  0  0
  7  2  1  0  0  0  0
  8  2  1  0  0  0  0
  9  5  1  0  0  0  0
 10  3  1  0  0  0  0
 11 21  1  0  0  0  0
 12  9  1  0  0  0  0
 13  6  1  0  0  0  0
 14  6  2  0  0  0  0
 15  7  1  0  0  0  0
 16  8  1  0  0  0  0
 17  7  2  0  0  0  0
 18  8  2  0  0  0  0
 19 10  1  0  0  0  0
 20 22  1  0  0  0  0
 21 23  2  0  0  0  0
 22 13  2  0  0  0  0
 23 13  1  0  0  0  0
 24 12  2  0  0  0  0
 25 19  2  0  0  0  0
 26 24  1  0  0  0  0
  9 10  2  0  0  0  0
 25 24  1  0  0  0  0
 20 11  2  0  0  0  0
 15 16  1  0  0  0  0
M  END
> <IDNUMBER>
F0327-0294

> <Chemical_Name>
N-(6-bromo-1,3-benzothiazol-2-yl)-4-(2,5-dioxopyrrolidin-1-yl)benzamide

> <CAS>
476281-65-9

> <PriceCoeff>
1.00

> <MW>
430.28

> <Description>
solid

> <FSP3>
0.11

> <clogP>
2.49

> <TPSA>
107.61

> <Acceptor>
4

> <Donor>
1

> <RotBonds>
3

> <HAC>
26

> <Collection>
General

$$$$
F1813-0343
  -ISIS-  06222321142D

 27 30  0  0  0  0  0  0  0  0999 V2000
   -6.0000    3.3958    0.0000 C   0  0  0  0  0  0  0  0  0  0  0  0
   -6.8917    2.3958    0.0000 C   0  0  0  0  0  0  0  0  0  0  0  0
   -6.0792    2.5625    0.0000 N   0  0  0  0  0  0  0  0  0  0  0  0
   -1.7250    5.0167    0.0000 N   0  0  3  0  0  0  0  0  0  0  0  0
   -5.2958    3.8083    0.0000 N   0  0  0  0  0  0  0  0  0  0  0  0
   -6.7542    3.7333    0.0000 S   0  0  0  0  0  0  0  0  0  0  0  0
   -7.3042    1.6833    0.0000 C   0  0  0  0  0  0  0  0  0  0  0  0
   -7.3042    3.1083    0.0000 C   0  0  0  0  0  0  0  0  0  0  0  0
   -4.5833    3.3958    0.0000 C   0  0  0  0  0  0  0  0  0  0  0  0
   -1.6708    5.8417    0.0000 C   0  0  0  0  0  0  0  0  0  0  0  0
   -0.9625    4.7167    0.0000 C   0  0  0  0  0  0  0  0  0  0  0  0
   -2.4458    4.6042    0.0000 C   0  0  0  0  0  0  0  0  0  0  0  0
   -8.1292    1.6833    0.0000 C   0  0  0  0  0  0  0  0  0  0  0  0
   -3.8708    3.8000    0.0000 C   0  0  0  0  0  0  0  0  0  0  0  0
   -4.5833    2.5708    0.0000 O   0  0  0  0  0  0  0  0  0  0  0  0
   -0.8625    6.0417    0.0000 C   0  0  0  0  0  0  0  0  0  0  0  0
   -0.4458    5.3417    0.0000 C   0  0  0  0  0  0  0  0  0  0  0  0
   -2.3083    6.3917    0.0000 O   0  0  0  0  0  0  0  0  0  0  0  0
   -0.7625    3.9250    0.0000 O   0  0  0  0  0  0  0  0  0  0  0  0
   -8.1292    3.1083    0.0000 C   0  0  0  0  0  0  0  0  0  0  0  0
   -2.4500    3.8000    0.0000 C   0  0  0  0  0  0  0  0  0  0  0  0
   -3.1583    5.0292    0.0000 C   0  0  0  0  0  0  0  0  0  0  0  0
   -8.5417    2.3958    0.0000 C   0  0  0  0  0  0  0  0  0  0  0  0
   -3.1625    3.3958    0.0000 C   0  0  0  0  0  0  0  0  0  0  0  0
   -3.8708    4.6250    0.0000 C   0  0  0  0  0  0  0  0  0  0  0  0
   -6.8917    0.9750    0.0000 Cl  0  0  0  0  0  0  0  0  0  0  0  0
   -8.5292    0.9750    0.0000 Cl  0  0  0  0  0  0  0  0  0  0  0  0
  2  3  1  0  0  0  0
  3  1  2  0  0  0  0
  4 12  1  0  0  0  0
  5  1  1  0  0  0  0
  6  1  1  0  0  0  0
  7  2  2  0  0  0  0
  8  6  1  0  0  0  0
  9  5  1  0  0  0  0
 10  4  1  0  0  0  0
 11  4  1  0  0  0  0
 12 22  1  0  0  0  0
 13  7  1  0  0  0  0
 14  9  1  0  0  0  0
 15  9  2  0  0  0  0
 16 10  1  0  0  0  0
 17 11  1  0  0  0  0
 18 10  2  0  0  0  0
 19 11  2  0  0  0  0
 20  8  2  0  0  0  0
 21 24  1  0  0  0  0
 22 25  2  0  0  0  0
 23 20  1  0  0  0  0
 24 14  2  0  0  0  0
 25 14  1  0  0  0  0
 26  7  1  0  0  0  0
 27 13  1  0  0  0  0
  8  2  1  0  0  0  0
 23 13  2  0  0  0  0
 21 12  2  0  0  0  0
 16 17  1  0  0  0  0
M  END
> <IDNUMBER>
F1813-0343

> <Chemical_Name>
N-(4,5-dichloro-1,3-benzothiazol-2-yl)-4-(2,5-dioxopyrrolidin-1-yl)benzamide

> <CAS>
897617-97-9

> <PriceCoeff>
1.00

> <MW>
420.27

> <Description>
solid

> <FSP3>
0.11

> <clogP>
2.94

> <TPSA>
107.61

> <Acceptor>
4

> <Donor>
1

> <RotBonds>
3

> <HAC>
27

> <Collection>
General

$$$$
F3260-0607
  -ISIS-  06222321152D

 17 18  0  0  0  0  0  0  0  0999 V2000
    4.8500    2.1000    0.0000 C   0  0  0  0  0  0  0  0  0  0  0  0
    4.8500    3.5000    0.0000 C   0  0  0  0  0  0  0  0  0  0  0  0
    6.1542    1.6833    0.0000 N   0  0  0  0  0  0  0  0  0  0  0  0
    3.6375    1.4000    0.0000 N   0  0  3  0  0  0  0  0  0  0  0  0
    2.4250    3.5000    0.0000 N   0  0  3  0  0  0  0  0  0  0  0  0
    2.4250    2.1000    0.0000 C   0  0  0  0  0  0  0  0  0  0  0  0
    3.6375    4.2000    0.0000 C   0  0  0  0  0  0  0  0  0  0  0  0
    6.9917    2.8000    0.0000 C   0  0  0  0  0  0  0  0  0  0  0  0
    6.1542    3.9708    0.0000 N   0  0  3  0  0  0  0  0  0  0  0  0
    1.2042    1.4000    0.0000 O   0  0  0  0  0  0  0  0  0  0  0  0
    3.6375    5.5917    0.0000 O   0  0  0  0  0  0  0  0  0  0  0  0
    8.2042    2.1000    0.0000 Br  0  0  0  0  0  0  0  0  0  0  0  0
    1.2042    4.2000    0.0000 C   0  0  0  0  0  0  0  0  0  0  0  0
    3.6375   -0.0000    0.0000 C   0  0  0  0  0  0  0  0  0  0  0  0
    7.3667    4.6667    0.0000 C   0  0  0  0  0  0  0  0  0  0  0  0
    0.0000    3.5000    0.0000 C   0  0  0  0  0  0  0  0  0  0  0  0
    8.5792    3.9708    0.0000 C   0  0  0  0  0  0  0  0  0  0  0  0
  2  1  2  0  0  0  0
  3  1  1  0  0  0  0
  4  1  1  0  0  0  0
  5  6  1  0  0  0  0
  6  4  1  0  0  0  0
  7  2  1  0  0  0  0
  8  3  2  0  0  0  0
  9  2  1  0  0  0  0
 10  6  2  0  0  0  0
 11  7  2  0  0  0  0
 12  8  1  0  0  0  0
 13  5  1  0  0  0  0
 14  4  1  0  0  0  0
 15  9  1  0  0  0  0
 16 13  1  0  0  0  0
 17 15  1  0  0  0  0
  8  9  1  0  0  0  0
  7  5  1  0  0  0  0
M  END
> <IDNUMBER>
F3260-0607

> <Chemical_Name>
8-bromo-1,7-diethyl-3-methyl-2,3,6,7-tetrahydro-1H-purine-2,6-dione

> <CAS>
1040668-61-8

> <PriceCoeff>
1.00

> <MW>
301.14

> <Description>
solid

> <FSP3>
0.50

> <clogP>
1.92

> <TPSA>
58.44

> <Acceptor>
3

> <Donor>
1

> <RotBonds>
2

> <HAC>
17

> <Collection>
General

> <Reference_compound>
CHEMBL113

> <Similarity>
0.8370

$$$$
F3374-0059
  -ISIS-  06222321152D

 31 34  0  0  0  0  0  0  0  0999 V2000
    3.7417   -0.8917    0.0000 N   0  0  3  0  0  0  0  0  0  0  0  0
   -0.7625   -0.1875    0.0000 C   0  0  0  0  0  0  0  0  0  0  0  0
   -1.1750    0.5250    0.0000 C   0  0  0  0  0  0  0  0  0  0  0  0
    4.2167   -1.5542    0.0000 C   0  0  0  0  0  0  0  0  0  0  0  0
    4.2167   -0.2292    0.0000 C   0  0  0  0  0  0  0  0  0  0  0  0
    0.0625   -0.1875    0.0000 N   0  0  0  0  0  0  0  0  0  0  0  0
    0.4792   -0.8917    0.0000 C   0  0  0  0  0  0  0  0  0  0  0  0
   -2.4208   -0.1875    0.0000 N   0  0  0  0  0  0  0  0  0  0  0  0
   -2.0000    0.5333    0.0000 C   0  0  0  0  0  0  0  0  0  0  0  0
   -0.7625    1.2375    0.0000 C   0  0  0  0  0  0  0  0  0  0  0  0
   -1.1708    1.9583    0.0000 C   0  0  0  0  0  0  0  0  0  0  0  0
   -0.7583    2.6708    0.0000 C   0  0  0  0  0  0  0  0  0  0  0  0
   -1.1750   -0.9042    0.0000 C   0  0  0  0  0  0  0  0  0  0  0  0
    2.9250   -0.8917    0.0000 C   0  0  0  0  0  0  0  0  0  0  0  0
    1.2917   -0.8917    0.0000 C   0  0  0  0  0  0  0  0  0  0  0  0
   -2.0083   -0.9042    0.0000 C   0  0  0  0  0  0  0  0  0  0  0  0
    0.0667   -1.6042    0.0000 O   0  0  0  0  0  0  0  0  0  0  0  0
    4.9917   -1.3000    0.0000 C   0  0  0  0  0  0  0  0  0  0  0  0
    4.9917   -0.4792    0.0000 C   0  0  0  0  0  0  0  0  0  0  0  0
    3.9542    0.5458    0.0000 O   0  0  0  0  0  0  0  0  0  0  0  0
    3.9667   -2.3292    0.0000 O   0  0  0  0  0  0  0  0  0  0  0  0
   -2.4125    1.2458    0.0000 C   0  0  0  0  0  0  0  0  0  0  0  0
    0.0667    2.6625    0.0000 O   0  0  0  0  0  0  0  0  0  0  0  0
   -1.9958    1.9583    0.0000 C   0  0  0  0  0  0  0  0  0  0  0  0
    2.5042   -0.1875    0.0000 C   0  0  0  0  0  0  0  0  0  0  0  0
    2.5167   -1.6042    0.0000 C   0  0  0  0  0  0  0  0  0  0  0  0
    1.7000   -0.1875    0.0000 C   0  0  0  0  0  0  0  0  0  0  0  0
    1.7000   -1.6042    0.0000 C   0  0  0  0  0  0  0  0  0  0  0  0
   -1.1708    3.3833    0.0000 O   0  0  0  0  0  0  0  0  0  0  0  0
   -2.4208   -1.6167    0.0000 C   0  0  0  0  0  0  0  0  0  0  0  0
   -0.7500    4.0917    0.0000 C   0  0  0  0  0  0  0  0  0  0  0  0
  2  6  1  0  0  0  0
  3  2  1  0  0  0  0
  4  1  1  0  0  0  0
  5  1  1  0  0  0  0
  6  7  1  0  0  0  0
  7 15  1  0  0  0  0
  8 16  2  0  0  0  0
  9  3  1  0  0  0  0
 10  3  2  0  0  0  0
 11 10  1  0  0  0  0
 12 11  1  0  0  0  0
 13  2  2  0  0  0  0
 14  1  1  0  0  0  0
 15 28  2  0  0  0  0
 16 13  1  0  0  0  0
 17  7  2  0  0  0  0
 18  4  1  0  0  0  0
 19  5  1  0  0  0  0
 20  5  2  0  0  0  0
 21  4  2  0  0  0  0
 22  9  2  0  0  0  0
 23 12  2  0  0  0  0
 24 11  2  0  0  0  0
 25 14  1  0  0  0  0
 26 14  2  0  0  0  0
 27 25  2  0  0  0  0
 28 26  1  0  0  0  0
 29 12  1  0  0  0  0
 30 16  1  0  0  0  0
 31 29  1  0  0  0  0
 19 18  1  0  0  0  0
 27 15  1  0  0  0  0
  9  8  1  0  0  0  0
 22 24  1  0  0  0  0
M  END
> <IDNUMBER>
F3374-0059

> <Chemical_Name>
methyl 4-[4-(2,5-dioxopyrrolidin-1-yl)benzamido]-2-methylquinoline-6-carboxylate

> <CAS>
953853-07-1

> <PriceCoeff>
1.00

> <MW>
417.41

> <Description>
solid

> <FSP3>
0.17

> <clogP>
2.13

> <TPSA>
105.67

> <Acceptor>
6

> <Donor>
2

> <RotBonds>
5

> <HAC>
31

> <Collection>
General

$$$$
F1029-0052
  -ISIS-  06222304352D

 27 29  0  0  0  0  0  0  0  0999 V2000
    1.5792    1.4750    0.0000 N   0  3  0  0  0  0  0  0  0  0  0  0
    1.6042    2.2875    0.0000 C   0  0  0  0  0  0  0  0  0  0  0  0
    2.3292    1.1958    0.0000 C   0  0  0  0  0  0  0  0  0  0  0  0
    2.3792    2.5083    0.0000 S   0  0  0  0  0  0  0  0  0  0  0  0
    2.8417    1.8375    0.0000 C   0  0  0  0  0  0  0  0  0  0  0  0
    0.7542    1.2833    0.0000 C   0  0  0  0  0  0  0  0  0  0  0  0
    0.8125    2.5833    0.0000 S   0  0  0  0  0  0  0  0  0  0  0  0
    0.3125    1.9583    0.0000 C   0  0  0  0  0  0  0  0  0  0  0  0
    2.5792    0.3958    0.0000 N   0  0  0  0  0  0  0  0  0  0  0  0
    3.6667    1.8375    0.0000 C   0  0  0  0  0  0  0  0  0  0  0  0
    0.4250    0.4875    0.0000 C   0  0  0  0  0  0  0  0  0  0  0  0
   -0.5083    2.0208    0.0000 C   0  0  0  0  0  0  0  0  0  0  0  0
    4.0917    1.1208    0.0000 C   0  0  0  0  0  0  0  0  0  0  0  0
    4.0792    2.5625    0.0000 C   0  0  0  0  0  0  0  0  0  0  0  0
    4.9167    1.1208    0.0000 C   0  0  0  0  0  0  0  0  0  0  0  0
    4.9292    2.5583    0.0000 C   0  0  0  0  0  0  0  0  0  0  0  0
    5.3375    1.8208    0.0000 C   0  0  0  0  0  0  0  0  0  0  0  0
    9.4875    1.4708    0.0000 S   0  0  3  0  0  0  0  0  0  0  0  0
   10.4292    1.4916    0.0000 O   0  5  0  0  0  0  0  0  0  0  0  0
    9.4875    0.5541    0.0000 O   0  0  0  0  0  0  0  0  0  0  0  0
    9.4500    2.4208    0.0000 O   0  0  0  0  0  0  0  0  0  0  0  0
    8.5292    1.4708    0.0000 C   0  0  0  0  0  0  0  0  0  0  0  0
    8.0167    2.2541    0.0000 C   0  0  0  0  0  0  0  0  0  0  0  0
    8.0875    0.6333    0.0000 C   0  0  0  0  0  0  0  0  0  0  0  0
    7.0792    2.2333    0.0000 C   0  0  0  0  0  0  0  0  0  0  0  0
    7.1500    0.6166    0.0000 C   0  0  0  0  0  0  0  0  0  0  0  0
    6.6292    1.4166    0.0000 C   0  0  0  0  0  0  0  0  0  0  0  0
 12  8  1  0  0  0  0
 13 10  2  0  0  0  0
 14 10  1  0  0  0  0
 15 13  1  0  0  0  0
 16 14  2  0  0  0  0
 17 16  1  0  0  0  0
  7  8  1  0  0  0  0
  4  5  1  0  0  0  0
 15 17  2  0  0  0  0
  2  1  2  0  0  0  0
  3  1  1  0  0  0  0
  4  2  1  0  0  0  0
  5  3  2  0  0  0  0
  6  1  1  0  0  0  0
  7  2  1  0  0  0  0
  8  6  2  0  0  0  0
  9  3  1  0  0  0  0
 10  5  1  0  0  0  0
 11  6  1  0  0  0  0
 19 18  1  0  0  0  0
 20 18  2  0  0  0  0
 21 18  2  0  0  0  0
 22 18  1  0  0  0  0
 23 22  2  0  0  0  0
 24 22  1  0  0  0  0
 25 23  1  0  0  0  0
 26 24  2  0  0  0  0
 27 26  1  0  0  0  0
 25 27  2  0  0  0  0
M  CHG  2   1   1  19  -1
M  END
> <IDNUMBER>
F1029-0052

> <Chemical_Name>
3-amino-5,6-dimethyl-2-phenyl-4lambda5-[1,3]thiazolo[2,3-b][1,3]thiazol-4-ylium benzenesulfonate

> <CAS>
483966-79-6

> <PriceCoeff>
1.00

> <MW>
261.39

> <Description>
solid

> <FSP3>
0.15

> <clogP>
-1.23

> <TPSA>
86.60

> <Acceptor>
0

> <Donor>
1

> <RotBonds>
1

> <HAC>
17

> <Collection>
General

> <Reference_compound>
PRI5741

> <Similarity>
1.0000

$$$$
F9995-2667
  -ISIS-  06222321162D

 18 20  0  0  0  0  0  0  0  0999 V2000
    2.0000   -0.4708    0.0000 N   0  0  0  0  0  0  0  0  0  0  0  0
    1.2125   -0.7292    0.0000 C   0  0  0  0  0  0  0  0  0  0  0  0
    2.4917   -1.1375    0.0000 C   0  0  0  0  0  0  0  0  0  0  0  0
   -0.2083   -0.7417    0.0000 C   0  0  0  0  0  0  0  0  0  0  0  0
   -0.9250   -0.3333    0.0000 C   0  0  0  0  0  0  0  0  0  0  0  0
    1.2167   -1.5583    0.0000 C   0  0  0  0  0  0  0  0  0  0  0  0
    0.4958   -0.3250    0.0000 C   0  0  0  0  0  0  0  0  0  0  0  0
    2.0083   -1.8125    0.0000 C   0  0  0  0  0  0  0  0  0  0  0  0
    3.3167   -1.1333    0.0000 O   0  0  0  0  0  0  0  0  0  0  0  0
   -0.2083   -1.5667    0.0000 C   0  0  0  0  0  0  0  0  0  0  0  0
   -0.9292    0.4917    0.0000 O   0  0  0  0  0  0  0  0  0  0  0  0
    0.5042   -1.9750    0.0000 C   0  0  0  0  0  0  0  0  0  0  0  0
   -1.6375   -0.7500    0.0000 C   0  0  0  0  0  0  0  0  0  0  0  0
   -1.6375   -1.5792    0.0000 C   0  0  0  0  0  0  0  0  0  0  0  0
   -2.3542   -0.3375    0.0000 C   0  0  0  0  0  0  0  0  0  0  0  0
   -2.3542   -1.9917    0.0000 C   0  0  0  0  0  0  0  0  0  0  0  0
   -3.0667   -0.7500    0.0000 C   0  0  0  0  0  0  0  0  0  0  0  0
   -3.0667   -1.5792    0.0000 C   0  0  0  0  0  0  0  0  0  0  0  0
  2  1  1  0  0  0  0
  3  1  1  0  0  0  0
  4  7  1  0  0  0  0
  5  4  1  0  0  0  0
  6  2  1  0  0  0  0
  7  2  2  0  0  0  0
  8  3  1  0  0  0  0
  9  3  2  0  0  0  0
 10 12  1  0  0  0  0
 11  5  2  0  0  0  0
 12  6  2  0  0  0  0
 13  5  1  0  0  0  0
 14 13  1  0  0  0  0
 15 13  2  0  0  0  0
 16 14  2  0  0  0  0
 17 15  1  0  0  0  0
 18 17  2  0  0  0  0
  8  6  1  0  0  0  0
 10  4  2  0  0  0  0
 16 18  1  0  0  0  0
M  END
> <IDNUMBER>
F9995-2667

> <Chemical_Name>
6-benzoyl-2,3-dihydro-1H-indol-2-one

> <CAS>
91713-63-2

> <PriceCoeff>
1.00

> <MW>
237.26

> <Description>
solid

> <FSP3>
0.07

> <clogP>
2.21

> <TPSA>
46.17

> <Acceptor>
2

> <Donor>
1

> <RotBonds>
2

> <HAC>
18

> <Collection>
General

> <Reference_compound>
CHEMBL40823

> <Similarity>
0.8240

$$$$
F1374-0789
  -ISIS-  06222321452D

 28 31  0  0  0  0  0  0  0  0999 V2000
    0.4042   -0.1792    0.0000 N   0  0  3  0  0  0  0  0  0  0  0  0
   -2.4583    3.0208    0.0000 C   0  0  0  0  0  0  0  0  0  0  0  0
   -3.1250    2.5333    0.0000 O   0  0  0  0  0  0  0  0  0  0  0  0
   -3.7958    3.0208    0.0000 C   0  0  0  0  0  0  0  0  0  0  0  0
   -3.5375    3.8000    0.0000 N   0  0  0  0  0  0  0  0  0  0  0  0
   -1.6750    2.7583    0.0000 N   0  0  0  0  0  0  0  0  0  0  0  0
   -2.7125    3.8000    0.0000 N   0  0  0  0  0  0  0  0  0  0  0  0
    0.2292    0.6333    0.0000 C   0  0  0  0  0  0  0  0  0  0  0  0
   -1.5083    1.9583    0.0000 C   0  0  0  0  0  0  0  0  0  0  0  0
    1.1417   -0.5375    0.0000 C   0  0  0  0  0  0  0  0  0  0  0  0
   -0.1833   -0.7542    0.0000 C   0  0  0  0  0  0  0  0  0  0  0  0
   -0.5458    0.8875    0.0000 C   0  0  0  0  0  0  0  0  0  0  0  0
   -0.7208    1.6958    0.0000 C   0  0  0  0  0  0  0  0  0  0  0  0
   -4.5833    2.7583    0.0000 C   0  0  0  0  0  0  0  0  0  0  0  0
   -2.1208    1.4000    0.0000 O   0  0  0  0  0  0  0  0  0  0  0  0
    1.0292   -1.3542    0.0000 C   0  0  0  0  0  0  0  0  0  0  0  0
    0.2167   -1.4917    0.0000 C   0  0  0  0  0  0  0  0  0  0  0  0
    1.8750   -0.1667    0.0000 O   0  0  0  0  0  0  0  0  0  0  0  0
   -0.9875   -0.6375    0.0000 O   0  0  0  0  0  0  0  0  0  0  0  0
   -4.7583    1.9458    0.0000 C   0  0  0  0  0  0  0  0  0  0  0  0
   -5.1958    3.3083    0.0000 C   0  0  0  0  0  0  0  0  0  0  0  0
   -6.1417    2.2458    0.0000 C   0  0  0  0  0  0  0  0  0  0  0  0
   -5.5375    1.6958    0.0000 C   0  0  0  0  0  0  0  0  0  0  0  0
   -5.9833    3.0583    0.0000 C   0  0  0  0  0  0  0  0  0  0  0  0
    0.8542    1.1833    0.0000 C   0  0  0  0  0  0  0  0  0  0  0  0
   -6.9292    1.9875    0.0000 Cl  0  0  0  0  0  0  0  0  0  0  0  0
   -0.1000    2.2458    0.0000 C   0  0  0  0  0  0  0  0  0  0  0  0
    0.6792    1.9958    0.0000 C   0  0  0  0  0  0  0  0  0  0  0  0
  2  6  1  0  0  0  0
  3  2  1  0  0  0  0
  4  3  1  0  0  0  0
  5  7  1  0  0  0  0
  6  9  1  0  0  0  0
  7  2  2  0  0  0  0
  8  1  1  0  0  0  0
  9 13  1  0  0  0  0
 10  1  1  0  0  0  0
 11  1  1  0  0  0  0
 12  8  1  0  0  0  0
 13 12  2  0  0  0  0
 14  4  1  0  0  0  0
 15  9  2  0  0  0  0
 16 10  1  0  0  0  0
 17 11  1  0  0  0  0
 18 10  2  0  0  0  0
 19 11  2  0  0  0  0
 20 14  1  0  0  0  0
 21 14  2  0  0  0  0
 22 24  2  0  0  0  0
 23 20  2  0  0  0  0
 24 21  1  0  0  0  0
 25  8  2  0  0  0  0
 26 22  1  0  0  0  0
 27 28  2  0  0  0  0
 28 25  1  0  0  0  0
 16 17  1  0  0  0  0
 13 27  1  0  0  0  0
  4  5  2  0  0  0  0
 23 22  1  0  0  0  0
M  END
> <IDNUMBER>
F1374-0789

> <Chemical_Name>
N-[5-(4-chlorophenyl)-1,3,4-oxadiazol-2-yl]-3-(2,5-dioxopyrrolidin-1-yl)benzamide

> <CAS>
865287-16-7

> <PriceCoeff>
1.00

> <MW>
396.78

> <Description>
solid

> <FSP3>
0.11

> <clogP>
1.31

> <TPSA>
105.40

> <Acceptor>
6

> <Donor>
1

> <RotBonds>
4

> <HAC>
28

> <Collection>
General

$$$$
F1374-0774
  -ISIS-  06222321142D

 28 31  0  0  0  0  0  0  0  0999 V2000
   -2.4583    3.0208    0.0000 C   0  0  0  0  0  0  0  0  0  0  0  0
    1.6292    0.9083    0.0000 N   0  0  3  0  0  0  0  0  0  0  0  0
   -3.1250    2.5333    0.0000 O   0  0  0  0  0  0  0  0  0  0  0  0
   -3.7958    3.0208    0.0000 C   0  0  0  0  0  0  0  0  0  0  0  0
   -3.5375    3.8000    0.0000 N   0  0  0  0  0  0  0  0  0  0  0  0
   -1.6750    2.7583    0.0000 N   0  0  0  0  0  0  0  0  0  0  0  0
   -2.7125    3.8000    0.0000 N   0  0  0  0  0  0  0  0  0  0  0  0
   -1.5083    1.9583    0.0000 C   0  0  0  0  0  0  0  0  0  0  0  0
    2.2792    1.4208    0.0000 C   0  0  0  0  0  0  0  0  0  0  0  0
    1.9125    0.1458    0.0000 C   0  0  0  0  0  0  0  0  0  0  0  0
    0.8417    1.1708    0.0000 C   0  0  0  0  0  0  0  0  0  0  0  0
   -4.5833    2.7583    0.0000 C   0  0  0  0  0  0  0  0  0  0  0  0
   -0.7208    1.6958    0.0000 C   0  0  0  0  0  0  0  0  0  0  0  0
   -2.1208    1.4000    0.0000 O   0  0  0  0  0  0  0  0  0  0  0  0
    2.9667    0.9500    0.0000 C   0  0  0  0  0  0  0  0  0  0  0  0
    2.7292    0.1708    0.0000 C   0  0  0  0  0  0  0  0  0  0  0  0
    2.2542    2.2708    0.0000 O   0  0  0  0  0  0  0  0  0  0  0  0
    1.4542   -0.5417    0.0000 O   0  0  0  0  0  0  0  0  0  0  0  0
    0.6875    1.9958    0.0000 C   0  0  0  0  0  0  0  0  0  0  0  0
    0.2292    0.6333    0.0000 C   0  0  0  0  0  0  0  0  0  0  0  0
   -0.5458    0.8958    0.0000 C   0  0  0  0  0  0  0  0  0  0  0  0
   -0.0958    2.2583    0.0000 C   0  0  0  0  0  0  0  0  0  0  0  0
   -5.1958    3.3083    0.0000 C   0  0  0  0  0  0  0  0  0  0  0  0
   -4.7583    1.9458    0.0000 C   0  0  0  0  0  0  0  0  0  0  0  0
   -6.1417    2.2458    0.0000 C   0  0  0  0  0  0  0  0  0  0  0  0
   -5.9833    3.0583    0.0000 C   0  0  0  0  0  0  0  0  0  0  0  0
   -5.5375    1.6958    0.0000 C   0  0  0  0  0  0  0  0  0  0  0  0
   -6.9292    1.9875    0.0000 Cl  0  0  0  0  0  0  0  0  0  0  0  0
  2 11  1  0  0  0  0
  3  1  1  0  0  0  0
  4  3  1  0  0  0  0
  5  7  1  0  0  0  0
  6  1  1  0  0  0  0
  7  1  2  0  0  0  0
  8  6  1  0  0  0  0
  9  2  1  0  0  0  0
 10  2  1  0  0  0  0
 11 19  1  0  0  0  0
 12  4  1  0  0  0  0
 13  8  1  0  0  0  0
 14  8  2  0  0  0  0
 15  9  1  0  0  0  0
 16 10  1  0  0  0  0
 17  9  2  0  0  0  0
 18 10  2  0  0  0  0
 19 22  2  0  0  0  0
 20 21  1  0  0  0  0
 21 13  2  0  0  0  0
 22 13  1  0  0  0  0
 23 12  2  0  0  0  0
 24 12  1  0  0  0  0
 25 27  1  0  0  0  0
 26 23  1  0  0  0  0
 27 24  2  0  0  0  0
 28 25  1  0  0  0  0
  4  5  2  0  0  0  0
 11 20  2  0  0  0  0
 25 26  2  0  0  0  0
 15 16  1  0  0  0  0
M  END
> <IDNUMBER>
F1374-0774

> <Chemical_Name>
N-[5-(4-chlorophenyl)-1,3,4-oxadiazol-2-yl]-4-(2,5-dioxopyrrolidin-1-yl)benzamide

> <CAS>
865287-13-4

> <PriceCoeff>
1.00

> <MW>
396.78

> <Description>
solid

> <FSP3>
0.11

> <clogP>
1.31

> <TPSA>
105.40

> <Acceptor>
6

> <Donor>
1

> <RotBonds>
4

> <HAC>
28

> <Collection>
General

$$$$
F1591-0629
  -ISIS-  06222321142D

 30 32  0  0  0  0  0  0  0  0999 V2000
   -0.1875   -3.5750    0.0000 S   0  0  3  0  0  0  0  0  0  0  0  0
   13.5167   -5.0125    0.0000 N   0  0  3  0  0  0  0  0  0  0  0  0
   14.4542   -6.3167    0.0000 C   0  0  0  0  0  0  0  0  0  0  0  0
   14.4542   -3.7000    0.0000 C   0  0  0  0  0  0  0  0  0  0  0  0
    7.0750   -5.0125    0.0000 C   0  0  0  0  0  0  0  0  0  0  0  0
    1.4250   -3.6000    0.0000 C   0  0  0  0  0  0  0  0  0  0  0  0
   -1.7375   -3.1542    0.0000 N   0  0  3  0  0  0  0  0  0  0  0  0
    6.2542   -3.6167    0.0000 N   0  0  0  0  0  0  0  0  0  0  0  0
   11.9042   -5.0125    0.0000 C   0  0  0  0  0  0  0  0  0  0  0  0
   -0.5833   -5.4750    0.0000 O   0  0  0  0  0  0  0  0  0  0  0  0
    0.0542   -1.6125    0.0000 O   0  0  0  0  0  0  0  0  0  0  0  0
    8.6875   -5.0125    0.0000 C   0  0  0  0  0  0  0  0  0  0  0  0
   16.0000   -4.1875    0.0000 C   0  0  0  0  0  0  0  0  0  0  0  0
   16.0000   -5.8000    0.0000 C   0  0  0  0  0  0  0  0  0  0  0  0
    6.2542   -6.4125    0.0000 O   0  0  0  0  0  0  0  0  0  0  0  0
   13.9417   -2.1542    0.0000 O   0  0  0  0  0  0  0  0  0  0  0  0
   13.9542   -7.8292    0.0000 O   0  0  0  0  0  0  0  0  0  0  0  0
   11.0792   -3.6000    0.0000 C   0  0  0  0  0  0  0  0  0  0  0  0
   11.1000   -6.4125    0.0000 C   0  0  0  0  0  0  0  0  0  0  0  0
    9.4875   -3.6167    0.0000 C   0  0  0  0  0  0  0  0  0  0  0  0
    9.4875   -6.4125    0.0000 C   0  0  0  0  0  0  0  0  0  0  0  0
    2.2292   -2.2042    0.0000 C   0  0  0  0  0  0  0  0  0  0  0  0
    2.2250   -4.9917    0.0000 C   0  0  0  0  0  0  0  0  0  0  0  0
    4.6417   -3.6000    0.0000 C   0  0  0  0  0  0  0  0  0  0  0  0
    3.8167   -5.0125    0.0000 C   0  0  0  0  0  0  0  0  0  0  0  0
    3.8417   -2.2042    0.0000 C   0  0  0  0  0  0  0  0  0  0  0  0
   -2.1458   -1.5917    0.0000 C   0  0  0  0  0  0  0  0  0  0  0  0
   -2.8875   -4.2875    0.0000 C   0  0  0  0  0  0  0  0  0  0  0  0
   -3.7125   -1.1667    0.0000 C   0  0  0  0  0  0  0  0  0  0  0  0
   -4.4458   -3.8625    0.0000 C   0  0  0  0  0  0  0  0  0  0  0  0
  2  9  1  0  0  0  0
  3  2  1  0  0  0  0
  4  2  1  0  0  0  0
  5  8  1  0  0  0  0
  6  1  1  0  0  0  0
  7  1  1  0  0  0  0
  8 24  1  0  0  0  0
  9 19  2  0  0  0  0
 10  1  2  0  0  0  0
 11  1  2  0  0  0  0
 12  5  1  0  0  0  0
 13  4  1  0  0  0  0
 14  3  1  0  0  0  0
 15  5  2  0  0  0  0
 16  4  2  0  0  0  0
 17  3  2  0  0  0  0
 18 20  2  0  0  0  0
 19 21  1  0  0  0  0
 20 12  1  0  0  0  0
 21 12  2  0  0  0  0
 22  6  2  0  0  0  0
 23  6  1  0  0  0  0
 24 25  1  0  0  0  0
 25 23  2  0  0  0  0
 26 22  1  0  0  0  0
 27  7  1  0  0  0  0
 28  7  1  0  0  0  0
 29 27  1  0  0  0  0
 30 28  1  0  0  0  0
 24 26  2  0  0  0  0
  9 18  1  0  0  0  0
 14 13  1  0  0  0  0
M  END
> <IDNUMBER>
F1591-0629

> <Chemical_Name>
N-[4-(diethylsulfamoyl)phenyl]-4-(2,5-dioxopyrrolidin-1-yl)benzamide

> <CAS>
692762-43-9

> <PriceCoeff>
1.00

> <MW>
429.49

> <Description>
solid

> <FSP3>
0.29

> <clogP>
1.50

> <TPSA>
112.24

> <Acceptor>
5

> <Donor>
1

> <RotBonds>
7

> <HAC>
30

> <Collection>
General

$$$$
F1601-0132
  -ISIS-  06222321142D

 19 21  0  0  0  0  0  0  0  0999 V2000
    3.9375   -2.0250    0.0000 C   0  0  0  0  0  0  0  0  0  0  0  0
    3.1125   -2.0250    0.0000 N   0  0  3  0  0  0  0  0  0  0  0  0
    4.1917   -1.2375    0.0000 C   0  0  0  0  0  0  0  0  0  0  0  0
    2.8625   -1.2375    0.0000 N   0  0  0  0  0  0  0  0  0  0  0  0
    3.5250   -0.7542    0.0000 N   0  0  0  0  0  0  0  0  0  0  0  0
    4.9792   -0.9792    0.0000 C   0  0  0  0  0  0  0  0  0  0  0  0
    2.6292   -2.6875    0.0000 C   0  0  0  0  0  0  0  0  0  0  0  0
    4.4250   -2.6917    0.0000 N   0  0  0  0  0  0  0  0  0  0  0  0
    5.5917   -1.5375    0.0000 C   0  0  0  0  0  0  0  0  0  0  0  0
    5.1500   -0.1792    0.0000 C   0  0  0  0  0  0  0  0  0  0  0  0
    6.5417   -0.4792    0.0000 C   0  0  0  0  0  0  0  0  0  0  0  0
    5.9292    0.0750    0.0000 C   0  0  0  0  0  0  0  0  0  0  0  0
    6.3750   -1.2792    0.0000 C   0  0  0  0  0  0  0  0  0  0  0  0
    7.3292   -0.2167    0.0000 Cl  0  0  0  0  0  0  0  0  0  0  0  0
    1.8042   -2.6000    0.0000 C   0  0  0  0  0  0  0  0  0  0  0  0
    2.9625   -3.4375    0.0000 C   0  0  0  0  0  0  0  0  0  0  0  0
    2.4792   -4.1042    0.0000 C   0  0  0  0  0  0  0  0  0  0  0  0
    1.3167   -3.2625    0.0000 C   0  0  0  0  0  0  0  0  0  0  0  0
    1.6542   -4.0167    0.0000 C   0  0  0  0  0  0  0  0  0  0  0  0
  2  1  1  0  0  0  0
  3  1  2  0  0  0  0
  4  2  1  0  0  0  0
  5  3  1  0  0  0  0
  6  3  1  0  0  0  0
  7  2  1  0  0  0  0
  8  1  1  0  0  0  0
  9  6  2  0  0  0  0
 10  6  1  0  0  0  0
 11 12  1  0  0  0  0
 12 10  2  0  0  0  0
 13  9  1  0  0  0  0
 14 11  1  0  0  0  0
 15  7  2  0  0  0  0
 16  7  1  0  0  0  0
 17 16  2  0  0  0  0
 18 15  1  0  0  0  0
 19 17  1  0  0  0  0
  5  4  2  0  0  0  0
 13 11  2  0  0  0  0
 18 19  2  0  0  0  0
M  END
> <IDNUMBER>
F1601-0132

> <Chemical_Name>
4-(4-chlorophenyl)-1-phenyl-1H-1,2,3-triazol-5-amine

> <CAS>
118946-58-0

> <PriceCoeff>
1.00

> <MW>
270.72

> <Description>
solid

> <FSP3>
0.00

> <clogP>
3.73

> <TPSA>
56.73

> <Acceptor>
2

> <Donor>
1

> <RotBonds>
2

> <HAC>
19

> <Collection>
General

> <Reference_compound>
CHEMBL235787

> <Similarity>
0.8100

$$$$
F0327-0335
  -ISIS-  06222321452D

 30 33  0  0  0  0  0  0  0  0999 V2000
   -1.7458    0.6500    0.0000 C   0  0  0  0  0  0  0  0  0  0  0  0
    4.4167    0.3500    0.0000 N   0  0  3  0  0  0  0  0  0  0  0  0
   -0.9125    0.4000    0.0000 N   0  0  0  0  0  0  0  0  0  0  0  0
   -0.4000    1.1125    0.0000 C   0  0  0  0  0  0  0  0  0  0  0  0
    0.4542    1.1125    0.0000 N   0  0  0  0  0  0  0  0  0  0  0  0
   -2.4208    0.1208    0.0000 C   0  0  0  0  0  0  0  0  0  0  0  0
    0.9000    0.3500    0.0000 C   0  0  0  0  0  0  0  0  0  0  0  0
    4.9042   -0.3667    0.0000 C   0  0  0  0  0  0  0  0  0  0  0  0
    4.9167    1.0125    0.0000 C   0  0  0  0  0  0  0  0  0  0  0  0
   -0.9000    1.8125    0.0000 S   0  0  0  0  0  0  0  0  0  0  0  0
   -1.7458    1.5500    0.0000 C   0  0  0  0  0  0  0  0  0  0  0  0
   -2.3000   -0.7542    0.0000 C   0  0  0  0  0  0  0  0  0  0  0  0
   -3.2458    0.4500    0.0000 C   0  0  0  0  0  0  0  0  0  0  0  0
    3.5375    0.3500    0.0000 C   0  0  0  0  0  0  0  0  0  0  0  0
    1.7792    0.3500    0.0000 C   0  0  0  0  0  0  0  0  0  0  0  0
   -2.9958   -1.3000    0.0000 C   0  0  0  0  0  0  0  0  0  0  0  0
   -3.9458   -0.0875    0.0000 C   0  0  0  0  0  0  0  0  0  0  0  0
    0.4542   -0.4042    0.0000 O   0  0  0  0  0  0  0  0  0  0  0  0
    5.7542   -0.1167    0.0000 C   0  0  0  0  0  0  0  0  0  0  0  0
    5.7500    0.7500    0.0000 C   0  0  0  0  0  0  0  0  0  0  0  0
    4.6000   -1.1875    0.0000 O   0  0  0  0  0  0  0  0  0  0  0  0
    4.6292    1.8625    0.0000 O   0  0  0  0  0  0  0  0  0  0  0  0
   -3.8208   -0.9667    0.0000 C   0  0  0  0  0  0  0  0  0  0  0  0
    3.1000    1.1125    0.0000 C   0  0  0  0  0  0  0  0  0  0  0  0
    3.1000   -0.4042    0.0000 C   0  0  0  0  0  0  0  0  0  0  0  0
    2.2167    1.1125    0.0000 C   0  0  0  0  0  0  0  0  0  0  0  0
    2.2167   -0.4042    0.0000 C   0  0  0  0  0  0  0  0  0  0  0  0
   -3.3625    1.3208    0.0000 C   0  0  0  0  0  0  0  0  0  0  0  0
   -1.4958   -1.1000    0.0000 C   0  0  0  0  0  0  0  0  0  0  0  0
   -4.5208   -1.5000    0.0000 C   0  0  0  0  0  0  0  0  0  0  0  0
  2 14  1  0  0  0  0
  3  1  1  0  0  0  0
  4  3  2  0  0  0  0
  5  4  1  0  0  0  0
  6  1  1  0  0  0  0
  7  5  1  0  0  0  0
  8  2  1  0  0  0  0
  9  2  1  0  0  0  0
 10 11  1  0  0  0  0
 11  1  2  0  0  0  0
 12  6  1  0  0  0  0
 13  6  2  0  0  0  0
 14 25  2  0  0  0  0
 15  7  1  0  0  0  0
 16 12  2  0  0  0  0
 17 13  1  0  0  0  0
 18  7  2  0  0  0  0
 19  8  1  0  0  0  0
 20  9  1  0  0  0  0
 21  8  2  0  0  0  0
 22  9  2  0  0  0  0
 23 17  2  0  0  0  0
 24 26  2  0  0  0  0
 25 27  1  0  0  0  0
 26 15  1  0  0  0  0
 27 15  2  0  0  0  0
 28 13  1  0  0  0  0
 29 12  1  0  0  0  0
 30 23  1  0  0  0  0
 10  4  1  0  0  0  0
 23 16  1  0  0  0  0
 24 14  1  0  0  0  0
 19 20  1  0  0  0  0
M  END
> <IDNUMBER>
F0327-0335

> <Chemical_Name>
4-(2,5-dioxopyrrolidin-1-yl)-N-[4-(2,4,6-trimethylphenyl)-1,3-thiazol-2-yl]benzamide

> <CAS>
313405-88-8

> <PriceCoeff>
1.00

> <MW>
419.50

> <Description>
solid

> <FSP3>
0.22

> <clogP>
3.02

> <TPSA>
107.61

> <Acceptor>
4

> <Donor>
1

> <RotBonds>
4

> <HAC>
30

> <Collection>
General

$$$$
F0327-0340
  -ISIS-  06222321442D

 29 32  0  0  0  0  0  0  0  0999 V2000
    4.4167    0.3500    0.0000 N   0  0  3  0  0  0  0  0  0  0  0  0
   -0.4000    1.1125    0.0000 C   0  0  0  0  0  0  0  0  0  0  0  0
   -0.9125    0.4000    0.0000 N   0  0  0  0  0  0  0  0  0  0  0  0
    0.4542    1.1125    0.0000 N   0  0  0  0  0  0  0  0  0  0  0  0
   -1.7458    0.6500    0.0000 C   0  0  0  0  0  0  0  0  0  0  0  0
    0.9000    0.3500    0.0000 C   0  0  0  0  0  0  0  0  0  0  0  0
    4.9042   -0.3667    0.0000 C   0  0  0  0  0  0  0  0  0  0  0  0
    4.9167    1.0125    0.0000 C   0  0  0  0  0  0  0  0  0  0  0  0
   -0.9000    1.8125    0.0000 S   0  0  0  0  0  0  0  0  0  0  0  0
   -1.7458    1.5500    0.0000 C   0  0  0  0  0  0  0  0  0  0  0  0
   -5.1958   -2.0292    0.0000 N   0  0  0  0  0  0  0  0  0  0  0  0
    3.5375    0.3500    0.0000 C   0  0  0  0  0  0  0  0  0  0  0  0
   -4.5208   -1.5000    0.0000 C   0  0  0  0  0  0  0  0  0  0  0  0
    1.7792    0.3500    0.0000 C   0  0  0  0  0  0  0  0  0  0  0  0
   -2.4208    0.1208    0.0000 C   0  0  0  0  0  0  0  0  0  0  0  0
    0.4542   -0.4042    0.0000 O   0  0  0  0  0  0  0  0  0  0  0  0
    5.7500    0.7500    0.0000 C   0  0  0  0  0  0  0  0  0  0  0  0
    5.7542   -0.1167    0.0000 C   0  0  0  0  0  0  0  0  0  0  0  0
    4.6292    1.8625    0.0000 O   0  0  0  0  0  0  0  0  0  0  0  0
    4.6000   -1.1875    0.0000 O   0  0  0  0  0  0  0  0  0  0  0  0
    3.1000   -0.4042    0.0000 C   0  0  0  0  0  0  0  0  0  0  0  0
    3.1000    1.1125    0.0000 C   0  0  0  0  0  0  0  0  0  0  0  0
    2.2167   -0.4042    0.0000 C   0  0  0  0  0  0  0  0  0  0  0  0
    2.2167    1.1125    0.0000 C   0  0  0  0  0  0  0  0  0  0  0  0
   -3.2458    0.4500    0.0000 C   0  0  0  0  0  0  0  0  0  0  0  0
   -2.3000   -0.7542    0.0000 C   0  0  0  0  0  0  0  0  0  0  0  0
   -3.8208   -0.9667    0.0000 C   0  0  0  0  0  0  0  0  0  0  0  0
   -3.9458   -0.0875    0.0000 C   0  0  0  0  0  0  0  0  0  0  0  0
   -2.9958   -1.3000    0.0000 C   0  0  0  0  0  0  0  0  0  0  0  0
  2  4  1  0  0  0  0
  3  2  2  0  0  0  0
  4  6  1  0  0  0  0
  5  3  1  0  0  0  0
  6 14  1  0  0  0  0
  7  1  1  0  0  0  0
  8  1  1  0  0  0  0
  9  2  1  0  0  0  0
 10  9  1  0  0  0  0
 11 13  3  0  0  0  0
 12  1  1  0  0  0  0
 13 27  1  0  0  0  0
 14 24  1  0  0  0  0
 15  5  1  0  0  0  0
 16  6  2  0  0  0  0
 17  8  1  0  0  0  0
 18  7  1  0  0  0  0
 19  8  2  0  0  0  0
 20  7  2  0  0  0  0
 21 12  2  0  0  0  0
 22 12  1  0  0  0  0
 23 21  1  0  0  0  0
 24 22  2  0  0  0  0
 25 15  2  0  0  0  0
 26 15  1  0  0  0  0
 27 29  1  0  0  0  0
 28 25  1  0  0  0  0
 29 26  2  0  0  0  0
 18 17  1  0  0  0  0
 14 23  2  0  0  0  0
  5 10  2  0  0  0  0
 27 28  2  0  0  0  0
M  END
> <IDNUMBER>
F0327-0340

> <Chemical_Name>
N-[4-(4-cyanophenyl)-1,3-thiazol-2-yl]-4-(2,5-dioxopyrrolidin-1-yl)benzamide

> <CAS>
330200-83-4

> <PriceCoeff>
1.00

> <MW>
402.43

> <Description>
solid

> <FSP3>
0.10

> <clogP>
1.58

> <TPSA>
131.40

> <Acceptor>
5

> <Donor>
1

> <RotBonds>
4

> <HAC>
29

> <Collection>
General

$$$$
F0327-0329
  -ISIS-  06222321452D

 29 32  0  0  0  0  0  0  0  0999 V2000
    4.4167    0.3500    0.0000 N   0  0  3  0  0  0  0  0  0  0  0  0
   -0.4000    1.1125    0.0000 C   0  0  0  0  0  0  0  0  0  0  0  0
   -0.9125    0.4000    0.0000 N   0  0  0  0  0  0  0  0  0  0  0  0
    0.4542    1.1125    0.0000 N   0  0  0  0  0  0  0  0  0  0  0  0
   -1.7458    0.6500    0.0000 C   0  0  0  0  0  0  0  0  0  0  0  0
    0.9000    0.3500    0.0000 C   0  0  0  0  0  0  0  0  0  0  0  0
    4.9042   -0.3667    0.0000 C   0  0  0  0  0  0  0  0  0  0  0  0
    4.9167    1.0125    0.0000 C   0  0  0  0  0  0  0  0  0  0  0  0
   -0.9000    1.8125    0.0000 S   0  0  0  0  0  0  0  0  0  0  0  0
   -1.7458    1.5500    0.0000 C   0  0  0  0  0  0  0  0  0  0  0  0
   -2.4208    0.1208    0.0000 C   0  0  0  0  0  0  0  0  0  0  0  0
    3.5375    0.3500    0.0000 C   0  0  0  0  0  0  0  0  0  0  0  0
   -3.2458    0.4500    0.0000 C   0  0  0  0  0  0  0  0  0  0  0  0
   -3.9458   -0.0875    0.0000 C   0  0  0  0  0  0  0  0  0  0  0  0
    1.7792    0.3500    0.0000 C   0  0  0  0  0  0  0  0  0  0  0  0
    0.4542   -0.4042    0.0000 O   0  0  0  0  0  0  0  0  0  0  0  0
    5.7500    0.7500    0.0000 C   0  0  0  0  0  0  0  0  0  0  0  0
    5.7542   -0.1167    0.0000 C   0  0  0  0  0  0  0  0  0  0  0  0
    4.6292    1.8625    0.0000 O   0  0  0  0  0  0  0  0  0  0  0  0
    4.6000   -1.1875    0.0000 O   0  0  0  0  0  0  0  0  0  0  0  0
   -3.8208   -0.9667    0.0000 C   0  0  0  0  0  0  0  0  0  0  0  0
   -2.3000   -0.7542    0.0000 C   0  0  0  0  0  0  0  0  0  0  0  0
    3.1000    1.1125    0.0000 C   0  0  0  0  0  0  0  0  0  0  0  0
    3.1000   -0.4042    0.0000 C   0  0  0  0  0  0  0  0  0  0  0  0
    2.2167    1.1125    0.0000 C   0  0  0  0  0  0  0  0  0  0  0  0
    2.2167   -0.4042    0.0000 C   0  0  0  0  0  0  0  0  0  0  0  0
   -2.9958   -1.3000    0.0000 C   0  0  0  0  0  0  0  0  0  0  0  0
   -4.7500    0.2458    0.0000 C   0  0  0  0  0  0  0  0  0  0  0  0
   -4.5208   -1.5000    0.0000 C   0  0  0  0  0  0  0  0  0  0  0  0
  2  4  1  0  0  0  0
  3  2  2  0  0  0  0
  4  6  1  0  0  0  0
  5  3  1  0  0  0  0
  6 15  1  0  0  0  0
  7  1  1  0  0  0  0
  8  1  1  0  0  0  0
  9  2  1  0  0  0  0
 10  9  1  0  0  0  0
 11  5  1  0  0  0  0
 12  1  1  0  0  0  0
 13 11  2  0  0  0  0
 14 13  1  0  0  0  0
 15 26  2  0  0  0  0
 16  6  2  0  0  0  0
 17  8  1  0  0  0  0
 18  7  1  0  0  0  0
 19  8  2  0  0  0  0
 20  7  2  0  0  0  0
 21 27  1  0  0  0  0
 22 11  1  0  0  0  0
 23 12  1  0  0  0  0
 24 12  2  0  0  0  0
 25 23  2  0  0  0  0
 26 24  1  0  0  0  0
 27 22  2  0  0  0  0
 28 14  1  0  0  0  0
 29 21  1  0  0  0  0
 18 17  1  0  0  0  0
 25 15  1  0  0  0  0
 10  5  2  0  0  0  0
 14 21  2  0  0  0  0
M  END
> <IDNUMBER>
F0327-0329

> <Chemical_Name>
N-[4-(3,4-dimethylphenyl)-1,3-thiazol-2-yl]-4-(2,5-dioxopyrrolidin-1-yl)benzamide

> <CAS>
392246-34-3

> <PriceCoeff>
1.00

> <MW>
405.47

> <Description>
solid

> <FSP3>
0.18

> <clogP>
3.07

> <TPSA>
107.61

> <Acceptor>
4

> <Donor>
1

> <RotBonds>
4

> <HAC>
29

> <Collection>
General

$$$$
F1813-0346
  -ISIS-  06222321452D

 27 30  0  0  0  0  0  0  0  0999 V2000
   -6.0000    3.3958    0.0000 C   0  0  0  0  0  0  0  0  0  0  0  0
   -1.7250    5.0167    0.0000 N   0  0  3  0  0  0  0  0  0  0  0  0
   -6.0875    2.5625    0.0000 N   0  0  0  0  0  0  0  0  0  0  0  0
   -6.8917    2.3958    0.0000 C   0  0  0  0  0  0  0  0  0  0  0  0
   -5.2958    3.8000    0.0000 N   0  0  0  0  0  0  0  0  0  0  0  0
   -7.3125    3.1083    0.0000 C   0  0  0  0  0  0  0  0  0  0  0  0
   -6.7542    3.7333    0.0000 S   0  0  0  0  0  0  0  0  0  0  0  0
   -4.5833    3.3958    0.0000 C   0  0  0  0  0  0  0  0  0  0  0  0
   -0.9625    4.7167    0.0000 C   0  0  0  0  0  0  0  0  0  0  0  0
   -1.6708    5.8417    0.0000 C   0  0  0  0  0  0  0  0  0  0  0  0
   -7.3042    1.6833    0.0000 C   0  0  0  0  0  0  0  0  0  0  0  0
   -8.1292    3.1083    0.0000 C   0  0  0  0  0  0  0  0  0  0  0  0
   -2.4458    4.6042    0.0000 C   0  0  0  0  0  0  0  0  0  0  0  0
   -8.1292    1.6750    0.0000 C   0  0  0  0  0  0  0  0  0  0  0  0
   -3.8708    3.8000    0.0000 C   0  0  0  0  0  0  0  0  0  0  0  0
   -8.5417    2.3958    0.0000 C   0  0  0  0  0  0  0  0  0  0  0  0
   -4.5833    2.5708    0.0000 O   0  0  0  0  0  0  0  0  0  0  0  0
   -0.8625    6.0417    0.0000 C   0  0  0  0  0  0  0  0  0  0  0  0
   -0.4458    5.3417    0.0000 C   0  0  0  0  0  0  0  0  0  0  0  0
   -2.3083    6.3917    0.0000 O   0  0  0  0  0  0  0  0  0  0  0  0
   -0.7625    3.9250    0.0000 O   0  0  0  0  0  0  0  0  0  0  0  0
   -3.1583    5.0292    0.0000 C   0  0  0  0  0  0  0  0  0  0  0  0
   -2.4500    3.8000    0.0000 C   0  0  0  0  0  0  0  0  0  0  0  0
   -3.1625    3.3958    0.0000 C   0  0  0  0  0  0  0  0  0  0  0  0
   -3.8708    4.6250    0.0000 C   0  0  0  0  0  0  0  0  0  0  0  0
   -6.8917    0.9708    0.0000 Cl  0  0  0  0  0  0  0  0  0  0  0  0
   -9.3625    2.3958    0.0000 Cl  0  0  0  0  0  0  0  0  0  0  0  0
  2 13  1  0  0  0  0
  3  1  2  0  0  0  0
  4  3  1  0  0  0  0
  5  1  1  0  0  0  0
  6  7  1  0  0  0  0
  7  1  1  0  0  0  0
  8  5  1  0  0  0  0
  9  2  1  0  0  0  0
 10  2  1  0  0  0  0
 11  4  2  0  0  0  0
 12  6  2  0  0  0  0
 13 22  1  0  0  0  0
 14 11  1  0  0  0  0
 15  8  1  0  0  0  0
 16 12  1  0  0  0  0
 17  8  2  0  0  0  0
 18 10  1  0  0  0  0
 19  9  1  0  0  0  0
 20 10  2  0  0  0  0
 21  9  2  0  0  0  0
 22 25  2  0  0  0  0
 23 24  1  0  0  0  0
 24 15  2  0  0  0  0
 25 15  1  0  0  0  0
 26 11  1  0  0  0  0
 27 16  1  0  0  0  0
  6  4  1  0  0  0  0
 16 14  2  0  0  0  0
 23 13  2  0  0  0  0
 18 19  1  0  0  0  0
M  END
> <IDNUMBER>
F1813-0346

> <Chemical_Name>
N-(4,6-dichloro-1,3-benzothiazol-2-yl)-4-(2,5-dioxopyrrolidin-1-yl)benzamide

> <CAS>
897759-44-3

> <PriceCoeff>
1.00

> <MW>
420.27

> <Description>
solid

> <FSP3>
0.11

> <clogP>
3.06

> <TPSA>
107.61

> <Acceptor>
4

> <Donor>
1

> <RotBonds>
3

> <HAC>
27

> <Collection>
General

$$$$
F1813-0347
  -ISIS-  06222321142D

 27 30  0  0  0  0  0  0  0  0999 V2000
   -6.0000    3.3958    0.0000 C   0  0  0  0  0  0  0  0  0  0  0  0
   -6.0792    2.5625    0.0000 N   0  0  0  0  0  0  0  0  0  0  0  0
   -6.8917    2.3958    0.0000 C   0  0  0  0  0  0  0  0  0  0  0  0
   -1.7250    5.0167    0.0000 N   0  0  3  0  0  0  0  0  0  0  0  0
   -7.3042    3.1083    0.0000 C   0  0  0  0  0  0  0  0  0  0  0  0
   -5.2958    3.8083    0.0000 N   0  0  0  0  0  0  0  0  0  0  0  0
   -6.7542    3.7333    0.0000 S   0  0  0  0  0  0  0  0  0  0  0  0
   -4.5833    3.3958    0.0000 C   0  0  0  0  0  0  0  0  0  0  0  0
   -0.9625    4.7167    0.0000 C   0  0  0  0  0  0  0  0  0  0  0  0
   -1.6708    5.8417    0.0000 C   0  0  0  0  0  0  0  0  0  0  0  0
   -2.4458    4.6042    0.0000 C   0  0  0  0  0  0  0  0  0  0  0  0
   -7.3042    1.6833    0.0000 C   0  0  0  0  0  0  0  0  0  0  0  0
   -8.1292    3.1083    0.0000 C   0  0  0  0  0  0  0  0  0  0  0  0
   -3.8708    3.8000    0.0000 C   0  0  0  0  0  0  0  0  0  0  0  0
   -4.5833    2.5708    0.0000 O   0  0  0  0  0  0  0  0  0  0  0  0
   -0.8625    6.0417    0.0000 C   0  0  0  0  0  0  0  0  0  0  0  0
   -0.4458    5.3417    0.0000 C   0  0  0  0  0  0  0  0  0  0  0  0
   -2.3083    6.3917    0.0000 O   0  0  0  0  0  0  0  0  0  0  0  0
   -0.7625    3.9250    0.0000 O   0  0  0  0  0  0  0  0  0  0  0  0
   -3.1583    5.0292    0.0000 C   0  0  0  0  0  0  0  0  0  0  0  0
   -2.4500    3.8000    0.0000 C   0  0  0  0  0  0  0  0  0  0  0  0
   -8.5417    2.3958    0.0000 C   0  0  0  0  0  0  0  0  0  0  0  0
   -8.1292    1.6833    0.0000 C   0  0  0  0  0  0  0  0  0  0  0  0
   -3.1625    3.3958    0.0000 C   0  0  0  0  0  0  0  0  0  0  0  0
   -3.8708    4.6250    0.0000 C   0  0  0  0  0  0  0  0  0  0  0  0
   -6.8917    0.9708    0.0000 Cl  0  0  0  0  0  0  0  0  0  0  0  0
   -8.5417    3.8208    0.0000 Cl  0  0  0  0  0  0  0  0  0  0  0  0
  2  1  2  0  0  0  0
  3  2  1  0  0  0  0
  4 11  1  0  0  0  0
  5  7  1  0  0  0  0
  6  1  1  0  0  0  0
  7  1  1  0  0  0  0
  8  6  1  0  0  0  0
  9  4  1  0  0  0  0
 10  4  1  0  0  0  0
 11 20  1  0  0  0  0
 12  3  2  0  0  0  0
 13  5  2  0  0  0  0
 14  8  1  0  0  0  0
 15  8  2  0  0  0  0
 16 10  1  0  0  0  0
 17  9  1  0  0  0  0
 18 10  2  0  0  0  0
 19  9  2  0  0  0  0
 20 25  2  0  0  0  0
 21 24  1  0  0  0  0
 22 13  1  0  0  0  0
 23 12  1  0  0  0  0
 24 14  2  0  0  0  0
 25 14  1  0  0  0  0
 26 12  1  0  0  0  0
 27 13  1  0  0  0  0
  5  3  1  0  0  0  0
 22 23  2  0  0  0  0
 21 11  2  0  0  0  0
 16 17  1  0  0  0  0
M  END
> <IDNUMBER>
F1813-0347

> <Chemical_Name>
N-(4,7-dichloro-1,3-benzothiazol-2-yl)-4-(2,5-dioxopyrrolidin-1-yl)benzamide

> <CAS>
897617-99-1

> <PriceCoeff>
1.00

> <MW>
420.27

> <Description>
solid

> <FSP3>
0.11

> <clogP>
3.06

> <TPSA>
107.61

> <Acceptor>
4

> <Donor>
1

> <RotBonds>
3

> <HAC>
27

> <Collection>
General

$$$$
F1199-0046
  -ISIS-  06222321442D

 21 22  0  0  0  0  0  0  0  0999 V2000
    0.9750    0.1750    0.0000 N   0  0  3  0  0  0  0  0  0  0  0  0
    1.2250   -0.6125    0.0000 C   0  0  0  0  0  0  0  0  0  0  0  0
    1.6375    0.6583    0.0000 C   0  0  0  0  0  0  0  0  0  0  0  0
    2.0500   -0.6125    0.0000 C   0  0  3  0  0  0  0  0  0  0  0  0
    2.3042    0.1750    0.0000 C   0  0  0  0  0  0  0  0  0  0  0  0
    3.8375   -1.8625    0.0000 C   0  0  0  0  0  0  0  0  0  0  0  0
    2.5375   -1.2792    0.0000 S   0  0  0  0  0  0  0  0  0  0  0  0
    3.3542   -1.1917    0.0000 C   0  0  0  0  0  0  0  0  0  0  0  0
    3.5000   -2.6167    0.0000 C   0  0  0  0  0  0  0  0  0  0  0  0
    0.7417   -1.2792    0.0000 O   0  0  0  0  0  0  0  0  0  0  0  0
    1.6375    1.4833    0.0000 O   0  0  0  0  0  0  0  0  0  0  0  0
    3.9792   -3.2875    0.0000 O   0  0  0  0  0  0  0  0  0  0  0  0
    0.1917    0.4333    0.0000 C   0  0  0  0  0  0  0  0  0  0  0  0
    2.6792   -2.7000    0.0000 O   0  0  0  0  0  0  0  0  0  0  0  0
    4.6542   -1.7750    0.0000 C   0  0  0  0  0  0  0  0  0  0  0  0
    3.6875   -0.4417    0.0000 C   0  0  0  0  0  0  0  0  0  0  0  0
    0.0167    1.2333    0.0000 C   0  0  0  0  0  0  0  0  0  0  0  0
   -0.7708    1.4958    0.0000 C   0  0  0  0  0  0  0  0  0  0  0  0
    4.9917   -1.0167    0.0000 C   0  0  0  0  0  0  0  0  0  0  0  0
    4.5042   -0.3542    0.0000 C   0  0  0  0  0  0  0  0  0  0  0  0
   -0.9375    2.2958    0.0000 C   0  0  0  0  0  0  0  0  0  0  0  0
  2  1  1  0  0  0  0
  3  1  1  0  0  0  0
  4  2  1  0  0  0  0
  5  3  1  0  0  0  0
  6  8  2  0  0  0  0
  7  4  1  0  0  0  0
  8  7  1  0  0  0  0
  9  6  1  0  0  0  0
 10  2  2  0  0  0  0
 11  3  2  0  0  0  0
 12  9  2  0  0  0  0
 13  1  1  0  0  0  0
 14  9  1  0  0  0  0
 15  6  1  0  0  0  0
 16  8  1  0  0  0  0
 17 13  1  0  0  0  0
 18 17  1  0  0  0  0
 19 20  1  0  0  0  0
 20 16  2  0  0  0  0
 21 18  1  0  0  0  0
  5  4  1  0  0  0  0
 19 15  2  0  0  0  0
M  END
> <IDNUMBER>
F1199-0046

> <Chemical_Name>
2-[(1-butyl-2,5-dioxopyrrolidin-3-yl)sulfanyl]benzoic acid

> <CAS>
459421-25-1

> <PriceCoeff>
1.00

> <MW>
307.36

> <Description>
solid

> <FSP3>
0.40

> <clogP>
2.83

> <TPSA>
99.98

> <Acceptor>
4

> <Donor>
0

> <RotBonds>
6

> <HAC>
21

> <Collection>
General

$$$$
F3259-0273
  -ISIS-  06222321442D

 16 17  0  0  0  0  0  0  0  0999 V2000
    3.6667   -4.4750    0.0000 C   0  0  0  0  0  0  0  0  0  0  0  0
    3.6667   -3.7000    0.0000 C   0  0  0  0  0  0  0  0  0  0  0  0
    2.9792   -4.8667    0.0000 N   0  0  3  0  0  0  0  0  0  0  0  0
    2.3167   -3.7000    0.0000 N   0  0  3  0  0  0  0  0  0  0  0  0
    2.3167   -4.4792    0.0000 C   0  0  0  0  0  0  0  0  0  0  0  0
    2.9792   -3.3042    0.0000 C   0  0  0  0  0  0  0  0  0  0  0  0
    4.3292   -4.8667    0.0000 N   0  0  0  0  0  0  0  0  0  0  0  0
    5.0167   -3.7042    0.0000 N   0  0  3  0  0  0  0  0  0  0  0  0
    5.0042   -4.4917    0.0000 C   0  0  0  0  0  0  0  0  0  0  0  0
    1.6417   -4.8667    0.0000 O   0  0  0  0  0  0  0  0  0  0  0  0
    2.9792   -2.5167    0.0000 O   0  0  0  0  0  0  0  0  0  0  0  0
    2.9792   -5.6500    0.0000 C   0  0  0  0  0  0  0  0  0  0  0  0
    1.5625   -3.4917    0.0000 C   0  0  0  0  0  0  0  0  0  0  0  0
    5.8375   -3.7042    0.0000 C   0  0  0  0  0  0  0  0  0  0  0  0
    7.0667   -2.9917    0.0000 Br  0  0  0  0  0  0  0  0  0  0  0  0
    6.2417   -2.9917    0.0000 C   0  0  0  0  0  0  0  0  0  0  0  0
  2  1  2  0  0  0  0
  3  1  1  0  0  0  0
  4  5  1  0  0  0  0
  5  3  1  0  0  0  0
  6  2  1  0  0  0  0
  7  1  1  0  0  0  0
  8  2  1  0  0  0  0
  9  7  2  0  0  0  0
 10  5  2  0  0  0  0
 11  6  2  0  0  0  0
 12  3  1  0  0  0  0
 13  4  1  0  0  0  0
 14  8  1  0  0  0  0
 15 16  1  0  0  0  0
 16 14  1  0  0  0  0
  9  8  1  0  0  0  0
  6  4  1  0  0  0  0
M  END
> <IDNUMBER>
F3259-0273

> <Chemical_Name>
7-(2-bromoethyl)-1,3-dimethyl-2,3,6,7-tetrahydro-1H-purine-2,6-dione

> <CAS>
23146-05-6

> <PriceCoeff>
1.00

> <MW>
287.12

> <Description>
solid

> <FSP3>
0.44

> <clogP>
0.69

> <TPSA>
58.44

> <Acceptor>
3

> <Donor>
1

> <RotBonds>
2

> <HAC>
16

> <Collection>
General

> <Reference_compound>
CHEMBL113

> <Similarity>
0.9070

$$$$
F2738-1702
  -ISIS-  06222321462D

 29 32  0  0  0  0  0  0  0  0999 V2000
   -3.1583    3.3958    0.0000 C   0  0  0  0  0  0  0  0  0  0  0  0
   -2.4083    3.7333    0.0000 N   0  0  0  0  0  0  0  0  0  0  0  0
   -6.0042    3.3958    0.0000 N   0  0  3  0  0  0  0  0  0  0  0  0
   -3.8708    3.8000    0.0000 N   0  0  3  0  0  0  0  0  0  0  0  0
   -1.8583    3.1208    0.0000 C   0  0  0  0  0  0  0  0  0  0  0  0
   -3.0750    2.5833    0.0000 S   0  0  0  0  0  0  0  0  0  0  0  0
   -4.5833    3.3958    0.0000 C   0  0  0  0  0  0  0  0  0  0  0  0
   -2.2625    2.4083    0.0000 C   0  0  0  0  0  0  0  0  0  0  0  0
   -5.3083    3.8083    0.0000 C   0  0  0  0  0  0  0  0  0  0  0  0
   -6.7542    3.7333    0.0000 C   0  0  0  0  0  0  0  0  0  0  0  0
   -6.0792    2.5708    0.0000 C   0  0  0  0  0  0  0  0  0  0  0  0
   -1.0333    3.1208    0.0000 C   0  0  0  0  0  0  0  0  0  0  0  0
   -1.8500    1.6958    0.0000 C   0  0  0  0  0  0  0  0  0  0  0  0
   -0.6333    2.4083    0.0000 C   0  0  0  0  0  0  0  0  0  0  0  0
   -3.8708    4.6042    0.0000 C   0  0  0  0  0  0  0  0  0  0  0  0
   -1.0333    1.6958    0.0000 C   0  0  0  0  0  0  0  0  0  0  0  0
   -4.5833    2.5708    0.0000 O   0  0  0  0  0  0  0  0  0  0  0  0
   -7.3042    3.1083    0.0000 C   0  0  0  0  0  0  0  0  0  0  0  0
   -6.8917    2.3958    0.0000 C   0  0  0  0  0  0  0  0  0  0  0  0
   -6.9292    4.5125    0.0000 O   0  0  0  0  0  0  0  0  0  0  0  0
   -5.4833    2.0250    0.0000 O   0  0  0  0  0  0  0  0  0  0  0  0
   -2.4583    4.6042    0.0000 N   0  0  0  0  0  0  0  0  0  0  0  0
   -3.1583    5.0167    0.0000 C   0  0  0  0  0  0  0  0  0  0  0  0
   -0.6125    3.8375    0.0000 F   0  0  0  0  0  0  0  0  0  0  0  0
   -0.6250    0.9833    0.0000 F   0  0  0  0  0  0  0  0  0  0  0  0
   -1.7458    5.0167    0.0000 C   0  0  0  0  0  0  0  0  0  0  0  0
   -3.1625    5.8417    0.0000 C   0  0  0  0  0  0  0  0  0  0  0  0
   -1.7375    5.8417    0.0000 C   0  0  0  0  0  0  0  0  0  0  0  0
   -2.4583    6.2542    0.0000 C   0  0  0  0  0  0  0  0  0  0  0  0
  2  1  2  0  0  0  0
  3  9  1  0  0  0  0
  4  1  1  0  0  0  0
  5  2  1  0  0  0  0
  6  1  1  0  0  0  0
  7  4  1  0  0  0  0
  8  6  1  0  0  0  0
  9  7  1  0  0  0  0
 10  3  1  0  0  0  0
 11  3  1  0  0  0  0
 12  5  1  0  0  0  0
 13  8  1  0  0  0  0
 14 12  2  0  0  0  0
 15  4  1  0  0  0  0
 16 13  2  0  0  0  0
 17  7  2  0  0  0  0
 18 10  1  0  0  0  0
 19 11  1  0  0  0  0
 20 10  2  0  0  0  0
 21 11  2  0  0  0  0
 22 23  2  0  0  0  0
 23 15  1  0  0  0  0
 24 12  1  0  0  0  0
 25 16  1  0  0  0  0
 26 22  1  0  0  0  0
 27 23  1  0  0  0  0
 28 29  1  0  0  0  0
 29 27  2  0  0  0  0
  8  5  2  0  0  0  0
 14 16  1  0  0  0  0
 28 26  2  0  0  0  0
 18 19  1  0  0  0  0
M  END
> <IDNUMBER>
F2738-1702

> <Chemical_Name>
N-(4,6-difluoro-1,3-benzothiazol-2-yl)-2-(2,5-dioxopyrrolidin-1-yl)-N-[(pyridin-2-yl)methyl]acetamide

> <CAS>
923070-02-4

> <PriceCoeff>
1.00

> <MW>
416.40

> <Description>
solid

> <FSP3>
0.21

> <clogP>
1.28

> <TPSA>
111.71

> <Acceptor>
5

> <Donor>
1

> <RotBonds>
6

> <HAC>
29

> <Collection>
General

$$$$
F3269-0032
  -ISIS-  06222321462D

 24 26  0  0  0  0  0  0  0  0999 V2000
    3.0250   -2.6375    0.0000 N   0  0  3  0  0  0  0  0  0  0  0  0
    3.5167   -3.3000    0.0000 C   0  0  0  0  0  0  0  0  0  0  0  0
    4.3000   -3.0375    0.0000 S   0  0  0  0  0  0  0  0  0  0  0  0
    3.5042   -1.9625    0.0000 C   0  0  0  0  0  0  0  0  0  0  0  0
    4.2917   -2.2125    0.0000 C   0  0  3  0  0  0  0  0  0  0  0  0
    0.9542   -1.9375    0.0000 N   0  0  3  0  0  0  0  0  0  0  0  0
    0.4667   -1.2667    0.0000 C   0  0  0  0  0  0  0  0  0  0  0  0
    0.4750   -2.6125    0.0000 C   0  0  0  0  0  0  0  0  0  0  0  0
    2.1917   -2.6417    0.0000 C   0  0  0  0  0  0  0  0  0  0  0  0
    1.7792   -1.9292    0.0000 C   0  0  0  0  0  0  0  0  0  0  0  0
    4.9542   -1.7250    0.0000 N   0  0  0  0  0  0  0  0  0  0  0  0
    3.2667   -4.0792    0.0000 O   0  0  0  0  0  0  0  0  0  0  0  0
    3.2417   -1.1792    0.0000 O   0  0  0  0  0  0  0  0  0  0  0  0
   -0.3208   -2.3542    0.0000 C   0  0  0  0  0  0  0  0  0  0  0  0
   -0.3208   -1.5292    0.0000 C   0  0  0  0  0  0  0  0  0  0  0  0
    0.7167   -0.4792    0.0000 O   0  0  0  0  0  0  0  0  0  0  0  0
    0.7292   -3.3917    0.0000 O   0  0  0  0  0  0  0  0  0  0  0  0
    5.7125   -2.0542    0.0000 C   0  0  0  0  0  0  0  0  0  0  0  0
    7.2250   -2.7167    0.0000 C   0  0  0  0  0  0  0  0  0  0  0  0
    7.9792   -3.0417    0.0000 Br  0  0  0  0  0  0  0  0  0  0  0  0
    6.3750   -1.5625    0.0000 C   0  0  0  0  0  0  0  0  0  0  0  0
    5.8042   -2.8750    0.0000 C   0  0  0  0  0  0  0  0  0  0  0  0
    7.1250   -1.8917    0.0000 C   0  0  0  0  0  0  0  0  0  0  0  0
    6.5542   -3.2042    0.0000 C   0  0  0  0  0  0  0  0  0  0  0  0
  2  1  1  0  0  0  0
  3  2  1  0  0  0  0
  4  1  1  0  0  0  0
  5  4  1  0  0  0  0
  6 10  1  0  0  0  0
  7  6  1  0  0  0  0
  8  6  1  0  0  0  0
  9  1  1  0  0  0  0
 10  9  1  0  0  0  0
 11  5  1  0  0  0  0
 12  2  2  0  0  0  0
 13  4  2  0  0  0  0
 14  8  1  0  0  0  0
 15  7  1  0  0  0  0
 16  7  2  0  0  0  0
 17  8  2  0  0  0  0
 18 11  1  0  0  0  0
 19 24  2  0  0  0  0
 20 19  1  0  0  0  0
 21 18  1  0  0  0  0
 22 18  2  0  0  0  0
 23 21  2  0  0  0  0
 24 22  1  0  0  0  0
  3  5  1  0  0  0  0
 15 14  1  0  0  0  0
 23 19  1  0  0  0  0
M  END
> <IDNUMBER>
F3269-0032

> <Chemical_Name>
5-[(4-bromophenyl)amino]-3-[2-(2,5-dioxopyrrolidin-1-yl)ethyl]-1,3-thiazolidine-2,4-dione

> <CAS>
1025750-24-6

> <PriceCoeff>
1.00

> <MW>
412.26

> <Description>
solid

> <FSP3>
0.33

> <clogP>
1.63

> <TPSA>
112.09

> <Acceptor>
5

> <Donor>
1

> <RotBonds>
5

> <HAC>
24

> <Collection>
General

$$$$
F3260-0610
  -ISIS-  06222321152D

 18 19  0  0  0  0  0  0  0  0999 V2000
    4.8500    2.1000    0.0000 C   0  0  0  0  0  0  0  0  0  0  0  0
    4.8500    3.5000    0.0000 C   0  0  0  0  0  0  0  0  0  0  0  0
    6.1542    1.6833    0.0000 N   0  0  0  0  0  0  0  0  0  0  0  0
    3.6375    1.4000    0.0000 N   0  0  3  0  0  0  0  0  0  0  0  0
    2.4250    3.5000    0.0000 N   0  0  3  0  0  0  0  0  0  0  0  0
    2.4250    2.1000    0.0000 C   0  0  0  0  0  0  0  0  0  0  0  0
    3.6375    4.2000    0.0000 C   0  0  0  0  0  0  0  0  0  0  0  0
    6.9917    2.8000    0.0000 C   0  0  0  0  0  0  0  0  0  0  0  0
    6.1542    3.9708    0.0000 N   0  0  3  0  0  0  0  0  0  0  0  0
    1.2042    1.4000    0.0000 O   0  0  0  0  0  0  0  0  0  0  0  0
    3.6375    5.5917    0.0000 O   0  0  0  0  0  0  0  0  0  0  0  0
    8.2042    2.1000    0.0000 Br  0  0  0  0  0  0  0  0  0  0  0  0
    7.3667    4.6667    0.0000 C   0  0  3  0  0  0  0  0  0  0  0  0
    1.2042    4.2000    0.0000 C   0  0  0  0  0  0  0  0  0  0  0  0
    3.6375   -0.0000    0.0000 C   0  0  0  0  0  0  0  0  0  0  0  0
    8.5792    3.9708    0.0000 C   0  0  0  0  0  0  0  0  0  0  0  0
    7.3667    6.0667    0.0000 C   0  0  0  0  0  0  0  0  0  0  0  0
    0.0000    3.5000    0.0000 C   0  0  0  0  0  0  0  0  0  0  0  0
  2  1  2  0  0  0  0
  3  1  1  0  0  0  0
  4  1  1  0  0  0  0
  5  6  1  0  0  0  0
  6  4  1  0  0  0  0
  7  2  1  0  0  0  0
  8  3  2  0  0  0  0
  9  2  1  0  0  0  0
 10  6  2  0  0  0  0
 11  7  2  0  0  0  0
 12  8  1  0  0  0  0
 13  9  1  0  0  0  0
 14  5  1  0  0  0  0
 15  4  1  0  0  0  0
 16 13  1  0  0  0  0
 17 13  1  0  0  0  0
 18 14  1  0  0  0  0
  8  9  1  0  0  0  0
  7  5  1  0  0  0  0
M  END
> <IDNUMBER>
F3260-0610

> <Chemical_Name>
8-bromo-1-ethyl-3-methyl-7-(propan-2-yl)-2,3,6,7-tetrahydro-1H-purine-2,6-dione

> <CAS>
1040668-72-1

> <PriceCoeff>
1.00

> <MW>
315.17

> <Description>
solid

> <FSP3>
0.55

> <clogP>
2.22

> <TPSA>
58.44

> <Acceptor>
3

> <Donor>
1

> <RotBonds>
2

> <HAC>
18

> <Collection>
General

> <Reference_compound>
CHEMBL113

> <Similarity>
0.8150

$$$$
F3205-0048
  -ISIS-  06222321462D

 22 23  0  0  0  0  0  0  0  0999 V2000
    4.6750   -6.4125    0.0000 N   0  0  3  0  0  0  0  0  0  0  0  0
    5.1667   -7.0792    0.0000 C   0  0  0  0  0  0  0  0  0  0  0  0
    5.1542   -5.7417    0.0000 C   0  0  0  0  0  0  0  0  0  0  0  0
    5.9500   -6.8167    0.0000 C   0  0  3  0  0  0  0  0  0  0  0  0
    5.9417   -5.9917    0.0000 C   0  0  0  0  0  0  0  0  0  0  0  0
    8.0292   -7.4375    0.0000 C   0  0  0  0  0  0  0  0  0  0  0  0
    6.6125   -7.2917    0.0000 S   0  0  0  0  0  0  0  0  0  0  0  0
    7.3625   -6.9542    0.0000 C   0  0  0  0  0  0  0  0  0  0  0  0
    7.9542   -8.2625    0.0000 C   0  0  0  0  0  0  0  0  0  0  0  0
    4.9125   -7.8625    0.0000 O   0  0  0  0  0  0  0  0  0  0  0  0
    4.9000   -4.9542    0.0000 O   0  0  0  0  0  0  0  0  0  0  0  0
    8.6250   -8.7417    0.0000 O   0  0  0  0  0  0  0  0  0  0  0  0
    3.8542   -6.4167    0.0000 C   0  0  0  0  0  0  0  0  0  0  0  0
    7.2000   -8.6042    0.0000 O   0  0  0  0  0  0  0  0  0  0  0  0
    8.7792   -7.0917    0.0000 C   0  0  0  0  0  0  0  0  0  0  0  0
    3.4375   -5.7042    0.0000 C   0  0  0  0  0  0  0  0  0  0  0  0
    7.4417   -6.1417    0.0000 C   0  0  0  0  0  0  0  0  0  0  0  0
    2.1917   -5.0000    0.0000 O   0  0  0  0  0  0  0  0  0  0  0  0
    2.6125   -5.7125    0.0000 C   0  0  0  0  0  0  0  0  0  0  0  0
    1.3667   -5.0042    0.0000 C   0  0  0  0  0  0  0  0  0  0  0  0
    8.8625   -6.2792    0.0000 C   0  0  0  0  0  0  0  0  0  0  0  0
    8.1875   -5.8000    0.0000 C   0  0  0  0  0  0  0  0  0  0  0  0
  2  1  1  0  0  0  0
  3  1  1  0  0  0  0
  4  2  1  0  0  0  0
  5  3  1  0  0  0  0
  6  8  2  0  0  0  0
  7  4  1  0  0  0  0
  8  7  1  0  0  0  0
  9  6  1  0  0  0  0
 10  2  2  0  0  0  0
 11  3  2  0  0  0  0
 12  9  2  0  0  0  0
 13  1  1  0  0  0  0
 14  9  1  0  0  0  0
 15  6  1  0  0  0  0
 16 13  1  0  0  0  0
 17  8  1  0  0  0  0
 18 19  1  0  0  0  0
 19 16  1  0  0  0  0
 20 18  1  0  0  0  0
 21 22  1  0  0  0  0
 22 17  2  0  0  0  0
  5  4  1  0  0  0  0
 15 21  2  0  0  0  0
M  END
> <IDNUMBER>
F3205-0048

> <Chemical_Name>
2-{[1-(3-methoxypropyl)-2,5-dioxopyrrolidin-3-yl]sulfanyl}benzoic acid

> <CAS>
881483-45-0

> <PriceCoeff>
1.00

> <MW>
323.36

> <Description>
solid

> <FSP3>
0.40

> <clogP>
1.68

> <TPSA>
109.21

> <Acceptor>
5

> <Donor>
0

> <RotBonds>
7

> <HAC>
22

> <Collection>
General

$$$$
F3205-0041
  -ISIS-  06222321152D

 24 27  0  0  0  0  0  0  0  0999 V2000
    5.0917   -6.0417    0.0000 N   0  0  3  0  0  0  0  0  0  0  0  0
    5.5792   -6.7125    0.0000 C   0  0  0  0  0  0  0  0  0  0  0  0
    5.5750   -5.3750    0.0000 C   0  0  0  0  0  0  0  0  0  0  0  0
    6.3667   -6.4500    0.0000 C   0  0  3  0  0  0  0  0  0  0  0  0
    6.3625   -5.6250    0.0000 C   0  0  0  0  0  0  0  0  0  0  0  0
    4.2667   -6.0500    0.0000 C   0  0  0  0  0  0  0  0  0  0  0  0
    7.0292   -6.9292    0.0000 N   0  0  3  0  0  0  0  0  0  0  0  0
    3.8542   -5.3417    0.0000 C   0  0  0  0  0  0  0  0  0  0  0  0
    8.3542   -7.8875    0.0000 N   0  0  3  0  0  0  0  0  0  0  0  0
    5.3292   -7.4917    0.0000 O   0  0  0  0  0  0  0  0  0  0  0  0
    5.3167   -4.5917    0.0000 O   0  0  0  0  0  0  0  0  0  0  0  0
    7.7750   -6.5875    0.0000 C   0  0  0  0  0  0  0  0  0  0  0  0
    6.9417   -7.7417    0.0000 C   0  0  0  0  0  0  0  0  0  0  0  0
    3.0292   -5.3417    0.0000 C   0  0  0  0  0  0  0  0  0  0  0  0
    8.4417   -7.0667    0.0000 C   0  0  0  0  0  0  0  0  0  0  0  0
    7.6042   -8.2167    0.0000 C   0  0  0  0  0  0  0  0  0  0  0  0
    3.8667   -6.7667    0.0000 C   0  0  0  0  0  0  0  0  0  0  0  0
    9.0250   -8.3667    0.0000 C   0  0  0  0  0  0  0  0  0  0  0  0
    4.2542   -4.6292    0.0000 C   0  0  0  0  0  0  0  0  0  0  0  0
    3.0417   -6.7750    0.0000 C   0  0  0  0  0  0  0  0  0  0  0  0
    2.6250   -6.0625    0.0000 C   0  0  0  0  0  0  0  0  0  0  0  0
    2.6167   -4.6417    0.0000 C   0  0  0  0  0  0  0  0  0  0  0  0
    3.8417   -3.9250    0.0000 C   0  0  0  0  0  0  0  0  0  0  0  0
    3.0250   -3.9292    0.0000 C   0  0  0  0  0  0  0  0  0  0  0  0
  2  1  1  0  0  0  0
  3  1  1  0  0  0  0
  4  2  1  0  0  0  0
  5  3  1  0  0  0  0
  6  1  1  0  0  0  0
  7  4  1  0  0  0  0
  8  6  2  0  0  0  0
  9 16  1  0  0  0  0
 10  2  2  0  0  0  0
 11  3  2  0  0  0  0
 12  7  1  0  0  0  0
 13  7  1  0  0  0  0
 14  8  1  0  0  0  0
 15 12  1  0  0  0  0
 16 13  1  0  0  0  0
 17  6  1  0  0  0  0
 18  9  1  0  0  0  0
 19  8  1  0  0  0  0
 20 17  2  0  0  0  0
 21 20  1  0  0  0  0
 22 14  1  0  0  0  0
 23 19  2  0  0  0  0
 24 23  1  0  0  0  0
  5  4  1  0  0  0  0
 21 14  2  0  0  0  0
 22 24  2  0  0  0  0
 15  9  1  0  0  0  0
M  END
> <IDNUMBER>
F3205-0041

> <Chemical_Name>
3-(4-methylpiperazin-1-yl)-1-(naphthalen-1-yl)pyrrolidine-2,5-dione

> <CAS>
881484-49-7

> <PriceCoeff>
1.00

> <MW>
323.39

> <Description>
solid

> <FSP3>
0.37

> <clogP>
1.48

> <TPSA>
43.86

> <Acceptor>
4

> <Donor>
2

> <RotBonds>
2

> <HAC>
24

> <Collection>
General

$$$$
F0327-0338
  -ISIS-  06222321442D

 29 32  0  0  0  0  0  0  0  0999 V2000
    4.4167    0.3500    0.0000 N   0  0  3  0  0  0  0  0  0  0  0  0
   -0.4000    1.1125    0.0000 C   0  0  0  0  0  0  0  0  0  0  0  0
   -0.9125    0.4000    0.0000 N   0  0  0  0  0  0  0  0  0  0  0  0
   -1.7458    0.6500    0.0000 C   0  0  0  0  0  0  0  0  0  0  0  0
    0.4542    1.1125    0.0000 N   0  0  0  0  0  0  0  0  0  0  0  0
    0.9000    0.3500    0.0000 C   0  0  0  0  0  0  0  0  0  0  0  0
    4.9042   -0.3667    0.0000 C   0  0  0  0  0  0  0  0  0  0  0  0
    4.9167    1.0125    0.0000 C   0  0  0  0  0  0  0  0  0  0  0  0
   -0.9000    1.8125    0.0000 S   0  0  0  0  0  0  0  0  0  0  0  0
   -2.4208    0.1208    0.0000 C   0  0  0  0  0  0  0  0  0  0  0  0
   -1.7458    1.5500    0.0000 C   0  0  0  0  0  0  0  0  0  0  0  0
    3.5375    0.3500    0.0000 C   0  0  0  0  0  0  0  0  0  0  0  0
    1.7792    0.3500    0.0000 C   0  0  0  0  0  0  0  0  0  0  0  0
    0.4542   -0.4042    0.0000 O   0  0  0  0  0  0  0  0  0  0  0  0
    5.7542   -0.1167    0.0000 C   0  0  0  0  0  0  0  0  0  0  0  0
    5.7500    0.7500    0.0000 C   0  0  0  0  0  0  0  0  0  0  0  0
   -2.3000   -0.7542    0.0000 C   0  0  0  0  0  0  0  0  0  0  0  0
    4.6000   -1.1875    0.0000 O   0  0  0  0  0  0  0  0  0  0  0  0
    4.6292    1.8625    0.0000 O   0  0  0  0  0  0  0  0  0  0  0  0
    3.1000   -0.4042    0.0000 C   0  0  0  0  0  0  0  0  0  0  0  0
    3.1000    1.1125    0.0000 C   0  0  0  0  0  0  0  0  0  0  0  0
    2.2167   -0.4042    0.0000 C   0  0  0  0  0  0  0  0  0  0  0  0
    2.2167    1.1125    0.0000 C   0  0  0  0  0  0  0  0  0  0  0  0
   -1.4958   -1.1000    0.0000 O   0  0  0  0  0  0  0  0  0  0  0  0
   -3.2458    0.4500    0.0000 C   0  0  0  0  0  0  0  0  0  0  0  0
   -2.9958   -1.3000    0.0000 C   0  0  0  0  0  0  0  0  0  0  0  0
   -1.3958   -1.9667    0.0000 C   0  0  0  0  0  0  0  0  0  0  0  0
   -3.9458   -0.0875    0.0000 C   0  0  0  0  0  0  0  0  0  0  0  0
   -3.8208   -0.9667    0.0000 C   0  0  0  0  0  0  0  0  0  0  0  0
  2  5  1  0  0  0  0
  3  2  2  0  0  0  0
  4  3  1  0  0  0  0
  5  6  1  0  0  0  0
  6 13  1  0  0  0  0
  7  1  1  0  0  0  0
  8  1  1  0  0  0  0
  9  2  1  0  0  0  0
 10  4  1  0  0  0  0
 11  9  1  0  0  0  0
 12  1  1  0  0  0  0
 13 23  1  0  0  0  0
 14  6  2  0  0  0  0
 15  7  1  0  0  0  0
 16  8  1  0  0  0  0
 17 10  1  0  0  0  0
 18  7  2  0  0  0  0
 19  8  2  0  0  0  0
 20 12  2  0  0  0  0
 21 12  1  0  0  0  0
 22 20  1  0  0  0  0
 23 21  2  0  0  0  0
 24 17  1  0  0  0  0
 25 10  2  0  0  0  0
 26 17  2  0  0  0  0
 27 24  1  0  0  0  0
 28 25  1  0  0  0  0
 29 28  2  0  0  0  0
 16 15  1  0  0  0  0
 22 13  2  0  0  0  0
 11  4  2  0  0  0  0
 26 29  1  0  0  0  0
M  END
> <IDNUMBER>
F0327-0338

> <Chemical_Name>
4-(2,5-dioxopyrrolidin-1-yl)-N-[4-(2-methoxyphenyl)-1,3-thiazol-2-yl]benzamide

> <CAS>
325720-22-7

> <PriceCoeff>
1.00

> <MW>
407.44

> <Description>
solid

> <FSP3>
0.14

> <clogP>
1.59

> <TPSA>
116.84

> <Acceptor>
5

> <Donor>
1

> <RotBonds>
5

> <HAC>
29

> <Collection>
General

$$$$
F1813-0475
  -ISIS-  06222321452D

 27 30  0  0  0  0  0  0  0  0999 V2000
   -6.0000    3.3958    0.0000 C   0  0  0  0  0  0  0  0  0  0  0  0
   -1.7333    3.3958    0.0000 N   0  0  3  0  0  0  0  0  0  0  0  0
   -6.8917    2.3958    0.0000 C   0  0  0  0  0  0  0  0  0  0  0  0
   -6.0792    2.5625    0.0000 N   0  0  0  0  0  0  0  0  0  0  0  0
   -5.2958    3.8083    0.0000 N   0  0  0  0  0  0  0  0  0  0  0  0
   -6.7542    3.7333    0.0000 S   0  0  0  0  0  0  0  0  0  0  0  0
   -7.3042    1.6833    0.0000 C   0  0  0  0  0  0  0  0  0  0  0  0
   -2.4458    3.8000    0.0000 C   0  0  0  0  0  0  0  0  0  0  0  0
   -4.5833    3.3958    0.0000 C   0  0  0  0  0  0  0  0  0  0  0  0
   -7.3042    3.1083    0.0000 C   0  0  0  0  0  0  0  0  0  0  0  0
   -0.9708    3.6875    0.0000 C   0  0  0  0  0  0  0  0  0  0  0  0
   -1.6875    2.5708    0.0000 C   0  0  0  0  0  0  0  0  0  0  0  0
   -3.1583    3.3958    0.0000 C   0  0  0  0  0  0  0  0  0  0  0  0
   -3.8708    3.8000    0.0000 C   0  0  0  0  0  0  0  0  0  0  0  0
   -8.1292    1.6833    0.0000 C   0  0  0  0  0  0  0  0  0  0  0  0
   -4.5833    2.5708    0.0000 O   0  0  0  0  0  0  0  0  0  0  0  0
   -0.4375    3.0583    0.0000 C   0  0  0  0  0  0  0  0  0  0  0  0
   -0.8708    2.3708    0.0000 C   0  0  0  0  0  0  0  0  0  0  0  0
   -0.7583    4.4667    0.0000 O   0  0  0  0  0  0  0  0  0  0  0  0
   -2.3208    2.0458    0.0000 O   0  0  0  0  0  0  0  0  0  0  0  0
   -8.1292    3.1083    0.0000 C   0  0  0  0  0  0  0  0  0  0  0  0
   -8.5417    2.3958    0.0000 C   0  0  0  0  0  0  0  0  0  0  0  0
   -6.8917    0.9750    0.0000 Cl  0  0  0  0  0  0  0  0  0  0  0  0
   -8.5292    0.9750    0.0000 Cl  0  0  0  0  0  0  0  0  0  0  0  0
   -2.4375    4.6167    0.0000 C   0  0  0  0  0  0  0  0  0  0  0  0
   -3.8708    4.6167    0.0000 C   0  0  0  0  0  0  0  0  0  0  0  0
   -3.1583    5.0292    0.0000 C   0  0  0  0  0  0  0  0  0  0  0  0
  2  8  1  0  0  0  0
  3  4  1  0  0  0  0
  4  1  2  0  0  0  0
  5  1  1  0  0  0  0
  6  1  1  0  0  0  0
  7  3  2  0  0  0  0
  8 13  1  0  0  0  0
  9  5  1  0  0  0  0
 10  6  1  0  0  0  0
 11  2  1  0  0  0  0
 12  2  1  0  0  0  0
 13 14  2  0  0  0  0
 14  9  1  0  0  0  0
 15  7  1  0  0  0  0
 16  9  2  0  0  0  0
 17 11  1  0  0  0  0
 18 12  1  0  0  0  0
 19 11  2  0  0  0  0
 20 12  2  0  0  0  0
 21 10  2  0  0  0  0
 22 21  1  0  0  0  0
 23  7  1  0  0  0  0
 24 15  1  0  0  0  0
 25 27  1  0  0  0  0
 26 14  1  0  0  0  0
 27 26  2  0  0  0  0
 10  3  1  0  0  0  0
 22 15  2  0  0  0  0
  8 25  2  0  0  0  0
 17 18  1  0  0  0  0
M  END
> <IDNUMBER>
F1813-0475

> <Chemical_Name>
N-(4,5-dichloro-1,3-benzothiazol-2-yl)-3-(2,5-dioxopyrrolidin-1-yl)benzamide

> <CAS>
897618-04-1

> <PriceCoeff>
1.00

> <MW>
420.27

> <Description>
solid

> <FSP3>
0.11

> <clogP>
2.94

> <TPSA>
107.61

> <Acceptor>
4

> <Donor>
1

> <RotBonds>
3

> <HAC>
27

> <Collection>
General

$$$$
F0327-0353
  -ISIS-  06222321142D

 26 29  0  0  0  0  0  0  0  0999 V2000
    4.1042   -0.1167    0.0000 N   0  0  3  0  0  0  0  0  0  0  0  0
   -0.5500   -0.8542    0.0000 C   0  0  0  0  0  0  0  0  0  0  0  0
   -1.1333   -1.4792    0.0000 N   0  0  0  0  0  0  0  0  0  0  0  0
   -1.8708   -1.1167    0.0000 C   0  0  0  0  0  0  0  0  0  0  0  0
    0.2875   -0.8542    0.0000 N   0  0  0  0  0  0  0  0  0  0  0  0
    0.7042   -0.1167    0.0000 C   0  0  0  0  0  0  0  0  0  0  0  0
    4.7042    0.4833    0.0000 C   0  0  0  0  0  0  0  0  0  0  0  0
    4.5042   -0.8792    0.0000 C   0  0  0  0  0  0  0  0  0  0  0  0
   -0.9708   -0.1167    0.0000 S   0  0  0  0  0  0  0  0  0  0  0  0
   -2.6000   -1.5375    0.0000 C   0  0  0  0  0  0  0  0  0  0  0  0
   -1.8125   -0.3000    0.0000 C   0  0  0  0  0  0  0  0  0  0  0  0
    3.2667   -0.1167    0.0000 C   0  0  0  0  0  0  0  0  0  0  0  0
   -2.7208   -2.4000    0.0000 S   0  0  0  0  0  0  0  0  0  0  0  0
    1.5667   -0.1167    0.0000 C   0  0  0  0  0  0  0  0  0  0  0  0
   -3.3458   -1.1792    0.0000 C   0  0  0  0  0  0  0  0  0  0  0  0
    0.2875    0.6208    0.0000 O   0  0  0  0  0  0  0  0  0  0  0  0
    5.3500   -0.7375    0.0000 C   0  0  0  0  0  0  0  0  0  0  0  0
    5.4667    0.0833    0.0000 C   0  0  0  0  0  0  0  0  0  0  0  0
    4.1292   -1.6542    0.0000 O   0  0  0  0  0  0  0  0  0  0  0  0
    4.6042    1.3208    0.0000 O   0  0  0  0  0  0  0  0  0  0  0  0
   -3.5333   -2.5500    0.0000 C   0  0  0  0  0  0  0  0  0  0  0  0
   -3.9458   -1.7667    0.0000 C   0  0  0  0  0  0  0  0  0  0  0  0
    2.8500   -0.8542    0.0000 C   0  0  0  0  0  0  0  0  0  0  0  0
    2.8292    0.6208    0.0000 C   0  0  0  0  0  0  0  0  0  0  0  0
    1.9875   -0.8542    0.0000 C   0  0  0  0  0  0  0  0  0  0  0  0
    1.9667    0.6208    0.0000 C   0  0  0  0  0  0  0  0  0  0  0  0
  2  5  1  0  0  0  0
  3  2  2  0  0  0  0
  4  3  1  0  0  0  0
  5  6  1  0  0  0  0
  6 14  1  0  0  0  0
  7  1  1  0  0  0  0
  8  1  1  0  0  0  0
  9  2  1  0  0  0  0
 10  4  1  0  0  0  0
 11  9  1  0  0  0  0
 12  1  1  0  0  0  0
 13 10  1  0  0  0  0
 14 26  1  0  0  0  0
 15 10  2  0  0  0  0
 16  6  2  0  0  0  0
 17  8  1  0  0  0  0
 18  7  1  0  0  0  0
 19  8  2  0  0  0  0
 20  7  2  0  0  0  0
 21 13  1  0  0  0  0
 22 15  1  0  0  0  0
 23 12  2  0  0  0  0
 24 12  1  0  0  0  0
 25 23  1  0  0  0  0
 26 24  2  0  0  0  0
 18 17  1  0  0  0  0
 25 14  2  0  0  0  0
  4 11  2  0  0  0  0
 22 21  2  0  0  0  0
M  END
> <IDNUMBER>
F0327-0353

> <Chemical_Name>
4-(2,5-dioxopyrrolidin-1-yl)-N-[4-(thiophen-2-yl)-1,3-thiazol-2-yl]benzamide

> <CAS>
392246-39-8

> <PriceCoeff>
1.00

> <MW>
383.44

> <Description>
solid

> <FSP3>
0.11

> <clogP>
2.02

> <TPSA>
135.85

> <Acceptor>
4

> <Donor>
1

> <RotBonds>
4

> <HAC>
26

> <Collection>
General

$$$$
F0327-0317
  -ISIS-  06222321442D

 29 33  0  0  0  0  0  0  0  0999 V2000
    0.0292   -1.8000    0.0000 C   0  0  0  0  0  0  0  0  0  0  0  0
   -1.2708   -2.2167    0.0000 C   0  0  0  0  0  0  0  0  0  0  0  0
   -0.4708   -2.4792    0.0000 N   0  0  0  0  0  0  0  0  0  0  0  0
   -0.4125    1.9000    0.0000 N   0  0  3  0  0  0  0  0  0  0  0  0
   -1.2708   -1.3792    0.0000 C   0  0  0  0  0  0  0  0  0  0  0  0
    0.8542   -1.8000    0.0000 N   0  0  0  0  0  0  0  0  0  0  0  0
   -0.4708   -1.1167    0.0000 S   0  0  0  0  0  0  0  0  0  0  0  0
    1.2875   -1.0542    0.0000 C   0  0  0  0  0  0  0  0  0  0  0  0
   -1.2333    2.0208    0.0000 C   0  0  0  0  0  0  0  0  0  0  0  0
   -0.0333    2.6625    0.0000 C   0  0  0  0  0  0  0  0  0  0  0  0
   -2.0125   -2.6542    0.0000 C   0  0  0  0  0  0  0  0  0  0  0  0
    0.0292    1.1625    0.0000 C   0  0  0  0  0  0  0  0  0  0  0  0
    0.8667   -0.3167    0.0000 C   0  0  0  0  0  0  0  0  0  0  0  0
   -2.0125   -0.9542    0.0000 C   0  0  0  0  0  0  0  0  0  0  0  0
   -2.7500   -2.2375    0.0000 C   0  0  0  0  0  0  0  0  0  0  0  0
    2.1500   -1.0542    0.0000 O   0  0  0  0  0  0  0  0  0  0  0  0
   -0.6333    3.2458    0.0000 C   0  0  0  0  0  0  0  0  0  0  0  0
   -1.3708    2.8625    0.0000 C   0  0  0  0  0  0  0  0  0  0  0  0
    0.8292    2.8000    0.0000 O   0  0  0  0  0  0  0  0  0  0  0  0
   -1.8125    1.4208    0.0000 O   0  0  0  0  0  0  0  0  0  0  0  0
   -2.7500   -1.3792    0.0000 C   0  0  0  0  0  0  0  0  0  0  0  0
    0.8500    1.1625    0.0000 C   0  0  0  0  0  0  0  0  0  0  0  0
   -0.4125    0.4208    0.0000 C   0  0  0  0  0  0  0  0  0  0  0  0
    1.2875    0.4208    0.0000 C   0  0  0  0  0  0  0  0  0  0  0  0
    0.0042   -0.3167    0.0000 C   0  0  0  0  0  0  0  0  0  0  0  0
   -2.0125   -3.5000    0.0000 C   0  0  0  0  0  0  0  0  0  0  0  0
   -3.4958   -2.6542    0.0000 C   0  0  0  0  0  0  0  0  0  0  0  0
   -2.7500   -3.9167    0.0000 C   0  0  0  0  0  0  0  0  0  0  0  0
   -3.4958   -3.5167    0.0000 C   0  0  0  0  0  0  0  0  0  0  0  0
  2  3  1  0  0  0  0
  3  1  2  0  0  0  0
  4 12  1  0  0  0  0
  5  7  1  0  0  0  0
  6  1  1  0  0  0  0
  7  1  1  0  0  0  0
  8  6  1  0  0  0  0
  9  4  1  0  0  0  0
 10  4  1  0  0  0  0
 11  2  1  0  0  0  0
 12 23  1  0  0  0  0
 13  8  1  0  0  0  0
 14  5  1  0  0  0  0
 15 11  2  0  0  0  0
 16  8  2  0  0  0  0
 17 10  1  0  0  0  0
 18  9  1  0  0  0  0
 19 10  2  0  0  0  0
 20  9  2  0  0  0  0
 21 14  1  0  0  0  0
 22 24  1  0  0  0  0
 23 25  2  0  0  0  0
 24 13  2  0  0  0  0
 25 13  1  0  0  0  0
 26 11  1  0  0  0  0
 27 15  1  0  0  0  0
 28 26  2  0  0  0  0
 29 28  1  0  0  0  0
  2  5  2  0  0  0  0
 21 15  1  0  0  0  0
 22 12  2  0  0  0  0
 27 29  2  0  0  0  0
 18 17  1  0  0  0  0
M  END
> <IDNUMBER>
F0327-0317

> <Chemical_Name>
4-(2,5-dioxopyrrolidin-1-yl)-N-{4H,5H-naphtho[1,2-d][1,3]thiazol-2-yl}benzamide

> <CAS>
329905-75-1

> <PriceCoeff>
1.00

> <MW>
403.45

> <Description>
solid

> <FSP3>
0.18

> <clogP>
2.58

> <TPSA>
107.61

> <Acceptor>
4

> <Donor>
1

> <RotBonds>
3

> <HAC>
29

> <Collection>
General

$$$$
F1813-0478
  -ISIS-  06222321452D

 27 30  0  0  0  0  0  0  0  0999 V2000
   -6.0000    3.3958    0.0000 C   0  0  0  0  0  0  0  0  0  0  0  0
   -1.7333    3.3958    0.0000 N   0  0  3  0  0  0  0  0  0  0  0  0
   -6.0875    2.5625    0.0000 N   0  0  0  0  0  0  0  0  0  0  0  0
   -6.8917    2.3958    0.0000 C   0  0  0  0  0  0  0  0  0  0  0  0
   -5.2958    3.8000    0.0000 N   0  0  0  0  0  0  0  0  0  0  0  0
   -7.3125    3.1083    0.0000 C   0  0  0  0  0  0  0  0  0  0  0  0
   -6.7542    3.7333    0.0000 S   0  0  0  0  0  0  0  0  0  0  0  0
   -2.4458    3.8000    0.0000 C   0  0  0  0  0  0  0  0  0  0  0  0
   -4.5833    3.3958    0.0000 C   0  0  0  0  0  0  0  0  0  0  0  0
   -1.6875    2.5708    0.0000 C   0  0  0  0  0  0  0  0  0  0  0  0
   -0.9708    3.6875    0.0000 C   0  0  0  0  0  0  0  0  0  0  0  0
   -7.3042    1.6833    0.0000 C   0  0  0  0  0  0  0  0  0  0  0  0
   -8.1292    3.1083    0.0000 C   0  0  0  0  0  0  0  0  0  0  0  0
   -3.1583    3.3958    0.0000 C   0  0  0  0  0  0  0  0  0  0  0  0
   -3.8708    3.8000    0.0000 C   0  0  0  0  0  0  0  0  0  0  0  0
   -8.1292    1.6750    0.0000 C   0  0  0  0  0  0  0  0  0  0  0  0
   -8.5417    2.3958    0.0000 C   0  0  0  0  0  0  0  0  0  0  0  0
   -4.5833    2.5708    0.0000 O   0  0  0  0  0  0  0  0  0  0  0  0
   -0.4375    3.0583    0.0000 C   0  0  0  0  0  0  0  0  0  0  0  0
   -0.8708    2.3708    0.0000 C   0  0  0  0  0  0  0  0  0  0  0  0
   -0.7583    4.4667    0.0000 O   0  0  0  0  0  0  0  0  0  0  0  0
   -2.3208    2.0458    0.0000 O   0  0  0  0  0  0  0  0  0  0  0  0
   -6.8917    0.9708    0.0000 Cl  0  0  0  0  0  0  0  0  0  0  0  0
   -9.3625    2.3958    0.0000 Cl  0  0  0  0  0  0  0  0  0  0  0  0
   -2.4375    4.6167    0.0000 C   0  0  0  0  0  0  0  0  0  0  0  0
   -3.8708    4.6167    0.0000 C   0  0  0  0  0  0  0  0  0  0  0  0
   -3.1583    5.0292    0.0000 C   0  0  0  0  0  0  0  0  0  0  0  0
  2  8  1  0  0  0  0
  3  1  2  0  0  0  0
  4  3  1  0  0  0  0
  5  1  1  0  0  0  0
  6  7  1  0  0  0  0
  7  1  1  0  0  0  0
  8 14  1  0  0  0  0
  9  5  1  0  0  0  0
 10  2  1  0  0  0  0
 11  2  1  0  0  0  0
 12  4  2  0  0  0  0
 13  6  2  0  0  0  0
 14 15  2  0  0  0  0
 15  9  1  0  0  0  0
 16 12  1  0  0  0  0
 17 13  1  0  0  0  0
 18  9  2  0  0  0  0
 19 11  1  0  0  0  0
 20 10  1  0  0  0  0
 21 11  2  0  0  0  0
 22 10  2  0  0  0  0
 23 12  1  0  0  0  0
 24 17  1  0  0  0  0
 25 27  1  0  0  0  0
 26 15  1  0  0  0  0
 27 26  2  0  0  0  0
  6  4  1  0  0  0  0
 17 16  2  0  0  0  0
  8 25  2  0  0  0  0
 19 20  1  0  0  0  0
M  END
> <IDNUMBER>
F1813-0478

> <Chemical_Name>
N-(4,6-dichloro-1,3-benzothiazol-2-yl)-3-(2,5-dioxopyrrolidin-1-yl)benzamide

> <CAS>
897759-52-3

> <PriceCoeff>
1.00

> <MW>
420.27

> <Description>
solid

> <FSP3>
0.11

> <clogP>
3.06

> <TPSA>
107.61

> <Acceptor>
4

> <Donor>
1

> <RotBonds>
3

> <HAC>
27

> <Collection>
General

$$$$
F2173-1249
  -ISIS-  06222321462D

 15 16  0  0  0  0  0  0  0  0999 V2000
   -3.6208    1.6875    0.0000 C   0  0  0  0  0  0  0  0  0  0  0  0
   -4.1708    1.9958    0.0000 C   0  0  0  0  0  0  0  0  0  0  0  0
   -3.0708    2.0333    0.0000 C   0  0  0  0  0  0  0  0  0  0  0  0
   -4.7083    1.6750    0.0000 C   0  0  0  0  0  0  0  0  0  0  0  0
   -3.6208    1.0375    0.0000 C   0  0  0  0  0  0  0  0  0  0  0  0
   -3.0708    2.6500    0.0000 O   0  0  0  0  0  0  0  0  0  0  0  0
   -4.7083    1.0500    0.0000 C   0  0  0  0  0  0  0  0  0  0  0  0
   -4.1708    0.7333    0.0000 C   0  0  0  0  0  0  0  0  0  0  0  0
   -4.1708    2.6208    0.0000 O   0  0  0  0  0  0  0  0  0  0  0  0
   -2.5208    1.7333    0.0000 O   0  0  0  0  0  0  0  0  0  0  0  0
   -5.2458    1.9958    0.0000 C   0  0  0  0  0  0  0  0  0  0  0  0
   -5.2458    0.7333    0.0000 C   0  0  0  0  0  0  0  0  0  0  0  0
   -1.9958    2.0458    0.0000 C   0  0  0  0  0  0  0  0  0  0  0  0
   -5.7958    1.6875    0.0000 C   0  0  0  0  0  0  0  0  0  0  0  0
   -5.7958    1.0375    0.0000 C   0  0  0  0  0  0  0  0  0  0  0  0
  2  1  1  0  0  0  0
  3  1  1  0  0  0  0
  4  2  2  0  0  0  0
  5  1  2  0  0  0  0
  6  3  2  0  0  0  0
  7  8  2  0  0  0  0
  8  5  1  0  0  0  0
  9  2  1  0  0  0  0
 10  3  1  0  0  0  0
 11  4  1  0  0  0  0
 12  7  1  0  0  0  0
 13 10  1  0  0  0  0
 14 11  2  0  0  0  0
 15 12  2  0  0  0  0
  7  4  1  0  0  0  0
 15 14  1  0  0  0  0
M  END
> <IDNUMBER>
F2173-1249

> <Chemical_Name>
methyl 1-hydroxynaphthalene-2-carboxylate

> <CAS>
948-03-8

> <PriceCoeff>
1.00

> <MW>
202.21

> <Description>
solid

> <FSP3>
0.08

> <clogP>
3.51

> <TPSA>
46.53

> <Acceptor>
3

> <Donor>
1

> <RotBonds>
2

> <HAC>
15

> <Collection>
General

> <Reference_compound>
CHEMBL108545

> <Similarity>
0.8780

$$$$
F6276-0577
  -ISIS-  06222321462D

 29 33  0  0  0  0  0  0  0  0999 V2000
   -1.5458   -8.9167    0.0000 N   0  0  3  0  0  0  0  0  0  0  0  0
    2.0375   -9.3292    0.0000 N   0  0  3  0  0  0  0  0  0  0  0  0
    3.7542  -11.1292    0.0000 C   0  0  0  0  0  0  0  0  0  0  0  0
    3.0917  -11.6167    0.0000 N   0  0  0  0  0  0  0  0  0  0  0  0
    1.3250   -8.9167    0.0000 C   0  0  0  0  0  0  0  0  0  0  0  0
    4.4292  -11.6167    0.0000 S   0  0  0  0  0  0  0  0  0  0  0  0
   -0.8250   -9.3292    0.0000 C   0  0  0  0  0  0  0  0  0  0  0  0
   -1.5875   -8.0917    0.0000 C   0  0  0  0  0  0  0  0  0  0  0  0
   -2.3083   -9.2250    0.0000 C   0  0  0  0  0  0  0  0  0  0  0  0
    0.6042   -9.3292    0.0000 C   0  0  0  0  0  0  0  0  0  0  0  0
    3.3542  -12.4042    0.0000 C   0  0  0  0  0  0  0  0  0  0  0  0
    3.0417   -9.9000    0.0000 C   0  0  3  0  0  0  0  0  0  0  0  0
    4.1792  -12.4125    0.0000 C   0  0  0  0  0  0  0  0  0  0  0  0
   -0.1083   -8.9167    0.0000 C   0  0  0  0  0  0  0  0  0  0  0  0
    2.8292   -9.1125    0.0000 C   0  0  0  0  0  0  0  0  0  0  0  0
    2.2500  -10.1250    0.0000 C   0  0  0  0  0  0  0  0  0  0  0  0
    3.7542  -10.3167    0.0000 O   0  0  0  0  0  0  0  0  0  0  0  0
    1.3167   -8.0875    0.0000 O   0  0  0  0  0  0  0  0  0  0  0  0
   -2.4083   -7.8917    0.0000 C   0  0  0  0  0  0  0  0  0  0  0  0
   -2.8458   -8.5917    0.0000 C   0  0  0  0  0  0  0  0  0  0  0  0
   -0.9583   -7.5625    0.0000 O   0  0  0  0  0  0  0  0  0  0  0  0
   -2.5250  -10.0167    0.0000 O   0  0  0  0  0  0  0  0  0  0  0  0
   -0.8250  -10.1542    0.0000 C   0  0  0  0  0  0  0  0  0  0  0  0
    0.6042  -10.1542    0.0000 C   0  0  0  0  0  0  0  0  0  0  0  0
   -0.1125  -10.5750    0.0000 C   0  0  0  0  0  0  0  0  0  0  0  0
    2.9375  -13.1250    0.0000 C   0  0  0  0  0  0  0  0  0  0  0  0
    4.5875  -13.1292    0.0000 C   0  0  0  0  0  0  0  0  0  0  0  0
    3.3500  -13.8417    0.0000 C   0  0  0  0  0  0  0  0  0  0  0  0
    4.1750  -13.8417    0.0000 C   0  0  0  0  0  0  0  0  0  0  0  0
  2  5  1  0  0  0  0
  3 17  1  0  0  0  0
  4  3  2  0  0  0  0
  5 10  1  0  0  0  0
  6  3  1  0  0  0  0
  7  1  1  0  0  0  0
  8  1  1  0  0  0  0
  9  1  1  0  0  0  0
 10 14  2  0  0  0  0
 11  4  1  0  0  0  0
 12 16  1  0  0  0  0
 13  6  1  0  0  0  0
 14  7  1  0  0  0  0
 15  2  1  0  0  0  0
 16  2  1  0  0  0  0
 17 12  1  0  0  0  0
 18  5  2  0  0  0  0
 19  8  1  0  0  0  0
 20  9  1  0  0  0  0
 21  8  2  0  0  0  0
 22  9  2  0  0  0  0
 23  7  2  0  0  0  0
 24 25  2  0  0  0  0
 25 23  1  0  0  0  0
 26 11  2  0  0  0  0
 27 13  2  0  0  0  0
 28 26  1  0  0  0  0
 29 27  1  0  0  0  0
 20 19  1  0  0  0  0
 10 24  1  0  0  0  0
 15 12  1  0  0  0  0
 13 11  1  0  0  0  0
 29 28  2  0  0  0  0
M  END
> <IDNUMBER>
F6276-0577

> <Chemical_Name>
1-{3-[3-(1,3-benzothiazol-2-yloxy)azetidine-1-carbonyl]phenyl}pyrrolidine-2,5-dione

> <CAS>
1421455-42-6

> <PriceCoeff>
1.00

> <MW>
407.44

> <Description>
solid

> <FSP3>
0.24

> <clogP>
2.17

> <TPSA>
108.05

> <Acceptor>
5

> <Donor>
0

> <RotBonds>
5

> <HAC>
29

> <Collection>
General

$$$$
F2708-0385
  -ISIS-  06222321152D

 33 37  0  0  0  0  0  0  0  0999 V2000
   -0.3208    2.5458    0.0000 C   0  0  0  0  0  0  0  0  0  0  0  0
    0.4167    2.9083    0.0000 N   0  0  0  0  0  0  0  0  0  0  0  0
   -0.2083    1.7333    0.0000 S   0  0  0  0  0  0  0  0  0  0  0  0
   -6.0042    4.2125    0.0000 N   0  0  3  0  0  0  0  0  0  0  0  0
    0.9875    2.3208    0.0000 C   0  0  0  0  0  0  0  0  0  0  0  0
    0.6042    1.5958    0.0000 C   0  0  0  0  0  0  0  0  0  0  0  0
   -1.0333    2.9708    0.0000 N   0  0  3  0  0  0  0  0  0  0  0  0
   -3.1583    4.2042    0.0000 C   0  0  0  0  0  0  0  0  0  0  0  0
   -5.2958    3.8000    0.0000 C   0  0  0  0  0  0  0  0  0  0  0  0
   -2.4458    3.7958    0.0000 N   0  0  3  0  0  0  0  0  0  0  0  0
   -6.7667    3.9208    0.0000 C   0  0  0  0  0  0  0  0  0  0  0  0
   -6.0417    5.0292    0.0000 C   0  0  0  0  0  0  0  0  0  0  0  0
   -3.8708    3.8000    0.0000 C   0  0  0  0  0  0  0  0  0  0  0  0
   -4.5833    4.2042    0.0000 C   0  0  0  0  0  0  0  0  0  0  0  0
    1.0292    0.8958    0.0000 C   0  0  0  0  0  0  0  0  0  0  0  0
    1.8042    2.3458    0.0000 C   0  0  0  0  0  0  0  0  0  0  0  0
   -1.7500    2.5625    0.0000 C   0  0  0  0  0  0  0  0  0  0  0  0
   -1.0125    3.7958    0.0000 C   0  0  0  0  0  0  0  0  0  0  0  0
   -1.7125    4.1917    0.0000 C   0  0  0  0  0  0  0  0  0  0  0  0
   -2.4500    2.9833    0.0000 C   0  0  0  0  0  0  0  0  0  0  0  0
   -3.1583    5.0292    0.0000 O   0  0  0  0  0  0  0  0  0  0  0  0
   -7.2917    4.5292    0.0000 C   0  0  0  0  0  0  0  0  0  0  0  0
   -6.8542    5.2292    0.0000 C   0  0  0  0  0  0  0  0  0  0  0  0
   -6.9792    3.1208    0.0000 O   0  0  0  0  0  0  0  0  0  0  0  0
   -5.4208    5.5542    0.0000 O   0  0  0  0  0  0  0  0  0  0  0  0
    1.8542    0.9208    0.0000 C   0  0  0  0  0  0  0  0  0  0  0  0
    2.2292    1.6500    0.0000 C   0  0  0  0  0  0  0  0  0  0  0  0
    0.6417    0.1708    0.0000 Cl  0  0  0  0  0  0  0  0  0  0  0  0
   -5.2958    2.9833    0.0000 C   0  0  0  0  0  0  0  0  0  0  0  0
    2.2042    3.0708    0.0000 O   0  0  0  0  0  0  0  0  0  0  0  0
   -3.8708    2.9833    0.0000 C   0  0  0  0  0  0  0  0  0  0  0  0
   -4.5833    2.5625    0.0000 C   0  0  0  0  0  0  0  0  0  0  0  0
    3.0292    3.0875    0.0000 C   0  0  0  0  0  0  0  0  0  0  0  0
  2  1  2  0  0  0  0
  3  1  1  0  0  0  0
  4  9  1  0  0  0  0
  5  2  1  0  0  0  0
  6  3  1  0  0  0  0
  7  1  1  0  0  0  0
  8 10  1  0  0  0  0
  9 14  1  0  0  0  0
 10 19  1  0  0  0  0
 11  4  1  0  0  0  0
 12  4  1  0  0  0  0
 13  8  1  0  0  0  0
 14 13  2  0  0  0  0
 15  6  1  0  0  0  0
 16  5  1  0  0  0  0
 17  7  1  0  0  0  0
 18  7  1  0  0  0  0
 19 18  1  0  0  0  0
 20 17  1  0  0  0  0
 21  8  2  0  0  0  0
 22 11  1  0  0  0  0
 23 12  1  0  0  0  0
 24 11  2  0  0  0  0
 25 12  2  0  0  0  0
 26 15  2  0  0  0  0
 27 16  2  0  0  0  0
 28 15  1  0  0  0  0
 29 32  1  0  0  0  0
 30 16  1  0  0  0  0
 31 13  1  0  0  0  0
 32 31  2  0  0  0  0
 33 30  1  0  0  0  0
  6  5  2  0  0  0  0
 20 10  1  0  0  0  0
 27 26  1  0  0  0  0
  9 29  2  0  0  0  0
 22 23  1  0  0  0  0
M  END
> <IDNUMBER>
F2708-0385

> <Chemical_Name>
1-{3-[4-(7-chloro-4-methoxy-1,3-benzothiazol-2-yl)piperazine-1-carbonyl]phenyl}pyrrolidine-2,5-dione

> <CAS>
886954-15-0

> <PriceCoeff>
1.00

> <MW>
484.96

> <Description>
solid

> <FSP3>
0.30

> <clogP>
2.61

> <TPSA>
111.29

> <Acceptor>
5

> <Donor>
1

> <RotBonds>
5

> <HAC>
33

> <Collection>
General

$$$$
F2738-2428
  -ISIS-  06222321152D

 29 32  0  0  0  0  0  0  0  0999 V2000
   -3.1583    3.3958    0.0000 C   0  0  0  0  0  0  0  0  0  0  0  0
   -2.4125    3.7333    0.0000 N   0  0  0  0  0  0  0  0  0  0  0  0
   -6.0042    3.3958    0.0000 N   0  0  3  0  0  0  0  0  0  0  0  0
   -3.8708    3.8000    0.0000 N   0  0  3  0  0  0  0  0  0  0  0  0
   -3.0833    2.5833    0.0000 S   0  0  0  0  0  0  0  0  0  0  0  0
   -2.2750    2.4125    0.0000 C   0  0  0  0  0  0  0  0  0  0  0  0
   -1.8708    3.1250    0.0000 C   0  0  0  0  0  0  0  0  0  0  0  0
   -4.5833    3.3958    0.0000 C   0  0  0  0  0  0  0  0  0  0  0  0
   -5.3083    3.8083    0.0000 C   0  0  0  0  0  0  0  0  0  0  0  0
   -6.7542    3.7333    0.0000 C   0  0  0  0  0  0  0  0  0  0  0  0
   -6.0792    2.5708    0.0000 C   0  0  0  0  0  0  0  0  0  0  0  0
   -1.8708    1.7083    0.0000 C   0  0  0  0  0  0  0  0  0  0  0  0
   -3.8708    4.6042    0.0000 C   0  0  0  0  0  0  0  0  0  0  0  0
   -1.0500    3.1208    0.0000 C   0  0  0  0  0  0  0  0  0  0  0  0
   -4.5833    2.5708    0.0000 O   0  0  0  0  0  0  0  0  0  0  0  0
   -7.3042    3.1083    0.0000 C   0  0  0  0  0  0  0  0  0  0  0  0
   -6.8917    2.3958    0.0000 C   0  0  0  0  0  0  0  0  0  0  0  0
   -6.9292    4.5125    0.0000 O   0  0  0  0  0  0  0  0  0  0  0  0
   -5.4833    2.0250    0.0000 O   0  0  0  0  0  0  0  0  0  0  0  0
   -2.4500    4.6042    0.0000 N   0  0  0  0  0  0  0  0  0  0  0  0
   -1.0458    1.6958    0.0000 C   0  0  0  0  0  0  0  0  0  0  0  0
   -0.6500    2.4125    0.0000 C   0  0  0  0  0  0  0  0  0  0  0  0
   -3.1583    5.0167    0.0000 C   0  0  0  0  0  0  0  0  0  0  0  0
   -2.2833    0.9250    0.0000 Cl  0  0  0  0  0  0  0  0  0  0  0  0
   -1.7458    5.0167    0.0000 C   0  0  0  0  0  0  0  0  0  0  0  0
   -0.6375    3.8333    0.0000 C   0  0  0  0  0  0  0  0  0  0  0  0
   -3.1583    5.8417    0.0000 C   0  0  0  0  0  0  0  0  0  0  0  0
   -1.7375    5.8417    0.0000 C   0  0  0  0  0  0  0  0  0  0  0  0
   -2.4500    6.2542    0.0000 C   0  0  0  0  0  0  0  0  0  0  0  0
  2  1  2  0  0  0  0
  3  9  1  0  0  0  0
  4  1  1  0  0  0  0
  5  1  1  0  0  0  0
  6  5  1  0  0  0  0
  7  2  1  0  0  0  0
  8  4  1  0  0  0  0
  9  8  1  0  0  0  0
 10  3  1  0  0  0  0
 11  3  1  0  0  0  0
 12  6  1  0  0  0  0
 13  4  1  0  0  0  0
 14  7  1  0  0  0  0
 15  8  2  0  0  0  0
 16 10  1  0  0  0  0
 17 11  1  0  0  0  0
 18 10  2  0  0  0  0
 19 11  2  0  0  0  0
 20 23  2  0  0  0  0
 21 12  2  0  0  0  0
 22 14  2  0  0  0  0
 23 13  1  0  0  0  0
 24 12  1  0  0  0  0
 25 20  1  0  0  0  0
 26 14  1  0  0  0  0
 27 23  1  0  0  0  0
 28 29  1  0  0  0  0
 29 27  2  0  0  0  0
  6  7  2  0  0  0  0
 22 21  1  0  0  0  0
 28 25  2  0  0  0  0
 16 17  1  0  0  0  0
M  END
> <IDNUMBER>
F2738-2428

> <Chemical_Name>
N-(7-chloro-4-methyl-1,3-benzothiazol-2-yl)-2-(2,5-dioxopyrrolidin-1-yl)-N-[(pyridin-2-yl)methyl]acetamide

> <CAS>
922870-13-1

> <PriceCoeff>
1.00

> <MW>
428.89

> <Description>
solid

> <FSP3>
0.25

> <clogP>
2.20

> <TPSA>
111.71

> <Acceptor>
5

> <Donor>
1

> <RotBonds>
6

> <HAC>
29

> <Collection>
General

$$$$
F3260-0609
  -ISIS-  06222321152D

 18 19  0  0  0  0  0  0  0  0999 V2000
    4.8500    2.1000    0.0000 C   0  0  0  0  0  0  0  0  0  0  0  0
    4.8500    3.5000    0.0000 C   0  0  0  0  0  0  0  0  0  0  0  0
    6.1542    1.6833    0.0000 N   0  0  0  0  0  0  0  0  0  0  0  0
    3.6375    1.4000    0.0000 N   0  0  3  0  0  0  0  0  0  0  0  0
    2.4250    3.5000    0.0000 N   0  0  3  0  0  0  0  0  0  0  0  0
    2.4250    2.1000    0.0000 C   0  0  0  0  0  0  0  0  0  0  0  0
    3.6375    4.2000    0.0000 C   0  0  0  0  0  0  0  0  0  0  0  0
    6.9917    2.8000    0.0000 C   0  0  0  0  0  0  0  0  0  0  0  0
    6.1542    3.9708    0.0000 N   0  0  3  0  0  0  0  0  0  0  0  0
    1.2042    1.4000    0.0000 O   0  0  0  0  0  0  0  0  0  0  0  0
    3.6375    5.5917    0.0000 O   0  0  0  0  0  0  0  0  0  0  0  0
    8.3500    2.4458    0.0000 Br  0  0  0  0  0  0  0  0  0  0  0  0
    1.2042    4.2000    0.0000 C   0  0  0  0  0  0  0  0  0  0  0  0
    3.6375   -0.0000    0.0000 C   0  0  0  0  0  0  0  0  0  0  0  0
    7.3667    4.6667    0.0000 C   0  0  0  0  0  0  0  0  0  0  0  0
    8.5792    3.9708    0.0000 C   0  0  0  0  0  0  0  0  0  0  0  0
    0.0000    3.5000    0.0000 C   0  0  0  0  0  0  0  0  0  0  0  0
    9.7917    4.6667    0.0000 C   0  0  0  0  0  0  0  0  0  0  0  0
  2  1  2  0  0  0  0
  3  1  1  0  0  0  0
  4  1  1  0  0  0  0
  5  6  1  0  0  0  0
  6  4  1  0  0  0  0
  7  2  1  0  0  0  0
  8  3  2  0  0  0  0
  9  2  1  0  0  0  0
 10  6  2  0  0  0  0
 11  7  2  0  0  0  0
 12  8  1  0  0  0  0
 13  5  1  0  0  0  0
 14  4  1  0  0  0  0
 15  9  1  0  0  0  0
 16 15  1  0  0  0  0
 17 13  1  0  0  0  0
 18 16  1  0  0  0  0
  8  9  1  0  0  0  0
  7  5  1  0  0  0  0
M  END
> <IDNUMBER>
F3260-0609

> <Chemical_Name>
8-bromo-1-ethyl-3-methyl-7-propyl-2,3,6,7-tetrahydro-1H-purine-2,6-dione

> <CAS>
1040668-66-3

> <PriceCoeff>
1.00

> <MW>
315.17

> <Description>
solid

> <FSP3>
0.55

> <clogP>
2.44

> <TPSA>
58.44

> <Acceptor>
3

> <Donor>
1

> <RotBonds>
3

> <HAC>
18

> <Collection>
General

> <Reference_compound>
CHEMBL113

> <Similarity>
0.8120

$$$$
F6159-0248
  -ISIS-  06222321462D

 32 36  0  0  0  0  0  0  0  0999 V2000
   -1.5458   -8.9167    0.0000 N   0  0  3  0  0  0  0  0  0  0  0  0
    5.6042  -10.5500    0.0000 C   0  0  0  0  0  0  0  0  0  0  0  0
    5.7000  -11.3667    0.0000 N   0  0  0  0  0  0  0  0  0  0  0  0
    1.3250   -8.9167    0.0000 C   0  0  0  0  0  0  0  0  0  0  0  0
   -0.8250   -9.3292    0.0000 C   0  0  0  0  0  0  0  0  0  0  0  0
    6.3625  -10.2042    0.0000 S   0  0  0  0  0  0  0  0  0  0  0  0
    2.0417   -9.3292    0.0000 N   0  0  3  0  0  0  0  0  0  0  0  0
   -1.5875   -8.0917    0.0000 C   0  0  0  0  0  0  0  0  0  0  0  0
   -2.3083   -9.2250    0.0000 C   0  0  0  0  0  0  0  0  0  0  0  0
    0.6042   -9.3292    0.0000 C   0  0  0  0  0  0  0  0  0  0  0  0
    6.5125  -11.5417    0.0000 C   0  0  0  0  0  0  0  0  0  0  0  0
   -0.1083   -8.9167    0.0000 C   0  0  0  0  0  0  0  0  0  0  0  0
    6.9167  -10.8167    0.0000 C   0  0  0  0  0  0  0  0  0  0  0  0
    1.3167   -8.0875    0.0000 O   0  0  0  0  0  0  0  0  0  0  0  0
    4.8917  -10.1417    0.0000 O   0  0  0  0  0  0  0  0  0  0  0  0
   -2.8458   -8.5917    0.0000 C   0  0  0  0  0  0  0  0  0  0  0  0
   -2.4083   -7.8917    0.0000 C   0  0  0  0  0  0  0  0  0  0  0  0
   -2.5250  -10.0167    0.0000 O   0  0  0  0  0  0  0  0  0  0  0  0
   -0.9583   -7.5625    0.0000 O   0  0  0  0  0  0  0  0  0  0  0  0
    2.7542   -8.9167    0.0000 C   0  0  0  0  0  0  0  0  0  0  0  0
    2.0417  -10.1542    0.0000 C   0  0  0  0  0  0  0  0  0  0  0  0
    4.1792  -10.5542    0.0000 C   0  0  0  0  0  0  0  0  0  0  0  0
    3.4667   -9.3250    0.0000 C   0  0  0  0  0  0  0  0  0  0  0  0
    2.7542  -10.5667    0.0000 C   0  0  0  0  0  0  0  0  0  0  0  0
   -0.8250  -10.1542    0.0000 C   0  0  0  0  0  0  0  0  0  0  0  0
    3.4667  -10.1417    0.0000 C   0  0  3  0  0  0  0  0  0  0  0  0
    0.6042  -10.1542    0.0000 C   0  0  0  0  0  0  0  0  0  0  0  0
   -0.1125  -10.5750    0.0000 C   0  0  0  0  0  0  0  0  0  0  0  0
    6.9292  -12.2500    0.0000 C   0  0  0  0  0  0  0  0  0  0  0  0
    7.7417  -10.8167    0.0000 C   0  0  0  0  0  0  0  0  0  0  0  0
    8.1625  -11.5292    0.0000 C   0  0  0  0  0  0  0  0  0  0  0  0
    7.7500  -12.2417    0.0000 C   0  0  0  0  0  0  0  0  0  0  0  0
  2 15  1  0  0  0  0
  3  2  2  0  0  0  0
  4 10  1  0  0  0  0
  5  1  1  0  0  0  0
  6  2  1  0  0  0  0
  7  4  1  0  0  0  0
  8  1  1  0  0  0  0
  9  1  1  0  0  0  0
 10 12  2  0  0  0  0
 11  3  1  0  0  0  0
 12  5  1  0  0  0  0
 13  6  1  0  0  0  0
 14  4  2  0  0  0  0
 15 22  1  0  0  0  0
 16  9  1  0  0  0  0
 17  8  1  0  0  0  0
 18  9  2  0  0  0  0
 19  8  2  0  0  0  0
 20  7  1  0  0  0  0
 21  7  1  0  0  0  0
 22 26  1  0  0  0  0
 23 20  1  0  0  0  0
 24 21  1  0  0  0  0
 25  5  2  0  0  0  0
 26 24  1  0  0  0  0
 27 28  2  0  0  0  0
 28 25  1  0  0  0  0
 29 11  2  0  0  0  0
 30 13  2  0  0  0  0
 31 30  1  0  0  0  0
 32 29  1  0  0  0  0
 16 17  1  0  0  0  0
 10 27  1  0  0  0  0
 26 23  1  0  0  0  0
 11 13  1  0  0  0  0
 32 31  2  0  0  0  0
M  END
> <IDNUMBER>
F6159-0248

> <Chemical_Name>
1-(3-{4-[(1,3-benzothiazol-2-yloxy)methyl]piperidine-1-carbonyl}phenyl)pyrrolidine-2,5-dione

> <CAS>
1788530-37-9

> <PriceCoeff>
1.00

> <MW>
449.52

> <Description>
oil

> <FSP3>
0.33

> <clogP>
2.33

> <TPSA>
108.05

> <Acceptor>
5

> <Donor>
0

> <RotBonds>
6

> <HAC>
32

> <Collection>
General

$$$$
F0001-2388
  -ISIS-  06222321442D

 20 22  0  0  0  0  0  0  0  0999 V2000
    1.4250   -1.6500    0.0000 C   0  0  0  0  0  0  0  0  0  0  0  0
    2.1417   -1.2375    0.0000 C   0  0  0  0  0  0  0  0  0  0  0  0
    0.7125   -1.2375    0.0000 C   0  0  0  0  0  0  0  0  0  0  0  0
    2.1417   -0.4125    0.0000 C   0  0  0  0  0  0  0  0  0  0  0  0
    0.7125   -0.4125    0.0000 C   0  0  0  0  0  0  0  0  0  0  0  0
    2.8542   -1.6500    0.0000 C   0  0  0  0  0  0  0  0  0  0  0  0
    1.4250   -0.0000    0.0000 O   0  0  0  0  0  0  0  0  0  0  0  0
    2.8542   -0.0000    0.0000 C   0  0  0  0  0  0  0  0  0  0  0  0
    3.5667   -1.2375    0.0000 C   0  0  0  0  0  0  0  0  0  0  0  0
    0.0000   -1.6500    0.0000 C   0  0  0  0  0  0  0  0  0  0  0  0
    1.4250   -2.4750    0.0000 O   0  0  0  0  0  0  0  0  0  0  0  0
    3.5667   -0.4125    0.0000 C   0  0  0  0  0  0  0  0  0  0  0  0
    0.0000   -2.4750    0.0000 C   0  0  0  0  0  0  0  0  0  0  0  0
   -0.7208   -1.2375    0.0000 C   0  0  0  0  0  0  0  0  0  0  0  0
    2.8542   -2.4750    0.0000 O   0  0  0  0  0  0  0  0  0  0  0  0
   -1.4333   -2.4750    0.0000 C   0  0  0  0  0  0  0  0  0  0  0  0
   -1.4333   -1.6500    0.0000 C   0  0  0  0  0  0  0  0  0  0  0  0
   -0.7208   -2.8875    0.0000 C   0  0  0  0  0  0  0  0  0  0  0  0
    4.2792   -0.0000    0.0000 O   0  0  0  0  0  0  0  0  0  0  0  0
   -2.1458   -2.8875    0.0000 O   0  0  0  0  0  0  0  0  0  0  0  0
  2  1  1  0  0  0  0
  3  1  1  0  0  0  0
  4  2  1  0  0  0  0
  5  3  2  0  0  0  0
  6  2  2  0  0  0  0
  7  5  1  0  0  0  0
  8  4  2  0  0  0  0
  9  6  1  0  0  0  0
 10  3  1  0  0  0  0
 11  1  2  0  0  0  0
 12  9  2  0  0  0  0
 13 10  1  0  0  0  0
 14 10  2  0  0  0  0
 15  6  1  0  0  0  0
 16 17  2  0  0  0  0
 17 14  1  0  0  0  0
 18 13  2  0  0  0  0
 19 12  1  0  0  0  0
 20 16  1  0  0  0  0
  7  4  1  0  0  0  0
 18 16  1  0  0  0  0
  8 12  1  0  0  0  0
M  END
> <IDNUMBER>
F0001-2388

> <Chemical_Name>
5,7-dihydroxy-3-(4-hydroxyphenyl)-4H-chromen-4-one

> <CAS>
446-72-0

> <PriceCoeff>
1.00

> <MW>
270.24

> <Description>
solid

> <FSP3>
0.00

> <clogP>
2.41

> <TPSA>
86.99

> <Acceptor>
5

> <Donor>
3

> <RotBonds>
1

> <HAC>
20

> <Collection>
General

> <Reference_compound>
CHEMBL44

> <Similarity>
1.0000

$$$$
F0466-0018
  -ISIS-  06222321452D

 28 31  0  0  0  0  0  0  0  0999 V2000
    1.3500    1.0958    0.0000 N   0  0  3  0  0  0  0  0  0  0  0  0
   -1.3500    0.5708    0.0000 C   0  0  0  0  0  0  0  0  0  0  0  0
   -1.7708    0.1125    0.0000 N   0  0  0  0  0  0  0  0  0  0  0  0
   -0.7500    0.5708    0.0000 N   0  0  0  0  0  0  0  0  0  0  0  0
   -2.3125    0.3708    0.0000 C   0  0  0  0  0  0  0  0  0  0  0  0
    1.0500    0.5708    0.0000 C   0  0  0  0  0  0  0  0  0  0  0  0
   -0.4500    0.0500    0.0000 C   0  0  0  0  0  0  0  0  0  0  0  0
    1.9542    1.0958    0.0000 C   0  0  0  0  0  0  0  0  0  0  0  0
    1.1542    1.6708    0.0000 C   0  0  0  0  0  0  0  0  0  0  0  0
   -1.6500    1.0958    0.0000 S   0  0  0  0  0  0  0  0  0  0  0  0
   -2.2500    0.9500    0.0000 C   0  0  0  0  0  0  0  0  0  0  0  0
    0.4500    0.5708    0.0000 C   0  0  0  0  0  0  0  0  0  0  0  0
    0.1500    0.0500    0.0000 C   0  0  0  0  0  0  0  0  0  0  0  0
   -2.8125    0.0333    0.0000 C   0  0  0  0  0  0  0  0  0  0  0  0
   -0.7500   -0.4542    0.0000 O   0  0  0  0  0  0  0  0  0  0  0  0
    1.6792    2.0208    0.0000 C   0  0  0  0  0  0  0  0  0  0  0  0
    2.1500    1.6708    0.0000 C   0  0  0  0  0  0  0  0  0  0  0  0
    2.3167    0.5958    0.0000 O   0  0  0  0  0  0  0  0  0  0  0  0
    0.5792    1.8708    0.0000 O   0  0  0  0  0  0  0  0  0  0  0  0
   -2.7708   -0.5542    0.0000 C   0  0  0  0  0  0  0  0  0  0  0  0
   -3.3500    0.2958    0.0000 C   0  0  0  0  0  0  0  0  0  0  0  0
   -3.8125   -0.6500    0.0000 C   0  0  0  0  0  0  0  0  0  0  0  0
   -3.2708   -0.9000    0.0000 C   0  0  0  0  0  0  0  0  0  0  0  0
   -3.8500   -0.0500    0.0000 C   0  0  0  0  0  0  0  0  0  0  0  0
    1.3500    0.0500    0.0000 C   0  0  0  0  0  0  0  0  0  0  0  0
   -4.3125   -1.0000    0.0000 Cl  0  0  0  0  0  0  0  0  0  0  0  0
    0.4500   -0.4542    0.0000 C   0  0  0  0  0  0  0  0  0  0  0  0
    1.0500   -0.4542    0.0000 C   0  0  0  0  0  0  0  0  0  0  0  0
  2  4  1  0  0  0  0
  3  2  2  0  0  0  0
  4  7  1  0  0  0  0
  5  3  1  0  0  0  0
  6  1  1  0  0  0  0
  7 13  1  0  0  0  0
  8  1  1  0  0  0  0
  9  1  1  0  0  0  0
 10  2  1  0  0  0  0
 11 10  1  0  0  0  0
 12  6  2  0  0  0  0
 13 12  1  0  0  0  0
 14  5  1  0  0  0  0
 15  7  2  0  0  0  0
 16  9  1  0  0  0  0
 17  8  1  0  0  0  0
 18  8  2  0  0  0  0
 19  9  2  0  0  0  0
 20 14  1  0  0  0  0
 21 14  2  0  0  0  0
 22 24  2  0  0  0  0
 23 20  2  0  0  0  0
 24 21  1  0  0  0  0
 25  6  1  0  0  0  0
 26 22  1  0  0  0  0
 27 28  1  0  0  0  0
 28 25  2  0  0  0  0
 16 17  1  0  0  0  0
 27 13  2  0  0  0  0
 11  5  2  0  0  0  0
 22 23  1  0  0  0  0
M  END
> <IDNUMBER>
F0466-0018

> <Chemical_Name>
N-[4-(4-chlorophenyl)-1,3-thiazol-2-yl]-3-(2,5-dioxopyrrolidin-1-yl)benzamide

> <CAS>
476321-64-9

> <PriceCoeff>
1.00

> <MW>
411.86

> <Description>
solid

> <FSP3>
0.10

> <clogP>
2.85

> <TPSA>
107.61

> <Acceptor>
4

> <Donor>
1

> <RotBonds>
4

> <HAC>
28

> <Collection>
General

$$$$
F1813-0479
  -ISIS-  06222321452D

 27 30  0  0  0  0  0  0  0  0999 V2000
   -6.0000    3.3958    0.0000 C   0  0  0  0  0  0  0  0  0  0  0  0
   -1.7333    3.3958    0.0000 N   0  0  3  0  0  0  0  0  0  0  0  0
   -6.0792    2.5625    0.0000 N   0  0  0  0  0  0  0  0  0  0  0  0
   -6.8917    2.3958    0.0000 C   0  0  0  0  0  0  0  0  0  0  0  0
   -7.3042    3.1083    0.0000 C   0  0  0  0  0  0  0  0  0  0  0  0
   -5.2958    3.8083    0.0000 N   0  0  0  0  0  0  0  0  0  0  0  0
   -6.7542    3.7333    0.0000 S   0  0  0  0  0  0  0  0  0  0  0  0
   -2.4458    3.8000    0.0000 C   0  0  0  0  0  0  0  0  0  0  0  0
   -4.5833    3.3958    0.0000 C   0  0  0  0  0  0  0  0  0  0  0  0
   -1.6875    2.5708    0.0000 C   0  0  0  0  0  0  0  0  0  0  0  0
   -0.9708    3.6875    0.0000 C   0  0  0  0  0  0  0  0  0  0  0  0
   -3.1583    3.3958    0.0000 C   0  0  0  0  0  0  0  0  0  0  0  0
   -3.8708    3.8000    0.0000 C   0  0  0  0  0  0  0  0  0  0  0  0
   -7.3042    1.6833    0.0000 C   0  0  0  0  0  0  0  0  0  0  0  0
   -8.1292    3.1083    0.0000 C   0  0  0  0  0  0  0  0  0  0  0  0
   -4.5833    2.5708    0.0000 O   0  0  0  0  0  0  0  0  0  0  0  0
   -0.4375    3.0583    0.0000 C   0  0  0  0  0  0  0  0  0  0  0  0
   -0.8708    2.3708    0.0000 C   0  0  0  0  0  0  0  0  0  0  0  0
   -0.7583    4.4667    0.0000 O   0  0  0  0  0  0  0  0  0  0  0  0
   -2.3208    2.0458    0.0000 O   0  0  0  0  0  0  0  0  0  0  0  0
   -8.5417    2.3958    0.0000 C   0  0  0  0  0  0  0  0  0  0  0  0
   -8.1292    1.6833    0.0000 C   0  0  0  0  0  0  0  0  0  0  0  0
   -6.8917    0.9708    0.0000 Cl  0  0  0  0  0  0  0  0  0  0  0  0
   -8.5417    3.8208    0.0000 Cl  0  0  0  0  0  0  0  0  0  0  0  0
   -2.4375    4.6167    0.0000 C   0  0  0  0  0  0  0  0  0  0  0  0
   -3.8708    4.6167    0.0000 C   0  0  0  0  0  0  0  0  0  0  0  0
   -3.1583    5.0292    0.0000 C   0  0  0  0  0  0  0  0  0  0  0  0
  2  8  1  0  0  0  0
  3  1  2  0  0  0  0
  4  3  1  0  0  0  0
  5  7  1  0  0  0  0
  6  1  1  0  0  0  0
  7  1  1  0  0  0  0
  8 12  1  0  0  0  0
  9  6  1  0  0  0  0
 10  2  1  0  0  0  0
 11  2  1  0  0  0  0
 12 13  2  0  0  0  0
 13  9  1  0  0  0  0
 14  4  2  0  0  0  0
 15  5  2  0  0  0  0
 16  9  2  0  0  0  0
 17 11  1  0  0  0  0
 18 10  1  0  0  0  0
 19 11  2  0  0  0  0
 20 10  2  0  0  0  0
 21 15  1  0  0  0  0
 22 14  1  0  0  0  0
 23 14  1  0  0  0  0
 24 15  1  0  0  0  0
 25 27  1  0  0  0  0
 26 13  1  0  0  0  0
 27 26  2  0  0  0  0
  5  4  1  0  0  0  0
 21 22  2  0  0  0  0
  8 25  2  0  0  0  0
 17 18  1  0  0  0  0
M  END
> <IDNUMBER>
F1813-0479

> <Chemical_Name>
N-(4,7-dichloro-1,3-benzothiazol-2-yl)-3-(2,5-dioxopyrrolidin-1-yl)benzamide

> <CAS>
897618-06-3

> <PriceCoeff>
1.00

> <MW>
420.27

> <Description>
solid

> <FSP3>
0.11

> <clogP>
3.06

> <TPSA>
107.61

> <Acceptor>
4

> <Donor>
1

> <RotBonds>
3

> <HAC>
27

> <Collection>
General

$$$$
F3367-0007
  -ISIS-  06222321152D

 28 31  0  0  0  0  0  0  0  0999 V2000
    2.5792    1.9458    0.0000 N   0  0  3  0  0  0  0  0  0  0  0  0
    1.8875   -2.5875    0.0000 C   0  0  0  0  0  0  0  0  0  0  0  0
    1.1792   -3.0042    0.0000 C   0  0  0  0  0  0  0  0  0  0  0  0
    3.2417    2.4333    0.0000 C   0  0  0  0  0  0  0  0  0  0  0  0
    1.9042    2.4250    0.0000 C   0  0  0  0  0  0  0  0  0  0  0  0
    1.8792   -1.7625    0.0000 N   0  0  0  0  0  0  0  0  0  0  0  0
    2.5917   -1.3417    0.0000 C   0  0  0  0  0  0  0  0  0  0  0  0
    1.8917   -4.2417    0.0000 N   0  0  0  0  0  0  0  0  0  0  0  0
    1.1792   -3.8292    0.0000 C   0  0  0  0  0  0  0  0  0  0  0  0
    2.6042   -2.9917    0.0000 C   0  0  0  0  0  0  0  0  0  0  0  0
    2.5792    1.1208    0.0000 C   0  0  0  0  0  0  0  0  0  0  0  0
    2.5917   -0.5167    0.0000 C   0  0  0  0  0  0  0  0  0  0  0  0
    2.6042   -3.8250    0.0000 C   0  0  0  0  0  0  0  0  0  0  0  0
    0.4625   -2.5917    0.0000 C   0  0  0  0  0  0  0  0  0  0  0  0
    3.3125   -1.7542    0.0000 O   0  0  0  0  0  0  0  0  0  0  0  0
    2.1542    3.2083    0.0000 C   0  0  0  0  0  0  0  0  0  0  0  0
    2.9792    3.2208    0.0000 C   0  0  0  0  0  0  0  0  0  0  0  0
    1.1250    2.1625    0.0000 O   0  0  0  0  0  0  0  0  0  0  0  0
    4.0292    2.1833    0.0000 O   0  0  0  0  0  0  0  0  0  0  0  0
    0.4625   -4.2417    0.0000 C   0  0  0  0  0  0  0  0  0  0  0  0
    1.8667    0.7000    0.0000 C   0  0  0  0  0  0  0  0  0  0  0  0
    3.3000    0.7125    0.0000 C   0  0  0  0  0  0  0  0  0  0  0  0
    1.8750   -0.1167    0.0000 C   0  0  0  0  0  0  0  0  0  0  0  0
    3.3042   -0.1125    0.0000 C   0  0  0  0  0  0  0  0  0  0  0  0
   -0.2500   -3.0042    0.0000 C   0  0  0  0  0  0  0  0  0  0  0  0
   -0.2500   -3.8292    0.0000 C   0  0  0  0  0  0  0  0  0  0  0  0
   -0.9625   -2.5917    0.0000 Br  0  0  0  0  0  0  0  0  0  0  0  0
    3.3250   -4.2292    0.0000 C   0  0  0  0  0  0  0  0  0  0  0  0
  2  6  1  0  0  0  0
  3  2  1  0  0  0  0
  4  1  1  0  0  0  0
  5  1  1  0  0  0  0
  6  7  1  0  0  0  0
  7 12  1  0  0  0  0
  8 13  2  0  0  0  0
  9  3  1  0  0  0  0
 10  2  2  0  0  0  0
 11  1  1  0  0  0  0
 12 24  2  0  0  0  0
 13 10  1  0  0  0  0
 14  3  2  0  0  0  0
 15  7  2  0  0  0  0
 16  5  1  0  0  0  0
 17  4  1  0  0  0  0
 18  5  2  0  0  0  0
 19  4  2  0  0  0  0
 20  9  2  0  0  0  0
 21 11  1  0  0  0  0
 22 11  2  0  0  0  0
 23 21  2  0  0  0  0
 24 22  1  0  0  0  0
 25 14  1  0  0  0  0
 26 25  2  0  0  0  0
 27 25  1  0  0  0  0
 28 13  1  0  0  0  0
 16 17  1  0  0  0  0
 12 23  1  0  0  0  0
  8  9  1  0  0  0  0
 26 20  1  0  0  0  0
M  END
> <IDNUMBER>
F3367-0007

> <Chemical_Name>
N-(6-bromo-2-methylquinolin-4-yl)-4-(2,5-dioxopyrrolidin-1-yl)benzamide

> <CAS>
940983-87-9

> <PriceCoeff>
1.00

> <MW>
438.27

> <Description>
solid

> <FSP3>
0.14

> <clogP>
2.95

> <TPSA>
79.37

> <Acceptor>
4

> <Donor>
2

> <RotBonds>
3

> <HAC>
28

> <Collection>
General

$$$$
F0396-0402
  -ISIS-  06222321142D

 31 35  0  0  0  0  0  0  0  0999 V2000
   -1.7958   -0.0542    0.0000 C   0  0  0  0  0  0  0  0  0  0  0  0
   -2.4208    0.2833    0.0000 N   0  0  3  0  0  0  0  0  0  0  0  0
   -3.0458   -0.0167    0.0000 N   0  0  0  0  0  0  0  0  0  0  0  0
   -2.0708   -0.7542    0.0000 C   0  0  0  0  0  0  0  0  0  0  0  0
   -1.0500    0.0458    0.0000 N   0  0  0  0  0  0  0  0  0  0  0  0
   -2.8000   -0.7000    0.0000 C   0  0  0  0  0  0  0  0  0  0  0  0
    2.3292    0.3208    0.0000 N   0  0  3  0  0  0  0  0  0  0  0  0
   -0.4625   -0.3667    0.0000 C   0  0  0  0  0  0  0  0  0  0  0  0
    2.5875    1.0458    0.0000 C   0  0  0  0  0  0  0  0  0  0  0  0
    2.9792   -0.0792    0.0000 C   0  0  0  0  0  0  0  0  0  0  0  0
   -2.4333    1.0125    0.0000 C   0  0  0  0  0  0  0  0  0  0  0  0
    1.5667    0.1208    0.0000 C   0  0  0  0  0  0  0  0  0  0  0  0
   -2.5458   -1.9167    0.0000 S   0  0  0  0  0  0  0  0  0  0  0  0
    0.0875   -0.1500    0.0000 C   0  0  0  0  0  0  0  0  0  0  0  0
   -0.6625   -1.0875    0.0000 O   0  0  0  0  0  0  0  0  0  0  0  0
   -1.8125    1.3833    0.0000 C   0  0  0  0  0  0  0  0  0  0  0  0
    3.5792    0.2958    0.0000 C   0  0  0  0  0  0  0  0  0  0  0  0
    3.3500    1.0333    0.0000 C   0  0  0  0  0  0  0  0  0  0  0  0
    2.1292    1.7000    0.0000 O   0  0  0  0  0  0  0  0  0  0  0  0
    2.9875   -0.7542    0.0000 O   0  0  0  0  0  0  0  0  0  0  0  0
   -1.8833   -1.5000    0.0000 C   0  0  0  0  0  0  0  0  0  0  0  0
    1.4000   -0.4667    0.0000 C   0  0  0  0  0  0  0  0  0  0  0  0
    1.0042    0.6708    0.0000 C   0  0  0  0  0  0  0  0  0  0  0  0
    0.6667   -0.6875    0.0000 C   0  0  0  0  0  0  0  0  0  0  0  0
    0.2667    0.4458    0.0000 C   0  0  0  0  0  0  0  0  0  0  0  0
   -3.1000   -1.4167    0.0000 C   0  0  0  0  0  0  0  0  0  0  0  0
   -1.8125    2.1208    0.0000 C   0  0  0  0  0  0  0  0  0  0  0  0
   -3.0708    1.3708    0.0000 C   0  0  0  0  0  0  0  0  0  0  0  0
   -3.0708    2.1125    0.0000 C   0  0  0  0  0  0  0  0  0  0  0  0
   -2.4333    2.4958    0.0000 C   0  0  0  0  0  0  0  0  0  0  0  0
   -1.3125    2.4208    0.0000 C   0  0  0  0  0  0  0  0  0  0  0  0
  2  1  1  0  0  0  0
  3  2  1  0  0  0  0
  4  1  2  0  0  0  0
  5  1  1  0  0  0  0
  6  4  1  0  0  0  0
  7 12  1  0  0  0  0
  8  5  1  0  0  0  0
  9  7  1  0  0  0  0
 10  7  1  0  0  0  0
 11  2  1  0  0  0  0
 12 23  2  0  0  0  0
 13 21  1  0  0  0  0
 14  8  1  0  0  0  0
 15  8  2  0  0  0  0
 16 11  1  0  0  0  0
 17 10  1  0  0  0  0
 18  9  1  0  0  0  0
 19  9  2  0  0  0  0
 20 10  2  0  0  0  0
 21  4  1  0  0  0  0
 22 24  2  0  0  0  0
 23 25  1  0  0  0  0
 24 14  1  0  0  0  0
 25 14  2  0  0  0  0
 26  6  1  0  0  0  0
 27 16  2  0  0  0  0
 28 11  2  0  0  0  0
 29 28  1  0  0  0  0
 30 29  2  0  0  0  0
 31 27  1  0  0  0  0
  3  6  2  0  0  0  0
 13 26  1  0  0  0  0
 12 22  1  0  0  0  0
 30 27  1  0  0  0  0
 17 18  1  0  0  0  0
M  END
> <IDNUMBER>
F0396-0402

> <Chemical_Name>
4-(2,5-dioxopyrrolidin-1-yl)-N-[2-(3-methylphenyl)-2H,4H,6H-thieno[3,4-c]pyrazol-3-yl]benzamide

> <CAS>
392288-91-4

> <PriceCoeff>
1.00

> <MW>
432.49

> <Description>
solid

> <FSP3>
0.22

> <clogP>
1.72

> <TPSA>
109.60

> <Acceptor>
4

> <Donor>
1

> <RotBonds>
4

> <HAC>
31

> <Collection>
General

$$$$
F0526-2010
  -ISIS-  06222321142D

 32 35  0  0  0  0  0  0  0  0999 V2000
    3.4167   -4.3667    0.0000 C   0  0  0  0  0  0  0  0  0  0  0  0
    3.7500   -3.6167    0.0000 C   0  0  0  0  0  0  0  0  0  0  0  0
    4.7000   -6.5167    0.0000 N   0  0  3  0  0  0  0  0  0  0  0  0
    2.4167   -3.4792    0.0000 C   0  0  0  0  0  0  0  0  0  0  0  0
    2.5917   -4.2917    0.0000 S   0  0  0  0  0  0  0  0  0  0  0  0
    3.1292   -3.0667    0.0000 C   0  0  0  0  0  0  0  0  0  0  0  0
    3.8417   -5.0917    0.0000 N   0  0  0  0  0  0  0  0  0  0  0  0
    5.1792   -5.8625    0.0000 C   0  0  0  0  0  0  0  0  0  0  0  0
    5.1792   -7.1792    0.0000 C   0  0  0  0  0  0  0  0  0  0  0  0
    4.5542   -3.4292    0.0000 C   0  0  0  0  0  0  0  0  0  0  0  0
    3.4292   -5.8167    0.0000 C   0  0  0  0  0  0  0  0  0  0  0  0
    3.8542   -6.5292    0.0000 C   0  0  0  0  0  0  0  0  0  0  0  0
   -0.4583   -3.4917    0.0000 C   0  0  0  0  0  0  0  0  0  0  0  0
    1.6917   -3.0667    0.0000 C   0  0  0  0  0  0  0  0  0  0  0  0
   -0.4583   -4.3167    0.0000 C   0  0  0  0  0  0  0  0  0  0  0  0
   -1.2375   -3.2375    0.0000 O   0  0  0  0  0  0  0  0  0  0  0  0
   -1.2375   -4.5667    0.0000 O   0  0  0  0  0  0  0  0  0  0  0  0
   -1.7208   -3.9000    0.0000 C   0  0  0  0  0  0  0  0  0  0  0  0
    0.2542   -3.0792    0.0000 C   0  0  0  0  0  0  0  0  0  0  0  0
    5.9750   -6.9292    0.0000 C   0  0  0  0  0  0  0  0  0  0  0  0
    5.9792   -6.1250    0.0000 C   0  0  0  0  0  0  0  0  0  0  0  0
    0.9750   -3.4917    0.0000 C   0  0  0  0  0  0  0  0  0  0  0  0
    4.9250   -7.9625    0.0000 O   0  0  0  0  0  0  0  0  0  0  0  0
    4.9250   -5.0750    0.0000 O   0  0  0  0  0  0  0  0  0  0  0  0
    4.8167   -2.6500    0.0000 O   0  0  0  0  0  0  0  0  0  0  0  0
    2.6042   -5.8292    0.0000 O   0  0  0  0  0  0  0  0  0  0  0  0
    0.2542   -4.7292    0.0000 C   0  0  0  0  0  0  0  0  0  0  0  0
    5.1167   -4.0375    0.0000 O   0  0  0  0  0  0  0  0  0  0  0  0
    0.9750   -4.3167    0.0000 C   0  0  0  0  0  0  0  0  0  0  0  0
    3.2042   -2.2417    0.0000 C   0  0  0  0  0  0  0  0  0  0  0  0
    5.9167   -3.8500    0.0000 C   0  0  0  0  0  0  0  0  0  0  0  0
    6.4792   -4.4542    0.0000 C   0  0  0  0  0  0  0  0  0  0  0  0
  2  1  2  0  0  0  0
  3 12  1  0  0  0  0
  4  5  1  0  0  0  0
  5  1  1  0  0  0  0
  6  2  1  0  0  0  0
  7  1  1  0  0  0  0
  8  3  1  0  0  0  0
  9  3  1  0  0  0  0
 10  2  1  0  0  0  0
 11  7  1  0  0  0  0
 12 11  1  0  0  0  0
 13 19  1  0  0  0  0
 14  4  1  0  0  0  0
 15 27  1  0  0  0  0
 16 13  1  0  0  0  0
 17 15  1  0  0  0  0
 18 16  1  0  0  0  0
 19 22  2  0  0  0  0
 20  9  1  0  0  0  0
 21  8  1  0  0  0  0
 22 14  1  0  0  0  0
 23  9  2  0  0  0  0
 24  8  2  0  0  0  0
 25 10  2  0  0  0  0
 26 11  2  0  0  0  0
 27 29  2  0  0  0  0
 28 10  1  0  0  0  0
 29 22  1  0  0  0  0
 30  6  1  0  0  0  0
 31 28  1  0  0  0  0
 32 31  1  0  0  0  0
  4  6  2  0  0  0  0
 21 20  1  0  0  0  0
 13 15  2  0  0  0  0
 17 18  1  0  0  0  0
M  END
> <IDNUMBER>
F0526-2010

> <Chemical_Name>
ethyl 5-[(2H-1,3-benzodioxol-5-yl)methyl]-2-[2-(2,5-dioxopyrrolidin-1-yl)acetamido]-4-methylthiophene-3-carboxylate

> <CAS>
476366-07-1

> <PriceCoeff>
1.00

> <MW>
458.48

> <Description>
solid

> <FSP3>
0.36

> <clogP>
3.79

> <TPSA>
139.48

> <Acceptor>
7

> <Donor>
1

> <RotBonds>
8

> <HAC>
32

> <Collection>
General

$$$$
F2898-4411
  -ISIS-  06222321152D

 33 37  0  0  0  0  0  0  0  0999 V2000
   -5.3000    2.9833    0.0000 C   0  0  0  0  0  0  0  0  0  0  0  0
   -4.5833    2.5583    0.0000 N   0  0  3  0  0  0  0  0  0  0  0  0
   -6.0417    2.6458    0.0000 N   0  0  0  0  0  0  0  0  0  0  0  0
   -1.0083    1.3083    0.0000 N   0  0  3  0  0  0  0  0  0  0  0  0
   -5.3958    3.7958    0.0000 S   0  0  0  0  0  0  0  0  0  0  0  0
   -3.8708    2.9708    0.0000 C   0  0  0  0  0  0  0  0  0  0  0  0
   -6.5917    3.2458    0.0000 C   0  0  0  0  0  0  0  0  0  0  0  0
   -6.1875    3.9583    0.0000 C   0  0  0  0  0  0  0  0  0  0  0  0
   -0.2625    1.6708    0.0000 C   0  0  0  0  0  0  0  0  0  0  0  0
   -0.8875    0.4958    0.0000 C   0  0  0  0  0  0  0  0  0  0  0  0
   -7.4292    3.2333    0.0000 C   0  0  0  0  0  0  0  0  0  0  0  0
   -6.5917    4.7417    0.0000 C   0  0  0  0  0  0  0  0  0  0  0  0
   -1.7250    1.7250    0.0000 C   0  0  0  0  0  0  0  0  0  0  0  0
   -4.5833    1.7333    0.0000 C   0  0  0  0  0  0  0  0  0  0  0  0
   -3.1500    2.5625    0.0000 C   0  0  0  0  0  0  0  0  0  0  0  0
   -3.8708    3.8000    0.0000 O   0  0  0  0  0  0  0  0  0  0  0  0
   -7.4292    4.6542    0.0000 C   0  0  0  0  0  0  0  0  0  0  0  0
   -7.8042    4.0417    0.0000 C   0  0  0  0  0  0  0  0  0  0  0  0
    0.3125    1.0750    0.0000 C   0  0  0  0  0  0  0  0  0  0  0  0
   -0.0833    0.3583    0.0000 C   0  0  0  0  0  0  0  0  0  0  0  0
   -0.1125    2.5000    0.0000 O   0  0  0  0  0  0  0  0  0  0  0  0
   -1.4833   -0.0792    0.0000 O   0  0  0  0  0  0  0  0  0  0  0  0
   -1.7208    2.5625    0.0000 C   0  0  0  0  0  0  0  0  0  0  0  0
   -2.4375    1.3333    0.0000 C   0  0  0  0  0  0  0  0  0  0  0  0
   -5.2833    0.5000    0.0000 O   0  0  0  0  0  0  0  0  0  0  0  0
   -3.1500    1.7458    0.0000 C   0  0  0  0  0  0  0  0  0  0  0  0
   -2.4250    2.9833    0.0000 C   0  0  0  0  0  0  0  0  0  0  0  0
   -5.2833    1.3250    0.0000 C   0  0  3  0  0  0  0  0  0  0  0  0
   -7.8792    5.3250    0.0000 Cl  0  0  0  0  0  0  0  0  0  0  0  0
   -7.8667    2.5458    0.0000 C   0  0  0  0  0  0  0  0  0  0  0  0
   -6.0667    0.2458    0.0000 C   0  0  0  0  0  0  0  0  0  0  0  0
   -6.0625    1.5750    0.0000 C   0  0  0  0  0  0  0  0  0  0  0  0
   -6.5542    0.9083    0.0000 C   0  0  0  0  0  0  0  0  0  0  0  0
  2  1  1  0  0  0  0
  3  1  2  0  0  0  0
  4 13  1  0  0  0  0
  5  1  1  0  0  0  0
  6  2  1  0  0  0  0
  7  3  1  0  0  0  0
  8  5  1  0  0  0  0
  9  4  1  0  0  0  0
 10  4  1  0  0  0  0
 11  7  1  0  0  0  0
 12  8  1  0  0  0  0
 13 23  1  0  0  0  0
 14  2  1  0  0  0  0
 15  6  1  0  0  0  0
 16  6  2  0  0  0  0
 17 12  2  0  0  0  0
 18 11  2  0  0  0  0
 19  9  1  0  0  0  0
 20 10  1  0  0  0  0
 21  9  2  0  0  0  0
 22 10  2  0  0  0  0
 23 27  2  0  0  0  0
 24 26  1  0  0  0  0
 25 28  1  0  0  0  0
 26 15  2  0  0  0  0
 27 15  1  0  0  0  0
 28 14  1  0  0  0  0
 29 17  1  0  0  0  0
 30 11  1  0  0  0  0
 31 25  1  0  0  0  0
 32 28  1  0  0  0  0
 33 32  1  0  0  0  0
  8  7  2  0  0  0  0
 18 17  1  0  0  0  0
 33 31  1  0  0  0  0
 24 13  2  0  0  0  0
 19 20  1  0  0  0  0
M  END
> <IDNUMBER>
F2898-4411

> <Chemical_Name>
N-(6-chloro-4-methyl-1,3-benzothiazol-2-yl)-4-(2,5-dioxopyrrolidin-1-yl)-N-[(oxolan-2-yl)methyl]benzamide

> <CAS>
922394-98-7

> <PriceCoeff>
1.00

> <MW>
483.97

> <Description>
solid

> <FSP3>
0.33

> <clogP>
2.59

> <TPSA>
108.05

> <Acceptor>
5

> <Donor>
0

> <RotBonds>
6

> <HAC>
33

> <Collection>
General

$$$$
F2515-0860
  -ISIS-  06222321142D

 29 32  0  0  0  0  0  0  0  0999 V2000
   -4.5625    2.1500    0.0000 C   0  0  0  0  0  0  0  0  0  0  0  0
   -3.1333    4.6292    0.0000 N   0  0  3  0  0  0  0  0  0  0  0  0
   -3.8458    2.5583    0.0000 N   0  0  3  0  0  0  0  0  0  0  0  0
   -4.6583    1.3250    0.0000 N   0  0  0  0  0  0  0  0  0  0  0  0
   -5.3208    2.4875    0.0000 S   0  0  0  0  0  0  0  0  0  0  0  0
   -3.8458    3.3958    0.0000 C   0  0  0  0  0  0  0  0  0  0  0  0
   -3.1333    3.8000    0.0000 C   0  0  0  0  0  0  0  0  0  0  0  0
   -3.8000    5.1042    0.0000 C   0  0  0  0  0  0  0  0  0  0  0  0
   -2.4625    5.1042    0.0000 C   0  0  0  0  0  0  0  0  0  0  0  0
   -5.8750    1.8708    0.0000 C   0  0  0  0  0  0  0  0  0  0  0  0
   -5.4583    1.1583    0.0000 C   0  0  0  0  0  0  0  0  0  0  0  0
   -3.1333    2.1458    0.0000 C   0  0  0  0  0  0  0  0  0  0  0  0
   -4.5625    3.8000    0.0000 O   0  0  0  0  0  0  0  0  0  0  0  0
   -6.6917    1.8708    0.0000 C   0  0  0  0  0  0  0  0  0  0  0  0
   -3.5458    5.8917    0.0000 C   0  0  0  0  0  0  0  0  0  0  0  0
   -2.7208    5.8917    0.0000 C   0  0  0  0  0  0  0  0  0  0  0  0
   -4.5833    4.8667    0.0000 O   0  0  0  0  0  0  0  0  0  0  0  0
   -1.6750    4.8417    0.0000 O   0  0  0  0  0  0  0  0  0  0  0  0
   -2.4208    0.0833    0.0000 N   0  0  0  0  0  0  0  0  0  0  0  0
   -5.8708    0.4458    0.0000 C   0  0  0  0  0  0  0  0  0  0  0  0
   -3.1333    1.3208    0.0000 C   0  0  0  0  0  0  0  0  0  0  0  0
   -7.1042    1.1500    0.0000 C   0  0  0  0  0  0  0  0  0  0  0  0
   -6.6792    0.4458    0.0000 C   0  0  0  0  0  0  0  0  0  0  0  0
   -2.4208    0.9083    0.0000 C   0  0  0  0  0  0  0  0  0  0  0  0
   -3.1333   -0.3292    0.0000 C   0  0  0  0  0  0  0  0  0  0  0  0
   -3.8500    0.9083    0.0000 C   0  0  0  0  0  0  0  0  0  0  0  0
   -7.9292    1.1500    0.0000 C   0  0  0  0  0  0  0  0  0  0  0  0
   -3.8500    0.0833    0.0000 C   0  0  0  0  0  0  0  0  0  0  0  0
   -8.3417    1.8708    0.0000 C   0  0  0  0  0  0  0  0  0  0  0  0
  2  7  1  0  0  0  0
  3  1  1  0  0  0  0
  4  1  2  0  0  0  0
  5  1  1  0  0  0  0
  6  3  1  0  0  0  0
  7  6  1  0  0  0  0
  8  2  1  0  0  0  0
  9  2  1  0  0  0  0
 10  5  1  0  0  0  0
 11  4  1  0  0  0  0
 12  3  1  0  0  0  0
 13  6  2  0  0  0  0
 14 10  1  0  0  0  0
 15  8  1  0  0  0  0
 16  9  1  0  0  0  0
 17  8  2  0  0  0  0
 18  9  2  0  0  0  0
 19 24  2  0  0  0  0
 20 11  1  0  0  0  0
 21 12  1  0  0  0  0
 22 14  2  0  0  0  0
 23 20  2  0  0  0  0
 24 21  1  0  0  0  0
 25 28  2  0  0  0  0
 26 21  2  0  0  0  0
 27 22  1  0  0  0  0
 28 26  1  0  0  0  0
 29 27  1  0  0  0  0
 10 11  2  0  0  0  0
 23 22  1  0  0  0  0
 19 25  1  0  0  0  0
 15 16  1  0  0  0  0
M  END
> <IDNUMBER>
F2515-0860

> <Chemical_Name>
2-(2,5-dioxopyrrolidin-1-yl)-N-(6-ethyl-1,3-benzothiazol-2-yl)-N-[(pyridin-3-yl)methyl]acetamide

> <CAS>
894996-65-7

> <PriceCoeff>
1.00

> <MW>
408.47

> <Description>
solid

> <FSP3>
0.29

> <clogP>
1.99

> <TPSA>
111.71

> <Acceptor>
5

> <Donor>
1

> <RotBonds>
7

> <HAC>
29

> <Collection>
General

$$$$
F0536-0555
  -ISIS-  06222321442D

 29 33  0  0  0  0  0  0  0  0999 V2000
   -3.4458    1.7250    0.0000 C   0  0  0  0  0  0  0  0  0  0  0  0
   -3.8708    2.9833    0.0000 C   0  0  0  0  0  0  0  0  0  0  0  0
   -4.2583    1.7250    0.0000 C   0  0  0  0  0  0  0  0  0  0  0  0
   -3.1875    2.5083    0.0000 N   0  0  0  0  0  0  0  0  0  0  0  0
   -3.1125    7.5000    0.0000 N   0  0  3  0  0  0  0  0  0  0  0  0
   -4.5208    2.5083    0.0000 S   0  0  0  0  0  0  0  0  0  0  0  0
   -3.8708    3.8000    0.0000 N   0  0  0  0  0  0  0  0  0  0  0  0
   -3.0125    1.0208    0.0000 C   0  0  0  0  0  0  0  0  0  0  0  0
   -3.1583    4.2042    0.0000 C   0  0  0  0  0  0  0  0  0  0  0  0
   -3.7458    8.0042    0.0000 C   0  0  0  0  0  0  0  0  0  0  0  0
   -2.4625    7.9667    0.0000 C   0  0  0  0  0  0  0  0  0  0  0  0
   -4.2583    0.2958    0.0000 O   0  0  0  0  0  0  0  0  0  0  0  0
   -3.1125    6.6792    0.0000 C   0  0  0  0  0  0  0  0  0  0  0  0
   -4.6708    1.0000    0.0000 C   0  0  0  0  0  0  0  0  0  0  0  0
   -3.4250    0.2958    0.0000 C   0  0  0  0  0  0  0  0  0  0  0  0
   -3.1458    5.0250    0.0000 C   0  0  0  0  0  0  0  0  0  0  0  0
   -2.4458    3.8208    0.0000 O   0  0  0  0  0  0  0  0  0  0  0  0
   -2.6958    8.7375    0.0000 C   0  0  0  0  0  0  0  0  0  0  0  0
   -3.4750    8.7667    0.0000 C   0  0  0  0  0  0  0  0  0  0  0  0
   -1.6250    7.7125    0.0000 O   0  0  0  0  0  0  0  0  0  0  0  0
   -4.5958    7.7542    0.0000 O   0  0  0  0  0  0  0  0  0  0  0  0
   -3.8208    6.2750    0.0000 C   0  0  0  0  0  0  0  0  0  0  0  0
   -2.4083    6.2500    0.0000 C   0  0  0  0  0  0  0  0  0  0  0  0
   -2.4208    5.4167    0.0000 C   0  0  0  0  0  0  0  0  0  0  0  0
   -3.8458    5.4417    0.0000 C   0  0  0  0  0  0  0  0  0  0  0  0
   -2.2000    1.0208    0.0000 C   0  0  0  0  0  0  0  0  0  0  0  0
   -3.0125   -0.4042    0.0000 C   0  0  0  0  0  0  0  0  0  0  0  0
   -1.7958    0.3125    0.0000 C   0  0  0  0  0  0  0  0  0  0  0  0
   -2.2000   -0.4042    0.0000 C   0  0  0  0  0  0  0  0  0  0  0  0
  2  4  2  0  0  0  0
  3  1  2  0  0  0  0
  4  1  1  0  0  0  0
  5 13  1  0  0  0  0
  6  3  1  0  0  0  0
  7  2  1  0  0  0  0
  8  1  1  0  0  0  0
  9  7  1  0  0  0  0
 10  5  1  0  0  0  0
 11  5  1  0  0  0  0
 12 15  1  0  0  0  0
 13 22  1  0  0  0  0
 14  3  1  0  0  0  0
 15  8  2  0  0  0  0
 16  9  1  0  0  0  0
 17  9  2  0  0  0  0
 18 11  1  0  0  0  0
 19 10  1  0  0  0  0
 20 11  2  0  0  0  0
 21 10  2  0  0  0  0
 22 25  2  0  0  0  0
 23 24  1  0  0  0  0
 24 16  2  0  0  0  0
 25 16  1  0  0  0  0
 26  8  1  0  0  0  0
 27 15  1  0  0  0  0
 28 26  2  0  0  0  0
 29 28  1  0  0  0  0
 12 14  1  0  0  0  0
  2  6  1  0  0  0  0
 27 29  2  0  0  0  0
 23 13  2  0  0  0  0
 18 19  1  0  0  0  0
M  END
> <IDNUMBER>
F0536-0555

> <Chemical_Name>
N-{4H-chromeno[4,3-d][1,3]thiazol-2-yl}-4-(2,5-dioxopyrrolidin-1-yl)benzamide

> <CAS>
681161-98-8

> <PriceCoeff>
1.00

> <MW>
405.43

> <Description>
solid

> <FSP3>
0.14

> <clogP>
1.92

> <TPSA>
116.84

> <Acceptor>
5

> <Donor>
1

> <RotBonds>
3

> <HAC>
29

> <Collection>
General

$$$$
F0327-0323
  -ISIS-  06222321452D

 28 31  0  0  0  0  0  0  0  0999 V2000
    4.4167    0.3500    0.0000 N   0  0  3  0  0  0  0  0  0  0  0  0
   -0.4000    1.1125    0.0000 C   0  0  0  0  0  0  0  0  0  0  0  0
   -0.9125    0.4000    0.0000 N   0  0  0  0  0  0  0  0  0  0  0  0
    0.4542    1.1125    0.0000 N   0  0  0  0  0  0  0  0  0  0  0  0
   -1.7458    0.6500    0.0000 C   0  0  0  0  0  0  0  0  0  0  0  0
    0.9000    0.3500    0.0000 C   0  0  0  0  0  0  0  0  0  0  0  0
    4.9042   -0.3667    0.0000 C   0  0  0  0  0  0  0  0  0  0  0  0
    4.9167    1.0125    0.0000 C   0  0  0  0  0  0  0  0  0  0  0  0
   -0.9000    1.8125    0.0000 S   0  0  0  0  0  0  0  0  0  0  0  0
   -1.7458    1.5500    0.0000 C   0  0  0  0  0  0  0  0  0  0  0  0
    3.5375    0.3500    0.0000 C   0  0  0  0  0  0  0  0  0  0  0  0
    1.7792    0.3500    0.0000 C   0  0  0  0  0  0  0  0  0  0  0  0
   -2.4208    0.1208    0.0000 C   0  0  0  0  0  0  0  0  0  0  0  0
    0.4542   -0.4042    0.0000 O   0  0  0  0  0  0  0  0  0  0  0  0
    5.7542   -0.1167    0.0000 C   0  0  0  0  0  0  0  0  0  0  0  0
    5.7500    0.7500    0.0000 C   0  0  0  0  0  0  0  0  0  0  0  0
    4.6000   -1.1875    0.0000 O   0  0  0  0  0  0  0  0  0  0  0  0
    4.6292    1.8625    0.0000 O   0  0  0  0  0  0  0  0  0  0  0  0
    3.1000    1.1125    0.0000 C   0  0  0  0  0  0  0  0  0  0  0  0
    3.1000   -0.4042    0.0000 C   0  0  0  0  0  0  0  0  0  0  0  0
    2.2167    1.1125    0.0000 C   0  0  0  0  0  0  0  0  0  0  0  0
    2.2167   -0.4042    0.0000 C   0  0  0  0  0  0  0  0  0  0  0  0
   -3.2458    0.4500    0.0000 C   0  0  0  0  0  0  0  0  0  0  0  0
   -2.3000   -0.7542    0.0000 C   0  0  0  0  0  0  0  0  0  0  0  0
   -3.8208   -0.9667    0.0000 C   0  0  0  0  0  0  0  0  0  0  0  0
   -2.9958   -1.3000    0.0000 C   0  0  0  0  0  0  0  0  0  0  0  0
   -3.9458   -0.0875    0.0000 C   0  0  0  0  0  0  0  0  0  0  0  0
   -4.5208   -1.5000    0.0000 Cl  0  0  0  0  0  0  0  0  0  0  0  0
  2  4  1  0  0  0  0
  3  2  2  0  0  0  0
  4  6  1  0  0  0  0
  5  3  1  0  0  0  0
  6 12  1  0  0  0  0
  7  1  1  0  0  0  0
  8  1  1  0  0  0  0
  9  2  1  0  0  0  0
 10  9  1  0  0  0  0
 11  1  1  0  0  0  0
 12 22  2  0  0  0  0
 13  5  1  0  0  0  0
 14  6  2  0  0  0  0
 15  7  1  0  0  0  0
 16  8  1  0  0  0  0
 17  7  2  0  0  0  0
 18  8  2  0  0  0  0
 19 11  1  0  0  0  0
 20 11  2  0  0  0  0
 21 19  2  0  0  0  0
 22 20  1  0  0  0  0
 23 13  2  0  0  0  0
 24 13  1  0  0  0  0
 25 26  1  0  0  0  0
 26 24  2  0  0  0  0
 27 23  1  0  0  0  0
 28 25  1  0  0  0  0
 15 16  1  0  0  0  0
 12 21  1  0  0  0  0
 10  5  2  0  0  0  0
 27 25  2  0  0  0  0
M  END
> <IDNUMBER>
F0327-0323

> <Chemical_Name>
N-[4-(4-chlorophenyl)-1,3-thiazol-2-yl]-4-(2,5-dioxopyrrolidin-1-yl)benzamide

> <CAS>
392246-33-2

> <PriceCoeff>
1.00

> <MW>
411.86

> <Description>
solid

> <FSP3>
0.10

> <clogP>
2.85

> <TPSA>
107.61

> <Acceptor>
4

> <Donor>
1

> <RotBonds>
4

> <HAC>
28

> <Collection>
General

$$$$
F3385-2580
  -ISIS-  06222321152D

 25 27  0  0  0  0  0  0  0  0999 V2000
    0.8250   -3.1625    0.0000 C   0  0  0  0  0  0  0  0  0  0  0  0
    0.2042   -2.1042    0.0000 C   0  0  0  0  0  0  0  0  0  0  0  0
    0.2125   -2.8125    0.0000 C   0  0  0  0  0  0  0  0  0  0  0  0
    0.8167   -1.7375    0.0000 O   0  0  0  0  0  0  0  0  0  0  0  0
    2.6542   -4.9292    0.0000 N   0  0  3  0  0  0  0  0  0  0  0  0
    3.2667   -5.2792    0.0000 C   0  0  0  0  0  0  0  0  0  0  0  0
    1.4375   -2.0917    0.0000 C   0  0  0  0  0  0  0  0  0  0  0  0
    1.4417   -2.8042    0.0000 C   0  0  0  0  0  0  0  0  0  0  0  0
   -0.4083   -1.7500    0.0000 C   0  0  0  0  0  0  0  0  0  0  0  0
   -0.4083   -3.1625    0.0000 C   0  0  0  0  0  0  0  0  0  0  0  0
    1.4375   -4.2167    0.0000 N   0  0  3  0  0  0  0  0  0  0  0  0
   -1.0125   -2.8125    0.0000 C   0  0  0  0  0  0  0  0  0  0  0  0
   -1.0125   -2.1042    0.0000 C   0  0  0  0  0  0  0  0  0  0  0  0
    0.8292   -3.8667    0.0000 C   0  0  0  0  0  0  0  0  0  0  0  0
    3.2667   -5.9917    0.0000 O   0  0  0  0  0  0  0  0  0  0  0  0
    2.0417   -5.2792    0.0000 C   0  0  0  0  0  0  0  0  0  0  0  0
    2.6542   -4.2167    0.0000 C   0  0  0  0  0  0  0  0  0  0  0  0
    2.0417   -1.7417    0.0000 O   0  0  0  0  0  0  0  0  0  0  0  0
    1.4292   -4.9292    0.0000 C   0  0  0  0  0  0  0  0  0  0  0  0
    2.0417   -3.8667    0.0000 C   0  0  0  0  0  0  0  0  0  0  0  0
    3.8792   -4.9292    0.0000 O   0  0  0  0  0  0  0  0  0  0  0  0
   -1.6208   -3.1667    0.0000 Cl  0  0  0  0  0  0  0  0  0  0  0  0
   -1.6208   -1.7542    0.0000 O   0  0  0  0  0  0  0  0  0  0  0  0
    4.4917   -5.2792    0.0000 C   0  0  0  0  0  0  0  0  0  0  0  0
    5.1042   -4.9292    0.0000 C   0  0  0  0  0  0  0  0  0  0  0  0
  2  3  1  0  0  0  0
  3  1  1  0  0  0  0
  4  7  1  0  0  0  0
  5 17  1  0  0  0  0
  6  5  1  0  0  0  0
  7  8  1  0  0  0  0
  8  1  2  0  0  0  0
  9  2  2  0  0  0  0
 10  3  2  0  0  0  0
 11 14  1  0  0  0  0
 12 10  1  0  0  0  0
 13 12  2  0  0  0  0
 14  1  1  0  0  0  0
 15  6  2  0  0  0  0
 16 19  1  0  0  0  0
 17 20  1  0  0  0  0
 18  7  2  0  0  0  0
 19 11  1  0  0  0  0
 20 11  1  0  0  0  0
 21  6  1  0  0  0  0
 22 12  1  0  0  0  0
 23 13  1  0  0  0  0
 24 21  1  0  0  0  0
 25 24  1  0  0  0  0
  2  4  1  0  0  0  0
 16  5  1  0  0  0  0
  9 13  1  0  0  0  0
M  END
> <IDNUMBER>
F3385-2580

> <Chemical_Name>
ethyl 4-[(6-chloro-7-hydroxy-2-oxo-2H-chromen-4-yl)methyl]piperazine-1-carboxylate

> <CAS>
877800-39-0

> <PriceCoeff>
1.00

> <MW>
366.80

> <Description>
solid

> <FSP3>
0.41

> <clogP>
3.05

> <TPSA>
79.31

> <Acceptor>
5

> <Donor>
2

> <RotBonds>
5

> <HAC>
25

> <Collection>
General

$$$$
F1374-0999
  -ISIS-  06222321442D

 26 29  0  0  0  0  0  0  0  0999 V2000
    0.4042   -0.1792    0.0000 N   0  0  3  0  0  0  0  0  0  0  0  0
   -3.7958    3.0208    0.0000 C   0  0  0  0  0  0  0  0  0  0  0  0
   -2.4583    3.0208    0.0000 C   0  0  0  0  0  0  0  0  0  0  0  0
   -3.1250    2.5333    0.0000 O   0  0  0  0  0  0  0  0  0  0  0  0
   -3.5375    3.8000    0.0000 N   0  0  0  0  0  0  0  0  0  0  0  0
   -1.6750    2.7583    0.0000 N   0  0  0  0  0  0  0  0  0  0  0  0
   -2.7125    3.8000    0.0000 N   0  0  0  0  0  0  0  0  0  0  0  0
    0.2292    0.6333    0.0000 C   0  0  0  0  0  0  0  0  0  0  0  0
   -1.5083    1.9583    0.0000 C   0  0  0  0  0  0  0  0  0  0  0  0
    1.1417   -0.5375    0.0000 C   0  0  0  0  0  0  0  0  0  0  0  0
   -0.1833   -0.7542    0.0000 C   0  0  0  0  0  0  0  0  0  0  0  0
   -4.5833    2.7583    0.0000 C   0  0  0  0  0  0  0  0  0  0  0  0
   -0.5458    0.8875    0.0000 C   0  0  0  0  0  0  0  0  0  0  0  0
   -0.7208    1.6958    0.0000 C   0  0  0  0  0  0  0  0  0  0  0  0
   -4.8333    1.9750    0.0000 S   0  0  0  0  0  0  0  0  0  0  0  0
   -5.2500    3.2458    0.0000 C   0  0  0  0  0  0  0  0  0  0  0  0
   -2.1208    1.4000    0.0000 O   0  0  0  0  0  0  0  0  0  0  0  0
    1.0292   -1.3542    0.0000 C   0  0  0  0  0  0  0  0  0  0  0  0
    0.2167   -1.4917    0.0000 C   0  0  0  0  0  0  0  0  0  0  0  0
    1.8750   -0.1667    0.0000 O   0  0  0  0  0  0  0  0  0  0  0  0
   -0.9875   -0.6375    0.0000 O   0  0  0  0  0  0  0  0  0  0  0  0
   -5.6583    1.9708    0.0000 C   0  0  0  0  0  0  0  0  0  0  0  0
   -5.9208    2.7583    0.0000 C   0  0  0  0  0  0  0  0  0  0  0  0
    0.8542    1.1833    0.0000 C   0  0  0  0  0  0  0  0  0  0  0  0
   -0.1000    2.2458    0.0000 C   0  0  0  0  0  0  0  0  0  0  0  0
    0.6792    1.9958    0.0000 C   0  0  0  0  0  0  0  0  0  0  0  0
  2  4  1  0  0  0  0
  3  6  1  0  0  0  0
  4  3  1  0  0  0  0
  5  7  1  0  0  0  0
  6  9  1  0  0  0  0
  7  3  2  0  0  0  0
  8  1  1  0  0  0  0
  9 14  1  0  0  0  0
 10  1  1  0  0  0  0
 11  1  1  0  0  0  0
 12  2  1  0  0  0  0
 13  8  1  0  0  0  0
 14 13  2  0  0  0  0
 15 12  1  0  0  0  0
 16 12  2  0  0  0  0
 17  9  2  0  0  0  0
 18 10  1  0  0  0  0
 19 11  1  0  0  0  0
 20 10  2  0  0  0  0
 21 11  2  0  0  0  0
 22 15  1  0  0  0  0
 23 16  1  0  0  0  0
 24  8  2  0  0  0  0
 25 26  2  0  0  0  0
 26 24  1  0  0  0  0
 18 19  1  0  0  0  0
 14 25  1  0  0  0  0
  2  5  2  0  0  0  0
 22 23  2  0  0  0  0
M  END
> <IDNUMBER>
F1374-0999

> <Chemical_Name>
3-(2,5-dioxopyrrolidin-1-yl)-N-[5-(thiophen-2-yl)-1,3,4-oxadiazol-2-yl]benzamide

> <CAS>
865287-90-7

> <PriceCoeff>
1.00

> <MW>
368.37

> <Description>
solid

> <FSP3>
0.12

> <clogP>
0.51

> <TPSA>
133.64

> <Acceptor>
6

> <Donor>
1

> <RotBonds>
4

> <HAC>
26

> <Collection>
General

$$$$
F5450-0502
  -ISIS-  06222304352D

 33 36  0  0  0  0  0  0  0  0999 V2000
   -4.7208    1.6875    0.0000 N   0  0  3  0  0  0  0  0  0  0  0  0
   -3.5083    5.6917    0.0000 C   0  0  0  0  0  0  0  0  0  0  0  0
   -3.6125    4.9417    0.0000 N   0  0  0  0  0  0  0  0  0  0  0  0
   -2.8458    6.0292    0.0000 N   0  0  0  0  0  0  0  0  0  0  0  0
   -2.9708    6.7750    0.0000 C   0  0  0  0  0  0  0  0  0  0  0  0
   -4.3083    4.6542    0.0000 C   0  0  0  0  0  0  0  0  0  0  0  0
   -4.2083    1.1458    0.0000 C   0  0  0  0  0  0  0  0  0  0  0  0
   -5.3958    1.3708    0.0000 C   0  0  0  0  0  0  0  0  0  0  0  0
   -4.0458    6.2167    0.0000 S   0  0  0  0  0  0  0  0  0  0  0  0
   -2.7750    8.0667    0.0000 N   0  0  3  0  0  0  0  0  0  0  0  0
   -3.7125    6.8875    0.0000 C   0  0  0  0  0  0  0  0  0  0  0  0
   -4.6208    2.4333    0.0000 C   0  0  0  0  0  0  0  0  0  0  0  0
   -4.4125    3.9208    0.0000 C   0  0  0  0  0  0  0  0  0  0  0  0
   -3.7958    8.8750    0.0000 C   0  0  0  0  0  0  0  0  0  0  0  0
   -3.5208    8.1792    0.0000 C   0  0  0  0  0  0  0  0  0  0  0  0
   -2.5000    7.3625    0.0000 C   0  0  0  0  0  0  0  0  0  0  0  0
   -4.9083    5.1167    0.0000 O   0  0  0  0  0  0  0  0  0  0  0  0
   -4.5583    0.4958    0.0000 C   0  0  0  0  0  0  0  0  0  0  0  0
   -5.2958    0.6208    0.0000 C   0  0  0  0  0  0  0  0  0  0  0  0
   -3.4583    1.2375    0.0000 O   0  0  0  0  0  0  0  0  0  0  0  0
   -6.0542    1.7333    0.0000 O   0  0  0  0  0  0  0  0  0  0  0  0
   -3.3250    9.4542    0.0000 C   0  0  0  0  0  0  0  0  0  0  0  0
   -5.2208    2.8958    0.0000 C   0  0  0  0  0  0  0  0  0  0  0  0
   -3.9250    2.7208    0.0000 C   0  0  0  0  0  0  0  0  0  0  0  0
   -5.1083    3.6333    0.0000 C   0  0  0  0  0  0  0  0  0  0  0  0
   -3.8208    3.4583    0.0000 C   0  0  0  0  0  0  0  0  0  0  0  0
   -2.3083    8.6500    0.0000 C   0  0  0  0  0  0  0  0  0  0  0  0
   -2.5833    9.3417    0.0000 C   0  0  0  0  0  0  0  0  0  0  0  0
   -4.5333    8.9875    0.0000 C   0  0  0  0  0  0  0  0  0  0  0  0
   -3.6000   10.1542    0.0000 C   0  0  0  0  0  0  0  0  0  0  0  0
   -4.8083    9.6875    0.0000 C   0  0  0  0  0  0  0  0  0  0  0  0
   -4.3458   10.2667    0.0000 C   0  0  0  0  0  0  0  0  0  0  0  0
   -0.9208    5.4750    0.0000 Cl  0  0  0  0  0  0  0  0  0  0  0  0
  3  6  1  0  0  0  0
  4  2  2  0  0  0  0
  5  4  1  0  0  0  0
  6 13  1  0  0  0  0
  7  1  1  0  0  0  0
  8  1  1  0  0  0  0
  9  2  1  0  0  0  0
 10 16  1  0  0  0  0
 11  9  1  0  0  0  0
 12  1  1  0  0  0  0
 13 26  1  0  0  0  0
 14 15  1  0  0  0  0
 15 10  1  0  0  0  0
 16  5  1  0  0  0  0
 17  6  2  0  0  0  0
 18  7  1  0  0  0  0
 19  8  1  0  0  0  0
 20  7  2  0  0  0  0
 21  8  2  0  0  0  0
 22 28  1  0  0  0  0
 23 12  2  0  0  0  0
 24 12  1  0  0  0  0
 25 23  1  0  0  0  0
 26 24  2  0  0  0  0
 27 10  1  0  0  0  0
 28 27  1  0  0  0  0
 29 14  2  0  0  0  0
 30 22  2  0  0  0  0
 31 29  1  0  0  0  0
 32 30  1  0  0  0  0
 19 18  1  0  0  0  0
 25 13  2  0  0  0  0
 11  5  2  0  0  0  0
 14 22  1  0  0  0  0
 31 32  2  0  0  0  0
  2  3  1  0  0  0  0
M  END
> <IDNUMBER>
F5450-0502

> <Chemical_Name>
4-(2,5-dioxopyrrolidin-1-yl)-N-{4-[(1,2,3,4-tetrahydroisoquinolin-2-yl)methyl]-1,3-thiazol-2-yl}benzamide hydrochloride

> <CAS>
1215842-13-9

> <PriceCoeff>
1.00

> <MW>
446.52

> <Description>
solid

> <FSP3>
0.25

> <clogP>
1.91

> <TPSA>
110.85

> <Acceptor>
4

> <Donor>
2

> <RotBonds>
5

> <HAC>
32

> <Collection>
General

$$$$
F0466-0029
  -ISIS-  06222321452D

 30 33  0  0  0  0  0  0  0  0999 V2000
    1.9500    0.5708    0.0000 N   0  0  3  0  0  0  0  0  0  0  0  0
   -0.7208    0.6708    0.0000 C   0  0  0  0  0  0  0  0  0  0  0  0
   -1.2000    0.3500    0.0000 N   0  0  0  0  0  0  0  0  0  0  0  0
   -0.1625    0.5500    0.0000 N   0  0  0  0  0  0  0  0  0  0  0  0
   -1.6833    0.7125    0.0000 C   0  0  0  0  0  0  0  0  0  0  0  0
    1.5667    0.1500    0.0000 C   0  0  0  0  0  0  0  0  0  0  0  0
    0.0042   -0.0000    0.0000 C   0  0  0  0  0  0  0  0  0  0  0  0
    1.7667    1.1125    0.0000 C   0  0  0  0  0  0  0  0  0  0  0  0
    2.5500    0.5708    0.0000 C   0  0  0  0  0  0  0  0  0  0  0  0
   -0.9000    1.2333    0.0000 S   0  0  0  0  0  0  0  0  0  0  0  0
   -1.4833    1.2333    0.0000 C   0  0  0  0  0  0  0  0  0  0  0  0
   -2.2458    0.5333    0.0000 C   0  0  0  0  0  0  0  0  0  0  0  0
    1.0000    0.2708    0.0000 C   0  0  0  0  0  0  0  0  0  0  0  0
    0.6042   -0.1500    0.0000 C   0  0  0  0  0  0  0  0  0  0  0  0
   -2.6625    0.9125    0.0000 C   0  0  0  0  0  0  0  0  0  0  0  0
   -3.2000    0.7333    0.0000 C   0  0  0  0  0  0  0  0  0  0  0  0
   -0.3833   -0.4500    0.0000 O   0  0  0  0  0  0  0  0  0  0  0  0
   -3.3458    0.1958    0.0000 C   0  0  0  0  0  0  0  0  0  0  0  0
    2.7292    1.1333    0.0000 C   0  0  0  0  0  0  0  0  0  0  0  0
    2.2667    1.4500    0.0000 C   0  0  0  0  0  0  0  0  0  0  0  0
    2.9000    0.0958    0.0000 O   0  0  0  0  0  0  0  0  0  0  0  0
    1.2042    1.2958    0.0000 O   0  0  0  0  0  0  0  0  0  0  0  0
   -2.3625   -0.0500    0.0000 C   0  0  0  0  0  0  0  0  0  0  0  0
   -2.9208   -0.2000    0.0000 C   0  0  0  0  0  0  0  0  0  0  0  0
    1.7500   -0.4000    0.0000 C   0  0  0  0  0  0  0  0  0  0  0  0
   -3.9208    0.0500    0.0000 O   0  0  0  0  0  0  0  0  0  0  0  0
    0.8000   -0.7167    0.0000 C   0  0  0  0  0  0  0  0  0  0  0  0
    1.3500   -0.8500    0.0000 C   0  0  0  0  0  0  0  0  0  0  0  0
   -3.6458    1.1333    0.0000 C   0  0  0  0  0  0  0  0  0  0  0  0
   -4.1000   -0.5000    0.0000 C   0  0  0  0  0  0  0  0  0  0  0  0
  2  4  1  0  0  0  0
  3  2  2  0  0  0  0
  4  7  1  0  0  0  0
  5  3  1  0  0  0  0
  6  1  1  0  0  0  0
  7 14  1  0  0  0  0
  8  1  1  0  0  0  0
  9  1  1  0  0  0  0
 10  2  1  0  0  0  0
 11 10  1  0  0  0  0
 12  5  1  0  0  0  0
 13  6  2  0  0  0  0
 14 13  1  0  0  0  0
 15 12  2  0  0  0  0
 16 15  1  0  0  0  0
 17  7  2  0  0  0  0
 18 24  1  0  0  0  0
 19  9  1  0  0  0  0
 20  8  1  0  0  0  0
 21  9  2  0  0  0  0
 22  8  2  0  0  0  0
 23 12  1  0  0  0  0
 24 23  2  0  0  0  0
 25  6  1  0  0  0  0
 26 18  1  0  0  0  0
 27 28  1  0  0  0  0
 28 25  2  0  0  0  0
 29 16  1  0  0  0  0
 30 26  1  0  0  0  0
 20 19  1  0  0  0  0
 27 14  2  0  0  0  0
 11  5  2  0  0  0  0
 16 18  2  0  0  0  0
M  END
> <IDNUMBER>
F0466-0029

> <Chemical_Name>
3-(2,5-dioxopyrrolidin-1-yl)-N-[4-(4-methoxy-3-methylphenyl)-1,3-thiazol-2-yl]benzamide

> <CAS>
476321-73-0

> <PriceCoeff>
1.00

> <MW>
421.47

> <Description>
solid

> <FSP3>
0.18

> <clogP>
2.65

> <TPSA>
116.84

> <Acceptor>
5

> <Donor>
1

> <RotBonds>
5

> <HAC>
30

> <Collection>
General

$$$$
F1813-0483
  -ISIS-  06222321142D

 29 32  0  0  0  0  0  0  0  0999 V2000
   -5.9958    3.3958    0.0000 C   0  0  0  0  0  0  0  0  0  0  0  0
   -1.7333    3.3958    0.0000 N   0  0  3  0  0  0  0  0  0  0  0  0
   -6.0750    2.5625    0.0000 N   0  0  0  0  0  0  0  0  0  0  0  0
   -6.8792    2.3958    0.0000 C   0  0  0  0  0  0  0  0  0  0  0  0
   -7.2917    3.1083    0.0000 C   0  0  0  0  0  0  0  0  0  0  0  0
   -5.2875    3.8000    0.0000 N   0  0  0  0  0  0  0  0  0  0  0  0
   -6.7417    3.7208    0.0000 S   0  0  0  0  0  0  0  0  0  0  0  0
   -2.4458    3.8000    0.0000 C   0  0  0  0  0  0  0  0  0  0  0  0
   -4.5833    3.3958    0.0000 C   0  0  0  0  0  0  0  0  0  0  0  0
   -1.6875    2.5708    0.0000 C   0  0  0  0  0  0  0  0  0  0  0  0
   -0.9708    3.6875    0.0000 C   0  0  0  0  0  0  0  0  0  0  0  0
   -3.1583    3.3958    0.0000 C   0  0  0  0  0  0  0  0  0  0  0  0
   -3.8708    3.8000    0.0000 C   0  0  0  0  0  0  0  0  0  0  0  0
   -7.2792    1.6958    0.0000 C   0  0  0  0  0  0  0  0  0  0  0  0
   -8.1042    3.1125    0.0000 C   0  0  0  0  0  0  0  0  0  0  0  0
   -4.5833    2.5833    0.0000 O   0  0  0  0  0  0  0  0  0  0  0  0
   -0.4375    3.0583    0.0000 C   0  0  0  0  0  0  0  0  0  0  0  0
   -0.8708    2.3708    0.0000 C   0  0  0  0  0  0  0  0  0  0  0  0
   -0.7583    4.4667    0.0000 O   0  0  0  0  0  0  0  0  0  0  0  0
   -2.3208    2.0458    0.0000 O   0  0  0  0  0  0  0  0  0  0  0  0
   -8.5042    2.3958    0.0000 C   0  0  0  0  0  0  0  0  0  0  0  0
   -8.1042    1.6958    0.0000 C   0  0  0  0  0  0  0  0  0  0  0  0
   -2.4375    4.6167    0.0000 C   0  0  0  0  0  0  0  0  0  0  0  0
   -6.8750    0.9875    0.0000 O   0  0  0  0  0  0  0  0  0  0  0  0
   -8.5167    3.8208    0.0000 O   0  0  0  0  0  0  0  0  0  0  0  0
   -3.8708    4.6167    0.0000 C   0  0  0  0  0  0  0  0  0  0  0  0
   -3.1583    5.0292    0.0000 C   0  0  0  0  0  0  0  0  0  0  0  0
   -7.1917    0.1375    0.0000 C   0  0  0  0  0  0  0  0  0  0  0  0
   -9.3375    3.8125    0.0000 C   0  0  0  0  0  0  0  0  0  0  0  0
  2  8  1  0  0  0  0
  3  1  2  0  0  0  0
  4  3  1  0  0  0  0
  5  7  1  0  0  0  0
  6  1  1  0  0  0  0
  7  1  1  0  0  0  0
  8 12  1  0  0  0  0
  9  6  1  0  0  0  0
 10  2  1  0  0  0  0
 11  2  1  0  0  0  0
 12 13  2  0  0  0  0
 13  9  1  0  0  0  0
 14  4  2  0  0  0  0
 15  5  2  0  0  0  0
 16  9  2  0  0  0  0
 17 11  1  0  0  0  0
 18 10  1  0  0  0  0
 19 11  2  0  0  0  0
 20 10  2  0  0  0  0
 21 15  1  0  0  0  0
 22 14  1  0  0  0  0
 23 27  1  0  0  0  0
 24 14  1  0  0  0  0
 25 15  1  0  0  0  0
 26 13  1  0  0  0  0
 27 26  2  0  0  0  0
 28 24  1  0  0  0  0
 29 25  1  0  0  0  0
  5  4  1  0  0  0  0
 21 22  2  0  0  0  0
 23  8  2  0  0  0  0
 17 18  1  0  0  0  0
M  END
> <IDNUMBER>
F1813-0483

> <Chemical_Name>
N-(4,7-dimethoxy-1,3-benzothiazol-2-yl)-3-(2,5-dioxopyrrolidin-1-yl)benzamide

> <CAS>
912766-99-5

> <PriceCoeff>
1.00

> <MW>
411.43

> <Description>
solid

> <FSP3>
0.20

> <clogP>
2.19

> <TPSA>
126.07

> <Acceptor>
6

> <Donor>
1

> <RotBonds>
5

> <HAC>
29

> <Collection>
General

$$$$
F0608-0592
  -ISIS-  06222321142D

 31 35  0  0  0  0  0  0  0  0999 V2000
    0.4042   -0.1792    0.0000 N   0  0  3  0  0  0  0  0  0  0  0  0
   -2.4583    3.0208    0.0000 C   0  0  0  0  0  0  0  0  0  0  0  0
   -3.1250    2.5333    0.0000 O   0  0  0  0  0  0  0  0  0  0  0  0
   -3.7958    3.0208    0.0000 C   0  0  0  0  0  0  0  0  0  0  0  0
   -3.5375    3.8000    0.0000 N   0  0  0  0  0  0  0  0  0  0  0  0
   -1.6750    2.7583    0.0000 N   0  0  0  0  0  0  0  0  0  0  0  0
   -2.7125    3.8000    0.0000 N   0  0  0  0  0  0  0  0  0  0  0  0
    0.2292    0.6333    0.0000 C   0  0  0  0  0  0  0  0  0  0  0  0
   -1.5083    1.9583    0.0000 C   0  0  0  0  0  0  0  0  0  0  0  0
   -0.1833   -0.7625    0.0000 C   0  0  0  0  0  0  0  0  0  0  0  0
    1.1375   -0.5375    0.0000 C   0  0  0  0  0  0  0  0  0  0  0  0
   -4.5833    2.7583    0.0000 C   0  0  0  0  0  0  0  0  0  0  0  0
   -0.5583    0.8958    0.0000 C   0  0  0  0  0  0  0  0  0  0  0  0
   -0.7250    1.6958    0.0000 C   0  0  0  0  0  0  0  0  0  0  0  0
   -5.1958    3.3083    0.0000 C   0  0  0  0  0  0  0  0  0  0  0  0
   -5.9708    3.0500    0.0000 C   0  0  0  0  0  0  0  0  0  0  0  0
   -2.1208    1.3958    0.0000 O   0  0  0  0  0  0  0  0  0  0  0  0
    0.2167   -1.4917    0.0000 C   0  0  0  0  0  0  0  0  0  0  0  0
    1.0250   -1.3542    0.0000 C   0  0  0  0  0  0  0  0  0  0  0  0
   -6.1292    2.2458    0.0000 C   0  0  0  0  0  0  0  0  0  0  0  0
   -0.9958   -0.6375    0.0000 O   0  0  0  0  0  0  0  0  0  0  0  0
    1.8667   -0.1667    0.0000 O   0  0  0  0  0  0  0  0  0  0  0  0
   -4.7583    1.9458    0.0000 C   0  0  0  0  0  0  0  0  0  0  0  0
   -5.5375    1.6958    0.0000 C   0  0  0  0  0  0  0  0  0  0  0  0
    0.8500    1.1833    0.0000 C   0  0  0  0  0  0  0  0  0  0  0  0
   -0.1125    2.2500    0.0000 C   0  0  0  0  0  0  0  0  0  0  0  0
    0.6792    1.9958    0.0000 C   0  0  0  0  0  0  0  0  0  0  0  0
   -6.5792    3.6083    0.0000 C   0  0  0  0  0  0  0  0  0  0  0  0
   -6.9292    1.9875    0.0000 C   0  0  0  0  0  0  0  0  0  0  0  0
   -7.3542    3.3583    0.0000 C   0  0  0  0  0  0  0  0  0  0  0  0
   -7.5292    2.5500    0.0000 C   0  0  0  0  0  0  0  0  0  0  0  0
  2  6  1  0  0  0  0
  3  2  1  0  0  0  0
  4  3  1  0  0  0  0
  5  7  1  0  0  0  0
  6  9  1  0  0  0  0
  7  2  2  0  0  0  0
  8  1  1  0  0  0  0
  9 14  1  0  0  0  0
 10  1  1  0  0  0  0
 11  1  1  0  0  0  0
 12  4  1  0  0  0  0
 13  8  1  0  0  0  0
 14 13  2  0  0  0  0
 15 12  2  0  0  0  0
 16 15  1  0  0  0  0
 17  9  2  0  0  0  0
 18 10  1  0  0  0  0
 19 11  1  0  0  0  0
 20 24  1  0  0  0  0
 21 10  2  0  0  0  0
 22 11  2  0  0  0  0
 23 12  1  0  0  0  0
 24 23  2  0  0  0  0
 25  8  2  0  0  0  0
 26 27  2  0  0  0  0
 27 25  1  0  0  0  0
 28 16  1  0  0  0  0
 29 20  1  0  0  0  0
 30 28  1  0  0  0  0
 31 29  1  0  0  0  0
 18 19  1  0  0  0  0
 26 14  1  0  0  0  0
  5  4  2  0  0  0  0
 16 20  2  0  0  0  0
 30 31  1  0  0  0  0
M  END
> <IDNUMBER>
F0608-0592

> <Chemical_Name>
3-(2,5-dioxopyrrolidin-1-yl)-N-[5-(5,6,7,8-tetrahydronaphthalen-2-yl)-1,3,4-oxadiazol-2-yl]benzamide

> <CAS>
887886-85-3

> <PriceCoeff>
1.00

> <MW>
416.43

> <Description>
solid

> <FSP3>
0.26

> <clogP>
2.15

> <TPSA>
105.40

> <Acceptor>
6

> <Donor>
1

> <RotBonds>
4

> <HAC>
31

> <Collection>
General

$$$$
F6274-0182
  -ISIS-  06222321442D

 31 35  0  0  0  0  0  0  0  0999 V2000
    4.4792   -7.9250    0.0000 C   0  0  0  0  0  0  0  0  0  0  0  0
    5.2292   -8.2667    0.0000 N   0  0  0  0  0  0  0  0  0  0  0  0
   -1.5458   -8.9167    0.0000 N   0  0  3  0  0  0  0  0  0  0  0  0
    3.7667   -8.3417    0.0000 N   0  0  3  0  0  0  0  0  0  0  0  0
    4.5667   -7.1042    0.0000 S   0  0  0  0  0  0  0  0  0  0  0  0
    5.7917   -7.6542    0.0000 C   0  0  0  0  0  0  0  0  0  0  0  0
   -0.8250   -9.3292    0.0000 C   0  0  0  0  0  0  0  0  0  0  0  0
   -1.5875   -8.0917    0.0000 C   0  0  0  0  0  0  0  0  0  0  0  0
   -2.3083   -9.2250    0.0000 C   0  0  0  0  0  0  0  0  0  0  0  0
    5.3792   -6.9375    0.0000 C   0  0  0  0  0  0  0  0  0  0  0  0
    1.3250   -8.9167    0.0000 C   0  0  0  0  0  0  0  0  0  0  0  0
    2.7542   -8.9167    0.0000 C   0  0  3  0  0  0  0  0  0  0  0  0
    2.0417   -9.3292    0.0000 O   0  0  0  0  0  0  0  0  0  0  0  0
   -0.1083   -8.9167    0.0000 C   0  0  0  0  0  0  0  0  0  0  0  0
    0.6042   -9.3292    0.0000 C   0  0  0  0  0  0  0  0  0  0  0  0
    2.9750   -8.1292    0.0000 C   0  0  0  0  0  0  0  0  0  0  0  0
    3.5542   -9.1292    0.0000 C   0  0  0  0  0  0  0  0  0  0  0  0
    6.6167   -7.6625    0.0000 C   0  0  0  0  0  0  0  0  0  0  0  0
   -2.4083   -7.8917    0.0000 C   0  0  0  0  0  0  0  0  0  0  0  0
   -2.8458   -8.5917    0.0000 C   0  0  0  0  0  0  0  0  0  0  0  0
    1.3167   -8.0875    0.0000 O   0  0  0  0  0  0  0  0  0  0  0  0
   -2.5250  -10.0167    0.0000 O   0  0  0  0  0  0  0  0  0  0  0  0
   -0.9583   -7.5625    0.0000 O   0  0  0  0  0  0  0  0  0  0  0  0
   -0.8250  -10.1542    0.0000 C   0  0  0  0  0  0  0  0  0  0  0  0
    7.0292   -8.3750    0.0000 O   0  0  0  0  0  0  0  0  0  0  0  0
    5.8042   -6.2250    0.0000 C   0  0  0  0  0  0  0  0  0  0  0  0
    0.6042  -10.1542    0.0000 C   0  0  0  0  0  0  0  0  0  0  0  0
   -0.1125  -10.5750    0.0000 C   0  0  0  0  0  0  0  0  0  0  0  0
    6.6292   -6.2292    0.0000 C   0  0  0  0  0  0  0  0  0  0  0  0
    7.0292   -6.9542    0.0000 C   0  0  0  0  0  0  0  0  0  0  0  0
    7.8542   -8.3792    0.0000 C   0  0  0  0  0  0  0  0  0  0  0  0
  2  1  2  0  0  0  0
  3  7  1  0  0  0  0
  4  1  1  0  0  0  0
  5  1  1  0  0  0  0
  6  2  1  0  0  0  0
  7 14  1  0  0  0  0
  8  3  1  0  0  0  0
  9  3  1  0  0  0  0
 10  5  1  0  0  0  0
 11 13  1  0  0  0  0
 12 17  1  0  0  0  0
 13 12  1  0  0  0  0
 14 15  2  0  0  0  0
 15 11  1  0  0  0  0
 16  4  1  0  0  0  0
 17  4  1  0  0  0  0
 18  6  2  0  0  0  0
 19  8  1  0  0  0  0
 20  9  1  0  0  0  0
 21 11  2  0  0  0  0
 22  9  2  0  0  0  0
 23  8  2  0  0  0  0
 24 28  1  0  0  0  0
 25 18  1  0  0  0  0
 26 10  2  0  0  0  0
 27 15  1  0  0  0  0
 28 27  2  0  0  0  0
 29 26  1  0  0  0  0
 30 18  1  0  0  0  0
 31 25  1  0  0  0  0
 10  6  1  0  0  0  0
 12 16  1  0  0  0  0
 29 30  2  0  0  0  0
  7 24  2  0  0  0  0
 20 19  1  0  0  0  0
M  END
> <IDNUMBER>
F6274-0182

> <Chemical_Name>
1-(4-methoxy-1,3-benzothiazol-2-yl)azetidin-3-yl 3-(2,5-dioxopyrrolidin-1-yl)benzoate

> <CAS>
1421531-09-0

> <PriceCoeff>
1.00

> <MW>
437.47

> <Description>
solid

> <FSP3>
0.27

> <clogP>
2.82

> <TPSA>
117.28

> <Acceptor>
6

> <Donor>
1

> <RotBonds>
6

> <HAC>
31

> <Collection>
General

$$$$
F0799-0006
  -ISIS-  06222321452D

 17 18  0  0  0  0  0  0  0  0999 V2000
    2.2167   -0.8167    0.0000 C   0  0  0  0  0  0  0  0  0  0  0  0
    2.2167   -0.0417    0.0000 C   0  0  0  0  0  0  0  0  0  0  0  0
    2.8792   -1.2167    0.0000 N   0  0  0  0  0  0  0  0  0  0  0  0
    1.5292   -1.2042    0.0000 N   0  0  3  0  0  0  0  0  0  0  0  0
    0.8667   -0.0417    0.0000 N   0  0  3  0  0  0  0  0  0  0  0  0
    0.8667   -0.8292    0.0000 C   0  0  0  0  0  0  0  0  0  0  0  0
    1.5292    0.3583    0.0000 C   0  0  0  0  0  0  0  0  0  0  0  0
    3.5542   -0.8292    0.0000 C   0  0  0  0  0  0  0  0  0  0  0  0
    3.5667   -0.0417    0.0000 N   0  0  3  0  0  0  0  0  0  0  0  0
    0.1917   -1.2167    0.0000 O   0  0  0  0  0  0  0  0  0  0  0  0
    1.5292    1.1333    0.0000 O   0  0  0  0  0  0  0  0  0  0  0  0
    4.2167   -1.2167    0.0000 S   0  0  0  0  0  0  0  0  0  0  0  0
    1.5292   -1.9917    0.0000 C   0  0  0  0  0  0  0  0  0  0  0  0
    0.1125    0.1583    0.0000 C   0  0  0  0  0  0  0  0  0  0  0  0
    4.3875   -0.0417    0.0000 C   0  0  0  0  0  0  0  0  0  0  0  0
    4.7917    0.6708    0.0000 C   0  0  0  0  0  0  0  0  0  0  0  0
    5.6167    0.6708    0.0000 C   0  0  0  0  0  0  0  0  0  0  0  0
  2  1  2  0  0  0  0
  3  1  1  0  0  0  0
  4  1  1  0  0  0  0
  5  6  1  0  0  0  0
  6  4  1  0  0  0  0
  7  2  1  0  0  0  0
  8  3  2  0  0  0  0
  9  2  1  0  0  0  0
 10  6  2  0  0  0  0
 11  7  2  0  0  0  0
 12  8  1  0  0  0  0
 13  4  1  0  0  0  0
 14  5  1  0  0  0  0
 15  9  1  0  0  0  0
 16 15  1  0  0  0  0
 17 16  2  0  0  0  0
  8  9  1  0  0  0  0
  7  5  1  0  0  0  0
M  END
> <IDNUMBER>
F0799-0006

> <Chemical_Name>
1,3-dimethyl-7-(prop-2-en-1-yl)-8-sulfanyl-2,3,6,7-tetrahydro-1H-purine-2,6-dione

> <CAS>
378198-24-4

> <PriceCoeff>
1.00

> <MW>
252.29

> <Description>
solid

> <FSP3>
0.30

> <clogP>
1.54

> <TPSA>
97.24

> <Acceptor>
3

> <Donor>
2

> <RotBonds>
2

> <HAC>
17

> <Collection>
General

> <Reference_compound>
CHEMBL113

> <Similarity>
0.8000

$$$$
F0778-0277
  -ISIS-  06222321142D

 31 35  0  0  0  0  0  0  0  0999 V2000
   -3.2375    2.4958    0.0000 C   0  0  0  0  0  0  0  0  0  0  0  0
   -3.9083    2.9833    0.0000 N   0  0  3  0  0  0  0  0  0  0  0  0
   -4.5833    2.4958    0.0000 N   0  0  0  0  0  0  0  0  0  0  0  0
   -3.4958    1.7000    0.0000 C   0  0  0  0  0  0  0  0  0  0  0  0
   -2.4583    2.7458    0.0000 N   0  0  0  0  0  0  0  0  0  0  0  0
   -4.3333    1.7000    0.0000 C   0  0  0  0  0  0  0  0  0  0  0  0
    1.2875    3.2333    0.0000 N   0  0  3  0  0  0  0  0  0  0  0  0
   -1.8458    2.1958    0.0000 C   0  0  0  0  0  0  0  0  0  0  0  0
   -3.9083    3.8000    0.0000 C   0  0  0  0  0  0  0  0  0  0  0  0
    1.9542    2.7958    0.0000 C   0  0  0  0  0  0  0  0  0  0  0  0
    1.5625    4.0000    0.0000 C   0  0  0  0  0  0  0  0  0  0  0  0
    0.5000    2.9833    0.0000 C   0  0  0  0  0  0  0  0  0  0  0  0
   -3.9083    0.4250    0.0000 S   0  0  0  0  0  0  0  0  0  0  0  0
   -1.0583    2.4458    0.0000 C   0  0  0  0  0  0  0  0  0  0  0  0
   -2.0125    1.3875    0.0000 O   0  0  0  0  0  0  0  0  0  0  0  0
    2.3750    4.0042    0.0000 C   0  0  0  0  0  0  0  0  0  0  0  0
    2.6042    3.2375    0.0000 C   0  0  0  0  0  0  0  0  0  0  0  0
    1.0667    4.7125    0.0000 O   0  0  0  0  0  0  0  0  0  0  0  0
    1.9875    1.8958    0.0000 O   0  0  0  0  0  0  0  0  0  0  0  0
   -3.2375    0.9125    0.0000 C   0  0  0  0  0  0  0  0  0  0  0  0
   -3.1958    4.2000    0.0000 C   0  0  0  0  0  0  0  0  0  0  0  0
    0.3292    2.1583    0.0000 C   0  0  0  0  0  0  0  0  0  0  0  0
   -0.1083    3.5250    0.0000 C   0  0  0  0  0  0  0  0  0  0  0  0
   -0.4458    1.8958    0.0000 C   0  0  0  0  0  0  0  0  0  0  0  0
   -0.8833    3.2708    0.0000 C   0  0  0  0  0  0  0  0  0  0  0  0
   -4.5833    0.9125    0.0000 C   0  0  0  0  0  0  0  0  0  0  0  0
   -4.6333    4.2042    0.0000 C   0  0  0  0  0  0  0  0  0  0  0  0
   -2.4958    3.7708    0.0000 C   0  0  0  0  0  0  0  0  0  0  0  0
   -3.1958    5.0292    0.0000 C   0  0  0  0  0  0  0  0  0  0  0  0
   -4.6208    5.0250    0.0000 C   0  0  0  0  0  0  0  0  0  0  0  0
   -3.9125    5.4375    0.0000 C   0  0  0  0  0  0  0  0  0  0  0  0
  2  1  1  0  0  0  0
  3  2  1  0  0  0  0
  4  1  2  0  0  0  0
  5  1  1  0  0  0  0
  6  4  1  0  0  0  0
  7 12  1  0  0  0  0
  8  5  1  0  0  0  0
  9  2  1  0  0  0  0
 10  7  1  0  0  0  0
 11  7  1  0  0  0  0
 12 23  2  0  0  0  0
 13 20  1  0  0  0  0
 14  8  1  0  0  0  0
 15  8  2  0  0  0  0
 16 11  1  0  0  0  0
 17 10  1  0  0  0  0
 18 11  2  0  0  0  0
 19 10  2  0  0  0  0
 20  4  1  0  0  0  0
 21  9  2  0  0  0  0
 22 24  2  0  0  0  0
 23 25  1  0  0  0  0
 24 14  1  0  0  0  0
 25 14  2  0  0  0  0
 26  6  1  0  0  0  0
 27  9  1  0  0  0  0
 28 21  1  0  0  0  0
 29 21  1  0  0  0  0
 30 27  2  0  0  0  0
 31 30  1  0  0  0  0
  3  6  2  0  0  0  0
 26 13  1  0  0  0  0
 22 12  1  0  0  0  0
 31 29  2  0  0  0  0
 17 16  1  0  0  0  0
M  END
> <IDNUMBER>
F0778-0277

> <Chemical_Name>
4-(2,5-dioxopyrrolidin-1-yl)-N-[2-(2-methylphenyl)-2H,4H,6H-thieno[3,4-c]pyrazol-3-yl]benzamide

> <CAS>
361172-36-3

> <PriceCoeff>
1.00

> <MW>
432.49

> <Description>
solid

> <FSP3>
0.22

> <clogP>
1.72

> <TPSA>
109.60

> <Acceptor>
4

> <Donor>
1

> <RotBonds>
4

> <HAC>
31

> <Collection>
General

$$$$
F3023-0295
  -ISIS-  06222321152D

 24 26  0  0  0  0  0  0  0  0999 V2000
    7.7750   -5.7750    0.0000 N   0  0  3  0  0  0  0  0  0  0  0  0
    8.1917   -5.1917    0.0000 C   0  0  0  0  0  0  0  0  0  0  0  0
    8.2000   -6.3542    0.0000 C   0  0  0  0  0  0  0  0  0  0  0  0
    8.8792   -6.1292    0.0000 C   0  0  3  0  0  0  0  0  0  0  0  0
    8.8792   -5.4125    0.0000 C   0  0  0  0  0  0  0  0  0  0  0  0
   10.1167   -6.2500    0.0000 C   0  0  0  0  0  0  0  0  0  0  0  0
   10.6917   -6.6667    0.0000 C   0  0  0  0  0  0  0  0  0  0  0  0
    9.4625   -6.5417    0.0000 S   0  0  0  0  0  0  0  0  0  0  0  0
    7.0542   -5.7792    0.0000 C   0  0  0  0  0  0  0  0  0  0  0  0
   10.6250   -7.3875    0.0000 C   0  0  0  0  0  0  0  0  0  0  0  0
   10.1792   -5.5417    0.0000 N   0  0  0  0  0  0  0  0  0  0  0  0
    7.9667   -4.5042    0.0000 O   0  0  0  0  0  0  0  0  0  0  0  0
    7.9792   -7.0375    0.0000 O   0  0  0  0  0  0  0  0  0  0  0  0
   11.2042   -7.8042    0.0000 O   0  0  0  0  0  0  0  0  0  0  0  0
    6.7000   -5.1625    0.0000 C   0  0  0  0  0  0  0  0  0  0  0  0
    9.9667   -7.6792    0.0000 O   0  0  0  0  0  0  0  0  0  0  0  0
   11.3500   -6.3750    0.0000 C   0  0  0  0  0  0  0  0  0  0  0  0
    6.7042   -6.4000    0.0000 C   0  0  0  0  0  0  0  0  0  0  0  0
   10.8292   -5.2417    0.0000 C   0  0  0  0  0  0  0  0  0  0  0  0
    7.0542   -4.5375    0.0000 C   0  0  0  0  0  0  0  0  0  0  0  0
    5.9792   -5.1667    0.0000 C   0  0  0  0  0  0  0  0  0  0  0  0
   11.4167   -5.6625    0.0000 C   0  0  0  0  0  0  0  0  0  0  0  0
    5.9917   -6.4042    0.0000 C   0  0  0  0  0  0  0  0  0  0  0  0
    5.6292   -5.7875    0.0000 C   0  0  0  0  0  0  0  0  0  0  0  0
  2  1  1  0  0  0  0
  3  1  1  0  0  0  0
  4  3  1  0  0  0  0
  5  2  1  0  0  0  0
  6  8  1  0  0  0  0
  7  6  2  0  0  0  0
  8  4  1  0  0  0  0
  9  1  1  0  0  0  0
 10  7  1  0  0  0  0
 11  6  1  0  0  0  0
 12  2  2  0  0  0  0
 13  3  2  0  0  0  0
 14 10  2  0  0  0  0
 15  9  2  0  0  0  0
 16 10  1  0  0  0  0
 17  7  1  0  0  0  0
 18  9  1  0  0  0  0
 19 11  2  0  0  0  0
 20 15  1  0  0  0  0
 21 15  1  0  0  0  0
 22 19  1  0  0  0  0
 23 18  2  0  0  0  0
 24 23  1  0  0  0  0
  5  4  1  0  0  0  0
 24 21  2  0  0  0  0
 22 17  2  0  0  0  0
M  END
> <IDNUMBER>
F3023-0295

> <Chemical_Name>
2-{[1-(2-methylphenyl)-2,5-dioxopyrrolidin-3-yl]sulfanyl}pyridine-3-carboxylic acid

> <CAS>
830345-10-3

> <PriceCoeff>
1.00

> <MW>
342.37

> <Description>
solid

> <FSP3>
0.18

> <clogP>
1.61

> <TPSA>
112.87

> <Acceptor>
5

> <Donor>
1

> <RotBonds>
4

> <HAC>
24

> <Collection>
General

$$$$
F6237-3744
  -ISIS-  06222321442D

 27 29  0  0  0  0  0  0  0  0999 V2000
   -2.3583    4.4167    0.0000 C   0  0  0  0  0  0  0  0  0  0  0  0
   -2.0833    5.1708    0.0000 N   0  0  0  0  0  0  0  0  0  0  0  0
   -1.2458    5.1417    0.0000 N   0  0  3  0  0  0  0  0  0  0  0  0
   -1.0250    4.3458    0.0000 N   0  0  0  0  0  0  0  0  0  0  0  0
   -1.7208    3.9000    0.0000 N   0  0  0  0  0  0  0  0  0  0  0  0
   -3.1583    4.2042    0.0000 C   0  0  0  0  0  0  0  0  0  0  0  0
   -3.7375    4.7833    0.0000 N   0  0  0  0  0  0  0  0  0  0  0  0
    1.8542    7.2917    0.0000 C   0  0  3  0  0  0  0  0  0  0  0  0
   -4.3292    5.3667    0.0000 C   0  0  0  0  0  0  0  0  0  0  0  0
   -0.6708    5.7292    0.0000 C   0  0  0  0  0  0  0  0  0  0  0  0
   -4.1125    6.1583    0.0000 C   0  0  0  0  0  0  0  0  0  0  0  0
   -5.1208    5.1500    0.0000 C   0  0  0  0  0  0  0  0  0  0  0  0
    1.0625    7.5000    0.0000 O   0  0  0  0  0  0  0  0  0  0  0  0
   -3.3583    3.4167    0.0000 O   0  0  0  0  0  0  0  0  0  0  0  0
    0.1292    5.5292    0.0000 C   0  0  0  0  0  0  0  0  0  0  0  0
   -0.8958    6.5250    0.0000 C   0  0  0  0  0  0  0  0  0  0  0  0
   -5.7083    5.7292    0.0000 C   0  0  0  0  0  0  0  0  0  0  0  0
    2.0542    8.0958    0.0000 F   0  0  0  0  0  0  0  0  0  0  0  0
    2.6542    7.0917    0.0000 F   0  0  0  0  0  0  0  0  0  0  0  0
    1.6417    6.4917    0.0000 F   0  0  0  0  0  0  0  0  0  0  0  0
   -4.7042    6.7417    0.0000 C   0  0  0  0  0  0  0  0  0  0  0  0
    0.4875    6.9083    0.0000 C   0  0  0  0  0  0  0  0  0  0  0  0
   -5.4958    6.5292    0.0000 C   0  0  0  0  0  0  0  0  0  0  0  0
    0.7042    6.1167    0.0000 C   0  0  0  0  0  0  0  0  0  0  0  0
   -0.3125    7.1167    0.0000 C   0  0  0  0  0  0  0  0  0  0  0  0
   -4.4875    7.5333    0.0000 Cl  0  0  0  0  0  0  0  0  0  0  0  0
   -5.3333    4.3542    0.0000 O   0  0  0  0  0  0  0  0  0  0  0  0
  2  1  2  0  0  0  0
  3  2  1  0  0  0  0
  4  5  2  0  0  0  0
  5  1  1  0  0  0  0
  6  1  1  0  0  0  0
  7  6  1  0  0  0  0
  8 13  1  0  0  0  0
  9  7  1  0  0  0  0
 10  3  1  0  0  0  0
 11  9  2  0  0  0  0
 12  9  1  0  0  0  0
 13 22  1  0  0  0  0
 14  6  2  0  0  0  0
 15 10  1  0  0  0  0
 16 10  2  0  0  0  0
 17 12  2  0  0  0  0
 18  8  1  0  0  0  0
 19  8  1  0  0  0  0
 20  8  1  0  0  0  0
 21 11  1  0  0  0  0
 22 25  2  0  0  0  0
 23 17  1  0  0  0  0
 24 15  2  0  0  0  0
 25 16  1  0  0  0  0
 26 21  1  0  0  0  0
 27 12  1  0  0  0  0
  3  4  1  0  0  0  0
 22 24  1  0  0  0  0
 21 23  2  0  0  0  0
M  END
> <IDNUMBER>
F6237-3744

> <Chemical_Name>
N-(5-chloro-2-hydroxyphenyl)-2-[4-(trifluoromethoxy)phenyl]-2H-1,2,3,4-tetrazole-5-carboxamide

> <CAS>
1396799-19-1

> <PriceCoeff>
1.00

> <MW>
399.71

> <Description>
solid

> <FSP3>
0.07

> <clogP>
3.71

> <TPSA>
102.16

> <Acceptor>
6

> <Donor>
2

> <RotBonds>
4

> <HAC>
27

> <Collection>
General

$$$$
F2738-0702
  -ISIS-  06222321462D

 29 32  0  0  0  0  0  0  0  0999 V2000
   -3.1583    3.3958    0.0000 C   0  0  0  0  0  0  0  0  0  0  0  0
   -6.0042    3.3958    0.0000 N   0  0  3  0  0  0  0  0  0  0  0  0
   -3.8708    3.8000    0.0000 N   0  0  3  0  0  0  0  0  0  0  0  0
   -2.4083    3.7333    0.0000 N   0  0  0  0  0  0  0  0  0  0  0  0
   -3.0750    2.5833    0.0000 S   0  0  0  0  0  0  0  0  0  0  0  0
   -4.5833    3.3958    0.0000 C   0  0  0  0  0  0  0  0  0  0  0  0
   -5.3083    3.8083    0.0000 C   0  0  0  0  0  0  0  0  0  0  0  0
   -1.8583    3.1250    0.0000 C   0  0  0  0  0  0  0  0  0  0  0  0
   -6.7542    3.7333    0.0000 C   0  0  0  0  0  0  0  0  0  0  0  0
   -6.0792    2.5708    0.0000 C   0  0  0  0  0  0  0  0  0  0  0  0
   -2.2625    2.4083    0.0000 C   0  0  0  0  0  0  0  0  0  0  0  0
   -1.0333    3.1208    0.0000 C   0  0  0  0  0  0  0  0  0  0  0  0
   -3.8708    4.6042    0.0000 C   0  0  0  0  0  0  0  0  0  0  0  0
   -4.5833    2.5708    0.0000 O   0  0  0  0  0  0  0  0  0  0  0  0
   -7.3042    3.1083    0.0000 C   0  0  0  0  0  0  0  0  0  0  0  0
   -6.8917    2.3958    0.0000 C   0  0  0  0  0  0  0  0  0  0  0  0
   -6.9292    4.5125    0.0000 O   0  0  0  0  0  0  0  0  0  0  0  0
   -5.4833    2.0250    0.0000 O   0  0  0  0  0  0  0  0  0  0  0  0
   -2.4500    4.6042    0.0000 N   0  0  0  0  0  0  0  0  0  0  0  0
   -1.8500    1.6958    0.0000 C   0  0  0  0  0  0  0  0  0  0  0  0
   -3.1583    5.0167    0.0000 C   0  0  0  0  0  0  0  0  0  0  0  0
   -0.6250    2.4083    0.0000 C   0  0  0  0  0  0  0  0  0  0  0  0
   -1.0333    1.6958    0.0000 C   0  0  0  0  0  0  0  0  0  0  0  0
    0.1917    2.4083    0.0000 O   0  0  0  0  0  0  0  0  0  0  0  0
   -1.7458    5.0167    0.0000 C   0  0  0  0  0  0  0  0  0  0  0  0
   -3.1625    5.8417    0.0000 C   0  0  0  0  0  0  0  0  0  0  0  0
    0.6042    3.1208    0.0000 C   0  0  0  0  0  0  0  0  0  0  0  0
   -1.7458    5.8417    0.0000 C   0  0  0  0  0  0  0  0  0  0  0  0
   -2.4583    6.2542    0.0000 C   0  0  0  0  0  0  0  0  0  0  0  0
  2  7  1  0  0  0  0
  3  1  1  0  0  0  0
  4  1  2  0  0  0  0
  5  1  1  0  0  0  0
  6  3  1  0  0  0  0
  7  6  1  0  0  0  0
  8  4  1  0  0  0  0
  9  2  1  0  0  0  0
 10  2  1  0  0  0  0
 11  5  1  0  0  0  0
 12  8  1  0  0  0  0
 13  3  1  0  0  0  0
 14  6  2  0  0  0  0
 15  9  1  0  0  0  0
 16 10  1  0  0  0  0
 17  9  2  0  0  0  0
 18 10  2  0  0  0  0
 19 21  2  0  0  0  0
 20 11  1  0  0  0  0
 21 13  1  0  0  0  0
 22 12  2  0  0  0  0
 23 20  2  0  0  0  0
 24 22  1  0  0  0  0
 25 19  1  0  0  0  0
 26 21  1  0  0  0  0
 27 24  1  0  0  0  0
 28 29  1  0  0  0  0
 29 26  2  0  0  0  0
 11  8  2  0  0  0  0
 22 23  1  0  0  0  0
 28 25  2  0  0  0  0
 15 16  1  0  0  0  0
M  END
> <IDNUMBER>
F2738-0702

> <Chemical_Name>
2-(2,5-dioxopyrrolidin-1-yl)-N-(5-methoxy-1,3-benzothiazol-2-yl)-N-[(pyridin-2-yl)methyl]acetamide

> <CAS>
922639-28-9

> <PriceCoeff>
1.00

> <MW>
410.45

> <Description>
solid

> <FSP3>
0.25

> <clogP>
1.26

> <TPSA>
120.94

> <Acceptor>
6

> <Donor>
1

> <RotBonds>
7

> <HAC>
29

> <Collection>
General

$$$$
F0536-0731
  -ISIS-  06222321142D

 29 33  0  0  0  0  0  0  0  0999 V2000
   -3.4458    1.7250    0.0000 C   0  0  0  0  0  0  0  0  0  0  0  0
   -3.8708    2.9833    0.0000 C   0  0  0  0  0  0  0  0  0  0  0  0
   -1.7375    6.7042    0.0000 N   0  0  3  0  0  0  0  0  0  0  0  0
   -4.2583    1.7250    0.0000 C   0  0  0  0  0  0  0  0  0  0  0  0
   -3.1875    2.5083    0.0000 N   0  0  0  0  0  0  0  0  0  0  0  0
   -4.5208    2.5083    0.0000 S   0  0  0  0  0  0  0  0  0  0  0  0
   -3.8708    3.8000    0.0000 N   0  0  0  0  0  0  0  0  0  0  0  0
   -3.0125    1.0208    0.0000 C   0  0  0  0  0  0  0  0  0  0  0  0
   -2.4375    6.2792    0.0000 C   0  0  0  0  0  0  0  0  0  0  0  0
   -3.1583    4.2042    0.0000 C   0  0  0  0  0  0  0  0  0  0  0  0
   -1.6458    7.5125    0.0000 C   0  0  0  0  0  0  0  0  0  0  0  0
   -0.9958    6.3917    0.0000 C   0  0  0  0  0  0  0  0  0  0  0  0
   -4.2583    0.2958    0.0000 O   0  0  0  0  0  0  0  0  0  0  0  0
   -2.4458    5.4500    0.0000 C   0  0  0  0  0  0  0  0  0  0  0  0
   -3.1583    5.0292    0.0000 C   0  0  0  0  0  0  0  0  0  0  0  0
   -4.6708    1.0000    0.0000 C   0  0  0  0  0  0  0  0  0  0  0  0
   -3.4250    0.2958    0.0000 C   0  0  0  0  0  0  0  0  0  0  0  0
   -2.4458    3.8083    0.0000 O   0  0  0  0  0  0  0  0  0  0  0  0
   -0.4708    7.0250    0.0000 C   0  0  0  0  0  0  0  0  0  0  0  0
   -0.8708    7.6917    0.0000 C   0  0  0  0  0  0  0  0  0  0  0  0
   -0.7458    5.5667    0.0000 O   0  0  0  0  0  0  0  0  0  0  0  0
   -2.3083    8.0875    0.0000 O   0  0  0  0  0  0  0  0  0  0  0  0
   -3.1583    6.6875    0.0000 C   0  0  0  0  0  0  0  0  0  0  0  0
   -2.2000    1.0208    0.0000 C   0  0  0  0  0  0  0  0  0  0  0  0
   -3.8708    5.4417    0.0000 C   0  0  0  0  0  0  0  0  0  0  0  0
   -3.8708    6.2792    0.0000 C   0  0  0  0  0  0  0  0  0  0  0  0
   -3.0125   -0.4042    0.0000 C   0  0  0  0  0  0  0  0  0  0  0  0
   -1.7958    0.3125    0.0000 C   0  0  0  0  0  0  0  0  0  0  0  0
   -2.2000   -0.4042    0.0000 C   0  0  0  0  0  0  0  0  0  0  0  0
  2  5  2  0  0  0  0
  3  9  1  0  0  0  0
  4  1  2  0  0  0  0
  5  1  1  0  0  0  0
  6  4  1  0  0  0  0
  7  2  1  0  0  0  0
  8  1  1  0  0  0  0
  9 14  1  0  0  0  0
 10  7  1  0  0  0  0
 11  3  1  0  0  0  0
 12  3  1  0  0  0  0
 13 17  1  0  0  0  0
 14 15  2  0  0  0  0
 15 10  1  0  0  0  0
 16  4  1  0  0  0  0
 17  8  2  0  0  0  0
 18 10  2  0  0  0  0
 19 12  1  0  0  0  0
 20 11  1  0  0  0  0
 21 12  2  0  0  0  0
 22 11  2  0  0  0  0
 23 26  1  0  0  0  0
 24  8  1  0  0  0  0
 25 15  1  0  0  0  0
 26 25  2  0  0  0  0
 27 17  1  0  0  0  0
 28 24  2  0  0  0  0
 29 28  1  0  0  0  0
 13 16  1  0  0  0  0
  2  6  1  0  0  0  0
 27 29  2  0  0  0  0
  9 23  2  0  0  0  0
 19 20  1  0  0  0  0
M  END
> <IDNUMBER>
F0536-0731

> <Chemical_Name>
N-{4H-chromeno[4,3-d][1,3]thiazol-2-yl}-3-(2,5-dioxopyrrolidin-1-yl)benzamide

> <CAS>
681163-72-4

> <PriceCoeff>
1.00

> <MW>
405.43

> <Description>
solid

> <FSP3>
0.14

> <clogP>
1.92

> <TPSA>
116.84

> <Acceptor>
5

> <Donor>
1

> <RotBonds>
3

> <HAC>
29

> <Collection>
General

$$$$
F3023-0024
  -ISIS-  06222321152D

 25 27  0  0  0  0  0  0  0  0999 V2000
    3.1125   -5.1875    0.0000 N   0  0  3  0  0  0  0  0  0  0  0  0
    3.5917   -4.5167    0.0000 C   0  0  0  0  0  0  0  0  0  0  0  0
    3.6042   -5.8542    0.0000 C   0  0  0  0  0  0  0  0  0  0  0  0
    2.2875   -5.1917    0.0000 C   0  0  0  0  0  0  0  0  0  0  0  0
    4.3875   -5.5917    0.0000 C   0  0  3  0  0  0  0  0  0  0  0  0
    4.3792   -4.7667    0.0000 C   0  0  0  0  0  0  0  0  0  0  0  0
    5.8042   -5.7375    0.0000 C   0  0  0  0  0  0  0  0  0  0  0  0
    6.4750   -6.2167    0.0000 C   0  0  0  0  0  0  0  0  0  0  0  0
    5.0542   -6.0750    0.0000 S   0  0  0  0  0  0  0  0  0  0  0  0
    1.8750   -4.4792    0.0000 C   0  0  0  0  0  0  0  0  0  0  0  0
    6.3917   -7.0417    0.0000 C   0  0  0  0  0  0  0  0  0  0  0  0
    5.8875   -4.9167    0.0000 N   0  0  0  0  0  0  0  0  0  0  0  0
    3.3375   -3.7292    0.0000 O   0  0  0  0  0  0  0  0  0  0  0  0
    3.3500   -6.6375    0.0000 O   0  0  0  0  0  0  0  0  0  0  0  0
    7.0542   -7.5250    0.0000 O   0  0  0  0  0  0  0  0  0  0  0  0
    1.0500   -4.4792    0.0000 C   0  0  0  0  0  0  0  0  0  0  0  0
    5.6375   -7.3792    0.0000 O   0  0  0  0  0  0  0  0  0  0  0  0
    1.8792   -5.9042    0.0000 C   0  0  0  0  0  0  0  0  0  0  0  0
    7.2250   -5.8792    0.0000 C   0  0  0  0  0  0  0  0  0  0  0  0
    2.2792   -3.7625    0.0000 C   0  0  0  0  0  0  0  0  0  0  0  0
    1.0625   -5.9125    0.0000 C   0  0  0  0  0  0  0  0  0  0  0  0
    6.6292   -4.5792    0.0000 C   0  0  0  0  0  0  0  0  0  0  0  0
    0.6417   -5.2000    0.0000 C   0  0  0  0  0  0  0  0  0  0  0  0
    0.6292   -3.7667    0.0000 C   0  0  0  0  0  0  0  0  0  0  0  0
    7.3042   -5.0542    0.0000 C   0  0  0  0  0  0  0  0  0  0  0  0
  2  1  1  0  0  0  0
  3  1  1  0  0  0  0
  4  1  1  0  0  0  0
  5  3  1  0  0  0  0
  6  2  1  0  0  0  0
  7  9  1  0  0  0  0
  8  7  2  0  0  0  0
  9  5  1  0  0  0  0
 10  4  2  0  0  0  0
 11  8  1  0  0  0  0
 12  7  1  0  0  0  0
 13  2  2  0  0  0  0
 14  3  2  0  0  0  0
 15 11  2  0  0  0  0
 16 10  1  0  0  0  0
 17 11  1  0  0  0  0
 18  4  1  0  0  0  0
 19  8  1  0  0  0  0
 20 10  1  0  0  0  0
 21 18  2  0  0  0  0
 22 12  2  0  0  0  0
 23 21  1  0  0  0  0
 24 16  1  0  0  0  0
 25 22  1  0  0  0  0
  6  5  1  0  0  0  0
 23 16  2  0  0  0  0
 25 19  2  0  0  0  0
M  END
> <IDNUMBER>
F3023-0024

> <Chemical_Name>
2-{[1-(2,3-dimethylphenyl)-2,5-dioxopyrrolidin-3-yl]sulfanyl}pyridine-3-carboxylic acid

> <CAS>
839685-74-4

> <PriceCoeff>
1.00

> <MW>
356.40

> <Description>
solid

> <FSP3>
0.22

> <clogP>
2.06

> <TPSA>
112.87

> <Acceptor>
5

> <Donor>
1

> <RotBonds>
4

> <HAC>
25

> <Collection>
General

$$$$
F0396-0211
  -ISIS-  06222321142D

 30 34  0  0  0  0  0  0  0  0999 V2000
   -1.7958   -0.0542    0.0000 C   0  0  0  0  0  0  0  0  0  0  0  0
   -2.4208    0.2833    0.0000 N   0  0  3  0  0  0  0  0  0  0  0  0
   -3.0458   -0.0167    0.0000 N   0  0  0  0  0  0  0  0  0  0  0  0
   -2.0708   -0.7542    0.0000 C   0  0  0  0  0  0  0  0  0  0  0  0
   -1.0500    0.0458    0.0000 N   0  0  0  0  0  0  0  0  0  0  0  0
   -2.8000   -0.7000    0.0000 C   0  0  0  0  0  0  0  0  0  0  0  0
    2.3292    0.3208    0.0000 N   0  0  3  0  0  0  0  0  0  0  0  0
   -0.4625   -0.3667    0.0000 C   0  0  0  0  0  0  0  0  0  0  0  0
    2.5875    1.0458    0.0000 C   0  0  0  0  0  0  0  0  0  0  0  0
    2.9792   -0.0792    0.0000 C   0  0  0  0  0  0  0  0  0  0  0  0
    1.5667    0.1208    0.0000 C   0  0  0  0  0  0  0  0  0  0  0  0
   -2.5458   -1.9167    0.0000 S   0  0  0  0  0  0  0  0  0  0  0  0
   -2.4333    1.0125    0.0000 C   0  0  0  0  0  0  0  0  0  0  0  0
    0.0875   -0.1500    0.0000 C   0  0  0  0  0  0  0  0  0  0  0  0
   -0.6625   -1.0875    0.0000 O   0  0  0  0  0  0  0  0  0  0  0  0
    3.3500    1.0333    0.0000 C   0  0  0  0  0  0  0  0  0  0  0  0
    3.5792    0.2958    0.0000 C   0  0  0  0  0  0  0  0  0  0  0  0
    2.9875   -0.7542    0.0000 O   0  0  0  0  0  0  0  0  0  0  0  0
    2.1292    1.7000    0.0000 O   0  0  0  0  0  0  0  0  0  0  0  0
   -1.8833   -1.5000    0.0000 C   0  0  0  0  0  0  0  0  0  0  0  0
    1.0042    0.6708    0.0000 C   0  0  0  0  0  0  0  0  0  0  0  0
    1.4000   -0.4667    0.0000 C   0  0  0  0  0  0  0  0  0  0  0  0
    0.2667    0.4458    0.0000 C   0  0  0  0  0  0  0  0  0  0  0  0
    0.6667   -0.6875    0.0000 C   0  0  0  0  0  0  0  0  0  0  0  0
   -3.1000   -1.4167    0.0000 C   0  0  0  0  0  0  0  0  0  0  0  0
   -3.0708    1.3708    0.0000 C   0  0  0  0  0  0  0  0  0  0  0  0
   -1.8125    1.3833    0.0000 C   0  0  0  0  0  0  0  0  0  0  0  0
   -1.8125    2.1208    0.0000 C   0  0  0  0  0  0  0  0  0  0  0  0
   -3.0708    2.1125    0.0000 C   0  0  0  0  0  0  0  0  0  0  0  0
   -2.4333    2.4958    0.0000 C   0  0  0  0  0  0  0  0  0  0  0  0
  2  1  1  0  0  0  0
  3  2  1  0  0  0  0
  4  1  2  0  0  0  0
  5  1  1  0  0  0  0
  6  4  1  0  0  0  0
  7 11  1  0  0  0  0
  8  5  1  0  0  0  0
  9  7  1  0  0  0  0
 10  7  1  0  0  0  0
 11 22  1  0  0  0  0
 12 20  1  0  0  0  0
 13  2  1  0  0  0  0
 14  8  1  0  0  0  0
 15  8  2  0  0  0  0
 16  9  1  0  0  0  0
 17 10  1  0  0  0  0
 18 10  2  0  0  0  0
 19  9  2  0  0  0  0
 20  4  1  0  0  0  0
 21 23  1  0  0  0  0
 22 24  2  0  0  0  0
 23 14  2  0  0  0  0
 24 14  1  0  0  0  0
 25  6  1  0  0  0  0
 26 13  2  0  0  0  0
 27 13  1  0  0  0  0
 28 27  2  0  0  0  0
 29 26  1  0  0  0  0
 30 28  1  0  0  0  0
  6  3  2  0  0  0  0
 25 12  1  0  0  0  0
 11 21  2  0  0  0  0
 30 29  2  0  0  0  0
 16 17  1  0  0  0  0
M  END
> <IDNUMBER>
F0396-0211

> <Chemical_Name>
4-(2,5-dioxopyrrolidin-1-yl)-N-{2-phenyl-2H,4H,6H-thieno[3,4-c]pyrazol-3-yl}benzamide

> <CAS>
392255-22-0

> <PriceCoeff>
1.00

> <MW>
418.47

> <Description>
solid

> <FSP3>
0.18

> <clogP>
1.22

> <TPSA>
109.60

> <Acceptor>
4

> <Donor>
1

> <RotBonds>
4

> <HAC>
30

> <Collection>
General

$$$$
F0778-0278
  -ISIS-  06222321142D

 31 35  0  0  0  0  0  0  0  0999 V2000
   -3.2375    2.4958    0.0000 C   0  0  0  0  0  0  0  0  0  0  0  0
   -3.9083    2.9833    0.0000 N   0  0  3  0  0  0  0  0  0  0  0  0
   -4.5833    2.4958    0.0000 N   0  0  0  0  0  0  0  0  0  0  0  0
   -3.4958    1.7000    0.0000 C   0  0  0  0  0  0  0  0  0  0  0  0
   -2.4583    2.7458    0.0000 N   0  0  0  0  0  0  0  0  0  0  0  0
   -4.3333    1.7000    0.0000 C   0  0  0  0  0  0  0  0  0  0  0  0
    1.2875    3.2333    0.0000 N   0  0  3  0  0  0  0  0  0  0  0  0
   -1.8458    2.1958    0.0000 C   0  0  0  0  0  0  0  0  0  0  0  0
    1.5625    4.0000    0.0000 C   0  0  0  0  0  0  0  0  0  0  0  0
    1.9542    2.7958    0.0000 C   0  0  0  0  0  0  0  0  0  0  0  0
   -3.9083    3.8000    0.0000 C   0  0  0  0  0  0  0  0  0  0  0  0
    0.5000    2.9833    0.0000 C   0  0  0  0  0  0  0  0  0  0  0  0
   -3.9083    0.4250    0.0000 S   0  0  0  0  0  0  0  0  0  0  0  0
   -1.0583    2.4458    0.0000 C   0  0  0  0  0  0  0  0  0  0  0  0
   -2.0125    1.3875    0.0000 O   0  0  0  0  0  0  0  0  0  0  0  0
    2.3750    4.0042    0.0000 C   0  0  0  0  0  0  0  0  0  0  0  0
    2.6042    3.2375    0.0000 C   0  0  0  0  0  0  0  0  0  0  0  0
    1.0667    4.7125    0.0000 O   0  0  0  0  0  0  0  0  0  0  0  0
    1.9875    1.8958    0.0000 O   0  0  0  0  0  0  0  0  0  0  0  0
   -3.2375    0.9125    0.0000 C   0  0  0  0  0  0  0  0  0  0  0  0
   -0.1083    3.5250    0.0000 C   0  0  0  0  0  0  0  0  0  0  0  0
    0.3292    2.1583    0.0000 C   0  0  0  0  0  0  0  0  0  0  0  0
   -0.8833    3.2708    0.0000 C   0  0  0  0  0  0  0  0  0  0  0  0
   -0.4458    1.8958    0.0000 C   0  0  0  0  0  0  0  0  0  0  0  0
   -4.5833    0.9125    0.0000 C   0  0  0  0  0  0  0  0  0  0  0  0
   -4.6208    4.2042    0.0000 C   0  0  0  0  0  0  0  0  0  0  0  0
   -3.1875    4.2042    0.0000 C   0  0  0  0  0  0  0  0  0  0  0  0
   -3.1875    5.0292    0.0000 C   0  0  0  0  0  0  0  0  0  0  0  0
   -4.6208    5.0292    0.0000 C   0  0  0  0  0  0  0  0  0  0  0  0
   -3.9000    5.4375    0.0000 C   0  0  0  0  0  0  0  0  0  0  0  0
   -3.9083    6.2792    0.0000 C   0  0  0  0  0  0  0  0  0  0  0  0
  2  1  1  0  0  0  0
  3  2  1  0  0  0  0
  4  1  2  0  0  0  0
  5  1  1  0  0  0  0
  6  4  1  0  0  0  0
  7 12  1  0  0  0  0
  8  5  1  0  0  0  0
  9  7  1  0  0  0  0
 10  7  1  0  0  0  0
 11  2  1  0  0  0  0
 12 22  1  0  0  0  0
 13 20  1  0  0  0  0
 14  8  1  0  0  0  0
 15  8  2  0  0  0  0
 16  9  1  0  0  0  0
 17 10  1  0  0  0  0
 18  9  2  0  0  0  0
 19 10  2  0  0  0  0
 20  4  1  0  0  0  0
 21 23  1  0  0  0  0
 22 24  2  0  0  0  0
 23 14  2  0  0  0  0
 24 14  1  0  0  0  0
 25  6  1  0  0  0  0
 26 11  1  0  0  0  0
 27 11  2  0  0  0  0
 28 27  1  0  0  0  0
 29 26  2  0  0  0  0
 30 28  2  0  0  0  0
 31 30  1  0  0  0  0
  3  6  2  0  0  0  0
 25 13  1  0  0  0  0
 21 12  2  0  0  0  0
 30 29  1  0  0  0  0
 17 16  1  0  0  0  0
M  END
> <IDNUMBER>
F0778-0278

> <Chemical_Name>
4-(2,5-dioxopyrrolidin-1-yl)-N-[2-(4-methylphenyl)-2H,4H,6H-thieno[3,4-c]pyrazol-3-yl]benzamide

> <CAS>
396722-70-6

> <PriceCoeff>
1.00

> <MW>
432.49

> <Description>
solid

> <FSP3>
0.22

> <clogP>
1.72

> <TPSA>
109.60

> <Acceptor>
4

> <Donor>
1

> <RotBonds>
4

> <HAC>
31

> <Collection>
General

$$$$
F1957-0113
  -ISIS-  06222321142D

 14 15  0  0  0  0  0  0  0  0999 V2000
    3.3458   -3.2708    0.0000 N   0  0  0  0  0  0  0  0  0  0  0  0
    4.0625   -2.8583    0.0000 C   0  0  0  0  0  0  0  0  0  0  0  0
    2.6375   -2.0292    0.0000 C   0  0  0  0  0  0  0  0  0  0  0  0
    2.6333   -2.8583    0.0000 C   0  0  0  0  0  0  0  0  0  0  0  0
    3.3458   -1.6167    0.0000 C   0  0  0  0  0  0  0  0  0  0  0  0
    4.0625   -2.0292    0.0000 C   0  0  0  0  0  0  0  0  0  0  0  0
    4.7792   -3.2708    0.0000 C   0  0  0  0  0  0  0  0  0  0  0  0
    1.9250   -1.6167    0.0000 N   0  0  0  0  0  0  0  0  0  0  0  0
    4.7792   -4.0958    0.0000 O   0  0  0  0  0  0  0  0  0  0  0  0
    3.3417   -0.7917    0.0000 Br  0  0  0  0  0  0  0  0  0  0  0  0
    5.4917   -2.8542    0.0000 O   0  0  0  0  0  0  0  0  0  0  0  0
    1.9167   -3.2708    0.0000 C   0  0  0  0  0  0  0  0  0  0  0  0
    1.2083   -2.0250    0.0000 C   0  0  0  0  0  0  0  0  0  0  0  0
    1.2042   -2.8500    0.0000 C   0  0  0  0  0  0  0  0  0  0  0  0
  2  1  2  0  0  0  0
  3  4  2  0  0  0  0
  4  1  1  0  0  0  0
  5  3  1  0  0  0  0
  6  2  1  0  0  0  0
  7  2  1  0  0  0  0
  8  3  1  0  0  0  0
  9  7  2  0  0  0  0
 10  5  1  0  0  0  0
 11  7  1  0  0  0  0
 12  4  1  0  0  0  0
 13  8  1  0  0  0  0
 14 12  1  0  0  0  0
  5  6  2  0  0  0  0
 14 13  1  0  0  0  0
M  END
> <IDNUMBER>
F1957-0113

> <Chemical_Name>
4-bromo-5,6,7,8-tetrahydro-1,5-naphthyridine-2-carboxylic acid

> <CAS>
1219022-87-3

> <PriceCoeff>
1.00

> <MW>
257.08

> <Description>
solid

> <FSP3>
0.33

> <clogP>
2.98

> <TPSA>
62.22

> <Acceptor>
4

> <Donor>
2

> <RotBonds>
1

> <HAC>
14

> <Collection>
General

$$$$
F3275-0015
  -ISIS-  06222321442D

 15 15  0  0  0  0  0  0  0  0999 V2000
   10.4875    1.2208    0.0000 C   0  0  0  0  0  0  0  0  0  0  0  0
    9.0875    1.2208    0.0000 C   0  0  0  0  0  0  0  0  0  0  0  0
    8.3875    2.4333    0.0000 C   0  0  0  0  0  0  0  0  0  0  0  0
   11.1917    2.4333    0.0000 O   0  0  0  0  0  0  0  0  0  0  0  0
    6.9875    2.4333    0.0000 C   0  0  0  0  0  0  0  0  0  0  0  0
   11.1917   -0.0000    0.0000 O   0  0  0  0  0  0  0  0  0  0  0  0
    4.2042    2.4458    0.0000 C   0  0  0  0  0  0  0  0  0  0  0  0
    6.2792    3.6458    0.0000 C   0  0  0  0  0  0  0  0  0  0  0  0
    6.2792    1.2333    0.0000 C   0  0  0  0  0  0  0  0  0  0  0  0
    4.8917    3.6458    0.0000 C   0  0  0  0  0  0  0  0  0  0  0  0
    4.8917    1.2375    0.0000 C   0  0  0  0  0  0  0  0  0  0  0  0
    2.8000    2.4583    0.0000 O   0  0  0  0  0  0  0  0  0  0  0  0
    2.0917    3.6708    0.0000 C   0  0  0  0  0  0  0  0  0  0  0  0
    0.6917    3.6708    0.0000 C   0  0  0  0  0  0  0  0  0  0  0  0
    0.0000    4.8792    0.0000 C   0  0  0  0  0  0  0  0  0  0  0  0
  2  1  1  0  0  0  0
  3  2  2  0  0  0  0
  4  1  2  0  0  0  0
  5  3  1  0  0  0  0
  6  1  1  0  0  0  0
  7 11  2  0  0  0  0
  8  5  1  0  0  0  0
  9  5  2  0  0  0  0
 10  8  2  0  0  0  0
 11  9  1  0  0  0  0
 12  7  1  0  0  0  0
 13 12  1  0  0  0  0
 14 13  1  0  0  0  0
 15 14  1  0  0  0  0
 10  7  1  0  0  0  0
M  END
> <IDNUMBER>
F3275-0015

> <Chemical_Name>
(2E)-3-(4-propoxyphenyl)prop-2-enoic acid

> <CAS>
151539-67-2

> <PriceCoeff>
1.00

> <MW>
206.24

> <Description>
solid

> <FSP3>
0.25

> <clogP>
3.22

> <TPSA>
46.53

> <Acceptor>
3

> <Donor>
0

> <RotBonds>
5

> <HAC>
15

> <Collection>
General

> <Reference_compound>
CHEMBL95770

> <Similarity>
0.8530

$$$$
F3023-0025
  -ISIS-  06222321462D

 25 27  0  0  0  0  0  0  0  0999 V2000
    3.5000   -3.7792    0.0000 N   0  0  3  0  0  0  0  0  0  0  0  0
    3.9792   -3.1042    0.0000 C   0  0  0  0  0  0  0  0  0  0  0  0
    3.9917   -4.4417    0.0000 C   0  0  0  0  0  0  0  0  0  0  0  0
    4.7750   -4.1792    0.0000 C   0  0  3  0  0  0  0  0  0  0  0  0
    4.7667   -3.3542    0.0000 C   0  0  0  0  0  0  0  0  0  0  0  0
    6.1917   -4.3292    0.0000 C   0  0  0  0  0  0  0  0  0  0  0  0
    2.6750   -3.7792    0.0000 C   0  0  0  0  0  0  0  0  0  0  0  0
    6.8625   -4.8125    0.0000 C   0  0  0  0  0  0  0  0  0  0  0  0
    5.4417   -4.6667    0.0000 S   0  0  0  0  0  0  0  0  0  0  0  0
    6.7792   -5.6292    0.0000 C   0  0  0  0  0  0  0  0  0  0  0  0
    2.2542   -3.0667    0.0000 C   0  0  0  0  0  0  0  0  0  0  0  0
    6.2750   -3.5125    0.0000 N   0  0  0  0  0  0  0  0  0  0  0  0
    2.2667   -4.5000    0.0000 C   0  0  0  0  0  0  0  0  0  0  0  0
    3.7250   -2.3250    0.0000 O   0  0  0  0  0  0  0  0  0  0  0  0
    3.7375   -5.2292    0.0000 O   0  0  0  0  0  0  0  0  0  0  0  0
    1.4375   -3.0750    0.0000 C   0  0  0  0  0  0  0  0  0  0  0  0
    7.4417   -6.1167    0.0000 O   0  0  0  0  0  0  0  0  0  0  0  0
    6.0250   -5.9667    0.0000 O   0  0  0  0  0  0  0  0  0  0  0  0
    1.4500   -4.5042    0.0000 C   0  0  0  0  0  0  0  0  0  0  0  0
    1.0292   -3.7917    0.0000 C   0  0  0  0  0  0  0  0  0  0  0  0
    7.6125   -4.4750    0.0000 C   0  0  0  0  0  0  0  0  0  0  0  0
    2.6667   -2.3542    0.0000 C   0  0  0  0  0  0  0  0  0  0  0  0
    7.0167   -3.1667    0.0000 C   0  0  0  0  0  0  0  0  0  0  0  0
    0.2042   -3.7917    0.0000 C   0  0  0  0  0  0  0  0  0  0  0  0
    7.6917   -3.6500    0.0000 C   0  0  0  0  0  0  0  0  0  0  0  0
  2  1  1  0  0  0  0
  3  1  1  0  0  0  0
  4  3  1  0  0  0  0
  5  2  1  0  0  0  0
  6  9  1  0  0  0  0
  7  1  1  0  0  0  0
  8  6  2  0  0  0  0
  9  4  1  0  0  0  0
 10  8  1  0  0  0  0
 11  7  2  0  0  0  0
 12  6  1  0  0  0  0
 13  7  1  0  0  0  0
 14  2  2  0  0  0  0
 15  3  2  0  0  0  0
 16 11  1  0  0  0  0
 17 10  2  0  0  0  0
 18 10  1  0  0  0  0
 19 13  2  0  0  0  0
 20 19  1  0  0  0  0
 21  8  1  0  0  0  0
 22 11  1  0  0  0  0
 23 12  2  0  0  0  0
 24 20  1  0  0  0  0
 25 23  1  0  0  0  0
  5  4  1  0  0  0  0
 20 16  2  0  0  0  0
 25 21  2  0  0  0  0
M  END
> <IDNUMBER>
F3023-0025

> <Chemical_Name>
2-{[1-(2,4-dimethylphenyl)-2,5-dioxopyrrolidin-3-yl]sulfanyl}pyridine-3-carboxylic acid

> <CAS>
838890-47-4

> <PriceCoeff>
1.00

> <MW>
356.40

> <Description>
solid

> <FSP3>
0.22

> <clogP>
2.11

> <TPSA>
112.87

> <Acceptor>
5

> <Donor>
1

> <RotBonds>
4

> <HAC>
25

> <Collection>
General

$$$$
F5323-0610
  -ISIS-  06222321152D

 28 32  0  0  0  0  0  0  0  0999 V2000
   -2.1833    2.5708    0.0000 N   0  0  3  0  0  0  0  0  0  0  0  0
   -2.8333    2.0958    0.0000 C   0  0  0  0  0  0  0  0  0  0  0  0
   -1.3875    2.3208    0.0000 C   0  0  0  0  0  0  0  0  0  0  0  0
   -2.4333    3.3583    0.0000 N   0  0  0  0  0  0  0  0  0  0  0  0
   -3.5083    2.5708    0.0000 C   0  0  0  0  0  0  0  0  0  0  0  0
   -2.8333   -0.4750    0.0000 N   0  0  3  0  0  0  0  0  0  0  0  0
   -1.1333    1.5208    0.0000 N   0  0  0  0  0  0  0  0  0  0  0  0
   -0.7208    2.8125    0.0000 S   0  0  0  0  0  0  0  0  0  0  0  0
   -3.2500    3.3583    0.0000 C   0  0  0  0  0  0  0  0  0  0  0  0
   -2.8208    1.2708    0.0000 N   0  0  0  0  0  0  0  0  0  0  0  0
   -2.6708   -1.2917    0.0000 C   0  0  0  0  0  0  0  0  0  0  0  0
   -2.1125   -0.0542    0.0000 C   0  0  0  0  0  0  0  0  0  0  0  0
   -3.6750    0.7000    0.0000 C   0  0  0  0  0  0  0  0  0  0  0  0
   -0.3000    1.5333    0.0000 C   0  0  0  0  0  0  0  0  0  0  0  0
   -0.0375    2.3208    0.0000 C   0  0  0  0  0  0  0  0  0  0  0  0
   -3.5958   -0.1292    0.0000 C   0  0  0  0  0  0  0  0  0  0  0  0
   -1.4958   -0.6167    0.0000 C   0  0  0  0  0  0  0  0  0  0  0  0
   -1.8333   -1.3792    0.0000 C   0  0  0  0  0  0  0  0  0  0  0  0
   -2.0125    0.7708    0.0000 O   0  0  0  0  0  0  0  0  0  0  0  0
   -3.2375   -1.9042    0.0000 O   0  0  0  0  0  0  0  0  0  0  0  0
   -4.4250    1.0125    0.0000 O   0  0  0  0  0  0  0  0  0  0  0  0
   -4.3208    2.5708    0.0000 C   0  0  0  0  0  0  0  0  0  0  0  0
   -3.9208    3.8333    0.0000 C   0  0  0  0  0  0  0  0  0  0  0  0
   -4.5833    3.3458    0.0000 C   0  0  0  0  0  0  0  0  0  0  0  0
    0.2542    0.9083    0.0000 C   0  0  0  0  0  0  0  0  0  0  0  0
    0.7750    2.4958    0.0000 C   0  0  0  0  0  0  0  0  0  0  0  0
    1.3292    1.8833    0.0000 C   0  0  0  0  0  0  0  0  0  0  0  0
    1.0750    1.0833    0.0000 C   0  0  0  0  0  0  0  0  0  0  0  0
  2  1  1  0  0  0  0
  3  1  1  0  0  0  0
  4  1  1  0  0  0  0
  5  2  2  0  0  0  0
  6 16  1  0  0  0  0
  7  3  2  0  0  0  0
  8  3  1  0  0  0  0
  9  4  2  0  0  0  0
 10  2  1  0  0  0  0
 11  6  1  0  0  0  0
 12  6  1  0  0  0  0
 13 10  1  0  0  0  0
 14  7  1  0  0  0  0
 15  8  1  0  0  0  0
 16 13  1  0  0  0  0
 17 12  1  0  0  0  0
 18 11  1  0  0  0  0
 19 12  2  0  0  0  0
 20 11  2  0  0  0  0
 21 13  2  0  0  0  0
 22  5  1  0  0  0  0
 23  9  1  0  0  0  0
 24 23  1  0  0  0  0
 25 14  1  0  0  0  0
 26 15  1  0  0  0  0
 27 26  2  0  0  0  0
 28 25  2  0  0  0  0
  5  9  1  0  0  0  0
 14 15  2  0  0  0  0
 22 24  1  0  0  0  0
 27 28  1  0  0  0  0
 18 17  1  0  0  0  0
M  END
> <IDNUMBER>
F5323-0610

> <Chemical_Name>
N-[2-(1,3-benzothiazol-2-yl)-2H,4H,5H,6H-cyclopenta[c]pyrazol-3-yl]-2-(2,5-dioxopyrrolidin-1-yl)acetamide

> <CAS>
1172526-39-4

> <PriceCoeff>
1.00

> <MW>
395.43

> <Description>
solid

> <FSP3>
0.32

> <clogP>
2.32

> <TPSA>
125.43

> <Acceptor>
5

> <Donor>
1

> <RotBonds>
4

> <HAC>
28

> <Collection>
General

$$$$
F2018-0572
  -ISIS-  06222304352D

 32 34  0  0  0  0  0  0  0  0999 V2000
   -3.8708    2.9833    0.0000 C   0  0  0  0  0  0  0  0  0  0  0  0
   -3.1583    2.5625    0.0000 N   0  0  3  0  0  0  0  0  0  0  0  0
   -1.0125    0.4958    0.0000 N   0  0  3  0  0  0  0  0  0  0  0  0
   -4.6333    2.6458    0.0000 N   0  0  0  0  0  0  0  0  0  0  0  0
   -3.9583    3.8000    0.0000 S   0  0  0  0  0  0  0  0  0  0  0  0
   -2.4458    2.9833    0.0000 C   0  0  0  0  0  0  0  0  0  0  0  0
   -1.0125    1.3333    0.0000 C   0  0  0  0  0  0  0  0  0  0  0  0
   -4.7708    3.9708    0.0000 C   0  0  0  0  0  0  0  0  0  0  0  0
   -0.3708   -0.0167    0.0000 C   0  0  0  0  0  0  0  0  0  0  0  0
   -1.7083    0.0458    0.0000 C   0  0  0  0  0  0  0  0  0  0  0  0
   -5.1833    3.2583    0.0000 C   0  0  0  0  0  0  0  0  0  0  0  0
   -1.7333    2.5625    0.0000 C   0  0  0  0  0  0  0  0  0  0  0  0
   -1.7250    1.7458    0.0000 C   0  0  0  0  0  0  0  0  0  0  0  0
   -3.1583    1.7375    0.0000 C   0  0  0  0  0  0  0  0  0  0  0  0
   -5.1708    4.6792    0.0000 C   0  0  0  0  0  0  0  0  0  0  0  0
   -2.4458    3.8000    0.0000 O   0  0  0  0  0  0  0  0  0  0  0  0
   -0.6500   -0.7917    0.0000 C   0  0  0  0  0  0  0  0  0  0  0  0
   -1.4750   -0.7667    0.0000 C   0  0  0  0  0  0  0  0  0  0  0  0
    0.4250    0.1958    0.0000 O   0  0  0  0  0  0  0  0  0  0  0  0
   -2.4750    0.3333    0.0000 O   0  0  0  0  0  0  0  0  0  0  0  0
   -5.9958    3.2583    0.0000 C   0  0  0  0  0  0  0  0  0  0  0  0
   -5.9958    4.6792    0.0000 C   0  0  0  0  0  0  0  0  0  0  0  0
   -3.8708    1.3250    0.0000 C   0  0  0  0  0  0  0  0  0  0  0  0
   -3.8708    0.5000    0.0000 N   0  0  3  0  0  0  0  0  0  0  0  0
   -6.4042    3.9708    0.0000 C   0  0  0  0  0  0  0  0  0  0  0  0
   -6.4042    5.4042    0.0000 Cl  0  0  0  0  0  0  0  0  0  0  0  0
   -0.2958    1.7333    0.0000 C   0  0  0  0  0  0  0  0  0  0  0  0
   -1.0083    2.9833    0.0000 C   0  0  0  0  0  0  0  0  0  0  0  0
   -0.2958    2.5625    0.0000 C   0  0  0  0  0  0  0  0  0  0  0  0
   -3.1583    0.0875    0.0000 C   0  0  0  0  0  0  0  0  0  0  0  0
   -4.5833    0.0875    0.0000 C   0  0  0  0  0  0  0  0  0  0  0  0
    1.9417    2.4583    0.0000 Cl  0  0  0  0  0  0  0  0  0  0  0  0
  3  7  1  0  0  0  0
  4  1  2  0  0  0  0
  5  1  1  0  0  0  0
  6  2  1  0  0  0  0
  7 13  1  0  0  0  0
  8  5  1  0  0  0  0
  9  3  1  0  0  0  0
 10  3  1  0  0  0  0
 11  4  1  0  0  0  0
 12  6  1  0  0  0  0
 13 12  2  0  0  0  0
 14  2  1  0  0  0  0
 15  8  1  0  0  0  0
 16  6  2  0  0  0  0
 17  9  1  0  0  0  0
 18 10  1  0  0  0  0
 19  9  2  0  0  0  0
 20 10  2  0  0  0  0
 21 11  1  0  0  0  0
 22 15  2  0  0  0  0
 23 14  1  0  0  0  0
 24 23  1  0  0  0  0
 25 21  2  0  0  0  0
 26 22  1  0  0  0  0
 27 29  1  0  0  0  0
 28 12  1  0  0  0  0
 29 28  2  0  0  0  0
 30 24  1  0  0  0  0
 31 24  1  0  0  0  0
  8 11  2  0  0  0  0
 25 22  1  0  0  0  0
  7 27  2  0  0  0  0
 18 17  1  0  0  0  0
  2  1  1  0  0  0  0
M  END
> <IDNUMBER>
F2018-0572

> <Chemical_Name>
N-(6-chloro-1,3-benzothiazol-2-yl)-N-[2-(dimethylamino)ethyl]-3-(2,5-dioxopyrrolidin-1-yl)benzamide hydrochloride

> <CAS>
1321720-29-9

> <PriceCoeff>
1.00

> <MW>
456.95

> <Description>
solid

> <FSP3>
0.27

> <clogP>
1.87

> <TPSA>
102.06

> <Acceptor>
4

> <Donor>
1

> <RotBonds>
7

> <HAC>
31

> <Collection>
General

$$$$
F2019-0936
  -ISIS-  06222304352D

 33 35  0  0  0  0  0  0  0  0999 V2000
   -3.1583    2.9833    0.0000 C   0  0  0  0  0  0  0  0  0  0  0  0
   -3.9125    2.6458    0.0000 N   0  0  0  0  0  0  0  0  0  0  0  0
   -2.4375    2.5625    0.0000 N   0  0  3  0  0  0  0  0  0  0  0  0
    1.1292    1.3083    0.0000 N   0  0  3  0  0  0  0  0  0  0  0  0
   -3.2458    3.8083    0.0000 S   0  0  0  0  0  0  0  0  0  0  0  0
   -1.7250    2.9833    0.0000 C   0  0  0  0  0  0  0  0  0  0  0  0
   -4.4708    3.2500    0.0000 C   0  0  0  0  0  0  0  0  0  0  0  0
    1.8792    1.6750    0.0000 C   0  0  0  0  0  0  0  0  0  0  0  0
    1.2500    0.5000    0.0000 C   0  0  0  0  0  0  0  0  0  0  0  0
   -4.0583    3.9708    0.0000 C   0  0  0  0  0  0  0  0  0  0  0  0
    0.4167    1.7333    0.0000 C   0  0  0  0  0  0  0  0  0  0  0  0
   -1.0125    2.5625    0.0000 C   0  0  0  0  0  0  0  0  0  0  0  0
   -1.7250    3.8000    0.0000 O   0  0  0  0  0  0  0  0  0  0  0  0
    2.4542    1.0750    0.0000 C   0  0  0  0  0  0  0  0  0  0  0  0
    2.0625    0.3583    0.0000 C   0  0  0  0  0  0  0  0  0  0  0  0
    2.0292    2.5083    0.0000 O   0  0  0  0  0  0  0  0  0  0  0  0
    0.6542   -0.0792    0.0000 O   0  0  0  0  0  0  0  0  0  0  0  0
   -5.2875    3.2500    0.0000 C   0  0  0  0  0  0  0  0  0  0  0  0
    0.4250    2.5625    0.0000 C   0  0  0  0  0  0  0  0  0  0  0  0
   -0.3000    1.3333    0.0000 C   0  0  0  0  0  0  0  0  0  0  0  0
   -1.0083    1.7458    0.0000 C   0  0  0  0  0  0  0  0  0  0  0  0
   -0.2833    2.9833    0.0000 C   0  0  0  0  0  0  0  0  0  0  0  0
   -2.4375    1.7375    0.0000 C   0  0  0  0  0  0  0  0  0  0  0  0
   -3.1583    1.3250    0.0000 C   0  0  0  0  0  0  0  0  0  0  0  0
   -3.8708    0.0875    0.0000 N   0  0  3  0  0  0  0  0  0  0  0  0
   -4.4708    4.6667    0.0000 C   0  0  0  0  0  0  0  0  0  0  0  0
   -3.1583    0.5000    0.0000 C   0  0  0  0  0  0  0  0  0  0  0  0
   -5.2958    4.6667    0.0000 C   0  0  0  0  0  0  0  0  0  0  0  0
   -5.7083    3.9583    0.0000 C   0  0  0  0  0  0  0  0  0  0  0  0
   -5.7083    2.5333    0.0000 C   0  0  0  0  0  0  0  0  0  0  0  0
   -3.8708   -0.7375    0.0000 C   0  0  0  0  0  0  0  0  0  0  0  0
   -4.5833    0.5000    0.0000 C   0  0  0  0  0  0  0  0  0  0  0  0
    3.8417    2.0583    0.0000 Cl  0  0  0  0  0  0  0  0  0  0  0  0
  3  1  1  0  0  0  0
  4 11  1  0  0  0  0
  5  1  1  0  0  0  0
  6  3  1  0  0  0  0
  7  2  1  0  0  0  0
  8  4  1  0  0  0  0
  9  4  1  0  0  0  0
 10  5  1  0  0  0  0
 11 19  1  0  0  0  0
 12  6  1  0  0  0  0
 13  6  2  0  0  0  0
 14  8  1  0  0  0  0
 15  9  1  0  0  0  0
 16  8  2  0  0  0  0
 17  9  2  0  0  0  0
 18  7  1  0  0  0  0
 19 22  2  0  0  0  0
 20 21  1  0  0  0  0
 21 12  2  0  0  0  0
 22 12  1  0  0  0  0
 23  3  1  0  0  0  0
 24 23  1  0  0  0  0
 25 27  1  0  0  0  0
 26 10  1  0  0  0  0
 27 24  1  0  0  0  0
 28 26  2  0  0  0  0
 29 18  2  0  0  0  0
 30 18  1  0  0  0  0
 31 25  1  0  0  0  0
 32 25  1  0  0  0  0
 10  7  2  0  0  0  0
 29 28  1  0  0  0  0
 11 20  2  0  0  0  0
 15 14  1  0  0  0  0
  2  1  2  0  0  0  0
M  END
> <IDNUMBER>
F2019-0936

> <Chemical_Name>
N-[3-(dimethylamino)propyl]-4-(2,5-dioxopyrrolidin-1-yl)-N-(4-methyl-1,3-benzothiazol-2-yl)benzamide hydrochloride

> <CAS>
1215454-48-0

> <PriceCoeff>
1.00

> <MW>
450.55

> <Description>
solid

> <FSP3>
0.33

> <clogP>
1.89

> <TPSA>
102.06

> <Acceptor>
4

> <Donor>
1

> <RotBonds>
8

> <HAC>
32

> <Collection>
General

$$$$
F2019-0953
  -ISIS-  06222304352D

 33 35  0  0  0  0  0  0  0  0999 V2000
   -3.1583    2.9833    0.0000 C   0  0  0  0  0  0  0  0  0  0  0  0
   -3.9125    2.6458    0.0000 N   0  0  0  0  0  0  0  0  0  0  0  0
   -2.4375    2.5625    0.0000 N   0  0  3  0  0  0  0  0  0  0  0  0
   -0.2958    0.4958    0.0000 N   0  0  3  0  0  0  0  0  0  0  0  0
   -3.2458    3.8083    0.0000 S   0  0  0  0  0  0  0  0  0  0  0  0
   -1.7250    2.9833    0.0000 C   0  0  0  0  0  0  0  0  0  0  0  0
   -4.4708    3.2500    0.0000 C   0  0  0  0  0  0  0  0  0  0  0  0
   -0.2958    1.3333    0.0000 C   0  0  0  0  0  0  0  0  0  0  0  0
    0.3500   -0.0167    0.0000 C   0  0  0  0  0  0  0  0  0  0  0  0
   -0.9958    0.0458    0.0000 C   0  0  0  0  0  0  0  0  0  0  0  0
   -4.0583    3.9708    0.0000 C   0  0  0  0  0  0  0  0  0  0  0  0
   -1.0125    2.5625    0.0000 C   0  0  0  0  0  0  0  0  0  0  0  0
   -1.0083    1.7458    0.0000 C   0  0  0  0  0  0  0  0  0  0  0  0
   -1.7250    3.8000    0.0000 O   0  0  0  0  0  0  0  0  0  0  0  0
    0.0667   -0.7917    0.0000 C   0  0  0  0  0  0  0  0  0  0  0  0
   -0.7583   -0.7667    0.0000 C   0  0  0  0  0  0  0  0  0  0  0  0
    1.1417    0.1958    0.0000 O   0  0  0  0  0  0  0  0  0  0  0  0
   -1.7583    0.3333    0.0000 O   0  0  0  0  0  0  0  0  0  0  0  0
   -5.2875    3.2500    0.0000 C   0  0  0  0  0  0  0  0  0  0  0  0
   -2.4375    1.7375    0.0000 C   0  0  0  0  0  0  0  0  0  0  0  0
   -3.1583    1.3250    0.0000 C   0  0  0  0  0  0  0  0  0  0  0  0
   -3.8708    0.0875    0.0000 N   0  0  3  0  0  0  0  0  0  0  0  0
    0.4167    1.7333    0.0000 C   0  0  0  0  0  0  0  0  0  0  0  0
   -4.4708    4.6667    0.0000 C   0  0  0  0  0  0  0  0  0  0  0  0
   -0.2875    2.9833    0.0000 C   0  0  0  0  0  0  0  0  0  0  0  0
   -3.1583    0.5000    0.0000 C   0  0  0  0  0  0  0  0  0  0  0  0
    0.4250    2.5625    0.0000 C   0  0  0  0  0  0  0  0  0  0  0  0
   -5.2958    4.6667    0.0000 C   0  0  0  0  0  0  0  0  0  0  0  0
   -5.7083    3.9583    0.0000 C   0  0  0  0  0  0  0  0  0  0  0  0
   -5.7083    2.5333    0.0000 C   0  0  0  0  0  0  0  0  0  0  0  0
   -3.8708   -0.7375    0.0000 C   0  0  0  0  0  0  0  0  0  0  0  0
   -4.5833    0.5000    0.0000 C   0  0  0  0  0  0  0  0  0  0  0  0
    2.6584    2.0333    0.0000 Cl  0  0  0  0  0  0  0  0  0  0  0  0
  3  1  1  0  0  0  0
  4  8  1  0  0  0  0
  5  1  1  0  0  0  0
  6  3  1  0  0  0  0
  7  2  1  0  0  0  0
  8 13  1  0  0  0  0
  9  4  1  0  0  0  0
 10  4  1  0  0  0  0
 11  5  1  0  0  0  0
 12  6  1  0  0  0  0
 13 12  2  0  0  0  0
 14  6  2  0  0  0  0
 15  9  1  0  0  0  0
 16 10  1  0  0  0  0
 17  9  2  0  0  0  0
 18 10  2  0  0  0  0
 19  7  1  0  0  0  0
 20  3  1  0  0  0  0
 21 20  1  0  0  0  0
 22 26  1  0  0  0  0
 23 27  1  0  0  0  0
 24 11  1  0  0  0  0
 25 12  1  0  0  0  0
 26 21  1  0  0  0  0
 27 25  2  0  0  0  0
 28 24  2  0  0  0  0
 29 19  2  0  0  0  0
 30 19  1  0  0  0  0
 31 22  1  0  0  0  0
 32 22  1  0  0  0  0
 11  7  2  0  0  0  0
 29 28  1  0  0  0  0
  8 23  2  0  0  0  0
 16 15  1  0  0  0  0
  2  1  2  0  0  0  0
M  END
> <IDNUMBER>
F2019-0953

> <Chemical_Name>
N-[3-(dimethylamino)propyl]-3-(2,5-dioxopyrrolidin-1-yl)-N-(4-methyl-1,3-benzothiazol-2-yl)benzamide hydrochloride

> <CAS>
1216504-17-4

> <PriceCoeff>
1.00

> <MW>
450.55

> <Description>
solid

> <FSP3>
0.33

> <clogP>
1.89

> <TPSA>
102.06

> <Acceptor>
4

> <Donor>
1

> <RotBonds>
8

> <HAC>
32

> <Collection>
General

$$$$
F3023-0278
  -ISIS-  06222321462D

 24 25  0  0  0  0  0  0  0  0999 V2000
    7.7750   -5.7750    0.0000 N   0  0  3  0  0  0  0  0  0  0  0  0
    8.2000   -6.3542    0.0000 C   0  0  0  0  0  0  0  0  0  0  0  0
    8.1917   -5.1917    0.0000 C   0  0  0  0  0  0  0  0  0  0  0  0
    8.8792   -6.1292    0.0000 C   0  0  3  0  0  0  0  0  0  0  0  0
    8.8792   -5.4125    0.0000 C   0  0  0  0  0  0  0  0  0  0  0  0
   10.6917   -6.6667    0.0000 C   0  0  0  0  0  0  0  0  0  0  0  0
    9.4625   -6.5417    0.0000 S   0  0  0  0  0  0  0  0  0  0  0  0
   10.1167   -6.2500    0.0000 C   0  0  0  0  0  0  0  0  0  0  0  0
   10.6250   -7.3875    0.0000 C   0  0  0  0  0  0  0  0  0  0  0  0
    7.9792   -7.0375    0.0000 O   0  0  0  0  0  0  0  0  0  0  0  0
    7.9667   -4.5042    0.0000 O   0  0  0  0  0  0  0  0  0  0  0  0
   11.2042   -7.8042    0.0000 O   0  0  0  0  0  0  0  0  0  0  0  0
    7.0542   -5.7792    0.0000 C   0  0  0  0  0  0  0  0  0  0  0  0
    9.9667   -7.6792    0.0000 O   0  0  0  0  0  0  0  0  0  0  0  0
   11.3500   -6.3750    0.0000 C   0  0  0  0  0  0  0  0  0  0  0  0
    6.7042   -6.4042    0.0000 C   0  0  0  0  0  0  0  0  0  0  0  0
   10.1792   -5.5417    0.0000 C   0  0  0  0  0  0  0  0  0  0  0  0
    5.6292   -7.0292    0.0000 O   0  0  0  0  0  0  0  0  0  0  0  0
    5.9875   -6.4042    0.0000 C   0  0  0  0  0  0  0  0  0  0  0  0
    4.9167   -7.0292    0.0000 C   0  0  3  0  0  0  0  0  0  0  0  0
   11.4167   -5.6625    0.0000 C   0  0  0  0  0  0  0  0  0  0  0  0
    4.5625   -7.6542    0.0000 C   0  0  0  0  0  0  0  0  0  0  0  0
    4.5542   -6.4167    0.0000 C   0  0  0  0  0  0  0  0  0  0  0  0
   10.8292   -5.2417    0.0000 C   0  0  0  0  0  0  0  0  0  0  0  0
  2  1  1  0  0  0  0
  3  1  1  0  0  0  0
  4  2  1  0  0  0  0
  5  3  1  0  0  0  0
  6  8  2  0  0  0  0
  7  4  1  0  0  0  0
  8  7  1  0  0  0  0
  9  6  1  0  0  0  0
 10  2  2  0  0  0  0
 11  3  2  0  0  0  0
 12  9  2  0  0  0  0
 13  1  1  0  0  0  0
 14  9  1  0  0  0  0
 15  6  1  0  0  0  0
 16 13  1  0  0  0  0
 17  8  1  0  0  0  0
 18 19  1  0  0  0  0
 19 16  1  0  0  0  0
 20 18  1  0  0  0  0
 21 24  1  0  0  0  0
 22 20  1  0  0  0  0
 23 20  1  0  0  0  0
 24 17  2  0  0  0  0
  5  4  1  0  0  0  0
 21 15  2  0  0  0  0
M  END
> <IDNUMBER>
F3023-0278

> <Chemical_Name>
2-({2,5-dioxo-1-[3-(propan-2-yloxy)propyl]pyrrolidin-3-yl}sulfanyl)benzoic acid

> <CAS>
857493-93-7

> <PriceCoeff>
1.00

> <MW>
351.42

> <Description>
solid

> <FSP3>
0.47

> <clogP>
2.37

> <TPSA>
109.21

> <Acceptor>
5

> <Donor>
0

> <RotBonds>
8

> <HAC>
24

> <Collection>
General

$$$$
F1822-0286
  -ISIS-  06222321142D

 29 33  0  0  0  0  0  0  0  0999 V2000
   -5.9583    3.3833    0.0000 C   0  0  0  0  0  0  0  0  0  0  0  0
   -1.7250    5.0167    0.0000 N   0  0  3  0  0  0  0  0  0  0  0  0
   -6.0167    2.5583    0.0000 N   0  0  0  0  0  0  0  0  0  0  0  0
   -5.2708    3.7833    0.0000 N   0  0  0  0  0  0  0  0  0  0  0  0
   -6.7042    3.7083    0.0000 S   0  0  0  0  0  0  0  0  0  0  0  0
   -6.8292    2.3833    0.0000 C   0  0  0  0  0  0  0  0  0  0  0  0
   -7.2542    3.0958    0.0000 C   0  0  0  0  0  0  0  0  0  0  0  0
   -4.5833    3.3958    0.0000 C   0  0  0  0  0  0  0  0  0  0  0  0
   -0.9625    4.7167    0.0000 C   0  0  0  0  0  0  0  0  0  0  0  0
   -1.6708    5.8417    0.0000 C   0  0  0  0  0  0  0  0  0  0  0  0
   -7.2417    1.6708    0.0000 C   0  0  0  0  0  0  0  0  0  0  0  0
   -8.0875    3.0958    0.0000 C   0  0  0  0  0  0  0  0  0  0  0  0
   -8.0667    1.6500    0.0000 C   0  0  0  0  0  0  0  0  0  0  0  0
   -8.4917    2.3750    0.0000 C   0  0  0  0  0  0  0  0  0  0  0  0
   -2.4458    4.6042    0.0000 C   0  0  0  0  0  0  0  0  0  0  0  0
   -3.8708    3.8000    0.0000 C   0  0  0  0  0  0  0  0  0  0  0  0
   -9.3167    2.3625    0.0000 O   0  0  0  0  0  0  0  0  0  0  0  0
   -8.4667    0.9333    0.0000 O   0  0  0  0  0  0  0  0  0  0  0  0
   -4.5833    2.6000    0.0000 O   0  0  0  0  0  0  0  0  0  0  0  0
   -0.8625    6.0417    0.0000 C   0  0  0  0  0  0  0  0  0  0  0  0
   -0.4458    5.3417    0.0000 C   0  0  0  0  0  0  0  0  0  0  0  0
   -2.3083    6.3917    0.0000 O   0  0  0  0  0  0  0  0  0  0  0  0
   -0.7625    3.9250    0.0000 O   0  0  0  0  0  0  0  0  0  0  0  0
   -3.1583    5.0292    0.0000 C   0  0  0  0  0  0  0  0  0  0  0  0
   -2.4500    3.8000    0.0000 C   0  0  0  0  0  0  0  0  0  0  0  0
   -3.1625    3.3958    0.0000 C   0  0  0  0  0  0  0  0  0  0  0  0
   -3.8708    4.6250    0.0000 C   0  0  0  0  0  0  0  0  0  0  0  0
   -9.3042    0.9208    0.0000 C   0  0  0  0  0  0  0  0  0  0  0  0
   -9.7292    1.6333    0.0000 C   0  0  0  0  0  0  0  0  0  0  0  0
  2 15  1  0  0  0  0
  3  1  2  0  0  0  0
  4  1  1  0  0  0  0
  5  1  1  0  0  0  0
  6  3  1  0  0  0  0
  7  5  1  0  0  0  0
  8  4  1  0  0  0  0
  9  2  1  0  0  0  0
 10  2  1  0  0  0  0
 11  6  1  0  0  0  0
 12  7  1  0  0  0  0
 13 11  2  0  0  0  0
 14 12  2  0  0  0  0
 15 24  1  0  0  0  0
 16  8  1  0  0  0  0
 17 14  1  0  0  0  0
 18 13  1  0  0  0  0
 19  8  2  0  0  0  0
 20 10  1  0  0  0  0
 21  9  1  0  0  0  0
 22 10  2  0  0  0  0
 23  9  2  0  0  0  0
 24 27  2  0  0  0  0
 25 26  1  0  0  0  0
 26 16  2  0  0  0  0
 27 16  1  0  0  0  0
 28 18  1  0  0  0  0
 29 17  1  0  0  0  0
  7  6  2  0  0  0  0
 14 13  1  0  0  0  0
 15 25  2  0  0  0  0
 28 29  1  0  0  0  0
 21 20  1  0  0  0  0
M  END
> <IDNUMBER>
F1822-0286

> <Chemical_Name>
N-{10,13-dioxa-4-thia-6-azatricyclo[7.4.0.0^{3,7}]trideca-1,3(7),5,8-tetraen-5-yl}-4-(2,5-dioxopyrrolidin-1-yl)benzamide

> <CAS>
892857-79-3

> <PriceCoeff>
1.00

> <MW>
409.42

> <Description>
solid

> <FSP3>
0.20

> <clogP>
2.11

> <TPSA>
126.07

> <Acceptor>
6

> <Donor>
1

> <RotBonds>
3

> <HAC>
29

> <Collection>
General

$$$$
F0293-0071
  -ISIS-  06222304342D

 32 33  0  0  0  0  0  0  0  0999 V2000
    2.2125    0.8458    0.0000 N   0  3  0  0  0  0  0  0  0  0  0  0
    1.4167    0.5958    0.0000 C   0  0  0  0  0  0  0  0  0  0  0  0
    1.4167   -0.2417    0.0000 C   0  0  0  0  0  0  0  0  0  0  0  0
    2.2125   -0.4917    0.0000 N   0  0  3  0  0  0  0  0  0  0  0  0
    2.6875    0.1625    0.0000 C   0  0  0  0  0  0  0  0  0  0  0  0
    0.0000    0.5708    0.0000 C   0  0  0  0  0  0  0  0  0  0  0  0
    0.7167   -0.6417    0.0000 C   0  0  0  0  0  0  0  0  0  0  0  0
    0.7167    1.0083    0.0000 C   0  0  0  0  0  0  0  0  0  0  0  0
    0.0000   -0.2417    0.0000 C   0  0  0  0  0  0  0  0  0  0  0  0
   -0.7458    0.9750    0.0000 C   0  0  3  0  0  0  0  0  0  0  0  0
    2.4667    1.6458    0.0000 C   0  0  0  0  0  0  0  0  0  0  0  0
    0.7167   -1.4875    0.0000 F   0  0  0  0  0  0  0  0  0  0  0  0
    0.7167    1.8125    0.0000 F   0  0  0  0  0  0  0  0  0  0  0  0
   -0.7458   -0.6250    0.0000 F   0  0  0  0  0  0  0  0  0  0  0  0
   -0.3333    1.7083    0.0000 F   0  0  0  0  0  0  0  0  0  0  0  0
   -1.1208    0.2458    0.0000 F   0  0  0  0  0  0  0  0  0  0  0  0
   -1.4708    1.3583    0.0000 F   0  0  0  0  0  0  0  0  0  0  0  0
    2.4667   -1.3125    0.0000 C   0  0  0  0  0  0  0  0  0  0  0  0
    3.5042    0.1625    0.0000 C   0  0  0  0  0  0  0  0  0  0  0  0
    3.2750    1.8125    0.0000 C   0  0  0  0  0  0  0  0  0  0  0  0
    3.2750   -1.4875    0.0000 C   0  0  0  0  0  0  0  0  0  0  0  0
    6.2798    1.1400    0.0000 S   0  0  3  0  0  0  0  0  0  0  0  0
    5.9454    0.3877    0.0000 C   0  0  0  0  0  0  0  0  0  0  0  0
    7.0322    0.8056    0.0000 O   0  5  0  0  0  0  0  0  0  0  0  0
    6.6118    1.8957    0.0000 O   0  0  0  0  0  0  0  0  0  0  0  0
    5.5251    1.4778    0.0000 O   0  0  0  0  0  0  0  0  0  0  0  0
    6.4348   -0.2868    0.0000 C   0  0  0  0  0  0  0  0  0  0  0  0
    5.1265    0.3031    0.0000 C   0  0  0  0  0  0  0  0  0  0  0  0
    6.1004   -1.0391    0.0000 C   0  0  0  0  0  0  0  0  0  0  0  0
    4.7969   -0.4559    0.0000 C   0  0  0  0  0  0  0  0  0  0  0  0
    5.2815   -1.1236    0.0000 C   0  0  0  0  0  0  0  0  0  0  0  0
    4.9437   -1.8784    0.0000 C   0  0  0  0  0  0  0  0  0  0  0  0
 13  8  1  0  0  0  0
 14  9  1  0  0  0  0
 15 10  1  0  0  0  0
 16 10  1  0  0  0  0
 17 10  1  0  0  0  0
 18  4  1  0  0  0  0
 19  5  1  0  0  0  0
 20 11  1  0  0  0  0
 21 18  1  0  0  0  0
  3  4  1  0  0  0  0
  9  7  2  0  0  0  0
  2  1  1  0  0  0  0
  3  2  2  0  0  0  0
  4  5  1  0  0  0  0
  5  1  2  0  0  0  0
  6  8  2  0  0  0  0
  7  3  1  0  0  0  0
  8  2  1  0  0  0  0
  9  6  1  0  0  0  0
 10  6  1  0  0  0  0
 11  1  1  0  0  0  0
 12  7  1  0  0  0  0
 23 22  1  0  0  0  0
 24 22  1  0  0  0  0
 25 22  2  0  0  0  0
 26 22  2  0  0  0  0
 27 23  1  0  0  0  0
 28 23  2  0  0  0  0
 29 27  2  0  0  0  0
 30 28  1  0  0  0  0
 31 30  2  0  0  0  0
 32 31  1  0  0  0  0
 31 29  1  0  0  0  0
M  CHG  2   1   1  24  -1
M  END
> <IDNUMBER>
F0293-0071

> <Chemical_Name>
1,3-diethyl-4,6,7-trifluoro-2-methyl-5-(trifluoromethyl)-1H-1,3-benzodiazol-3-ium 4-methylbenzene-1-sulfonate

> <CAS>
1059176-16-7

> <PriceCoeff>
1.00

> <MW>
311.25

> <Description>
solid

> <FSP3>
0.46

> <clogP>
-0.66

> <TPSA>
8.81

> <Acceptor>
0

> <Donor>
0

> <RotBonds>
2

> <HAC>
21

> <Collection>
General

> <Reference_compound>
PRI5741

> <Similarity>
0.8100

$$$$
F2189-0261
  -ISIS-  06222321142D

 19 21  0  0  0  0  0  0  0  0999 V2000
   10.7917  -16.6750    0.0000 N   0  0  3  0  0  0  0  0  0  0  0  0
   10.7917  -17.5000    0.0000 C   0  0  0  0  0  0  0  0  0  0  0  0
   11.5042  -16.2542    0.0000 C   0  0  0  0  0  0  0  0  0  0  0  0
   11.5042  -15.4292    0.0000 C   0  0  0  0  0  0  0  0  0  0  0  0
   12.2167  -16.6667    0.0000 C   0  0  0  0  0  0  0  0  0  0  0  0
   11.5042  -17.9125    0.0000 O   0  0  0  0  0  0  0  0  0  0  0  0
   10.0792  -17.9125    0.0000 C   0  0  0  0  0  0  0  0  0  0  0  0
   12.2167  -15.0167    0.0000 C   0  0  0  0  0  0  0  0  0  0  0  0
   10.0750  -16.2542    0.0000 C   0  0  0  0  0  0  0  0  0  0  0  0
   12.9292  -15.4292    0.0000 C   0  0  0  0  0  0  0  0  0  0  0  0
   12.9292  -16.2542    0.0000 C   0  0  0  0  0  0  0  0  0  0  0  0
   13.6417  -15.0125    0.0000 N   0  0  0  0  0  0  0  0  0  0  0  0
   10.7917  -15.0167    0.0000 C   0  0  0  0  0  0  0  0  0  0  0  0
   10.0750  -15.4292    0.0000 C   0  0  0  0  0  0  0  0  0  0  0  0
    9.3667  -17.5000    0.0000 C   0  0  0  0  0  0  0  0  0  0  0  0
   10.0792  -18.7292    0.0000 C   0  0  0  0  0  0  0  0  0  0  0  0
    9.3750  -19.1500    0.0000 C   0  0  0  0  0  0  0  0  0  0  0  0
    8.6542  -17.9125    0.0000 C   0  0  0  0  0  0  0  0  0  0  0  0
    8.6542  -18.7375    0.0000 C   0  0  0  0  0  0  0  0  0  0  0  0
  2  1  1  0  0  0  0
  3  1  1  0  0  0  0
  4  3  2  0  0  0  0
  5  3  1  0  0  0  0
  6  2  2  0  0  0  0
  7  2  1  0  0  0  0
  8  4  1  0  0  0  0
  9  1  1  0  0  0  0
 10 11  1  0  0  0  0
 11  5  2  0  0  0  0
 12 10  1  0  0  0  0
 13 14  1  0  0  0  0
 14  9  1  0  0  0  0
 15  7  2  0  0  0  0
 16  7  1  0  0  0  0
 17 16  2  0  0  0  0
 18 15  1  0  0  0  0
 19 17  1  0  0  0  0
  4 13  1  0  0  0  0
 10  8  2  0  0  0  0
 18 19  2  0  0  0  0
M  END
> <IDNUMBER>
F2189-0261

> <Chemical_Name>
1-benzoyl-1,2,3,4-tetrahydroquinolin-6-amine

> <CAS>
857759-22-9

> <PriceCoeff>
1.00

> <MW>
252.31

> <Description>
solid

> <FSP3>
0.19

> <clogP>
1.81

> <TPSA>
46.33

> <Acceptor>
2

> <Donor>
1

> <RotBonds>
2

> <HAC>
19

> <Collection>
General

> <Reference_compound>
CHEMBL2286415

> <Similarity>
0.8140

$$$$
F3023-0617
  -ISIS-  06222321152D

 24 26  0  0  0  0  0  0  0  0999 V2000
    2.3750   -4.1875    0.0000 N   0  0  3  0  0  0  0  0  0  0  0  0
    2.8542   -3.5167    0.0000 C   0  0  0  0  0  0  0  0  0  0  0  0
    2.8667   -4.8542    0.0000 C   0  0  0  0  0  0  0  0  0  0  0  0
    3.6500   -4.5917    0.0000 C   0  0  3  0  0  0  0  0  0  0  0  0
    3.6417   -3.7667    0.0000 C   0  0  0  0  0  0  0  0  0  0  0  0
    5.0667   -4.7375    0.0000 C   0  0  0  0  0  0  0  0  0  0  0  0
    5.7375   -5.2167    0.0000 C   0  0  0  0  0  0  0  0  0  0  0  0
    4.3167   -5.0750    0.0000 S   0  0  0  0  0  0  0  0  0  0  0  0
    5.6542   -6.0417    0.0000 C   0  0  0  0  0  0  0  0  0  0  0  0
    1.5500   -4.1917    0.0000 C   0  0  0  0  0  0  0  0  0  0  0  0
    5.1500   -3.9167    0.0000 N   0  0  0  0  0  0  0  0  0  0  0  0
    2.6000   -2.7292    0.0000 O   0  0  0  0  0  0  0  0  0  0  0  0
    2.6125   -5.6375    0.0000 O   0  0  0  0  0  0  0  0  0  0  0  0
    6.3167   -6.5250    0.0000 O   0  0  0  0  0  0  0  0  0  0  0  0
    1.1375   -3.4792    0.0000 C   0  0  0  0  0  0  0  0  0  0  0  0
    1.1417   -4.9042    0.0000 C   0  0  0  0  0  0  0  0  0  0  0  0
    4.9000   -6.3792    0.0000 O   0  0  0  0  0  0  0  0  0  0  0  0
    0.3250   -4.9125    0.0000 C   0  0  0  0  0  0  0  0  0  0  0  0
    0.3125   -3.4792    0.0000 C   0  0  0  0  0  0  0  0  0  0  0  0
   -0.0958   -4.1917    0.0000 C   0  0  0  0  0  0  0  0  0  0  0  0
    6.4875   -4.8792    0.0000 C   0  0  0  0  0  0  0  0  0  0  0  0
    5.8917   -3.5792    0.0000 C   0  0  0  0  0  0  0  0  0  0  0  0
   -0.9208   -4.2042    0.0000 C   0  0  0  0  0  0  0  0  0  0  0  0
    6.5667   -4.0542    0.0000 C   0  0  0  0  0  0  0  0  0  0  0  0
  2  1  1  0  0  0  0
  3  1  1  0  0  0  0
  4  3  1  0  0  0  0
  5  2  1  0  0  0  0
  6  8  1  0  0  0  0
  7  6  2  0  0  0  0
  8  4  1  0  0  0  0
  9  7  1  0  0  0  0
 10  1  1  0  0  0  0
 11  6  1  0  0  0  0
 12  2  2  0  0  0  0
 13  3  2  0  0  0  0
 14  9  2  0  0  0  0
 15 10  2  0  0  0  0
 16 10  1  0  0  0  0
 17  9  1  0  0  0  0
 18 16  2  0  0  0  0
 19 15  1  0  0  0  0
 20 18  1  0  0  0  0
 21  7  1  0  0  0  0
 22 11  2  0  0  0  0
 23 20  1  0  0  0  0
 24 22  1  0  0  0  0
  5  4  1  0  0  0  0
 20 19  2  0  0  0  0
 24 21  2  0  0  0  0
M  END
> <IDNUMBER>
F3023-0617

> <Chemical_Name>
2-{[1-(4-methylphenyl)-2,5-dioxopyrrolidin-3-yl]sulfanyl}pyridine-3-carboxylic acid

> <CAS>
838874-00-3

> <PriceCoeff>
1.00

> <MW>
342.37

> <Description>
solid

> <FSP3>
0.18

> <clogP>
2.01

> <TPSA>
112.87

> <Acceptor>
5

> <Donor>
1

> <RotBonds>
4

> <HAC>
24

> <Collection>
General

$$$$
F2135-1745
  -ISIS-  06222321142D

 15 16  0  0  0  0  0  0  0  0999 V2000
    6.7875   -4.3917    0.0000 S   0  0  0  0  0  0  0  0  0  0  0  0
    9.6417   -5.2042    0.0000 C   0  0  0  0  0  0  0  0  0  0  0  0
    7.5000   -3.9750    0.0000 C   0  0  0  0  0  0  0  0  0  0  0  0
    8.2167   -4.3833    0.0000 C   0  0  0  0  0  0  0  0  0  0  0  0
    6.0667   -3.9792    0.0000 C   0  0  0  0  0  0  0  0  0  0  0  0
   10.3542   -5.6167    0.0000 F   0  0  0  0  0  0  0  0  0  0  0  0
    9.6375   -4.3792    0.0000 C   0  0  0  0  0  0  0  0  0  0  0  0
    8.9250   -5.6250    0.0000 C   0  0  0  0  0  0  0  0  0  0  0  0
    8.9250   -3.9667    0.0000 C   0  0  0  0  0  0  0  0  0  0  0  0
    8.2125   -5.2125    0.0000 C   0  0  0  0  0  0  0  0  0  0  0  0
    6.0667   -3.1500    0.0000 C   0  0  0  0  0  0  0  0  0  0  0  0
    5.3542   -4.3917    0.0000 C   0  0  0  0  0  0  0  0  0  0  0  0
    5.3542   -2.7375    0.0000 C   0  0  0  0  0  0  0  0  0  0  0  0
    4.6417   -3.9792    0.0000 C   0  0  0  0  0  0  0  0  0  0  0  0
    4.6417   -3.1500    0.0000 C   0  0  0  0  0  0  0  0  0  0  0  0
  2  8  2  0  0  0  0
  3  1  1  0  0  0  0
  4  3  1  0  0  0  0
  5  1  1  0  0  0  0
  6  2  1  0  0  0  0
  7  9  2  0  0  0  0
  8 10  1  0  0  0  0
  9  4  1  0  0  0  0
 10  4  2  0  0  0  0
 11  5  1  0  0  0  0
 12  5  2  0  0  0  0
 13 11  2  0  0  0  0
 14 12  1  0  0  0  0
 15 14  2  0  0  0  0
 13 15  1  0  0  0  0
  7  2  1  0  0  0  0
M  END
> <IDNUMBER>
F2135-1745

> <Chemical_Name>
1-fluoro-4-[(phenylsulfanyl)methyl]benzene

> <CAS>
351-66-6

> <PriceCoeff>
1.00

> <MW>
218.29

> <Description>
solid

> <FSP3>
0.08

> <clogP>
4.41

> <TPSA>
0.00

> <Acceptor>
0

> <Donor>
0

> <RotBonds>
3

> <HAC>
15

> <Collection>
General

> <Reference_compound>
PRI4736

> <Similarity>
0.8330

$$$$
F2518-0480
  -ISIS-  06222321462D

 28 31  0  0  0  0  0  0  0  0999 V2000
   -3.1583    5.0292    0.0000 C   0  0  0  0  0  0  0  0  0  0  0  0
   -3.8708    0.5083    0.0000 N   0  0  3  0  0  0  0  0  0  0  0  0
   -3.8250    5.5167    0.0000 O   0  0  0  0  0  0  0  0  0  0  0  0
   -3.5750    6.2917    0.0000 C   0  0  0  0  0  0  0  0  0  0  0  0
   -2.7458    6.2917    0.0000 N   0  0  0  0  0  0  0  0  0  0  0  0
   -3.1583    4.2042    0.0000 N   0  0  0  0  0  0  0  0  0  0  0  0
   -2.4833    5.5042    0.0000 N   0  0  0  0  0  0  0  0  0  0  0  0
   -3.8708    3.8000    0.0000 C   0  0  0  0  0  0  0  0  0  0  0  0
   -4.5083   -0.0042    0.0000 C   0  0  0  0  0  0  0  0  0  0  0  0
   -3.1833    0.0458    0.0000 C   0  0  0  0  0  0  0  0  0  0  0  0
   -3.8708    1.3333    0.0000 C   0  0  0  0  0  0  0  0  0  0  0  0
   -4.0583    6.9542    0.0000 C   0  0  0  0  0  0  0  0  0  0  0  0
   -3.8708    2.9833    0.0000 C   0  0  0  0  0  0  0  0  0  0  0  0
   -4.5833    4.2042    0.0000 O   0  0  0  0  0  0  0  0  0  0  0  0
   -4.2250   -0.7667    0.0000 C   0  0  0  0  0  0  0  0  0  0  0  0
   -3.4125   -0.7500    0.0000 C   0  0  0  0  0  0  0  0  0  0  0  0
   -5.3083    0.2208    0.0000 O   0  0  0  0  0  0  0  0  0  0  0  0
   -2.3958    0.3333    0.0000 O   0  0  0  0  0  0  0  0  0  0  0  0
   -3.1500    1.7458    0.0000 C   0  0  0  0  0  0  0  0  0  0  0  0
   -4.5833    1.7458    0.0000 C   0  0  0  0  0  0  0  0  0  0  0  0
   -4.5708    2.5708    0.0000 C   0  0  0  0  0  0  0  0  0  0  0  0
   -3.1458    2.5625    0.0000 C   0  0  0  0  0  0  0  0  0  0  0  0
   -4.8583    6.8667    0.0000 C   0  0  0  0  0  0  0  0  0  0  0  0
   -3.7125    7.7042    0.0000 C   0  0  0  0  0  0  0  0  0  0  0  0
   -5.0208    8.2875    0.0000 C   0  0  0  0  0  0  0  0  0  0  0  0
   -4.1958    8.3750    0.0000 C   0  0  0  0  0  0  0  0  0  0  0  0
   -5.3500    7.5292    0.0000 C   0  0  0  0  0  0  0  0  0  0  0  0
   -5.5000    8.9542    0.0000 Br  0  0  0  0  0  0  0  0  0  0  0  0
  2 11  1  0  0  0  0
  3  1  1  0  0  0  0
  4  3  1  0  0  0  0
  5  7  1  0  0  0  0
  6  1  1  0  0  0  0
  7  1  2  0  0  0  0
  8  6  1  0  0  0  0
  9  2  1  0  0  0  0
 10  2  1  0  0  0  0
 11 19  1  0  0  0  0
 12  4  1  0  0  0  0
 13  8  1  0  0  0  0
 14  8  2  0  0  0  0
 15  9  1  0  0  0  0
 16 10  1  0  0  0  0
 17  9  2  0  0  0  0
 18 10  2  0  0  0  0
 19 22  2  0  0  0  0
 20 21  1  0  0  0  0
 21 13  2  0  0  0  0
 22 13  1  0  0  0  0
 23 12  1  0  0  0  0
 24 12  2  0  0  0  0
 25 26  2  0  0  0  0
 26 24  1  0  0  0  0
 27 23  2  0  0  0  0
 28 25  1  0  0  0  0
  5  4  2  0  0  0  0
 20 11  2  0  0  0  0
 27 25  1  0  0  0  0
 16 15  1  0  0  0  0
M  END
> <IDNUMBER>
F2518-0480

> <Chemical_Name>
N-[5-(4-bromophenyl)-1,3,4-oxadiazol-2-yl]-4-(2,5-dioxopyrrolidin-1-yl)benzamide

> <CAS>
905677-58-9

> <PriceCoeff>
1.00

> <MW>
441.23

> <Description>
solid

> <FSP3>
0.11

> <clogP>
1.46

> <TPSA>
105.40

> <Acceptor>
6

> <Donor>
1

> <RotBonds>
4

> <HAC>
28

> <Collection>
General

$$$$
F2518-0498
  -ISIS-  06222321462D

 28 31  0  0  0  0  0  0  0  0999 V2000
   -5.2958    1.3333    0.0000 N   0  0  3  0  0  0  0  0  0  0  0  0
   -3.1583    5.0292    0.0000 C   0  0  0  0  0  0  0  0  0  0  0  0
   -3.8250    5.5167    0.0000 O   0  0  0  0  0  0  0  0  0  0  0  0
   -3.5750    6.2917    0.0000 C   0  0  0  0  0  0  0  0  0  0  0  0
   -2.7458    6.2917    0.0000 N   0  0  0  0  0  0  0  0  0  0  0  0
   -3.1583    4.2042    0.0000 N   0  0  0  0  0  0  0  0  0  0  0  0
   -2.4833    5.5042    0.0000 N   0  0  0  0  0  0  0  0  0  0  0  0
   -4.5833    1.7458    0.0000 C   0  0  0  0  0  0  0  0  0  0  0  0
   -3.8708    3.8000    0.0000 C   0  0  0  0  0  0  0  0  0  0  0  0
   -6.0167    1.7083    0.0000 C   0  0  0  0  0  0  0  0  0  0  0  0
   -5.4083    0.5208    0.0000 C   0  0  0  0  0  0  0  0  0  0  0  0
   -4.5833    2.5708    0.0000 C   0  0  0  0  0  0  0  0  0  0  0  0
   -3.8708    2.9833    0.0000 C   0  0  0  0  0  0  0  0  0  0  0  0
   -4.0583    6.9542    0.0000 C   0  0  0  0  0  0  0  0  0  0  0  0
   -4.5833    4.2042    0.0000 O   0  0  0  0  0  0  0  0  0  0  0  0
   -6.5917    1.0958    0.0000 C   0  0  0  0  0  0  0  0  0  0  0  0
   -6.2125    0.3750    0.0000 C   0  0  0  0  0  0  0  0  0  0  0  0
   -6.1542    2.5208    0.0000 O   0  0  0  0  0  0  0  0  0  0  0  0
   -4.8333   -0.0542    0.0000 O   0  0  0  0  0  0  0  0  0  0  0  0
   -3.7125    7.7042    0.0000 C   0  0  0  0  0  0  0  0  0  0  0  0
   -4.8583    6.8667    0.0000 C   0  0  0  0  0  0  0  0  0  0  0  0
   -5.0208    8.2875    0.0000 C   0  0  0  0  0  0  0  0  0  0  0  0
   -5.3500    7.5292    0.0000 C   0  0  0  0  0  0  0  0  0  0  0  0
   -4.1958    8.3750    0.0000 C   0  0  0  0  0  0  0  0  0  0  0  0
   -3.8708    1.3333    0.0000 C   0  0  0  0  0  0  0  0  0  0  0  0
   -5.5000    8.9542    0.0000 Br  0  0  0  0  0  0  0  0  0  0  0  0
   -3.1500    2.5833    0.0000 C   0  0  0  0  0  0  0  0  0  0  0  0
   -3.1500    1.7500    0.0000 C   0  0  0  0  0  0  0  0  0  0  0  0
  2  6  1  0  0  0  0
  3  2  1  0  0  0  0
  4  3  1  0  0  0  0
  5  7  1  0  0  0  0
  6  9  1  0  0  0  0
  7  2  2  0  0  0  0
  8  1  1  0  0  0  0
  9 13  1  0  0  0  0
 10  1  1  0  0  0  0
 11  1  1  0  0  0  0
 12  8  1  0  0  0  0
 13 12  2  0  0  0  0
 14  4  1  0  0  0  0
 15  9  2  0  0  0  0
 16 10  1  0  0  0  0
 17 11  1  0  0  0  0
 18 10  2  0  0  0  0
 19 11  2  0  0  0  0
 20 14  2  0  0  0  0
 21 14  1  0  0  0  0
 22 23  1  0  0  0  0
 23 21  2  0  0  0  0
 24 20  1  0  0  0  0
 25  8  2  0  0  0  0
 26 22  1  0  0  0  0
 27 28  2  0  0  0  0
 28 25  1  0  0  0  0
 17 16  1  0  0  0  0
 13 27  1  0  0  0  0
  5  4  2  0  0  0  0
 24 22  2  0  0  0  0
M  END
> <IDNUMBER>
F2518-0498

> <Chemical_Name>
N-[5-(4-bromophenyl)-1,3,4-oxadiazol-2-yl]-3-(2,5-dioxopyrrolidin-1-yl)benzamide

> <CAS>
897735-64-7

> <PriceCoeff>
1.00

> <MW>
441.23

> <Description>
solid

> <FSP3>
0.11

> <clogP>
1.46

> <TPSA>
105.40

> <Acceptor>
6

> <Donor>
1

> <RotBonds>
4

> <HAC>
28

> <Collection>
General

$$$$
F2748-0183
  -ISIS-  06222321462D

 24 26  0  0  0  0  0  0  0  0999 V2000
   -2.3708    1.6958    0.0000 S   0  0  3  0  0  0  0  0  0  0  0  0
   -1.8875    2.3625    0.0000 N   0  0  3  0  0  0  0  0  0  0  0  0
   -2.3833    3.0333    0.0000 C   0  0  0  0  0  0  0  0  0  0  0  0
   -3.1625    2.7708    0.0000 C   0  0  0  0  0  0  0  0  0  0  0  0
   -3.1583    1.9458    0.0000 C   0  0  0  0  0  0  0  0  0  0  0  0
   -1.0875    2.9250    0.0000 C   0  0  0  0  0  0  0  0  0  0  0  0
   -0.3500    2.7833    0.0000 C   0  0  0  0  0  0  0  0  0  0  0  0
    1.0167    2.3833    0.0000 C   0  0  0  0  0  0  0  0  0  0  0  0
   -2.0583    0.9250    0.0000 O   0  0  0  0  0  0  0  0  0  0  0  0
   -3.0583    1.1750    0.0000 O   0  0  0  0  0  0  0  0  0  0  0  0
    0.2167    2.1875    0.0000 N   0  0  0  0  0  0  0  0  0  0  0  0
    1.5875    1.7833    0.0000 C   0  0  0  0  0  0  0  0  0  0  0  0
   -2.3333    3.8000    0.0000 O   0  0  0  0  0  0  0  0  0  0  0  0
    1.2542    3.1750    0.0000 C   0  0  0  0  0  0  0  0  0  0  0  0
   -0.4625    3.5208    0.0000 O   0  0  0  0  0  0  0  0  0  0  0  0
    2.0542    3.3708    0.0000 C   0  0  0  0  0  0  0  0  0  0  0  0
    2.3792    1.9750    0.0000 C   0  0  0  0  0  0  0  0  0  0  0  0
   -3.8750    3.1833    0.0000 C   0  0  0  0  0  0  0  0  0  0  0  0
    2.6167    2.7708    0.0000 C   0  0  0  0  0  0  0  0  0  0  0  0
   -3.8750    1.5333    0.0000 C   0  0  0  0  0  0  0  0  0  0  0  0
    2.9542    1.3833    0.0000 Cl  0  0  0  0  0  0  0  0  0  0  0  0
    0.6875    3.7750    0.0000 O   0  0  0  0  0  0  0  0  0  0  0  0
   -4.5833    2.7708    0.0000 C   0  0  0  0  0  0  0  0  0  0  0  0
   -4.5833    1.9458    0.0000 C   0  0  0  0  0  0  0  0  0  0  0  0
  2  1  1  0  0  0  0
  3  2  1  0  0  0  0
  4  5  2  0  0  0  0
  5  1  1  0  0  0  0
  6  2  1  0  0  0  0
  7  6  1  0  0  0  0
  8 11  1  0  0  0  0
  9  1  2  0  0  0  0
 10  1  2  0  0  0  0
 11  7  1  0  0  0  0
 12  8  2  0  0  0  0
 13  3  2  0  0  0  0
 14  8  1  0  0  0  0
 15  7  2  0  0  0  0
 16 14  2  0  0  0  0
 17 12  1  0  0  0  0
 18  4  1  0  0  0  0
 19 16  1  0  0  0  0
 20  5  1  0  0  0  0
 21 17  1  0  0  0  0
 22 14  1  0  0  0  0
 23 24  1  0  0  0  0
 24 20  2  0  0  0  0
  4  3  1  0  0  0  0
 23 18  2  0  0  0  0
 17 19  2  0  0  0  0
M  END
> <IDNUMBER>
F2748-0183

> <Chemical_Name>
N-(5-chloro-2-hydroxyphenyl)-2-(1,1,3-trioxo-2,3-dihydro-1lambda6,2-benzothiazol-2-yl)acetamide

> <CAS>
899954-23-5

> <PriceCoeff>
1.00

> <MW>
366.78

> <Description>
solid

> <FSP3>
0.07

> <clogP>
2.26

> <TPSA>
112.16

> <Acceptor>
5

> <Donor>
2

> <RotBonds>
3

> <HAC>
24

> <Collection>
General

$$$$
F2257-0298
  -ISIS-  06222321142D

 24 27  0  0  0  0  0  0  0  0999 V2000
   -2.8583    7.4917    0.0000 N   0  0  0  0  0  0  0  0  0  0  0  0
   -2.0333    7.5792    0.0000 C   0  0  0  0  0  0  0  0  0  0  0  0
   -3.0375    6.6875    0.0000 C   0  0  0  0  0  0  0  0  0  0  0  0
   -2.3208    6.2667    0.0000 C   0  0  0  0  0  0  0  0  0  0  0  0
   -3.7500    3.8000    0.0000 C   0  0  0  0  0  0  0  0  0  0  0  0
   -4.4750    2.5625    0.0000 C   0  0  0  0  0  0  0  0  0  0  0  0
   -1.7083    6.8167    0.0000 C   0  0  0  0  0  0  0  0  0  0  0  0
   -3.0375    4.2125    0.0000 N   0  0  0  0  0  0  0  0  0  0  0  0
   -3.7583    2.9833    0.0000 C   0  0  0  0  0  0  0  0  0  0  0  0
   -4.4750    1.7333    0.0000 C   0  0  0  0  0  0  0  0  0  0  0  0
   -2.3250    5.4417    0.0000 C   0  0  0  0  0  0  0  0  0  0  0  0
   -3.0375    5.0292    0.0000 C   0  0  0  0  0  0  0  0  0  0  0  0
   -1.6208    8.2917    0.0000 O   0  0  0  0  0  0  0  0  0  0  0  0
   -4.4708    4.2042    0.0000 O   0  0  0  0  0  0  0  0  0  0  0  0
   -3.7583    6.2792    0.0000 C   0  0  0  0  0  0  0  0  0  0  0  0
   -5.1958    1.3208    0.0000 C   0  0  0  0  0  0  0  0  0  0  0  0
   -3.7583    5.4500    0.0000 C   0  0  0  0  0  0  0  0  0  0  0  0
   -5.1875    2.9833    0.0000 C   0  0  0  0  0  0  0  0  0  0  0  0
   -5.9083    2.5625    0.0000 C   0  0  0  0  0  0  0  0  0  0  0  0
   -3.7625    1.3208    0.0000 C   0  0  0  0  0  0  0  0  0  0  0  0
   -5.9083    1.7333    0.0000 C   0  0  0  0  0  0  0  0  0  0  0  0
   -5.1875    0.4958    0.0000 C   0  0  0  0  0  0  0  0  0  0  0  0
   -3.7625    0.4958    0.0000 C   0  0  0  0  0  0  0  0  0  0  0  0
   -4.4958    0.0750    0.0000 C   0  0  0  0  0  0  0  0  0  0  0  0
  2  1  1  0  0  0  0
  3  1  1  0  0  0  0
  4  3  2  0  0  0  0
  5  8  1  0  0  0  0
  6  9  1  0  0  0  0
  7  2  1  0  0  0  0
  8 12  1  0  0  0  0
  9  5  1  0  0  0  0
 10  6  1  0  0  0  0
 11  4  1  0  0  0  0
 12 17  1  0  0  0  0
 13  2  2  0  0  0  0
 14  5  2  0  0  0  0
 15  3  1  0  0  0  0
 16 10  1  0  0  0  0
 17 15  2  0  0  0  0
 18  6  2  0  0  0  0
 19 18  1  0  0  0  0
 20 10  2  0  0  0  0
 21 19  2  0  0  0  0
 22 16  2  0  0  0  0
 23 20  1  0  0  0  0
 24 23  2  0  0  0  0
  4  7  1  0  0  0  0
 11 12  2  0  0  0  0
 21 16  1  0  0  0  0
 24 22  1  0  0  0  0
M  END
> <IDNUMBER>
F2257-0298

> <Chemical_Name>
2-(naphthalen-1-yl)-N-(2-oxo-2,3-dihydro-1H-indol-5-yl)acetamide

> <CAS>
921814-50-8

> <PriceCoeff>
1.00

> <MW>
316.35

> <Description>
solid

> <FSP3>
0.10

> <clogP>
2.44

> <TPSA>
58.20

> <Acceptor>
2

> <Donor>
2

> <RotBonds>
3

> <HAC>
24

> <Collection>
General

> <Reference_compound>
CHEMBL40823

> <Similarity>
0.8300

$$$$
F1918-0038
  -ISIS-  06222321442D

 13 14  0  0  0  0  0  0  0  0999 V2000
   13.7542   -3.6417    0.0000 C   0  0  0  0  0  0  0  0  0  0  0  0
   14.4667   -2.4042    0.0000 C   0  0  0  0  0  0  0  0  0  0  0  0
   14.4667   -4.0542    0.0000 O   0  0  0  0  0  0  0  0  0  0  0  0
   15.1792   -3.6417    0.0000 C   0  0  0  0  0  0  0  0  0  0  0  0
   13.7542   -2.8167    0.0000 C   0  0  0  0  0  0  0  0  0  0  0  0
   15.1792   -2.8167    0.0000 C   0  0  0  0  0  0  0  0  0  0  0  0
   13.0417   -4.0500    0.0000 C   0  0  0  0  0  0  0  0  0  0  0  0
   13.0417   -2.4000    0.0000 C   0  0  0  0  0  0  0  0  0  0  0  0
   15.8917   -4.0625    0.0000 O   0  0  0  0  0  0  0  0  0  0  0  0
   12.3375   -3.6417    0.0000 C   0  0  0  0  0  0  0  0  0  0  0  0
   12.3375   -2.8167    0.0000 C   0  0  0  0  0  0  0  0  0  0  0  0
   14.4750   -1.5792    0.0000 C   0  0  0  0  0  0  0  0  0  0  0  0
   11.6167   -4.0542    0.0000 O   0  0  0  0  0  0  0  0  0  0  0  0
  2  5  1  0  0  0  0
  3  1  1  0  0  0  0
  4  3  1  0  0  0  0
  5  1  2  0  0  0  0
  6  2  2  0  0  0  0
  7  1  1  0  0  0  0
  8  5  1  0  0  0  0
  9  4  2  0  0  0  0
 10  7  2  0  0  0  0
 11 10  1  0  0  0  0
 12  2  1  0  0  0  0
 13 10  1  0  0  0  0
 11  8  2  0  0  0  0
  6  4  1  0  0  0  0
M  END
> <IDNUMBER>
F1918-0038

> <Chemical_Name>
7-hydroxy-4-methyl-2H-chromen-2-one

> <CAS>
90-33-5

> <PriceCoeff>
1.00

> <MW>
176.17

> <Description>
solid

> <FSP3>
0.10

> <clogP>
2.12

> <TPSA>
46.53

> <Acceptor>
3

> <Donor>
1

> <RotBonds>
0

> <HAC>
13

> <Collection>
General

> <Reference_compound>
CHEMBL52229

> <Similarity>
0.8240

$$$$
F5460-0270
  -ISIS-  06222321442D

 28 31  0  0  0  0  0  0  0  0999 V2000
   -4.0208    5.3917    0.0000 N   0  0  3  0  0  0  0  0  0  0  0  0
   -4.7583    5.2292    0.0000 C   0  0  0  0  0  0  0  0  0  0  0  0
   -3.4458    4.9167    0.0000 C   0  0  0  0  0  0  0  0  0  0  0  0
   -2.2708    2.6083    0.0000 N   0  0  3  0  0  0  0  0  0  0  0  0
   -5.2875    5.7667    0.0000 N   0  0  0  0  0  0  0  0  0  0  0  0
   -3.7458    6.0875    0.0000 N   0  0  0  0  0  0  0  0  0  0  0  0
   -5.0833    4.5792    0.0000 S   0  0  0  0  0  0  0  0  0  0  0  0
   -2.8208    5.3167    0.0000 C   0  0  0  0  0  0  0  0  0  0  0  0
   -3.4875    4.1667    0.0000 N   0  0  0  0  0  0  0  0  0  0  0  0
   -2.1500    1.8625    0.0000 C   0  0  0  0  0  0  0  0  0  0  0  0
   -1.6083    2.9583    0.0000 C   0  0  0  0  0  0  0  0  0  0  0  0
   -5.8208    4.6792    0.0000 C   0  0  0  0  0  0  0  0  0  0  0  0
   -5.9583    5.4167    0.0000 C   0  0  0  0  0  0  0  0  0  0  0  0
   -2.9958    6.0292    0.0000 C   0  0  0  0  0  0  0  0  0  0  0  0
   -2.8625    3.7583    0.0000 C   0  0  0  0  0  0  0  0  0  0  0  0
   -2.9000    3.0083    0.0000 C   0  0  0  0  0  0  0  0  0  0  0  0
   -6.3917    4.2042    0.0000 C   0  0  0  0  0  0  0  0  0  0  0  0
   -1.0750    2.4208    0.0000 C   0  0  0  0  0  0  0  0  0  0  0  0
   -1.4125    1.7458    0.0000 C   0  0  0  0  0  0  0  0  0  0  0  0
   -1.4875    3.6958    0.0000 O   0  0  0  0  0  0  0  0  0  0  0  0
   -2.6708    1.3333    0.0000 O   0  0  0  0  0  0  0  0  0  0  0  0
   -2.2000    4.1042    0.0000 O   0  0  0  0  0  0  0  0  0  0  0  0
   -6.6500    5.6792    0.0000 C   0  0  0  0  0  0  0  0  0  0  0  0
   -7.0917    4.4667    0.0000 C   0  0  0  0  0  0  0  0  0  0  0  0
   -7.2292    5.1917    0.0000 C   0  0  0  0  0  0  0  0  0  0  0  0
   -7.6792    3.9958    0.0000 O   0  0  0  0  0  0  0  0  0  0  0  0
   -2.5083    6.6125    0.0000 C   0  0  0  0  0  0  0  0  0  0  0  0
   -8.3792    4.2542    0.0000 C   0  0  0  0  0  0  0  0  0  0  0  0
  2  1  1  0  0  0  0
  3  1  1  0  0  0  0
  4 16  1  0  0  0  0
  5  2  2  0  0  0  0
  6  1  1  0  0  0  0
  7  2  1  0  0  0  0
  8  3  2  0  0  0  0
  9  3  1  0  0  0  0
 10  4  1  0  0  0  0
 11  4  1  0  0  0  0
 12  7  1  0  0  0  0
 13  5  1  0  0  0  0
 14  6  2  0  0  0  0
 15  9  1  0  0  0  0
 16 15  1  0  0  0  0
 17 12  1  0  0  0  0
 18 11  1  0  0  0  0
 19 10  1  0  0  0  0
 20 11  2  0  0  0  0
 21 10  2  0  0  0  0
 22 15  2  0  0  0  0
 23 13  1  0  0  0  0
 24 17  2  0  0  0  0
 25 23  2  0  0  0  0
 26 24  1  0  0  0  0
 27 14  1  0  0  0  0
 28 26  1  0  0  0  0
 14  8  1  0  0  0  0
 13 12  2  0  0  0  0
 24 25  1  0  0  0  0
 18 19  1  0  0  0  0
M  END
> <IDNUMBER>
F5460-0270

> <Chemical_Name>
2-(2,5-dioxopyrrolidin-1-yl)-N-[1-(6-methoxy-1,3-benzothiazol-2-yl)-3-methyl-1H-pyrazol-5-yl]acetamide

> <CAS>
1171627-67-0

> <PriceCoeff>
1.00

> <MW>
399.42

> <Description>
solid

> <FSP3>
0.28

> <clogP>
2.07

> <TPSA>
134.66

> <Acceptor>
6

> <Donor>
1

> <RotBonds>
5

> <HAC>
28

> <Collection>
General

$$$$
F2019-0428
  -ISIS-  06222304352D

 33 35  0  0  0  0  0  0  0  0999 V2000
   -3.1583    2.9833    0.0000 C   0  0  0  0  0  0  0  0  0  0  0  0
   -2.4375    2.5625    0.0000 N   0  0  3  0  0  0  0  0  0  0  0  0
   -3.9125    2.6458    0.0000 N   0  0  0  0  0  0  0  0  0  0  0  0
    1.1292    1.3083    0.0000 N   0  0  3  0  0  0  0  0  0  0  0  0
   -3.2458    3.8083    0.0000 S   0  0  0  0  0  0  0  0  0  0  0  0
   -1.7250    2.9833    0.0000 C   0  0  0  0  0  0  0  0  0  0  0  0
   -4.0583    3.9708    0.0000 C   0  0  0  0  0  0  0  0  0  0  0  0
    1.8792    1.6750    0.0000 C   0  0  0  0  0  0  0  0  0  0  0  0
    1.2500    0.5000    0.0000 C   0  0  0  0  0  0  0  0  0  0  0  0
   -4.4708    3.2583    0.0000 C   0  0  0  0  0  0  0  0  0  0  0  0
    0.4167    1.7333    0.0000 C   0  0  0  0  0  0  0  0  0  0  0  0
   -4.4708    4.6667    0.0000 C   0  0  0  0  0  0  0  0  0  0  0  0
   -1.0125    2.5625    0.0000 C   0  0  0  0  0  0  0  0  0  0  0  0
   -1.7250    3.8000    0.0000 O   0  0  0  0  0  0  0  0  0  0  0  0
    2.4542    1.0750    0.0000 C   0  0  0  0  0  0  0  0  0  0  0  0
    2.0625    0.3583    0.0000 C   0  0  0  0  0  0  0  0  0  0  0  0
    2.0292    2.5083    0.0000 O   0  0  0  0  0  0  0  0  0  0  0  0
    0.6542   -0.0792    0.0000 O   0  0  0  0  0  0  0  0  0  0  0  0
   -5.2833    3.2458    0.0000 C   0  0  0  0  0  0  0  0  0  0  0  0
    0.4250    2.5625    0.0000 C   0  0  0  0  0  0  0  0  0  0  0  0
   -0.3000    1.3333    0.0000 C   0  0  0  0  0  0  0  0  0  0  0  0
   -1.0083    1.7458    0.0000 C   0  0  0  0  0  0  0  0  0  0  0  0
   -0.2833    2.9833    0.0000 C   0  0  0  0  0  0  0  0  0  0  0  0
   -2.4375    1.7375    0.0000 C   0  0  0  0  0  0  0  0  0  0  0  0
   -5.2958    4.6667    0.0000 C   0  0  0  0  0  0  0  0  0  0  0  0
   -3.1583    1.3250    0.0000 C   0  0  0  0  0  0  0  0  0  0  0  0
   -3.8708    0.0875    0.0000 N   0  0  3  0  0  0  0  0  0  0  0  0
   -5.6958    3.9583    0.0000 C   0  0  0  0  0  0  0  0  0  0  0  0
   -5.7208    5.3917    0.0000 F   0  0  0  0  0  0  0  0  0  0  0  0
   -3.1583    0.5000    0.0000 C   0  0  0  0  0  0  0  0  0  0  0  0
   -3.8708   -0.7375    0.0000 C   0  0  0  0  0  0  0  0  0  0  0  0
   -4.5833    0.5000    0.0000 C   0  0  0  0  0  0  0  0  0  0  0  0
    3.8417    2.4792    0.0000 Cl  0  0  0  0  0  0  0  0  0  0  0  0
  3  1  2  0  0  0  0
  4 11  1  0  0  0  0
  5  1  1  0  0  0  0
  6  2  1  0  0  0  0
  7  5  1  0  0  0  0
  8  4  1  0  0  0  0
  9  4  1  0  0  0  0
 10  3  1  0  0  0  0
 11 20  1  0  0  0  0
 12  7  1  0  0  0  0
 13  6  1  0  0  0  0
 14  6  2  0  0  0  0
 15  8  1  0  0  0  0
 16  9  1  0  0  0  0
 17  8  2  0  0  0  0
 18  9  2  0  0  0  0
 19 10  1  0  0  0  0
 20 23  2  0  0  0  0
 21 22  1  0  0  0  0
 22 13  2  0  0  0  0
 23 13  1  0  0  0  0
 24  2  1  0  0  0  0
 25 12  2  0  0  0  0
 26 24  1  0  0  0  0
 27 30  1  0  0  0  0
 28 19  2  0  0  0  0
 29 25  1  0  0  0  0
 30 26  1  0  0  0  0
 31 27  1  0  0  0  0
 32 27  1  0  0  0  0
  7 10  2  0  0  0  0
 28 25  1  0  0  0  0
 11 21  2  0  0  0  0
 16 15  1  0  0  0  0
  2  1  1  0  0  0  0
M  END
> <IDNUMBER>
F2019-0428

> <Chemical_Name>
N-[3-(dimethylamino)propyl]-4-(2,5-dioxopyrrolidin-1-yl)-N-(6-fluoro-1,3-benzothiazol-2-yl)benzamide hydrochloride

> <CAS>
1216827-05-2

> <PriceCoeff>
1.00

> <MW>
454.52

> <Description>
solid

> <FSP3>
0.30

> <clogP>
1.56

> <TPSA>
102.06

> <Acceptor>
4

> <Donor>
1

> <RotBonds>
8

> <HAC>
32

> <Collection>
General

$$$$
F2019-1317
  -ISIS-  06222304352D

 33 35  0  0  0  0  0  0  0  0999 V2000
   -3.1583    2.9833    0.0000 C   0  0  0  0  0  0  0  0  0  0  0  0
   -3.9125    2.6458    0.0000 N   0  0  0  0  0  0  0  0  0  0  0  0
   -2.4375    2.5625    0.0000 N   0  0  3  0  0  0  0  0  0  0  0  0
    1.1292    1.3083    0.0000 N   0  0  3  0  0  0  0  0  0  0  0  0
   -3.2458    3.8083    0.0000 S   0  0  0  0  0  0  0  0  0  0  0  0
   -4.4708    3.2708    0.0000 C   0  0  0  0  0  0  0  0  0  0  0  0
   -1.7250    2.9833    0.0000 C   0  0  0  0  0  0  0  0  0  0  0  0
    1.8792    1.6750    0.0000 C   0  0  0  0  0  0  0  0  0  0  0  0
    1.2500    0.5000    0.0000 C   0  0  0  0  0  0  0  0  0  0  0  0
   -4.0583    3.9708    0.0000 C   0  0  0  0  0  0  0  0  0  0  0  0
    0.4167    1.7333    0.0000 C   0  0  0  0  0  0  0  0  0  0  0  0
   -1.0125    2.5625    0.0000 C   0  0  0  0  0  0  0  0  0  0  0  0
   -5.2875    3.2583    0.0000 C   0  0  0  0  0  0  0  0  0  0  0  0
   -1.7250    3.8000    0.0000 O   0  0  0  0  0  0  0  0  0  0  0  0
    2.4542    1.0750    0.0000 C   0  0  0  0  0  0  0  0  0  0  0  0
    2.0625    0.3583    0.0000 C   0  0  0  0  0  0  0  0  0  0  0  0
    2.0292    2.5083    0.0000 O   0  0  0  0  0  0  0  0  0  0  0  0
    0.6542   -0.0792    0.0000 O   0  0  0  0  0  0  0  0  0  0  0  0
    0.4250    2.5625    0.0000 C   0  0  0  0  0  0  0  0  0  0  0  0
   -0.3000    1.3333    0.0000 C   0  0  0  0  0  0  0  0  0  0  0  0
   -1.0083    1.7458    0.0000 C   0  0  0  0  0  0  0  0  0  0  0  0
   -0.2833    2.9833    0.0000 C   0  0  0  0  0  0  0  0  0  0  0  0
   -2.4375    1.7375    0.0000 C   0  0  0  0  0  0  0  0  0  0  0  0
   -3.1583    1.3250    0.0000 C   0  0  0  0  0  0  0  0  0  0  0  0
   -3.8708    0.0875    0.0000 N   0  0  3  0  0  0  0  0  0  0  0  0
   -5.7083    2.5458    0.0000 F   0  0  0  0  0  0  0  0  0  0  0  0
   -4.4583    4.6792    0.0000 C   0  0  0  0  0  0  0  0  0  0  0  0
   -3.1583    0.5000    0.0000 C   0  0  0  0  0  0  0  0  0  0  0  0
   -5.2833    4.6792    0.0000 C   0  0  0  0  0  0  0  0  0  0  0  0
   -5.6958    3.9708    0.0000 C   0  0  0  0  0  0  0  0  0  0  0  0
   -3.8708   -0.7375    0.0000 C   0  0  0  0  0  0  0  0  0  0  0  0
   -4.5833    0.5000    0.0000 C   0  0  0  0  0  0  0  0  0  0  0  0
    3.8417    2.0667    0.0000 Cl  0  0  0  0  0  0  0  0  0  0  0  0
  3  1  1  0  0  0  0
  4 11  1  0  0  0  0
  5  1  1  0  0  0  0
  6  2  1  0  0  0  0
  7  3  1  0  0  0  0
  8  4  1  0  0  0  0
  9  4  1  0  0  0  0
 10  5  1  0  0  0  0
 11 19  1  0  0  0  0
 12  7  1  0  0  0  0
 13  6  1  0  0  0  0
 14  7  2  0  0  0  0
 15  8  1  0  0  0  0
 16  9  1  0  0  0  0
 17  8  2  0  0  0  0
 18  9  2  0  0  0  0
 19 22  2  0  0  0  0
 20 21  1  0  0  0  0
 21 12  2  0  0  0  0
 22 12  1  0  0  0  0
 23  3  1  0  0  0  0
 24 23  1  0  0  0  0
 25 28  1  0  0  0  0
 26 13  1  0  0  0  0
 27 10  1  0  0  0  0
 28 24  1  0  0  0  0
 29 27  2  0  0  0  0
 30 13  2  0  0  0  0
 31 25  1  0  0  0  0
 32 25  1  0  0  0  0
 10  6  2  0  0  0  0
 30 29  1  0  0  0  0
 11 20  2  0  0  0  0
 16 15  1  0  0  0  0
  2  1  2  0  0  0  0
M  END
> <IDNUMBER>
F2019-1317

> <Chemical_Name>
N-[3-(dimethylamino)propyl]-4-(2,5-dioxopyrrolidin-1-yl)-N-(4-fluoro-1,3-benzothiazol-2-yl)benzamide hydrochloride

> <CAS>
1052531-49-3

> <PriceCoeff>
1.00

> <MW>
454.52

> <Description>
solid

> <FSP3>
0.30

> <clogP>
1.56

> <TPSA>
102.06

> <Acceptor>
4

> <Donor>
1

> <RotBonds>
8

> <HAC>
32

> <Collection>
General

$$$$
F1822-0394
  -ISIS-  06222321452D

 29 33  0  0  0  0  0  0  0  0999 V2000
   -5.9583    3.3833    0.0000 C   0  0  0  0  0  0  0  0  0  0  0  0
   -1.7333    3.3958    0.0000 N   0  0  3  0  0  0  0  0  0  0  0  0
   -6.0167    2.5583    0.0000 N   0  0  0  0  0  0  0  0  0  0  0  0
   -5.2708    3.7833    0.0000 N   0  0  0  0  0  0  0  0  0  0  0  0
   -6.7042    3.7083    0.0000 S   0  0  0  0  0  0  0  0  0  0  0  0
   -6.8292    2.3833    0.0000 C   0  0  0  0  0  0  0  0  0  0  0  0
   -2.4458    3.8000    0.0000 C   0  0  0  0  0  0  0  0  0  0  0  0
   -4.5833    3.3958    0.0000 C   0  0  0  0  0  0  0  0  0  0  0  0
   -7.2542    3.0958    0.0000 C   0  0  0  0  0  0  0  0  0  0  0  0
   -1.6875    2.5708    0.0000 C   0  0  0  0  0  0  0  0  0  0  0  0
   -0.9708    3.6875    0.0000 C   0  0  0  0  0  0  0  0  0  0  0  0
   -7.2417    1.6708    0.0000 C   0  0  0  0  0  0  0  0  0  0  0  0
   -8.0875    3.0958    0.0000 C   0  0  0  0  0  0  0  0  0  0  0  0
   -8.0667    1.6500    0.0000 C   0  0  0  0  0  0  0  0  0  0  0  0
   -8.4917    2.3750    0.0000 C   0  0  0  0  0  0  0  0  0  0  0  0
   -3.1583    3.3958    0.0000 C   0  0  0  0  0  0  0  0  0  0  0  0
   -3.8708    3.8000    0.0000 C   0  0  0  0  0  0  0  0  0  0  0  0
   -9.3167    2.3625    0.0000 O   0  0  0  0  0  0  0  0  0  0  0  0
   -8.4667    0.9333    0.0000 O   0  0  0  0  0  0  0  0  0  0  0  0
   -4.5833    2.6000    0.0000 O   0  0  0  0  0  0  0  0  0  0  0  0
   -0.4375    3.0583    0.0000 C   0  0  0  0  0  0  0  0  0  0  0  0
   -0.8708    2.3708    0.0000 C   0  0  0  0  0  0  0  0  0  0  0  0
   -0.7583    4.4667    0.0000 O   0  0  0  0  0  0  0  0  0  0  0  0
   -2.3208    2.0458    0.0000 O   0  0  0  0  0  0  0  0  0  0  0  0
   -2.4375    4.6167    0.0000 C   0  0  0  0  0  0  0  0  0  0  0  0
   -3.8708    4.6167    0.0000 C   0  0  0  0  0  0  0  0  0  0  0  0
   -3.1583    5.0292    0.0000 C   0  0  0  0  0  0  0  0  0  0  0  0
   -9.3042    0.9208    0.0000 C   0  0  0  0  0  0  0  0  0  0  0  0
   -9.7292    1.6333    0.0000 C   0  0  0  0  0  0  0  0  0  0  0  0
  2  7  1  0  0  0  0
  3  1  2  0  0  0  0
  4  1  1  0  0  0  0
  5  1  1  0  0  0  0
  6  3  1  0  0  0  0
  7 16  1  0  0  0  0
  8  4  1  0  0  0  0
  9  5  1  0  0  0  0
 10  2  1  0  0  0  0
 11  2  1  0  0  0  0
 12  6  1  0  0  0  0
 13  9  1  0  0  0  0
 14 12  2  0  0  0  0
 15 13  2  0  0  0  0
 16 17  2  0  0  0  0
 17  8  1  0  0  0  0
 18 15  1  0  0  0  0
 19 14  1  0  0  0  0
 20  8  2  0  0  0  0
 21 11  1  0  0  0  0
 22 10  1  0  0  0  0
 23 11  2  0  0  0  0
 24 10  2  0  0  0  0
 25 27  1  0  0  0  0
 26 17  1  0  0  0  0
 27 26  2  0  0  0  0
 28 19  1  0  0  0  0
 29 18  1  0  0  0  0
  9  6  2  0  0  0  0
 15 14  1  0  0  0  0
 28 29  1  0  0  0  0
  7 25  2  0  0  0  0
 22 21  1  0  0  0  0
M  END
> <IDNUMBER>
F1822-0394

> <Chemical_Name>
N-{10,13-dioxa-4-thia-6-azatricyclo[7.4.0.0^{3,7}]trideca-1,3(7),5,8-tetraen-5-yl}-3-(2,5-dioxopyrrolidin-1-yl)benzamide

> <CAS>
892843-07-1

> <PriceCoeff>
1.00

> <MW>
409.42

> <Description>
solid

> <FSP3>
0.20

> <clogP>
2.11

> <TPSA>
126.07

> <Acceptor>
6

> <Donor>
1

> <RotBonds>
3

> <HAC>
29

> <Collection>
General

$$$$
F2515-0606
  -ISIS-  06222321142D

 28 31  0  0  0  0  0  0  0  0999 V2000
   -4.5625    2.1500    0.0000 C   0  0  0  0  0  0  0  0  0  0  0  0
   -3.1333    4.6292    0.0000 N   0  0  3  0  0  0  0  0  0  0  0  0
   -3.8458    2.5583    0.0000 N   0  0  3  0  0  0  0  0  0  0  0  0
   -4.6583    1.3250    0.0000 N   0  0  0  0  0  0  0  0  0  0  0  0
   -5.3208    2.4875    0.0000 S   0  0  0  0  0  0  0  0  0  0  0  0
   -3.8458    3.3958    0.0000 C   0  0  0  0  0  0  0  0  0  0  0  0
   -3.1333    3.8000    0.0000 C   0  0  0  0  0  0  0  0  0  0  0  0
   -3.8000    5.1042    0.0000 C   0  0  0  0  0  0  0  0  0  0  0  0
   -2.4625    5.1042    0.0000 C   0  0  0  0  0  0  0  0  0  0  0  0
   -5.8708    1.8708    0.0000 C   0  0  0  0  0  0  0  0  0  0  0  0
   -5.4708    1.1583    0.0000 C   0  0  0  0  0  0  0  0  0  0  0  0
   -3.1333    2.1458    0.0000 C   0  0  0  0  0  0  0  0  0  0  0  0
   -6.6875    1.8833    0.0000 C   0  0  0  0  0  0  0  0  0  0  0  0
   -4.5625    3.8000    0.0000 O   0  0  0  0  0  0  0  0  0  0  0  0
   -3.5458    5.8917    0.0000 C   0  0  0  0  0  0  0  0  0  0  0  0
   -2.7208    5.8917    0.0000 C   0  0  0  0  0  0  0  0  0  0  0  0
   -4.5833    4.8667    0.0000 O   0  0  0  0  0  0  0  0  0  0  0  0
   -1.6750    4.8417    0.0000 O   0  0  0  0  0  0  0  0  0  0  0  0
   -2.4208    0.0833    0.0000 N   0  0  0  0  0  0  0  0  0  0  0  0
   -5.8750    0.4500    0.0000 C   0  0  0  0  0  0  0  0  0  0  0  0
   -3.1333    1.3208    0.0000 C   0  0  0  0  0  0  0  0  0  0  0  0
   -7.1042    1.1708    0.0000 C   0  0  0  0  0  0  0  0  0  0  0  0
   -6.6917    0.4583    0.0000 C   0  0  0  0  0  0  0  0  0  0  0  0
   -7.9292    1.1708    0.0000 Cl  0  0  0  0  0  0  0  0  0  0  0  0
   -2.4208    0.9083    0.0000 C   0  0  0  0  0  0  0  0  0  0  0  0
   -3.1333   -0.3292    0.0000 C   0  0  0  0  0  0  0  0  0  0  0  0
   -3.8500    0.9083    0.0000 C   0  0  0  0  0  0  0  0  0  0  0  0
   -3.8500    0.0833    0.0000 C   0  0  0  0  0  0  0  0  0  0  0  0
  2  7  1  0  0  0  0
  3  1  1  0  0  0  0
  4  1  2  0  0  0  0
  5  1  1  0  0  0  0
  6  3  1  0  0  0  0
  7  6  1  0  0  0  0
  8  2  1  0  0  0  0
  9  2  1  0  0  0  0
 10  5  1  0  0  0  0
 11  4  1  0  0  0  0
 12  3  1  0  0  0  0
 13 10  1  0  0  0  0
 14  6  2  0  0  0  0
 15  8  1  0  0  0  0
 16  9  1  0  0  0  0
 17  8  2  0  0  0  0
 18  9  2  0  0  0  0
 19 25  2  0  0  0  0
 20 11  1  0  0  0  0
 21 12  1  0  0  0  0
 22 13  2  0  0  0  0
 23 20  2  0  0  0  0
 24 22  1  0  0  0  0
 25 21  1  0  0  0  0
 26 28  2  0  0  0  0
 27 21  2  0  0  0  0
 28 27  1  0  0  0  0
 10 11  2  0  0  0  0
 23 22  1  0  0  0  0
 19 26  1  0  0  0  0
 15 16  1  0  0  0  0
M  END
> <IDNUMBER>
F2515-0606

> <Chemical_Name>
N-(6-chloro-1,3-benzothiazol-2-yl)-2-(2,5-dioxopyrrolidin-1-yl)-N-[(pyridin-3-yl)methyl]acetamide

> <CAS>
895023-86-6

> <PriceCoeff>
1.00

> <MW>
414.87

> <Description>
solid

> <FSP3>
0.21

> <clogP>
1.70

> <TPSA>
111.71

> <Acceptor>
5

> <Donor>
1

> <RotBonds>
6

> <HAC>
28

> <Collection>
General

$$$$
F0700-0158
  -ISIS-  06222321142D

 31 34  0  0  0  0  0  0  0  0999 V2000
    3.7875    1.9125    0.0000 N   0  0  3  0  0  0  0  0  0  0  0  0
    1.2292    0.3500    0.0000 C   0  0  0  0  0  0  0  0  0  0  0  0
    0.8167    0.7708    0.0000 N   0  0  0  0  0  0  0  0  0  0  0  0
    1.8000    0.3833    0.0000 N   0  0  0  0  0  0  0  0  0  0  0  0
    0.3042    0.5000    0.0000 C   0  0  0  0  0  0  0  0  0  0  0  0
    3.5167    1.4125    0.0000 C   0  0  0  0  0  0  0  0  0  0  0  0
    2.0792    0.8958    0.0000 C   0  0  0  0  0  0  0  0  0  0  0  0
    3.5042    2.4000    0.0000 C   0  0  0  0  0  0  0  0  0  0  0  0
    4.3667    2.0208    0.0000 C   0  0  0  0  0  0  0  0  0  0  0  0
    0.9542   -0.1500    0.0000 S   0  0  0  0  0  0  0  0  0  0  0  0
    0.3875   -0.0292    0.0000 C   0  0  0  0  0  0  0  0  0  0  0  0
    2.9500    1.4000    0.0000 C   0  0  0  0  0  0  0  0  0  0  0  0
    2.6667    0.8958    0.0000 C   0  0  0  0  0  0  0  0  0  0  0  0
   -0.2125    0.7458    0.0000 C   0  0  0  0  0  0  0  0  0  0  0  0
   -1.8000    1.4458    0.0000 C   0  0  3  0  0  0  0  0  0  0  0  0
   -1.2708    1.2208    0.0000 C   0  0  0  0  0  0  0  0  0  0  0  0
    1.7667    1.3708    0.0000 O   0  0  0  0  0  0  0  0  0  0  0  0
    4.4167    2.5708    0.0000 C   0  0  0  0  0  0  0  0  0  0  0  0
    3.9167    2.8208    0.0000 C   0  0  0  0  0  0  0  0  0  0  0  0
    4.8042    1.6125    0.0000 O   0  0  0  0  0  0  0  0  0  0  0  0
    2.9167    2.4958    0.0000 O   0  0  0  0  0  0  0  0  0  0  0  0
   -0.6833    0.4125    0.0000 C   0  0  0  0  0  0  0  0  0  0  0  0
   -0.2625    1.3208    0.0000 C   0  0  0  0  0  0  0  0  0  0  0  0
   -1.2125    0.6500    0.0000 C   0  0  0  0  0  0  0  0  0  0  0  0
   -0.7958    1.5625    0.0000 C   0  0  0  0  0  0  0  0  0  0  0  0
    3.8292    0.9208    0.0000 C   0  0  0  0  0  0  0  0  0  0  0  0
    2.9792    0.4000    0.0000 C   0  0  0  0  0  0  0  0  0  0  0  0
    3.5500    0.4125    0.0000 C   0  0  0  0  0  0  0  0  0  0  0  0
   -2.2000    1.0708    0.0000 C   0  0  0  0  0  0  0  0  0  0  0  0
   -2.3333    1.6333    0.0000 C   0  0  0  0  0  0  0  0  0  0  0  0
   -1.8833    2.0500    0.0000 C   0  0  0  0  0  0  0  0  0  0  0  0
  2  4  1  0  0  0  0
  3  2  2  0  0  0  0
  4  7  1  0  0  0  0
  5  3  1  0  0  0  0
  6  1  1  0  0  0  0
  7 13  1  0  0  0  0
  8  1  1  0  0  0  0
  9  1  1  0  0  0  0
 10  2  1  0  0  0  0
 11 10  1  0  0  0  0
 12  6  2  0  0  0  0
 13 12  1  0  0  0  0
 14  5  1  0  0  0  0
 15 16  1  0  0  0  0
 16 25  2  0  0  0  0
 17  7  2  0  0  0  0
 18  9  1  0  0  0  0
 19  8  1  0  0  0  0
 20  9  2  0  0  0  0
 21  8  2  0  0  0  0
 22 14  1  0  0  0  0
 23 14  2  0  0  0  0
 24 22  2  0  0  0  0
 25 23  1  0  0  0  0
 26  6  1  0  0  0  0
 27 28  1  0  0  0  0
 28 26  2  0  0  0  0
 29 15  1  0  0  0  0
 30 15  1  0  0  0  0
 31 15  1  0  0  0  0
 19 18  1  0  0  0  0
 13 27  2  0  0  0  0
  5 11  2  0  0  0  0
 16 24  1  0  0  0  0
M  END
> <IDNUMBER>
F0700-0158

> <Chemical_Name>
N-[4-(4-tert-butylphenyl)-1,3-thiazol-2-yl]-3-(2,5-dioxopyrrolidin-1-yl)benzamide

> <CAS>
477280-67-4

> <PriceCoeff>
1.00

> <MW>
433.52

> <Description>
solid

> <FSP3>
0.25

> <clogP>
3.95

> <TPSA>
107.61

> <Acceptor>
4

> <Donor>
1

> <RotBonds>
4

> <HAC>
31

> <Collection>
General

$$$$
F2189-0257
  -ISIS-  06222321142D

 19 21  0  0  0  0  0  0  0  0999 V2000
   10.2417  -21.6167    0.0000 N   0  0  3  0  0  0  0  0  0  0  0  0
   10.2417  -22.4417    0.0000 C   0  0  0  0  0  0  0  0  0  0  0  0
   10.9542  -21.2042    0.0000 C   0  0  0  0  0  0  0  0  0  0  0  0
   11.6667  -21.6167    0.0000 C   0  0  0  0  0  0  0  0  0  0  0  0
   10.9542  -20.3750    0.0000 C   0  0  0  0  0  0  0  0  0  0  0  0
   10.9542  -22.8542    0.0000 O   0  0  0  0  0  0  0  0  0  0  0  0
    9.5292  -22.8542    0.0000 C   0  0  0  0  0  0  0  0  0  0  0  0
   11.6667  -19.9625    0.0000 C   0  0  0  0  0  0  0  0  0  0  0  0
   12.3792  -21.2042    0.0000 C   0  0  0  0  0  0  0  0  0  0  0  0
    9.5250  -21.2042    0.0000 C   0  0  0  0  0  0  0  0  0  0  0  0
   13.1000  -21.6167    0.0000 N   0  0  0  0  0  0  0  0  0  0  0  0
   12.3792  -20.3750    0.0000 C   0  0  0  0  0  0  0  0  0  0  0  0
    9.5250  -20.3792    0.0000 C   0  0  0  0  0  0  0  0  0  0  0  0
   10.2417  -19.9667    0.0000 C   0  0  0  0  0  0  0  0  0  0  0  0
    9.5375  -23.6792    0.0000 C   0  0  0  0  0  0  0  0  0  0  0  0
    8.8167  -22.4417    0.0000 C   0  0  0  0  0  0  0  0  0  0  0  0
    8.1042  -22.8542    0.0000 C   0  0  0  0  0  0  0  0  0  0  0  0
    8.8250  -24.0917    0.0000 C   0  0  0  0  0  0  0  0  0  0  0  0
    8.1042  -23.6792    0.0000 C   0  0  0  0  0  0  0  0  0  0  0  0
  2  1  1  0  0  0  0
  3  1  1  0  0  0  0
  4  3  1  0  0  0  0
  5  3  2  0  0  0  0
  6  2  2  0  0  0  0
  7  2  1  0  0  0  0
  8  5  1  0  0  0  0
  9  4  2  0  0  0  0
 10  1  1  0  0  0  0
 11  9  1  0  0  0  0
 12  8  2  0  0  0  0
 13 10  1  0  0  0  0
 14 13  1  0  0  0  0
 15  7  1  0  0  0  0
 16  7  2  0  0  0  0
 17 16  1  0  0  0  0
 18 15  2  0  0  0  0
 19 17  2  0  0  0  0
  5 14  1  0  0  0  0
  9 12  1  0  0  0  0
 18 19  1  0  0  0  0
M  END
> <IDNUMBER>
F2189-0257

> <Chemical_Name>
1-benzoyl-1,2,3,4-tetrahydroquinolin-7-amine

> <CAS>
857759-24-1

> <PriceCoeff>
1.00

> <MW>
252.31

> <Description>
solid

> <FSP3>
0.19

> <clogP>
1.81

> <TPSA>
46.33

> <Acceptor>
2

> <Donor>
1

> <RotBonds>
2

> <HAC>
19

> <Collection>
General

> <Reference_compound>
CHEMBL2286415

> <Similarity>
0.8180

$$$$
F0327-0334
  -ISIS-  06222321452D

 31 34  0  0  0  0  0  0  0  0999 V2000
    4.4167    0.3500    0.0000 N   0  0  3  0  0  0  0  0  0  0  0  0
   -0.4000    1.1125    0.0000 C   0  0  0  0  0  0  0  0  0  0  0  0
   -0.9125    0.4000    0.0000 N   0  0  0  0  0  0  0  0  0  0  0  0
    0.4542    1.1125    0.0000 N   0  0  0  0  0  0  0  0  0  0  0  0
   -1.7458    0.6500    0.0000 C   0  0  0  0  0  0  0  0  0  0  0  0
    0.9000    0.3500    0.0000 C   0  0  0  0  0  0  0  0  0  0  0  0
    4.9167    1.0125    0.0000 C   0  0  0  0  0  0  0  0  0  0  0  0
    4.9042   -0.3667    0.0000 C   0  0  0  0  0  0  0  0  0  0  0  0
   -0.9000    1.8125    0.0000 S   0  0  0  0  0  0  0  0  0  0  0  0
   -1.7458    1.5500    0.0000 C   0  0  0  0  0  0  0  0  0  0  0  0
    3.5375    0.3500    0.0000 C   0  0  0  0  0  0  0  0  0  0  0  0
   -2.4208    0.1208    0.0000 C   0  0  0  0  0  0  0  0  0  0  0  0
    1.7792    0.3500    0.0000 C   0  0  0  0  0  0  0  0  0  0  0  0
   -4.5208   -1.5000    0.0000 C   0  0  3  0  0  0  0  0  0  0  0  0
   -3.8208   -0.9667    0.0000 C   0  0  0  0  0  0  0  0  0  0  0  0
    0.4542   -0.4042    0.0000 O   0  0  0  0  0  0  0  0  0  0  0  0
    5.7542   -0.1167    0.0000 C   0  0  0  0  0  0  0  0  0  0  0  0
    5.7500    0.7500    0.0000 C   0  0  0  0  0  0  0  0  0  0  0  0
    4.6000   -1.1875    0.0000 O   0  0  0  0  0  0  0  0  0  0  0  0
    4.6292    1.8625    0.0000 O   0  0  0  0  0  0  0  0  0  0  0  0
    3.1000    1.1125    0.0000 C   0  0  0  0  0  0  0  0  0  0  0  0
    3.1000   -0.4042    0.0000 C   0  0  0  0  0  0  0  0  0  0  0  0
    2.2167    1.1125    0.0000 C   0  0  0  0  0  0  0  0  0  0  0  0
    2.2167   -0.4042    0.0000 C   0  0  0  0  0  0  0  0  0  0  0  0
   -2.3000   -0.7542    0.0000 C   0  0  0  0  0  0  0  0  0  0  0  0
   -3.2458    0.4500    0.0000 C   0  0  0  0  0  0  0  0  0  0  0  0
   -2.9958   -1.3000    0.0000 C   0  0  0  0  0  0  0  0  0  0  0  0
   -3.9458   -0.0875    0.0000 C   0  0  0  0  0  0  0  0  0  0  0  0
   -5.0833   -0.8000    0.0000 C   0  0  0  0  0  0  0  0  0  0  0  0
   -3.9708   -2.2042    0.0000 C   0  0  0  0  0  0  0  0  0  0  0  0
   -5.3125   -2.1667    0.0000 C   0  0  0  0  0  0  0  0  0  0  0  0
  2  4  1  0  0  0  0
  3  2  2  0  0  0  0
  4  6  1  0  0  0  0
  5  3  1  0  0  0  0
  6 13  1  0  0  0  0
  7  1  1  0  0  0  0
  8  1  1  0  0  0  0
  9  2  1  0  0  0  0
 10  9  1  0  0  0  0
 11  1  1  0  0  0  0
 12  5  1  0  0  0  0
 13 24  2  0  0  0  0
 14 15  1  0  0  0  0
 15 28  2  0  0  0  0
 16  6  2  0  0  0  0
 17  8  1  0  0  0  0
 18  7  1  0  0  0  0
 19  8  2  0  0  0  0
 20  7  2  0  0  0  0
 21 11  1  0  0  0  0
 22 11  2  0  0  0  0
 23 21  2  0  0  0  0
 24 22  1  0  0  0  0
 25 12  1  0  0  0  0
 26 12  2  0  0  0  0
 27 25  2  0  0  0  0
 28 26  1  0  0  0  0
 29 14  1  0  0  0  0
 30 14  1  0  0  0  0
 31 14  1  0  0  0  0
 18 17  1  0  0  0  0
 23 13  1  0  0  0  0
  5 10  2  0  0  0  0
 27 15  1  0  0  0  0
M  END
> <IDNUMBER>
F0327-0334

> <Chemical_Name>
N-[4-(4-tert-butylphenyl)-1,3-thiazol-2-yl]-4-(2,5-dioxopyrrolidin-1-yl)benzamide

> <CAS>
330200-81-2

> <PriceCoeff>
1.00

> <MW>
433.52

> <Description>
solid

> <FSP3>
0.25

> <clogP>
3.95

> <TPSA>
107.61

> <Acceptor>
4

> <Donor>
1

> <RotBonds>
4

> <HAC>
31

> <Collection>
General

$$$$
F0778-0281
  -ISIS-  06222321142D

 32 36  0  0  0  0  0  0  0  0999 V2000
   -3.2375    2.4958    0.0000 C   0  0  0  0  0  0  0  0  0  0  0  0
   -3.9083    2.9833    0.0000 N   0  0  3  0  0  0  0  0  0  0  0  0
   -4.5833    2.4958    0.0000 N   0  0  0  0  0  0  0  0  0  0  0  0
   -3.4958    1.7000    0.0000 C   0  0  0  0  0  0  0  0  0  0  0  0
   -2.4583    2.7458    0.0000 N   0  0  0  0  0  0  0  0  0  0  0  0
   -4.3333    1.7000    0.0000 C   0  0  0  0  0  0  0  0  0  0  0  0
    1.2875    3.2333    0.0000 N   0  0  3  0  0  0  0  0  0  0  0  0
   -3.9083    3.8000    0.0000 C   0  0  0  0  0  0  0  0  0  0  0  0
   -1.8458    2.1958    0.0000 C   0  0  0  0  0  0  0  0  0  0  0  0
    1.9542    2.7958    0.0000 C   0  0  0  0  0  0  0  0  0  0  0  0
    1.5625    4.0000    0.0000 C   0  0  0  0  0  0  0  0  0  0  0  0
    0.5000    2.9833    0.0000 C   0  0  0  0  0  0  0  0  0  0  0  0
   -3.9083    0.4250    0.0000 S   0  0  0  0  0  0  0  0  0  0  0  0
   -1.0583    2.4458    0.0000 C   0  0  0  0  0  0  0  0  0  0  0  0
   -4.6208    4.2000    0.0000 C   0  0  0  0  0  0  0  0  0  0  0  0
   -3.1958    4.1917    0.0000 C   0  0  0  0  0  0  0  0  0  0  0  0
   -2.0125    1.3875    0.0000 O   0  0  0  0  0  0  0  0  0  0  0  0
    2.3750    4.0042    0.0000 C   0  0  0  0  0  0  0  0  0  0  0  0
    2.6042    3.2375    0.0000 C   0  0  0  0  0  0  0  0  0  0  0  0
    1.0667    4.7125    0.0000 O   0  0  0  0  0  0  0  0  0  0  0  0
    1.9875    1.8958    0.0000 O   0  0  0  0  0  0  0  0  0  0  0  0
   -3.2375    0.9125    0.0000 C   0  0  0  0  0  0  0  0  0  0  0  0
   -3.1833    5.0167    0.0000 C   0  0  0  0  0  0  0  0  0  0  0  0
   -4.6000    5.0250    0.0000 C   0  0  0  0  0  0  0  0  0  0  0  0
   -0.1083    3.5250    0.0000 C   0  0  0  0  0  0  0  0  0  0  0  0
    0.3292    2.1583    0.0000 C   0  0  0  0  0  0  0  0  0  0  0  0
   -0.8833    3.2708    0.0000 C   0  0  0  0  0  0  0  0  0  0  0  0
   -0.4458    1.8958    0.0000 C   0  0  0  0  0  0  0  0  0  0  0  0
   -4.5833    0.9125    0.0000 C   0  0  0  0  0  0  0  0  0  0  0  0
   -3.8958    5.4375    0.0000 C   0  0  0  0  0  0  0  0  0  0  0  0
   -5.3333    5.4542    0.0000 C   0  0  0  0  0  0  0  0  0  0  0  0
   -2.4583    5.4167    0.0000 C   0  0  0  0  0  0  0  0  0  0  0  0
  2  1  1  0  0  0  0
  3  2  1  0  0  0  0
  4  1  2  0  0  0  0
  5  1  1  0  0  0  0
  6  4  1  0  0  0  0
  7 12  1  0  0  0  0
  8  2  1  0  0  0  0
  9  5  1  0  0  0  0
 10  7  1  0  0  0  0
 11  7  1  0  0  0  0
 12 26  1  0  0  0  0
 13 22  1  0  0  0  0
 14  9  1  0  0  0  0
 15  8  1  0  0  0  0
 16  8  2  0  0  0  0
 17  9  2  0  0  0  0
 18 11  1  0  0  0  0
 19 10  1  0  0  0  0
 20 11  2  0  0  0  0
 21 10  2  0  0  0  0
 22  4  1  0  0  0  0
 23 16  1  0  0  0  0
 24 15  2  0  0  0  0
 25 27  1  0  0  0  0
 26 28  2  0  0  0  0
 27 14  2  0  0  0  0
 28 14  1  0  0  0  0
 29  6  1  0  0  0  0
 30 23  2  0  0  0  0
 31 24  1  0  0  0  0
 32 23  1  0  0  0  0
  3  6  2  0  0  0  0
 29 13  1  0  0  0  0
 25 12  2  0  0  0  0
 24 30  1  0  0  0  0
 19 18  1  0  0  0  0
M  END
> <IDNUMBER>
F0778-0281

> <Chemical_Name>
N-[2-(3,5-dimethylphenyl)-2H,4H,6H-thieno[3,4-c]pyrazol-3-yl]-4-(2,5-dioxopyrrolidin-1-yl)benzamide

> <CAS>
396722-73-9

> <PriceCoeff>
1.00

> <MW>
446.52

> <Description>
solid

> <FSP3>
0.25

> <clogP>
2.21

> <TPSA>
109.60

> <Acceptor>
4

> <Donor>
1

> <RotBonds>
4

> <HAC>
32

> <Collection>
General

$$$$
F0373-0285
  -ISIS-  06222321452D

 17 18  0  0  0  0  0  0  0  0999 V2000
    5.7000   -4.5875    0.0000 C   0  0  0  0  0  0  0  0  0  0  0  0
    5.7000   -3.7375    0.0000 C   0  0  0  0  0  0  0  0  0  0  0  0
    6.4792   -4.8500    0.0000 N   0  0  0  0  0  0  0  0  0  0  0  0
    4.9792   -5.0292    0.0000 N   0  0  3  0  0  0  0  0  0  0  0  0
    4.2667   -3.7375    0.0000 N   0  0  3  0  0  0  0  0  0  0  0  0
    4.2667   -4.5875    0.0000 C   0  0  0  0  0  0  0  0  0  0  0  0
    4.9792   -3.3375    0.0000 C   0  0  0  0  0  0  0  0  0  0  0  0
    6.9375   -4.1667    0.0000 C   0  0  0  0  0  0  0  0  0  0  0  0
    6.4792   -3.4875    0.0000 N   0  0  3  0  0  0  0  0  0  0  0  0
    3.5500   -5.0292    0.0000 O   0  0  0  0  0  0  0  0  0  0  0  0
    4.9792   -2.5000    0.0000 O   0  0  0  0  0  0  0  0  0  0  0  0
    7.7667   -4.1667    0.0000 Br  0  0  0  0  0  0  0  0  0  0  0  0
    4.9792   -5.8375    0.0000 C   0  0  0  0  0  0  0  0  0  0  0  0
    3.5500   -3.3042    0.0000 C   0  0  0  0  0  0  0  0  0  0  0  0
    6.7292   -2.7042    0.0000 C   0  0  0  0  0  0  0  0  0  0  0  0
    6.1667   -2.0875    0.0000 C   0  0  0  0  0  0  0  0  0  0  0  0
    6.4042   -1.3375    0.0000 C   0  0  0  0  0  0  0  0  0  0  0  0
  2  1  2  0  0  0  0
  3  1  1  0  0  0  0
  4  1  1  0  0  0  0
  5  6  1  0  0  0  0
  6  4  1  0  0  0  0
  7  2  1  0  0  0  0
  8  3  2  0  0  0  0
  9  2  1  0  0  0  0
 10  6  2  0  0  0  0
 11  7  2  0  0  0  0
 12  8  1  0  0  0  0
 13  4  1  0  0  0  0
 14  5  1  0  0  0  0
 15  9  1  0  0  0  0
 16 15  1  0  0  0  0
 17 16  1  0  0  0  0
  9  8  1  0  0  0  0
  7  5  1  0  0  0  0
M  END
> <IDNUMBER>
F0373-0285

> <Chemical_Name>
8-bromo-1,3-dimethyl-7-propyl-2,3,6,7-tetrahydro-1H-purine-2,6-dione

> <CAS>
17801-73-9

> <PriceCoeff>
1.00

> <MW>
301.14

> <Description>
solid

> <FSP3>
0.50

> <clogP>
1.92

> <TPSA>
58.44

> <Acceptor>
3

> <Donor>
1

> <RotBonds>
2

> <HAC>
17

> <Collection>
General

> <Reference_compound>
CHEMBL113

> <Similarity>
0.8210

$$$$
F0373-0540
  -ISIS-  06222321442D

 17 18  0  0  0  0  0  0  0  0999 V2000
   -2.7125    0.2125    0.0000 C   0  0  0  0  0  0  0  0  0  0  0  0
   -2.7125    0.8958    0.0000 C   0  0  0  0  0  0  0  0  0  0  0  0
   -2.0500   -0.0000    0.0000 N   0  0  0  0  0  0  0  0  0  0  0  0
   -3.2958   -0.1500    0.0000 N   0  0  3  0  0  0  0  0  0  0  0  0
   -3.8958    0.8958    0.0000 N   0  0  3  0  0  0  0  0  0  0  0  0
   -3.8958    0.2125    0.0000 C   0  0  0  0  0  0  0  0  0  0  0  0
   -3.2958    1.2333    0.0000 C   0  0  0  0  0  0  0  0  0  0  0  0
   -1.6708    0.5500    0.0000 C   0  0  0  0  0  0  0  0  0  0  0  0
   -2.0500    1.1125    0.0000 N   0  0  3  0  0  0  0  0  0  0  0  0
   -4.4958   -0.1500    0.0000 O   0  0  0  0  0  0  0  0  0  0  0  0
   -3.2958    1.9333    0.0000 O   0  0  0  0  0  0  0  0  0  0  0  0
   -0.9708    0.5708    0.0000 Br  0  0  0  0  0  0  0  0  0  0  0  0
   -1.8333    1.7708    0.0000 C   0  0  3  0  0  0  0  0  0  0  0  0
   -3.2958   -0.8167    0.0000 C   0  0  0  0  0  0  0  0  0  0  0  0
   -4.4958    1.2500    0.0000 C   0  0  0  0  0  0  0  0  0  0  0  0
   -1.1500    1.9125    0.0000 C   0  0  0  0  0  0  0  0  0  0  0  0
   -2.2958    2.2958    0.0000 C   0  0  0  0  0  0  0  0  0  0  0  0
  2  1  2  0  0  0  0
  3  1  1  0  0  0  0
  4  1  1  0  0  0  0
  5  6  1  0  0  0  0
  6  4  1  0  0  0  0
  7  2  1  0  0  0  0
  8  3  2  0  0  0  0
  9  2  1  0  0  0  0
 10  6  2  0  0  0  0
 11  7  2  0  0  0  0
 12  8  1  0  0  0  0
 13  9  1  0  0  0  0
 14  4  1  0  0  0  0
 15  5  1  0  0  0  0
 16 13  1  0  0  0  0
 17 13  1  0  0  0  0
  9  8  1  0  0  0  0
  5  7  1  0  0  0  0
M  END
> <IDNUMBER>
F0373-0540

> <Chemical_Name>
8-bromo-1,3-dimethyl-7-(propan-2-yl)-2,3,6,7-tetrahydro-1H-purine-2,6-dione

> <CAS>
368840-60-2

> <PriceCoeff>
1.00

> <MW>
301.14

> <Description>
solid

> <FSP3>
0.50

> <clogP>
1.70

> <TPSA>
58.44

> <Acceptor>
3

> <Donor>
1

> <RotBonds>
1

> <HAC>
17

> <Collection>
General

> <Reference_compound>
CHEMBL113

> <Similarity>
0.8240

$$$$
F2756-2235
  -ISIS-  06222304352D

 36 39  0  0  0  0  0  0  0  0999 V2000
   -3.1583    5.0292    0.0000 C   0  0  0  0  0  0  0  0  0  0  0  0
   -3.1583    4.2042    0.0000 N   0  0  3  0  0  0  0  0  0  0  0  0
   -3.8250    5.5167    0.0000 N   0  0  0  0  0  0  0  0  0  0  0  0
   -3.8833    0.5125    0.0000 N   0  0  3  0  0  0  0  0  0  0  0  0
   -2.4958    5.5167    0.0000 S   0  0  0  0  0  0  0  0  0  0  0  0
   -3.8708    3.8000    0.0000 C   0  0  0  0  0  0  0  0  0  0  0  0
   -3.5750    6.3000    0.0000 C   0  0  0  0  0  0  0  0  0  0  0  0
   -2.7500    6.3000    0.0000 C   0  0  0  0  0  0  0  0  0  0  0  0
   -4.5083    0.0083    0.0000 C   0  0  0  0  0  0  0  0  0  0  0  0
   -3.1958    0.0583    0.0000 C   0  0  0  0  0  0  0  0  0  0  0  0
   -2.4458    3.8000    0.0000 C   0  0  0  0  0  0  0  0  0  0  0  0
   -3.8750    1.3375    0.0000 C   0  0  0  0  0  0  0  0  0  0  0  0
   -3.9833    7.0125    0.0000 C   0  0  0  0  0  0  0  0  0  0  0  0
   -2.3375    7.0125    0.0000 C   0  0  0  0  0  0  0  0  0  0  0  0
   -3.8708    2.9833    0.0000 C   0  0  0  0  0  0  0  0  0  0  0  0
   -3.5708    7.7167    0.0000 C   0  0  0  0  0  0  0  0  0  0  0  0
   -2.7500    7.7292    0.0000 C   0  0  0  0  0  0  0  0  0  0  0  0
   -1.7333    2.5583    0.0000 N   0  0  3  0  0  0  0  0  0  0  0  0
   -4.5833    4.2042    0.0000 O   0  0  0  0  0  0  0  0  0  0  0  0
   -4.2333   -0.7625    0.0000 C   0  0  0  0  0  0  0  0  0  0  0  0
   -3.4208   -0.7375    0.0000 C   0  0  0  0  0  0  0  0  0  0  0  0
   -5.3083    0.2333    0.0000 O   0  0  0  0  0  0  0  0  0  0  0  0
   -2.4083    0.3375    0.0000 O   0  0  0  0  0  0  0  0  0  0  0  0
   -3.1500    1.7458    0.0000 C   0  0  0  0  0  0  0  0  0  0  0  0
   -4.5833    1.7500    0.0000 C   0  0  0  0  0  0  0  0  0  0  0  0
   -2.4458    2.9708    0.0000 C   0  0  0  0  0  0  0  0  0  0  0  0
   -4.5708    2.5833    0.0000 C   0  0  0  0  0  0  0  0  0  0  0  0
   -3.1458    2.5708    0.0000 C   0  0  0  0  0  0  0  0  0  0  0  0
   -0.3083    1.7333    0.0000 O   0  0  0  0  0  0  0  0  0  0  0  0
   -1.0208    2.9833    0.0000 C   0  0  0  0  0  0  0  0  0  0  0  0
   -1.7333    1.7375    0.0000 C   0  0  0  0  0  0  0  0  0  0  0  0
   -2.3458    8.4542    0.0000 C   0  0  0  0  0  0  0  0  0  0  0  0
   -3.9958    8.4292    0.0000 C   0  0  0  0  0  0  0  0  0  0  0  0
   -1.0208    1.3250    0.0000 C   0  0  0  0  0  0  0  0  0  0  0  0
   -0.3083    2.5625    0.0000 C   0  0  0  0  0  0  0  0  0  0  0  0
    1.2084    3.9417    0.0000 Cl  0  0  0  0  0  0  0  0  0  0  0  0
  3  1  2  0  0  0  0
  4 12  1  0  0  0  0
  5  1  1  0  0  0  0
  6  2  1  0  0  0  0
  7  3  1  0  0  0  0
  8  5  1  0  0  0  0
  9  4  1  0  0  0  0
 10  4  1  0  0  0  0
 11  2  1  0  0  0  0
 12 24  1  0  0  0  0
 13  7  1  0  0  0  0
 14  8  1  0  0  0  0
 15  6  1  0  0  0  0
 16 13  2  0  0  0  0
 17 14  2  0  0  0  0
 18 26  1  0  0  0  0
 19  6  2  0  0  0  0
 20  9  1  0  0  0  0
 21 10  1  0  0  0  0
 22  9  2  0  0  0  0
 23 10  2  0  0  0  0
 24 28  2  0  0  0  0
 25 27  1  0  0  0  0
 26 11  1  0  0  0  0
 27 15  2  0  0  0  0
 28 15  1  0  0  0  0
 29 34  1  0  0  0  0
 30 18  1  0  0  0  0
 31 18  1  0  0  0  0
 32 17  1  0  0  0  0
 33 16  1  0  0  0  0
 34 31  1  0  0  0  0
 35 30  1  0  0  0  0
  8  7  2  0  0  0  0
 16 17  1  0  0  0  0
 12 25  2  0  0  0  0
 29 35  1  0  0  0  0
 21 20  1  0  0  0  0
  2  1  1  0  0  0  0
M  END
> <IDNUMBER>
F2756-2235

> <Chemical_Name>
N-(5,6-dimethyl-1,3-benzothiazol-2-yl)-4-(2,5-dioxopyrrolidin-1-yl)-N-[2-(morpholin-4-yl)ethyl]benzamide hydrochloride

> <CAS>
1329985-36-5

> <PriceCoeff>
1.00

> <MW>
492.59

> <Description>
solid

> <FSP3>
0.38

> <clogP>
2.05

> <TPSA>
111.29

> <Acceptor>
5

> <Donor>
1

> <RotBonds>
7

> <HAC>
35

> <Collection>
General

$$$$
F2211-0008
  -ISIS-  06222321142D

 20 22  0  0  0  0  0  0  0  0999 V2000
    6.3042   -8.2292    0.0000 C   0  0  0  0  0  0  0  0  0  0  0  0
    6.3000   -9.0542    0.0000 C   0  0  0  0  0  0  0  0  0  0  0  0
    5.5875   -7.8125    0.0000 O   0  0  0  0  0  0  0  0  0  0  0  0
    4.8667   -9.0500    0.0000 C   0  0  0  0  0  0  0  0  0  0  0  0
    5.5792   -9.4625    0.0000 C   0  0  0  0  0  0  0  0  0  0  0  0
    4.8750   -8.2250    0.0000 C   0  0  0  0  0  0  0  0  0  0  0  0
    7.0167   -7.8167    0.0000 C   0  0  0  0  0  0  0  0  0  0  0  0
    4.1625   -9.4625    0.0000 C   0  0  0  0  0  0  0  0  0  0  0  0
    5.5792  -10.2875    0.0000 O   0  0  0  0  0  0  0  0  0  0  0  0
    7.7292   -8.2292    0.0000 C   0  0  0  0  0  0  0  0  0  0  0  0
    4.1625   -7.8125    0.0000 C   0  0  0  0  0  0  0  0  0  0  0  0
    3.4417   -9.0542    0.0000 C   0  0  0  0  0  0  0  0  0  0  0  0
    2.7292   -9.4667    0.0000 N   0  0  0  0  0  0  0  0  0  0  0  0
    3.4417   -8.2250    0.0000 C   0  0  0  0  0  0  0  0  0  0  0  0
    7.7250   -9.0542    0.0000 O   0  0  0  0  0  0  0  0  0  0  0  0
    7.0167   -6.9917    0.0000 C   0  0  0  0  0  0  0  0  0  0  0  0
    8.4417   -7.8250    0.0000 C   0  0  0  0  0  0  0  0  0  0  0  0
    8.4375   -9.4667    0.0000 C   0  0  0  0  0  0  0  0  0  0  0  0
    7.7292   -6.5792    0.0000 C   0  0  0  0  0  0  0  0  0  0  0  0
    8.4417   -7.0000    0.0000 C   0  0  0  0  0  0  0  0  0  0  0  0
  2  1  2  0  0  0  0
  3  1  1  0  0  0  0
  4  6  1  0  0  0  0
  5  2  1  0  0  0  0
  6  3  1  0  0  0  0
  7  1  1  0  0  0  0
  8  4  2  0  0  0  0
  9  5  2  0  0  0  0
 10  7  2  0  0  0  0
 11  6  2  0  0  0  0
 12 14  2  0  0  0  0
 13 12  1  0  0  0  0
 14 11  1  0  0  0  0
 15 10  1  0  0  0  0
 16  7  1  0  0  0  0
 17 10  1  0  0  0  0
 18 15  1  0  0  0  0
 19 16  2  0  0  0  0
 20 19  1  0  0  0  0
  5  4  1  0  0  0  0
 20 17  2  0  0  0  0
 12  8  1  0  0  0  0
M  END
> <IDNUMBER>
F2211-0008

> <Chemical_Name>
6-amino-2-(2-methoxyphenyl)-4H-chromen-4-one

> <CAS>
55160-75-3

> <PriceCoeff>
1.00

> <MW>
267.28

> <Description>
solid

> <FSP3>
0.06

> <clogP>
2.00

> <TPSA>
61.55

> <Acceptor>
4

> <Donor>
1

> <RotBonds>
2

> <HAC>
20

> <Collection>
General

> <Reference_compound>
CHEMBL275638

> <Similarity>
0.8460

$$$$
F2515-1114
  -ISIS-  06222321142D

 29 32  0  0  0  0  0  0  0  0999 V2000
   -4.5625    2.1500    0.0000 C   0  0  0  0  0  0  0  0  0  0  0  0
   -4.6583    1.3250    0.0000 N   0  0  0  0  0  0  0  0  0  0  0  0
   -3.1333    4.6292    0.0000 N   0  0  3  0  0  0  0  0  0  0  0  0
   -3.8458    2.5583    0.0000 N   0  0  3  0  0  0  0  0  0  0  0  0
   -5.3208    2.4875    0.0000 S   0  0  0  0  0  0  0  0  0  0  0  0
   -5.4583    1.1583    0.0000 C   0  0  0  0  0  0  0  0  0  0  0  0
   -3.8458    3.3958    0.0000 C   0  0  0  0  0  0  0  0  0  0  0  0
   -3.1333    3.8000    0.0000 C   0  0  0  0  0  0  0  0  0  0  0  0
   -3.8000    5.1042    0.0000 C   0  0  0  0  0  0  0  0  0  0  0  0
   -2.4625    5.1042    0.0000 C   0  0  0  0  0  0  0  0  0  0  0  0
   -5.8708    1.8708    0.0000 C   0  0  0  0  0  0  0  0  0  0  0  0
   -3.1333    2.1458    0.0000 C   0  0  0  0  0  0  0  0  0  0  0  0
   -5.8625    0.4458    0.0000 C   0  0  0  0  0  0  0  0  0  0  0  0
   -4.5625    3.8000    0.0000 O   0  0  0  0  0  0  0  0  0  0  0  0
   -3.5458    5.8917    0.0000 C   0  0  0  0  0  0  0  0  0  0  0  0
   -2.7208    5.8917    0.0000 C   0  0  0  0  0  0  0  0  0  0  0  0
   -4.5833    4.8667    0.0000 O   0  0  0  0  0  0  0  0  0  0  0  0
   -1.6750    4.8417    0.0000 O   0  0  0  0  0  0  0  0  0  0  0  0
   -2.4208    0.0833    0.0000 N   0  0  0  0  0  0  0  0  0  0  0  0
   -3.1333    1.3208    0.0000 C   0  0  0  0  0  0  0  0  0  0  0  0
   -5.4583   -0.2667    0.0000 O   0  0  0  0  0  0  0  0  0  0  0  0
   -6.6917    1.8708    0.0000 C   0  0  0  0  0  0  0  0  0  0  0  0
   -2.4208    0.9083    0.0000 C   0  0  0  0  0  0  0  0  0  0  0  0
   -7.0917    1.1500    0.0000 C   0  0  0  0  0  0  0  0  0  0  0  0
   -6.6792    0.4375    0.0000 C   0  0  0  0  0  0  0  0  0  0  0  0
   -3.1333   -0.3292    0.0000 C   0  0  0  0  0  0  0  0  0  0  0  0
   -3.8500    0.9083    0.0000 C   0  0  0  0  0  0  0  0  0  0  0  0
   -4.6333   -0.2667    0.0000 C   0  0  0  0  0  0  0  0  0  0  0  0
   -3.8500    0.0833    0.0000 C   0  0  0  0  0  0  0  0  0  0  0  0
  2  1  2  0  0  0  0
  3  8  1  0  0  0  0
  4  1  1  0  0  0  0
  5  1  1  0  0  0  0
  6  2  1  0  0  0  0
  7  4  1  0  0  0  0
  8  7  1  0  0  0  0
  9  3  1  0  0  0  0
 10  3  1  0  0  0  0
 11  5  1  0  0  0  0
 12  4  1  0  0  0  0
 13  6  1  0  0  0  0
 14  7  2  0  0  0  0
 15  9  1  0  0  0  0
 16 10  1  0  0  0  0
 17  9  2  0  0  0  0
 18 10  2  0  0  0  0
 19 23  2  0  0  0  0
 20 12  1  0  0  0  0
 21 13  1  0  0  0  0
 22 11  1  0  0  0  0
 23 20  1  0  0  0  0
 24 22  2  0  0  0  0
 25 13  2  0  0  0  0
 26 29  2  0  0  0  0
 27 20  2  0  0  0  0
 28 21  1  0  0  0  0
 29 27  1  0  0  0  0
 11  6  2  0  0  0  0
 25 24  1  0  0  0  0
 19 26  1  0  0  0  0
 15 16  1  0  0  0  0
M  END
> <IDNUMBER>
F2515-1114

> <Chemical_Name>
2-(2,5-dioxopyrrolidin-1-yl)-N-(4-methoxy-1,3-benzothiazol-2-yl)-N-[(pyridin-3-yl)methyl]acetamide

> <CAS>
895005-78-4

> <PriceCoeff>
1.00

> <MW>
410.45

> <Description>
solid

> <FSP3>
0.25

> <clogP>
1.26

> <TPSA>
120.94

> <Acceptor>
6

> <Donor>
1

> <RotBonds>
7

> <HAC>
29

> <Collection>
General

$$$$
F2738-0339
  -ISIS-  06222321152D

 30 33  0  0  0  0  0  0  0  0999 V2000
   -3.1500    3.3833    0.0000 C   0  0  0  0  0  0  0  0  0  0  0  0
   -2.3958    3.7333    0.0000 N   0  0  0  0  0  0  0  0  0  0  0  0
   -6.0042    3.3958    0.0000 N   0  0  3  0  0  0  0  0  0  0  0  0
   -3.8708    3.8000    0.0000 N   0  0  3  0  0  0  0  0  0  0  0  0
   -3.0708    2.5708    0.0000 S   0  0  0  0  0  0  0  0  0  0  0  0
   -1.8458    3.1083    0.0000 C   0  0  0  0  0  0  0  0  0  0  0  0
   -4.5833    3.3958    0.0000 C   0  0  0  0  0  0  0  0  0  0  0  0
   -5.3083    3.8083    0.0000 C   0  0  0  0  0  0  0  0  0  0  0  0
   -6.7542    3.7333    0.0000 C   0  0  0  0  0  0  0  0  0  0  0  0
   -6.0792    2.5708    0.0000 C   0  0  0  0  0  0  0  0  0  0  0  0
   -2.2583    2.3958    0.0000 C   0  0  0  0  0  0  0  0  0  0  0  0
   -3.8708    4.6042    0.0000 C   0  0  0  0  0  0  0  0  0  0  0  0
   -1.0083    3.1125    0.0000 C   0  0  0  0  0  0  0  0  0  0  0  0
   -4.5833    2.5708    0.0000 O   0  0  0  0  0  0  0  0  0  0  0  0
   -7.3042    3.1083    0.0000 C   0  0  0  0  0  0  0  0  0  0  0  0
   -6.8917    2.3958    0.0000 C   0  0  0  0  0  0  0  0  0  0  0  0
   -6.9292    4.5125    0.0000 O   0  0  0  0  0  0  0  0  0  0  0  0
   -5.4833    2.0250    0.0000 O   0  0  0  0  0  0  0  0  0  0  0  0
   -2.4583    4.6042    0.0000 N   0  0  0  0  0  0  0  0  0  0  0  0
   -3.1625    5.0250    0.0000 C   0  0  0  0  0  0  0  0  0  0  0  0
   -0.5958    3.8208    0.0000 O   0  0  0  0  0  0  0  0  0  0  0  0
   -1.8458    1.6708    0.0000 C   0  0  0  0  0  0  0  0  0  0  0  0
   -1.0208    1.6708    0.0000 C   0  0  0  0  0  0  0  0  0  0  0  0
   -0.6083    2.3958    0.0000 C   0  0  0  0  0  0  0  0  0  0  0  0
   -1.7500    5.0167    0.0000 C   0  0  0  0  0  0  0  0  0  0  0  0
   -3.1708    5.8375    0.0000 C   0  0  0  0  0  0  0  0  0  0  0  0
    0.2875    3.8583    0.0000 C   0  0  0  0  0  0  0  0  0  0  0  0
    0.5167    4.4917    0.0000 C   0  0  0  0  0  0  0  0  0  0  0  0
   -1.7458    5.8417    0.0000 C   0  0  0  0  0  0  0  0  0  0  0  0
   -2.4625    6.2500    0.0000 C   0  0  0  0  0  0  0  0  0  0  0  0
  2  1  2  0  0  0  0
  3  8  1  0  0  0  0
  4  1  1  0  0  0  0
  5  1  1  0  0  0  0
  6  2  1  0  0  0  0
  7  4  1  0  0  0  0
  8  7  1  0  0  0  0
  9  3  1  0  0  0  0
 10  3  1  0  0  0  0
 11  5  1  0  0  0  0
 12  4  1  0  0  0  0
 13  6  1  0  0  0  0
 14  7  2  0  0  0  0
 15  9  1  0  0  0  0
 16 10  1  0  0  0  0
 17  9  2  0  0  0  0
 18 10  2  0  0  0  0
 19 20  2  0  0  0  0
 20 12  1  0  0  0  0
 21 13  1  0  0  0  0
 22 11  1  0  0  0  0
 23 22  2  0  0  0  0
 24 13  2  0  0  0  0
 25 19  1  0  0  0  0
 26 20  1  0  0  0  0
 27 21  1  0  0  0  0
 28 27  1  0  0  0  0
 29 30  1  0  0  0  0
 30 26  2  0  0  0  0
 11  6  2  0  0  0  0
 24 23  1  0  0  0  0
 29 25  2  0  0  0  0
 15 16  1  0  0  0  0
M  END
> <IDNUMBER>
F2738-0339

> <Chemical_Name>
2-(2,5-dioxopyrrolidin-1-yl)-N-(4-ethoxy-1,3-benzothiazol-2-yl)-N-[(pyridin-2-yl)methyl]acetamide

> <CAS>
922586-79-6

> <PriceCoeff>
1.00

> <MW>
424.47

> <Description>
solid

> <FSP3>
0.29

> <clogP>
1.79

> <TPSA>
120.94

> <Acceptor>
6

> <Donor>
1

> <RotBonds>
8

> <HAC>
30

> <Collection>
General

$$$$
F2756-1735
  -ISIS-  06222304352D

 36 39  0  0  0  0  0  0  0  0999 V2000
   -3.1583    5.0292    0.0000 C   0  0  0  0  0  0  0  0  0  0  0  0
   -3.8250    5.5167    0.0000 N   0  0  0  0  0  0  0  0  0  0  0  0
   -3.1583    4.2042    0.0000 N   0  0  3  0  0  0  0  0  0  0  0  0
   -2.4958    5.5167    0.0000 S   0  0  0  0  0  0  0  0  0  0  0  0
   -5.2958    1.3458    0.0000 N   0  0  3  0  0  0  0  0  0  0  0  0
   -3.8708    3.8000    0.0000 C   0  0  0  0  0  0  0  0  0  0  0  0
   -3.5750    6.3000    0.0000 C   0  0  0  0  0  0  0  0  0  0  0  0
   -2.7500    6.3000    0.0000 C   0  0  0  0  0  0  0  0  0  0  0  0
   -4.5833    1.7583    0.0000 C   0  0  0  0  0  0  0  0  0  0  0  0
   -6.0167    1.7125    0.0000 C   0  0  0  0  0  0  0  0  0  0  0  0
   -5.4083    0.5333    0.0000 C   0  0  0  0  0  0  0  0  0  0  0  0
   -3.8708    2.9833    0.0000 C   0  0  0  0  0  0  0  0  0  0  0  0
   -4.5833    2.5833    0.0000 C   0  0  0  0  0  0  0  0  0  0  0  0
   -2.4458    3.8000    0.0000 C   0  0  0  0  0  0  0  0  0  0  0  0
   -1.7333    2.5583    0.0000 N   0  0  3  0  0  0  0  0  0  0  0  0
   -3.9833    7.0125    0.0000 C   0  0  0  0  0  0  0  0  0  0  0  0
   -2.3375    7.0125    0.0000 C   0  0  0  0  0  0  0  0  0  0  0  0
   -4.5833    4.2042    0.0000 O   0  0  0  0  0  0  0  0  0  0  0  0
   -6.5917    1.1125    0.0000 C   0  0  0  0  0  0  0  0  0  0  0  0
   -6.2125    0.3833    0.0000 C   0  0  0  0  0  0  0  0  0  0  0  0
   -6.1542    2.5250    0.0000 O   0  0  0  0  0  0  0  0  0  0  0  0
   -4.8333   -0.0417    0.0000 O   0  0  0  0  0  0  0  0  0  0  0  0
   -2.4458    2.9708    0.0000 C   0  0  0  0  0  0  0  0  0  0  0  0
   -3.5708    7.7167    0.0000 C   0  0  0  0  0  0  0  0  0  0  0  0
   -2.7500    7.7292    0.0000 C   0  0  0  0  0  0  0  0  0  0  0  0
   -0.3083    1.7333    0.0000 O   0  0  0  0  0  0  0  0  0  0  0  0
   -3.8708    1.3375    0.0000 C   0  0  0  0  0  0  0  0  0  0  0  0
   -3.1500    2.5708    0.0000 C   0  0  0  0  0  0  0  0  0  0  0  0
   -1.7333    1.7375    0.0000 C   0  0  0  0  0  0  0  0  0  0  0  0
   -1.0208    2.9833    0.0000 C   0  0  0  0  0  0  0  0  0  0  0  0
   -3.1583    1.7500    0.0000 C   0  0  0  0  0  0  0  0  0  0  0  0
   -1.0208    1.3250    0.0000 C   0  0  0  0  0  0  0  0  0  0  0  0
   -0.3083    2.5625    0.0000 C   0  0  0  0  0  0  0  0  0  0  0  0
   -1.5083    7.0042    0.0000 C   0  0  0  0  0  0  0  0  0  0  0  0
   -4.8208    7.0167    0.0000 C   0  0  0  0  0  0  0  0  0  0  0  0
    1.2084    3.7875    0.0000 Cl  0  0  0  0  0  0  0  0  0  0  0  0
  3  1  1  0  0  0  0
  4  1  1  0  0  0  0
  5  9  1  0  0  0  0
  6  3  1  0  0  0  0
  7  2  1  0  0  0  0
  8  4  1  0  0  0  0
  9 13  1  0  0  0  0
 10  5  1  0  0  0  0
 11  5  1  0  0  0  0
 12  6  1  0  0  0  0
 13 12  2  0  0  0  0
 14  3  1  0  0  0  0
 15 23  1  0  0  0  0
 16  7  1  0  0  0  0
 17  8  1  0  0  0  0
 18  6  2  0  0  0  0
 19 10  1  0  0  0  0
 20 11  1  0  0  0  0
 21 10  2  0  0  0  0
 22 11  2  0  0  0  0
 23 14  1  0  0  0  0
 24 16  2  0  0  0  0
 25 17  2  0  0  0  0
 26 33  1  0  0  0  0
 27 31  1  0  0  0  0
 28 12  1  0  0  0  0
 29 15  1  0  0  0  0
 30 15  1  0  0  0  0
 31 28  2  0  0  0  0
 32 29  1  0  0  0  0
 33 30  1  0  0  0  0
 34 17  1  0  0  0  0
 35 16  1  0  0  0  0
  8  7  2  0  0  0  0
 24 25  1  0  0  0  0
 26 32  1  0  0  0  0
  9 27  2  0  0  0  0
 20 19  1  0  0  0  0
  2  1  2  0  0  0  0
M  END
> <IDNUMBER>
F2756-1735

> <Chemical_Name>
N-(4,7-dimethyl-1,3-benzothiazol-2-yl)-3-(2,5-dioxopyrrolidin-1-yl)-N-[2-(morpholin-4-yl)ethyl]benzamide hydrochloride

> <CAS>
1330397-25-5

> <PriceCoeff>
1.00

> <MW>
492.59

> <Description>
solid

> <FSP3>
0.38

> <clogP>
2.10

> <TPSA>
111.29

> <Acceptor>
5

> <Donor>
1

> <RotBonds>
7

> <HAC>
35

> <Collection>
General

$$$$
F5857-2692
  -ISIS-  06222321462D

 27 29  0  0  0  0  0  0  0  0999 V2000
   -5.2833    2.5708    0.0000 N   0  0  3  0  0  0  0  0  0  0  0  0
   -5.3625    1.7458    0.0000 C   0  0  0  0  0  0  0  0  0  0  0  0
   -6.0292    2.9000    0.0000 C   0  0  0  0  0  0  0  0  0  0  0  0
   -4.5708    2.9875    0.0000 C   0  0  0  0  0  0  0  0  0  0  0  0
   -4.5708    3.8000    0.0000 C   0  0  0  0  0  0  0  0  0  0  0  0
   -3.1458    5.4417    0.0000 C   0  0  3  0  0  0  0  0  0  0  0  0
   -2.4333    5.8542    0.0000 C   0  0  0  0  0  0  0  0  0  0  0  0
   -3.8583    4.2125    0.0000 N   0  0  0  0  0  0  0  0  0  0  0  0
   -6.1667    1.5708    0.0000 C   0  0  0  0  0  0  0  0  0  0  0  0
   -6.5750    2.2833    0.0000 C   0  0  0  0  0  0  0  0  0  0  0  0
   -0.9958    6.6750    0.0000 C   0  0  0  0  0  0  0  0  0  0  0  0
   -4.7458    1.1833    0.0000 O   0  0  0  0  0  0  0  0  0  0  0  0
   -6.2042    3.7083    0.0000 O   0  0  0  0  0  0  0  0  0  0  0  0
   -3.8583    5.0417    0.0000 C   0  0  0  0  0  0  0  0  0  0  0  0
   -5.2958    4.2125    0.0000 O   0  0  0  0  0  0  0  0  0  0  0  0
   -1.7083    5.4375    0.0000 C   0  0  0  0  0  0  0  0  0  0  0  0
   -2.4208    6.6875    0.0000 C   0  0  0  0  0  0  0  0  0  0  0  0
   -0.9958    5.8542    0.0000 C   0  0  0  0  0  0  0  0  0  0  0  0
   -1.7083    7.0917    0.0000 C   0  0  0  0  0  0  0  0  0  0  0  0
   -0.2833    7.0875    0.0000 C   0  0  0  0  0  0  0  0  0  0  0  0
   -3.5583    6.1667    0.0000 O   0  0  0  0  0  0  0  0  0  0  0  0
   -2.7375    4.7292    0.0000 C   0  0  0  0  0  0  0  0  0  0  0  0
    0.4375    6.6542    0.0000 C   0  0  0  0  0  0  0  0  0  0  0  0
   -0.2708    7.9167    0.0000 C   0  0  0  0  0  0  0  0  0  0  0  0
    1.1542    7.0667    0.0000 C   0  0  0  0  0  0  0  0  0  0  0  0
    0.4542    8.3167    0.0000 C   0  0  0  0  0  0  0  0  0  0  0  0
    1.1625    7.9000    0.0000 C   0  0  0  0  0  0  0  0  0  0  0  0
  2  1  1  0  0  0  0
  3  1  1  0  0  0  0
  4  1  1  0  0  0  0
  5  4  1  0  0  0  0
  6 14  1  0  0  0  0
  7  6  1  0  0  0  0
  8  5  1  0  0  0  0
  9  2  1  0  0  0  0
 10  3  1  0  0  0  0
 11 19  2  0  0  0  0
 12  2  2  0  0  0  0
 13  3  2  0  0  0  0
 14  8  1  0  0  0  0
 15  5  2  0  0  0  0
 16  7  1  0  0  0  0
 17  7  2  0  0  0  0
 18 16  2  0  0  0  0
 19 17  1  0  0  0  0
 20 11  1  0  0  0  0
 21  6  1  0  0  0  0
 22  6  1  0  0  0  0
 23 20  2  0  0  0  0
 24 20  1  0  0  0  0
 25 23  1  0  0  0  0
 26 24  2  0  0  0  0
 27 26  1  0  0  0  0
  9 10  1  0  0  0  0
 18 11  1  0  0  0  0
 25 27  2  0  0  0  0
M  END
> <IDNUMBER>
F5857-2692

> <Chemical_Name>
N-(2-{[1,1'-biphenyl]-4-yl}-2-hydroxypropyl)-2-(2,5-dioxopyrrolidin-1-yl)acetamide

> <CAS>
1396868-80-6

> <PriceCoeff>
1.00

> <MW>
366.41

> <Description>
solid

> <FSP3>
0.29

> <clogP>
2.29

> <TPSA>
86.71

> <Acceptor>
4

> <Donor>
2

> <RotBonds>
6

> <HAC>
27

> <Collection>
General

$$$$
F0799-0087
  -ISIS-  06222321452D

 19 20  0  0  0  0  0  0  0  0999 V2000
    0.0042    0.6208    0.0000 C   0  0  0  0  0  0  0  0  0  0  0  0
    0.0042    1.3958    0.0000 C   0  0  0  0  0  0  0  0  0  0  0  0
    0.6667    0.2208    0.0000 N   0  0  0  0  0  0  0  0  0  0  0  0
   -0.6833    0.2250    0.0000 N   0  0  3  0  0  0  0  0  0  0  0  0
   -1.3458    1.3958    0.0000 N   0  0  3  0  0  0  0  0  0  0  0  0
   -1.3458    0.6083    0.0000 C   0  0  0  0  0  0  0  0  0  0  0  0
   -0.6833    1.7875    0.0000 C   0  0  0  0  0  0  0  0  0  0  0  0
    1.3417    0.6000    0.0000 C   0  0  0  0  0  0  0  0  0  0  0  0
    1.3542    1.3875    0.0000 N   0  0  3  0  0  0  0  0  0  0  0  0
   -2.0208    0.2208    0.0000 O   0  0  0  0  0  0  0  0  0  0  0  0
   -0.6833    2.5708    0.0000 O   0  0  0  0  0  0  0  0  0  0  0  0
    2.0042    0.2208    0.0000 Br  0  0  0  0  0  0  0  0  0  0  0  0
   -0.6833   -0.5542    0.0000 C   0  0  0  0  0  0  0  0  0  0  0  0
   -2.1083    1.5958    0.0000 C   0  0  0  0  0  0  0  0  0  0  0  0
    1.9417    1.9625    0.0000 C   0  0  0  0  0  0  0  0  0  0  0  0
    2.7292    1.7458    0.0000 C   0  0  0  0  0  0  0  0  0  0  0  0
    4.1125    2.0958    0.0000 C   0  0  0  0  0  0  0  0  0  0  0  0
    3.3167    2.3208    0.0000 C   0  0  0  0  0  0  0  0  0  0  0  0
    4.7000    2.6708    0.0000 C   0  0  0  0  0  0  0  0  0  0  0  0
  2  1  2  0  0  0  0
  3  1  1  0  0  0  0
  4  1  1  0  0  0  0
  5  6  1  0  0  0  0
  6  4  1  0  0  0  0
  7  2  1  0  0  0  0
  8  3  2  0  0  0  0
  9  2  1  0  0  0  0
 10  6  2  0  0  0  0
 11  7  2  0  0  0  0
 12  8  1  0  0  0  0
 13  4  1  0  0  0  0
 14  5  1  0  0  0  0
 15  9  1  0  0  0  0
 16 15  1  0  0  0  0
 17 18  1  0  0  0  0
 18 16  1  0  0  0  0
 19 17  1  0  0  0  0
  8  9  1  0  0  0  0
  7  5  1  0  0  0  0
M  END
> <IDNUMBER>
F0799-0087

> <Chemical_Name>
8-bromo-1,3-dimethyl-7-pentyl-2,3,6,7-tetrahydro-1H-purine-2,6-dione

> <CAS>
1150-47-6

> <PriceCoeff>
1.00

> <MW>
329.20

> <Description>
solid

> <FSP3>
0.58

> <clogP>
2.97

> <TPSA>
58.44

> <Acceptor>
3

> <Donor>
1

> <RotBonds>
4

> <HAC>
19

> <Collection>
General

> <Reference_compound>
CHEMBL113

> <Similarity>
0.8030

$$$$
F1211-0295
  -ISIS-  06222321142D

 31 34  0  0  0  0  0  0  0  0999 V2000
   -3.1583    5.0292    0.0000 C   0  0  0  0  0  0  0  0  0  0  0  0
   -3.8750    0.5083    0.0000 N   0  0  3  0  0  0  0  0  0  0  0  0
   -3.8250    5.5167    0.0000 N   0  0  0  0  0  0  0  0  0  0  0  0
   -3.5708    6.3000    0.0000 C   0  0  0  0  0  0  0  0  0  0  0  0
   -3.1583    4.2042    0.0000 N   0  0  0  0  0  0  0  0  0  0  0  0
   -2.4958    5.5167    0.0000 S   0  0  0  0  0  0  0  0  0  0  0  0
   -2.7458    6.3000    0.0000 C   0  0  0  0  0  0  0  0  0  0  0  0
   -3.8708    3.8000    0.0000 C   0  0  0  0  0  0  0  0  0  0  0  0
   -4.5083    0.0083    0.0000 C   0  0  0  0  0  0  0  0  0  0  0  0
   -3.1958    0.0583    0.0000 C   0  0  0  0  0  0  0  0  0  0  0  0
   -3.8750    1.3333    0.0000 C   0  0  0  0  0  0  0  0  0  0  0  0
   -3.8208    7.0792    0.0000 C   0  0  0  0  0  0  0  0  0  0  0  0
   -3.8708    2.9833    0.0000 C   0  0  0  0  0  0  0  0  0  0  0  0
   -4.5833    4.2042    0.0000 O   0  0  0  0  0  0  0  0  0  0  0  0
   -4.2250   -0.7625    0.0000 C   0  0  0  0  0  0  0  0  0  0  0  0
   -3.4208   -0.7375    0.0000 C   0  0  0  0  0  0  0  0  0  0  0  0
   -5.3083    0.2250    0.0000 O   0  0  0  0  0  0  0  0  0  0  0  0
   -2.4083    0.3458    0.0000 O   0  0  0  0  0  0  0  0  0  0  0  0
   -3.1583    1.7458    0.0000 C   0  0  0  0  0  0  0  0  0  0  0  0
   -4.5708    1.7500    0.0000 C   0  0  0  0  0  0  0  0  0  0  0  0
   -4.5708    2.5708    0.0000 C   0  0  0  0  0  0  0  0  0  0  0  0
   -3.1583    2.5708    0.0000 C   0  0  0  0  0  0  0  0  0  0  0  0
   -4.6250    7.2542    0.0000 C   0  0  0  0  0  0  0  0  0  0  0  0
   -3.2750    7.6917    0.0000 C   0  0  0  0  0  0  0  0  0  0  0  0
   -4.3333    8.6417    0.0000 C   0  0  0  0  0  0  0  0  0  0  0  0
   -3.5208    8.4667    0.0000 C   0  0  0  0  0  0  0  0  0  0  0  0
   -4.8833    8.0292    0.0000 C   0  0  0  0  0  0  0  0  0  0  0  0
   -2.2583    6.9625    0.0000 C   0  0  0  0  0  0  0  0  0  0  0  0
   -4.5708    9.4292    0.0000 O   0  0  0  0  0  0  0  0  0  0  0  0
   -4.0208   10.0375    0.0000 C   0  0  0  0  0  0  0  0  0  0  0  0
   -4.2708   10.8125    0.0000 C   0  0  0  0  0  0  0  0  0  0  0  0
  2 11  1  0  0  0  0
  3  1  2  0  0  0  0
  4  3  1  0  0  0  0
  5  1  1  0  0  0  0
  6  1  1  0  0  0  0
  7  6  1  0  0  0  0
  8  5  1  0  0  0  0
  9  2  1  0  0  0  0
 10  2  1  0  0  0  0
 11 19  1  0  0  0  0
 12  4  1  0  0  0  0
 13  8  1  0  0  0  0
 14  8  2  0  0  0  0
 15  9  1  0  0  0  0
 16 10  1  0  0  0  0
 17  9  2  0  0  0  0
 18 10  2  0  0  0  0
 19 22  2  0  0  0  0
 20 21  1  0  0  0  0
 21 13  2  0  0  0  0
 22 13  1  0  0  0  0
 23 12  1  0  0  0  0
 24 12  2  0  0  0  0
 25 26  2  0  0  0  0
 26 24  1  0  0  0  0
 27 23  2  0  0  0  0
 28  7  1  0  0  0  0
 29 25  1  0  0  0  0
 30 29  1  0  0  0  0
 31 30  1  0  0  0  0
  4  7  2  0  0  0  0
 11 20  2  0  0  0  0
 25 27  1  0  0  0  0
 15 16  1  0  0  0  0
M  END
> <IDNUMBER>
F1211-0295

> <Chemical_Name>
4-(2,5-dioxopyrrolidin-1-yl)-N-[4-(4-ethoxyphenyl)-5-methyl-1,3-thiazol-2-yl]benzamide

> <CAS>
536732-72-6

> <PriceCoeff>
1.00

> <MW>
435.50

> <Description>
solid

> <FSP3>
0.22

> <clogP>
2.87

> <TPSA>
116.84

> <Acceptor>
5

> <Donor>
1

> <RotBonds>
6

> <HAC>
31

> <Collection>
General

$$$$
F1065-0545
  -ISIS-  06222321442D

 24 26  0  0  0  0  0  0  0  0999 V2000
   -1.9458   -0.1542    0.0000 N   0  0  3  0  0  0  0  0  0  0  0  0
   -2.3708   -1.4167    0.0000 C   0  0  0  0  0  0  0  0  0  0  0  0
   -0.5625   -0.1542    0.0000 C   0  0  0  0  0  0  0  0  0  0  0  0
   -0.1583   -1.4792    0.0000 C   0  0  3  0  0  0  0  0  0  0  0  0
   -1.2583   -2.2917    0.0000 C   0  0  0  0  0  0  0  0  0  0  0  0
    2.1792   -0.7125    0.0000 C   0  0  0  0  0  0  0  0  0  0  0  0
    3.5417   -1.0125    0.0000 C   0  0  0  0  0  0  0  0  0  0  0  0
    1.2542   -1.7542    0.0000 S   0  0  0  0  0  0  0  0  0  0  0  0
   -2.7833    0.9250    0.0000 C   0  0  0  0  0  0  0  0  0  0  0  0
    3.9792   -2.3542    0.0000 C   0  0  0  0  0  0  0  0  0  0  0  0
    1.7417    0.6083    0.0000 N   0  0  0  0  0  0  0  0  0  0  0  0
   -3.7125   -1.8000    0.0000 O   0  0  0  0  0  0  0  0  0  0  0  0
    0.2542    1.0000    0.0000 O   0  0  0  0  0  0  0  0  0  0  0  0
   -2.2458    2.2208    0.0000 C   0  0  0  0  0  0  0  0  0  0  0  0
    5.3292   -2.6292    0.0000 O   0  0  0  0  0  0  0  0  0  0  0  0
    3.0292   -3.3750    0.0000 O   0  0  0  0  0  0  0  0  0  0  0  0
   -0.8625    2.3625    0.0000 Cl  0  0  0  0  0  0  0  0  0  0  0  0
    4.5000    0.0083    0.0000 C   0  0  0  0  0  0  0  0  0  0  0  0
   -4.1833    0.7458    0.0000 C   0  0  0  0  0  0  0  0  0  0  0  0
    2.7042    1.6250    0.0000 C   0  0  0  0  0  0  0  0  0  0  0  0
   -3.1000    3.3458    0.0000 C   0  0  0  0  0  0  0  0  0  0  0  0
    4.0792    1.3250    0.0000 C   0  0  0  0  0  0  0  0  0  0  0  0
   -5.0333    1.8625    0.0000 C   0  0  0  0  0  0  0  0  0  0  0  0
   -4.4958    3.1708    0.0000 C   0  0  0  0  0  0  0  0  0  0  0  0
  2  1  1  0  0  0  0
  3  1  1  0  0  0  0
  4  3  1  0  0  0  0
  5  2  1  0  0  0  0
  6  8  1  0  0  0  0
  7  6  2  0  0  0  0
  8  4  1  0  0  0  0
  9  1  1  0  0  0  0
 10  7  1  0  0  0  0
 11  6  1  0  0  0  0
 12  2  2  0  0  0  0
 13  3  2  0  0  0  0
 14  9  2  0  0  0  0
 15 10  2  0  0  0  0
 16 10  1  0  0  0  0
 17 14  1  0  0  0  0
 18  7  1  0  0  0  0
 19  9  1  0  0  0  0
 20 11  2  0  0  0  0
 21 14  1  0  0  0  0
 22 20  1  0  0  0  0
 23 19  2  0  0  0  0
 24 23  1  0  0  0  0
  5  4  1  0  0  0  0
 24 21  2  0  0  0  0
 22 18  2  0  0  0  0
M  END
> <IDNUMBER>
F1065-0545

> <Chemical_Name>
2-{[1-(2-chlorophenyl)-2,5-dioxopyrrolidin-3-yl]sulfanyl}pyridine-3-carboxylic acid

> <CAS>
303033-72-9

> <PriceCoeff>
1.00

> <MW>
362.79

> <Description>
solid

> <FSP3>
0.12

> <clogP>
2.10

> <TPSA>
112.87

> <Acceptor>
5

> <Donor>
1

> <RotBonds>
4

> <HAC>
24

> <Collection>
General

$$$$
F0373-0284
  -ISIS-  06222321452D

 16 17  0  0  0  0  0  0  0  0999 V2000
    5.7167   -4.0042    0.0000 C   0  0  0  0  0  0  0  0  0  0  0  0
    5.7167   -3.1875    0.0000 C   0  0  0  0  0  0  0  0  0  0  0  0
    6.5000   -4.2667    0.0000 N   0  0  0  0  0  0  0  0  0  0  0  0
    4.9875   -4.4375    0.0000 N   0  0  3  0  0  0  0  0  0  0  0  0
    4.2542   -3.1875    0.0000 N   0  0  3  0  0  0  0  0  0  0  0  0
    4.2542   -4.0042    0.0000 C   0  0  0  0  0  0  0  0  0  0  0  0
    4.9875   -2.7542    0.0000 C   0  0  0  0  0  0  0  0  0  0  0  0
    6.9667   -3.5792    0.0000 C   0  0  0  0  0  0  0  0  0  0  0  0
    6.5000   -2.9292    0.0000 N   0  0  3  0  0  0  0  0  0  0  0  0
    3.5292   -4.4042    0.0000 O   0  0  0  0  0  0  0  0  0  0  0  0
    4.9875   -1.9292    0.0000 O   0  0  0  0  0  0  0  0  0  0  0  0
    7.7875   -3.5792    0.0000 Br  0  0  0  0  0  0  0  0  0  0  0  0
    4.9875   -5.2542    0.0000 C   0  0  0  0  0  0  0  0  0  0  0  0
    3.5292   -2.7875    0.0000 C   0  0  0  0  0  0  0  0  0  0  0  0
    6.7542   -2.1500    0.0000 C   0  0  0  0  0  0  0  0  0  0  0  0
    7.5375   -1.9875    0.0000 C   0  0  0  0  0  0  0  0  0  0  0  0
  2  1  2  0  0  0  0
  3  1  1  0  0  0  0
  4  1  1  0  0  0  0
  5  6  1  0  0  0  0
  6  4  1  0  0  0  0
  7  2  1  0  0  0  0
  8  3  2  0  0  0  0
  9  2  1  0  0  0  0
 10  6  2  0  0  0  0
 11  7  2  0  0  0  0
 12  8  1  0  0  0  0
 13  4  1  0  0  0  0
 14  5  1  0  0  0  0
 15  9  1  0  0  0  0
 16 15  1  0  0  0  0
  8  9  1  0  0  0  0
  7  5  1  0  0  0  0
M  END
> <IDNUMBER>
F0373-0284

> <Chemical_Name>
8-bromo-7-ethyl-1,3-dimethyl-2,3,6,7-tetrahydro-1H-purine-2,6-dione

> <CAS>
17801-69-3

> <PriceCoeff>
1.00

> <MW>
287.11

> <Description>
solid

> <FSP3>
0.44

> <clogP>
1.39

> <TPSA>
58.44

> <Acceptor>
3

> <Donor>
1

> <RotBonds>
1

> <HAC>
16

> <Collection>
General

> <Reference_compound>
CHEMBL113

> <Similarity>
0.8460

$$$$
F2783-0556
  -ISIS-  06222321442D

 26 28  0  0  0  0  0  0  0  0999 V2000
   -1.6208    6.7000    0.0000 N   0  0  3  0  0  0  0  0  0  0  0  0
   -3.7708    0.4875    0.0000 N   0  3  0  0  0  0  0  0  0  0  0  0
   -3.7708    2.9833    0.0000 C   0  0  0  0  0  0  0  0  0  0  0  0
   -3.7583    3.8000    0.0000 C   0  0  0  0  0  0  0  0  0  0  0  0
   -2.3333    6.2792    0.0000 C   0  0  0  0  0  0  0  0  0  0  0  0
   -0.8583    6.3750    0.0000 C   0  0  0  0  0  0  0  0  0  0  0  0
   -3.0375    2.5583    0.0000 C   0  0  0  0  0  0  0  0  0  0  0  0
   -3.7625    1.3125    0.0000 C   0  0  0  0  0  0  0  0  0  0  0  0
   -3.0375    1.7250    0.0000 C   0  0  0  0  0  0  0  0  0  0  0  0
   -3.0458    4.2125    0.0000 N   0  0  0  0  0  0  0  0  0  0  0  0
   -2.3333    5.4542    0.0000 C   0  0  0  0  0  0  0  0  0  0  0  0
   -4.4833    2.5625    0.0000 C   0  0  0  0  0  0  0  0  0  0  0  0
   -4.4833    0.0833    0.0000 O   0  5  0  0  0  0  0  0  0  0  0  0
   -3.0458    5.0292    0.0000 C   0  0  0  0  0  0  0  0  0  0  0  0
   -3.0583    0.0750    0.0000 O   0  0  0  0  0  0  0  0  0  0  0  0
   -3.0583    6.6917    0.0000 C   0  0  0  0  0  0  0  0  0  0  0  0
   -4.4750    4.2042    0.0000 O   0  0  0  0  0  0  0  0  0  0  0  0
   -4.4833    1.7333    0.0000 C   0  0  0  0  0  0  0  0  0  0  0  0
   -0.6750    5.5625    0.0000 O   0  0  0  0  0  0  0  0  0  0  0  0
   -3.7625    6.2792    0.0000 C   0  0  0  0  0  0  0  0  0  0  0  0
   -2.3208    2.9625    0.0000 Cl  0  0  0  0  0  0  0  0  0  0  0  0
   -1.5333    7.5292    0.0000 C   0  0  0  0  0  0  0  0  0  0  0  0
   -3.7625    5.4500    0.0000 C   0  0  0  0  0  0  0  0  0  0  0  0
   -0.3083    6.9917    0.0000 C   0  0  0  0  0  0  0  0  0  0  0  0
   -0.7250    7.7042    0.0000 C   0  0  0  0  0  0  0  0  0  0  0  0
   -3.0583    7.5167    0.0000 C   0  0  0  0  0  0  0  0  0  0  0  0
  2  8  1  0  0  0  0
  3  4  1  0  0  0  0
  4 10  1  0  0  0  0
  5  1  1  0  0  0  0
  6  1  1  0  0  0  0
  7  3  1  0  0  0  0
  8 18  2  0  0  0  0
  9  7  2  0  0  0  0
 10 14  1  0  0  0  0
 11  5  2  0  0  0  0
 12  3  2  0  0  0  0
 13  2  1  0  0  0  0
 14 11  1  0  0  0  0
 15  2  2  0  0  0  0
 16  5  1  0  0  0  0
 17  4  2  0  0  0  0
 18 12  1  0  0  0  0
 19  6  2  0  0  0  0
 20 16  2  0  0  0  0
 21  7  1  0  0  0  0
 22  1  1  0  0  0  0
 23 20  1  0  0  0  0
 24  6  1  0  0  0  0
 25 22  1  0  0  0  0
 26 16  1  0  0  0  0
 24 25  1  0  0  0  0
 14 23  2  0  0  0  0
  9  8  1  0  0  0  0
M  CHG  2   2   1  13  -1
M  END
> <IDNUMBER>
F2783-0556

> <Chemical_Name>
2-chloro-N-[4-methyl-3-(2-oxopyrrolidin-1-yl)phenyl]-4-nitrobenzamide

> <CAS>
941993-74-4

> <PriceCoeff>
1.00

> <MW>
373.79

> <Description>
solid

> <FSP3>
0.22

> <clogP>
2.84

> <TPSA>
92.55

> <Acceptor>
4

> <Donor>
1

> <RotBonds>
4

> <HAC>
26

> <Collection>
General

$$$$
F2784-0437
  -ISIS-  06222321442D

 26 28  0  0  0  0  0  0  0  0999 V2000
   -3.7708    0.4875    0.0000 N   0  3  0  0  0  0  0  0  0  0  0  0
   -3.7708    2.9833    0.0000 C   0  0  0  0  0  0  0  0  0  0  0  0
   -3.7583    3.8000    0.0000 C   0  0  0  0  0  0  0  0  0  0  0  0
   -1.6208    6.6792    0.0000 N   0  0  3  0  0  0  0  0  0  0  0  0
   -3.0375    2.5583    0.0000 C   0  0  0  0  0  0  0  0  0  0  0  0
   -1.6125    7.5167    0.0000 C   0  0  0  0  0  0  0  0  0  0  0  0
   -3.7625    1.3125    0.0000 C   0  0  0  0  0  0  0  0  0  0  0  0
   -2.3250    6.2667    0.0000 C   0  0  0  0  0  0  0  0  0  0  0  0
   -3.0375    1.7250    0.0000 C   0  0  0  0  0  0  0  0  0  0  0  0
   -3.0458    4.2125    0.0000 N   0  0  0  0  0  0  0  0  0  0  0  0
   -4.4833    2.5625    0.0000 C   0  0  0  0  0  0  0  0  0  0  0  0
   -2.3250    5.4417    0.0000 C   0  0  0  0  0  0  0  0  0  0  0  0
   -4.4833    0.0833    0.0000 O   0  5  0  0  0  0  0  0  0  0  0  0
   -3.0583    0.0750    0.0000 O   0  0  0  0  0  0  0  0  0  0  0  0
   -3.0458    5.0292    0.0000 C   0  0  0  0  0  0  0  0  0  0  0  0
   -4.4750    4.2042    0.0000 O   0  0  0  0  0  0  0  0  0  0  0  0
   -4.4833    1.7333    0.0000 C   0  0  0  0  0  0  0  0  0  0  0  0
   -2.3250    7.9292    0.0000 O   0  0  0  0  0  0  0  0  0  0  0  0
   -2.3208    2.9625    0.0000 Cl  0  0  0  0  0  0  0  0  0  0  0  0
   -0.8958    6.2667    0.0000 C   0  0  0  0  0  0  0  0  0  0  0  0
   -3.0458    6.6792    0.0000 C   0  0  0  0  0  0  0  0  0  0  0  0
   -0.8958    7.9292    0.0000 C   0  0  0  0  0  0  0  0  0  0  0  0
   -3.7583    6.2750    0.0000 C   0  0  0  0  0  0  0  0  0  0  0  0
   -3.7583    5.4500    0.0000 C   0  0  0  0  0  0  0  0  0  0  0  0
   -0.1833    6.6875    0.0000 C   0  0  0  0  0  0  0  0  0  0  0  0
   -0.1833    7.5125    0.0000 C   0  0  0  0  0  0  0  0  0  0  0  0
  2 11  2  0  0  0  0
  3  2  1  0  0  0  0
  4  8  1  0  0  0  0
  5  9  2  0  0  0  0
  6  4  1  0  0  0  0
  7  1  1  0  0  0  0
  8 12  2  0  0  0  0
  9  7  1  0  0  0  0
 10  3  1  0  0  0  0
 11 17  1  0  0  0  0
 12 15  1  0  0  0  0
 13  1  1  0  0  0  0
 14  1  2  0  0  0  0
 15 10  1  0  0  0  0
 16  3  2  0  0  0  0
 17  7  2  0  0  0  0
 18  6  2  0  0  0  0
 19  5  1  0  0  0  0
 20  4  1  0  0  0  0
 21 23  2  0  0  0  0
 22  6  1  0  0  0  0
 23 24  1  0  0  0  0
 24 15  2  0  0  0  0
 25 20  1  0  0  0  0
 26 25  1  0  0  0  0
  2  5  1  0  0  0  0
 21  8  1  0  0  0  0
 26 22  1  0  0  0  0
M  CHG  2   1   1  13  -1
M  END
> <IDNUMBER>
F2784-0437

> <Chemical_Name>
2-chloro-4-nitro-N-[3-(2-oxopiperidin-1-yl)phenyl]benzamide

> <CAS>
941979-19-7

> <PriceCoeff>
1.00

> <MW>
373.79

> <Description>
solid

> <FSP3>
0.22

> <clogP>
3.30

> <TPSA>
92.55

> <Acceptor>
4

> <Donor>
1

> <RotBonds>
4

> <HAC>
26

> <Collection>
General

$$$$
F0021-0037
  -ISIS-  06222321452D

 26 29  0  0  0  0  0  0  0  0999 V2000
   -0.4458    1.8958    0.0000 N   0  0  3  0  0  0  0  0  0  0  0  0
   -0.2708    2.5208    0.0000 C   0  0  0  0  0  0  0  0  0  0  0  0
    0.1000    1.5333    0.0000 C   0  0  0  0  0  0  0  0  0  0  0  0
    0.6042    1.9625    0.0000 C   0  0  3  0  0  0  0  0  0  0  0  0
    0.3792    2.5458    0.0000 C   0  0  0  0  0  0  0  0  0  0  0  0
    2.1500   -0.6792    0.0000 N   0  0  3  0  0  0  0  0  0  0  0  0
    1.2792    1.8208    0.0000 N   0  0  0  0  0  0  0  0  0  0  0  0
   -1.0708    1.7208    0.0000 C   0  0  0  0  0  0  0  0  0  0  0  0
   -0.6708    3.0625    0.0000 O   0  0  0  0  0  0  0  0  0  0  0  0
    1.9375   -0.0500    0.0000 C   0  0  0  0  0  0  0  0  0  0  0  0
    0.1375    0.8625    0.0000 O   0  0  0  0  0  0  0  0  0  0  0  0
    2.5667   -1.9167    0.0000 O   0  0  0  0  0  0  0  0  0  0  0  0
    2.3667    0.4333    0.0000 C   0  0  0  0  0  0  0  0  0  0  0  0
    1.3000    0.0708    0.0000 C   0  0  0  0  0  0  0  0  0  0  0  0
    1.5042    1.1958    0.0000 C   0  0  0  0  0  0  0  0  0  0  0  0
    1.0667    0.6958    0.0000 C   0  0  0  0  0  0  0  0  0  0  0  0
    2.1500    1.0625    0.0000 C   0  0  0  0  0  0  0  0  0  0  0  0
    2.8000   -0.8000    0.0000 C   0  0  0  0  0  0  0  0  0  0  0  0
    1.7042   -1.1542    0.0000 C   0  0  0  0  0  0  0  0  0  0  0  0
    3.0042   -1.4292    0.0000 C   0  0  0  0  0  0  0  0  0  0  0  0
    1.9292   -1.7792    0.0000 C   0  0  0  0  0  0  0  0  0  0  0  0
   -1.2500    1.0708    0.0000 C   0  0  0  0  0  0  0  0  0  0  0  0
   -1.5458    2.1708    0.0000 C   0  0  0  0  0  0  0  0  0  0  0  0
   -2.1833    2.0000    0.0000 C   0  0  0  0  0  0  0  0  0  0  0  0
   -1.8833    0.9000    0.0000 C   0  0  0  0  0  0  0  0  0  0  0  0
   -2.3500    1.3708    0.0000 C   0  0  0  0  0  0  0  0  0  0  0  0
  2  1  1  0  0  0  0
  3  1  1  0  0  0  0
  4  3  1  0  0  0  0
  5  2  1  0  0  0  0
  6 10  1  0  0  0  0
  7  4  1  0  0  0  0
  8  1  1  0  0  0  0
  9  2  2  0  0  0  0
 10 13  2  0  0  0  0
 11  3  2  0  0  0  0
 12 21  1  0  0  0  0
 13 17  1  0  0  0  0
 14 16  2  0  0  0  0
 15  7  1  0  0  0  0
 16 15  1  0  0  0  0
 17 15  2  0  0  0  0
 18  6  1  0  0  0  0
 19  6  1  0  0  0  0
 20 18  1  0  0  0  0
 21 19  1  0  0  0  0
 22  8  2  0  0  0  0
 23  8  1  0  0  0  0
 24 23  2  0  0  0  0
 25 22  1  0  0  0  0
 26 24  1  0  0  0  0
  4  5  1  0  0  0  0
 25 26  2  0  0  0  0
 10 14  1  0  0  0  0
 12 20  1  0  0  0  0
M  END
> <IDNUMBER>
F0021-0037

> <Chemical_Name>
3-{[4-(morpholin-4-yl)phenyl]amino}-1-phenylpyrrolidine-2,5-dione

> <CAS>
320784-66-5

> <PriceCoeff>
1.00

> <MW>
351.40

> <Description>
solid

> <FSP3>
0.30

> <clogP>
1.94

> <TPSA>
61.88

> <Acceptor>
5

> <Donor>
2

> <RotBonds>
4

> <HAC>
26

> <Collection>
General

$$$$
F3023-0624
  -ISIS-  06222321152D

 25 27  0  0  0  0  0  0  0  0999 V2000
    5.1125   -5.9667    0.0000 N   0  0  3  0  0  0  0  0  0  0  0  0
    5.5917   -5.2917    0.0000 C   0  0  0  0  0  0  0  0  0  0  0  0
    5.6042   -6.6292    0.0000 C   0  0  0  0  0  0  0  0  0  0  0  0
    6.3875   -6.3667    0.0000 C   0  0  3  0  0  0  0  0  0  0  0  0
    6.3792   -5.5417    0.0000 C   0  0  0  0  0  0  0  0  0  0  0  0
    7.8042   -6.5167    0.0000 C   0  0  0  0  0  0  0  0  0  0  0  0
    8.4750   -7.0000    0.0000 C   0  0  0  0  0  0  0  0  0  0  0  0
    7.0542   -6.8542    0.0000 S   0  0  0  0  0  0  0  0  0  0  0  0
    8.3917   -7.8167    0.0000 C   0  0  0  0  0  0  0  0  0  0  0  0
    4.2875   -5.9667    0.0000 C   0  0  0  0  0  0  0  0  0  0  0  0
    7.8875   -5.7000    0.0000 N   0  0  0  0  0  0  0  0  0  0  0  0
    5.3375   -4.5042    0.0000 O   0  0  0  0  0  0  0  0  0  0  0  0
    5.3500   -7.4167    0.0000 O   0  0  0  0  0  0  0  0  0  0  0  0
    9.0542   -8.3042    0.0000 O   0  0  0  0  0  0  0  0  0  0  0  0
    3.8750   -5.2542    0.0000 C   0  0  0  0  0  0  0  0  0  0  0  0
    3.8792   -6.6875    0.0000 C   0  0  0  0  0  0  0  0  0  0  0  0
    7.6375   -8.1542    0.0000 O   0  0  0  0  0  0  0  0  0  0  0  0
    3.0625   -6.6917    0.0000 C   0  0  0  0  0  0  0  0  0  0  0  0
    3.0500   -5.2625    0.0000 C   0  0  0  0  0  0  0  0  0  0  0  0
    2.6417   -5.9792    0.0000 C   0  0  0  0  0  0  0  0  0  0  0  0
    9.2250   -6.6625    0.0000 C   0  0  0  0  0  0  0  0  0  0  0  0
    8.6292   -5.3542    0.0000 C   0  0  0  0  0  0  0  0  0  0  0  0
    1.8167   -5.9792    0.0000 C   0  0  0  0  0  0  0  0  0  0  0  0
    9.3042   -5.8375    0.0000 C   0  0  0  0  0  0  0  0  0  0  0  0
    1.4000   -5.2667    0.0000 C   0  0  0  0  0  0  0  0  0  0  0  0
  2  1  1  0  0  0  0
  3  1  1  0  0  0  0
  4  3  1  0  0  0  0
  5  2  1  0  0  0  0
  6  8  1  0  0  0  0
  7  6  2  0  0  0  0
  8  4  1  0  0  0  0
  9  7  1  0  0  0  0
 10  1  1  0  0  0  0
 11  6  1  0  0  0  0
 12  2  2  0  0  0  0
 13  3  2  0  0  0  0
 14  9  2  0  0  0  0
 15 10  2  0  0  0  0
 16 10  1  0  0  0  0
 17  9  1  0  0  0  0
 18 16  2  0  0  0  0
 19 15  1  0  0  0  0
 20 18  1  0  0  0  0
 21  7  1  0  0  0  0
 22 11  2  0  0  0  0
 23 20  1  0  0  0  0
 24 22  1  0  0  0  0
 25 23  1  0  0  0  0
  5  4  1  0  0  0  0
 20 19  2  0  0  0  0
 24 21  2  0  0  0  0
M  END
> <IDNUMBER>
F3023-0624

> <Chemical_Name>
2-{[1-(4-ethylphenyl)-2,5-dioxopyrrolidin-3-yl]sulfanyl}pyridine-3-carboxylic acid

> <CAS>
838905-98-9

> <PriceCoeff>
1.00

> <MW>
356.40

> <Description>
solid

> <FSP3>
0.22

> <clogP>
2.54

> <TPSA>
112.87

> <Acceptor>
5

> <Donor>
1

> <RotBonds>
5

> <HAC>
25

> <Collection>
General

$$$$
F0001-0277
  -ISIS-  06222321452D

 13 13  0  0  0  0  0  0  0  0999 V2000
    2.4417    0.3833    0.0000 C   0  0  0  0  0  0  0  0  0  0  0  0
    1.7292   -0.0292    0.0000 C   0  0  0  0  0  0  0  0  0  0  0  0
    3.1625   -0.0250    0.0000 C   0  0  0  0  0  0  0  0  0  0  0  0
    3.8750    0.3958    0.0000 C   0  0  0  0  0  0  0  0  0  0  0  0
    1.7292   -0.8625    0.0000 C   0  0  0  0  0  0  0  0  0  0  0  0
    1.0167    0.3833    0.0000 C   0  0  0  0  0  0  0  0  0  0  0  0
    3.8667    1.2208    0.0000 O   0  0  0  0  0  0  0  0  0  0  0  0
    1.0167   -1.2750    0.0000 C   0  0  0  0  0  0  0  0  0  0  0  0
    0.3042   -0.0292    0.0000 C   0  0  0  0  0  0  0  0  0  0  0  0
    2.4458   -1.2750    0.0000 F   0  0  0  0  0  0  0  0  0  0  0  0
    4.5917   -0.0125    0.0000 O   0  0  0  0  0  0  0  0  0  0  0  0
    0.3042   -0.8625    0.0000 C   0  0  0  0  0  0  0  0  0  0  0  0
   -0.4083    0.3750    0.0000 F   0  0  0  0  0  0  0  0  0  0  0  0
  2  1  1  0  0  0  0
  3  1  2  0  0  0  0
  4  3  1  0  0  0  0
  5  2  1  0  0  0  0
  6  2  2  0  0  0  0
  7  4  2  0  0  0  0
  8  5  2  0  0  0  0
  9  6  1  0  0  0  0
 10  5  1  0  0  0  0
 11  4  1  0  0  0  0
 12  9  2  0  0  0  0
 13  9  1  0  0  0  0
 12  8  1  0  0  0  0
M  END
> <IDNUMBER>
F0001-0277

> <Chemical_Name>
(2E)-3-(2,5-difluorophenyl)prop-2-enoic acid

> <CAS>
112898-33-6

> <PriceCoeff>
1.00

> <MW>
184.14

> <Description>
solid

> <FSP3>
0.00

> <clogP>
2.53

> <TPSA>
37.30

> <Acceptor>
2

> <Donor>
0

> <RotBonds>
2

> <HAC>
13

> <Collection>
General

> <Reference_compound>
CHEMBL99526

> <Similarity>
0.8130

$$$$
F2093-0698
  -ISIS-  06222304352D

 33 36  0  0  0  0  0  0  0  0999 V2000
   -1.0833    3.3208    0.0000 C   0  0  0  0  0  0  0  0  0  0  0  0
    3.1042    2.4208    0.0000 N   0  0  3  0  0  0  0  0  0  0  0  0
   -2.4208    3.3208    0.0000 C   0  0  0  0  0  0  0  0  0  0  0  0
   -1.3375    2.5333    0.0000 N   0  0  0  0  0  0  0  0  0  0  0  0
   -0.2958    3.5708    0.0000 N   0  0  0  0  0  0  0  0  0  0  0  0
   -1.7500    3.8000    0.0000 S   0  0  0  0  0  0  0  0  0  0  0  0
   -2.1625    2.5333    0.0000 C   0  0  0  0  0  0  0  0  0  0  0  0
    2.4917    2.9708    0.0000 C   0  0  0  0  0  0  0  0  0  0  0  0
    0.3167    3.0208    0.0000 C   0  0  0  0  0  0  0  0  0  0  0  0
    3.9167    2.5583    0.0000 C   0  0  0  0  0  0  0  0  0  0  0  0
    2.9750    1.6083    0.0000 C   0  0  0  0  0  0  0  0  0  0  0  0
   -3.7708    2.8750    0.0000 N   0  0  3  0  0  0  0  0  0  0  0  0
   -3.2208    3.4833    0.0000 C   0  0  0  0  0  0  0  0  0  0  0  0
    1.7042    2.7208    0.0000 C   0  0  0  0  0  0  0  0  0  0  0  0
    1.1000    3.2708    0.0000 C   0  0  0  0  0  0  0  0  0  0  0  0
   -2.7083    1.9208    0.0000 C   0  0  0  0  0  0  0  0  0  0  0  0
    0.1417    2.2083    0.0000 O   0  0  0  0  0  0  0  0  0  0  0  0
    4.3000    1.8333    0.0000 C   0  0  0  0  0  0  0  0  0  0  0  0
    3.7292    1.2375    0.0000 C   0  0  0  0  0  0  0  0  0  0  0  0
    4.2917    3.2833    0.0000 O   0  0  0  0  0  0  0  0  0  0  0  0
    2.2500    1.2250    0.0000 O   0  0  0  0  0  0  0  0  0  0  0  0
   -3.5208    2.0958    0.0000 C   0  0  0  0  0  0  0  0  0  0  0  0
   -4.5833    3.0458    0.0000 C   0  0  0  0  0  0  0  0  0  0  0  0
    2.6667    3.7708    0.0000 C   0  0  0  0  0  0  0  0  0  0  0  0
   -5.1250    2.4333    0.0000 C   0  0  0  0  0  0  0  0  0  0  0  0
    1.2750    4.0750    0.0000 C   0  0  0  0  0  0  0  0  0  0  0  0
    2.0542    4.3250    0.0000 C   0  0  0  0  0  0  0  0  0  0  0  0
   -4.8708    1.6583    0.0000 C   0  0  0  0  0  0  0  0  0  0  0  0
   -5.9250    2.6083    0.0000 C   0  0  0  0  0  0  0  0  0  0  0  0
   -6.4667    2.0000    0.0000 C   0  0  0  0  0  0  0  0  0  0  0  0
   -5.4125    1.0500    0.0000 C   0  0  0  0  0  0  0  0  0  0  0  0
   -6.2167    1.2208    0.0000 C   0  0  0  0  0  0  0  0  0  0  0  0
    5.8084    2.7167    0.0000 Cl  0  0  0  0  0  0  0  0  0  0  0  0
  3  6  1  0  0  0  0
  4  1  2  0  0  0  0
  5  1  1  0  0  0  0
  6  1  1  0  0  0  0
  7  4  1  0  0  0  0
  8 14  1  0  0  0  0
  9  5  1  0  0  0  0
 10  2  1  0  0  0  0
 11  2  1  0  0  0  0
 12 13  1  0  0  0  0
 13  3  1  0  0  0  0
 14 15  2  0  0  0  0
 15  9  1  0  0  0  0
 16  7  1  0  0  0  0
 17  9  2  0  0  0  0
 18 10  1  0  0  0  0
 19 11  1  0  0  0  0
 20 10  2  0  0  0  0
 21 11  2  0  0  0  0
 22 16  1  0  0  0  0
 23 12  1  0  0  0  0
 24 27  1  0  0  0  0
 25 23  1  0  0  0  0
 26 15  1  0  0  0  0
 27 26  2  0  0  0  0
 28 25  1  0  0  0  0
 29 25  2  0  0  0  0
 30 29  1  0  0  0  0
 31 28  2  0  0  0  0
 32 30  2  0  0  0  0
  3  7  2  0  0  0  0
 22 12  1  0  0  0  0
  8 24  2  0  0  0  0
 18 19  1  0  0  0  0
 32 31  1  0  0  0  0
  2  8  1  0  0  0  0
M  END
> <IDNUMBER>
F2093-0698

> <Chemical_Name>
N-{5-benzyl-4H,5H,6H,7H-[1,3]thiazolo[5,4-c]pyridin-2-yl}-3-(2,5-dioxopyrrolidin-1-yl)benzamide hydrochloride

> <CAS>
1189650-77-8

> <PriceCoeff>
1.00

> <MW>
446.52

> <Description>
solid

> <FSP3>
0.25

> <clogP>
1.91

> <TPSA>
110.85

> <Acceptor>
4

> <Donor>
2

> <RotBonds>
5

> <HAC>
32

> <Collection>
General

$$$$
F0496-0188
  -ISIS-  06222321452D

 30 33  0  0  0  0  0  0  0  0999 V2000
    0.3792   -0.4792    0.0000 N   0  0  3  0  0  0  0  0  0  0  0  0
   -2.0458    0.0125    0.0000 C   0  0  0  0  0  0  0  0  0  0  0  0
   -2.3708    0.4333    0.0000 N   0  0  0  0  0  0  0  0  0  0  0  0
   -1.4833    0.0125    0.0000 N   0  0  0  0  0  0  0  0  0  0  0  0
   -2.8833    0.2125    0.0000 C   0  0  0  0  0  0  0  0  0  0  0  0
    0.1000    0.0125    0.0000 C   0  0  0  0  0  0  0  0  0  0  0  0
   -1.2208    0.4958    0.0000 C   0  0  0  0  0  0  0  0  0  0  0  0
    0.9042   -0.5000    0.0000 C   0  0  0  0  0  0  0  0  0  0  0  0
    0.1542   -0.9500    0.0000 C   0  0  0  0  0  0  0  0  0  0  0  0
   -2.2958   -0.4500    0.0000 S   0  0  0  0  0  0  0  0  0  0  0  0
   -2.8208   -0.3042    0.0000 C   0  0  0  0  0  0  0  0  0  0  0  0
   -0.4125    0.0125    0.0000 C   0  0  0  0  0  0  0  0  0  0  0  0
   -0.6958    0.4625    0.0000 C   0  0  0  0  0  0  0  0  0  0  0  0
   -3.3833    0.4333    0.0000 C   0  0  0  0  0  0  0  0  0  0  0  0
   -1.4833    0.9625    0.0000 O   0  0  0  0  0  0  0  0  0  0  0  0
    1.0500   -1.0500    0.0000 C   0  0  0  0  0  0  0  0  0  0  0  0
    0.5792   -1.3167    0.0000 C   0  0  0  0  0  0  0  0  0  0  0  0
    1.2792   -0.0792    0.0000 O   0  0  0  0  0  0  0  0  0  0  0  0
   -0.3625   -1.0542    0.0000 O   0  0  0  0  0  0  0  0  0  0  0  0
   -3.4125    0.9625    0.0000 C   0  0  0  0  0  0  0  0  0  0  0  0
   -3.8000    0.1208    0.0000 C   0  0  0  0  0  0  0  0  0  0  0  0
   -4.3625    0.8833    0.0000 C   0  0  0  0  0  0  0  0  0  0  0  0
   -3.8833    1.2125    0.0000 C   0  0  0  0  0  0  0  0  0  0  0  0
   -4.3000    0.3500    0.0000 C   0  0  0  0  0  0  0  0  0  0  0  0
    0.3792    0.4625    0.0000 C   0  0  0  0  0  0  0  0  0  0  0  0
   -4.8625    1.1000    0.0000 O   0  0  0  0  0  0  0  0  0  0  0  0
   -0.4125    0.9333    0.0000 C   0  0  0  0  0  0  0  0  0  0  0  0
    0.1000    0.9625    0.0000 C   0  0  0  0  0  0  0  0  0  0  0  0
   -5.2833    0.7458    0.0000 C   0  0  0  0  0  0  0  0  0  0  0  0
   -5.7958    0.9333    0.0000 C   0  0  0  0  0  0  0  0  0  0  0  0
  2  4  1  0  0  0  0
  3  2  2  0  0  0  0
  4  7  1  0  0  0  0
  5  3  1  0  0  0  0
  6  1  1  0  0  0  0
  7 13  1  0  0  0  0
  8  1  1  0  0  0  0
  9  1  1  0  0  0  0
 10  2  1  0  0  0  0
 11 10  1  0  0  0  0
 12  6  1  0  0  0  0
 13 12  2  0  0  0  0
 14  5  1  0  0  0  0
 15  7  2  0  0  0  0
 16  8  1  0  0  0  0
 17  9  1  0  0  0  0
 18  8  2  0  0  0  0
 19  9  2  0  0  0  0
 20 14  1  0  0  0  0
 21 14  2  0  0  0  0
 22 24  2  0  0  0  0
 23 20  2  0  0  0  0
 24 21  1  0  0  0  0
 25  6  2  0  0  0  0
 26 22  1  0  0  0  0
 27 28  2  0  0  0  0
 28 25  1  0  0  0  0
 29 26  1  0  0  0  0
 30 29  1  0  0  0  0
 16 17  1  0  0  0  0
 13 27  1  0  0  0  0
 11  5  2  0  0  0  0
 22 23  1  0  0  0  0
M  END
> <IDNUMBER>
F0496-0188

> <Chemical_Name>
3-(2,5-dioxopyrrolidin-1-yl)-N-[4-(4-ethoxyphenyl)-1,3-thiazol-2-yl]benzamide

> <CAS>
476356-66-8

> <PriceCoeff>
1.00

> <MW>
421.47

> <Description>
solid

> <FSP3>
0.18

> <clogP>
2.68

> <TPSA>
116.84

> <Acceptor>
5

> <Donor>
1

> <RotBonds>
6

> <HAC>
30

> <Collection>
General

$$$$
F1065-0447
  -ISIS-  06222321452D

 24 26  0  0  0  0  0  0  0  0999 V2000
   -2.2208    0.7000    0.0000 N   0  0  3  0  0  0  0  0  0  0  0  0
   -1.1625   -0.0167    0.0000 C   0  0  0  0  0  0  0  0  0  0  0  0
   -1.8333    1.9833    0.0000 C   0  0  0  0  0  0  0  0  0  0  0  0
   -0.0958    0.7833    0.0000 C   0  0  3  0  0  0  0  0  0  0  0  0
    2.0542    1.3625    0.0000 C   0  0  0  0  0  0  0  0  0  0  0  0
   -0.5625    1.9833    0.0000 C   0  0  0  0  0  0  0  0  0  0  0  0
    3.3167    1.0458    0.0000 C   0  0  0  0  0  0  0  0  0  0  0  0
    1.1500    0.4458    0.0000 S   0  0  0  0  0  0  0  0  0  0  0  0
    3.6542   -0.2000    0.0000 C   0  0  0  0  0  0  0  0  0  0  0  0
   -3.4000    0.2625    0.0000 C   0  0  0  0  0  0  0  0  0  0  0  0
    1.7042    2.6208    0.0000 N   0  0  0  0  0  0  0  0  0  0  0  0
   -1.1625   -1.3292    0.0000 O   0  0  0  0  0  0  0  0  0  0  0  0
   -2.5833    3.0333    0.0000 O   0  0  0  0  0  0  0  0  0  0  0  0
    4.9000   -0.5500    0.0000 O   0  0  0  0  0  0  0  0  0  0  0  0
    2.7667   -1.1542    0.0000 O   0  0  0  0  0  0  0  0  0  0  0  0
   -3.6000   -1.0042    0.0000 C   0  0  0  0  0  0  0  0  0  0  0  0
    4.2500    1.9708    0.0000 C   0  0  0  0  0  0  0  0  0  0  0  0
    2.6000    3.5708    0.0000 C   0  0  0  0  0  0  0  0  0  0  0  0
   -4.8208   -1.4542    0.0000 C   0  0  0  0  0  0  0  0  0  0  0  0
   -2.5833   -1.8292    0.0000 C   0  0  0  0  0  0  0  0  0  0  0  0
    3.8667    3.2333    0.0000 C   0  0  0  0  0  0  0  0  0  0  0  0
   -2.8125   -3.1042    0.0000 C   0  0  0  0  0  0  0  0  0  0  0  0
   -5.0458   -2.7542    0.0000 C   0  0  0  0  0  0  0  0  0  0  0  0
   -4.0208   -3.5667    0.0000 C   0  0  0  0  0  0  0  0  0  0  0  0
  2  1  1  0  0  0  0
  3  1  1  0  0  0  0
  4  2  1  0  0  0  0
  5  8  1  0  0  0  0
  6  3  1  0  0  0  0
  7  5  2  0  0  0  0
  8  4  1  0  0  0  0
  9  7  1  0  0  0  0
 10  1  1  0  0  0  0
 11  5  1  0  0  0  0
 12  2  2  0  0  0  0
 13  3  2  0  0  0  0
 14  9  2  0  0  0  0
 15  9  1  0  0  0  0
 16 10  1  0  0  0  0
 17  7  1  0  0  0  0
 18 11  2  0  0  0  0
 19 16  2  0  0  0  0
 20 16  1  0  0  0  0
 21 18  1  0  0  0  0
 22 20  2  0  0  0  0
 23 19  1  0  0  0  0
 24 22  1  0  0  0  0
  6  4  1  0  0  0  0
 24 23  2  0  0  0  0
 17 21  2  0  0  0  0
M  END
> <IDNUMBER>
F1065-0447

> <Chemical_Name>
2-[(1-benzyl-2,5-dioxopyrrolidin-3-yl)sulfanyl]pyridine-3-carboxylic acid

> <CAS>
302804-32-6

> <PriceCoeff>
1.00

> <MW>
342.37

> <Description>
solid

> <FSP3>
0.18

> <clogP>
2.25

> <TPSA>
112.87

> <Acceptor>
5

> <Donor>
1

> <RotBonds>
5

> <HAC>
24

> <Collection>
General

$$$$
F0496-0161
  -ISIS-  06222321142D

 30 33  0  0  0  0  0  0  0  0999 V2000
    3.8042    0.7833    0.0000 N   0  0  3  0  0  0  0  0  0  0  0  0
    0.5500    1.3833    0.0000 C   0  0  0  0  0  0  0  0  0  0  0  0
    0.0500    1.0625    0.0000 N   0  0  0  0  0  0  0  0  0  0  0  0
    1.1292    1.1833    0.0000 N   0  0  0  0  0  0  0  0  0  0  0  0
   -0.4000    1.4458    0.0000 C   0  0  0  0  0  0  0  0  0  0  0  0
    1.6000    1.5833    0.0000 C   0  0  0  0  0  0  0  0  0  0  0  0
    3.9292    0.2000    0.0000 C   0  0  0  0  0  0  0  0  0  0  0  0
    4.3500    1.0625    0.0000 C   0  0  0  0  0  0  0  0  0  0  0  0
    0.4042    1.9458    0.0000 S   0  0  0  0  0  0  0  0  0  0  0  0
   -0.1833    1.9833    0.0000 C   0  0  0  0  0  0  0  0  0  0  0  0
    3.2667    0.9833    0.0000 C   0  0  0  0  0  0  0  0  0  0  0  0
    2.1500    1.3833    0.0000 C   0  0  0  0  0  0  0  0  0  0  0  0
   -1.0000    1.3458    0.0000 C   0  0  0  0  0  0  0  0  0  0  0  0
    1.4667    2.1833    0.0000 O   0  0  0  0  0  0  0  0  0  0  0  0
    4.5292    0.1208    0.0000 C   0  0  0  0  0  0  0  0  0  0  0  0
    4.7667    0.6458    0.0000 C   0  0  0  0  0  0  0  0  0  0  0  0
    4.4500    1.6625    0.0000 O   0  0  0  0  0  0  0  0  0  0  0  0
    3.5042   -0.2500    0.0000 O   0  0  0  0  0  0  0  0  0  0  0  0
    3.1500    1.5625    0.0000 C   0  0  0  0  0  0  0  0  0  0  0  0
    2.8000    0.5625    0.0000 C   0  0  0  0  0  0  0  0  0  0  0  0
    2.2292    0.8000    0.0000 C   0  0  0  0  0  0  0  0  0  0  0  0
    2.6042    1.7625    0.0000 C   0  0  0  0  0  0  0  0  0  0  0  0
   -1.2000    0.8000    0.0000 C   0  0  0  0  0  0  0  0  0  0  0  0
   -1.3625    1.8000    0.0000 C   0  0  0  0  0  0  0  0  0  0  0  0
   -2.1833    1.1625    0.0000 C   0  0  0  0  0  0  0  0  0  0  0  0
   -1.9708    1.7208    0.0000 C   0  0  0  0  0  0  0  0  0  0  0  0
   -1.7833    0.7000    0.0000 C   0  0  0  0  0  0  0  0  0  0  0  0
   -2.7833    1.1000    0.0000 O   0  0  0  0  0  0  0  0  0  0  0  0
   -3.0208    0.5625    0.0000 C   0  0  0  0  0  0  0  0  0  0  0  0
   -3.6208    0.4833    0.0000 C   0  0  0  0  0  0  0  0  0  0  0  0
  2  4  1  0  0  0  0
  3  2  2  0  0  0  0
  4  6  1  0  0  0  0
  5  3  1  0  0  0  0
  6 12  1  0  0  0  0
  7  1  1  0  0  0  0
  8  1  1  0  0  0  0
  9  2  1  0  0  0  0
 10  9  1  0  0  0  0
 11  1  1  0  0  0  0
 12 21  1  0  0  0  0
 13  5  1  0  0  0  0
 14  6  2  0  0  0  0
 15  7  1  0  0  0  0
 16  8  1  0  0  0  0
 17  8  2  0  0  0  0
 18  7  2  0  0  0  0
 19 11  2  0  0  0  0
 20 11  1  0  0  0  0
 21 20  2  0  0  0  0
 22 19  1  0  0  0  0
 23 13  1  0  0  0  0
 24 13  2  0  0  0  0
 25 26  2  0  0  0  0
 26 24  1  0  0  0  0
 27 23  2  0  0  0  0
 28 25  1  0  0  0  0
 29 28  1  0  0  0  0
 30 29  1  0  0  0  0
 15 16  1  0  0  0  0
 22 12  2  0  0  0  0
  5 10  2  0  0  0  0
 25 27  1  0  0  0  0
M  END
> <IDNUMBER>
F0496-0161

> <Chemical_Name>
4-(2,5-dioxopyrrolidin-1-yl)-N-[4-(4-ethoxyphenyl)-1,3-thiazol-2-yl]benzamide

> <CAS>
391896-60-9

> <PriceCoeff>
1.00

> <MW>
421.47

> <Description>
solid

> <FSP3>
0.18

> <clogP>
2.68

> <TPSA>
116.84

> <Acceptor>
5

> <Donor>
1

> <RotBonds>
6

> <HAC>
30

> <Collection>
General

$$$$
F0326-0135
  -ISIS-  06222321442D

 31 36  0  0  0  0  0  0  0  0999 V2000
   -1.6833   -1.4042    0.0000 S   0  0  0  0  0  0  0  0  0  0  0  0
   -2.4208   -0.8792    0.0000 C   0  0  0  0  0  0  0  0  0  0  0  0
   -0.9500   -0.8667    0.0000 C   0  0  0  0  0  0  0  0  0  0  0  0
   -3.2708   -1.1375    0.0000 C   0  0  3  0  0  0  0  0  0  0  0  0
    4.0292   -1.0375    0.0000 N   0  0  3  0  0  0  0  0  0  0  0  0
   -2.1625   -0.0292    0.0000 N   0  0  0  0  0  0  0  0  0  0  0  0
   -0.0958   -1.0375    0.0000 N   0  0  0  0  0  0  0  0  0  0  0  0
   -1.2833   -0.0292    0.0000 N   0  0  0  0  0  0  0  0  0  0  0  0
    0.5000   -0.3500    0.0000 C   0  0  0  0  0  0  0  0  0  0  0  0
    4.6667   -0.4167    0.0000 C   0  0  0  0  0  0  0  0  0  0  0  0
    4.4042   -1.8500    0.0000 C   0  0  0  0  0  0  0  0  0  0  0  0
    3.1500   -0.8792    0.0000 C   0  0  0  0  0  0  0  0  0  0  0  0
   -3.5458   -0.2042    0.0000 C   0  0  0  0  0  0  0  0  0  0  0  0
   -4.0708   -1.7375    0.0000 C   0  0  0  0  0  0  0  0  0  0  0  0
   -2.5958   -1.5875    0.0000 C   0  0  0  0  0  0  0  0  0  0  0  0
   -3.8708   -1.1542    0.0000 C   0  0  3  0  0  0  0  0  0  0  0  0
   -2.7625   -2.4792    0.0000 C   0  0  3  0  0  0  0  0  0  0  0  0
   -4.2208   -2.5542    0.0000 C   0  0  3  0  0  0  0  0  0  0  0  0
    1.3792   -0.5167    0.0000 C   0  0  0  0  0  0  0  0  0  0  0  0
    0.2000    0.5208    0.0000 O   0  0  0  0  0  0  0  0  0  0  0  0
    5.4542   -0.8375    0.0000 C   0  0  0  0  0  0  0  0  0  0  0  0
    5.3000   -1.7375    0.0000 C   0  0  0  0  0  0  0  0  0  0  0  0
    4.5042    0.4708    0.0000 O   0  0  0  0  0  0  0  0  0  0  0  0
    3.9542   -2.6375    0.0000 O   0  0  0  0  0  0  0  0  0  0  0  0
    2.5500   -1.5542    0.0000 C   0  0  0  0  0  0  0  0  0  0  0  0
    2.8542   -0.0292    0.0000 C   0  0  0  0  0  0  0  0  0  0  0  0
    1.6542   -1.3792    0.0000 C   0  0  0  0  0  0  0  0  0  0  0  0
    1.9792    0.1625    0.0000 C   0  0  0  0  0  0  0  0  0  0  0  0
   -4.5208   -1.6500    0.0000 C   0  0  0  0  0  0  0  0  0  0  0  0
   -3.5000   -3.0375    0.0000 C   0  0  0  0  0  0  0  0  0  0  0  0
   -2.9500   -1.7375    0.0000 C   0  0  0  0  0  0  0  0  0  0  0  0
  2  1  1  0  0  0  0
  3  1  1  0  0  0  0
  4  2  1  0  0  0  0
  5 12  1  0  0  0  0
  6  2  2  0  0  0  0
  7  3  1  0  0  0  0
  8  3  2  0  0  0  0
  9  7  1  0  0  0  0
 10  5  1  0  0  0  0
 11  5  1  0  0  0  0
 12 26  1  0  0  0  0
 13  4  1  0  0  0  0
 14  4  1  0  0  0  0
 15  4  1  0  0  0  0
 16 13  1  0  0  0  0
 17 15  1  0  0  0  0
 18 14  1  0  0  0  0
 19  9  1  0  0  0  0
 20  9  2  0  0  0  0
 21 10  1  0  0  0  0
 22 11  1  0  0  0  0
 23 10  2  0  0  0  0
 24 11  2  0  0  0  0
 25 27  1  0  0  0  0
 26 28  2  0  0  0  0
 27 19  2  0  0  0  0
 28 19  1  0  0  0  0
 29 18  1  0  0  0  0
 30 17  1  0  0  0  0
 31 17  1  0  0  0  0
  8  6  1  0  0  0  0
 16 31  1  0  0  0  0
 30 18  1  0  0  0  0
 16 29  1  0  0  0  0
 12 25  2  0  0  0  0
 22 21  1  0  0  0  0
M  END
> <IDNUMBER>
F0326-0135

> <Chemical_Name>
N-[5-(adamantan-1-yl)-1,3,4-thiadiazol-2-yl]-4-(2,5-dioxopyrrolidin-1-yl)benzamide

> <CAS>
330190-54-0

> <PriceCoeff>
1.00

> <MW>
436.53

> <Description>
solid

> <FSP3>
0.52

> <clogP>
3.60

> <TPSA>
120.50

> <Acceptor>
5

> <Donor>
1

> <RotBonds>
4

> <HAC>
31

> <Collection>
General

$$$$
F1905-6545
  -ISIS-  06222304352D

 35 35  0  0  0  0  0  0  0  0999 V2000
   -0.5625   -0.6375    0.0000 C   0  0  0  0  0  0  0  0  0  0  0  0
    0.8667    0.1875    0.0000 C   0  0  0  0  0  0  0  0  0  0  0  0
    0.1500   -1.0500    0.0000 C   0  0  0  0  0  0  0  0  0  0  0  0
   -0.5625    0.1875    0.0000 C   0  0  0  0  0  0  0  0  0  0  0  0
    1.5875    0.6000    0.0000 C   0  0  0  0  0  0  0  0  0  0  0  0
    0.1500    0.6000    0.0000 C   0  0  0  0  0  0  0  0  0  0  0  0
    0.8667   -0.6375    0.0000 C   0  0  0  0  0  0  0  0  0  0  0  0
    3.0042   -1.8792    0.0000 N   0  3  3  0  0  0  0  0  0  0  0  0
    1.5917    1.4250    0.0000 O   0  0  0  0  0  0  0  0  0  0  0  0
    2.3000    0.1833    0.0000 O   0  0  0  0  0  0  0  0  0  0  0  0
   -1.2833   -1.0625    0.0000 O   0  0  0  0  0  0  0  0  0  0  0  0
   -1.2833    0.6042    0.0000 O   0  0  0  0  0  0  0  0  0  0  0  0
    0.1500   -1.8750    0.0000 O   0  0  0  0  0  0  0  0  0  0  0  0
    2.2917   -0.6417    0.0000 C   0  0  0  0  0  0  0  0  0  0  0  0
    3.0042   -1.0542    0.0000 C   0  0  0  0  0  0  0  0  0  0  0  0
    2.1792   -1.8792    0.0000 C   0  0  0  0  0  0  0  0  0  0  0  0
    3.8292   -1.8792    0.0000 C   0  0  0  0  0  0  0  0  0  0  0  0
    3.0042   -2.7042    0.0000 C   0  0  0  0  0  0  0  0  0  0  0  0
   -2.0083   -0.6542    0.0000 C   0  0  0  0  0  0  0  0  0  0  0  0
   -1.4750    1.5625    0.0000 C   0  0  0  0  0  0  0  0  0  0  0  0
   -0.6000   -2.4375    0.0000 C   0  0  0  0  0  0  0  0  0  0  0  0
    4.5167   -1.2792    0.0000 C   0  0  0  0  0  0  0  0  0  0  0  0
    1.8292   -2.5625    0.0000 C   0  0  0  0  0  0  0  0  0  0  0  0
    3.8000   -3.1167    0.0000 C   0  0  0  0  0  0  0  0  0  0  0  0
    7.2923    0.2942    0.0000 S   0  0  3  0  0  0  0  0  0  0  0  0
    6.9579   -0.4581    0.0000 C   0  0  0  0  0  0  0  0  0  0  0  0
    8.0447   -0.0402    0.0000 O   0  5  0  0  0  0  0  0  0  0  0  0
    7.6243    1.0499    0.0000 O   0  0  0  0  0  0  0  0  0  0  0  0
    6.5376    0.6320    0.0000 O   0  0  0  0  0  0  0  0  0  0  0  0
    7.4473   -1.1326    0.0000 C   0  0  0  0  0  0  0  0  0  0  0  0
    6.1390   -0.5427    0.0000 C   0  0  0  0  0  0  0  0  0  0  0  0
    7.1129   -1.8849    0.0000 C   0  0  0  0  0  0  0  0  0  0  0  0
    5.8094   -1.3017    0.0000 C   0  0  0  0  0  0  0  0  0  0  0  0
    6.2940   -1.9694    0.0000 C   0  0  0  0  0  0  0  0  0  0  0  0
    5.9562   -2.7242    0.0000 C   0  0  0  0  0  0  0  0  0  0  0  0
 13  3  1  0  0  0  0
 14 10  1  0  0  0  0
 15 14  1  0  0  0  0
 16  8  1  0  0  0  0
 17  8  1  0  0  0  0
 18  8  1  0  0  0  0
 19 11  1  0  0  0  0
 20 12  1  0  0  0  0
 21 13  1  0  0  0  0
 22 17  1  0  0  0  0
 23 16  1  0  0  0  0
 24 18  1  0  0  0  0
  6  2  2  0  0  0  0
  2  7  1  0  0  0  0
  3  1  1  0  0  0  0
  4  1  2  0  0  0  0
  5  2  1  0  0  0  0
  6  4  1  0  0  0  0
  7  3  2  0  0  0  0
  8 15  1  0  0  0  0
  9  5  2  0  0  0  0
 10  5  1  0  0  0  0
 11  1  1  0  0  0  0
 12  4  1  0  0  0  0
 26 25  1  0  0  0  0
 27 25  1  0  0  0  0
 28 25  2  0  0  0  0
 29 25  2  0  0  0  0
 30 26  1  0  0  0  0
 31 26  2  0  0  0  0
 32 30  2  0  0  0  0
 33 31  1  0  0  0  0
 34 33  2  0  0  0  0
 35 34  1  0  0  0  0
 34 32  1  0  0  0  0
M  CHG  2   8   1  27  -1
M  END
> <IDNUMBER>
F1905-6545

> <Chemical_Name>
triethyl[2-(3,4,5-trimethoxybenzoyloxy)ethyl]azanium 4-methylbenzene-1-sulfonate

> <CAS>
391-70-8

> <PriceCoeff>
1.00

> <MW>
340.43

> <Description>
solid

> <FSP3>
0.61

> <clogP>
-0.69

> <TPSA>
53.99

> <Acceptor>
5

> <Donor>
0

> <RotBonds>
11

> <HAC>
24

> <Collection>
General

> <Reference_compound>
PRI5741

> <Similarity>
0.8100

$$$$
F0675-0061
  -ISIS-  06222321142D

 19 20  0  0  0  0  0  0  0  0999 V2000
   -2.0250    2.2708    0.0000 C   0  0  0  0  0  0  0  0  0  0  0  0
   -1.7833    1.4833    0.0000 C   0  0  0  0  0  0  0  0  0  0  0  0
   -1.5458    2.9333    0.0000 C   0  0  0  0  0  0  0  0  0  0  0  0
   -2.4458    1.0000    0.0000 N   0  0  0  0  0  0  0  0  0  0  0  0
   -2.8500    2.2708    0.0000 C   0  0  0  0  0  0  0  0  0  0  0  0
   -0.7208    2.8458    0.0000 C   0  0  0  0  0  0  0  0  0  0  0  0
   -3.1083    1.4875    0.0000 C   0  0  0  0  0  0  0  0  0  0  0  0
   -1.8750    3.6875    0.0000 O   0  0  0  0  0  0  0  0  0  0  0  0
   -0.3875    2.0958    0.0000 O   0  0  0  0  0  0  0  0  0  0  0  0
   -0.2375    3.5083    0.0000 N   0  0  0  0  0  0  0  0  0  0  0  0
   -0.5708    4.2542    0.0000 C   0  0  0  0  0  0  0  0  0  0  0  0
   -3.3958    2.8833    0.0000 C   0  0  0  0  0  0  0  0  0  0  0  0
   -3.9125    1.3208    0.0000 C   0  0  0  0  0  0  0  0  0  0  0  0
   -0.0833    4.9167    0.0000 C   0  0  0  0  0  0  0  0  0  0  0  0
   -0.4208    5.6667    0.0000 C   0  0  3  0  0  0  0  0  0  0  0  0
   -4.2083    2.7125    0.0000 C   0  0  0  0  0  0  0  0  0  0  0  0
    0.0667    6.3417    0.0000 C   0  0  0  0  0  0  0  0  0  0  0  0
   -1.2333    5.7625    0.0000 C   0  0  0  0  0  0  0  0  0  0  0  0
   -4.4583    1.9333    0.0000 C   0  0  0  0  0  0  0  0  0  0  0  0
  2  1  2  0  0  0  0
  3  1  1  0  0  0  0
  4  2  1  0  0  0  0
  5  1  1  0  0  0  0
  6  3  1  0  0  0  0
  7  5  2  0  0  0  0
  8  3  2  0  0  0  0
  9  6  2  0  0  0  0
 10  6  1  0  0  0  0
 11 10  1  0  0  0  0
 12  5  1  0  0  0  0
 13  7  1  0  0  0  0
 14 11  1  0  0  0  0
 15 14  1  0  0  0  0
 16 12  2  0  0  0  0
 17 15  1  0  0  0  0
 18 15  1  0  0  0  0
 19 16  1  0  0  0  0
  7  4  1  0  0  0  0
 19 13  2  0  0  0  0
M  END
> <IDNUMBER>
F0675-0061

> <Chemical_Name>
2-(1H-indol-3-yl)-N-(3-methylbutyl)-2-oxoacetamide

> <CAS>
852367-28-3

> <PriceCoeff>
1.00

> <MW>
258.32

> <Description>
solid

> <FSP3>
0.33

> <clogP>
2.92

> <TPSA>
61.96

> <Acceptor>
2

> <Donor>
2

> <RotBonds>
5

> <HAC>
19

> <Collection>
General

> <Reference_compound>
CHEMBL487932

> <Similarity>
0.8190

$$$$
F6414-3147
  -ISIS-  06222321442D

 26 27  0  0  0  0  0  0  0  0999 V2000
   -2.4375    6.6917    0.0000 C   0  0  0  0  0  0  0  0  0  0  0  0
   -3.1583    6.2667    0.0000 C   0  0  0  0  0  0  0  0  0  0  0  0
   -2.4375    7.5167    0.0000 C   0  0  0  0  0  0  0  0  0  0  0  0
   -4.5833    3.8000    0.0000 C   0  0  0  0  0  0  0  0  0  0  0  0
   -3.8625    4.2125    0.0000 N   0  0  0  0  0  0  0  0  0  0  0  0
   -3.1500    7.9292    0.0000 C   0  0  0  0  0  0  0  0  0  0  0  0
   -3.8750    6.6875    0.0000 C   0  0  0  0  0  0  0  0  0  0  0  0
   -5.2958    4.2042    0.0000 O   0  0  0  0  0  0  0  0  0  0  0  0
   -3.8625    5.0292    0.0000 C   0  0  0  0  0  0  0  0  0  0  0  0
   -3.8708    7.5167    0.0000 C   0  0  0  0  0  0  0  0  0  0  0  0
   -3.1500    5.4500    0.0000 C   0  0  3  0  0  0  0  0  0  0  0  0
   -4.5833    2.9833    0.0000 C   0  0  0  0  0  0  0  0  0  0  0  0
   -5.2958    2.5708    0.0000 C   0  0  0  0  0  0  0  0  0  0  0  0
   -6.7125    1.7458    0.0000 C   0  0  0  0  0  0  0  0  0  0  0  0
   -1.7208    7.9250    0.0000 O   0  0  0  0  0  0  0  0  0  0  0  0
   -3.1583    8.7583    0.0000 O   0  0  0  0  0  0  0  0  0  0  0  0
   -6.0042    2.9833    0.0000 C   0  0  0  0  0  0  0  0  0  0  0  0
   -5.2833    1.7458    0.0000 C   0  0  0  0  0  0  0  0  0  0  0  0
   -6.7167    2.5708    0.0000 C   0  0  0  0  0  0  0  0  0  0  0  0
   -6.0000    1.3333    0.0000 C   0  0  0  0  0  0  0  0  0  0  0  0
   -2.4333    5.0417    0.0000 O   0  0  0  0  0  0  0  0  0  0  0  0
   -7.4292    1.3208    0.0000 O   0  0  0  0  0  0  0  0  0  0  0  0
   -7.4292    0.4958    0.0000 C   0  0  0  0  0  0  0  0  0  0  0  0
   -1.7125    8.7542    0.0000 C   0  0  0  0  0  0  0  0  0  0  0  0
   -2.4250    9.1667    0.0000 C   0  0  0  0  0  0  0  0  0  0  0  0
   -8.1333    0.0750    0.0000 C   0  0  0  0  0  0  0  0  0  0  0  0
  2  1  2  0  0  0  0
  3  1  1  0  0  0  0
  4  5  1  0  0  0  0
  5  9  1  0  0  0  0
  6  3  2  0  0  0  0
  7  2  1  0  0  0  0
  8  4  2  0  0  0  0
  9 11  1  0  0  0  0
 10  6  1  0  0  0  0
 11  2  1  0  0  0  0
 12  4  1  0  0  0  0
 13 12  1  0  0  0  0
 14 20  2  0  0  0  0
 15  3  1  0  0  0  0
 16  6  1  0  0  0  0
 17 13  1  0  0  0  0
 18 13  2  0  0  0  0
 19 17  2  0  0  0  0
 20 18  1  0  0  0  0
 21 11  1  0  0  0  0
 22 14  1  0  0  0  0
 23 22  1  0  0  0  0
 24 15  1  0  0  0  0
 25 16  1  0  0  0  0
 26 23  1  0  0  0  0
  7 10  2  0  0  0  0
 19 14  1  0  0  0  0
M  END
> <IDNUMBER>
F6414-3147

> <Chemical_Name>
N-[2-(3,4-dimethoxyphenyl)-2-hydroxyethyl]-2-(4-ethoxyphenyl)acetamide

> <CAS>
1796970-76-7

> <PriceCoeff>
1.00

> <MW>
359.42

> <Description>
solid

> <FSP3>
0.35

> <clogP>
1.99

> <TPSA>
77.02

> <Acceptor>
5

> <Donor>
2

> <RotBonds>
9

> <HAC>
26

> <Collection>
General

> <Reference_compound>
CHEMBL552027

> <Similarity>
0.8290

$$$$
F2666-0051
  -ISIS-  06222321462D

 26 29  0  0  0  0  0  0  0  0999 V2000
   -3.8458    7.4000    0.0000 N   0  0  3  0  0  0  0  0  0  0  0  0
   -4.5583    7.6292    0.0000 C   0  0  0  0  0  0  0  0  0  0  0  0
   -4.4958    1.0250    0.0000 N   0  3  0  0  0  0  0  0  0  0  0  0
   -3.8458    6.6500    0.0000 C   0  0  0  0  0  0  0  0  0  0  0  0
   -4.4958    3.2750    0.0000 C   0  0  0  0  0  0  0  0  0  0  0  0
   -4.4875    4.0250    0.0000 C   0  0  0  0  0  0  0  0  0  0  0  0
   -4.4958    6.2750    0.0000 C   0  0  0  0  0  0  0  0  0  0  0  0
   -3.2000    6.2750    0.0000 C   0  0  0  0  0  0  0  0  0  0  0  0
   -3.8458    2.9000    0.0000 C   0  0  0  0  0  0  0  0  0  0  0  0
   -4.4958    1.7750    0.0000 C   0  0  0  0  0  0  0  0  0  0  0  0
   -3.8458    4.4000    0.0000 N   0  0  0  0  0  0  0  0  0  0  0  0
   -5.0583    6.7792    0.0000 C   0  0  0  0  0  0  0  0  0  0  0  0
   -3.8458    2.1500    0.0000 C   0  0  0  0  0  0  0  0  0  0  0  0
   -3.8458    5.1500    0.0000 C   0  0  0  0  0  0  0  0  0  0  0  0
   -5.1458    2.9000    0.0000 C   0  0  0  0  0  0  0  0  0  0  0  0
   -4.4958    5.5250    0.0000 C   0  0  0  0  0  0  0  0  0  0  0  0
   -5.1458    0.6500    0.0000 O   0  5  0  0  0  0  0  0  0  0  0  0
   -3.2000    5.5250    0.0000 C   0  0  0  0  0  0  0  0  0  0  0  0
   -3.8458    0.6500    0.0000 O   0  0  0  0  0  0  0  0  0  0  0  0
   -4.7083    8.3667    0.0000 O   0  0  0  0  0  0  0  0  0  0  0  0
   -5.1458    4.4000    0.0000 O   0  0  0  0  0  0  0  0  0  0  0  0
   -5.1458    2.1500    0.0000 C   0  0  0  0  0  0  0  0  0  0  0  0
   -3.1958    3.2833    0.0000 Cl  0  0  0  0  0  0  0  0  0  0  0  0
   -3.2000    7.7750    0.0000 C   0  0  0  0  0  0  0  0  0  0  0  0
   -2.5500    6.6500    0.0000 C   0  0  0  0  0  0  0  0  0  0  0  0
   -2.5500    7.4000    0.0000 C   0  0  0  0  0  0  0  0  0  0  0  0
  2  1  1  0  0  0  0
  3 10  1  0  0  0  0
  4  1  1  0  0  0  0
  5  6  1  0  0  0  0
  6 11  1  0  0  0  0
  7  4  1  0  0  0  0
  8  4  2  0  0  0  0
  9  5  1  0  0  0  0
 10 22  2  0  0  0  0
 11 14  1  0  0  0  0
 12  2  1  0  0  0  0
 13  9  2  0  0  0  0
 14 18  2  0  0  0  0
 15  5  2  0  0  0  0
 16  7  2  0  0  0  0
 17  3  1  0  0  0  0
 18  8  1  0  0  0  0
 19  3  2  0  0  0  0
 20  2  2  0  0  0  0
 21  6  2  0  0  0  0
 22 15  1  0  0  0  0
 23  9  1  0  0  0  0
 24  1  1  0  0  0  0
 25 26  1  0  0  0  0
 26 24  1  0  0  0  0
 12  7  1  0  0  0  0
 25  8  1  0  0  0  0
 14 16  1  0  0  0  0
 10 13  1  0  0  0  0
M  CHG  2   3   1  17  -1
M  END
> <IDNUMBER>
F2666-0051

> <Chemical_Name>
2-chloro-4-nitro-N-{2-oxo-1-azatricyclo[6.3.1.0^{4,12}]dodeca-4,6,8(12)-trien-6-yl}benzamide

> <CAS>
898454-35-8

> <PriceCoeff>
1.00

> <MW>
371.77

> <Description>
solid

> <FSP3>
0.22

> <clogP>
2.06

> <TPSA>
92.55

> <Acceptor>
4

> <Donor>
1

> <RotBonds>
3

> <HAC>
26

> <Collection>
General

$$$$
F3098-4784
  -ISIS-  06222321442D

 21 21  0  0  0  0  0  0  0  0999 V2000
    8.7875   -2.6750    0.0000 C   0  0  0  0  0  0  0  0  0  0  0  0
    8.0750   -3.0875    0.0000 C   0  0  0  0  0  0  0  0  0  0  0  0
    5.2167   -3.1000    0.0000 C   0  0  0  0  0  0  0  0  0  0  0  0
    7.3542   -2.6792    0.0000 C   0  0  0  0  0  0  0  0  0  0  0  0
    9.5042   -3.0792    0.0000 N   0  0  0  0  0  0  0  0  0  0  0  0
    5.2167   -3.9250    0.0000 C   0  0  0  0  0  0  0  0  0  0  0  0
    5.9292   -2.6792    0.0000 C   0  0  0  0  0  0  0  0  0  0  0  0
    8.7792   -1.8500    0.0000 O   0  0  0  0  0  0  0  0  0  0  0  0
    6.6417   -3.0917    0.0000 C   0  0  0  0  0  0  0  0  0  0  0  0
    5.9292   -4.3375    0.0000 C   0  0  0  0  0  0  0  0  0  0  0  0
    6.6417   -3.9250    0.0000 C   0  0  0  0  0  0  0  0  0  0  0  0
   10.2167   -3.4917    0.0000 C   0  0  0  0  0  0  0  0  0  0  0  0
    4.5042   -2.6875    0.0000 O   0  0  0  0  0  0  0  0  0  0  0  0
    4.5000   -4.3375    0.0000 O   0  0  0  0  0  0  0  0  0  0  0  0
   10.2167   -4.3167    0.0000 C   0  0  3  0  0  0  0  0  0  0  0  0
    4.5042   -1.8625    0.0000 C   0  0  0  0  0  0  0  0  0  0  0  0
    3.7875   -3.9250    0.0000 C   0  0  0  0  0  0  0  0  0  0  0  0
   10.9375   -4.7292    0.0000 C   0  0  0  0  0  0  0  0  0  0  0  0
    9.5042   -4.7292    0.0000 C   0  0  0  0  0  0  0  0  0  0  0  0
    3.0667   -4.3375    0.0000 C   0  0  0  0  0  0  0  0  0  0  0  0
    3.7875   -1.4500    0.0000 C   0  0  0  0  0  0  0  0  0  0  0  0
  2  1  1  0  0  0  0
  3  7  1  0  0  0  0
  4  2  2  0  0  0  0
  5  1  1  0  0  0  0
  6 10  1  0  0  0  0
  7  9  2  0  0  0  0
  8  1  2  0  0  0  0
  9  4  1  0  0  0  0
 10 11  2  0  0  0  0
 11  9  1  0  0  0  0
 12  5  1  0  0  0  0
 13  3  1  0  0  0  0
 14  6  1  0  0  0  0
 15 12  1  0  0  0  0
 16 13  1  0  0  0  0
 17 14  1  0  0  0  0
 18 15  1  0  0  0  0
 19 15  1  0  0  0  0
 20 17  1  0  0  0  0
 21 16  1  0  0  0  0
  6  3  2  0  0  0  0
M  END
> <IDNUMBER>
F3098-4784

> <Chemical_Name>
(2E)-3-(3,4-diethoxyphenyl)-N-(2-methylpropyl)prop-2-enamide

> <CAS>
496039-36-2

> <PriceCoeff>
1.00

> <MW>
291.39

> <Description>
solid

> <FSP3>
0.47

> <clogP>
3.98

> <TPSA>
47.56

> <Acceptor>
3

> <Donor>
1

> <RotBonds>
8

> <HAC>
21

> <Collection>
General

> <Reference_compound>
CHEMBL252709

> <Similarity>
0.8650

$$$$
F2756-0460
  -ISIS-  06222304352D

 35 38  0  0  0  0  0  0  0  0999 V2000
   -3.1583    5.0292    0.0000 C   0  0  0  0  0  0  0  0  0  0  0  0
   -3.8250    5.5167    0.0000 N   0  0  0  0  0  0  0  0  0  0  0  0
   -3.1583    4.2042    0.0000 N   0  0  3  0  0  0  0  0  0  0  0  0
   -5.2958    1.3458    0.0000 N   0  0  3  0  0  0  0  0  0  0  0  0
   -2.4958    5.5167    0.0000 S   0  0  0  0  0  0  0  0  0  0  0  0
   -3.8708    3.8000    0.0000 C   0  0  0  0  0  0  0  0  0  0  0  0
   -3.5750    6.3000    0.0000 C   0  0  0  0  0  0  0  0  0  0  0  0
   -4.5833    1.7583    0.0000 C   0  0  0  0  0  0  0  0  0  0  0  0
   -6.0167    1.7125    0.0000 C   0  0  0  0  0  0  0  0  0  0  0  0
   -5.4083    0.5333    0.0000 C   0  0  0  0  0  0  0  0  0  0  0  0
   -2.7500    6.3000    0.0000 C   0  0  0  0  0  0  0  0  0  0  0  0
   -3.8708    2.9833    0.0000 C   0  0  0  0  0  0  0  0  0  0  0  0
   -4.5833    2.5833    0.0000 C   0  0  0  0  0  0  0  0  0  0  0  0
   -2.4458    3.8000    0.0000 C   0  0  0  0  0  0  0  0  0  0  0  0
   -1.7333    2.5583    0.0000 N   0  0  3  0  0  0  0  0  0  0  0  0
   -3.9833    7.0125    0.0000 C   0  0  0  0  0  0  0  0  0  0  0  0
   -4.5833    4.2042    0.0000 O   0  0  0  0  0  0  0  0  0  0  0  0
   -6.5917    1.1125    0.0000 C   0  0  0  0  0  0  0  0  0  0  0  0
   -6.2125    0.3833    0.0000 C   0  0  0  0  0  0  0  0  0  0  0  0
   -6.1542    2.5250    0.0000 O   0  0  0  0  0  0  0  0  0  0  0  0
   -4.8333   -0.0417    0.0000 O   0  0  0  0  0  0  0  0  0  0  0  0
   -2.4458    2.9708    0.0000 C   0  0  0  0  0  0  0  0  0  0  0  0
   -0.3083    1.7333    0.0000 O   0  0  0  0  0  0  0  0  0  0  0  0
   -4.8208    7.0167    0.0000 Cl  0  0  0  0  0  0  0  0  0  0  0  0
   -3.8708    1.3375    0.0000 C   0  0  0  0  0  0  0  0  0  0  0  0
   -2.3375    7.0125    0.0000 C   0  0  0  0  0  0  0  0  0  0  0  0
   -3.1500    2.5708    0.0000 C   0  0  0  0  0  0  0  0  0  0  0  0
   -1.0208    2.9833    0.0000 C   0  0  0  0  0  0  0  0  0  0  0  0
   -1.7333    1.7375    0.0000 C   0  0  0  0  0  0  0  0  0  0  0  0
   -3.1583    1.7500    0.0000 C   0  0  0  0  0  0  0  0  0  0  0  0
   -2.7500    7.7292    0.0000 C   0  0  0  0  0  0  0  0  0  0  0  0
   -3.5708    7.7167    0.0000 C   0  0  0  0  0  0  0  0  0  0  0  0
   -0.3083    2.5625    0.0000 C   0  0  0  0  0  0  0  0  0  0  0  0
   -1.0208    1.3250    0.0000 C   0  0  0  0  0  0  0  0  0  0  0  0
    1.2084    3.7875    0.0000 Cl  0  0  0  0  0  0  0  0  0  0  0  0
  3  1  1  0  0  0  0
  4  8  1  0  0  0  0
  5  1  1  0  0  0  0
  6  3  1  0  0  0  0
  7  2  1  0  0  0  0
  8 13  1  0  0  0  0
  9  4  1  0  0  0  0
 10  4  1  0  0  0  0
 11  5  1  0  0  0  0
 12  6  1  0  0  0  0
 13 12  2  0  0  0  0
 14  3  1  0  0  0  0
 15 22  1  0  0  0  0
 16  7  1  0  0  0  0
 17  6  2  0  0  0  0
 18  9  1  0  0  0  0
 19 10  1  0  0  0  0
 20  9  2  0  0  0  0
 21 10  2  0  0  0  0
 22 14  1  0  0  0  0
 23 34  1  0  0  0  0
 24 16  1  0  0  0  0
 25 30  1  0  0  0  0
 26 11  1  0  0  0  0
 27 12  1  0  0  0  0
 28 15  1  0  0  0  0
 29 15  1  0  0  0  0
 30 27  2  0  0  0  0
 31 26  2  0  0  0  0
 32 16  2  0  0  0  0
 33 28  1  0  0  0  0
 34 29  1  0  0  0  0
 11  7  2  0  0  0  0
 32 31  1  0  0  0  0
 23 33  1  0  0  0  0
  8 25  2  0  0  0  0
 19 18  1  0  0  0  0
  2  1  2  0  0  0  0
M  END
> <IDNUMBER>
F2756-0460

> <Chemical_Name>
N-(4-chloro-1,3-benzothiazol-2-yl)-3-(2,5-dioxopyrrolidin-1-yl)-N-[2-(morpholin-4-yl)ethyl]benzamide hydrochloride

> <CAS>
1330289-96-7

> <PriceCoeff>
1.00

> <MW>
498.98

> <Description>
solid

> <FSP3>
0.33

> <clogP>
1.85

> <TPSA>
111.29

> <Acceptor>
5

> <Donor>
1

> <RotBonds>
7

> <HAC>
34

> <Collection>
General

$$$$
F3230-0044
  -ISIS-  06222321152D

 25 27  0  0  0  0  0  0  0  0999 V2000
    2.2125    0.1708    0.0000 N   0  0  3  0  0  0  0  0  0  0  0  0
    1.4625   -0.1542    0.0000 N   0  0  0  0  0  0  0  0  0  0  0  0
    2.1292    0.9958    0.0000 C   0  0  0  0  0  0  0  0  0  0  0  0
    1.3167    1.1708    0.0000 C   0  0  0  0  0  0  0  0  0  0  0  0
    0.9042    0.4583    0.0000 C   0  0  0  0  0  0  0  0  0  0  0  0
    7.2125   -0.2375    0.0000 C   0  0  0  0  0  0  0  0  0  0  0  0
    7.9292   -1.4792    0.0000 C   0  0  0  0  0  0  0  0  0  0  0  0
    7.9292    0.1833    0.0000 O   0  0  0  0  0  0  0  0  0  0  0  0
    8.6500   -0.2375    0.0000 C   0  0  0  0  0  0  0  0  0  0  0  0
    7.2042   -1.0667    0.0000 C   0  0  0  0  0  0  0  0  0  0  0  0
    8.6500   -1.0667    0.0000 C   0  0  0  0  0  0  0  0  0  0  0  0
    2.9250   -0.2417    0.0000 C   0  0  0  0  0  0  0  0  0  0  0  0
    6.4917    0.1750    0.0000 C   0  0  0  0  0  0  0  0  0  0  0  0
    6.4917   -1.4792    0.0000 C   0  0  0  0  0  0  0  0  0  0  0  0
    9.3667    0.1708    0.0000 O   0  0  0  0  0  0  0  0  0  0  0  0
    0.9875    1.9208    0.0000 Cl  0  0  0  0  0  0  0  0  0  0  0  0
    3.6417    0.1708    0.0000 C   0  0  3  0  0  0  0  0  0  0  0  0
    5.7792   -0.2375    0.0000 C   0  0  0  0  0  0  0  0  0  0  0  0
    5.0667    0.1708    0.0000 O   0  0  0  0  0  0  0  0  0  0  0  0
    5.7792   -1.0667    0.0000 C   0  0  0  0  0  0  0  0  0  0  0  0
    2.7417    1.5458    0.0000 C   0  0  0  0  0  0  0  0  0  0  0  0
    4.3542   -0.2417    0.0000 C   0  0  0  0  0  0  0  0  0  0  0  0
    0.0875    0.3708    0.0000 C   0  0  0  0  0  0  0  0  0  0  0  0
    7.9292   -2.3042    0.0000 C   0  0  0  0  0  0  0  0  0  0  0  0
    3.6417    0.9958    0.0000 O   0  0  0  0  0  0  0  0  0  0  0  0
  2  1  1  0  0  0  0
  3  1  1  0  0  0  0
  4  3  2  0  0  0  0
  5  2  2  0  0  0  0
  6 13  2  0  0  0  0
  7 10  1  0  0  0  0
  8  6  1  0  0  0  0
  9  8  1  0  0  0  0
 10 14  2  0  0  0  0
 11  7  2  0  0  0  0
 12  1  1  0  0  0  0
 13 18  1  0  0  0  0
 14 20  1  0  0  0  0
 15  9  2  0  0  0  0
 16  4  1  0  0  0  0
 17 12  1  0  0  0  0
 18 19  1  0  0  0  0
 19 22  1  0  0  0  0
 20 18  2  0  0  0  0
 21  3  1  0  0  0  0
 22 17  1  0  0  0  0
 23  5  1  0  0  0  0
 24  7  1  0  0  0  0
 25 17  1  0  0  0  0
  5  4  1  0  0  0  0
 10  6  1  0  0  0  0
  9 11  1  0  0  0  0
M  END
> <IDNUMBER>
F3230-0044

> <Chemical_Name>
7-[3-(4-chloro-3,5-dimethyl-1H-pyrazol-1-yl)-2-hydroxypropoxy]-4-methyl-2H-chromen-2-one

> <CAS>
890598-07-9

> <PriceCoeff>
1.00

> <MW>
362.81

> <Description>
solid

> <FSP3>
0.33

> <clogP>
2.82

> <TPSA>
73.58

> <Acceptor>
5

> <Donor>
1

> <RotBonds>
5

> <HAC>
25

> <Collection>
General

$$$$
F0373-0004
  -ISIS-  06222321442D

 16 17  0  0  0  0  0  0  0  0999 V2000
   -0.0500   -1.0042    0.0000 C   0  0  0  0  0  0  0  0  0  0  0  0
   -0.0500    0.4333    0.0000 C   0  0  0  0  0  0  0  0  0  0  0  0
    1.3167   -1.4500    0.0000 N   0  0  0  0  0  0  0  0  0  0  0  0
   -1.3000   -1.7292    0.0000 N   0  0  3  0  0  0  0  0  0  0  0  0
    2.1500   -0.2667    0.0000 C   0  0  0  0  0  0  0  0  0  0  0  0
   -1.3000    1.1500    0.0000 C   0  0  0  0  0  0  0  0  0  0  0  0
   -2.5625   -1.0000    0.0000 C   0  0  0  0  0  0  0  0  0  0  0  0
    1.3167    0.8708    0.0000 N   0  0  3  0  0  0  0  0  0  0  0  0
   -2.5625    0.4208    0.0000 N   0  0  0  0  0  0  0  0  0  0  0  0
   -3.8500   -1.7000    0.0000 O   0  0  0  0  0  0  0  0  0  0  0  0
   -1.3000    2.6125    0.0000 O   0  0  0  0  0  0  0  0  0  0  0  0
    3.6042   -0.2500    0.0000 Br  0  0  0  0  0  0  0  0  0  0  0  0
    1.8042    2.2708    0.0000 C   0  0  3  0  0  0  0  0  0  0  0  0
   -1.3000   -3.2000    0.0000 C   0  0  0  0  0  0  0  0  0  0  0  0
    3.2292    2.5458    0.0000 C   0  0  0  0  0  0  0  0  0  0  0  0
    0.8500    3.3625    0.0000 C   0  0  0  0  0  0  0  0  0  0  0  0
  2  1  2  0  0  0  0
  3  1  1  0  0  0  0
  4  1  1  0  0  0  0
  5  3  2  0  0  0  0
  6  2  1  0  0  0  0
  7  4  1  0  0  0  0
  8  2  1  0  0  0  0
  9  7  1  0  0  0  0
 10  7  2  0  0  0  0
 11  6  2  0  0  0  0
 12  5  1  0  0  0  0
 13  8  1  0  0  0  0
 14  4  1  0  0  0  0
 15 13  1  0  0  0  0
 16 13  1  0  0  0  0
  8  5  1  0  0  0  0
  9  6  1  0  0  0  0
M  END
> <IDNUMBER>
F0373-0004

> <Chemical_Name>
8-bromo-3-methyl-7-(propan-2-yl)-2,3,6,7-tetrahydro-1H-purine-2,6-dione

> <CAS>
123980-53-0

> <PriceCoeff>
1.00

> <MW>
287.11

> <Description>
solid

> <FSP3>
0.44

> <clogP>
1.06

> <TPSA>
67.23

> <Acceptor>
3

> <Donor>
2

> <RotBonds>
1

> <HAC>
16

> <Collection>
General

> <Reference_compound>
CHEMBL113

> <Similarity>
0.8030

$$$$
F0396-0212
  -ISIS-  06222321442D

 31 35  0  0  0  0  0  0  0  0999 V2000
   -1.7958   -0.0542    0.0000 C   0  0  0  0  0  0  0  0  0  0  0  0
   -2.4208    0.2833    0.0000 N   0  0  3  0  0  0  0  0  0  0  0  0
   -3.0458   -0.0167    0.0000 N   0  0  0  0  0  0  0  0  0  0  0  0
   -2.0708   -0.7542    0.0000 C   0  0  0  0  0  0  0  0  0  0  0  0
   -1.0500    0.0458    0.0000 N   0  0  0  0  0  0  0  0  0  0  0  0
   -2.8000   -0.7000    0.0000 C   0  0  0  0  0  0  0  0  0  0  0  0
    2.3292    0.3208    0.0000 N   0  0  3  0  0  0  0  0  0  0  0  0
   -0.4625   -0.3667    0.0000 C   0  0  0  0  0  0  0  0  0  0  0  0
    2.5875    1.0458    0.0000 C   0  0  0  0  0  0  0  0  0  0  0  0
    2.9792   -0.0792    0.0000 C   0  0  0  0  0  0  0  0  0  0  0  0
   -2.4333    1.0125    0.0000 C   0  0  0  0  0  0  0  0  0  0  0  0
    1.5667    0.1208    0.0000 C   0  0  0  0  0  0  0  0  0  0  0  0
   -2.5458   -1.9167    0.0000 S   0  0  0  0  0  0  0  0  0  0  0  0
    0.0875   -0.1500    0.0000 C   0  0  0  0  0  0  0  0  0  0  0  0
   -0.6625   -1.0875    0.0000 O   0  0  0  0  0  0  0  0  0  0  0  0
    3.3500    1.0333    0.0000 C   0  0  0  0  0  0  0  0  0  0  0  0
    3.5792    0.2958    0.0000 C   0  0  0  0  0  0  0  0  0  0  0  0
    2.9875   -0.7542    0.0000 O   0  0  0  0  0  0  0  0  0  0  0  0
    2.1292    1.7000    0.0000 O   0  0  0  0  0  0  0  0  0  0  0  0
   -1.8833   -1.5000    0.0000 C   0  0  0  0  0  0  0  0  0  0  0  0
    1.0042    0.6708    0.0000 C   0  0  0  0  0  0  0  0  0  0  0  0
    1.4000   -0.4667    0.0000 C   0  0  0  0  0  0  0  0  0  0  0  0
    0.2667    0.4458    0.0000 C   0  0  0  0  0  0  0  0  0  0  0  0
    0.6667   -0.6875    0.0000 C   0  0  0  0  0  0  0  0  0  0  0  0
   -3.1000   -1.4167    0.0000 C   0  0  0  0  0  0  0  0  0  0  0  0
   -3.0708    1.3708    0.0000 C   0  0  0  0  0  0  0  0  0  0  0  0
   -1.8125    1.3833    0.0000 C   0  0  0  0  0  0  0  0  0  0  0  0
   -2.4333    2.4958    0.0000 C   0  0  0  0  0  0  0  0  0  0  0  0
   -3.0708    2.1125    0.0000 C   0  0  0  0  0  0  0  0  0  0  0  0
   -1.8125    2.1208    0.0000 C   0  0  0  0  0  0  0  0  0  0  0  0
   -2.4208    3.0208    0.0000 Cl  0  0  0  0  0  0  0  0  0  0  0  0
  2  1  1  0  0  0  0
  3  2  1  0  0  0  0
  4  1  2  0  0  0  0
  5  1  1  0  0  0  0
  6  4  1  0  0  0  0
  7 12  1  0  0  0  0
  8  5  1  0  0  0  0
  9  7  1  0  0  0  0
 10  7  1  0  0  0  0
 11  2  1  0  0  0  0
 12 22  1  0  0  0  0
 13 20  1  0  0  0  0
 14  8  1  0  0  0  0
 15  8  2  0  0  0  0
 16  9  1  0  0  0  0
 17 10  1  0  0  0  0
 18 10  2  0  0  0  0
 19  9  2  0  0  0  0
 20  4  1  0  0  0  0
 21 23  1  0  0  0  0
 22 24  2  0  0  0  0
 23 14  2  0  0  0  0
 24 14  1  0  0  0  0
 25  6  1  0  0  0  0
 26 11  2  0  0  0  0
 27 11  1  0  0  0  0
 28 30  1  0  0  0  0
 29 26  1  0  0  0  0
 30 27  2  0  0  0  0
 31 28  1  0  0  0  0
  3  6  2  0  0  0  0
 13 25  1  0  0  0  0
 29 28  2  0  0  0  0
 21 12  2  0  0  0  0
 17 16  1  0  0  0  0
M  END
> <IDNUMBER>
F0396-0212

> <Chemical_Name>
N-[2-(4-chlorophenyl)-2H,4H,6H-thieno[3,4-c]pyrazol-3-yl]-4-(2,5-dioxopyrrolidin-1-yl)benzamide

> <CAS>
361477-28-3

> <PriceCoeff>
1.00

> <MW>
452.91

> <Description>
solid

> <FSP3>
0.18

> <clogP>
2.01

> <TPSA>
109.60

> <Acceptor>
4

> <Donor>
1

> <RotBonds>
4

> <HAC>
31

> <Collection>
General

$$$$
F2135-1620
  -ISIS-  06222321442D

 15 16  0  0  0  0  0  0  0  0999 V2000
    4.5792   -1.6250    0.0000 S   0  0  0  0  0  0  0  0  0  0  0  0
    3.8667   -1.2167    0.0000 C   0  0  0  0  0  0  0  0  0  0  0  0
    2.4417   -0.3917    0.0000 C   0  0  0  0  0  0  0  0  0  0  0  0
    4.5792   -2.4500    0.0000 C   0  0  0  0  0  0  0  0  0  0  0  0
    1.7250    0.0208    0.0000 Cl  0  0  0  0  0  0  0  0  0  0  0  0
    3.8667   -0.3917    0.0000 C   0  0  0  0  0  0  0  0  0  0  0  0
    3.1542   -1.6292    0.0000 C   0  0  0  0  0  0  0  0  0  0  0  0
    2.4417   -1.2250    0.0000 C   0  0  0  0  0  0  0  0  0  0  0  0
    3.1500    0.0250    0.0000 C   0  0  0  0  0  0  0  0  0  0  0  0
    5.3000   -2.8542    0.0000 C   0  0  0  0  0  0  0  0  0  0  0  0
    5.2917   -3.6792    0.0000 C   0  0  0  0  0  0  0  0  0  0  0  0
    6.0042   -2.4417    0.0000 C   0  0  0  0  0  0  0  0  0  0  0  0
    6.7167   -2.8500    0.0000 C   0  0  0  0  0  0  0  0  0  0  0  0
    6.0042   -4.0917    0.0000 C   0  0  0  0  0  0  0  0  0  0  0  0
    6.7250   -3.6792    0.0000 C   0  0  0  0  0  0  0  0  0  0  0  0
  2  1  1  0  0  0  0
  3  8  2  0  0  0  0
  4  1  1  0  0  0  0
  5  3  1  0  0  0  0
  6  2  1  0  0  0  0
  7  2  2  0  0  0  0
  8  7  1  0  0  0  0
  9  6  2  0  0  0  0
 10  4  1  0  0  0  0
 11 10  2  0  0  0  0
 12 10  1  0  0  0  0
 13 12  2  0  0  0  0
 14 11  1  0  0  0  0
 15 13  1  0  0  0  0
  9  3  1  0  0  0  0
 14 15  2  0  0  0  0
M  END
> <IDNUMBER>
F2135-1620

> <Chemical_Name>
1-(benzylsulfanyl)-4-chlorobenzene

> <CAS>
53830-54-9

> <PriceCoeff>
1.00

> <MW>
234.74

> <Description>
solid

> <FSP3>
0.08

> <clogP>
5.04

> <TPSA>
0.00

> <Acceptor>
0

> <Donor>
0

> <RotBonds>
3

> <HAC>
15

> <Collection>
General

> <Reference_compound>
PRI1967

> <Similarity>
0.9640

$$$$
F3023-0833
  -ISIS-  06222321442D

 23 25  0  0  0  0  0  0  0  0999 V2000
    3.4375   -6.4042    0.0000 N   0  0  3  0  0  0  0  0  0  0  0  0
    3.8542   -5.8292    0.0000 C   0  0  0  0  0  0  0  0  0  0  0  0
    3.8542   -6.9750    0.0000 C   0  0  0  0  0  0  0  0  0  0  0  0
    4.5292   -6.7542    0.0000 C   0  0  3  0  0  0  0  0  0  0  0  0
    4.5292   -6.0417    0.0000 C   0  0  0  0  0  0  0  0  0  0  0  0
    5.1042   -7.1667    0.0000 N   0  0  0  0  0  0  0  0  0  0  0  0
    3.6292   -5.1542    0.0000 O   0  0  0  0  0  0  0  0  0  0  0  0
    3.6417   -7.6500    0.0000 O   0  0  0  0  0  0  0  0  0  0  0  0
    2.7292   -6.4042    0.0000 C   0  0  3  0  0  0  0  0  0  0  0  0
    5.7542   -6.8792    0.0000 C   0  0  0  0  0  0  0  0  0  0  0  0
    7.0417   -6.3042    0.0000 C   0  0  0  0  0  0  0  0  0  0  0  0
    6.3250   -7.2917    0.0000 C   0  0  0  0  0  0  0  0  0  0  0  0
    5.8167   -6.1750    0.0000 C   0  0  0  0  0  0  0  0  0  0  0  0
    6.4667   -5.8875    0.0000 C   0  0  0  0  0  0  0  0  0  0  0  0
    6.9750   -7.0042    0.0000 C   0  0  0  0  0  0  0  0  0  0  0  0
    7.6917   -6.0125    0.0000 O   0  0  0  0  0  0  0  0  0  0  0  0
    2.3792   -5.7917    0.0000 C   0  0  0  0  0  0  0  0  0  0  0  0
    2.3792   -7.0250    0.0000 C   0  0  0  0  0  0  0  0  0  0  0  0
    8.2667   -6.4292    0.0000 C   0  0  0  0  0  0  0  0  0  0  0  0
    8.9167   -6.1375    0.0000 C   0  0  0  0  0  0  0  0  0  0  0  0
    1.6750   -7.0250    0.0000 C   0  0  0  0  0  0  0  0  0  0  0  0
    1.6667   -5.8000    0.0000 C   0  0  0  0  0  0  0  0  0  0  0  0
    1.3167   -6.4125    0.0000 C   0  0  0  0  0  0  0  0  0  0  0  0
  2  1  1  0  0  0  0
  3  1  1  0  0  0  0
  4  3  1  0  0  0  0
  5  2  1  0  0  0  0
  6  4  1  0  0  0  0
  7  2  2  0  0  0  0
  8  3  2  0  0  0  0
  9  1  1  0  0  0  0
 10  6  1  0  0  0  0
 11 14  1  0  0  0  0
 12 10  2  0  0  0  0
 13 10  1  0  0  0  0
 14 13  2  0  0  0  0
 15 12  1  0  0  0  0
 16 11  1  0  0  0  0
 17  9  1  0  0  0  0
 18  9  1  0  0  0  0
 19 16  1  0  0  0  0
 20 19  1  0  0  0  0
 21 18  1  0  0  0  0
 22 17  1  0  0  0  0
 23 21  1  0  0  0  0
  5  4  1  0  0  0  0
 23 22  1  0  0  0  0
 11 15  2  0  0  0  0
M  END
> <IDNUMBER>
F3023-0833

> <Chemical_Name>
1-cyclohexyl-3-[(4-ethoxyphenyl)amino]pyrrolidine-2,5-dione

> <CAS>
1008711-52-1

> <PriceCoeff>
1.00

> <MW>
316.39

> <Description>
solid

> <FSP3>
0.56

> <clogP>
4.23

> <TPSA>
58.64

> <Acceptor>
4

> <Donor>
1

> <RotBonds>
5

> <HAC>
23

> <Collection>
General

$$$$
F0327-0346
  -ISIS-  06222321142D

 31 34  0  0  0  0  0  0  0  0999 V2000
    4.4167    0.3500    0.0000 N   0  0  3  0  0  0  0  0  0  0  0  0
   -0.4000    1.1125    0.0000 C   0  0  0  0  0  0  0  0  0  0  0  0
   -0.9125    0.4000    0.0000 N   0  0  0  0  0  0  0  0  0  0  0  0
    0.4542    1.1125    0.0000 N   0  0  0  0  0  0  0  0  0  0  0  0
   -1.7458    0.6500    0.0000 C   0  0  0  0  0  0  0  0  0  0  0  0
    0.9000    0.3500    0.0000 C   0  0  0  0  0  0  0  0  0  0  0  0
    4.9167    1.0125    0.0000 C   0  0  0  0  0  0  0  0  0  0  0  0
    4.9042   -0.3667    0.0000 C   0  0  0  0  0  0  0  0  0  0  0  0
   -0.9000    1.8125    0.0000 S   0  0  0  0  0  0  0  0  0  0  0  0
   -1.7458    1.5500    0.0000 C   0  0  0  0  0  0  0  0  0  0  0  0
   -2.4208    0.1208    0.0000 C   0  0  0  0  0  0  0  0  0  0  0  0
    3.5375    0.3500    0.0000 C   0  0  0  0  0  0  0  0  0  0  0  0
   -3.2458    0.4500    0.0000 C   0  0  0  0  0  0  0  0  0  0  0  0
   -3.9458   -0.0875    0.0000 C   0  0  0  0  0  0  0  0  0  0  0  0
    1.7792    0.3500    0.0000 C   0  0  0  0  0  0  0  0  0  0  0  0
   -3.8208   -0.9667    0.0000 C   0  0  0  0  0  0  0  0  0  0  0  0
    0.4542   -0.4042    0.0000 O   0  0  0  0  0  0  0  0  0  0  0  0
    5.7500    0.7500    0.0000 C   0  0  0  0  0  0  0  0  0  0  0  0
    5.7542   -0.1167    0.0000 C   0  0  0  0  0  0  0  0  0  0  0  0
    4.6292    1.8625    0.0000 O   0  0  0  0  0  0  0  0  0  0  0  0
    4.6000   -1.1875    0.0000 O   0  0  0  0  0  0  0  0  0  0  0  0
   -2.3000   -0.7542    0.0000 C   0  0  0  0  0  0  0  0  0  0  0  0
    3.1000    1.1125    0.0000 C   0  0  0  0  0  0  0  0  0  0  0  0
    3.1000   -0.4042    0.0000 C   0  0  0  0  0  0  0  0  0  0  0  0
    2.2167    1.1125    0.0000 C   0  0  0  0  0  0  0  0  0  0  0  0
    2.2167   -0.4042    0.0000 C   0  0  0  0  0  0  0  0  0  0  0  0
   -2.9958   -1.3000    0.0000 C   0  0  0  0  0  0  0  0  0  0  0  0
   -4.7500    0.2458    0.0000 O   0  0  0  0  0  0  0  0  0  0  0  0
   -4.5208   -1.5000    0.0000 O   0  0  0  0  0  0  0  0  0  0  0  0
   -4.8625    1.1125    0.0000 C   0  0  0  0  0  0  0  0  0  0  0  0
   -5.3208   -1.1667    0.0000 C   0  0  0  0  0  0  0  0  0  0  0  0
  2  4  1  0  0  0  0
  3  2  2  0  0  0  0
  4  6  1  0  0  0  0
  5  3  1  0  0  0  0
  6 15  1  0  0  0  0
  7  1  1  0  0  0  0
  8  1  1  0  0  0  0
  9  2  1  0  0  0  0
 10  9  1  0  0  0  0
 11  5  1  0  0  0  0
 12  1  1  0  0  0  0
 13 11  2  0  0  0  0
 14 13  1  0  0  0  0
 15 26  2  0  0  0  0
 16 27  1  0  0  0  0
 17  6  2  0  0  0  0
 18  7  1  0  0  0  0
 19  8  1  0  0  0  0
 20  7  2  0  0  0  0
 21  8  2  0  0  0  0
 22 11  1  0  0  0  0
 23 12  1  0  0  0  0
 24 12  2  0  0  0  0
 25 23  2  0  0  0  0
 26 24  1  0  0  0  0
 27 22  2  0  0  0  0
 28 14  1  0  0  0  0
 29 16  1  0  0  0  0
 30 28  1  0  0  0  0
 31 29  1  0  0  0  0
 18 19  1  0  0  0  0
 25 15  1  0  0  0  0
 10  5  2  0  0  0  0
 14 16  2  0  0  0  0
M  END
> <IDNUMBER>
F0327-0346

> <Chemical_Name>
N-[4-(3,4-dimethoxyphenyl)-1,3-thiazol-2-yl]-4-(2,5-dioxopyrrolidin-1-yl)benzamide

> <CAS>
328027-91-4

> <PriceCoeff>
1.00

> <MW>
437.47

> <Description>
solid

> <FSP3>
0.18

> <clogP>
1.86

> <TPSA>
126.07

> <Acceptor>
6

> <Donor>
1

> <RotBonds>
6

> <HAC>
31

> <Collection>
General

$$$$
F2664-0051
  -ISIS-  06222321152D

 26 29  0  0  0  0  0  0  0  0999 V2000
   -3.6958    7.3417    0.0000 N   0  0  3  0  0  0  0  0  0  0  0  0
   -4.5000    0.9833    0.0000 N   0  3  0  0  0  0  0  0  0  0  0  0
   -3.8583    6.6042    0.0000 C   0  0  0  0  0  0  0  0  0  0  0  0
   -4.5000    3.2333    0.0000 C   0  0  0  0  0  0  0  0  0  0  0  0
   -4.4958    3.9833    0.0000 C   0  0  0  0  0  0  0  0  0  0  0  0
   -3.2083    6.2292    0.0000 C   0  0  0  0  0  0  0  0  0  0  0  0
   -4.5000    6.2292    0.0000 C   0  0  0  0  0  0  0  0  0  0  0  0
   -4.2583    7.8417    0.0000 C   0  0  0  0  0  0  0  0  0  0  0  0
   -3.8583    2.8583    0.0000 C   0  0  0  0  0  0  0  0  0  0  0  0
   -4.5000    1.7333    0.0000 C   0  0  0  0  0  0  0  0  0  0  0  0
   -3.8583    4.3542    0.0000 N   0  0  0  0  0  0  0  0  0  0  0  0
   -3.8583    2.1083    0.0000 C   0  0  0  0  0  0  0  0  0  0  0  0
   -2.9500    7.4167    0.0000 C   0  0  0  0  0  0  0  0  0  0  0  0
   -3.8583    5.1042    0.0000 C   0  0  0  0  0  0  0  0  0  0  0  0
   -5.1583    2.8583    0.0000 C   0  0  0  0  0  0  0  0  0  0  0  0
   -4.5000    5.4792    0.0000 C   0  0  0  0  0  0  0  0  0  0  0  0
   -3.2083    5.4792    0.0000 C   0  0  0  0  0  0  0  0  0  0  0  0
   -5.1458    0.6083    0.0000 O   0  5  0  0  0  0  0  0  0  0  0  0
   -3.8500    0.6083    0.0000 O   0  0  0  0  0  0  0  0  0  0  0  0
   -2.6458    6.7292    0.0000 C   0  0  0  0  0  0  0  0  0  0  0  0
   -5.1583    4.3542    0.0000 O   0  0  0  0  0  0  0  0  0  0  0  0
   -5.1583    6.6042    0.0000 C   0  0  0  0  0  0  0  0  0  0  0  0
   -5.1583    2.1083    0.0000 C   0  0  0  0  0  0  0  0  0  0  0  0
   -5.1583    7.3542    0.0000 C   0  0  0  0  0  0  0  0  0  0  0  0
   -4.0208    8.5542    0.0000 O   0  0  0  0  0  0  0  0  0  0  0  0
   -3.2000    3.2375    0.0000 Cl  0  0  0  0  0  0  0  0  0  0  0  0
  2 10  1  0  0  0  0
  3  1  1  0  0  0  0
  4  5  1  0  0  0  0
  5 11  1  0  0  0  0
  6  3  2  0  0  0  0
  7  3  1  0  0  0  0
  8  1  1  0  0  0  0
  9  4  1  0  0  0  0
 10 23  2  0  0  0  0
 11 14  1  0  0  0  0
 12  9  2  0  0  0  0
 13  1  1  0  0  0  0
 14 16  1  0  0  0  0
 15  4  2  0  0  0  0
 16  7  2  0  0  0  0
 17  6  1  0  0  0  0
 18  2  1  0  0  0  0
 19  2  2  0  0  0  0
 20 13  1  0  0  0  0
 21  5  2  0  0  0  0
 22 24  1  0  0  0  0
 23 15  1  0  0  0  0
 24  8  1  0  0  0  0
 25  8  2  0  0  0  0
 26  9  1  0  0  0  0
 20  6  1  0  0  0  0
 22  7  1  0  0  0  0
 14 17  2  0  0  0  0
 12 10  1  0  0  0  0
M  CHG  2   2   1  18  -1
M  END
> <IDNUMBER>
F2664-0051

> <Chemical_Name>
2-chloro-4-nitro-N-{11-oxo-1-azatricyclo[6.3.1.0^{4,12}]dodeca-4(12),5,7-trien-6-yl}benzamide

> <CAS>
903273-86-9

> <PriceCoeff>
1.00

> <MW>
371.77

> <Description>
solid

> <FSP3>
0.22

> <clogP>
2.13

> <TPSA>
92.55

> <Acceptor>
4

> <Donor>
1

> <RotBonds>
3

> <HAC>
26

> <Collection>
General

$$$$
F2736-1116
  -ISIS-  06222304352D

 36 39  0  0  0  0  0  0  0  0999 V2000
   -2.4333    3.7958    0.0000 C   0  0  0  0  0  0  0  0  0  0  0  0
   -3.1583    4.2042    0.0000 N   0  0  3  0  0  0  0  0  0  0  0  0
   -1.6708    4.1375    0.0000 N   0  0  0  0  0  0  0  0  0  0  0  0
   -3.8833    0.5125    0.0000 N   0  0  3  0  0  0  0  0  0  0  0  0
   -2.3583    2.9708    0.0000 S   0  0  0  0  0  0  0  0  0  0  0  0
   -3.8708    3.8000    0.0000 C   0  0  0  0  0  0  0  0  0  0  0  0
   -4.5083    0.0083    0.0000 C   0  0  0  0  0  0  0  0  0  0  0  0
   -3.1958    0.0583    0.0000 C   0  0  0  0  0  0  0  0  0  0  0  0
   -1.5250    2.7958    0.0000 C   0  0  0  0  0  0  0  0  0  0  0  0
   -1.1125    3.5208    0.0000 C   0  0  0  0  0  0  0  0  0  0  0  0
   -3.8750    1.3375    0.0000 C   0  0  0  0  0  0  0  0  0  0  0  0
   -3.8708    2.9833    0.0000 C   0  0  0  0  0  0  0  0  0  0  0  0
   -1.7125    6.4000    0.0000 N   0  0  3  0  0  0  0  0  0  0  0  0
   -4.5833    4.2042    0.0000 O   0  0  0  0  0  0  0  0  0  0  0  0
   -1.1083    2.0708    0.0000 C   0  0  0  0  0  0  0  0  0  0  0  0
   -4.2333   -0.7625    0.0000 C   0  0  0  0  0  0  0  0  0  0  0  0
   -3.4208   -0.7375    0.0000 C   0  0  0  0  0  0  0  0  0  0  0  0
   -5.3083    0.2333    0.0000 O   0  0  0  0  0  0  0  0  0  0  0  0
   -2.4083    0.3375    0.0000 O   0  0  0  0  0  0  0  0  0  0  0  0
   -0.2750    3.5250    0.0000 C   0  0  0  0  0  0  0  0  0  0  0  0
   -3.1500    1.7458    0.0000 C   0  0  0  0  0  0  0  0  0  0  0  0
   -4.5833    1.7500    0.0000 C   0  0  0  0  0  0  0  0  0  0  0  0
   -4.5708    2.5833    0.0000 C   0  0  0  0  0  0  0  0  0  0  0  0
   -3.1458    2.5708    0.0000 C   0  0  0  0  0  0  0  0  0  0  0  0
   -0.2708    7.2292    0.0000 O   0  0  0  0  0  0  0  0  0  0  0  0
   -3.1583    4.7292    0.0000 C   0  0  0  0  0  0  0  0  0  0  0  0
   -2.4333    5.1500    0.0000 C   0  0  0  0  0  0  0  0  0  0  0  0
   -0.2750    2.0708    0.0000 C   0  0  0  0  0  0  0  0  0  0  0  0
    0.1292    2.8000    0.0000 C   0  0  0  0  0  0  0  0  0  0  0  0
   -2.4375    5.9792    0.0000 C   0  0  0  0  0  0  0  0  0  0  0  0
   -1.7208    7.2292    0.0000 C   0  0  0  0  0  0  0  0  0  0  0  0
   -0.9958    5.9792    0.0000 C   0  0  0  0  0  0  0  0  0  0  0  0
   -0.2750    6.3917    0.0000 C   0  0  0  0  0  0  0  0  0  0  0  0
   -0.9958    7.6500    0.0000 C   0  0  0  0  0  0  0  0  0  0  0  0
    0.1417    1.3500    0.0000 C   0  0  0  0  0  0  0  0  0  0  0  0
    1.5292    3.5375    0.0000 Cl  0  0  0  0  0  0  0  0  0  0  0  0
  3  1  2  0  0  0  0
  4 11  1  0  0  0  0
  5  1  1  0  0  0  0
  6  2  1  0  0  0  0
  7  4  1  0  0  0  0
  8  4  1  0  0  0  0
  9  5  1  0  0  0  0
 10  3  1  0  0  0  0
 11 21  1  0  0  0  0
 12  6  1  0  0  0  0
 13 30  1  0  0  0  0
 14  6  2  0  0  0  0
 15  9  1  0  0  0  0
 16  7  1  0  0  0  0
 17  8  1  0  0  0  0
 18  7  2  0  0  0  0
 19  8  2  0  0  0  0
 20 10  1  0  0  0  0
 21 24  2  0  0  0  0
 22 23  1  0  0  0  0
 23 12  2  0  0  0  0
 24 12  1  0  0  0  0
 25 33  1  0  0  0  0
 26  2  1  0  0  0  0
 27 26  1  0  0  0  0
 28 15  2  0  0  0  0
 29 20  2  0  0  0  0
 30 27  1  0  0  0  0
 31 13  1  0  0  0  0
 32 13  1  0  0  0  0
 33 32  1  0  0  0  0
 34 31  1  0  0  0  0
 35 28  1  0  0  0  0
  9 10  2  0  0  0  0
 29 28  1  0  0  0  0
 11 22  2  0  0  0  0
 25 34  1  0  0  0  0
 17 16  1  0  0  0  0
  2  1  1  0  0  0  0
M  END
> <IDNUMBER>
F2736-1116

> <Chemical_Name>
4-(2,5-dioxopyrrolidin-1-yl)-N-(6-methyl-1,3-benzothiazol-2-yl)-N-[3-(morpholin-4-yl)propyl]benzamide hydrochloride

> <CAS>
1330286-35-5

> <PriceCoeff>
1.00

> <MW>
492.59

> <Description>
solid

> <FSP3>
0.38

> <clogP>
1.79

> <TPSA>
111.29

> <Acceptor>
5

> <Donor>
1

> <RotBonds>
8

> <HAC>
35

> <Collection>
General

$$$$
F0850-6838
  -ISIS-  06222321452D

 12 12  0  0  0  0  0  0  0  0999 V2000
    0.2792    2.8125    0.0000 C   0  0  0  0  0  0  0  0  0  0  0  0
    0.2792    1.6958    0.0000 C   0  0  0  0  0  0  0  0  0  0  0  0
   -0.6625    1.1458    0.0000 C   0  0  0  0  0  0  0  0  0  0  0  0
   -0.6625    3.3833    0.0000 O   0  0  0  0  0  0  0  0  0  0  0  0
   -0.6833    0.0125    0.0000 C   0  0  0  0  0  0  0  0  0  0  0  0
   -0.6833   -2.2500    0.0000 C   0  0  0  0  0  0  0  0  0  0  0  0
    1.2542    3.3625    0.0000 O   0  0  0  0  0  0  0  0  0  0  0  0
   -0.6833   -3.3667    0.0000 Br  0  0  0  0  0  0  0  0  0  0  0  0
   -1.6625   -0.5500    0.0000 C   0  0  0  0  0  0  0  0  0  0  0  0
    0.2792   -0.5500    0.0000 C   0  0  0  0  0  0  0  0  0  0  0  0
   -1.6625   -1.6792    0.0000 C   0  0  0  0  0  0  0  0  0  0  0  0
    0.2792   -1.6792    0.0000 C   0  0  0  0  0  0  0  0  0  0  0  0
  2  1  1  0  0  0  0
  3  2  2  0  0  0  0
  4  1  2  0  0  0  0
  5  3  1  0  0  0  0
  6 12  1  0  0  0  0
  7  1  1  0  0  0  0
  8  6  1  0  0  0  0
  9  5  2  0  0  0  0
 10  5  1  0  0  0  0
 11  9  1  0  0  0  0
 12 10  2  0  0  0  0
 11  6  2  0  0  0  0
M  END
> <IDNUMBER>
F0850-6838

> <Chemical_Name>
(2E)-3-(4-bromophenyl)prop-2-enoic acid

> <CAS>
17916-60-8

> <PriceCoeff>
1.00

> <MW>
227.05

> <Description>
solid

> <FSP3>
0.00

> <clogP>
3.10

> <TPSA>
37.30

> <Acceptor>
2

> <Donor>
0

> <RotBonds>
2

> <HAC>
12

> <Collection>
General

> <Reference_compound>
CHEMBL27246

> <Similarity>
0.8100

$$$$
F9994-5179
  -ISIS-  06222321442D

 14 14  0  0  0  0  0  0  0  0999 V2000
   -1.2458   -1.0000    0.0000 C   0  0  0  0  0  0  0  0  0  0  0  0
   -0.5333   -1.4125    0.0000 C   0  0  0  0  0  0  0  0  0  0  0  0
   -1.9583   -1.4125    0.0000 C   0  0  0  0  0  0  0  0  0  0  0  0
    0.1792   -0.9917    0.0000 C   0  0  0  0  0  0  0  0  0  0  0  0
    0.9000   -1.4042    0.0000 O   0  0  0  0  0  0  0  0  0  0  0  0
   -3.3875   -1.4167    0.0000 C   0  0  0  0  0  0  0  0  0  0  0  0
   -1.2500   -0.1750    0.0000 O   0  0  0  0  0  0  0  0  0  0  0  0
   -2.6708   -1.0042    0.0000 O   0  0  0  0  0  0  0  0  0  0  0  0
   -4.1000   -1.0042    0.0000 O   0  0  0  0  0  0  0  0  0  0  0  0
   -0.5333   -2.2417    0.0000 C   0  0  0  0  0  0  0  0  0  0  0  0
   -1.2458   -2.6542    0.0000 C   0  0  0  0  0  0  0  0  0  0  0  0
   -1.9583   -2.2417    0.0000 C   0  0  0  0  0  0  0  0  0  0  0  0
   -1.9667    0.2333    0.0000 C   0  0  0  0  0  0  0  0  0  0  0  0
   -4.8125   -1.4167    0.0000 C   0  0  0  0  0  0  0  0  0  0  0  0
  2  1  2  0  0  0  0
  3  1  1  0  0  0  0
  4  2  1  0  0  0  0
  5  4  2  0  0  0  0
  6  8  1  0  0  0  0
  7  1  1  0  0  0  0
  8  3  1  0  0  0  0
  9  6  1  0  0  0  0
 10  2  1  0  0  0  0
 11 12  1  0  0  0  0
 12  3  2  0  0  0  0
 13  7  1  0  0  0  0
 14  9  1  0  0  0  0
 11 10  2  0  0  0  0
M  END
> <IDNUMBER>
F9994-5179

> <Chemical_Name>
2-methoxy-3-(methoxymethoxy)benzaldehyde

> <CAS>
223578-03-8

> <PriceCoeff>
1.00

> <MW>
196.20

> <Description>
liquid

> <FSP3>
0.30

> <clogP>
0.96

> <TPSA>
44.76

> <Acceptor>
4

> <Donor>
0

> <RotBonds>
5

> <HAC>
14

> <Collection>
General

> <Reference_compound>
CHEMBL13859

> <Similarity>
0.8270

$$$$
F3023-0379
  -ISIS-  06222321462D

 22 24  0  0  0  0  0  0  0  0999 V2000
   11.3167   -6.1542    0.0000 N   0  0  3  0  0  0  0  0  0  0  0  0
   10.8917   -5.5750    0.0000 C   0  0  0  0  0  0  0  0  0  0  0  0
   10.8917   -6.7375    0.0000 C   0  0  0  0  0  0  0  0  0  0  0  0
   10.2042   -6.5042    0.0000 C   0  0  3  0  0  0  0  0  0  0  0  0
   10.2167   -5.7917    0.0000 C   0  0  0  0  0  0  0  0  0  0  0  0
    9.6292   -6.9292    0.0000 N   0  0  0  0  0  0  0  0  0  0  0  0
   12.0375   -6.1625    0.0000 C   0  0  0  0  0  0  0  0  0  0  0  0
   11.1250   -4.8917    0.0000 O   0  0  0  0  0  0  0  0  0  0  0  0
   11.1125   -7.4167    0.0000 O   0  0  0  0  0  0  0  0  0  0  0  0
    8.9792   -6.6292    0.0000 C   0  0  0  0  0  0  0  0  0  0  0  0
    7.6792   -6.0417    0.0000 C   0  0  0  0  0  0  0  0  0  0  0  0
    8.9125   -5.9167    0.0000 C   0  0  0  0  0  0  0  0  0  0  0  0
    8.4042   -7.0500    0.0000 C   0  0  0  0  0  0  0  0  0  0  0  0
    7.7500   -6.7542    0.0000 C   0  0  0  0  0  0  0  0  0  0  0  0
    8.2625   -5.6250    0.0000 C   0  0  0  0  0  0  0  0  0  0  0  0
   12.3875   -6.7875    0.0000 C   0  0  0  0  0  0  0  0  0  0  0  0
   12.3917   -5.5417    0.0000 C   0  0  0  0  0  0  0  0  0  0  0  0
    7.0250   -5.7417    0.0000 C   0  0  0  0  0  0  0  0  0  0  0  0
    6.4417   -6.1667    0.0000 C   0  0  0  0  0  0  0  0  0  0  0  0
   13.1042   -5.5417    0.0000 C   0  0  0  0  0  0  0  0  0  0  0  0
   13.1042   -6.7917    0.0000 C   0  0  0  0  0  0  0  0  0  0  0  0
   13.4667   -6.1667    0.0000 C   0  0  0  0  0  0  0  0  0  0  0  0
  2  1  1  0  0  0  0
  3  1  1  0  0  0  0
  4  3  1  0  0  0  0
  5  2  1  0  0  0  0
  6  4  1  0  0  0  0
  7  1  1  0  0  0  0
  8  2  2  0  0  0  0
  9  3  2  0  0  0  0
 10  6  1  0  0  0  0
 11 14  1  0  0  0  0
 12 10  2  0  0  0  0
 13 10  1  0  0  0  0
 14 13  2  0  0  0  0
 15 12  1  0  0  0  0
 16  7  2  0  0  0  0
 17  7  1  0  0  0  0
 18 11  1  0  0  0  0
 19 18  1  0  0  0  0
 20 17  2  0  0  0  0
 21 16  1  0  0  0  0
 22 20  1  0  0  0  0
  4  5  1  0  0  0  0
 22 21  2  0  0  0  0
 11 15  2  0  0  0  0
M  END
> <IDNUMBER>
F3023-0379

> <Chemical_Name>
3-[(4-ethylphenyl)amino]-1-phenylpyrrolidine-2,5-dione

> <CAS>
1008061-39-9

> <PriceCoeff>
1.00

> <MW>
294.35

> <Description>
solid

> <FSP3>
0.22

> <clogP>
3.51

> <TPSA>
49.41

> <Acceptor>
3

> <Donor>
1

> <RotBonds>
4

> <HAC>
22

> <Collection>
General

$$$$
F3064-0111
  -ISIS-  06222321152D

 18 19  0  0  0  0  0  0  0  0999 V2000
    3.6375    2.1083    0.0000 C   0  0  0  0  0  0  0  0  0  0  0  0
    3.6375    3.5083    0.0000 C   0  0  0  0  0  0  0  0  0  0  0  0
    4.9667    1.6708    0.0000 N   0  0  0  0  0  0  0  0  0  0  0  0
    2.4250    1.4000    0.0000 N   0  0  3  0  0  0  0  0  0  0  0  0
    1.2125    3.5083    0.0000 N   0  0  3  0  0  0  0  0  0  0  0  0
    4.9667    3.9375    0.0000 N   0  0  3  0  0  0  0  0  0  0  0  0
    1.2042    2.1083    0.0000 C   0  0  0  0  0  0  0  0  0  0  0  0
    2.4167    4.2042    0.0000 C   0  0  0  0  0  0  0  0  0  0  0  0
    5.7917    2.8083    0.0000 C   0  0  0  0  0  0  0  0  0  0  0  0
    5.4000    5.2667    0.0000 C   0  0  0  0  0  0  0  0  0  0  0  0
    0.0000    1.4083    0.0000 O   0  0  0  0  0  0  0  0  0  0  0  0
    2.4167    5.6042    0.0000 O   0  0  0  0  0  0  0  0  0  0  0  0
    7.1917    2.8083    0.0000 Br  0  0  0  0  0  0  0  0  0  0  0  0
    2.4250   -0.0000    0.0000 C   0  0  0  0  0  0  0  0  0  0  0  0
    0.0000    4.2000    0.0000 C   0  0  0  0  0  0  0  0  0  0  0  0
    6.7667    5.5542    0.0000 C   0  0  3  0  0  0  0  0  0  0  0  0
    7.7042    4.5167    0.0000 C   0  0  0  0  0  0  0  0  0  0  0  0
    7.2042    6.8875    0.0000 C   0  0  0  0  0  0  0  0  0  0  0  0
  2  1  2  0  0  0  0
  3  1  1  0  0  0  0
  4  1  1  0  0  0  0
  5  7  1  0  0  0  0
  6  2  1  0  0  0  0
  7  4  1  0  0  0  0
  8  2  1  0  0  0  0
  9  3  2  0  0  0  0
 10  6  1  0  0  0  0
 11  7  2  0  0  0  0
 12  8  2  0  0  0  0
 13  9  1  0  0  0  0
 14  4  1  0  0  0  0
 15  5  1  0  0  0  0
 16 10  1  0  0  0  0
 17 16  1  0  0  0  0
 18 16  1  0  0  0  0
  9  6  1  0  0  0  0
  8  5  1  0  0  0  0
M  END
> <IDNUMBER>
F3064-0111

> <Chemical_Name>
8-bromo-1,3-dimethyl-7-(2-methylpropyl)-2,3,6,7-tetrahydro-1H-purine-2,6-dione

> <CAS>
887866-70-8

> <PriceCoeff>
1.00

> <MW>
315.17

> <Description>
solid

> <FSP3>
0.55

> <clogP>
2.31

> <TPSA>
58.44

> <Acceptor>
3

> <Donor>
1

> <RotBonds>
2

> <HAC>
18

> <Collection>
General

> <Reference_compound>
CHEMBL113

> <Similarity>
0.8120

$$$$
F2018-2477
  -ISIS-  06222304352D

 34 36  0  0  0  0  0  0  0  0999 V2000
   -3.8708    2.9833    0.0000 C   0  0  0  0  0  0  0  0  0  0  0  0
   -4.6250    2.6458    0.0000 N   0  0  0  0  0  0  0  0  0  0  0  0
   -3.1583    2.5625    0.0000 N   0  0  3  0  0  0  0  0  0  0  0  0
   -3.9583    3.8083    0.0000 S   0  0  0  0  0  0  0  0  0  0  0  0
   -1.0125    0.4958    0.0000 N   0  0  3  0  0  0  0  0  0  0  0  0
   -5.1833    3.2583    0.0000 C   0  0  0  0  0  0  0  0  0  0  0  0
   -2.4458    2.9833    0.0000 C   0  0  0  0  0  0  0  0  0  0  0  0
   -4.7708    3.9708    0.0000 C   0  0  0  0  0  0  0  0  0  0  0  0
   -1.0125    1.3333    0.0000 C   0  0  0  0  0  0  0  0  0  0  0  0
   -0.3708   -0.0167    0.0000 C   0  0  0  0  0  0  0  0  0  0  0  0
   -1.7083    0.0458    0.0000 C   0  0  0  0  0  0  0  0  0  0  0  0
   -1.7333    2.5625    0.0000 C   0  0  0  0  0  0  0  0  0  0  0  0
   -1.7250    1.7458    0.0000 C   0  0  0  0  0  0  0  0  0  0  0  0
   -3.1583    1.7375    0.0000 C   0  0  0  0  0  0  0  0  0  0  0  0
   -6.0000    3.2500    0.0000 C   0  0  0  0  0  0  0  0  0  0  0  0
   -5.1833    4.6667    0.0000 C   0  0  0  0  0  0  0  0  0  0  0  0
   -2.4458    3.8000    0.0000 O   0  0  0  0  0  0  0  0  0  0  0  0
   -0.6500   -0.7917    0.0000 C   0  0  0  0  0  0  0  0  0  0  0  0
   -1.4750   -0.7667    0.0000 C   0  0  0  0  0  0  0  0  0  0  0  0
    0.4250    0.1958    0.0000 O   0  0  0  0  0  0  0  0  0  0  0  0
   -2.4750    0.3333    0.0000 O   0  0  0  0  0  0  0  0  0  0  0  0
   -6.4042    3.9583    0.0000 C   0  0  0  0  0  0  0  0  0  0  0  0
   -6.0042    4.6667    0.0000 C   0  0  0  0  0  0  0  0  0  0  0  0
   -3.8708    1.3250    0.0000 C   0  0  0  0  0  0  0  0  0  0  0  0
   -3.8708    0.5000    0.0000 N   0  0  3  0  0  0  0  0  0  0  0  0
   -0.2958    1.7333    0.0000 C   0  0  0  0  0  0  0  0  0  0  0  0
   -6.4042    2.5375    0.0000 O   0  0  0  0  0  0  0  0  0  0  0  0
   -1.0083    2.9833    0.0000 C   0  0  0  0  0  0  0  0  0  0  0  0
   -0.2958    2.5625    0.0000 C   0  0  0  0  0  0  0  0  0  0  0  0
   -4.7708    5.3917    0.0000 C   0  0  0  0  0  0  0  0  0  0  0  0
   -4.5833    0.0875    0.0000 C   0  0  0  0  0  0  0  0  0  0  0  0
   -3.1583    0.0875    0.0000 C   0  0  0  0  0  0  0  0  0  0  0  0
   -5.9958    1.8333    0.0000 C   0  0  0  0  0  0  0  0  0  0  0  0
    1.9417    2.3958    0.0000 Cl  0  0  0  0  0  0  0  0  0  0  0  0
  3  1  1  0  0  0  0
  4  1  1  0  0  0  0
  5  9  1  0  0  0  0
  6  2  1  0  0  0  0
  7  3  1  0  0  0  0
  8  4  1  0  0  0  0
  9 13  1  0  0  0  0
 10  5  1  0  0  0  0
 11  5  1  0  0  0  0
 12  7  1  0  0  0  0
 13 12  2  0  0  0  0
 14  3  1  0  0  0  0
 15  6  1  0  0  0  0
 16  8  1  0  0  0  0
 17  7  2  0  0  0  0
 18 10  1  0  0  0  0
 19 11  1  0  0  0  0
 20 10  2  0  0  0  0
 21 11  2  0  0  0  0
 22 15  2  0  0  0  0
 23 16  2  0  0  0  0
 24 14  1  0  0  0  0
 25 24  1  0  0  0  0
 26 29  1  0  0  0  0
 27 15  1  0  0  0  0
 28 12  1  0  0  0  0
 29 28  2  0  0  0  0
 30 16  1  0  0  0  0
 31 25  1  0  0  0  0
 32 25  1  0  0  0  0
 33 27  1  0  0  0  0
  8  6  2  0  0  0  0
 22 23  1  0  0  0  0
  9 26  2  0  0  0  0
 19 18  1  0  0  0  0
  2  1  2  0  0  0  0
M  END
> <IDNUMBER>
F2018-2477

> <Chemical_Name>
N-[2-(dimethylamino)ethyl]-3-(2,5-dioxopyrrolidin-1-yl)-N-(4-methoxy-7-methyl-1,3-benzothiazol-2-yl)benzamide hydrochloride

> <CAS>
1135209-73-2

> <PriceCoeff>
1.00

> <MW>
466.55

> <Description>
solid

> <FSP3>
0.33

> <clogP>
1.93

> <TPSA>
111.29

> <Acceptor>
5

> <Donor>
1

> <RotBonds>
8

> <HAC>
33

> <Collection>
General

$$$$
F0327-0324
  -ISIS-  06222321452D

 28 31  0  0  0  0  0  0  0  0999 V2000
    4.4167    0.3500    0.0000 N   0  0  3  0  0  0  0  0  0  0  0  0
   -0.4000    1.1125    0.0000 C   0  0  0  0  0  0  0  0  0  0  0  0
   -0.9125    0.4000    0.0000 N   0  0  0  0  0  0  0  0  0  0  0  0
    0.4542    1.1125    0.0000 N   0  0  0  0  0  0  0  0  0  0  0  0
   -1.7458    0.6500    0.0000 C   0  0  0  0  0  0  0  0  0  0  0  0
    0.9000    0.3500    0.0000 C   0  0  0  0  0  0  0  0  0  0  0  0
    4.9042   -0.3667    0.0000 C   0  0  0  0  0  0  0  0  0  0  0  0
    4.9167    1.0125    0.0000 C   0  0  0  0  0  0  0  0  0  0  0  0
   -0.9000    1.8125    0.0000 S   0  0  0  0  0  0  0  0  0  0  0  0
   -1.7458    1.5500    0.0000 C   0  0  0  0  0  0  0  0  0  0  0  0
    3.5375    0.3500    0.0000 C   0  0  0  0  0  0  0  0  0  0  0  0
    1.7792    0.3500    0.0000 C   0  0  0  0  0  0  0  0  0  0  0  0
   -2.4208    0.1208    0.0000 C   0  0  0  0  0  0  0  0  0  0  0  0
    0.4542   -0.4042    0.0000 O   0  0  0  0  0  0  0  0  0  0  0  0
    5.7542   -0.1167    0.0000 C   0  0  0  0  0  0  0  0  0  0  0  0
    5.7500    0.7500    0.0000 C   0  0  0  0  0  0  0  0  0  0  0  0
    4.6000   -1.1875    0.0000 O   0  0  0  0  0  0  0  0  0  0  0  0
    4.6292    1.8625    0.0000 O   0  0  0  0  0  0  0  0  0  0  0  0
    3.1000    1.1125    0.0000 C   0  0  0  0  0  0  0  0  0  0  0  0
    3.1000   -0.4042    0.0000 C   0  0  0  0  0  0  0  0  0  0  0  0
    2.2167    1.1125    0.0000 C   0  0  0  0  0  0  0  0  0  0  0  0
    2.2167   -0.4042    0.0000 C   0  0  0  0  0  0  0  0  0  0  0  0
   -3.2458    0.4500    0.0000 C   0  0  0  0  0  0  0  0  0  0  0  0
   -2.3000   -0.7542    0.0000 C   0  0  0  0  0  0  0  0  0  0  0  0
   -3.8208   -0.9667    0.0000 C   0  0  0  0  0  0  0  0  0  0  0  0
   -2.9958   -1.3000    0.0000 C   0  0  0  0  0  0  0  0  0  0  0  0
   -3.9458   -0.0875    0.0000 C   0  0  0  0  0  0  0  0  0  0  0  0
   -4.5208   -1.5000    0.0000 Br  0  0  0  0  0  0  0  0  0  0  0  0
  2  4  1  0  0  0  0
  3  2  2  0  0  0  0
  4  6  1  0  0  0  0
  5  3  1  0  0  0  0
  6 12  1  0  0  0  0
  7  1  1  0  0  0  0
  8  1  1  0  0  0  0
  9  2  1  0  0  0  0
 10  9  1  0  0  0  0
 11  1  1  0  0  0  0
 12 22  2  0  0  0  0
 13  5  1  0  0  0  0
 14  6  2  0  0  0  0
 15  7  1  0  0  0  0
 16  8  1  0  0  0  0
 17  7  2  0  0  0  0
 18  8  2  0  0  0  0
 19 11  1  0  0  0  0
 20 11  2  0  0  0  0
 21 19  2  0  0  0  0
 22 20  1  0  0  0  0
 23 13  2  0  0  0  0
 24 13  1  0  0  0  0
 25 26  1  0  0  0  0
 26 24  2  0  0  0  0
 27 23  1  0  0  0  0
 28 25  1  0  0  0  0
 16 15  1  0  0  0  0
 21 12  1  0  0  0  0
  5 10  2  0  0  0  0
 25 27  2  0  0  0  0
M  END
> <IDNUMBER>
F0327-0324

> <Chemical_Name>
N-[4-(4-bromophenyl)-1,3-thiazol-2-yl]-4-(2,5-dioxopyrrolidin-1-yl)benzamide

> <CAS>
313405-87-7

> <PriceCoeff>
1.00

> <MW>
456.31

> <Description>
solid

> <FSP3>
0.10

> <clogP>
3.00

> <TPSA>
107.61

> <Acceptor>
4

> <Donor>
1

> <RotBonds>
4

> <HAC>
28

> <Collection>
General

$$$$
F2750-0071
  -ISIS-  06222321152D

 25 27  0  0  0  0  0  0  0  0999 V2000
   -2.3625    1.8083    0.0000 S   0  0  3  0  0  0  0  0  0  0  0  0
   -1.8750    2.4833    0.0000 N   0  0  3  0  0  0  0  0  0  0  0  0
   -2.5208    3.1125    0.0000 C   0  0  0  0  0  0  0  0  0  0  0  0
   -3.1583    2.8958    0.0000 C   0  0  0  0  0  0  0  0  0  0  0  0
   -3.1583    2.0583    0.0000 C   0  0  0  0  0  0  0  0  0  0  0  0
   -1.0708    3.0458    0.0000 C   0  0  3  0  0  0  0  0  0  0  0  0
   -0.3333    2.9083    0.0000 C   0  0  0  0  0  0  0  0  0  0  0  0
    0.1625    2.2458    0.0000 N   0  0  0  0  0  0  0  0  0  0  0  0
    0.9792    2.3375    0.0000 C   0  0  0  0  0  0  0  0  0  0  0  0
   -3.0583    1.2875    0.0000 O   0  0  0  0  0  0  0  0  0  0  0  0
   -2.0458    1.0333    0.0000 O   0  0  0  0  0  0  0  0  0  0  0  0
   -2.7083    3.8000    0.0000 O   0  0  0  0  0  0  0  0  0  0  0  0
    1.4750    1.6750    0.0000 C   0  0  0  0  0  0  0  0  0  0  0  0
    1.3167    3.1083    0.0000 C   0  0  0  0  0  0  0  0  0  0  0  0
   -0.2458    3.7375    0.0000 O   0  0  0  0  0  0  0  0  0  0  0  0
    2.1292    3.1958    0.0000 C   0  0  0  0  0  0  0  0  0  0  0  0
    2.2917    1.7708    0.0000 C   0  0  0  0  0  0  0  0  0  0  0  0
   -3.8750    3.3083    0.0000 C   0  0  0  0  0  0  0  0  0  0  0  0
    2.6292    2.5250    0.0000 C   0  0  0  0  0  0  0  0  0  0  0  0
   -1.7375    3.6750    0.0000 C   0  0  0  0  0  0  0  0  0  0  0  0
   -3.8750    1.6458    0.0000 C   0  0  0  0  0  0  0  0  0  0  0  0
    2.7917    1.1000    0.0000 Cl  0  0  0  0  0  0  0  0  0  0  0  0
    0.8250    3.7708    0.0000 O   0  0  0  0  0  0  0  0  0  0  0  0
   -4.5833    2.8958    0.0000 C   0  0  0  0  0  0  0  0  0  0  0  0
   -4.5833    2.0625    0.0000 C   0  0  0  0  0  0  0  0  0  0  0  0
  2  1  1  0  0  0  0
  3  2  1  0  0  0  0
  4  5  2  0  0  0  0
  5  1  1  0  0  0  0
  6  2  1  0  0  0  0
  7  6  1  0  0  0  0
  8  7  1  0  0  0  0
  9  8  1  0  0  0  0
 10  1  2  0  0  0  0
 11  1  2  0  0  0  0
 12  3  2  0  0  0  0
 13  9  2  0  0  0  0
 14  9  1  0  0  0  0
 15  7  2  0  0  0  0
 16 14  2  0  0  0  0
 17 13  1  0  0  0  0
 18  4  1  0  0  0  0
 19 16  1  0  0  0  0
 20  6  1  0  0  0  0
 21  5  1  0  0  0  0
 22 17  1  0  0  0  0
 23 14  1  0  0  0  0
 24 25  1  0  0  0  0
 25 21  2  0  0  0  0
  3  4  1  0  0  0  0
 24 18  2  0  0  0  0
 17 19  2  0  0  0  0
M  END
> <IDNUMBER>
F2750-0071

> <Chemical_Name>
N-(5-chloro-2-hydroxyphenyl)-2-(1,1,3-trioxo-2,3-dihydro-1lambda6,2-benzothiazol-2-yl)propanamide

> <CAS>
899955-50-1

> <PriceCoeff>
1.00

> <MW>
380.80

> <Description>
solid

> <FSP3>
0.12

> <clogP>
2.57

> <TPSA>
112.16

> <Acceptor>
5

> <Donor>
2

> <RotBonds>
3

> <HAC>
25

> <Collection>
General

$$$$
F3023-0302
  -ISIS-  06222321152D

 24 26  0  0  0  0  0  0  0  0999 V2000
    8.8500   -5.7750    0.0000 N   0  0  3  0  0  0  0  0  0  0  0  0
    9.2667   -5.1917    0.0000 C   0  0  0  0  0  0  0  0  0  0  0  0
    9.2750   -6.3542    0.0000 C   0  0  0  0  0  0  0  0  0  0  0  0
    9.9542   -6.1292    0.0000 C   0  0  3  0  0  0  0  0  0  0  0  0
    9.9542   -5.4125    0.0000 C   0  0  0  0  0  0  0  0  0  0  0  0
   11.1917   -6.2500    0.0000 C   0  0  0  0  0  0  0  0  0  0  0  0
   11.7667   -6.6667    0.0000 C   0  0  0  0  0  0  0  0  0  0  0  0
   10.5375   -6.5417    0.0000 S   0  0  0  0  0  0  0  0  0  0  0  0
   11.7000   -7.3875    0.0000 C   0  0  0  0  0  0  0  0  0  0  0  0
    8.1292   -5.7792    0.0000 C   0  0  0  0  0  0  0  0  0  0  0  0
   11.2542   -5.5417    0.0000 N   0  0  0  0  0  0  0  0  0  0  0  0
    9.0417   -4.5042    0.0000 O   0  0  0  0  0  0  0  0  0  0  0  0
    9.0542   -7.0375    0.0000 O   0  0  0  0  0  0  0  0  0  0  0  0
   12.2792   -7.8042    0.0000 O   0  0  0  0  0  0  0  0  0  0  0  0
    7.7750   -5.1625    0.0000 C   0  0  0  0  0  0  0  0  0  0  0  0
    7.7792   -6.4000    0.0000 C   0  0  0  0  0  0  0  0  0  0  0  0
   11.0417   -7.6792    0.0000 O   0  0  0  0  0  0  0  0  0  0  0  0
    6.7042   -5.7875    0.0000 C   0  0  0  0  0  0  0  0  0  0  0  0
    7.0667   -6.4042    0.0000 C   0  0  0  0  0  0  0  0  0  0  0  0
    7.0542   -5.1667    0.0000 C   0  0  0  0  0  0  0  0  0  0  0  0
   12.4250   -6.3750    0.0000 C   0  0  0  0  0  0  0  0  0  0  0  0
    5.9875   -5.7917    0.0000 O   0  0  0  0  0  0  0  0  0  0  0  0
   11.9042   -5.2417    0.0000 C   0  0  0  0  0  0  0  0  0  0  0  0
   12.4917   -5.6625    0.0000 C   0  0  0  0  0  0  0  0  0  0  0  0
  2  1  1  0  0  0  0
  3  1  1  0  0  0  0
  4  3  1  0  0  0  0
  5  2  1  0  0  0  0
  6  8  1  0  0  0  0
  7  6  2  0  0  0  0
  8  4  1  0  0  0  0
  9  7  1  0  0  0  0
 10  1  1  0  0  0  0
 11  6  1  0  0  0  0
 12  2  2  0  0  0  0
 13  3  2  0  0  0  0
 14  9  2  0  0  0  0
 15 10  2  0  0  0  0
 16 10  1  0  0  0  0
 17  9  1  0  0  0  0
 18 19  1  0  0  0  0
 19 16  2  0  0  0  0
 20 15  1  0  0  0  0
 21  7  1  0  0  0  0
 22 18  1  0  0  0  0
 23 11  2  0  0  0  0
 24 23  1  0  0  0  0
  5  4  1  0  0  0  0
 18 20  2  0  0  0  0
 24 21  2  0  0  0  0
M  END
> <IDNUMBER>
F3023-0302

> <Chemical_Name>
2-{[1-(4-hydroxyphenyl)-2,5-dioxopyrrolidin-3-yl]sulfanyl}pyridine-3-carboxylic acid

> <CAS>
924873-64-3

> <PriceCoeff>
1.00

> <MW>
344.34

> <Description>
solid

> <FSP3>
0.12

> <clogP>
0.84

> <TPSA>
133.10

> <Acceptor>
6

> <Donor>
2

> <RotBonds>
4

> <HAC>
24

> <Collection>
General

$$$$
F5460-1190
  -ISIS-  06222321152D

 29 32  0  0  0  0  0  0  0  0999 V2000
   -4.0208    5.4000    0.0000 N   0  0  3  0  0  0  0  0  0  0  0  0
   -4.7458    5.2417    0.0000 C   0  0  0  0  0  0  0  0  0  0  0  0
   -3.4375    4.9167    0.0000 C   0  0  0  0  0  0  0  0  0  0  0  0
   -5.2833    5.7750    0.0000 N   0  0  0  0  0  0  0  0  0  0  0  0
   -2.2625    2.6125    0.0000 N   0  0  3  0  0  0  0  0  0  0  0  0
   -3.7333    6.0917    0.0000 N   0  0  0  0  0  0  0  0  0  0  0  0
   -5.0833    4.5875    0.0000 S   0  0  0  0  0  0  0  0  0  0  0  0
   -2.8083    5.3292    0.0000 C   0  0  0  0  0  0  0  0  0  0  0  0
   -5.9458    5.4292    0.0000 C   0  0  0  0  0  0  0  0  0  0  0  0
   -3.4833    4.1667    0.0000 N   0  0  0  0  0  0  0  0  0  0  0  0
   -2.1458    1.8708    0.0000 C   0  0  0  0  0  0  0  0  0  0  0  0
   -1.5958    2.9583    0.0000 C   0  0  0  0  0  0  0  0  0  0  0  0
   -5.8125    4.6917    0.0000 C   0  0  0  0  0  0  0  0  0  0  0  0
   -2.9875    6.0417    0.0000 C   0  0  0  0  0  0  0  0  0  0  0  0
   -2.8583    3.7708    0.0000 C   0  0  0  0  0  0  0  0  0  0  0  0
   -2.8958    3.0208    0.0000 C   0  0  0  0  0  0  0  0  0  0  0  0
   -6.6417    5.6875    0.0000 C   0  0  0  0  0  0  0  0  0  0  0  0
   -1.0708    2.4250    0.0000 C   0  0  0  0  0  0  0  0  0  0  0  0
   -1.4083    1.7583    0.0000 C   0  0  0  0  0  0  0  0  0  0  0  0
   -1.4833    3.7083    0.0000 O   0  0  0  0  0  0  0  0  0  0  0  0
   -2.6625    1.3458    0.0000 O   0  0  0  0  0  0  0  0  0  0  0  0
   -2.1958    4.1042    0.0000 O   0  0  0  0  0  0  0  0  0  0  0  0
   -6.7667    6.4292    0.0000 O   0  0  0  0  0  0  0  0  0  0  0  0
   -6.3875    4.2167    0.0000 C   0  0  0  0  0  0  0  0  0  0  0  0
   -7.0875    4.4792    0.0000 C   0  0  0  0  0  0  0  0  0  0  0  0
   -2.5000    6.6167    0.0000 C   0  0  0  0  0  0  0  0  0  0  0  0
   -7.2167    5.2042    0.0000 C   0  0  0  0  0  0  0  0  0  0  0  0
   -6.1875    6.9042    0.0000 C   0  0  0  0  0  0  0  0  0  0  0  0
   -6.3042    7.6417    0.0000 C   0  0  0  0  0  0  0  0  0  0  0  0
  2  1  1  0  0  0  0
  3  1  1  0  0  0  0
  4  2  2  0  0  0  0
  5 16  1  0  0  0  0
  6  1  1  0  0  0  0
  7  2  1  0  0  0  0
  8  3  2  0  0  0  0
  9  4  1  0  0  0  0
 10  3  1  0  0  0  0
 11  5  1  0  0  0  0
 12  5  1  0  0  0  0
 13  7  1  0  0  0  0
 14  6  2  0  0  0  0
 15 10  1  0  0  0  0
 16 15  1  0  0  0  0
 17  9  1  0  0  0  0
 18 12  1  0  0  0  0
 19 11  1  0  0  0  0
 20 12  2  0  0  0  0
 21 11  2  0  0  0  0
 22 15  2  0  0  0  0
 23 17  1  0  0  0  0
 24 13  1  0  0  0  0
 25 24  2  0  0  0  0
 26 14  1  0  0  0  0
 27 17  2  0  0  0  0
 28 23  1  0  0  0  0
 29 28  1  0  0  0  0
 14  8  1  0  0  0  0
  9 13  2  0  0  0  0
 25 27  1  0  0  0  0
 18 19  1  0  0  0  0
M  END
> <IDNUMBER>
F5460-1190

> <Chemical_Name>
2-(2,5-dioxopyrrolidin-1-yl)-N-[1-(4-ethoxy-1,3-benzothiazol-2-yl)-3-methyl-1H-pyrazol-5-yl]acetamide

> <CAS>
1172804-94-2

> <PriceCoeff>
1.00

> <MW>
413.45

> <Description>
solid

> <FSP3>
0.32

> <clogP>
2.60

> <TPSA>
134.66

> <Acceptor>
6

> <Donor>
1

> <RotBonds>
6

> <HAC>
29

> <Collection>
General

$$$$
F2135-1746
  -ISIS-  06222321142D

 16 17  0  0  0  0  0  0  0  0999 V2000
    6.8750   -3.3167    0.0000 S   0  0  0  0  0  0  0  0  0  0  0  0
    6.0417   -3.3125    0.0000 C   0  0  0  0  0  0  0  0  0  0  0  0
    9.7667   -4.0542    0.0000 C   0  0  0  0  0  0  0  0  0  0  0  0
    4.3917   -3.2917    0.0000 C   0  0  0  0  0  0  0  0  0  0  0  0
    7.2792   -4.0375    0.0000 C   0  0  0  0  0  0  0  0  0  0  0  0
    8.1125   -4.0417    0.0000 C   0  0  0  0  0  0  0  0  0  0  0  0
   10.5917   -4.0667    0.0000 F   0  0  0  0  0  0  0  0  0  0  0  0
    3.5625   -3.2875    0.0000 Cl  0  0  0  0  0  0  0  0  0  0  0  0
    5.6292   -4.0167    0.0000 C   0  0  0  0  0  0  0  0  0  0  0  0
    5.6417   -2.5917    0.0000 C   0  0  0  0  0  0  0  0  0  0  0  0
    9.3417   -4.7750    0.0000 C   0  0  0  0  0  0  0  0  0  0  0  0
    4.8042   -4.0167    0.0000 C   0  0  0  0  0  0  0  0  0  0  0  0
    9.3542   -3.3375    0.0000 C   0  0  0  0  0  0  0  0  0  0  0  0
    4.8125   -2.5792    0.0000 C   0  0  0  0  0  0  0  0  0  0  0  0
    8.5250   -3.3292    0.0000 C   0  0  0  0  0  0  0  0  0  0  0  0
    8.5167   -4.7667    0.0000 C   0  0  0  0  0  0  0  0  0  0  0  0
  2  1  1  0  0  0  0
  3 11  2  0  0  0  0
  4 14  2  0  0  0  0
  5  1  1  0  0  0  0
  6  5  1  0  0  0  0
  7  3  1  0  0  0  0
  8  4  1  0  0  0  0
  9  2  1  0  0  0  0
 10  2  2  0  0  0  0
 11 16  1  0  0  0  0
 12  9  2  0  0  0  0
 13 15  2  0  0  0  0
 14 10  1  0  0  0  0
 15  6  1  0  0  0  0
 16  6  2  0  0  0  0
 12  4  1  0  0  0  0
 13  3  1  0  0  0  0
M  END
> <IDNUMBER>
F2135-1746

> <Chemical_Name>
1-chloro-4-{[(4-fluorophenyl)methyl]sulfanyl}benzene

> <CAS>
332-05-8

> <PriceCoeff>
1.00

> <MW>
252.73

> <Description>
solid

> <FSP3>
0.08

> <clogP>
5.18

> <TPSA>
0.00

> <Acceptor>
0

> <Donor>
0

> <RotBonds>
3

> <HAC>
16

> <Collection>
General

> <Reference_compound>
PRI1967

> <Similarity>
0.8350

$$$$
F3023-0613
  -ISIS-  06222321462D

 24 26  0  0  0  0  0  0  0  0999 V2000
    5.1125   -5.9667    0.0000 N   0  0  3  0  0  0  0  0  0  0  0  0
    5.5917   -5.2917    0.0000 C   0  0  0  0  0  0  0  0  0  0  0  0
    5.6042   -6.6292    0.0000 C   0  0  0  0  0  0  0  0  0  0  0  0
    6.3875   -6.3667    0.0000 C   0  0  3  0  0  0  0  0  0  0  0  0
    6.3792   -5.5417    0.0000 C   0  0  0  0  0  0  0  0  0  0  0  0
    7.8042   -6.5167    0.0000 C   0  0  0  0  0  0  0  0  0  0  0  0
    8.4750   -7.0000    0.0000 C   0  0  0  0  0  0  0  0  0  0  0  0
    7.0542   -6.8542    0.0000 S   0  0  0  0  0  0  0  0  0  0  0  0
    8.3917   -7.8167    0.0000 C   0  0  0  0  0  0  0  0  0  0  0  0
    4.2875   -5.9667    0.0000 C   0  0  0  0  0  0  0  0  0  0  0  0
    7.8875   -5.7000    0.0000 N   0  0  0  0  0  0  0  0  0  0  0  0
    5.3375   -4.5042    0.0000 O   0  0  0  0  0  0  0  0  0  0  0  0
    5.3500   -7.4167    0.0000 O   0  0  0  0  0  0  0  0  0  0  0  0
    9.0542   -8.3042    0.0000 O   0  0  0  0  0  0  0  0  0  0  0  0
    3.8750   -5.2542    0.0000 C   0  0  0  0  0  0  0  0  0  0  0  0
    3.8792   -6.6875    0.0000 C   0  0  0  0  0  0  0  0  0  0  0  0
    7.6375   -8.1542    0.0000 O   0  0  0  0  0  0  0  0  0  0  0  0
    2.6417   -5.9792    0.0000 C   0  0  0  0  0  0  0  0  0  0  0  0
    3.0625   -6.6917    0.0000 C   0  0  0  0  0  0  0  0  0  0  0  0
    3.0500   -5.2625    0.0000 C   0  0  0  0  0  0  0  0  0  0  0  0
    1.8167   -5.9792    0.0000 Cl  0  0  0  0  0  0  0  0  0  0  0  0
    9.2250   -6.6625    0.0000 C   0  0  0  0  0  0  0  0  0  0  0  0
    8.6292   -5.3542    0.0000 C   0  0  0  0  0  0  0  0  0  0  0  0
    9.3042   -5.8375    0.0000 C   0  0  0  0  0  0  0  0  0  0  0  0
  2  1  1  0  0  0  0
  3  1  1  0  0  0  0
  4  3  1  0  0  0  0
  5  2  1  0  0  0  0
  6  8  1  0  0  0  0
  7  6  2  0  0  0  0
  8  4  1  0  0  0  0
  9  7  1  0  0  0  0
 10  1  1  0  0  0  0
 11  6  1  0  0  0  0
 12  2  2  0  0  0  0
 13  3  2  0  0  0  0
 14  9  2  0  0  0  0
 15 10  2  0  0  0  0
 16 10  1  0  0  0  0
 17  9  1  0  0  0  0
 18 19  1  0  0  0  0
 19 16  2  0  0  0  0
 20 15  1  0  0  0  0
 21 18  1  0  0  0  0
 22  7  1  0  0  0  0
 23 11  2  0  0  0  0
 24 23  1  0  0  0  0
  5  4  1  0  0  0  0
 18 20  2  0  0  0  0
 24 22  2  0  0  0  0
M  END
> <IDNUMBER>
F3023-0613

> <Chemical_Name>
2-{[1-(4-chlorophenyl)-2,5-dioxopyrrolidin-3-yl]sulfanyl}pyridine-3-carboxylic acid

> <CAS>
838890-59-8

> <PriceCoeff>
1.00

> <MW>
362.79

> <Description>
solid

> <FSP3>
0.12

> <clogP>
2.50

> <TPSA>
112.87

> <Acceptor>
5

> <Donor>
1

> <RotBonds>
4

> <HAC>
24

> <Collection>
General

$$$$
F2710-0582
  -ISIS-  06222321152D

 30 33  0  0  0  0  0  0  0  0999 V2000
   -2.0083    2.1083    0.0000 C   0  0  0  0  0  0  0  0  0  0  0  0
   -2.2333    1.3958    0.0000 N   0  0  0  0  0  0  0  0  0  0  0  0
   -0.2750    4.0417    0.0000 N   0  0  3  0  0  0  0  0  0  0  0  0
   -1.2833    2.3458    0.0000 N   0  0  3  0  0  0  0  0  0  0  0  0
   -2.5958    2.5500    0.0000 S   0  0  0  0  0  0  0  0  0  0  0  0
   -2.9750    1.4000    0.0000 C   0  0  0  0  0  0  0  0  0  0  0  0
   -3.2083    2.1125    0.0000 C   0  0  0  0  0  0  0  0  0  0  0  0
   -1.1333    3.0833    0.0000 C   0  0  0  0  0  0  0  0  0  0  0  0
   -0.4250    3.3208    0.0000 C   0  0  0  0  0  0  0  0  0  0  0  0
   -0.8333    4.5417    0.0000 C   0  0  0  0  0  0  0  0  0  0  0  0
    0.3667    4.4292    0.0000 C   0  0  0  0  0  0  0  0  0  0  0  0
   -0.7250    1.8458    0.0000 C   0  0  0  0  0  0  0  0  0  0  0  0
   -3.9375    2.2750    0.0000 C   0  0  0  0  0  0  0  0  0  0  0  0
   -3.4833    0.8458    0.0000 C   0  0  0  0  0  0  0  0  0  0  0  0
   -1.6958    3.5833    0.0000 O   0  0  0  0  0  0  0  0  0  0  0  0
   -0.5333    5.2167    0.0000 C   0  0  0  0  0  0  0  0  0  0  0  0
    0.2042    5.1542    0.0000 C   0  0  0  0  0  0  0  0  0  0  0  0
   -1.5708    4.3917    0.0000 O   0  0  0  0  0  0  0  0  0  0  0  0
    1.0625    4.1292    0.0000 O   0  0  0  0  0  0  0  0  0  0  0  0
   -1.7333    0.1458    0.0000 N   0  0  0  0  0  0  0  0  0  0  0  0
   -0.8750    1.1125    0.0000 C   0  0  0  0  0  0  0  0  0  0  0  0
   -4.4458    1.7208    0.0000 C   0  0  0  0  0  0  0  0  0  0  0  0
   -4.2208    1.0083    0.0000 C   0  0  0  0  0  0  0  0  0  0  0  0
   -4.1625    2.9958    0.0000 Cl  0  0  0  0  0  0  0  0  0  0  0  0
   -3.2583    0.1250    0.0000 O   0  0  0  0  0  0  0  0  0  0  0  0
   -1.5833    0.8750    0.0000 C   0  0  0  0  0  0  0  0  0  0  0  0
   -1.1750   -0.3500    0.0000 C   0  0  0  0  0  0  0  0  0  0  0  0
   -0.3208    0.6208    0.0000 C   0  0  0  0  0  0  0  0  0  0  0  0
   -3.7708   -0.4250    0.0000 C   0  0  0  0  0  0  0  0  0  0  0  0
   -0.4708   -0.1125    0.0000 C   0  0  0  0  0  0  0  0  0  0  0  0
  2  1  2  0  0  0  0
  3  9  1  0  0  0  0
  4  1  1  0  0  0  0
  5  1  1  0  0  0  0
  6  2  1  0  0  0  0
  7  5  1  0  0  0  0
  8  4  1  0  0  0  0
  9  8  1  0  0  0  0
 10  3  1  0  0  0  0
 11  3  1  0  0  0  0
 12  4  1  0  0  0  0
 13  7  1  0  0  0  0
 14  6  1  0  0  0  0
 15  8  2  0  0  0  0
 16 10  1  0  0  0  0
 17 11  1  0  0  0  0
 18 10  2  0  0  0  0
 19 11  2  0  0  0  0
 20 26  1  0  0  0  0
 21 12  1  0  0  0  0
 22 13  2  0  0  0  0
 23 14  2  0  0  0  0
 24 13  1  0  0  0  0
 25 14  1  0  0  0  0
 26 21  2  0  0  0  0
 27 30  1  0  0  0  0
 28 21  1  0  0  0  0
 29 25  1  0  0  0  0
 30 28  2  0  0  0  0
  7  6  2  0  0  0  0
 23 22  1  0  0  0  0
 27 20  2  0  0  0  0
 17 16  1  0  0  0  0
M  END
> <IDNUMBER>
F2710-0582

> <Chemical_Name>
N-(7-chloro-4-methoxy-1,3-benzothiazol-2-yl)-2-(2,5-dioxopyrrolidin-1-yl)-N-[(pyridin-3-yl)methyl]acetamide

> <CAS>
886965-55-5

> <PriceCoeff>
1.00

> <MW>
444.89

> <Description>
solid

> <FSP3>
0.25

> <clogP>
1.98

> <TPSA>
120.94

> <Acceptor>
6

> <Donor>
1

> <RotBonds>
7

> <HAC>
30

> <Collection>
General

$$$$
F2756-0879
  -ISIS-  06222304352D

 36 39  0  0  0  0  0  0  0  0999 V2000
   -3.1583    5.0292    0.0000 C   0  0  0  0  0  0  0  0  0  0  0  0
   -3.1583    4.2042    0.0000 N   0  0  3  0  0  0  0  0  0  0  0  0
   -3.8250    5.5167    0.0000 N   0  0  0  0  0  0  0  0  0  0  0  0
   -3.8833    0.5125    0.0000 N   0  0  3  0  0  0  0  0  0  0  0  0
   -2.4958    5.5167    0.0000 S   0  0  0  0  0  0  0  0  0  0  0  0
   -3.8708    3.8000    0.0000 C   0  0  0  0  0  0  0  0  0  0  0  0
   -4.5083    0.0083    0.0000 C   0  0  0  0  0  0  0  0  0  0  0  0
   -3.1958    0.0583    0.0000 C   0  0  0  0  0  0  0  0  0  0  0  0
   -2.7500    6.3000    0.0000 C   0  0  0  0  0  0  0  0  0  0  0  0
   -3.5750    6.3000    0.0000 C   0  0  0  0  0  0  0  0  0  0  0  0
   -2.4458    3.8000    0.0000 C   0  0  0  0  0  0  0  0  0  0  0  0
   -3.8750    1.3375    0.0000 C   0  0  0  0  0  0  0  0  0  0  0  0
   -3.8708    2.9833    0.0000 C   0  0  0  0  0  0  0  0  0  0  0  0
   -1.7333    2.5583    0.0000 N   0  0  3  0  0  0  0  0  0  0  0  0
   -4.5833    4.2042    0.0000 O   0  0  0  0  0  0  0  0  0  0  0  0
   -2.3375    7.0125    0.0000 C   0  0  0  0  0  0  0  0  0  0  0  0
   -4.2333   -0.7625    0.0000 C   0  0  0  0  0  0  0  0  0  0  0  0
   -3.4208   -0.7375    0.0000 C   0  0  0  0  0  0  0  0  0  0  0  0
   -5.3083    0.2333    0.0000 O   0  0  0  0  0  0  0  0  0  0  0  0
   -2.4083    0.3375    0.0000 O   0  0  0  0  0  0  0  0  0  0  0  0
   -3.9833    7.0125    0.0000 C   0  0  0  0  0  0  0  0  0  0  0  0
   -3.1500    1.7458    0.0000 C   0  0  0  0  0  0  0  0  0  0  0  0
   -4.5833    1.7500    0.0000 C   0  0  0  0  0  0  0  0  0  0  0  0
   -2.4458    2.9708    0.0000 C   0  0  0  0  0  0  0  0  0  0  0  0
   -4.5708    2.5833    0.0000 C   0  0  0  0  0  0  0  0  0  0  0  0
   -3.1458    2.5708    0.0000 C   0  0  0  0  0  0  0  0  0  0  0  0
   -0.3083    1.7333    0.0000 O   0  0  0  0  0  0  0  0  0  0  0  0
   -2.7500    7.7292    0.0000 C   0  0  0  0  0  0  0  0  0  0  0  0
   -3.5708    7.7167    0.0000 C   0  0  0  0  0  0  0  0  0  0  0  0
   -1.0208    2.9833    0.0000 C   0  0  0  0  0  0  0  0  0  0  0  0
   -1.7333    1.7375    0.0000 C   0  0  0  0  0  0  0  0  0  0  0  0
   -1.0208    1.3250    0.0000 C   0  0  0  0  0  0  0  0  0  0  0  0
   -0.3083    2.5625    0.0000 C   0  0  0  0  0  0  0  0  0  0  0  0
   -2.3458    8.4542    0.0000 C   0  0  0  0  0  0  0  0  0  0  0  0
   -1.5208    8.4667    0.0000 C   0  0  0  0  0  0  0  0  0  0  0  0
    1.2084    3.9458    0.0000 Cl  0  0  0  0  0  0  0  0  0  0  0  0
  3  1  2  0  0  0  0
  4 12  1  0  0  0  0
  5  1  1  0  0  0  0
  6  2  1  0  0  0  0
  7  4  1  0  0  0  0
  8  4  1  0  0  0  0
  9  5  1  0  0  0  0
 10  3  1  0  0  0  0
 11  2  1  0  0  0  0
 12 22  1  0  0  0  0
 13  6  1  0  0  0  0
 14 24  1  0  0  0  0
 15  6  2  0  0  0  0
 16  9  1  0  0  0  0
 17  7  1  0  0  0  0
 18  8  1  0  0  0  0
 19  7  2  0  0  0  0
 20  8  2  0  0  0  0
 21 10  1  0  0  0  0
 22 26  2  0  0  0  0
 23 25  1  0  0  0  0
 24 11  1  0  0  0  0
 25 13  2  0  0  0  0
 26 13  1  0  0  0  0
 27 32  1  0  0  0  0
 28 16  2  0  0  0  0
 29 21  2  0  0  0  0
 30 14  1  0  0  0  0
 31 14  1  0  0  0  0
 32 31  1  0  0  0  0
 33 30  1  0  0  0  0
 34 28  1  0  0  0  0
 35 34  1  0  0  0  0
  9 10  2  0  0  0  0
 29 28  1  0  0  0  0
 12 23  2  0  0  0  0
 27 33  1  0  0  0  0
 18 17  1  0  0  0  0
  2  1  1  0  0  0  0
M  END
> <IDNUMBER>
F2756-0879

> <Chemical_Name>
4-(2,5-dioxopyrrolidin-1-yl)-N-(6-ethyl-1,3-benzothiazol-2-yl)-N-[2-(morpholin-4-yl)ethyl]benzamide hydrochloride

> <CAS>
1330285-94-3

> <PriceCoeff>
1.00

> <MW>
492.59

> <Description>
solid

> <FSP3>
0.38

> <clogP>
2.13

> <TPSA>
111.29

> <Acceptor>
5

> <Donor>
1

> <RotBonds>
8

> <HAC>
35

> <Collection>
General

$$$$
F2189-0245
  -ISIS-  06222321462D

 21 23  0  0  0  0  0  0  0  0999 V2000
    6.4375   -3.7167    0.0000 N   0  0  3  0  0  0  0  0  0  0  0  0
    5.6667   -3.4167    0.0000 C   0  0  0  0  0  0  0  0  0  0  0  0
    7.1375   -3.2667    0.0000 C   0  0  3  0  0  0  0  0  0  0  0  0
    6.4042   -4.5167    0.0000 C   0  0  0  0  0  0  0  0  0  0  0  0
    7.0917   -2.4417    0.0000 C   0  0  0  0  0  0  0  0  0  0  0  0
    5.1542   -4.0625    0.0000 C   0  0  0  0  0  0  0  0  0  0  0  0
    7.0292   -0.7792    0.0000 C   0  0  0  0  0  0  0  0  0  0  0  0
    7.0125    0.0458    0.0000 N   0  0  3  0  0  0  0  0  0  0  0  0
    5.6125   -4.7500    0.0000 C   0  0  0  0  0  0  0  0  0  0  0  0
    6.3625   -2.0625    0.0000 C   0  0  0  0  0  0  0  0  0  0  0  0
    7.7875   -1.9917    0.0000 C   0  0  0  0  0  0  0  0  0  0  0  0
    6.3167   -1.2292    0.0000 C   0  0  0  0  0  0  0  0  0  0  0  0
    7.7500   -1.1667    0.0000 C   0  0  0  0  0  0  0  0  0  0  0  0
    8.5625   -3.1917    0.0000 N   0  0  0  0  0  0  0  0  0  0  0  0
    7.8667   -3.6417    0.0000 C   0  0  0  0  0  0  0  0  0  0  0  0
    5.3625   -2.6542    0.0000 C   0  0  0  0  0  0  0  0  0  0  0  0
    7.7167    0.4708    0.0000 C   0  0  0  0  0  0  0  0  0  0  0  0
    6.2875    0.4500    0.0000 C   0  0  0  0  0  0  0  0  0  0  0  0
    4.3375   -3.9417    0.0000 C   0  0  0  0  0  0  0  0  0  0  0  0
    4.5417   -2.5292    0.0000 C   0  0  0  0  0  0  0  0  0  0  0  0
    4.0292   -3.1750    0.0000 C   0  0  0  0  0  0  0  0  0  0  0  0
  2  1  1  0  0  0  0
  3  1  1  0  0  0  0
  4  1  1  0  0  0  0
  5  3  1  0  0  0  0
  6  2  2  0  0  0  0
  7 13  1  0  0  0  0
  8  7  1  0  0  0  0
  9  4  1  0  0  0  0
 10  5  2  0  0  0  0
 11  5  1  0  0  0  0
 12 10  1  0  0  0  0
 13 11  2  0  0  0  0
 14 15  1  0  0  0  0
 15  3  1  0  0  0  0
 16  2  1  0  0  0  0
 17  8  1  0  0  0  0
 18  8  1  0  0  0  0
 19  6  1  0  0  0  0
 20 16  2  0  0  0  0
 21 20  1  0  0  0  0
  9  6  1  0  0  0  0
 12  7  2  0  0  0  0
 19 21  2  0  0  0  0
M  END
> <IDNUMBER>
F2189-0245

> <Chemical_Name>
4-[2-amino-1-(2,3-dihydro-1H-indol-1-yl)ethyl]-N,N-dimethylaniline

> <CAS>
954568-18-4

> <PriceCoeff>
1.00

> <MW>
281.40

> <Description>
solid

> <FSP3>
0.33

> <clogP>
3.48

> <TPSA>
32.50

> <Acceptor>
2

> <Donor>
3

> <RotBonds>
4

> <HAC>
21

> <Collection>
General

> <Reference_compound>
CHEMBL6437

> <Similarity>
0.8040

$$$$
F3385-2010
  -ISIS-  06222321462D

 24 26  0  0  0  0  0  0  0  0999 V2000
    5.3125   -2.3625    0.0000 C   0  0  0  0  0  0  0  0  0  0  0  0
    3.8667   -1.5375    0.0000 C   0  0  0  0  0  0  0  0  0  0  0  0
    3.8750   -2.3667    0.0000 C   0  0  0  0  0  0  0  0  0  0  0  0
    4.5917   -2.7792    0.0000 C   0  0  0  0  0  0  0  0  0  0  0  0
    3.1542   -1.1250    0.0000 C   0  0  0  0  0  0  0  0  0  0  0  0
    4.5792   -1.1125    0.0000 O   0  0  0  0  0  0  0  0  0  0  0  0
    5.3042   -1.5292    0.0000 C   0  0  0  0  0  0  0  0  0  0  0  0
    3.1542   -2.7792    0.0000 C   0  0  0  0  0  0  0  0  0  0  0  0
    6.0292   -2.7750    0.0000 C   0  0  0  0  0  0  0  0  0  0  0  0
    2.4417   -1.5375    0.0000 C   0  0  0  0  0  0  0  0  0  0  0  0
    3.1500   -0.3000    0.0000 C   0  0  0  0  0  0  0  0  0  0  0  0
    4.5917   -3.6042    0.0000 O   0  0  0  0  0  0  0  0  0  0  0  0
    2.4417   -2.3667    0.0000 C   0  0  0  0  0  0  0  0  0  0  0  0
    6.7375   -2.3542    0.0000 C   0  0  0  0  0  0  0  0  0  0  0  0
    6.0250   -3.6000    0.0000 C   0  0  0  0  0  0  0  0  0  0  0  0
    3.8667    0.1125    0.0000 N   0  0  3  0  0  0  0  0  0  0  0  0
    7.4542   -3.5917    0.0000 C   0  0  0  0  0  0  0  0  0  0  0  0
    7.4500   -2.7667    0.0000 C   0  0  0  0  0  0  0  0  0  0  0  0
    6.7417   -4.0042    0.0000 C   0  0  0  0  0  0  0  0  0  0  0  0
    1.7292   -1.1292    0.0000 O   0  0  0  0  0  0  0  0  0  0  0  0
    8.1667   -4.0042    0.0000 O   0  0  0  0  0  0  0  0  0  0  0  0
    4.5792   -0.2917    0.0000 C   0  0  0  0  0  0  0  0  0  0  0  0
    3.8625    0.9375    0.0000 C   0  0  0  0  0  0  0  0  0  0  0  0
    8.8792   -3.5875    0.0000 C   0  0  0  0  0  0  0  0  0  0  0  0
  2  6  1  0  0  0  0
  3  4  1  0  0  0  0
  4  1  1  0  0  0  0
  5  2  2  0  0  0  0
  6  7  1  0  0  0  0
  7  1  2  0  0  0  0
  8  3  2  0  0  0  0
  9  1  1  0  0  0  0
 10  5  1  0  0  0  0
 11  5  1  0  0  0  0
 12  4  2  0  0  0  0
 13  8  1  0  0  0  0
 14  9  1  0  0  0  0
 15  9  2  0  0  0  0
 16 11  1  0  0  0  0
 17 19  2  0  0  0  0
 18 14  2  0  0  0  0
 19 15  1  0  0  0  0
 20 10  1  0  0  0  0
 21 17  1  0  0  0  0
 22 16  1  0  0  0  0
 23 16  1  0  0  0  0
 24 21  1  0  0  0  0
  2  3  1  0  0  0  0
 18 17  1  0  0  0  0
 10 13  2  0  0  0  0
M  END
> <IDNUMBER>
F3385-2010

> <Chemical_Name>
8-[(dimethylamino)methyl]-7-hydroxy-3-(4-methoxyphenyl)-4H-chromen-4-one

> <CAS>
858766-37-7

> <PriceCoeff>
1.00

> <MW>
325.36

> <Description>
solid

> <FSP3>
0.21

> <clogP>
2.43

> <TPSA>
59.00

> <Acceptor>
4

> <Donor>
2

> <RotBonds>
4

> <HAC>
24

> <Collection>
General

> <Reference_compound>
CHEMBL44

> <Similarity>
0.8410

$$$$
F2515-2511
  -ISIS-  06222321142D

 30 33  0  0  0  0  0  0  0  0999 V2000
   -4.5625    2.1500    0.0000 C   0  0  0  0  0  0  0  0  0  0  0  0
   -4.6583    1.3333    0.0000 N   0  0  0  0  0  0  0  0  0  0  0  0
   -3.1333    4.6292    0.0000 N   0  0  3  0  0  0  0  0  0  0  0  0
   -3.8458    2.5583    0.0000 N   0  0  3  0  0  0  0  0  0  0  0  0
   -5.3208    2.4875    0.0000 S   0  0  0  0  0  0  0  0  0  0  0  0
   -5.4583    1.1583    0.0000 C   0  0  0  0  0  0  0  0  0  0  0  0
   -5.8750    1.8708    0.0000 C   0  0  0  0  0  0  0  0  0  0  0  0
   -3.8458    3.3958    0.0000 C   0  0  0  0  0  0  0  0  0  0  0  0
   -3.1333    3.8000    0.0000 C   0  0  0  0  0  0  0  0  0  0  0  0
   -3.8000    5.1042    0.0000 C   0  0  0  0  0  0  0  0  0  0  0  0
   -2.4625    5.1042    0.0000 C   0  0  0  0  0  0  0  0  0  0  0  0
   -3.1333    2.1458    0.0000 C   0  0  0  0  0  0  0  0  0  0  0  0
   -5.8708    0.4458    0.0000 C   0  0  0  0  0  0  0  0  0  0  0  0
   -6.6917    1.8708    0.0000 C   0  0  0  0  0  0  0  0  0  0  0  0
   -4.5625    3.8000    0.0000 O   0  0  0  0  0  0  0  0  0  0  0  0
   -3.5458    5.8917    0.0000 C   0  0  0  0  0  0  0  0  0  0  0  0
   -2.7208    5.8917    0.0000 C   0  0  0  0  0  0  0  0  0  0  0  0
   -4.5833    4.8667    0.0000 O   0  0  0  0  0  0  0  0  0  0  0  0
   -1.6750    4.8417    0.0000 O   0  0  0  0  0  0  0  0  0  0  0  0
   -2.4208    0.0833    0.0000 N   0  0  0  0  0  0  0  0  0  0  0  0
   -3.1333    1.3208    0.0000 C   0  0  0  0  0  0  0  0  0  0  0  0
   -6.6792    0.4458    0.0000 C   0  0  0  0  0  0  0  0  0  0  0  0
   -7.1042    1.1500    0.0000 C   0  0  0  0  0  0  0  0  0  0  0  0
   -5.4583   -0.2667    0.0000 O   0  0  0  0  0  0  0  0  0  0  0  0
   -2.4208    0.9083    0.0000 C   0  0  0  0  0  0  0  0  0  0  0  0
   -3.1333   -0.3292    0.0000 C   0  0  0  0  0  0  0  0  0  0  0  0
   -7.1042    2.5833    0.0000 C   0  0  0  0  0  0  0  0  0  0  0  0
   -3.8500    0.9083    0.0000 C   0  0  0  0  0  0  0  0  0  0  0  0
   -4.6333   -0.2625    0.0000 C   0  0  0  0  0  0  0  0  0  0  0  0
   -3.8500    0.0833    0.0000 C   0  0  0  0  0  0  0  0  0  0  0  0
  2  1  2  0  0  0  0
  3  9  1  0  0  0  0
  4  1  1  0  0  0  0
  5  1  1  0  0  0  0
  6  2  1  0  0  0  0
  7  5  1  0  0  0  0
  8  4  1  0  0  0  0
  9  8  1  0  0  0  0
 10  3  1  0  0  0  0
 11  3  1  0  0  0  0
 12  4  1  0  0  0  0
 13  6  1  0  0  0  0
 14  7  1  0  0  0  0
 15  8  2  0  0  0  0
 16 10  1  0  0  0  0
 17 11  1  0  0  0  0
 18 10  2  0  0  0  0
 19 11  2  0  0  0  0
 20 25  2  0  0  0  0
 21 12  1  0  0  0  0
 22 13  2  0  0  0  0
 23 14  2  0  0  0  0
 24 13  1  0  0  0  0
 25 21  1  0  0  0  0
 26 30  2  0  0  0  0
 27 14  1  0  0  0  0
 28 21  2  0  0  0  0
 29 24  1  0  0  0  0
 30 28  1  0  0  0  0
  7  6  2  0  0  0  0
 22 23  1  0  0  0  0
 20 26  1  0  0  0  0
 16 17  1  0  0  0  0
M  END
> <IDNUMBER>
F2515-2511

> <Chemical_Name>
2-(2,5-dioxopyrrolidin-1-yl)-N-(4-methoxy-7-methyl-1,3-benzothiazol-2-yl)-N-[(pyridin-3-yl)methyl]acetamide

> <CAS>
895428-47-4

> <PriceCoeff>
1.00

> <MW>
424.47

> <Description>
solid

> <FSP3>
0.29

> <clogP>
1.76

> <TPSA>
120.94

> <Acceptor>
6

> <Donor>
1

> <RotBonds>
7

> <HAC>
30

> <Collection>
General

$$$$
F3385-4424
  -ISIS-  06222321152D

 22 24  0  0  0  0  0  0  0  0999 V2000
    5.5417   -1.1042    0.0000 C   0  0  0  0  0  0  0  0  0  0  0  0
    4.8292   -1.5292    0.0000 C   0  0  0  0  0  0  0  0  0  0  0  0
    6.2667   -1.5292    0.0000 C   0  0  0  0  0  0  0  0  0  0  0  0
    4.8250   -2.3625    0.0000 C   0  0  0  0  0  0  0  0  0  0  0  0
    6.2667   -2.3625    0.0000 C   0  0  0  0  0  0  0  0  0  0  0  0
    4.1125   -1.1167    0.0000 C   0  0  0  0  0  0  0  0  0  0  0  0
    5.5417   -2.7750    0.0000 O   0  0  0  0  0  0  0  0  0  0  0  0
    4.1125   -2.7667    0.0000 C   0  0  0  0  0  0  0  0  0  0  0  0
    3.4000   -1.5292    0.0000 C   0  0  0  0  0  0  0  0  0  0  0  0
    6.9792   -1.1167    0.0000 C   0  0  0  0  0  0  0  0  0  0  0  0
    5.5417   -0.2792    0.0000 O   0  0  0  0  0  0  0  0  0  0  0  0
    3.4000   -2.3542    0.0000 C   0  0  0  0  0  0  0  0  0  0  0  0
    7.6917   -1.5375    0.0000 C   0  0  0  0  0  0  0  0  0  0  0  0
    6.9792   -0.3000    0.0000 C   0  0  0  0  0  0  0  0  0  0  0  0
    4.1042   -0.2917    0.0000 O   0  0  0  0  0  0  0  0  0  0  0  0
    8.4125   -0.3000    0.0000 C   0  0  0  0  0  0  0  0  0  0  0  0
    7.6917    0.1125    0.0000 C   0  0  0  0  0  0  0  0  0  0  0  0
    8.4042   -1.1292    0.0000 C   0  0  0  0  0  0  0  0  0  0  0  0
    2.6875   -2.7667    0.0000 O   0  0  0  0  0  0  0  0  0  0  0  0
    9.1292    0.1083    0.0000 O   0  0  0  0  0  0  0  0  0  0  0  0
    3.3917    0.1208    0.0000 C   0  0  0  0  0  0  0  0  0  0  0  0
    1.9750   -2.3500    0.0000 C   0  0  0  0  0  0  0  0  0  0  0  0
  2  1  1  0  0  0  0
  3  1  1  0  0  0  0
  4  2  1  0  0  0  0
  5  3  2  0  0  0  0
  6  2  2  0  0  0  0
  7  5  1  0  0  0  0
  8  4  2  0  0  0  0
  9  6  1  0  0  0  0
 10  3  1  0  0  0  0
 11  1  2  0  0  0  0
 12  9  2  0  0  0  0
 13 10  2  0  0  0  0
 14 10  1  0  0  0  0
 15  6  1  0  0  0  0
 16 17  1  0  0  0  0
 17 14  2  0  0  0  0
 18 13  1  0  0  0  0
 19 12  1  0  0  0  0
 20 16  1  0  0  0  0
 21 15  1  0  0  0  0
 22 19  1  0  0  0  0
  7  4  1  0  0  0  0
 16 18  2  0  0  0  0
  8 12  1  0  0  0  0
M  END
> <IDNUMBER>
F3385-4424

> <Chemical_Name>
3-(4-hydroxyphenyl)-5,7-dimethoxy-4H-chromen-4-one

> <CAS>
69127-80-6

> <PriceCoeff>
1.00

> <MW>
298.29

> <Description>
solid

> <FSP3>
0.12

> <clogP>
2.46

> <TPSA>
64.99

> <Acceptor>
5

> <Donor>
1

> <RotBonds>
3

> <HAC>
22

> <Collection>
General

> <Reference_compound>
CHEMBL44

> <Similarity>
0.9940

$$$$
F2736-1881
  -ISIS-  06222304352D

 36 39  0  0  0  0  0  0  0  0999 V2000
   -2.4333    3.7958    0.0000 C   0  0  0  0  0  0  0  0  0  0  0  0
   -3.1583    4.2042    0.0000 N   0  0  3  0  0  0  0  0  0  0  0  0
   -1.6833    4.1417    0.0000 N   0  0  0  0  0  0  0  0  0  0  0  0
   -3.8833    0.5125    0.0000 N   0  0  3  0  0  0  0  0  0  0  0  0
   -2.3500    2.9833    0.0000 S   0  0  0  0  0  0  0  0  0  0  0  0
   -3.8708    3.8000    0.0000 C   0  0  0  0  0  0  0  0  0  0  0  0
   -1.5333    2.8083    0.0000 C   0  0  0  0  0  0  0  0  0  0  0  0
   -4.5083    0.0083    0.0000 C   0  0  0  0  0  0  0  0  0  0  0  0
   -3.1958    0.0583    0.0000 C   0  0  0  0  0  0  0  0  0  0  0  0
   -1.1208    3.5333    0.0000 C   0  0  0  0  0  0  0  0  0  0  0  0
   -3.8750    1.3375    0.0000 C   0  0  0  0  0  0  0  0  0  0  0  0
   -1.1125    2.0875    0.0000 C   0  0  0  0  0  0  0  0  0  0  0  0
   -3.8708    2.9833    0.0000 C   0  0  0  0  0  0  0  0  0  0  0  0
   -1.7208    6.3917    0.0000 N   0  0  3  0  0  0  0  0  0  0  0  0
   -4.5833    4.2042    0.0000 O   0  0  0  0  0  0  0  0  0  0  0  0
   -4.2333   -0.7625    0.0000 C   0  0  0  0  0  0  0  0  0  0  0  0
   -3.4208   -0.7375    0.0000 C   0  0  0  0  0  0  0  0  0  0  0  0
   -5.3083    0.2333    0.0000 O   0  0  0  0  0  0  0  0  0  0  0  0
   -2.4083    0.3375    0.0000 O   0  0  0  0  0  0  0  0  0  0  0  0
   -0.2833    3.5333    0.0000 C   0  0  0  0  0  0  0  0  0  0  0  0
   -3.1500    1.7458    0.0000 C   0  0  0  0  0  0  0  0  0  0  0  0
   -4.5833    1.7500    0.0000 C   0  0  0  0  0  0  0  0  0  0  0  0
   -4.5708    2.5833    0.0000 C   0  0  0  0  0  0  0  0  0  0  0  0
   -3.1458    2.5708    0.0000 C   0  0  0  0  0  0  0  0  0  0  0  0
   -0.2750    7.2292    0.0000 O   0  0  0  0  0  0  0  0  0  0  0  0
   -3.1583    4.7292    0.0000 C   0  0  0  0  0  0  0  0  0  0  0  0
   -0.2833    2.0875    0.0000 C   0  0  0  0  0  0  0  0  0  0  0  0
   -2.4375    5.1417    0.0000 C   0  0  0  0  0  0  0  0  0  0  0  0
    0.1167    2.8125    0.0000 C   0  0  0  0  0  0  0  0  0  0  0  0
    0.2167    1.3333    0.0000 F   0  0  0  0  0  0  0  0  0  0  0  0
   -2.4458    5.9792    0.0000 C   0  0  0  0  0  0  0  0  0  0  0  0
   -1.0000    5.9667    0.0000 C   0  0  0  0  0  0  0  0  0  0  0  0
   -1.7250    7.2167    0.0000 C   0  0  0  0  0  0  0  0  0  0  0  0
   -1.0083    7.6417    0.0000 C   0  0  0  0  0  0  0  0  0  0  0  0
   -0.2833    6.3917    0.0000 C   0  0  0  0  0  0  0  0  0  0  0  0
    1.6709    3.5333    0.0000 Cl  0  0  0  0  0  0  0  0  0  0  0  0
  3  1  2  0  0  0  0
  4 11  1  0  0  0  0
  5  1  1  0  0  0  0
  6  2  1  0  0  0  0
  7  5  1  0  0  0  0
  8  4  1  0  0  0  0
  9  4  1  0  0  0  0
 10  3  1  0  0  0  0
 11 21  1  0  0  0  0
 12  7  1  0  0  0  0
 13  6  1  0  0  0  0
 14 31  1  0  0  0  0
 15  6  2  0  0  0  0
 16  8  1  0  0  0  0
 17  9  1  0  0  0  0
 18  8  2  0  0  0  0
 19  9  2  0  0  0  0
 20 10  1  0  0  0  0
 21 24  2  0  0  0  0
 22 23  1  0  0  0  0
 23 13  2  0  0  0  0
 24 13  1  0  0  0  0
 25 34  1  0  0  0  0
 26  2  1  0  0  0  0
 27 12  2  0  0  0  0
 28 26  1  0  0  0  0
 29 20  2  0  0  0  0
 30 27  1  0  0  0  0
 31 28  1  0  0  0  0
 32 14  1  0  0  0  0
 33 14  1  0  0  0  0
 34 33  1  0  0  0  0
 35 32  1  0  0  0  0
  7 10  2  0  0  0  0
 29 27  1  0  0  0  0
 11 22  2  0  0  0  0
 25 35  1  0  0  0  0
 17 16  1  0  0  0  0
  2  1  1  0  0  0  0
M  END
> <IDNUMBER>
F2736-1881

> <Chemical_Name>
4-(2,5-dioxopyrrolidin-1-yl)-N-(6-fluoro-1,3-benzothiazol-2-yl)-N-[3-(morpholin-4-yl)propyl]benzamide hydrochloride

> <CAS>
1330393-26-4

> <PriceCoeff>
1.00

> <MW>
496.55

> <Description>
solid

> <FSP3>
0.36

> <clogP>
1.46

> <TPSA>
111.29

> <Acceptor>
5

> <Donor>
1

> <RotBonds>
8

> <HAC>
35

> <Collection>
General

$$$$
F0327-0331
  -ISIS-  06222321452D

 29 32  0  0  0  0  0  0  0  0999 V2000
    4.4167    0.3500    0.0000 N   0  0  3  0  0  0  0  0  0  0  0  0
   -0.4000    1.1125    0.0000 C   0  0  0  0  0  0  0  0  0  0  0  0
   -0.9125    0.4000    0.0000 N   0  0  0  0  0  0  0  0  0  0  0  0
   -1.7458    0.6500    0.0000 C   0  0  0  0  0  0  0  0  0  0  0  0
    0.4542    1.1125    0.0000 N   0  0  0  0  0  0  0  0  0  0  0  0
   -2.4208    0.1208    0.0000 C   0  0  0  0  0  0  0  0  0  0  0  0
    0.9000    0.3500    0.0000 C   0  0  0  0  0  0  0  0  0  0  0  0
    4.9167    1.0125    0.0000 C   0  0  0  0  0  0  0  0  0  0  0  0
    4.9042   -0.3667    0.0000 C   0  0  0  0  0  0  0  0  0  0  0  0
   -0.9000    1.8125    0.0000 S   0  0  0  0  0  0  0  0  0  0  0  0
   -1.7458    1.5500    0.0000 C   0  0  0  0  0  0  0  0  0  0  0  0
    3.5375    0.3500    0.0000 C   0  0  0  0  0  0  0  0  0  0  0  0
   -2.3000   -0.7542    0.0000 C   0  0  0  0  0  0  0  0  0  0  0  0
    1.7792    0.3500    0.0000 C   0  0  0  0  0  0  0  0  0  0  0  0
   -3.2458    0.4500    0.0000 C   0  0  0  0  0  0  0  0  0  0  0  0
    0.4542   -0.4042    0.0000 O   0  0  0  0  0  0  0  0  0  0  0  0
    5.7542   -0.1167    0.0000 C   0  0  0  0  0  0  0  0  0  0  0  0
    5.7500    0.7500    0.0000 C   0  0  0  0  0  0  0  0  0  0  0  0
    4.6000   -1.1875    0.0000 O   0  0  0  0  0  0  0  0  0  0  0  0
    4.6292    1.8625    0.0000 O   0  0  0  0  0  0  0  0  0  0  0  0
    3.1000    1.1125    0.0000 C   0  0  0  0  0  0  0  0  0  0  0  0
    3.1000   -0.4042    0.0000 C   0  0  0  0  0  0  0  0  0  0  0  0
    2.2167    1.1125    0.0000 C   0  0  0  0  0  0  0  0  0  0  0  0
    2.2167   -0.4042    0.0000 C   0  0  0  0  0  0  0  0  0  0  0  0
   -2.9958   -1.3000    0.0000 C   0  0  0  0  0  0  0  0  0  0  0  0
   -3.9458   -0.0875    0.0000 C   0  0  0  0  0  0  0  0  0  0  0  0
   -1.4958   -1.1000    0.0000 Cl  0  0  0  0  0  0  0  0  0  0  0  0
   -3.8208   -0.9667    0.0000 C   0  0  0  0  0  0  0  0  0  0  0  0
   -4.7500    0.2458    0.0000 Cl  0  0  0  0  0  0  0  0  0  0  0  0
  2  5  1  0  0  0  0
  3  2  2  0  0  0  0
  4  3  1  0  0  0  0
  5  7  1  0  0  0  0
  6  4  1  0  0  0  0
  7 14  1  0  0  0  0
  8  1  1  0  0  0  0
  9  1  1  0  0  0  0
 10  2  1  0  0  0  0
 11 10  1  0  0  0  0
 12  1  1  0  0  0  0
 13  6  1  0  0  0  0
 14 24  2  0  0  0  0
 15  6  2  0  0  0  0
 16  7  2  0  0  0  0
 17  9  1  0  0  0  0
 18  8  1  0  0  0  0
 19  9  2  0  0  0  0
 20  8  2  0  0  0  0
 21 12  1  0  0  0  0
 22 12  2  0  0  0  0
 23 21  2  0  0  0  0
 24 22  1  0  0  0  0
 25 13  2  0  0  0  0
 26 15  1  0  0  0  0
 27 13  1  0  0  0  0
 28 26  2  0  0  0  0
 29 26  1  0  0  0  0
 17 18  1  0  0  0  0
 23 14  1  0  0  0  0
 11  4  2  0  0  0  0
 28 25  1  0  0  0  0
M  END
> <IDNUMBER>
F0327-0331

> <Chemical_Name>
N-[4-(2,5-dichlorophenyl)-1,3-thiazol-2-yl]-4-(2,5-dioxopyrrolidin-1-yl)benzamide

> <CAS>
330200-80-1

> <PriceCoeff>
1.00

> <MW>
446.31

> <Description>
solid

> <FSP3>
0.10

> <clogP>
3.31

> <TPSA>
107.61

> <Acceptor>
4

> <Donor>
1

> <RotBonds>
4

> <HAC>
29

> <Collection>
General

$$$$
F0882-0937
  -ISIS-  06222321452D

 29 32  0  0  0  0  0  0  0  0999 V2000
   -6.7125    5.4417    0.0000 N   0  0  3  0  0  0  0  0  0  0  0  0
   -3.1583    5.0417    0.0000 C   0  0  0  0  0  0  0  0  0  0  0  0
   -3.8083    5.5542    0.0000 N   0  0  0  0  0  0  0  0  0  0  0  0
   -3.5208    6.3167    0.0000 C   0  0  0  0  0  0  0  0  0  0  0  0
   -3.1583    4.2042    0.0000 N   0  0  0  0  0  0  0  0  0  0  0  0
   -4.0458    6.9375    0.0000 C   0  0  0  0  0  0  0  0  0  0  0  0
   -3.8708    3.8000    0.0000 C   0  0  0  0  0  0  0  0  0  0  0  0
   -6.8292    6.2292    0.0000 C   0  0  0  0  0  0  0  0  0  0  0  0
   -7.4667    5.1167    0.0000 C   0  0  0  0  0  0  0  0  0  0  0  0
   -2.4958    5.5000    0.0000 S   0  0  0  0  0  0  0  0  0  0  0  0
   -2.7000    6.2750    0.0000 C   0  0  0  0  0  0  0  0  0  0  0  0
   -4.8583    6.8000    0.0000 C   0  0  0  0  0  0  0  0  0  0  0  0
   -6.0042    5.0417    0.0000 C   0  0  0  0  0  0  0  0  0  0  0  0
   -5.3833    7.4417    0.0000 C   0  0  0  0  0  0  0  0  0  0  0  0
   -3.7625    7.7167    0.0000 C   0  0  0  0  0  0  0  0  0  0  0  0
   -4.5833    4.2042    0.0000 C   0  0  0  0  0  0  0  0  0  0  0  0
   -3.8708    2.9708    0.0000 O   0  0  0  0  0  0  0  0  0  0  0  0
   -7.6167    6.3792    0.0000 C   0  0  0  0  0  0  0  0  0  0  0  0
   -8.0042    5.7167    0.0000 C   0  0  0  0  0  0  0  0  0  0  0  0
   -6.2000    6.8542    0.0000 O   0  0  0  0  0  0  0  0  0  0  0  0
   -7.6375    4.2667    0.0000 O   0  0  0  0  0  0  0  0  0  0  0  0
   -5.9958    4.2167    0.0000 C   0  0  0  0  0  0  0  0  0  0  0  0
   -5.2833    5.4542    0.0000 C   0  0  0  0  0  0  0  0  0  0  0  0
   -4.5625    5.0625    0.0000 C   0  0  0  0  0  0  0  0  0  0  0  0
   -5.2958    3.8125    0.0000 C   0  0  0  0  0  0  0  0  0  0  0  0
   -5.1000    8.2125    0.0000 C   0  0  0  0  0  0  0  0  0  0  0  0
   -5.1583    6.0292    0.0000 Cl  0  0  0  0  0  0  0  0  0  0  0  0
   -4.2875    8.3500    0.0000 C   0  0  0  0  0  0  0  0  0  0  0  0
   -5.6458    8.8417    0.0000 Cl  0  0  0  0  0  0  0  0  0  0  0  0
  2  5  1  0  0  0  0
  3  2  2  0  0  0  0
  4  3  1  0  0  0  0
  5  7  1  0  0  0  0
  6  4  1  0  0  0  0
  7 16  1  0  0  0  0
  8  1  1  0  0  0  0
  9  1  1  0  0  0  0
 10  2  1  0  0  0  0
 11 10  1  0  0  0  0
 12  6  2  0  0  0  0
 13  1  1  0  0  0  0
 14 12  1  0  0  0  0
 15  6  1  0  0  0  0
 16 24  2  0  0  0  0
 17  7  2  0  0  0  0
 18  8  1  0  0  0  0
 19  9  1  0  0  0  0
 20  8  2  0  0  0  0
 21  9  2  0  0  0  0
 22 13  1  0  0  0  0
 23 13  2  0  0  0  0
 24 23  1  0  0  0  0
 25 22  2  0  0  0  0
 26 28  1  0  0  0  0
 27 12  1  0  0  0  0
 28 15  2  0  0  0  0
 29 26  1  0  0  0  0
 19 18  1  0  0  0  0
 25 16  1  0  0  0  0
  4 11  2  0  0  0  0
 14 26  2  0  0  0  0
M  END
> <IDNUMBER>
F0882-0937

> <Chemical_Name>
N-[4-(2,4-dichlorophenyl)-1,3-thiazol-2-yl]-4-(2,5-dioxopyrrolidin-1-yl)benzamide

> <CAS>
477568-94-8

> <PriceCoeff>
1.00

> <MW>
446.31

> <Description>
solid

> <FSP3>
0.10

> <clogP>
3.31

> <TPSA>
107.61

> <Acceptor>
4

> <Donor>
1

> <RotBonds>
4

> <HAC>
29

> <Collection>
General

$$$$
F5614-0649
  -ISIS-  06222321152D

 33 37  0  0  0  0  0  0  0  0999 V2000
   -7.4167    1.7375    0.0000 C   0  0  0  0  0  0  0  0  0  0  0  0
   -8.1667    1.4083    0.0000 N   0  0  3  0  0  0  0  0  0  0  0  0
   -2.4458    2.9833    0.0000 N   0  0  3  0  0  0  0  0  0  0  0  0
   -7.5042    2.5625    0.0000 N   0  0  0  0  0  0  0  0  0  0  0  0
   -3.8625    2.9833    0.0000 C   0  0  0  0  0  0  0  0  0  0  0  0
   -3.1500    2.5708    0.0000 C   0  0  0  0  0  0  0  0  0  0  0  0
   -8.7167    2.0208    0.0000 C   0  0  0  0  0  0  0  0  0  0  0  0
   -2.3500    3.7958    0.0000 C   0  0  0  0  0  0  0  0  0  0  0  0
   -1.6875    2.6458    0.0000 C   0  0  0  0  0  0  0  0  0  0  0  0
   -4.5833    2.5708    0.0000 N   0  0  3  0  0  0  0  0  0  0  0  0
   -8.3042    2.7333    0.0000 C   0  0  0  0  0  0  0  0  0  0  0  0
   -6.0000    1.7375    0.0000 N   0  0  3  0  0  0  0  0  0  0  0  0
   -6.7042    1.3250    0.0000 C   0  0  0  0  0  0  0  0  0  0  0  0
   -8.3375    0.6000    0.0000 C   0  0  0  0  0  0  0  0  0  0  0  0
   -3.8625    3.8000    0.0000 O   0  0  0  0  0  0  0  0  0  0  0  0
   -1.1375    3.2458    0.0000 C   0  0  0  0  0  0  0  0  0  0  0  0
   -1.5458    3.9583    0.0000 C   0  0  0  0  0  0  0  0  0  0  0  0
   -1.5208    1.8208    0.0000 O   0  0  0  0  0  0  0  0  0  0  0  0
   -2.9583    4.3375    0.0000 O   0  0  0  0  0  0  0  0  0  0  0  0
   -5.2875    2.9833    0.0000 C   0  0  0  0  0  0  0  0  0  0  0  0
   -4.5833    1.7375    0.0000 C   0  0  0  0  0  0  0  0  0  0  0  0
   -6.0000    2.5625    0.0000 C   0  0  0  0  0  0  0  0  0  0  0  0
   -5.2875    1.3333    0.0000 C   0  0  0  0  0  0  0  0  0  0  0  0
   -9.1167    0.3458    0.0000 C   0  0  0  0  0  0  0  0  0  0  0  0
   -9.5292    2.0208    0.0000 C   0  0  0  0  0  0  0  0  0  0  0  0
   -8.7167    3.4458    0.0000 C   0  0  0  0  0  0  0  0  0  0  0  0
   -9.7292    0.9000    0.0000 C   0  0  0  0  0  0  0  0  0  0  0  0
   -9.2792   -0.4542    0.0000 C   0  0  0  0  0  0  0  0  0  0  0  0
   -9.9542    2.7250    0.0000 C   0  0  0  0  0  0  0  0  0  0  0  0
   -9.5417    3.4458    0.0000 C   0  0  0  0  0  0  0  0  0  0  0  0
  -10.0667   -0.7125    0.0000 C   0  0  0  0  0  0  0  0  0  0  0  0
  -10.5042    0.6458    0.0000 C   0  0  0  0  0  0  0  0  0  0  0  0
  -10.6792   -0.1542    0.0000 C   0  0  0  0  0  0  0  0  0  0  0  0
  2  1  1  0  0  0  0
  3  6  1  0  0  0  0
  4  1  2  0  0  0  0
  5 10  1  0  0  0  0
  6  5  1  0  0  0  0
  7  2  1  0  0  0  0
  8  3  1  0  0  0  0
  9  3  1  0  0  0  0
 10 21  1  0  0  0  0
 11  4  1  0  0  0  0
 12 13  1  0  0  0  0
 13  1  1  0  0  0  0
 14  2  1  0  0  0  0
 15  5  2  0  0  0  0
 16  9  1  0  0  0  0
 17  8  1  0  0  0  0
 18  9  2  0  0  0  0
 19  8  2  0  0  0  0
 20 22  1  0  0  0  0
 21 23  1  0  0  0  0
 22 12  1  0  0  0  0
 23 12  1  0  0  0  0
 24 14  1  0  0  0  0
 25  7  1  0  0  0  0
 26 11  1  0  0  0  0
 27 24  2  0  0  0  0
 28 24  1  0  0  0  0
 29 25  2  0  0  0  0
 30 26  2  0  0  0  0
 31 28  2  0  0  0  0
 32 27  1  0  0  0  0
 33 31  1  0  0  0  0
  7 11  2  0  0  0  0
 10 20  1  0  0  0  0
 29 30  1  0  0  0  0
 33 32  2  0  0  0  0
 17 16  1  0  0  0  0
M  END
> <IDNUMBER>
F5614-0649

> <Chemical_Name>
1-(2-{4-[(1-benzyl-1H-1,3-benzodiazol-2-yl)methyl]piperazin-1-yl}-2-oxoethyl)pyrrolidine-2,5-dione

> <CAS>
1170950-80-7

> <PriceCoeff>
1.00

> <MW>
445.51

> <Description>
solid

> <FSP3>
0.36

> <clogP>
2.55

> <TPSA>
78.75

> <Acceptor>
4

> <Donor>
1

> <RotBonds>
7

> <HAC>
33

> <Collection>
General

$$$$
F2880-0923
  -ISIS-  06222321462D

 25 26  0  0  0  0  0  0  0  0999 V2000
   -0.0333    6.8042    0.0000 N   0  3  0  0  0  0  0  0  0  0  0  0
   -1.9833    5.6667    0.0000 C   0  0  0  0  0  0  0  0  0  0  0  0
   -2.6208    5.2917    0.0000 C   0  0  0  0  0  0  0  0  0  0  0  0
   -1.9833    6.4250    0.0000 C   0  0  0  0  0  0  0  0  0  0  0  0
   -0.6833    6.4250    0.0000 C   0  0  0  0  0  0  0  0  0  0  0  0
   -1.3333    6.8000    0.0000 C   0  0  0  0  0  0  0  0  0  0  0  0
   -3.2750    5.6667    0.0000 N   0  0  0  0  0  0  0  0  0  0  0  0
   -1.3333    5.2917    0.0000 C   0  0  0  0  0  0  0  0  0  0  0  0
   -3.9250    5.2917    0.0000 C   0  0  0  0  0  0  0  0  0  0  0  0
   -4.5833    5.6667    0.0000 C   0  0  3  0  0  0  0  0  0  0  0  0
    0.6167    6.4292    0.0000 O   0  5  0  0  0  0  0  0  0  0  0  0
   -0.0333    7.5542    0.0000 O   0  0  0  0  0  0  0  0  0  0  0  0
   -4.5833    6.4250    0.0000 C   0  0  0  0  0  0  0  0  0  0  0  0
   -5.2208    5.2917    0.0000 N   0  0  3  0  0  0  0  0  0  0  0  0
   -0.6833    5.6667    0.0000 C   0  0  0  0  0  0  0  0  0  0  0  0
   -2.6250    4.5417    0.0000 O   0  0  0  0  0  0  0  0  0  0  0  0
   -3.9333    6.8000    0.0000 C   0  0  0  0  0  0  0  0  0  0  0  0
   -5.2250    6.8000    0.0000 C   0  0  0  0  0  0  0  0  0  0  0  0
   -2.6333    6.8042    0.0000 Cl  0  0  0  0  0  0  0  0  0  0  0  0
   -4.5833    7.9250    0.0000 C   0  0  0  0  0  0  0  0  0  0  0  0
   -5.2250    7.5500    0.0000 C   0  0  0  0  0  0  0  0  0  0  0  0
   -3.9333    7.5500    0.0000 C   0  0  0  0  0  0  0  0  0  0  0  0
   -4.5833    8.6750    0.0000 F   0  0  0  0  0  0  0  0  0  0  0  0
   -5.2208    4.5417    0.0000 C   0  0  0  0  0  0  0  0  0  0  0  0
   -5.8708    5.6667    0.0000 C   0  0  0  0  0  0  0  0  0  0  0  0
  2  8  2  0  0  0  0
  3  2  1  0  0  0  0
  4  6  2  0  0  0  0
  5  1  1  0  0  0  0
  6  5  1  0  0  0  0
  7  3  1  0  0  0  0
  8 15  1  0  0  0  0
  9  7  1  0  0  0  0
 10  9  1  0  0  0  0
 11  1  1  0  0  0  0
 12  1  2  0  0  0  0
 13 10  1  0  0  0  0
 14 10  1  0  0  0  0
 15  5  2  0  0  0  0
 16  3  2  0  0  0  0
 17 13  1  0  0  0  0
 18 13  2  0  0  0  0
 19  4  1  0  0  0  0
 20 21  2  0  0  0  0
 21 18  1  0  0  0  0
 22 17  2  0  0  0  0
 23 20  1  0  0  0  0
 24 14  1  0  0  0  0
 25 14  1  0  0  0  0
  2  4  1  0  0  0  0
 22 20  1  0  0  0  0
M  CHG  2   1   1  11  -1
M  END
> <IDNUMBER>
F2880-0923

> <Chemical_Name>
2-chloro-N-[2-(dimethylamino)-2-(4-fluorophenyl)ethyl]-4-nitrobenzamide

> <CAS>
899744-96-8

> <PriceCoeff>
1.00

> <MW>
365.79

> <Description>
solid

> <FSP3>
0.24

> <clogP>
3.18

> <TPSA>
75.48

> <Acceptor>
3

> <Donor>
2

> <RotBonds>
6

> <HAC>
25

> <Collection>
General

$$$$
F3386-3208
  -ISIS-  06222321152D

 19 20  0  0  0  0  0  0  0  0999 V2000
    4.6417   -1.3292    0.0000 C   0  0  0  0  0  0  0  0  0  0  0  0
    5.4625   -1.3292    0.0000 C   0  0  0  0  0  0  0  0  0  0  0  0
    4.2375   -0.6125    0.0000 N   0  0  3  0  0  0  0  0  0  0  0  0
    4.6500    0.1000    0.0000 N   0  0  0  0  0  0  0  0  0  0  0  0
    5.8792   -0.6250    0.0000 C   0  0  0  0  0  0  0  0  0  0  0  0
    5.4750    0.0958    0.0000 C   0  0  0  0  0  0  0  0  0  0  0  0
    4.2250   -2.0417    0.0000 O   0  0  0  0  0  0  0  0  0  0  0  0
    3.4125   -0.6042    0.0000 C   0  0  0  0  0  0  0  0  0  0  0  0
    5.8667   -2.0542    0.0000 Cl  0  0  0  0  0  0  0  0  0  0  0  0
    6.7042   -0.6292    0.0000 N   0  0  0  0  0  0  0  0  0  0  0  0
    3.0042    0.1125    0.0000 C   0  0  0  0  0  0  0  0  0  0  0  0
    3.0000   -1.3167    0.0000 C   0  0  0  0  0  0  0  0  0  0  0  0
    7.1167   -1.3500    0.0000 C   0  0  0  0  0  0  0  0  0  0  0  0
    7.9417   -1.3542    0.0000 C   0  0  0  0  0  0  0  0  0  0  0  0
    8.3542   -0.6417    0.0000 C   0  0  0  0  0  0  0  0  0  0  0  0
    9.1792   -0.6542    0.0000 C   0  0  0  0  0  0  0  0  0  0  0  0
    2.1750   -1.3167    0.0000 C   0  0  0  0  0  0  0  0  0  0  0  0
    2.1792    0.1208    0.0000 C   0  0  0  0  0  0  0  0  0  0  0  0
    1.7625   -0.5917    0.0000 C   0  0  0  0  0  0  0  0  0  0  0  0
  2  1  1  0  0  0  0
  3  1  1  0  0  0  0
  4  3  1  0  0  0  0
  5  2  2  0  0  0  0
  6  4  2  0  0  0  0
  7  1  2  0  0  0  0
  8  3  1  0  0  0  0
  9  2  1  0  0  0  0
 10  5  1  0  0  0  0
 11  8  2  0  0  0  0
 12  8  1  0  0  0  0
 13 10  1  0  0  0  0
 14 13  1  0  0  0  0
 15 14  1  0  0  0  0
 16 15  1  0  0  0  0
 17 12  2  0  0  0  0
 18 11  1  0  0  0  0
 19 17  1  0  0  0  0
  5  6  1  0  0  0  0
 18 19  2  0  0  0  0
M  END
> <IDNUMBER>
F3386-3208

> <Chemical_Name>
5-(butylamino)-4-chloro-2-phenyl-2,3-dihydropyridazin-3-one

> <CAS>
98366-74-6

> <PriceCoeff>
1.00

> <MW>
277.75

> <Description>
solid

> <FSP3>
0.29

> <clogP>
3.61

> <TPSA>
44.70

> <Acceptor>
2

> <Donor>
2

> <RotBonds>
5

> <HAC>
19

> <Collection>
General

> <Reference_compound>
CHEMBL1881194

> <Similarity>
0.8060

$$$$
F6064-4996
  -ISIS-  06222321442D

 25 28  0  0  0  0  0  0  0  0999 V2000
   -1.3750    4.8667    0.0000 N   0  0  0  0  0  0  0  0  0  0  0  0
   -0.8208    5.4792    0.0000 C   0  0  0  0  0  0  0  0  0  0  0  0
   -2.1333    5.2042    0.0000 C   0  0  0  0  0  0  0  0  0  0  0  0
   -3.8625    4.2125    0.0000 N   0  0  3  0  0  0  0  0  0  0  0  0
   -4.5833    3.8083    0.0000 C   0  0  0  0  0  0  0  0  0  0  0  0
   -1.2333    6.1917    0.0000 N   0  0  0  0  0  0  0  0  0  0  0  0
   -2.8500    4.7792    0.0000 C   0  0  3  0  0  0  0  0  0  0  0  0
    0.0042    5.3917    0.0000 C   0  0  0  0  0  0  0  0  0  0  0  0
   -2.0333    6.0167    0.0000 O   0  0  0  0  0  0  0  0  0  0  0  0
   -3.6458    5.0042    0.0000 C   0  0  0  0  0  0  0  0  0  0  0  0
   -3.0625    4.0000    0.0000 C   0  0  0  0  0  0  0  0  0  0  0  0
   -4.5833    2.9833    0.0000 N   0  0  0  0  0  0  0  0  0  0  0  0
   -6.0125    1.3375    0.0000 C   0  0  0  0  0  0  0  0  0  0  0  0
   -5.3083    1.7458    0.0000 C   0  0  0  0  0  0  0  0  0  0  0  0
    1.3167    5.6667    0.0000 S   0  0  0  0  0  0  0  0  0  0  0  0
    0.5542    6.0042    0.0000 C   0  0  0  0  0  0  0  0  0  0  0  0
    0.4167    4.6667    0.0000 C   0  0  0  0  0  0  0  0  0  0  0  0
   -5.3000    2.5833    0.0000 C   0  0  0  0  0  0  0  0  0  0  0  0
   -5.3000    4.2167    0.0000 O   0  0  0  0  0  0  0  0  0  0  0  0
   -6.7167    1.7500    0.0000 C   0  0  0  0  0  0  0  0  0  0  0  0
    1.2250    4.8417    0.0000 C   0  0  0  0  0  0  0  0  0  0  0  0
   -6.7167    2.5708    0.0000 C   0  0  0  0  0  0  0  0  0  0  0  0
   -6.0167    0.5125    0.0000 Cl  0  0  0  0  0  0  0  0  0  0  0  0
   -6.0042    2.9875    0.0000 C   0  0  0  0  0  0  0  0  0  0  0  0
   -7.4417    1.3333    0.0000 Cl  0  0  0  0  0  0  0  0  0  0  0  0
  2  1  1  0  0  0  0
  3  1  2  0  0  0  0
  4 11  1  0  0  0  0
  5  4  1  0  0  0  0
  6  2  2  0  0  0  0
  7  3  1  0  0  0  0
  8  2  1  0  0  0  0
  9  3  1  0  0  0  0
 10  7  1  0  0  0  0
 11  7  1  0  0  0  0
 12  5  1  0  0  0  0
 13 14  1  0  0  0  0
 14 18  2  0  0  0  0
 15 16  1  0  0  0  0
 16  8  2  0  0  0  0
 17  8  1  0  0  0  0
 18 12  1  0  0  0  0
 19  5  2  0  0  0  0
 20 22  1  0  0  0  0
 21 17  2  0  0  0  0
 22 24  2  0  0  0  0
 23 13  1  0  0  0  0
 24 18  1  0  0  0  0
 25 20  1  0  0  0  0
  6  9  1  0  0  0  0
 10  4  1  0  0  0  0
 21 15  1  0  0  0  0
 13 20  2  0  0  0  0
M  END
> <IDNUMBER>
F6064-4996

> <Chemical_Name>
N-(3,4-dichlorophenyl)-3-[3-(thiophen-3-yl)-1,2,4-oxadiazol-5-yl]azetidine-1-carboxamide

> <CAS>
1396749-87-3

> <PriceCoeff>
1.00

> <MW>
395.26

> <Description>
solid

> <FSP3>
0.19

> <clogP>
3.14

> <TPSA>
99.50

> <Acceptor>
4

> <Donor>
1

> <RotBonds>
4

> <HAC>
25

> <Collection>
General

$$$$
F2707-0450
  -ISIS-  06222321152D

 26 29  0  0  0  0  0  0  0  0999 V2000
   -2.4208    1.8958    0.0000 N   0  0  3  0  0  0  0  0  0  0  0  0
   -1.6625    1.5583    0.0000 C   0  0  0  0  0  0  0  0  0  0  0  0
   -3.2458    3.0458    0.0000 C   0  0  0  0  0  0  0  0  0  0  0  0
   -2.4958    2.7208    0.0000 C   0  0  3  0  0  0  0  0  0  0  0  0
   -3.9125    2.5708    0.0000 N   0  0  3  0  0  0  0  0  0  0  0  0
   -1.5833    0.7375    0.0000 N   0  0  0  0  0  0  0  0  0  0  0  0
   -3.0833    1.4208    0.0000 C   0  0  0  0  0  0  0  0  0  0  0  0
   -3.6708    0.1208    0.0000 C   0  0  0  0  0  0  0  0  0  0  0  0
   -3.0083    0.5958    0.0000 C   0  0  0  0  0  0  0  0  0  0  0  0
   -1.8333    3.1958    0.0000 C   0  0  0  0  0  0  0  0  0  0  0  0
   -3.5000    3.8333    0.0000 C   0  0  0  0  0  0  0  0  0  0  0  0
   -0.9958    2.0375    0.0000 O   0  0  0  0  0  0  0  0  0  0  0  0
   -4.5833    3.0458    0.0000 C   0  0  0  0  0  0  0  0  0  0  0  0
   -2.2500    0.2583    0.0000 C   0  0  0  0  0  0  0  0  0  0  0  0
   -3.8333    1.7583    0.0000 C   0  0  0  0  0  0  0  0  0  0  0  0
   -4.3333    3.8333    0.0000 C   0  0  0  0  0  0  0  0  0  0  0  0
   -3.5833   -0.7042    0.0000 C   0  0  0  0  0  0  0  0  0  0  0  0
   -1.2458    4.4917    0.0000 N   0  0  0  0  0  0  0  0  0  0  0  0
   -2.8458   -1.0417    0.0000 C   0  0  0  0  0  0  0  0  0  0  0  0
   -4.4208    0.4583    0.0000 Cl  0  0  0  0  0  0  0  0  0  0  0  0
   -2.1708   -0.5667    0.0000 C   0  0  0  0  0  0  0  0  0  0  0  0
   -4.2583   -1.1792    0.0000 Cl  0  0  0  0  0  0  0  0  0  0  0  0
   -1.9208    4.0042    0.0000 C   0  0  0  0  0  0  0  0  0  0  0  0
   -1.0833    2.8583    0.0000 C   0  0  0  0  0  0  0  0  0  0  0  0
   -0.5000    4.1500    0.0000 C   0  0  0  0  0  0  0  0  0  0  0  0
   -0.4208    3.3375    0.0000 C   0  0  0  0  0  0  0  0  0  0  0  0
  2  1  1  0  0  0  0
  3  4  1  0  0  0  0
  4  1  1  0  0  0  0
  5 15  1  0  0  0  0
  6  2  1  0  0  0  0
  7  1  1  0  0  0  0
  8  9  1  0  0  0  0
  9 14  2  0  0  0  0
 10  4  1  0  0  0  0
 11  3  2  0  0  0  0
 12  2  2  0  0  0  0
 13  5  1  0  0  0  0
 14  6  1  0  0  0  0
 15  7  1  0  0  0  0
 16 11  1  0  0  0  0
 17 19  1  0  0  0  0
 18 23  2  0  0  0  0
 19 21  2  0  0  0  0
 20  8  1  0  0  0  0
 21 14  1  0  0  0  0
 22 17  1  0  0  0  0
 23 10  1  0  0  0  0
 24 10  2  0  0  0  0
 25 26  2  0  0  0  0
 26 24  1  0  0  0  0
  5  3  1  0  0  0  0
 13 16  2  0  0  0  0
 18 25  1  0  0  0  0
 17  8  2  0  0  0  0
M  END
> <IDNUMBER>
F2707-0450

> <Chemical_Name>
N-(3,4-dichlorophenyl)-1-(pyridin-3-yl)-1H,2H,3H,4H-pyrrolo[1,2-a]pyrazine-2-carboxamide

> <CAS>
899961-23-0

> <PriceCoeff>
1.00

> <MW>
387.26

> <Description>
solid

> <FSP3>
0.16

> <clogP>
3.29

> <TPSA>
50.16

> <Acceptor>
2

> <Donor>
2

> <RotBonds>
3

> <HAC>
26

> <Collection>
General

$$$$
F2707-0484
  -ISIS-  06222321442D

 26 29  0  0  0  0  0  0  0  0999 V2000
   -2.4208    1.8958    0.0000 N   0  0  3  0  0  0  0  0  0  0  0  0
   -1.6625    1.5583    0.0000 C   0  0  0  0  0  0  0  0  0  0  0  0
   -3.2458    3.0458    0.0000 C   0  0  0  0  0  0  0  0  0  0  0  0
   -2.4958    2.7208    0.0000 C   0  0  3  0  0  0  0  0  0  0  0  0
   -3.9125    2.5708    0.0000 N   0  0  3  0  0  0  0  0  0  0  0  0
   -1.5833    0.7375    0.0000 N   0  0  0  0  0  0  0  0  0  0  0  0
   -3.0833    1.4208    0.0000 C   0  0  0  0  0  0  0  0  0  0  0  0
   -3.6708    0.1208    0.0000 C   0  0  0  0  0  0  0  0  0  0  0  0
   -3.0083    0.5958    0.0000 C   0  0  0  0  0  0  0  0  0  0  0  0
   -3.5000    3.8333    0.0000 C   0  0  0  0  0  0  0  0  0  0  0  0
   -0.9958    2.0375    0.0000 O   0  0  0  0  0  0  0  0  0  0  0  0
   -4.5833    3.0458    0.0000 C   0  0  0  0  0  0  0  0  0  0  0  0
   -2.2500    0.2583    0.0000 C   0  0  0  0  0  0  0  0  0  0  0  0
   -3.8333    1.7583    0.0000 C   0  0  0  0  0  0  0  0  0  0  0  0
   -4.3333    3.8333    0.0000 C   0  0  0  0  0  0  0  0  0  0  0  0
   -3.5833   -0.7042    0.0000 C   0  0  0  0  0  0  0  0  0  0  0  0
   -1.8333    3.1958    0.0000 C   0  0  0  0  0  0  0  0  0  0  0  0
   -0.5000    4.1500    0.0000 N   0  0  0  0  0  0  0  0  0  0  0  0
   -2.8458   -1.0417    0.0000 C   0  0  0  0  0  0  0  0  0  0  0  0
   -4.4208    0.4583    0.0000 Cl  0  0  0  0  0  0  0  0  0  0  0  0
   -2.1708   -0.5667    0.0000 C   0  0  0  0  0  0  0  0  0  0  0  0
   -4.2583   -1.1792    0.0000 Cl  0  0  0  0  0  0  0  0  0  0  0  0
   -1.2458    4.4917    0.0000 C   0  0  0  0  0  0  0  0  0  0  0  0
   -0.4208    3.3375    0.0000 C   0  0  0  0  0  0  0  0  0  0  0  0
   -1.9208    4.0042    0.0000 C   0  0  0  0  0  0  0  0  0  0  0  0
   -1.0833    2.8583    0.0000 C   0  0  0  0  0  0  0  0  0  0  0  0
  2  1  1  0  0  0  0
  3  4  1  0  0  0  0
  4  1  1  0  0  0  0
  5 14  1  0  0  0  0
  6  2  1  0  0  0  0
  7  1  1  0  0  0  0
  8  9  1  0  0  0  0
  9 13  2  0  0  0  0
 10  3  2  0  0  0  0
 11  2  2  0  0  0  0
 12  5  1  0  0  0  0
 13  6  1  0  0  0  0
 14  7  1  0  0  0  0
 15 10  1  0  0  0  0
 16 19  1  0  0  0  0
 17  4  1  0  0  0  0
 18 24  2  0  0  0  0
 19 21  2  0  0  0  0
 20  8  1  0  0  0  0
 21 13  1  0  0  0  0
 22 16  1  0  0  0  0
 23 25  2  0  0  0  0
 24 26  1  0  0  0  0
 25 17  1  0  0  0  0
 26 17  2  0  0  0  0
  5  3  1  0  0  0  0
 23 18  1  0  0  0  0
 12 15  2  0  0  0  0
 16  8  2  0  0  0  0
M  END
> <IDNUMBER>
F2707-0484

> <Chemical_Name>
N-(3,4-dichlorophenyl)-1-(pyridin-4-yl)-1H,2H,3H,4H-pyrrolo[1,2-a]pyrazine-2-carboxamide

> <CAS>
899751-08-7

> <PriceCoeff>
1.00

> <MW>
387.26

> <Description>
solid

> <FSP3>
0.16

> <clogP>
3.29

> <TPSA>
50.16

> <Acceptor>
2

> <Donor>
2

> <RotBonds>
3

> <HAC>
26

> <Collection>
General

$$$$
F2191-0179
  -ISIS-  06222321462D

 10 10  0  0  0  0  0  0  0  0999 V2000
    2.3792   -5.3125    0.0000 C   0  0  0  0  0  0  0  0  0  0  0  0
    3.0917   -4.9000    0.0000 C   0  0  0  0  0  0  0  0  0  0  0  0
    2.3792   -6.1375    0.0000 C   0  0  0  0  0  0  0  0  0  0  0  0
    1.6625   -6.5500    0.0000 N   0  0  0  0  0  0  0  0  0  0  0  0
    3.0917   -4.0667    0.0000 O   0  0  0  0  0  0  0  0  0  0  0  0
    3.0917   -6.5500    0.0000 Cl  0  0  0  0  0  0  0  0  0  0  0  0
    3.8042   -5.3125    0.0000 O   0  0  0  0  0  0  0  0  0  0  0  0
    1.6625   -4.9000    0.0000 C   0  0  0  0  0  0  0  0  0  0  0  0
    0.9417   -6.1375    0.0000 C   0  0  0  0  0  0  0  0  0  0  0  0
    0.9417   -5.3125    0.0000 C   0  0  0  0  0  0  0  0  0  0  0  0
  2  1  1  0  0  0  0
  3  1  1  0  0  0  0
  4  3  2  0  0  0  0
  5  2  2  0  0  0  0
  6  3  1  0  0  0  0
  7  2  1  0  0  0  0
  8  1  2  0  0  0  0
  9 10  2  0  0  0  0
 10  8  1  0  0  0  0
  9  4  1  0  0  0  0
M  END
> <IDNUMBER>
F2191-0179

> <Chemical_Name>
2-chloropyridine-3-carboxylic acid

> <CAS>
2942-59-8

> <PriceCoeff>
1.00

> <MW>
157.55

> <Description>
solid

> <FSP3>
0.00

> <clogP>
0.96

> <TPSA>
50.19

> <Acceptor>
3

> <Donor>
1

> <RotBonds>
1

> <HAC>
10

> <Collection>
General

> <Reference_compound>
CHEMBL1723657

> <Similarity>
0.8720

$$$$
F3115-0092
  -ISIS-  06222321462D

 25 27  0  0  0  0  0  0  0  0999 V2000
    4.9667   -5.9667    0.0000 N   0  0  3  0  0  0  0  0  0  0  0  0
    5.4500   -5.3000    0.0000 C   0  0  0  0  0  0  0  0  0  0  0  0
    5.4542   -6.6375    0.0000 C   0  0  0  0  0  0  0  0  0  0  0  0
    4.1417   -5.9750    0.0000 C   0  0  0  0  0  0  0  0  0  0  0  0
    6.2417   -6.3792    0.0000 C   0  0  3  0  0  0  0  0  0  0  0  0
    6.2375   -5.5500    0.0000 C   0  0  0  0  0  0  0  0  0  0  0  0
    7.6542   -6.5167    0.0000 C   0  0  0  0  0  0  0  0  0  0  0  0
    8.3250   -6.9917    0.0000 C   0  0  0  0  0  0  0  0  0  0  0  0
    3.7292   -5.2625    0.0000 C   0  0  0  0  0  0  0  0  0  0  0  0
    6.9042   -6.8542    0.0000 S   0  0  0  0  0  0  0  0  0  0  0  0
    8.2417   -7.8167    0.0000 C   0  0  0  0  0  0  0  0  0  0  0  0
    7.7292   -5.7000    0.0000 N   0  0  0  0  0  0  0  0  0  0  0  0
    5.1917   -4.5167    0.0000 O   0  0  0  0  0  0  0  0  0  0  0  0
    5.2042   -7.4167    0.0000 O   0  0  0  0  0  0  0  0  0  0  0  0
    2.9125   -5.2625    0.0000 C   0  0  0  0  0  0  0  0  0  0  0  0
    8.9125   -8.3042    0.0000 O   0  0  0  0  0  0  0  0  0  0  0  0
    7.4917   -8.1625    0.0000 O   0  0  0  0  0  0  0  0  0  0  0  0
    3.7417   -6.6917    0.0000 C   0  0  0  0  0  0  0  0  0  0  0  0
    2.4917   -4.5500    0.0000 Cl  0  0  0  0  0  0  0  0  0  0  0  0
    9.0750   -6.6542    0.0000 C   0  0  0  0  0  0  0  0  0  0  0  0
    4.1417   -4.5417    0.0000 C   0  0  0  0  0  0  0  0  0  0  0  0
    2.9125   -6.6917    0.0000 C   0  0  0  0  0  0  0  0  0  0  0  0
    8.4792   -5.3542    0.0000 C   0  0  0  0  0  0  0  0  0  0  0  0
    2.5000   -5.9792    0.0000 C   0  0  0  0  0  0  0  0  0  0  0  0
    9.1542   -5.8375    0.0000 C   0  0  0  0  0  0  0  0  0  0  0  0
  2  1  1  0  0  0  0
  3  1  1  0  0  0  0
  4  1  1  0  0  0  0
  5  3  1  0  0  0  0
  6  2  1  0  0  0  0
  7 10  1  0  0  0  0
  8  7  2  0  0  0  0
  9  4  2  0  0  0  0
 10  5  1  0  0  0  0
 11  8  1  0  0  0  0
 12  7  1  0  0  0  0
 13  2  2  0  0  0  0
 14  3  2  0  0  0  0
 15  9  1  0  0  0  0
 16 11  2  0  0  0  0
 17 11  1  0  0  0  0
 18  4  1  0  0  0  0
 19 15  1  0  0  0  0
 20  8  1  0  0  0  0
 21  9  1  0  0  0  0
 22 18  2  0  0  0  0
 23 12  2  0  0  0  0
 24 22  1  0  0  0  0
 25 23  1  0  0  0  0
  5  6  1  0  0  0  0
 24 15  2  0  0  0  0
 25 20  2  0  0  0  0
M  END
> <IDNUMBER>
F3115-0092

> <Chemical_Name>
2-{[1-(3-chloro-2-methylphenyl)-2,5-dioxopyrrolidin-3-yl]sulfanyl}pyridine-3-carboxylic acid

> <CAS>
853751-47-0

> <PriceCoeff>
1.00

> <MW>
376.81

> <Description>
solid

> <FSP3>
0.18

> <clogP>
2.60

> <TPSA>
112.87

> <Acceptor>
5

> <Donor>
1

> <RotBonds>
4

> <HAC>
25

> <Collection>
General

$$$$
F1614-0007
  -ISIS-  06222321142D

 19 20  0  0  0  0  0  0  0  0999 V2000
    9.2542  -10.5250    0.0000 C   0  0  0  0  0  0  0  0  0  0  0  0
    9.2542   -8.6417    0.0000 C   0  0  0  0  0  0  0  0  0  0  0  0
   11.0167  -11.1042    0.0000 N   0  0  0  0  0  0  0  0  0  0  0  0
    7.6292  -11.4417    0.0000 N   0  0  3  0  0  0  0  0  0  0  0  0
    5.9542   -8.6417    0.0000 N   0  0  3  0  0  0  0  0  0  0  0  0
    5.9542  -10.5250    0.0000 C   0  0  0  0  0  0  0  0  0  0  0  0
    7.6292   -7.6917    0.0000 C   0  0  0  0  0  0  0  0  0  0  0  0
   12.1000   -9.5375    0.0000 C   0  0  0  0  0  0  0  0  0  0  0  0
   11.1625   -7.9167    0.0000 N   0  0  3  0  0  0  0  0  0  0  0  0
    4.3042  -11.4417    0.0000 O   0  0  0  0  0  0  0  0  0  0  0  0
    7.6292   -5.8125    0.0000 O   0  0  0  0  0  0  0  0  0  0  0  0
   13.9792   -9.5375    0.0000 Br  0  0  0  0  0  0  0  0  0  0  0  0
    7.6292  -13.3250    0.0000 C   0  0  0  0  0  0  0  0  0  0  0  0
    4.3292   -7.7042    0.0000 C   0  0  0  0  0  0  0  0  0  0  0  0
   11.1500   -6.0542    0.0000 C   0  0  0  0  0  0  0  0  0  0  0  0
   14.3750   -6.0375    0.0000 O   0  0  0  0  0  0  0  0  0  0  0  0
   12.7542   -5.1167    0.0000 C   0  0  0  0  0  0  0  0  0  0  0  0
   16.0000   -5.1000    0.0000 C   0  0  0  0  0  0  0  0  0  0  0  0
   16.0000   -3.2417    0.0000 C   0  0  0  0  0  0  0  0  0  0  0  0
  2  1  2  0  0  0  0
  3  1  1  0  0  0  0
  4  1  1  0  0  0  0
  5  6  1  0  0  0  0
  6  4  1  0  0  0  0
  7  2  1  0  0  0  0
  8  3  2  0  0  0  0
  9  2  1  0  0  0  0
 10  6  2  0  0  0  0
 11  7  2  0  0  0  0
 12  8  1  0  0  0  0
 13  4  1  0  0  0  0
 14  5  1  0  0  0  0
 15  9  1  0  0  0  0
 16 17  1  0  0  0  0
 17 15  1  0  0  0  0
 18 16  1  0  0  0  0
 19 18  1  0  0  0  0
  8  9  1  0  0  0  0
  5  7  1  0  0  0  0
M  END
> <IDNUMBER>
F1614-0007

> <Chemical_Name>
8-bromo-7-(2-ethoxyethyl)-1,3-dimethyl-2,3,6,7-tetrahydro-1H-purine-2,6-dione

> <CAS>
115308-41-3

> <PriceCoeff>
1.00

> <MW>
331.17

> <Description>
solid

> <FSP3>
0.55

> <clogP>
1.17

> <TPSA>
67.67

> <Acceptor>
4

> <Donor>
1

> <RotBonds>
4

> <HAC>
19

> <Collection>
General

> <Reference_compound>
CHEMBL113

> <Similarity>
0.8070

$$$$
F0526-1893
  -ISIS-  06222304352D

 32 35  0  0  0  0  0  0  0  0999 V2000
    2.2292   -1.4292    0.0000 C   0  0  0  0  0  0  0  0  0  0  0  0
    2.7042   -2.1042    0.0000 C   0  0  0  0  0  0  0  0  0  0  0  0
    2.4792   -0.6417    0.0000 C   0  0  0  0  0  0  0  0  0  0  0  0
    3.9542   -4.2667    0.0000 N   0  0  3  0  0  0  0  0  0  0  0  0
    1.4417   -1.6792    0.0000 C   0  0  0  0  0  0  0  0  0  0  0  0
    1.4417   -2.5042    0.0000 C   0  0  0  0  0  0  0  0  0  0  0  0
    1.9667   -0.0000    0.0000 N   0  0  0  0  0  0  0  0  0  0  0  0
    2.2292   -2.7667    0.0000 S   0  0  0  0  0  0  0  0  0  0  0  0
    3.2417   -0.4375    0.0000 S   0  0  0  0  0  0  0  0  0  0  0  0
    3.5292   -2.1042    0.0000 N   0  0  0  0  0  0  0  0  0  0  0  0
    4.7542   -4.3625    0.0000 C   0  0  0  0  0  0  0  0  0  0  0  0
    3.6042   -5.0167    0.0000 C   0  0  0  0  0  0  0  0  0  0  0  0
    3.9417   -2.8167    0.0000 C   0  0  0  0  0  0  0  0  0  0  0  0
    2.4667    0.6500    0.0000 C   0  0  0  0  0  0  0  0  0  0  0  0
    3.2292    0.3750    0.0000 C   0  0  0  0  0  0  0  0  0  0  0  0
    3.5292   -3.5292    0.0000 C   0  0  0  0  0  0  0  0  0  0  0  0
    0.0167   -2.5042    0.0000 N   0  0  3  0  0  0  0  0  0  0  0  0
    0.7292   -2.9167    0.0000 C   0  0  0  0  0  0  0  0  0  0  0  0
    0.7292   -1.2667    0.0000 C   0  0  0  0  0  0  0  0  0  0  0  0
    4.9167   -5.1917    0.0000 C   0  0  0  0  0  0  0  0  0  0  0  0
    4.2167   -5.5792    0.0000 C   0  0  0  0  0  0  0  0  0  0  0  0
    2.7917   -5.1792    0.0000 O   0  0  0  0  0  0  0  0  0  0  0  0
    5.3167   -3.7542    0.0000 O   0  0  0  0  0  0  0  0  0  0  0  0
    4.7792   -2.8167    0.0000 O   0  0  0  0  0  0  0  0  0  0  0  0
    0.0167   -1.6792    0.0000 C   0  0  0  0  0  0  0  0  0  0  0  0
   -0.7083   -2.9167    0.0000 C   0  0  0  0  0  0  0  0  0  0  0  0
    2.3167    1.4625    0.0000 C   0  0  0  0  0  0  0  0  0  0  0  0
    3.8792    0.9000    0.0000 C   0  0  0  0  0  0  0  0  0  0  0  0
   -0.6958   -3.7417    0.0000 C   0  0  0  0  0  0  0  0  0  0  0  0
    3.7292    1.7250    0.0000 C   0  0  0  0  0  0  0  0  0  0  0  0
    2.9292    2.0333    0.0000 C   0  0  0  0  0  0  0  0  0  0  0  0
    6.8334   -1.6792    0.0000 Cl  0  0  0  0  0  0  0  0  0  0  0  0
  3  1  1  0  0  0  0
  4 16  1  0  0  0  0
  5  1  1  0  0  0  0
  6  5  2  0  0  0  0
  7  3  2  0  0  0  0
  8  2  1  0  0  0  0
  9  3  1  0  0  0  0
 10  2  1  0  0  0  0
 11  4  1  0  0  0  0
 12  4  1  0  0  0  0
 13 10  1  0  0  0  0
 14  7  1  0  0  0  0
 15  9  1  0  0  0  0
 16 13  1  0  0  0  0
 17 25  1  0  0  0  0
 18  6  1  0  0  0  0
 19  5  1  0  0  0  0
 20 11  1  0  0  0  0
 21 12  1  0  0  0  0
 22 12  2  0  0  0  0
 23 11  2  0  0  0  0
 24 13  2  0  0  0  0
 25 19  1  0  0  0  0
 26 17  1  0  0  0  0
 27 14  1  0  0  0  0
 28 15  1  0  0  0  0
 29 26  1  0  0  0  0
 30 28  2  0  0  0  0
 31 27  2  0  0  0  0
  8  6  1  0  0  0  0
 17 18  1  0  0  0  0
 15 14  2  0  0  0  0
 30 31  1  0  0  0  0
 20 21  1  0  0  0  0
  2  1  2  0  0  0  0
M  END
> <IDNUMBER>
F0526-1893

> <Chemical_Name>
N-[3-(1,3-benzothiazol-2-yl)-6-ethyl-4H,5H,6H,7H-thieno[2,3-c]pyridin-2-yl]-2-(2,5-dioxopyrrolidin-1-yl)acetamide hydrochloride

> <CAS>
1330325-74-0

> <PriceCoeff>
1.00

> <MW>
454.57

> <Description>
solid

> <FSP3>
0.36

> <clogP>
1.97

> <TPSA>
139.09

> <Acceptor>
4

> <Donor>
2

> <RotBonds>
5

> <HAC>
31

> <Collection>
General

$$$$
F3325-0017
  -ISIS-  06222321462D

 25 27  0  0  0  0  0  0  0  0999 V2000
    3.8375   -2.3792    0.0000 N   0  0  3  0  0  0  0  0  0  0  0  0
    4.2917   -3.0667    0.0000 C   0  0  0  0  0  0  0  0  0  0  0  0
    4.3542   -1.7375    0.0000 C   0  0  0  0  0  0  0  0  0  0  0  0
    5.0875   -2.8500    0.0000 C   0  0  3  0  0  0  0  0  0  0  0  0
    6.5000   -2.9167    0.0000 C   0  0  0  0  0  0  0  0  0  0  0  0
    5.1250   -2.0292    0.0000 C   0  0  0  0  0  0  0  0  0  0  0  0
    7.1792   -3.3625    0.0000 C   0  0  0  0  0  0  0  0  0  0  0  0
    5.7667   -3.2917    0.0000 S   0  0  0  0  0  0  0  0  0  0  0  0
    7.1375   -4.1875    0.0000 C   0  0  0  0  0  0  0  0  0  0  0  0
    3.0125   -2.3417    0.0000 C   0  0  0  0  0  0  0  0  0  0  0  0
    6.5417   -2.1000    0.0000 N   0  0  0  0  0  0  0  0  0  0  0  0
    3.9917   -3.8417    0.0000 O   0  0  0  0  0  0  0  0  0  0  0  0
    4.1375   -0.9417    0.0000 O   0  0  0  0  0  0  0  0  0  0  0  0
    7.8292   -4.6375    0.0000 O   0  0  0  0  0  0  0  0  0  0  0  0
    2.6375   -1.6042    0.0000 C   0  0  0  0  0  0  0  0  0  0  0  0
    6.4042   -4.5625    0.0000 O   0  0  0  0  0  0  0  0  0  0  0  0
    1.8792   -0.1417    0.0000 C   0  0  0  0  0  0  0  0  0  0  0  0
    7.9125   -2.9917    0.0000 C   0  0  0  0  0  0  0  0  0  0  0  0
    3.0875   -0.9167    0.0000 C   0  0  0  0  0  0  0  0  0  0  0  0
    1.8167   -1.5750    0.0000 C   0  0  0  0  0  0  0  0  0  0  0  0
    1.4375   -0.8417    0.0000 C   0  0  0  0  0  0  0  0  0  0  0  0
    2.7042   -0.1792    0.0000 C   0  0  0  0  0  0  0  0  0  0  0  0
    7.2667   -1.7292    0.0000 C   0  0  0  0  0  0  0  0  0  0  0  0
    1.5042    0.5875    0.0000 C   0  0  0  0  0  0  0  0  0  0  0  0
    7.9542   -2.1667    0.0000 C   0  0  0  0  0  0  0  0  0  0  0  0
  2  1  1  0  0  0  0
  3  1  1  0  0  0  0
  4  2  1  0  0  0  0
  5  8  1  0  0  0  0
  6  3  1  0  0  0  0
  7  5  1  0  0  0  0
  8  4  1  0  0  0  0
  9  7  1  0  0  0  0
 10  1  1  0  0  0  0
 11  5  2  0  0  0  0
 12  2  2  0  0  0  0
 13  3  2  0  0  0  0
 14  9  2  0  0  0  0
 15 10  1  0  0  0  0
 16  9  1  0  0  0  0
 17 21  1  0  0  0  0
 18  7  2  0  0  0  0
 19 15  2  0  0  0  0
 20 15  1  0  0  0  0
 21 20  2  0  0  0  0
 22 19  1  0  0  0  0
 23 11  1  0  0  0  0
 24 17  1  0  0  0  0
 25 23  2  0  0  0  0
  6  4  1  0  0  0  0
 22 17  2  0  0  0  0
 18 25  1  0  0  0  0
M  END
> <IDNUMBER>
F3325-0017

> <Chemical_Name>
2-({1-[(4-methylphenyl)methyl]-2,5-dioxopyrrolidin-3-yl}sulfanyl)pyridine-3-carboxylic acid

> <CAS>
881483-77-8

> <PriceCoeff>
1.00

> <MW>
356.40

> <Description>
solid

> <FSP3>
0.22

> <clogP>
2.75

> <TPSA>
112.87

> <Acceptor>
5

> <Donor>
1

> <RotBonds>
5

> <HAC>
25

> <Collection>
General

$$$$
F0327-0342
  -ISIS-  06222321142D

 29 32  0  0  0  0  0  0  0  0999 V2000
    4.4167    0.3500    0.0000 N   0  0  3  0  0  0  0  0  0  0  0  0
   -0.4000    1.1125    0.0000 C   0  0  0  0  0  0  0  0  0  0  0  0
   -0.9125    0.4000    0.0000 N   0  0  0  0  0  0  0  0  0  0  0  0
    0.4542    1.1125    0.0000 N   0  0  0  0  0  0  0  0  0  0  0  0
   -1.7458    0.6500    0.0000 C   0  0  0  0  0  0  0  0  0  0  0  0
    0.9000    0.3500    0.0000 C   0  0  0  0  0  0  0  0  0  0  0  0
    4.9042   -0.3667    0.0000 C   0  0  0  0  0  0  0  0  0  0  0  0
    4.9167    1.0125    0.0000 C   0  0  0  0  0  0  0  0  0  0  0  0
   -0.9000    1.8125    0.0000 S   0  0  0  0  0  0  0  0  0  0  0  0
   -1.7458    1.5500    0.0000 C   0  0  0  0  0  0  0  0  0  0  0  0
   -2.4208    0.1208    0.0000 C   0  0  0  0  0  0  0  0  0  0  0  0
    3.5375    0.3500    0.0000 C   0  0  0  0  0  0  0  0  0  0  0  0
   -3.9458   -0.0875    0.0000 C   0  0  0  0  0  0  0  0  0  0  0  0
   -3.2458    0.4500    0.0000 C   0  0  0  0  0  0  0  0  0  0  0  0
    1.7792    0.3500    0.0000 C   0  0  0  0  0  0  0  0  0  0  0  0
   -3.8208   -0.9667    0.0000 C   0  0  0  0  0  0  0  0  0  0  0  0
    0.4542   -0.4042    0.0000 O   0  0  0  0  0  0  0  0  0  0  0  0
    5.7500    0.7500    0.0000 C   0  0  0  0  0  0  0  0  0  0  0  0
    5.7542   -0.1167    0.0000 C   0  0  0  0  0  0  0  0  0  0  0  0
    4.6292    1.8625    0.0000 O   0  0  0  0  0  0  0  0  0  0  0  0
    4.6000   -1.1875    0.0000 O   0  0  0  0  0  0  0  0  0  0  0  0
   -2.3000   -0.7542    0.0000 C   0  0  0  0  0  0  0  0  0  0  0  0
    3.1000   -0.4042    0.0000 C   0  0  0  0  0  0  0  0  0  0  0  0
    3.1000    1.1125    0.0000 C   0  0  0  0  0  0  0  0  0  0  0  0
    2.2167   -0.4042    0.0000 C   0  0  0  0  0  0  0  0  0  0  0  0
    2.2167    1.1125    0.0000 C   0  0  0  0  0  0  0  0  0  0  0  0
   -2.9958   -1.3000    0.0000 C   0  0  0  0  0  0  0  0  0  0  0  0
   -4.7500    0.2458    0.0000 Cl  0  0  0  0  0  0  0  0  0  0  0  0
   -4.5208   -1.5000    0.0000 Cl  0  0  0  0  0  0  0  0  0  0  0  0
  2  4  1  0  0  0  0
  3  2  2  0  0  0  0
  4  6  1  0  0  0  0
  5  3  1  0  0  0  0
  6 15  1  0  0  0  0
  7  1  1  0  0  0  0
  8  1  1  0  0  0  0
  9  2  1  0  0  0  0
 10  9  1  0  0  0  0
 11  5  1  0  0  0  0
 12  1  1  0  0  0  0
 13 14  1  0  0  0  0
 14 11  2  0  0  0  0
 15 26  1  0  0  0  0
 16 27  1  0  0  0  0
 17  6  2  0  0  0  0
 18  8  1  0  0  0  0
 19  7  1  0  0  0  0
 20  8  2  0  0  0  0
 21  7  2  0  0  0  0
 22 11  1  0  0  0  0
 23 12  2  0  0  0  0
 24 12  1  0  0  0  0
 25 23  1  0  0  0  0
 26 24  2  0  0  0  0
 27 22  2  0  0  0  0
 28 13  1  0  0  0  0
 29 16  1  0  0  0  0
 18 19  1  0  0  0  0
 25 15  2  0  0  0  0
 10  5  2  0  0  0  0
 13 16  2  0  0  0  0
M  END
> <IDNUMBER>
F0327-0342

> <Chemical_Name>
N-[4-(3,4-dichlorophenyl)-1,3-thiazol-2-yl]-4-(2,5-dioxopyrrolidin-1-yl)benzamide

> <CAS>
392246-36-5

> <PriceCoeff>
1.00

> <MW>
446.31

> <Description>
solid

> <FSP3>
0.10

> <clogP>
3.44

> <TPSA>
107.61

> <Acceptor>
4

> <Donor>
1

> <RotBonds>
4

> <HAC>
29

> <Collection>
General

$$$$
F0700-0161
  -ISIS-  06222321442D

 29 32  0  0  0  0  0  0  0  0999 V2000
    3.2292    0.3833    0.0000 N   0  0  3  0  0  0  0  0  0  0  0  0
    1.4875    2.2208    0.0000 C   0  0  0  0  0  0  0  0  0  0  0  0
    0.9667    2.4458    0.0000 N   0  0  0  0  0  0  0  0  0  0  0  0
    1.9875    2.4625    0.0000 N   0  0  0  0  0  0  0  0  0  0  0  0
    0.6042    2.0000    0.0000 C   0  0  0  0  0  0  0  0  0  0  0  0
    2.7875    0.7208    0.0000 C   0  0  0  0  0  0  0  0  0  0  0  0
    2.4417    2.1625    0.0000 C   0  0  0  0  0  0  0  0  0  0  0  0
    3.2500   -0.1792    0.0000 C   0  0  0  0  0  0  0  0  0  0  0  0
    3.7667    0.5625    0.0000 C   0  0  0  0  0  0  0  0  0  0  0  0
    1.4292    1.6625    0.0000 S   0  0  0  0  0  0  0  0  0  0  0  0
    0.8875    1.5458    0.0000 C   0  0  0  0  0  0  0  0  0  0  0  0
    0.0667    2.0000    0.0000 C   0  0  0  0  0  0  0  0  0  0  0  0
    2.8500    1.2625    0.0000 C   0  0  0  0  0  0  0  0  0  0  0  0
    2.4042    1.6000    0.0000 C   0  0  0  0  0  0  0  0  0  0  0  0
   -0.7708    1.5208    0.0000 C   0  0  0  0  0  0  0  0  0  0  0  0
   -0.2125    1.5208    0.0000 C   0  0  0  0  0  0  0  0  0  0  0  0
   -1.0500    2.0000    0.0000 C   0  0  0  0  0  0  0  0  0  0  0  0
    2.9500    2.4000    0.0000 O   0  0  0  0  0  0  0  0  0  0  0  0
    3.7875   -0.3375    0.0000 C   0  0  0  0  0  0  0  0  0  0  0  0
    4.0875    0.1208    0.0000 C   0  0  0  0  0  0  0  0  0  0  0  0
    2.8042   -0.5375    0.0000 O   0  0  0  0  0  0  0  0  0  0  0  0
    3.9292    1.1000    0.0000 O   0  0  0  0  0  0  0  0  0  0  0  0
   -0.2333    2.4833    0.0000 C   0  0  0  0  0  0  0  0  0  0  0  0
   -0.7708    2.4833    0.0000 C   0  0  0  0  0  0  0  0  0  0  0  0
   -1.0708    1.0208    0.0000 Cl  0  0  0  0  0  0  0  0  0  0  0  0
   -1.6125    2.0000    0.0000 Cl  0  0  0  0  0  0  0  0  0  0  0  0
    2.2875    0.5000    0.0000 C   0  0  0  0  0  0  0  0  0  0  0  0
    1.9042    1.3833    0.0000 C   0  0  0  0  0  0  0  0  0  0  0  0
    1.8500    0.8208    0.0000 C   0  0  0  0  0  0  0  0  0  0  0  0
  2  4  1  0  0  0  0
  3  2  2  0  0  0  0
  4  7  1  0  0  0  0
  5  3  1  0  0  0  0
  6  1  1  0  0  0  0
  7 14  1  0  0  0  0
  8  1  1  0  0  0  0
  9  1  1  0  0  0  0
 10  2  1  0  0  0  0
 11 10  1  0  0  0  0
 12  5  1  0  0  0  0
 13  6  2  0  0  0  0
 14 13  1  0  0  0  0
 15 16  2  0  0  0  0
 16 12  1  0  0  0  0
 17 24  2  0  0  0  0
 18  7  2  0  0  0  0
 19  8  1  0  0  0  0
 20  9  1  0  0  0  0
 21  8  2  0  0  0  0
 22  9  2  0  0  0  0
 23 12  2  0  0  0  0
 24 23  1  0  0  0  0
 25 15  1  0  0  0  0
 26 17  1  0  0  0  0
 27  6  1  0  0  0  0
 28 29  1  0  0  0  0
 29 27  2  0  0  0  0
 19 20  1  0  0  0  0
 28 14  2  0  0  0  0
 11  5  2  0  0  0  0
 17 15  1  0  0  0  0
M  END
> <IDNUMBER>
F0700-0161

> <Chemical_Name>
N-[4-(3,4-dichlorophenyl)-1,3-thiazol-2-yl]-3-(2,5-dioxopyrrolidin-1-yl)benzamide

> <CAS>
477280-68-5

> <PriceCoeff>
1.00

> <MW>
446.31

> <Description>
solid

> <FSP3>
0.10

> <clogP>
3.44

> <TPSA>
107.61

> <Acceptor>
4

> <Donor>
1

> <RotBonds>
4

> <HAC>
29

> <Collection>
General

$$$$
F2783-0439
  -ISIS-  06222321462D

 25 27  0  0  0  0  0  0  0  0999 V2000
   -3.7708    0.4875    0.0000 N   0  3  0  0  0  0  0  0  0  0  0  0
   -3.7708    2.9833    0.0000 C   0  0  0  0  0  0  0  0  0  0  0  0
   -3.7583    3.8000    0.0000 C   0  0  0  0  0  0  0  0  0  0  0  0
   -1.6208    6.6875    0.0000 N   0  0  3  0  0  0  0  0  0  0  0  0
   -3.0375    2.5583    0.0000 C   0  0  0  0  0  0  0  0  0  0  0  0
   -1.5250    7.5042    0.0000 C   0  0  0  0  0  0  0  0  0  0  0  0
   -3.7625    1.3125    0.0000 C   0  0  0  0  0  0  0  0  0  0  0  0
   -2.3250    6.2667    0.0000 C   0  0  0  0  0  0  0  0  0  0  0  0
   -3.0375    1.7250    0.0000 C   0  0  0  0  0  0  0  0  0  0  0  0
   -3.0458    4.2125    0.0000 N   0  0  0  0  0  0  0  0  0  0  0  0
   -4.4833    2.5625    0.0000 C   0  0  0  0  0  0  0  0  0  0  0  0
   -2.3250    5.4417    0.0000 C   0  0  0  0  0  0  0  0  0  0  0  0
   -4.4833    0.0833    0.0000 O   0  5  0  0  0  0  0  0  0  0  0  0
   -3.0583    0.0750    0.0000 O   0  0  0  0  0  0  0  0  0  0  0  0
   -3.0458    5.0292    0.0000 C   0  0  0  0  0  0  0  0  0  0  0  0
   -4.4750    4.2042    0.0000 O   0  0  0  0  0  0  0  0  0  0  0  0
   -4.4833    1.7333    0.0000 C   0  0  0  0  0  0  0  0  0  0  0  0
   -2.1333    8.0625    0.0000 O   0  0  0  0  0  0  0  0  0  0  0  0
   -2.3208    2.9625    0.0000 Cl  0  0  0  0  0  0  0  0  0  0  0  0
   -0.8583    6.3417    0.0000 C   0  0  0  0  0  0  0  0  0  0  0  0
   -0.7208    7.6792    0.0000 C   0  0  0  0  0  0  0  0  0  0  0  0
   -3.0458    6.6792    0.0000 C   0  0  0  0  0  0  0  0  0  0  0  0
   -0.3083    6.9625    0.0000 C   0  0  0  0  0  0  0  0  0  0  0  0
   -3.7583    6.2750    0.0000 C   0  0  0  0  0  0  0  0  0  0  0  0
   -3.7583    5.4500    0.0000 C   0  0  0  0  0  0  0  0  0  0  0  0
  2 11  2  0  0  0  0
  3  2  1  0  0  0  0
  4  8  1  0  0  0  0
  5  9  2  0  0  0  0
  6  4  1  0  0  0  0
  7  1  1  0  0  0  0
  8 12  2  0  0  0  0
  9  7  1  0  0  0  0
 10  3  1  0  0  0  0
 11 17  1  0  0  0  0
 12 15  1  0  0  0  0
 13  1  1  0  0  0  0
 14  1  2  0  0  0  0
 15 10  1  0  0  0  0
 16  3  2  0  0  0  0
 17  7  2  0  0  0  0
 18  6  2  0  0  0  0
 19  5  1  0  0  0  0
 20  4  1  0  0  0  0
 21  6  1  0  0  0  0
 22 24  2  0  0  0  0
 23 20  1  0  0  0  0
 24 25  1  0  0  0  0
 25 15  2  0  0  0  0
  2  5  1  0  0  0  0
  8 22  1  0  0  0  0
 23 21  1  0  0  0  0
M  CHG  2   1   1  13  -1
M  END
> <IDNUMBER>
F2783-0439

> <Chemical_Name>
2-chloro-4-nitro-N-[3-(2-oxopyrrolidin-1-yl)phenyl]benzamide

> <CAS>
941957-11-5

> <PriceCoeff>
1.00

> <MW>
359.76

> <Description>
solid

> <FSP3>
0.18

> <clogP>
2.74

> <TPSA>
92.55

> <Acceptor>
4

> <Donor>
1

> <RotBonds>
4

> <HAC>
25

> <Collection>
General

$$$$
F2783-0088
  -ISIS-  06222321152D

 25 27  0  0  0  0  0  0  0  0999 V2000
   -3.7708    0.4875    0.0000 N   0  3  0  0  0  0  0  0  0  0  0  0
   -3.7708    2.9833    0.0000 C   0  0  0  0  0  0  0  0  0  0  0  0
   -3.7583    3.8000    0.0000 C   0  0  0  0  0  0  0  0  0  0  0  0
   -3.0458    7.5042    0.0000 N   0  0  3  0  0  0  0  0  0  0  0  0
   -3.0375    2.5583    0.0000 C   0  0  0  0  0  0  0  0  0  0  0  0
   -2.3750    7.9917    0.0000 C   0  0  0  0  0  0  0  0  0  0  0  0
   -3.7625    1.3125    0.0000 C   0  0  0  0  0  0  0  0  0  0  0  0
   -3.0375    1.7250    0.0000 C   0  0  0  0  0  0  0  0  0  0  0  0
   -3.0458    4.2125    0.0000 N   0  0  0  0  0  0  0  0  0  0  0  0
   -4.4833    2.5625    0.0000 C   0  0  0  0  0  0  0  0  0  0  0  0
   -3.0458    6.6875    0.0000 C   0  0  0  0  0  0  0  0  0  0  0  0
   -4.4833    0.0833    0.0000 O   0  5  0  0  0  0  0  0  0  0  0  0
   -3.0583    0.0750    0.0000 O   0  0  0  0  0  0  0  0  0  0  0  0
   -4.4750    4.2042    0.0000 O   0  0  0  0  0  0  0  0  0  0  0  0
   -4.4833    1.7333    0.0000 C   0  0  0  0  0  0  0  0  0  0  0  0
   -1.5833    7.7417    0.0000 O   0  0  0  0  0  0  0  0  0  0  0  0
   -3.7583    6.2750    0.0000 C   0  0  0  0  0  0  0  0  0  0  0  0
   -2.3333    6.2667    0.0000 C   0  0  0  0  0  0  0  0  0  0  0  0
   -3.0458    5.0292    0.0000 C   0  0  0  0  0  0  0  0  0  0  0  0
   -2.3208    2.9625    0.0000 Cl  0  0  0  0  0  0  0  0  0  0  0  0
   -3.7083    8.0000    0.0000 C   0  0  0  0  0  0  0  0  0  0  0  0
   -2.3333    5.4500    0.0000 C   0  0  0  0  0  0  0  0  0  0  0  0
   -3.7583    5.4500    0.0000 C   0  0  0  0  0  0  0  0  0  0  0  0
   -2.6250    8.7792    0.0000 C   0  0  0  0  0  0  0  0  0  0  0  0
   -3.4500    8.7792    0.0000 C   0  0  0  0  0  0  0  0  0  0  0  0
  2 10  2  0  0  0  0
  3  2  1  0  0  0  0
  4 11  1  0  0  0  0
  5  8  2  0  0  0  0
  6  4  1  0  0  0  0
  7  1  1  0  0  0  0
  8  7  1  0  0  0  0
  9  3  1  0  0  0  0
 10 15  1  0  0  0  0
 11 17  2  0  0  0  0
 12  1  1  0  0  0  0
 13  1  2  0  0  0  0
 14  3  2  0  0  0  0
 15  7  2  0  0  0  0
 16  6  2  0  0  0  0
 17 23  1  0  0  0  0
 18 22  2  0  0  0  0
 19  9  1  0  0  0  0
 20  5  1  0  0  0  0
 21  4  1  0  0  0  0
 22 19  1  0  0  0  0
 23 19  2  0  0  0  0
 24  6  1  0  0  0  0
 25 21  1  0  0  0  0
  2  5  1  0  0  0  0
 18 11  1  0  0  0  0
 24 25  1  0  0  0  0
M  CHG  2   1   1  12  -1
M  END
> <IDNUMBER>
F2783-0088

> <Chemical_Name>
2-chloro-4-nitro-N-[4-(2-oxopyrrolidin-1-yl)phenyl]benzamide

> <CAS>
941992-74-1

> <PriceCoeff>
1.00

> <MW>
359.76

> <Description>
solid

> <FSP3>
0.18

> <clogP>
2.74

> <TPSA>
92.55

> <Acceptor>
4

> <Donor>
1

> <RotBonds>
4

> <HAC>
25

> <Collection>
General

$$$$
F2784-0552
  -ISIS-  06222321152D

 27 29  0  0  0  0  0  0  0  0999 V2000
   -1.6125    6.6792    0.0000 N   0  0  3  0  0  0  0  0  0  0  0  0
   -3.7708    0.4875    0.0000 N   0  3  0  0  0  0  0  0  0  0  0  0
   -3.7708    2.9833    0.0000 C   0  0  0  0  0  0  0  0  0  0  0  0
   -3.7583    3.8000    0.0000 C   0  0  0  0  0  0  0  0  0  0  0  0
   -2.3250    6.2667    0.0000 C   0  0  0  0  0  0  0  0  0  0  0  0
   -1.6125    7.5167    0.0000 C   0  0  0  0  0  0  0  0  0  0  0  0
   -3.0375    2.5583    0.0000 C   0  0  0  0  0  0  0  0  0  0  0  0
   -3.7625    1.3125    0.0000 C   0  0  0  0  0  0  0  0  0  0  0  0
   -3.0375    1.7250    0.0000 C   0  0  0  0  0  0  0  0  0  0  0  0
   -3.0458    4.2125    0.0000 N   0  0  0  0  0  0  0  0  0  0  0  0
   -2.3250    5.4417    0.0000 C   0  0  0  0  0  0  0  0  0  0  0  0
   -4.4833    2.5625    0.0000 C   0  0  0  0  0  0  0  0  0  0  0  0
   -4.4833    0.0833    0.0000 O   0  5  0  0  0  0  0  0  0  0  0  0
   -3.0458    5.0292    0.0000 C   0  0  0  0  0  0  0  0  0  0  0  0
   -3.0583    0.0750    0.0000 O   0  0  0  0  0  0  0  0  0  0  0  0
   -3.0458    6.6792    0.0000 C   0  0  0  0  0  0  0  0  0  0  0  0
   -4.4750    4.2042    0.0000 O   0  0  0  0  0  0  0  0  0  0  0  0
   -4.4833    1.7333    0.0000 C   0  0  0  0  0  0  0  0  0  0  0  0
   -2.3250    7.9292    0.0000 O   0  0  0  0  0  0  0  0  0  0  0  0
   -3.7583    6.2750    0.0000 C   0  0  0  0  0  0  0  0  0  0  0  0
   -2.3208    2.9625    0.0000 Cl  0  0  0  0  0  0  0  0  0  0  0  0
   -0.8958    6.2792    0.0000 C   0  0  0  0  0  0  0  0  0  0  0  0
   -3.7583    5.4500    0.0000 C   0  0  0  0  0  0  0  0  0  0  0  0
   -0.8958    7.9250    0.0000 C   0  0  0  0  0  0  0  0  0  0  0  0
   -3.0375    7.5125    0.0000 C   0  0  0  0  0  0  0  0  0  0  0  0
   -0.1833    6.6917    0.0000 C   0  0  0  0  0  0  0  0  0  0  0  0
   -0.1833    7.5042    0.0000 C   0  0  0  0  0  0  0  0  0  0  0  0
  2  8  1  0  0  0  0
  3  4  1  0  0  0  0
  4 10  1  0  0  0  0
  5  1  1  0  0  0  0
  6  1  1  0  0  0  0
  7  3  1  0  0  0  0
  8 18  2  0  0  0  0
  9  7  2  0  0  0  0
 10 14  1  0  0  0  0
 11  5  2  0  0  0  0
 12  3  2  0  0  0  0
 13  2  1  0  0  0  0
 14 11  1  0  0  0  0
 15  2  2  0  0  0  0
 16  5  1  0  0  0  0
 17  4  2  0  0  0  0
 18 12  1  0  0  0  0
 19  6  2  0  0  0  0
 20 16  2  0  0  0  0
 21  7  1  0  0  0  0
 22  1  1  0  0  0  0
 23 20  1  0  0  0  0
 24  6  1  0  0  0  0
 25 16  1  0  0  0  0
 26 22  1  0  0  0  0
 27 26  1  0  0  0  0
 27 24  1  0  0  0  0
 14 23  2  0  0  0  0
  9  8  1  0  0  0  0
M  CHG  2   2   1  13  -1
M  END
> <IDNUMBER>
F2784-0552

> <Chemical_Name>
2-chloro-N-[4-methyl-3-(2-oxopiperidin-1-yl)phenyl]-4-nitrobenzamide

> <CAS>
941873-25-2

> <PriceCoeff>
1.00

> <MW>
387.82

> <Description>
solid

> <FSP3>
0.26

> <clogP>
3.40

> <TPSA>
92.55

> <Acceptor>
4

> <Donor>
1

> <RotBonds>
4

> <HAC>
27

> <Collection>
General

$$$$
F3023-0928
  -ISIS-  06222321442D

 23 25  0  0  0  0  0  0  0  0999 V2000
    3.7625   -6.4042    0.0000 N   0  0  3  0  0  0  0  0  0  0  0  0
    4.1792   -5.8292    0.0000 C   0  0  0  0  0  0  0  0  0  0  0  0
    4.1792   -6.9750    0.0000 C   0  0  0  0  0  0  0  0  0  0  0  0
    4.8542   -6.7542    0.0000 C   0  0  3  0  0  0  0  0  0  0  0  0
    4.8542   -6.0417    0.0000 C   0  0  0  0  0  0  0  0  0  0  0  0
    5.4292   -7.1667    0.0000 N   0  0  0  0  0  0  0  0  0  0  0  0
    3.0542   -6.4042    0.0000 C   0  0  0  0  0  0  0  0  0  0  0  0
    3.9542   -5.1542    0.0000 O   0  0  0  0  0  0  0  0  0  0  0  0
    3.9667   -7.6500    0.0000 O   0  0  0  0  0  0  0  0  0  0  0  0
    7.3667   -6.3042    0.0000 C   0  0  0  0  0  0  0  0  0  0  0  0
    8.0167   -6.0125    0.0000 N   0  0  3  0  0  0  0  0  0  0  0  0
    6.0792   -6.8792    0.0000 C   0  0  0  0  0  0  0  0  0  0  0  0
    6.7917   -5.8875    0.0000 C   0  0  0  0  0  0  0  0  0  0  0  0
    7.3000   -7.0042    0.0000 C   0  0  0  0  0  0  0  0  0  0  0  0
    6.1417   -6.1750    0.0000 C   0  0  0  0  0  0  0  0  0  0  0  0
    6.6500   -7.2917    0.0000 C   0  0  0  0  0  0  0  0  0  0  0  0
    8.5917   -6.4292    0.0000 C   0  0  0  0  0  0  0  0  0  0  0  0
    8.0917   -5.3042    0.0000 C   0  0  0  0  0  0  0  0  0  0  0  0
    2.7000   -5.7917    0.0000 C   0  0  0  0  0  0  0  0  0  0  0  0
    2.7042   -7.0250    0.0000 C   0  0  0  0  0  0  0  0  0  0  0  0
    2.0042   -7.0292    0.0000 C   0  0  0  0  0  0  0  0  0  0  0  0
    1.9917   -5.8000    0.0000 C   0  0  0  0  0  0  0  0  0  0  0  0
    1.6417   -6.4167    0.0000 C   0  0  0  0  0  0  0  0  0  0  0  0
  2  1  1  0  0  0  0
  3  1  1  0  0  0  0
  4  3  1  0  0  0  0
  5  2  1  0  0  0  0
  6  4  1  0  0  0  0
  7  1  1  0  0  0  0
  8  2  2  0  0  0  0
  9  3  2  0  0  0  0
 10 14  2  0  0  0  0
 11 10  1  0  0  0  0
 12  6  1  0  0  0  0
 13 15  2  0  0  0  0
 14 16  1  0  0  0  0
 15 12  1  0  0  0  0
 16 12  2  0  0  0  0
 17 11  1  0  0  0  0
 18 11  1  0  0  0  0
 19  7  2  0  0  0  0
 20  7  1  0  0  0  0
 21 20  2  0  0  0  0
 22 19  1  0  0  0  0
 23 21  1  0  0  0  0
  5  4  1  0  0  0  0
 23 22  2  0  0  0  0
 13 10  1  0  0  0  0
M  END
> <IDNUMBER>
F3023-0928

> <Chemical_Name>
3-{[4-(dimethylamino)phenyl]amino}-1-phenylpyrrolidine-2,5-dione

> <CAS>
1009537-29-4

> <PriceCoeff>
1.00

> <MW>
309.36

> <Description>
solid

> <FSP3>
0.22

> <clogP>
2.65

> <TPSA>
52.65

> <Acceptor>
4

> <Donor>
2

> <RotBonds>
4

> <HAC>
23

> <Collection>
General

$$$$
F0466-0056
  -ISIS-  06222321142D

 25 28  0  0  0  0  0  0  0  0999 V2000
   -0.5500   -0.7500    0.0000 N   0  0  3  0  0  0  0  0  0  0  0  0
   -0.4125   -0.2792    0.0000 C   0  0  0  0  0  0  0  0  0  0  0  0
   -0.2708   -1.1500    0.0000 C   0  0  0  0  0  0  0  0  0  0  0  0
   -1.0000   -0.8792    0.0000 C   0  0  0  0  0  0  0  0  0  0  0  0
   -0.9333    0.8958    0.0000 C   0  0  0  0  0  0  0  0  0  0  0  0
   -1.4125    0.7708    0.0000 N   0  0  0  0  0  0  0  0  0  0  0  0
   -2.5708    1.3958    0.0000 C   0  0  0  0  0  0  0  0  0  0  0  0
   -0.7500    0.0708    0.0000 C   0  0  0  0  0  0  0  0  0  0  0  0
   -0.5958    0.5333    0.0000 C   0  0  0  0  0  0  0  0  0  0  0  0
   -2.2500    1.0333    0.0000 C   0  0  0  0  0  0  0  0  0  0  0  0
   -2.4333    1.8500    0.0000 C   0  0  0  0  0  0  0  0  0  0  0  0
   -3.0500    1.3958    0.0000 O   0  0  0  0  0  0  0  0  0  0  0  0
   -1.7708    1.1500    0.0000 C   0  0  0  0  0  0  0  0  0  0  0  0
   -2.8333    2.1333    0.0000 O   0  0  0  0  0  0  0  0  0  0  0  0
   -3.2125    1.8333    0.0000 C   0  0  0  0  0  0  0  0  0  0  0  0
   -0.7708    1.3500    0.0000 O   0  0  0  0  0  0  0  0  0  0  0  0
   -0.5708   -1.5042    0.0000 C   0  0  0  0  0  0  0  0  0  0  0  0
   -1.0208   -1.3500    0.0000 C   0  0  0  0  0  0  0  0  0  0  0  0
    0.2500   -1.1500    0.0000 O   0  0  0  0  0  0  0  0  0  0  0  0
   -1.3833   -0.5542    0.0000 O   0  0  0  0  0  0  0  0  0  0  0  0
   -1.9500    1.9708    0.0000 C   0  0  0  0  0  0  0  0  0  0  0  0
   -1.6333    1.6125    0.0000 C   0  0  0  0  0  0  0  0  0  0  0  0
    0.0542   -0.1792    0.0000 C   0  0  0  0  0  0  0  0  0  0  0  0
   -0.1125    0.6333    0.0000 C   0  0  0  0  0  0  0  0  0  0  0  0
    0.2000    0.2708    0.0000 C   0  0  0  0  0  0  0  0  0  0  0  0
  2  1  1  0  0  0  0
  3  1  1  0  0  0  0
  4  1  1  0  0  0  0
  5  9  1  0  0  0  0
  6  5  1  0  0  0  0
  7 10  1  0  0  0  0
  8  2  2  0  0  0  0
  9  8  1  0  0  0  0
 10 13  2  0  0  0  0
 11 21  1  0  0  0  0
 12  7  1  0  0  0  0
 13  6  1  0  0  0  0
 14 11  1  0  0  0  0
 15 12  1  0  0  0  0
 16  5  2  0  0  0  0
 17  3  1  0  0  0  0
 18  4  1  0  0  0  0
 19  3  2  0  0  0  0
 20  4  2  0  0  0  0
 21 22  2  0  0  0  0
 22 13  1  0  0  0  0
 23  2  1  0  0  0  0
 24 25  1  0  0  0  0
 25 23  2  0  0  0  0
 17 18  1  0  0  0  0
 24  9  2  0  0  0  0
  7 11  2  0  0  0  0
 14 15  1  0  0  0  0
M  END
> <IDNUMBER>
F0466-0056

> <Chemical_Name>
N-(2H-1,3-benzodioxol-5-yl)-3-(2,5-dioxopyrrolidin-1-yl)benzamide

> <CAS>
391867-81-5

> <PriceCoeff>
1.00

> <MW>
338.31

> <Description>
solid

> <FSP3>
0.17

> <clogP>
0.85

> <TPSA>
84.94

> <Acceptor>
5

> <Donor>
1

> <RotBonds>
3

> <HAC>
25

> <Collection>
General

$$$$
F2167-4302
  -ISIS-  06222321142D

 13 13  0  0  0  0  0  0  0  0999 V2000
    5.6000   -1.4125    0.0000 C   0  0  0  0  0  0  0  0  0  0  0  0
    6.3167   -1.8292    0.0000 C   0  0  0  0  0  0  0  0  0  0  0  0
    5.6000   -0.5792    0.0000 C   0  0  0  0  0  0  0  0  0  0  0  0
    4.8792   -1.8292    0.0000 C   0  0  3  0  0  0  0  0  0  0  0  0
    7.0292   -1.4125    0.0000 C   0  0  0  0  0  0  0  0  0  0  0  0
    7.7542    0.6583    0.0000 O   0  0  0  0  0  0  0  0  0  0  0  0
    7.0292   -0.5792    0.0000 C   0  0  0  0  0  0  0  0  0  0  0  0
    7.7542   -0.1667    0.0000 C   0  0  0  0  0  0  0  0  0  0  0  0
    6.3167   -2.6542    0.0000 O   0  0  0  0  0  0  0  0  0  0  0  0
    6.3167   -0.1667    0.0000 C   0  0  0  0  0  0  0  0  0  0  0  0
    4.8792   -2.6542    0.0000 C   0  0  0  0  0  0  0  0  0  0  0  0
    4.1667   -2.2417    0.0000 C   0  0  0  0  0  0  0  0  0  0  0  0
    4.1667   -1.4125    0.0000 C   0  0  0  0  0  0  0  0  0  0  0  0
  2  1  1  0  0  0  0
  3  1  2  0  0  0  0
  4  1  1  0  0  0  0
  5  2  2  0  0  0  0
  6  8  2  0  0  0  0
  7 10  2  0  0  0  0
  8  7  1  0  0  0  0
  9  2  1  0  0  0  0
 10  3  1  0  0  0  0
 11  4  1  0  0  0  0
 12  4  1  0  0  0  0
 13  4  1  0  0  0  0
  5  7  1  0  0  0  0
M  END
> <IDNUMBER>
F2167-4302

> <Chemical_Name>
4-tert-butyl-3-hydroxybenzaldehyde

> <CAS>
532966-59-9

> <PriceCoeff>
1.00

> <MW>
178.23

> <Description>
solid

> <FSP3>
0.36

> <clogP>
3.17

> <TPSA>
37.30

> <Acceptor>
2

> <Donor>
1

> <RotBonds>
1

> <HAC>
13

> <Collection>
General

> <Reference_compound>
CHEMBL29411

> <Similarity>
0.8150

$$$$
F5939-1203
  -ISIS-  06222321152D

 32 36  0  0  0  0  0  0  0  0999 V2000
   -1.5458   -8.9167    0.0000 N   0  0  3  0  0  0  0  0  0  0  0  0
    4.1875  -11.3917    0.0000 C   0  0  0  0  0  0  0  0  0  0  0  0
    4.8542  -11.8792    0.0000 N   0  0  0  0  0  0  0  0  0  0  0  0
    4.6000  -12.6667    0.0000 C   0  0  0  0  0  0  0  0  0  0  0  0
    3.5167  -11.8792    0.0000 S   0  0  0  0  0  0  0  0  0  0  0  0
    1.3250   -8.9167    0.0000 C   0  0  0  0  0  0  0  0  0  0  0  0
   -0.8250   -9.3292    0.0000 C   0  0  0  0  0  0  0  0  0  0  0  0
    2.0417   -9.3292    0.0000 N   0  0  3  0  0  0  0  0  0  0  0  0
   -2.3083   -9.2250    0.0000 C   0  0  0  0  0  0  0  0  0  0  0  0
   -1.5875   -8.0917    0.0000 C   0  0  0  0  0  0  0  0  0  0  0  0
    3.7750  -12.6625    0.0000 C   0  0  0  0  0  0  0  0  0  0  0  0
    0.6042   -9.3292    0.0000 C   0  0  0  0  0  0  0  0  0  0  0  0
   -0.1083   -8.9167    0.0000 C   0  0  0  0  0  0  0  0  0  0  0  0
    4.1875  -10.5667    0.0000 O   0  0  0  0  0  0  0  0  0  0  0  0
    5.0042  -13.3792    0.0000 C   0  0  0  0  0  0  0  0  0  0  0  0
    2.0417  -10.1542    0.0000 C   0  0  0  0  0  0  0  0  0  0  0  0
    2.7625   -8.9167    0.0000 C   0  0  0  0  0  0  0  0  0  0  0  0
    1.3167   -8.0875    0.0000 O   0  0  0  0  0  0  0  0  0  0  0  0
   -2.4083   -7.8917    0.0000 C   0  0  0  0  0  0  0  0  0  0  0  0
   -2.8458   -8.5917    0.0000 C   0  0  0  0  0  0  0  0  0  0  0  0
   -0.9583   -7.5625    0.0000 O   0  0  0  0  0  0  0  0  0  0  0  0
   -2.5250  -10.0167    0.0000 O   0  0  0  0  0  0  0  0  0  0  0  0
    3.4792   -9.3292    0.0000 C   0  0  0  0  0  0  0  0  0  0  0  0
    2.7542  -10.5667    0.0000 C   0  0  0  0  0  0  0  0  0  0  0  0
    3.4750  -10.1500    0.0000 C   0  0  3  0  0  0  0  0  0  0  0  0
    5.8292  -13.3875    0.0000 Cl  0  0  0  0  0  0  0  0  0  0  0  0
   -0.8250  -10.1542    0.0000 C   0  0  0  0  0  0  0  0  0  0  0  0
    3.3625  -13.3750    0.0000 C   0  0  0  0  0  0  0  0  0  0  0  0
    0.6042  -10.1542    0.0000 C   0  0  0  0  0  0  0  0  0  0  0  0
   -0.1125  -10.5750    0.0000 C   0  0  0  0  0  0  0  0  0  0  0  0
    3.7667  -14.0917    0.0000 C   0  0  0  0  0  0  0  0  0  0  0  0
    4.6000  -14.0917    0.0000 C   0  0  0  0  0  0  0  0  0  0  0  0
  2 14  1  0  0  0  0
  3  2  2  0  0  0  0
  4  3  1  0  0  0  0
  5  2  1  0  0  0  0
  6 12  1  0  0  0  0
  7  1  1  0  0  0  0
  8  6  1  0  0  0  0
  9  1  1  0  0  0  0
 10  1  1  0  0  0  0
 11  5  1  0  0  0  0
 12 13  2  0  0  0  0
 13  7  1  0  0  0  0
 14 25  1  0  0  0  0
 15  4  1  0  0  0  0
 16  8  1  0  0  0  0
 17  8  1  0  0  0  0
 18  6  2  0  0  0  0
 19 10  1  0  0  0  0
 20  9  1  0  0  0  0
 21 10  2  0  0  0  0
 22  9  2  0  0  0  0
 23 17  1  0  0  0  0
 24 16  1  0  0  0  0
 25 23  1  0  0  0  0
 26 15  1  0  0  0  0
 27  7  2  0  0  0  0
 28 11  1  0  0  0  0
 29 30  2  0  0  0  0
 30 27  1  0  0  0  0
 31 28  2  0  0  0  0
 32 15  2  0  0  0  0
 20 19  1  0  0  0  0
 12 29  1  0  0  0  0
 24 25  1  0  0  0  0
  4 11  2  0  0  0  0
 31 32  1  0  0  0  0
M  END
> <IDNUMBER>
F5939-1203

> <Chemical_Name>
1-(3-{4-[(4-chloro-1,3-benzothiazol-2-yl)oxy]piperidine-1-carbonyl}phenyl)pyrrolidine-2,5-dione

> <CAS>
1331359-76-2

> <PriceCoeff>
1.00

> <MW>
469.94

> <Description>
solid

> <FSP3>
0.30

> <clogP>
2.41

> <TPSA>
108.05

> <Acceptor>
5

> <Donor>
0

> <RotBonds>
5

> <HAC>
32

> <Collection>
General

$$$$
F5461-0265
  -ISIS-  06222304352D

 35 38  0  0  0  0  0  0  0  0999 V2000
   -3.7208    0.6833    0.0000 N   0  0  3  0  0  0  0  0  0  0  0  0
   -1.6833    6.4542    0.0000 N   0  0  0  0  0  0  0  0  0  0  0  0
   -1.3750    7.1375    0.0000 C   0  0  0  0  0  0  0  0  0  0  0  0
   -3.7250    3.6833    0.0000 C   0  0  0  0  0  0  0  0  0  0  0  0
   -1.1250    5.9500    0.0000 C   0  0  0  0  0  0  0  0  0  0  0  0
   -3.0750    4.0667    0.0000 N   0  0  3  0  0  0  0  0  0  0  0  0
   -3.1375    0.2208    0.0000 C   0  0  0  0  0  0  0  0  0  0  0  0
   -4.3458    0.2708    0.0000 C   0  0  0  0  0  0  0  0  0  0  0  0
   -0.4833    6.3250    0.0000 S   0  0  0  0  0  0  0  0  0  0  0  0
   -0.6375    7.0625    0.0000 C   0  0  0  0  0  0  0  0  0  0  0  0
   -1.7833    4.8167    0.0000 N   0  0  3  0  0  0  0  0  0  0  0  0
   -3.7208    1.4333    0.0000 C   0  0  0  0  0  0  0  0  0  0  0  0
   -3.7208    2.9333    0.0000 C   0  0  0  0  0  0  0  0  0  0  0  0
   -1.7208    7.8000    0.0000 C   0  0  0  0  0  0  0  0  0  0  0  0
   -1.1250    5.2000    0.0000 C   0  0  0  0  0  0  0  0  0  0  0  0
   -4.3833    4.0542    0.0000 O   0  0  0  0  0  0  0  0  0  0  0  0
   -3.4083   -0.4792    0.0000 C   0  0  0  0  0  0  0  0  0  0  0  0
   -4.1458   -0.4542    0.0000 C   0  0  0  0  0  0  0  0  0  0  0  0
   -2.4333    3.6958    0.0000 C   0  0  0  0  0  0  0  0  0  0  0  0
   -3.0750    4.8167    0.0000 C   0  0  0  0  0  0  0  0  0  0  0  0
   -2.4125    0.4208    0.0000 O   0  0  0  0  0  0  0  0  0  0  0  0
   -5.0583    0.5333    0.0000 O   0  0  0  0  0  0  0  0  0  0  0  0
   -4.3708    1.8083    0.0000 C   0  0  0  0  0  0  0  0  0  0  0  0
   -3.0750    1.8083    0.0000 C   0  0  0  0  0  0  0  0  0  0  0  0
   -4.3708    2.5583    0.0000 C   0  0  0  0  0  0  0  0  0  0  0  0
   -3.0750    2.5583    0.0000 C   0  0  0  0  0  0  0  0  0  0  0  0
   -2.4750    7.8292    0.0000 C   0  0  0  0  0  0  0  0  0  0  0  0
   -1.3208    8.4292    0.0000 C   0  0  0  0  0  0  0  0  0  0  0  0
   -1.7833    4.0667    0.0000 C   0  0  0  0  0  0  0  0  0  0  0  0
   -2.4333    5.1917    0.0000 C   0  0  0  0  0  0  0  0  0  0  0  0
   -2.4125    9.1292    0.0000 C   0  0  0  0  0  0  0  0  0  0  0  0
   -1.6625    9.1000    0.0000 C   0  0  0  0  0  0  0  0  0  0  0  0
   -2.8250    8.4917    0.0000 C   0  0  0  0  0  0  0  0  0  0  0  0
   -2.7458    9.8167    0.0000 F   0  0  0  0  0  0  0  0  0  0  0  0
    0.9875    4.8208    0.0000 Cl  0  0  0  0  0  0  0  0  0  0  0  0
  3  2  1  0  0  0  0
  4 13  1  0  0  0  0
  5 15  1  0  0  0  0
  6  4  1  0  0  0  0
  7  1  1  0  0  0  0
  8  1  1  0  0  0  0
  9  5  1  0  0  0  0
 10  9  1  0  0  0  0
 11 30  1  0  0  0  0
 12  1  1  0  0  0  0
 13 26  1  0  0  0  0
 14  3  1  0  0  0  0
 15 11  1  0  0  0  0
 16  4  2  0  0  0  0
 17  7  1  0  0  0  0
 18  8  1  0  0  0  0
 19  6  1  0  0  0  0
 20  6  1  0  0  0  0
 21  7  2  0  0  0  0
 22  8  2  0  0  0  0
 23 12  2  0  0  0  0
 24 12  1  0  0  0  0
 25 23  1  0  0  0  0
 26 24  2  0  0  0  0
 27 14  1  0  0  0  0
 28 14  2  0  0  0  0
 29 19  1  0  0  0  0
 30 20  1  0  0  0  0
 31 32  2  0  0  0  0
 32 28  1  0  0  0  0
 33 27  2  0  0  0  0
 34 31  1  0  0  0  0
 18 17  1  0  0  0  0
 25 13  2  0  0  0  0
 11 29  1  0  0  0  0
  3 10  2  0  0  0  0
 33 31  1  0  0  0  0
  2  5  2  0  0  0  0
M  END
> <IDNUMBER>
F5461-0265

> <Chemical_Name>
1-[4-(4-{[4-(4-fluorophenyl)-1,3-thiazol-2-yl]methyl}piperazine-1-carbonyl)phenyl]pyrrolidine-2,5-dione hydrochloride

> <CAS>
1215759-13-9

> <PriceCoeff>
1.00

> <MW>
478.54

> <Description>
solid

> <FSP3>
0.28

> <clogP>
1.98

> <TPSA>
102.06

> <Acceptor>
4

> <Donor>
1

> <RotBonds>
6

> <HAC>
34

> <Collection>
General

$$$$
F3023-0933
  -ISIS-  06222321462D

 24 26  0  0  0  0  0  0  0  0999 V2000
    3.7625   -6.4042    0.0000 N   0  0  3  0  0  0  0  0  0  0  0  0
    4.1792   -5.8292    0.0000 C   0  0  0  0  0  0  0  0  0  0  0  0
    4.1792   -6.9750    0.0000 C   0  0  0  0  0  0  0  0  0  0  0  0
    4.8542   -6.7542    0.0000 C   0  0  3  0  0  0  0  0  0  0  0  0
    4.8542   -6.0417    0.0000 C   0  0  0  0  0  0  0  0  0  0  0  0
    3.0542   -6.4042    0.0000 C   0  0  0  0  0  0  0  0  0  0  0  0
    5.4292   -7.1667    0.0000 N   0  0  0  0  0  0  0  0  0  0  0  0
    3.9542   -5.1542    0.0000 O   0  0  0  0  0  0  0  0  0  0  0  0
    3.9667   -7.6500    0.0000 O   0  0  0  0  0  0  0  0  0  0  0  0
    7.3667   -6.3042    0.0000 C   0  0  0  0  0  0  0  0  0  0  0  0
    8.0167   -6.0125    0.0000 N   0  0  3  0  0  0  0  0  0  0  0  0
    2.7000   -5.7917    0.0000 C   0  0  0  0  0  0  0  0  0  0  0  0
    6.0792   -6.8792    0.0000 C   0  0  0  0  0  0  0  0  0  0  0  0
    7.3000   -7.0042    0.0000 C   0  0  0  0  0  0  0  0  0  0  0  0
    6.7917   -5.8875    0.0000 C   0  0  0  0  0  0  0  0  0  0  0  0
    6.6500   -7.2917    0.0000 C   0  0  0  0  0  0  0  0  0  0  0  0
    6.1417   -6.1750    0.0000 C   0  0  0  0  0  0  0  0  0  0  0  0
    2.7042   -7.0250    0.0000 C   0  0  0  0  0  0  0  0  0  0  0  0
    8.5917   -6.4292    0.0000 C   0  0  0  0  0  0  0  0  0  0  0  0
    8.0917   -5.3042    0.0000 C   0  0  0  0  0  0  0  0  0  0  0  0
    3.0500   -5.1792    0.0000 C   0  0  0  0  0  0  0  0  0  0  0  0
    1.9917   -5.8000    0.0000 C   0  0  0  0  0  0  0  0  0  0  0  0
    2.0042   -7.0292    0.0000 C   0  0  0  0  0  0  0  0  0  0  0  0
    1.6417   -6.4167    0.0000 C   0  0  0  0  0  0  0  0  0  0  0  0
  2  1  1  0  0  0  0
  3  1  1  0  0  0  0
  4  3  1  0  0  0  0
  5  2  1  0  0  0  0
  6  1  1  0  0  0  0
  7  4  1  0  0  0  0
  8  2  2  0  0  0  0
  9  3  2  0  0  0  0
 10 15  1  0  0  0  0
 11 10  1  0  0  0  0
 12  6  2  0  0  0  0
 13  7  1  0  0  0  0
 14 16  1  0  0  0  0
 15 17  2  0  0  0  0
 16 13  2  0  0  0  0
 17 13  1  0  0  0  0
 18  6  1  0  0  0  0
 19 11  1  0  0  0  0
 20 11  1  0  0  0  0
 21 12  1  0  0  0  0
 22 12  1  0  0  0  0
 23 18  2  0  0  0  0
 24 23  1  0  0  0  0
  5  4  1  0  0  0  0
 24 22  2  0  0  0  0
 10 14  2  0  0  0  0
M  END
> <IDNUMBER>
F3023-0933

> <Chemical_Name>
3-{[4-(dimethylamino)phenyl]amino}-1-(2-methylphenyl)pyrrolidine-2,5-dione

> <CAS>
1009289-72-8

> <PriceCoeff>
1.00

> <MW>
323.39

> <Description>
solid

> <FSP3>
0.26

> <clogP>
2.75

> <TPSA>
52.65

> <Acceptor>
4

> <Donor>
2

> <RotBonds>
4

> <HAC>
24

> <Collection>
General

$$$$
F0675-0110
  -ISIS-  06222321452D

 19 20  0  0  0  0  0  0  0  0999 V2000
   -2.0250    2.2708    0.0000 C   0  0  0  0  0  0  0  0  0  0  0  0
   -1.7833    1.4833    0.0000 C   0  0  0  0  0  0  0  0  0  0  0  0
   -1.5458    2.9333    0.0000 C   0  0  0  0  0  0  0  0  0  0  0  0
   -2.4458    1.0000    0.0000 N   0  0  0  0  0  0  0  0  0  0  0  0
   -2.8500    2.2708    0.0000 C   0  0  0  0  0  0  0  0  0  0  0  0
   -0.7208    2.8458    0.0000 C   0  0  0  0  0  0  0  0  0  0  0  0
   -3.1083    1.4875    0.0000 C   0  0  0  0  0  0  0  0  0  0  0  0
   -1.8750    3.6875    0.0000 O   0  0  0  0  0  0  0  0  0  0  0  0
   -0.3875    2.0958    0.0000 O   0  0  0  0  0  0  0  0  0  0  0  0
   -0.2375    3.5083    0.0000 N   0  0  0  0  0  0  0  0  0  0  0  0
   -3.3958    2.8833    0.0000 C   0  0  0  0  0  0  0  0  0  0  0  0
   -3.9125    1.3208    0.0000 C   0  0  0  0  0  0  0  0  0  0  0  0
   -0.5708    4.2625    0.0000 C   0  0  0  0  0  0  0  0  0  0  0  0
   -0.0875    4.9292    0.0000 C   0  0  0  0  0  0  0  0  0  0  0  0
    0.0542    6.3417    0.0000 C   0  0  0  0  0  0  0  0  0  0  0  0
   -0.4250    5.6792    0.0000 C   0  0  0  0  0  0  0  0  0  0  0  0
   -4.2083    2.7125    0.0000 C   0  0  0  0  0  0  0  0  0  0  0  0
   -0.2833    7.0917    0.0000 C   0  0  0  0  0  0  0  0  0  0  0  0
   -4.4583    1.9333    0.0000 C   0  0  0  0  0  0  0  0  0  0  0  0
  2  1  2  0  0  0  0
  3  1  1  0  0  0  0
  4  2  1  0  0  0  0
  5  1  1  0  0  0  0
  6  3  1  0  0  0  0
  7  5  2  0  0  0  0
  8  3  2  0  0  0  0
  9  6  2  0  0  0  0
 10  6  1  0  0  0  0
 11  5  1  0  0  0  0
 12  7  1  0  0  0  0
 13 10  1  0  0  0  0
 14 13  1  0  0  0  0
 15 16  1  0  0  0  0
 16 14  1  0  0  0  0
 17 11  2  0  0  0  0
 18 15  1  0  0  0  0
 19 17  1  0  0  0  0
  7  4  1  0  0  0  0
 19 12  2  0  0  0  0
M  END
> <IDNUMBER>
F0675-0110

> <Chemical_Name>
2-(1H-indol-3-yl)-2-oxo-N-pentylacetamide

> <CAS>
852367-55-6

> <PriceCoeff>
1.00

> <MW>
258.32

> <Description>
solid

> <FSP3>
0.33

> <clogP>
3.05

> <TPSA>
61.96

> <Acceptor>
2

> <Donor>
2

> <RotBonds>
6

> <HAC>
19

> <Collection>
General

> <Reference_compound>
CHEMBL487932

> <Similarity>
0.8130

$$$$
F2880-1008
  -ISIS-  06222321152D

 28 30  0  0  0  0  0  0  0  0999 V2000
   -0.0333    6.8042    0.0000 N   0  3  0  0  0  0  0  0  0  0  0  0
   -1.9833    5.6667    0.0000 C   0  0  0  0  0  0  0  0  0  0  0  0
   -2.6208    5.2917    0.0000 C   0  0  0  0  0  0  0  0  0  0  0  0
   -1.9833    6.4250    0.0000 C   0  0  0  0  0  0  0  0  0  0  0  0
   -0.6833    6.4250    0.0000 C   0  0  0  0  0  0  0  0  0  0  0  0
   -1.3333    6.8000    0.0000 C   0  0  0  0  0  0  0  0  0  0  0  0
   -5.2208    5.2917    0.0000 N   0  0  3  0  0  0  0  0  0  0  0  0
   -3.2750    5.6667    0.0000 N   0  0  0  0  0  0  0  0  0  0  0  0
   -4.5833    5.6667    0.0000 C   0  0  3  0  0  0  0  0  0  0  0  0
   -1.3333    5.2917    0.0000 C   0  0  0  0  0  0  0  0  0  0  0  0
   -3.9250    5.2917    0.0000 C   0  0  0  0  0  0  0  0  0  0  0  0
    0.6167    6.4292    0.0000 O   0  5  0  0  0  0  0  0  0  0  0  0
   -0.0333    7.5542    0.0000 O   0  0  0  0  0  0  0  0  0  0  0  0
   -4.5833    6.4250    0.0000 C   0  0  0  0  0  0  0  0  0  0  0  0
   -0.6833    5.6667    0.0000 C   0  0  0  0  0  0  0  0  0  0  0  0
   -2.6250    4.5417    0.0000 O   0  0  0  0  0  0  0  0  0  0  0  0
   -6.5167    4.5417    0.0000 O   0  0  0  0  0  0  0  0  0  0  0  0
   -5.2208    6.8000    0.0000 C   0  0  0  0  0  0  0  0  0  0  0  0
   -3.9250    6.8000    0.0000 C   0  0  0  0  0  0  0  0  0  0  0  0
   -2.6333    6.8042    0.0000 Cl  0  0  0  0  0  0  0  0  0  0  0  0
   -4.5833    7.9250    0.0000 C   0  0  0  0  0  0  0  0  0  0  0  0
   -3.9250    7.5500    0.0000 C   0  0  0  0  0  0  0  0  0  0  0  0
   -5.2208    7.5500    0.0000 C   0  0  0  0  0  0  0  0  0  0  0  0
   -4.5833    8.6750    0.0000 F   0  0  0  0  0  0  0  0  0  0  0  0
   -5.2208    4.5417    0.0000 C   0  0  0  0  0  0  0  0  0  0  0  0
   -5.8708    5.6667    0.0000 C   0  0  0  0  0  0  0  0  0  0  0  0
   -6.5167    5.2917    0.0000 C   0  0  0  0  0  0  0  0  0  0  0  0
   -5.8708    4.1667    0.0000 C   0  0  0  0  0  0  0  0  0  0  0  0
  2 10  2  0  0  0  0
  3  2  1  0  0  0  0
  4  6  2  0  0  0  0
  5  1  1  0  0  0  0
  6  5  1  0  0  0  0
  7  9  1  0  0  0  0
  8  3  1  0  0  0  0
  9 11  1  0  0  0  0
 10 15  1  0  0  0  0
 11  8  1  0  0  0  0
 12  1  1  0  0  0  0
 13  1  2  0  0  0  0
 14  9  1  0  0  0  0
 15  5  2  0  0  0  0
 16  3  2  0  0  0  0
 17 27  1  0  0  0  0
 18 14  2  0  0  0  0
 19 14  1  0  0  0  0
 20  4  1  0  0  0  0
 21 22  1  0  0  0  0
 22 19  2  0  0  0  0
 23 18  1  0  0  0  0
 24 21  1  0  0  0  0
 25  7  1  0  0  0  0
 26  7  1  0  0  0  0
 27 26  1  0  0  0  0
 28 25  1  0  0  0  0
  2  4  1  0  0  0  0
 21 23  2  0  0  0  0
 28 17  1  0  0  0  0
M  CHG  2   1   1  12  -1
M  END
> <IDNUMBER>
F2880-1008

> <Chemical_Name>
2-chloro-N-[2-(4-fluorophenyl)-2-(morpholin-4-yl)ethyl]-4-nitrobenzamide

> <CAS>
941896-76-0

> <PriceCoeff>
1.00

> <MW>
407.82

> <Description>
solid

> <FSP3>
0.32

> <clogP>
2.98

> <TPSA>
84.71

> <Acceptor>
4

> <Donor>
2

> <RotBonds>
6

> <HAC>
28

> <Collection>
General

$$$$
F3139-2868
  -ISIS-  06222321152D

 23 26  0  0  0  0  0  0  0  0999 V2000
    1.5417   -1.2792    0.0000 C   0  0  0  0  0  0  0  0  0  0  0  0
    0.3042   -1.2917    0.0000 C   0  0  0  0  0  0  0  0  0  0  0  0
    0.9167   -1.6417    0.0000 C   0  0  0  0  0  0  0  0  0  0  0  0
    0.3042   -0.5750    0.0000 C   0  0  0  0  0  0  0  0  0  0  0  0
    0.9125   -0.2042    0.0000 O   0  0  0  0  0  0  0  0  0  0  0  0
    1.5375   -0.5667    0.0000 C   0  0  0  0  0  0  0  0  0  0  0  0
   -0.3125   -0.2167    0.0000 C   0  0  0  0  0  0  0  0  0  0  0  0
    2.1542   -1.6375    0.0000 C   0  0  0  0  0  0  0  0  0  0  0  0
   -0.3125   -1.6417    0.0000 C   0  0  0  0  0  0  0  0  0  0  0  0
    3.3750   -1.6292    0.0000 C   0  0  0  0  0  0  0  0  0  0  0  0
    2.7667   -1.2792    0.0000 C   0  0  0  0  0  0  0  0  0  0  0  0
   -0.9250   -0.5750    0.0000 C   0  0  0  0  0  0  0  0  0  0  0  0
    3.3792   -2.3417    0.0000 C   0  0  0  0  0  0  0  0  0  0  0  0
    0.9250   -2.3500    0.0000 O   0  0  0  0  0  0  0  0  0  0  0  0
    3.9917   -1.2667    0.0000 O   0  0  0  0  0  0  0  0  0  0  0  0
    2.1542   -2.3417    0.0000 C   0  0  0  0  0  0  0  0  0  0  0  0
    3.9917   -2.7000    0.0000 O   0  0  0  0  0  0  0  0  0  0  0  0
   -0.9250   -1.2875    0.0000 C   0  0  0  0  0  0  0  0  0  0  0  0
    2.7667   -2.6917    0.0000 C   0  0  0  0  0  0  0  0  0  0  0  0
   -1.5375   -0.2167    0.0000 O   0  0  0  0  0  0  0  0  0  0  0  0
   -0.3208    0.4875    0.0000 C   0  0  0  0  0  0  0  0  0  0  0  0
    4.6125   -1.6250    0.0000 C   0  0  0  0  0  0  0  0  0  0  0  0
    4.6125   -2.3417    0.0000 C   0  0  0  0  0  0  0  0  0  0  0  0
  2  3  1  0  0  0  0
  3  1  1  0  0  0  0
  4  5  1  0  0  0  0
  5  6  1  0  0  0  0
  6  1  2  0  0  0  0
  7  4  2  0  0  0  0
  8  1  1  0  0  0  0
  9  2  2  0  0  0  0
 10 11  2  0  0  0  0
 11  8  1  0  0  0  0
 12  7  1  0  0  0  0
 13 19  2  0  0  0  0
 14  3  2  0  0  0  0
 15 10  1  0  0  0  0
 16  8  2  0  0  0  0
 17 13  1  0  0  0  0
 18  9  1  0  0  0  0
 19 16  1  0  0  0  0
 20 12  1  0  0  0  0
 21  7  1  0  0  0  0
 22 15  1  0  0  0  0
 23 17  1  0  0  0  0
  2  4  1  0  0  0  0
 13 10  1  0  0  0  0
 18 12  2  0  0  0  0
 23 22  1  0  0  0  0
M  END
> <IDNUMBER>
F3139-2868

> <Chemical_Name>
3-(2,3-dihydro-1,4-benzodioxin-6-yl)-7-hydroxy-8-methyl-4H-chromen-4-one

> <CAS>
202914-32-7

> <PriceCoeff>
1.00

> <MW>
310.30

> <Description>
solid

> <FSP3>
0.17

> <clogP>
3.09

> <TPSA>
64.99

> <Acceptor>
5

> <Donor>
1

> <RotBonds>
1

> <HAC>
23

> <Collection>
General

> <Reference_compound>
CHEMBL44

> <Similarity>
0.8170

$$$$
F3205-0001
  -ISIS-  06222321152D

 24 27  0  0  0  0  0  0  0  0999 V2000
    3.7750   -2.6625    0.0000 N   0  0  3  0  0  0  0  0  0  0  0  0
    4.2542   -1.9917    0.0000 C   0  0  0  0  0  0  0  0  0  0  0  0
    4.2667   -3.3292    0.0000 C   0  0  0  0  0  0  0  0  0  0  0  0
    5.0500   -3.0667    0.0000 C   0  0  3  0  0  0  0  0  0  0  0  0
    5.0417   -2.2417    0.0000 C   0  0  0  0  0  0  0  0  0  0  0  0
    2.9542   -2.6667    0.0000 C   0  0  0  0  0  0  0  0  0  0  0  0
    5.7125   -3.5417    0.0000 N   0  0  0  0  0  0  0  0  0  0  0  0
    7.8792   -3.3417    0.0000 C   0  0  0  0  0  0  0  0  0  0  0  0
    7.1292   -3.6875    0.0000 C   0  0  0  0  0  0  0  0  0  0  0  0
    4.0000   -1.2042    0.0000 O   0  0  0  0  0  0  0  0  0  0  0  0
    7.9625   -2.5292    0.0000 C   0  0  0  0  0  0  0  0  0  0  0  0
    8.6375   -3.6750    0.0000 O   0  0  0  0  0  0  0  0  0  0  0  0
    6.4625   -3.2042    0.0000 C   0  0  0  0  0  0  0  0  0  0  0  0
    4.0125   -4.1125    0.0000 O   0  0  0  0  0  0  0  0  0  0  0  0
    8.7667   -2.3500    0.0000 O   0  0  0  0  0  0  0  0  0  0  0  0
    9.1792   -3.0542    0.0000 C   0  0  0  0  0  0  0  0  0  0  0  0
    2.5417   -3.3792    0.0000 C   0  0  0  0  0  0  0  0  0  0  0  0
    7.2875   -2.0500    0.0000 C   0  0  0  0  0  0  0  0  0  0  0  0
    6.5417   -2.3917    0.0000 C   0  0  0  0  0  0  0  0  0  0  0  0
    2.5375   -1.9542    0.0000 C   0  0  0  0  0  0  0  0  0  0  0  0
    2.9667   -4.0917    0.0000 C   0  0  0  0  0  0  0  0  0  0  0  0
    1.7250   -3.3875    0.0000 C   0  0  0  0  0  0  0  0  0  0  0  0
    1.7125   -1.9542    0.0000 C   0  0  0  0  0  0  0  0  0  0  0  0
    1.3042   -2.6750    0.0000 C   0  0  0  0  0  0  0  0  0  0  0  0
  2  1  1  0  0  0  0
  3  1  1  0  0  0  0
  4  3  1  0  0  0  0
  5  2  1  0  0  0  0
  6  1  1  0  0  0  0
  7  4  1  0  0  0  0
  8  9  1  0  0  0  0
  9 13  2  0  0  0  0
 10  2  2  0  0  0  0
 11 18  1  0  0  0  0
 12  8  1  0  0  0  0
 13  7  1  0  0  0  0
 14  3  2  0  0  0  0
 15 11  1  0  0  0  0
 16 12  1  0  0  0  0
 17  6  1  0  0  0  0
 18 19  2  0  0  0  0
 19 13  1  0  0  0  0
 20  6  2  0  0  0  0
 21 17  1  0  0  0  0
 22 17  2  0  0  0  0
 23 20  1  0  0  0  0
 24 23  2  0  0  0  0
  5  4  1  0  0  0  0
 24 22  1  0  0  0  0
  8 11  2  0  0  0  0
 15 16  1  0  0  0  0
M  END
> <IDNUMBER>
F3205-0001

> <Chemical_Name>
3-[(2H-1,3-benzodioxol-5-yl)amino]-1-(2-methylphenyl)pyrrolidine-2,5-dione

> <CAS>
1008268-26-5

> <PriceCoeff>
1.00

> <MW>
324.33

> <Description>
solid

> <FSP3>
0.22

> <clogP>
2.68

> <TPSA>
67.87

> <Acceptor>
5

> <Donor>
1

> <RotBonds>
3

> <HAC>
24

> <Collection>
General

$$$$
F2666-0121
  -ISIS-  06222321462D

 27 30  0  0  0  0  0  0  0  0999 V2000
   -3.8500    7.4042    0.0000 N   0  0  3  0  0  0  0  0  0  0  0  0
   -4.5625    7.6292    0.0000 C   0  0  0  0  0  0  0  0  0  0  0  0
   -3.8500    6.6542    0.0000 C   0  0  0  0  0  0  0  0  0  0  0  0
   -4.5000    6.2792    0.0000 C   0  0  0  0  0  0  0  0  0  0  0  0
   -4.4958    1.0333    0.0000 N   0  3  0  0  0  0  0  0  0  0  0  0
   -4.4958    3.2833    0.0000 C   0  0  0  0  0  0  0  0  0  0  0  0
   -4.4958    4.0292    0.0000 C   0  0  0  0  0  0  0  0  0  0  0  0
   -5.0583    6.7792    0.0000 C   0  0  3  0  0  0  0  0  0  0  0  0
   -3.2083    6.2792    0.0000 C   0  0  0  0  0  0  0  0  0  0  0  0
   -3.8500    2.9083    0.0000 C   0  0  0  0  0  0  0  0  0  0  0  0
   -4.4958    1.7833    0.0000 C   0  0  0  0  0  0  0  0  0  0  0  0
   -3.8500    4.4042    0.0000 N   0  0  0  0  0  0  0  0  0  0  0  0
   -3.8500    2.1583    0.0000 C   0  0  0  0  0  0  0  0  0  0  0  0
   -3.8500    5.1542    0.0000 C   0  0  0  0  0  0  0  0  0  0  0  0
   -5.1458    2.9083    0.0000 C   0  0  0  0  0  0  0  0  0  0  0  0
   -4.5000    5.5292    0.0000 C   0  0  0  0  0  0  0  0  0  0  0  0
   -3.2083    5.5292    0.0000 C   0  0  0  0  0  0  0  0  0  0  0  0
   -5.1458    0.6583    0.0000 O   0  5  0  0  0  0  0  0  0  0  0  0
   -4.7083    8.3667    0.0000 O   0  0  0  0  0  0  0  0  0  0  0  0
   -3.8458    0.6583    0.0000 O   0  0  0  0  0  0  0  0  0  0  0  0
   -5.1458    4.4042    0.0000 O   0  0  0  0  0  0  0  0  0  0  0  0
   -5.1458    2.1583    0.0000 C   0  0  0  0  0  0  0  0  0  0  0  0
   -3.2083    7.7792    0.0000 C   0  0  0  0  0  0  0  0  0  0  0  0
   -3.1958    3.2958    0.0000 Cl  0  0  0  0  0  0  0  0  0  0  0  0
   -2.5583    6.6542    0.0000 C   0  0  0  0  0  0  0  0  0  0  0  0
   -5.7833    6.5542    0.0000 C   0  0  0  0  0  0  0  0  0  0  0  0
   -2.5583    7.4042    0.0000 C   0  0  0  0  0  0  0  0  0  0  0  0
  2  1  1  0  0  0  0
  3  1  1  0  0  0  0
  4  3  1  0  0  0  0
  5 11  1  0  0  0  0
  6  7  1  0  0  0  0
  7 12  1  0  0  0  0
  8  2  1  0  0  0  0
  9  3  2  0  0  0  0
 10  6  1  0  0  0  0
 11 22  2  0  0  0  0
 12 14  1  0  0  0  0
 13 10  2  0  0  0  0
 14 17  2  0  0  0  0
 15  6  2  0  0  0  0
 16  4  2  0  0  0  0
 17  9  1  0  0  0  0
 18  5  1  0  0  0  0
 19  2  2  0  0  0  0
 20  5  2  0  0  0  0
 21  7  2  0  0  0  0
 22 15  1  0  0  0  0
 23  1  1  0  0  0  0
 24 10  1  0  0  0  0
 25 27  1  0  0  0  0
 26  8  1  0  0  0  0
 27 23  1  0  0  0  0
  8  4  1  0  0  0  0
 25  9  1  0  0  0  0
 14 16  1  0  0  0  0
 11 13  1  0  0  0  0
M  CHG  2   5   1  18  -1
M  END
> <IDNUMBER>
F2666-0121

> <Chemical_Name>
2-chloro-N-{3-methyl-2-oxo-1-azatricyclo[6.3.1.0^{4,12}]dodeca-4,6,8(12)-trien-6-yl}-4-nitrobenzamide

> <CAS>
903334-80-5

> <PriceCoeff>
1.00

> <MW>
385.80

> <Description>
solid

> <FSP3>
0.26

> <clogP>
2.58

> <TPSA>
92.55

> <Acceptor>
4

> <Donor>
1

> <RotBonds>
3

> <HAC>
27

> <Collection>
General

$$$$
F2738-2186
  -ISIS-  06222321462D

 31 34  0  0  0  0  0  0  0  0999 V2000
   -3.1583    3.3958    0.0000 C   0  0  0  0  0  0  0  0  0  0  0  0
   -2.4000    3.7333    0.0000 N   0  0  0  0  0  0  0  0  0  0  0  0
   -6.0042    3.3958    0.0000 N   0  0  3  0  0  0  0  0  0  0  0  0
   -3.8708    3.8000    0.0000 N   0  0  3  0  0  0  0  0  0  0  0  0
   -3.0750    2.5833    0.0000 S   0  0  0  0  0  0  0  0  0  0  0  0
   -1.8583    3.1208    0.0000 C   0  0  0  0  0  0  0  0  0  0  0  0
   -2.2625    2.4083    0.0000 C   0  0  0  0  0  0  0  0  0  0  0  0
   -4.5833    3.3958    0.0000 C   0  0  0  0  0  0  0  0  0  0  0  0
   -5.3083    3.8083    0.0000 C   0  0  0  0  0  0  0  0  0  0  0  0
   -6.7542    3.7333    0.0000 C   0  0  0  0  0  0  0  0  0  0  0  0
   -6.0792    2.5708    0.0000 C   0  0  0  0  0  0  0  0  0  0  0  0
   -3.8708    4.6167    0.0000 C   0  0  0  0  0  0  0  0  0  0  0  0
   -1.0333    3.1208    0.0000 C   0  0  0  0  0  0  0  0  0  0  0  0
   -1.8583    1.6958    0.0000 C   0  0  0  0  0  0  0  0  0  0  0  0
   -4.5833    2.5708    0.0000 O   0  0  0  0  0  0  0  0  0  0  0  0
   -7.3042    3.1083    0.0000 C   0  0  0  0  0  0  0  0  0  0  0  0
   -6.8917    2.3958    0.0000 C   0  0  0  0  0  0  0  0  0  0  0  0
   -6.9292    4.5125    0.0000 O   0  0  0  0  0  0  0  0  0  0  0  0
   -5.4833    2.0250    0.0000 O   0  0  0  0  0  0  0  0  0  0  0  0
   -2.4458    4.6042    0.0000 N   0  0  0  0  0  0  0  0  0  0  0  0
   -0.6250    2.4000    0.0000 C   0  0  0  0  0  0  0  0  0  0  0  0
   -1.0333    1.6875    0.0000 C   0  0  0  0  0  0  0  0  0  0  0  0
   -3.1583    5.0250    0.0000 C   0  0  0  0  0  0  0  0  0  0  0  0
   -2.2708    0.9833    0.0000 O   0  0  0  0  0  0  0  0  0  0  0  0
   -0.6208    3.8208    0.0000 O   0  0  0  0  0  0  0  0  0  0  0  0
   -1.7375    5.0167    0.0000 C   0  0  0  0  0  0  0  0  0  0  0  0
   -3.1583    5.8417    0.0000 C   0  0  0  0  0  0  0  0  0  0  0  0
   -1.8625    0.2708    0.0000 C   0  0  0  0  0  0  0  0  0  0  0  0
    0.1792    3.9583    0.0000 C   0  0  0  0  0  0  0  0  0  0  0  0
   -1.7333    5.8417    0.0000 C   0  0  0  0  0  0  0  0  0  0  0  0
   -2.4500    6.2542    0.0000 C   0  0  0  0  0  0  0  0  0  0  0  0
  2  1  2  0  0  0  0
  3  9  1  0  0  0  0
  4  1  1  0  0  0  0
  5  1  1  0  0  0  0
  6  2  1  0  0  0  0
  7  5  1  0  0  0  0
  8  4  1  0  0  0  0
  9  8  1  0  0  0  0
 10  3  1  0  0  0  0
 11  3  1  0  0  0  0
 12  4  1  0  0  0  0
 13  6  1  0  0  0  0
 14  7  1  0  0  0  0
 15  8  2  0  0  0  0
 16 10  1  0  0  0  0
 17 11  1  0  0  0  0
 18 10  2  0  0  0  0
 19 11  2  0  0  0  0
 20 23  2  0  0  0  0
 21 13  2  0  0  0  0
 22 14  2  0  0  0  0
 23 12  1  0  0  0  0
 24 14  1  0  0  0  0
 25 13  1  0  0  0  0
 26 20  1  0  0  0  0
 27 23  1  0  0  0  0
 28 24  1  0  0  0  0
 29 25  1  0  0  0  0
 30 31  1  0  0  0  0
 31 27  2  0  0  0  0
  7  6  2  0  0  0  0
 21 22  1  0  0  0  0
 30 26  2  0  0  0  0
 16 17  1  0  0  0  0
M  END
> <IDNUMBER>
F2738-2186

> <Chemical_Name>
N-(4,7-dimethoxy-1,3-benzothiazol-2-yl)-2-(2,5-dioxopyrrolidin-1-yl)-N-[(pyridin-2-yl)methyl]acetamide

> <CAS>
922911-33-9

> <PriceCoeff>
1.00

> <MW>
440.47

> <Description>
solid

> <FSP3>
0.29

> <clogP>
1.56

> <TPSA>
130.17

> <Acceptor>
7

> <Donor>
1

> <RotBonds>
8

> <HAC>
31

> <Collection>
General

$$$$
F3205-0025
  -ISIS-  06222321152D

 25 27  0  0  0  0  0  0  0  0999 V2000
    4.7792   -5.9667    0.0000 N   0  0  3  0  0  0  0  0  0  0  0  0
    5.2625   -5.3000    0.0000 C   0  0  0  0  0  0  0  0  0  0  0  0
    5.2667   -6.6375    0.0000 C   0  0  0  0  0  0  0  0  0  0  0  0
    6.0542   -6.3750    0.0000 C   0  0  3  0  0  0  0  0  0  0  0  0
    3.9542   -5.9750    0.0000 C   0  0  0  0  0  0  0  0  0  0  0  0
    6.0500   -5.5500    0.0000 C   0  0  0  0  0  0  0  0  0  0  0  0
    7.4667   -6.5167    0.0000 C   0  0  0  0  0  0  0  0  0  0  0  0
    8.1375   -6.9917    0.0000 C   0  0  0  0  0  0  0  0  0  0  0  0
    6.7167   -6.8542    0.0000 S   0  0  0  0  0  0  0  0  0  0  0  0
    3.5542   -6.6917    0.0000 C   0  0  0  0  0  0  0  0  0  0  0  0
    8.0542   -7.8167    0.0000 C   0  0  0  0  0  0  0  0  0  0  0  0
    2.7292   -6.7000    0.0000 C   0  0  0  0  0  0  0  0  0  0  0  0
    7.5417   -5.7000    0.0000 N   0  0  0  0  0  0  0  0  0  0  0  0
    5.0042   -4.5167    0.0000 O   0  0  0  0  0  0  0  0  0  0  0  0
    5.0167   -7.4167    0.0000 O   0  0  0  0  0  0  0  0  0  0  0  0
    3.5417   -5.2667    0.0000 C   0  0  0  0  0  0  0  0  0  0  0  0
    2.3125   -5.9875    0.0000 C   0  0  0  0  0  0  0  0  0  0  0  0
    8.7292   -8.3042    0.0000 O   0  0  0  0  0  0  0  0  0  0  0  0
    2.7167   -5.2667    0.0000 C   0  0  0  0  0  0  0  0  0  0  0  0
    2.3292   -7.4167    0.0000 Cl  0  0  0  0  0  0  0  0  0  0  0  0
    7.3042   -8.1625    0.0000 O   0  0  0  0  0  0  0  0  0  0  0  0
    8.8875   -6.6542    0.0000 C   0  0  0  0  0  0  0  0  0  0  0  0
    8.2917   -5.3542    0.0000 C   0  0  0  0  0  0  0  0  0  0  0  0
    1.4875   -5.9917    0.0000 C   0  0  0  0  0  0  0  0  0  0  0  0
    8.9667   -5.8375    0.0000 C   0  0  0  0  0  0  0  0  0  0  0  0
  2  1  1  0  0  0  0
  3  1  1  0  0  0  0
  4  3  1  0  0  0  0
  5  1  1  0  0  0  0
  6  2  1  0  0  0  0
  7  9  1  0  0  0  0
  8  7  2  0  0  0  0
  9  4  1  0  0  0  0
 10  5  1  0  0  0  0
 11  8  1  0  0  0  0
 12 10  2  0  0  0  0
 13  7  1  0  0  0  0
 14  2  2  0  0  0  0
 15  3  2  0  0  0  0
 16  5  2  0  0  0  0
 17 19  2  0  0  0  0
 18 11  2  0  0  0  0
 19 16  1  0  0  0  0
 20 12  1  0  0  0  0
 21 11  1  0  0  0  0
 22  8  1  0  0  0  0
 23 13  2  0  0  0  0
 24 17  1  0  0  0  0
 25 23  1  0  0  0  0
  6  4  1  0  0  0  0
 17 12  1  0  0  0  0
 25 22  2  0  0  0  0
M  END
> <IDNUMBER>
F3205-0025

> <Chemical_Name>
2-{[1-(3-chloro-4-methylphenyl)-2,5-dioxopyrrolidin-3-yl]sulfanyl}pyridine-3-carboxylic acid

> <CAS>
881483-69-8

> <PriceCoeff>
1.00

> <MW>
376.81

> <Description>
solid

> <FSP3>
0.18

> <clogP>
3.00

> <TPSA>
112.87

> <Acceptor>
5

> <Donor>
1

> <RotBonds>
4

> <HAC>
25

> <Collection>
General

$$$$
F6403-2768
  -ISIS-  06222321152D

 27 30  0  0  0  0  0  0  0  0999 V2000
    0.4417    4.9500    0.0000 N   0  0  3  0  0  0  0  0  0  0  0  0
   -0.3083    4.6167    0.0000 C   0  0  0  0  0  0  0  0  0  0  0  0
   -3.8708    3.3958    0.0000 C   0  0  0  0  0  0  0  0  0  0  0  0
    0.5792    3.6333    0.0000 N   0  0  0  0  0  0  0  0  0  0  0  0
    0.9917    4.3417    0.0000 C   0  0  0  0  0  0  0  0  0  0  0  0
   -3.1583    3.8000    0.0000 N   0  0  3  0  0  0  0  0  0  0  0  0
   -0.2208    3.8083    0.0000 C   0  0  0  0  0  0  0  0  0  0  0  0
   -3.8208    2.5708    0.0000 N   0  0  0  0  0  0  0  0  0  0  0  0
   -1.7333    4.6167    0.0000 N   0  0  3  0  0  0  0  0  0  0  0  0
   -1.0208    5.0292    0.0000 C   0  0  0  0  0  0  0  0  0  0  0  0
   -5.9250    2.0375    0.0000 C   0  0  0  0  0  0  0  0  0  0  0  0
   -5.2458    2.4875    0.0000 C   0  0  0  0  0  0  0  0  0  0  0  0
    0.6917    5.7333    0.0000 C   0  0  0  0  0  0  0  0  0  0  0  0
   -4.5083    2.1208    0.0000 C   0  0  0  0  0  0  0  0  0  0  0  0
   -4.5583    3.8458    0.0000 O   0  0  0  0  0  0  0  0  0  0  0  0
    1.8000    4.5125    0.0000 C   0  0  0  0  0  0  0  0  0  0  0  0
   -5.8750    1.2083    0.0000 C   0  0  0  0  0  0  0  0  0  0  0  0
   -2.4458    3.3833    0.0000 C   0  0  0  0  0  0  0  0  0  0  0  0
   -3.1583    4.6167    0.0000 C   0  0  0  0  0  0  0  0  0  0  0  0
    1.5000    5.9000    0.0000 C   0  0  0  0  0  0  0  0  0  0  0  0
    2.0500    5.2917    0.0000 C   0  0  0  0  0  0  0  0  0  0  0  0
   -5.1458    0.8375    0.0000 C   0  0  0  0  0  0  0  0  0  0  0  0
   -2.4458    5.0292    0.0000 C   0  0  0  0  0  0  0  0  0  0  0  0
   -1.7250    3.7958    0.0000 C   0  0  0  0  0  0  0  0  0  0  0  0
   -6.6542    2.3958    0.0000 Cl  0  0  0  0  0  0  0  0  0  0  0  0
   -4.4583    1.2875    0.0000 C   0  0  0  0  0  0  0  0  0  0  0  0
   -6.5542    0.7583    0.0000 Cl  0  0  0  0  0  0  0  0  0  0  0  0
  2  1  1  0  0  0  0
  3  6  1  0  0  0  0
  4  5  2  0  0  0  0
  5  1  1  0  0  0  0
  6 18  1  0  0  0  0
  7  2  2  0  0  0  0
  8  3  1  0  0  0  0
  9 10  1  0  0  0  0
 10  2  1  0  0  0  0
 11 12  1  0  0  0  0
 12 14  2  0  0  0  0
 13  1  1  0  0  0  0
 14  8  1  0  0  0  0
 15  3  2  0  0  0  0
 16  5  1  0  0  0  0
 17 22  1  0  0  0  0
 18 24  1  0  0  0  0
 19 23  1  0  0  0  0
 20 13  2  0  0  0  0
 21 20  1  0  0  0  0
 22 26  2  0  0  0  0
 23  9  1  0  0  0  0
 24  9  1  0  0  0  0
 25 11  1  0  0  0  0
 26 14  1  0  0  0  0
 27 17  1  0  0  0  0
  7  4  1  0  0  0  0
 16 21  2  0  0  0  0
 19  6  1  0  0  0  0
 11 17  2  0  0  0  0
M  END
> <IDNUMBER>
F6403-2768

> <Chemical_Name>
N-(3,4-dichlorophenyl)-4-({imidazo[1,2-a]pyridin-3-yl}methyl)piperazine-1-carboxamide

> <CAS>
1421504-93-9

> <PriceCoeff>
1.00

> <MW>
404.29

> <Description>
solid

> <FSP3>
0.26

> <clogP>
4.07

> <TPSA>
52.88

> <Acceptor>
2

> <Donor>
2

> <RotBonds>
4

> <HAC>
27

> <Collection>
General

$$$$
F0035-0009
  -ISIS-  06222321442D

 14 16  0  0  0  0  0  0  0  0999 V2000
   -2.8708   -0.2042    0.0000 C   0  0  3  0  0  0  0  0  0  0  0  0
   -3.6500   -0.5542    0.0000 C   0  0  0  0  0  0  0  0  0  0  0  0
   -3.4958   -0.9875    0.0000 C   0  0  0  0  0  0  0  0  0  0  0  0
   -2.8708    0.6708    0.0000 C   0  0  0  0  0  0  0  0  0  0  0  0
   -4.2708   -0.7167    0.0000 C   0  0  3  0  0  0  0  0  0  0  0  0
   -4.6333   -0.2042    0.0000 C   0  0  3  0  0  0  0  0  0  0  0  0
   -3.7833    1.0000    0.0000 C   0  0  3  0  0  0  0  0  0  0  0  0
   -1.7333   -0.6542    0.0000 C   0  0  3  0  0  0  0  0  0  0  0  0
   -4.6333    0.6333    0.0000 C   0  0  0  0  0  0  0  0  0  0  0  0
   -4.3000    0.4125    0.0000 C   0  0  0  0  0  0  0  0  0  0  0  0
   -5.2833   -0.9875    0.0000 C   0  0  0  0  0  0  0  0  0  0  0  0
   -1.6625   -1.7000    0.0000 O   0  0  0  0  0  0  0  0  0  0  0  0
   -0.6625   -0.1542    0.0000 C   0  0  0  0  0  0  0  0  0  0  0  0
    0.3667   -0.7792    0.0000 C   0  0  0  0  0  0  0  0  0  0  0  0
  2  1  1  0  0  0  0
  3  1  1  0  0  0  0
  4  1  1  0  0  0  0
  5  3  1  0  0  0  0
  6  2  1  0  0  0  0
  7  4  1  0  0  0  0
  8  1  1  0  0  0  0
  9  7  1  0  0  0  0
 10  7  1  0  0  0  0
 11  5  1  0  0  0  0
 12  8  1  0  0  0  0
 13  8  1  0  0  0  0
 14 13  1  0  0  0  0
 10  5  1  0  0  0  0
  9  6  1  0  0  0  0
  6 11  1  0  0  0  0
M  END
> <IDNUMBER>
F0035-0009

> <Chemical_Name>
1-(adamantan-1-yl)propan-1-ol

> <CAS>
18341-84-9

> <PriceCoeff>
1.00

> <MW>
194.31

> <Description>
solid

> <FSP3>
1.00

> <clogP>
4.39

> <TPSA>
20.23

> <Acceptor>
1

> <Donor>
1

> <RotBonds>
2

> <HAC>
14

> <Collection>
General

> <Reference_compound>
CHEMBL486208

> <Similarity>
0.8040

$$$$
F0378-0062
  -ISIS-  06222304342D

 19 20  0  0  0  0  0  0  0  0999 V2000
    4.6625   -0.7292    0.0000 S   0  0  3  0  0  0  0  0  0  0  0  0
    2.5167   -0.3042    0.0000 C   0  0  0  0  0  0  0  0  0  0  0  0
    3.9500   -0.3167    0.0000 C   0  0  0  0  0  0  0  0  0  0  0  0
    3.2292   -0.7292    0.0000 C   0  0  0  0  0  0  0  0  0  0  0  0
    1.8167   -0.7167    0.0000 C   0  0  0  0  0  0  0  0  0  0  0  0
    5.3125   -1.2167    0.0000 O   0  5  0  0  0  0  0  0  0  0  0  0
    5.3500   -0.0542    0.0000 O   0  0  0  0  0  0  0  0  0  0  0  0
    4.0792   -1.3042    0.0000 O   0  0  0  0  0  0  0  0  0  0  0  0
    2.5167    0.5208    0.0000 C   0  0  0  0  0  0  0  0  0  0  0  0
    3.9500    0.5208    0.0000 C   0  0  0  0  0  0  0  0  0  0  0  0
    1.1000   -0.3042    0.0000 C   0  0  0  0  0  0  0  0  0  0  0  0
    3.2292    0.9333    0.0000 C   0  0  0  0  0  0  0  0  0  0  0  0
    1.8125    0.9333    0.0000 C   0  0  0  0  0  0  0  0  0  0  0  0
    1.1000    0.5083    0.0000 C   0  0  0  0  0  0  0  0  0  0  0  0
    1.8167   -1.5417    0.0000 C   0  0  0  0  0  0  0  0  0  0  0  0
    0.3917   -0.7167    0.0000 C   0  0  0  0  0  0  0  0  0  0  0  0
    1.1000   -1.9542    0.0000 C   0  0  0  0  0  0  0  0  0  0  0  0
    0.3917   -1.5417    0.0000 C   0  0  0  0  0  0  0  0  0  0  0  0
    7.1292   -0.6125    0.0000 K   0  3  0  0  0  0  0  0  0  0  0  0
  3  1  1  0  0  0  0
  4  3  2  0  0  0  0
  5  2  2  0  0  0  0
  6  1  1  0  0  0  0
  7  1  2  0  0  0  0
  8  1  2  0  0  0  0
  9 12  1  0  0  0  0
 10  3  1  0  0  0  0
 11  5  1  0  0  0  0
 12 10  2  0  0  0  0
 13  9  2  0  0  0  0
 14 13  1  0  0  0  0
 15  5  1  0  0  0  0
 16 11  1  0  0  0  0
 17 15  2  0  0  0  0
 18 17  1  0  0  0  0
  2  9  1  0  0  0  0
 11 14  2  0  0  0  0
 18 16  2  0  0  0  0
  2  4  1  0  0  0  0
M  CHG  2   6  -1  19   1
M  END
> <IDNUMBER>
F0378-0062

> <Chemical_Name>
potassium phenanthrene-3-sulfonate

> <CAS>
22172-79-8

> <PriceCoeff>
1.00

> <MW>
257.28

> <Description>
solid

> <FSP3>
0.00

> <clogP>
-1.44

> <TPSA>
65.58

> <Acceptor>
3

> <Donor>
0

> <RotBonds>
1

> <HAC>
18

> <Collection>
General

> <Reference_compound>
PRI5741

> <Similarity>
0.8650

$$$$
F0396-0213
  -ISIS-  06222321142D

 32 36  0  0  0  0  0  0  0  0999 V2000
   -1.7958   -0.0542    0.0000 C   0  0  0  0  0  0  0  0  0  0  0  0
   -2.4208    0.2833    0.0000 N   0  0  3  0  0  0  0  0  0  0  0  0
   -3.0458   -0.0167    0.0000 N   0  0  0  0  0  0  0  0  0  0  0  0
   -2.0708   -0.7542    0.0000 C   0  0  0  0  0  0  0  0  0  0  0  0
   -1.0500    0.0458    0.0000 N   0  0  0  0  0  0  0  0  0  0  0  0
   -2.8000   -0.7000    0.0000 C   0  0  0  0  0  0  0  0  0  0  0  0
    2.3292    0.3208    0.0000 N   0  0  3  0  0  0  0  0  0  0  0  0
   -0.4625   -0.3667    0.0000 C   0  0  0  0  0  0  0  0  0  0  0  0
    2.5875    1.0458    0.0000 C   0  0  0  0  0  0  0  0  0  0  0  0
    2.9792   -0.0792    0.0000 C   0  0  0  0  0  0  0  0  0  0  0  0
   -2.4333    1.0125    0.0000 C   0  0  0  0  0  0  0  0  0  0  0  0
    1.5667    0.1208    0.0000 C   0  0  0  0  0  0  0  0  0  0  0  0
   -2.5458   -1.9167    0.0000 S   0  0  0  0  0  0  0  0  0  0  0  0
    0.0875   -0.1500    0.0000 C   0  0  0  0  0  0  0  0  0  0  0  0
   -0.6625   -1.0875    0.0000 O   0  0  0  0  0  0  0  0  0  0  0  0
    3.3500    1.0333    0.0000 C   0  0  0  0  0  0  0  0  0  0  0  0
    3.5792    0.2958    0.0000 C   0  0  0  0  0  0  0  0  0  0  0  0
    2.9875   -0.7542    0.0000 O   0  0  0  0  0  0  0  0  0  0  0  0
    2.1292    1.7000    0.0000 O   0  0  0  0  0  0  0  0  0  0  0  0
   -1.8833   -1.5000    0.0000 C   0  0  0  0  0  0  0  0  0  0  0  0
    1.0042    0.6708    0.0000 C   0  0  0  0  0  0  0  0  0  0  0  0
    1.4000   -0.4667    0.0000 C   0  0  0  0  0  0  0  0  0  0  0  0
    0.2667    0.4458    0.0000 C   0  0  0  0  0  0  0  0  0  0  0  0
    0.6667   -0.6875    0.0000 C   0  0  0  0  0  0  0  0  0  0  0  0
   -3.1000   -1.4167    0.0000 C   0  0  0  0  0  0  0  0  0  0  0  0
   -3.0708    1.3708    0.0000 C   0  0  0  0  0  0  0  0  0  0  0  0
   -1.8125    1.3833    0.0000 C   0  0  0  0  0  0  0  0  0  0  0  0
   -2.4333    2.4958    0.0000 C   0  0  0  0  0  0  0  0  0  0  0  0
   -3.0708    2.1125    0.0000 C   0  0  0  0  0  0  0  0  0  0  0  0
   -1.8125    2.1208    0.0000 C   0  0  0  0  0  0  0  0  0  0  0  0
   -2.4208    3.0208    0.0000 O   0  0  0  0  0  0  0  0  0  0  0  0
   -1.8208    3.3208    0.0000 C   0  0  0  0  0  0  0  0  0  0  0  0
  2  1  1  0  0  0  0
  3  2  1  0  0  0  0
  4  1  2  0  0  0  0
  5  1  1  0  0  0  0
  6  4  1  0  0  0  0
  7 12  1  0  0  0  0
  8  5  1  0  0  0  0
  9  7  1  0  0  0  0
 10  7  1  0  0  0  0
 11  2  1  0  0  0  0
 12 22  1  0  0  0  0
 13 20  1  0  0  0  0
 14  8  1  0  0  0  0
 15  8  2  0  0  0  0
 16  9  1  0  0  0  0
 17 10  1  0  0  0  0
 18 10  2  0  0  0  0
 19  9  2  0  0  0  0
 20  4  1  0  0  0  0
 21 23  1  0  0  0  0
 22 24  2  0  0  0  0
 23 14  2  0  0  0  0
 24 14  1  0  0  0  0
 25  6  1  0  0  0  0
 26 11  2  0  0  0  0
 27 11  1  0  0  0  0
 28 30  1  0  0  0  0
 29 26  1  0  0  0  0
 30 27  2  0  0  0  0
 31 28  1  0  0  0  0
 32 31  1  0  0  0  0
  6  3  2  0  0  0  0
 25 13  1  0  0  0  0
 28 29  2  0  0  0  0
 12 21  2  0  0  0  0
 16 17  1  0  0  0  0
M  END
> <IDNUMBER>
F0396-0213

> <Chemical_Name>
4-(2,5-dioxopyrrolidin-1-yl)-N-[2-(4-methoxyphenyl)-2H,4H,6H-thieno[3,4-c]pyrazol-3-yl]benzamide

> <CAS>
361477-29-4

> <PriceCoeff>
1.00

> <MW>
448.49

> <Description>
solid

> <FSP3>
0.22

> <clogP>
1.20

> <TPSA>
118.83

> <Acceptor>
5

> <Donor>
1

> <RotBonds>
5

> <HAC>
32

> <Collection>
General

$$$$
F5882-7419
  -ISIS-  06222321152D

 30 32  0  0  0  0  0  0  0  0999 V2000
    9.4167   -5.1417    0.0000 S   0  0  3  0  0  0  0  0  0  0  0  0
    7.3375   -5.8167    0.0000 N   0  0  3  0  0  0  0  0  0  0  0  0
   11.9917   -3.8125    0.0000 N   0  0  0  0  0  0  0  0  0  0  0  0
   11.4917   -4.4667    0.0000 C   0  0  0  0  0  0  0  0  0  0  0  0
   12.7667   -4.0792    0.0000 C   0  0  0  0  0  0  0  0  0  0  0  0
   12.7542   -4.9042    0.0000 N   0  0  0  0  0  0  0  0  0  0  0  0
    6.9375   -5.1000    0.0000 C   0  0  0  0  0  0  0  0  0  0  0  0
    6.9042   -6.5167    0.0000 C   0  0  0  0  0  0  0  0  0  0  0  0
   11.9667   -5.1417    0.0000 O   0  0  0  0  0  0  0  0  0  0  0  0
    8.5917   -5.1292    0.0000 C   0  0  0  0  0  0  0  0  0  0  0  0
    8.1667   -5.8375    0.0000 C   0  0  0  0  0  0  0  0  0  0  0  0
   10.2417   -5.1542    0.0000 N   0  0  0  0  0  0  0  0  0  0  0  0
   10.6667   -4.4542    0.0000 C   0  0  0  0  0  0  0  0  0  0  0  0
    9.4375   -4.3167    0.0000 O   0  0  0  0  0  0  0  0  0  0  0  0
    9.4042   -5.9667    0.0000 O   0  0  0  0  0  0  0  0  0  0  0  0
    7.3625   -4.3792    0.0000 O   0  0  0  0  0  0  0  0  0  0  0  0
    7.3042   -7.2417    0.0000 O   0  0  0  0  0  0  0  0  0  0  0  0
   13.4417   -3.6042    0.0000 C   0  0  0  0  0  0  0  0  0  0  0  0
   13.3750   -2.7917    0.0000 O   0  0  0  0  0  0  0  0  0  0  0  0
   14.0417   -2.3167    0.0000 C   0  0  0  0  0  0  0  0  0  0  0  0
   15.3917   -1.3792    0.0000 C   0  0  0  0  0  0  0  0  0  0  0  0
   14.7917   -2.6667    0.0000 C   0  0  0  0  0  0  0  0  0  0  0  0
   13.9750   -1.5042    0.0000 C   0  0  0  0  0  0  0  0  0  0  0  0
   14.6417   -1.0292    0.0000 C   0  0  0  0  0  0  0  0  0  0  0  0
   15.4667   -2.2000    0.0000 C   0  0  0  0  0  0  0  0  0  0  0  0
    6.0792   -6.5042    0.0000 C   0  0  0  0  0  0  0  0  0  0  0  0
    6.1167   -5.0792    0.0000 C   0  0  0  0  0  0  0  0  0  0  0  0
   16.0667   -0.9042    0.0000 O   0  0  0  0  0  0  0  0  0  0  0  0
    5.6875   -5.7792    0.0000 C   0  0  0  0  0  0  0  0  0  0  0  0
   16.8167   -1.2542    0.0000 C   0  0  0  0  0  0  0  0  0  0  0  0
  2 11  1  0  0  0  0
  3  4  2  0  0  0  0
  4 13  1  0  0  0  0
  5  3  1  0  0  0  0
  6  9  1  0  0  0  0
  7  2  1  0  0  0  0
  8  2  1  0  0  0  0
  9  4  1  0  0  0  0
 10  1  1  0  0  0  0
 11 10  1  0  0  0  0
 12  1  1  0  0  0  0
 13 12  1  0  0  0  0
 14  1  2  0  0  0  0
 15  1  2  0  0  0  0
 16  7  2  0  0  0  0
 17  8  2  0  0  0  0
 18  5  1  0  0  0  0
 19 18  1  0  0  0  0
 20 19  1  0  0  0  0
 21 24  1  0  0  0  0
 22 20  2  0  0  0  0
 23 20  1  0  0  0  0
 24 23  2  0  0  0  0
 25 22  1  0  0  0  0
 26  8  1  0  0  0  0
 27  7  1  0  0  0  0
 28 21  1  0  0  0  0
 29 26  1  0  0  0  0
 30 28  1  0  0  0  0
  6  5  2  0  0  0  0
 27 29  1  0  0  0  0
 25 21  2  0  0  0  0
M  END
> <IDNUMBER>
F5882-7419

> <Chemical_Name>
2-(2,6-dioxopiperidin-1-yl)-N-({3-[(4-methoxyphenoxy)methyl]-1,2,4-oxadiazol-5-yl}methyl)ethane-1-sulfonamide

> <CAS>
1226457-60-8

> <PriceCoeff>
1.00

> <MW>
438.45

> <Description>
solid

> <FSP3>
0.44

> <clogP>
0.32

> <TPSA>
149.31

> <Acceptor>
9

> <Donor>
1

> <RotBonds>
10

> <HAC>
30

> <Collection>
General

$$$$
F2211-0002
  -ISIS-  06222321442D

 19 21  0  0  0  0  0  0  0  0999 V2000
    6.3042   -8.2292    0.0000 C   0  0  0  0  0  0  0  0  0  0  0  0
    6.3000   -9.0542    0.0000 C   0  0  0  0  0  0  0  0  0  0  0  0
    5.5875   -7.8125    0.0000 O   0  0  0  0  0  0  0  0  0  0  0  0
    4.8667   -9.0500    0.0000 C   0  0  0  0  0  0  0  0  0  0  0  0
    5.5792   -9.4625    0.0000 C   0  0  0  0  0  0  0  0  0  0  0  0
    4.8750   -8.2250    0.0000 C   0  0  0  0  0  0  0  0  0  0  0  0
    7.0167   -7.8167    0.0000 C   0  0  0  0  0  0  0  0  0  0  0  0
    4.1625   -9.4625    0.0000 C   0  0  0  0  0  0  0  0  0  0  0  0
    5.5792  -10.2875    0.0000 O   0  0  0  0  0  0  0  0  0  0  0  0
    4.1625   -7.8125    0.0000 C   0  0  0  0  0  0  0  0  0  0  0  0
    7.7292   -8.2292    0.0000 C   0  0  0  0  0  0  0  0  0  0  0  0
    3.4417   -9.0542    0.0000 C   0  0  0  0  0  0  0  0  0  0  0  0
    2.7292   -9.4667    0.0000 N   0  0  0  0  0  0  0  0  0  0  0  0
    3.4417   -8.2250    0.0000 C   0  0  0  0  0  0  0  0  0  0  0  0
    7.0167   -6.9917    0.0000 C   0  0  0  0  0  0  0  0  0  0  0  0
    7.7167   -9.0542    0.0000 C   0  0  0  0  0  0  0  0  0  0  0  0
    8.4417   -7.8250    0.0000 C   0  0  0  0  0  0  0  0  0  0  0  0
    7.7292   -6.5792    0.0000 C   0  0  0  0  0  0  0  0  0  0  0  0
    8.4417   -7.0000    0.0000 C   0  0  0  0  0  0  0  0  0  0  0  0
  2  1  2  0  0  0  0
  3  1  1  0  0  0  0
  4  6  1  0  0  0  0
  5  2  1  0  0  0  0
  6  3  1  0  0  0  0
  7  1  1  0  0  0  0
  8  4  2  0  0  0  0
  9  5  2  0  0  0  0
 10  6  2  0  0  0  0
 11  7  2  0  0  0  0
 12 14  2  0  0  0  0
 13 12  1  0  0  0  0
 14 10  1  0  0  0  0
 15  7  1  0  0  0  0
 16 11  1  0  0  0  0
 17 11  1  0  0  0  0
 18 15  2  0  0  0  0
 19 18  1  0  0  0  0
  5  4  1  0  0  0  0
 19 17  2  0  0  0  0
 12  8  1  0  0  0  0
M  END
> <IDNUMBER>
F2211-0002

> <Chemical_Name>
6-amino-2-(2-methylphenyl)-4H-chromen-4-one

> <CAS>
923184-85-4

> <PriceCoeff>
1.00

> <MW>
251.28

> <Description>
solid

> <FSP3>
0.06

> <clogP>
2.83

> <TPSA>
52.32

> <Acceptor>
3

> <Donor>
1

> <RotBonds>
1

> <HAC>
19

> <Collection>
General

> <Reference_compound>
CHEMBL275638

> <Similarity>
0.8460

$$$$
F0327-0301
  -ISIS-  06222321452D

 29 32  0  0  0  0  0  0  0  0999 V2000
   -1.9083    0.4333    0.0000 C   0  0  0  0  0  0  0  0  0  0  0  0
    2.9167   -0.3292    0.0000 N   0  0  3  0  0  0  0  0  0  0  0  0
   -2.4125   -0.2792    0.0000 N   0  0  0  0  0  0  0  0  0  0  0  0
   -1.0458    0.4333    0.0000 N   0  0  0  0  0  0  0  0  0  0  0  0
   -2.4000    1.1333    0.0000 S   0  0  0  0  0  0  0  0  0  0  0  0
   -0.6000   -0.3292    0.0000 C   0  0  0  0  0  0  0  0  0  0  0  0
    3.4167    0.3333    0.0000 C   0  0  0  0  0  0  0  0  0  0  0  0
    3.4042   -1.0500    0.0000 C   0  0  0  0  0  0  0  0  0  0  0  0
   -3.2458    0.8708    0.0000 C   0  0  0  0  0  0  0  0  0  0  0  0
   -3.2458   -0.0292    0.0000 C   0  0  0  0  0  0  0  0  0  0  0  0
    2.0375   -0.3292    0.0000 C   0  0  0  0  0  0  0  0  0  0  0  0
   -4.0000    1.3125    0.0000 C   0  0  0  0  0  0  0  0  0  0  0  0
    0.2792   -0.3292    0.0000 C   0  0  0  0  0  0  0  0  0  0  0  0
   -5.5208    2.1708    0.0000 C   0  0  0  0  0  0  0  0  0  0  0  0
   -5.5208    1.3000    0.0000 N   0  0  0  0  0  0  0  0  0  0  0  0
   -4.7708    0.8625    0.0000 C   0  0  0  0  0  0  0  0  0  0  0  0
   -1.0458   -1.0875    0.0000 O   0  0  0  0  0  0  0  0  0  0  0  0
    4.2500    0.0708    0.0000 C   0  0  0  0  0  0  0  0  0  0  0  0
    4.2542   -0.8000    0.0000 C   0  0  0  0  0  0  0  0  0  0  0  0
    3.1292    1.1833    0.0000 O   0  0  0  0  0  0  0  0  0  0  0  0
    3.1000   -1.8667    0.0000 O   0  0  0  0  0  0  0  0  0  0  0  0
   -6.2500    2.6958    0.0000 O   0  0  0  0  0  0  0  0  0  0  0  0
   -4.0000   -0.4500    0.0000 C   0  0  0  0  0  0  0  0  0  0  0  0
    1.6000    0.4333    0.0000 C   0  0  0  0  0  0  0  0  0  0  0  0
    1.6000   -1.0875    0.0000 C   0  0  0  0  0  0  0  0  0  0  0  0
    0.7167    0.4333    0.0000 C   0  0  0  0  0  0  0  0  0  0  0  0
    0.7167   -1.0875    0.0000 C   0  0  0  0  0  0  0  0  0  0  0  0
   -4.7708   -0.0292    0.0000 C   0  0  0  0  0  0  0  0  0  0  0  0
   -4.7458    2.6000    0.0000 C   0  0  0  0  0  0  0  0  0  0  0  0
  2 11  1  0  0  0  0
  3  1  2  0  0  0  0
  4  1  1  0  0  0  0
  5  1  1  0  0  0  0
  6  4  1  0  0  0  0
  7  2  1  0  0  0  0
  8  2  1  0  0  0  0
  9  5  1  0  0  0  0
 10  3  1  0  0  0  0
 11 25  2  0  0  0  0
 12  9  1  0  0  0  0
 13  6  1  0  0  0  0
 14 15  1  0  0  0  0
 15 16  1  0  0  0  0
 16 12  2  0  0  0  0
 17  6  2  0  0  0  0
 18  7  1  0  0  0  0
 19  8  1  0  0  0  0
 20  7  2  0  0  0  0
 21  8  2  0  0  0  0
 22 14  2  0  0  0  0
 23 10  1  0  0  0  0
 24 26  2  0  0  0  0
 25 27  1  0  0  0  0
 26 13  1  0  0  0  0
 27 13  2  0  0  0  0
 28 23  2  0  0  0  0
 29 14  1  0  0  0  0
 10  9  2  0  0  0  0
 16 28  1  0  0  0  0
 24 11  1  0  0  0  0
 18 19  1  0  0  0  0
M  END
> <IDNUMBER>
F0327-0301

> <Chemical_Name>
4-(2,5-dioxopyrrolidin-1-yl)-N-(6-acetamido-1,3-benzothiazol-2-yl)benzamide

> <CAS>
330200-73-2

> <PriceCoeff>
1.00

> <MW>
408.43

> <Description>
solid

> <FSP3>
0.15

> <clogP>
1.31

> <TPSA>
136.71

> <Acceptor>
5

> <Donor>
2

> <RotBonds>
4

> <HAC>
29

> <Collection>
General

$$$$
F3385-1184
  -ISIS-  06222321462D

 24 27  0  0  0  0  0  0  0  0999 V2000
    1.8792   -0.8125    0.0000 C   0  0  0  0  0  0  0  0  0  0  0  0
    0.4417    0.0125    0.0000 C   0  0  0  0  0  0  0  0  0  0  0  0
    0.4417   -0.8167    0.0000 C   0  0  0  0  0  0  0  0  0  0  0  0
    1.1625   -1.2292    0.0000 C   0  0  0  0  0  0  0  0  0  0  0  0
   -0.2750    0.4250    0.0000 C   0  0  0  0  0  0  0  0  0  0  0  0
    1.1542    0.4375    0.0000 O   0  0  0  0  0  0  0  0  0  0  0  0
    1.8792    0.0208    0.0000 C   0  0  0  0  0  0  0  0  0  0  0  0
   -0.2833    1.2500    0.0000 C   0  0  0  0  0  0  0  0  0  0  0  0
   -0.2750   -1.2292    0.0000 C   0  0  0  0  0  0  0  0  0  0  0  0
   -0.9958    1.6583    0.0000 N   0  0  3  0  0  0  0  0  0  0  0  0
   -0.9875    0.0125    0.0000 C   0  0  0  0  0  0  0  0  0  0  0  0
    2.5917   -1.2250    0.0000 C   0  0  0  0  0  0  0  0  0  0  0  0
    1.1667   -2.0542    0.0000 O   0  0  0  0  0  0  0  0  0  0  0  0
   -0.9875   -0.8167    0.0000 C   0  0  0  0  0  0  0  0  0  0  0  0
   -1.7000    0.4208    0.0000 O   0  0  0  0  0  0  0  0  0  0  0  0
   -1.0833    2.4833    0.0000 C   0  0  0  0  0  0  0  0  0  0  0  0
   -1.7458    1.3250    0.0000 C   0  0  0  0  0  0  0  0  0  0  0  0
    2.5917   -2.0500    0.0000 C   0  0  0  0  0  0  0  0  0  0  0  0
    3.3042   -0.8042    0.0000 C   0  0  0  0  0  0  0  0  0  0  0  0
   -2.2958    1.9375    0.0000 C   0  0  0  0  0  0  0  0  0  0  0  0
   -1.8875    2.6583    0.0000 C   0  0  0  0  0  0  0  0  0  0  0  0
    4.0167   -1.2167    0.0000 C   0  0  0  0  0  0  0  0  0  0  0  0
    3.3125   -2.4542    0.0000 C   0  0  0  0  0  0  0  0  0  0  0  0
    4.0250   -2.0417    0.0000 C   0  0  0  0  0  0  0  0  0  0  0  0
  2  6  1  0  0  0  0
  3  4  1  0  0  0  0
  4  1  1  0  0  0  0
  5  2  2  0  0  0  0
  6  7  1  0  0  0  0
  7  1  2  0  0  0  0
  8  5  1  0  0  0  0
  9  3  2  0  0  0  0
 10  8  1  0  0  0  0
 11  5  1  0  0  0  0
 12  1  1  0  0  0  0
 13  4  2  0  0  0  0
 14  9  1  0  0  0  0
 15 11  1  0  0  0  0
 16 10  1  0  0  0  0
 17 10  1  0  0  0  0
 18 12  2  0  0  0  0
 19 12  1  0  0  0  0
 20 17  1  0  0  0  0
 21 16  1  0  0  0  0
 22 19  2  0  0  0  0
 23 18  1  0  0  0  0
 24 22  1  0  0  0  0
  2  3  1  0  0  0  0
 23 24  2  0  0  0  0
 11 14  2  0  0  0  0
 21 20  1  0  0  0  0
M  END
> <IDNUMBER>
F3385-1184

> <Chemical_Name>
7-hydroxy-3-phenyl-8-[(pyrrolidin-1-yl)methyl]-4H-chromen-4-one

> <CAS>
448238-32-2

> <PriceCoeff>
1.00

> <MW>
321.37

> <Description>
solid

> <FSP3>
0.25

> <clogP>
3.13

> <TPSA>
49.77

> <Acceptor>
3

> <Donor>
2

> <RotBonds>
3

> <HAC>
24

> <Collection>
General

> <Reference_compound>
CHEMBL463936

> <Similarity>
0.8000

$$$$
F0921-1014
  -ISIS-  06222321442D

 20 22  0  0  0  0  0  0  0  0999 V2000
    0.7292  -10.2167    0.0000 C   0  0  0  0  0  0  0  0  0  0  0  0
    3.5667   -7.8292    0.0000 O   0  0  0  0  0  0  0  0  0  0  0  0
    2.3667   -4.3542    0.0000 C   0  0  3  0  0  0  0  0  0  0  0  0
   -2.3958   -7.9750    0.0000 C   0  0  0  0  0  0  0  0  0  0  0  0
   -1.4000   -4.3542    0.0000 C   0  0  0  0  0  0  0  0  0  0  0  0
    4.2542   -1.0167    0.0000 C   0  0  0  0  0  0  0  0  0  0  0  0
    8.2292   -0.7292    0.0000 C   0  0  0  0  0  0  0  0  0  0  0  0
   10.0292    2.3958    0.0000 C   0  0  0  0  0  0  0  0  0  0  0  0
    0.8500  -14.2250    0.0000 O   0  0  0  0  0  0  0  0  0  0  0  0
   10.2167   -4.2542    0.0000 O   0  0  0  0  0  0  0  0  0  0  0  0
   14.0792    2.3958    0.0000 C   0  0  0  0  0  0  0  0  0  0  0  0
    8.1167    5.6542    0.0000 C   0  0  0  0  0  0  0  0  0  0  0  0
   10.2167    9.0875    0.0000 C   0  0  0  0  0  0  0  0  0  0  0  0
   16.0000    5.7917    0.0000 C   0  0  0  0  0  0  0  0  0  0  0  0
   13.7917    9.0875    0.0000 C   0  0  0  0  0  0  0  0  0  0  0  0
   -6.2167   -8.9667    0.0000 C   0  0  0  0  0  0  0  0  0  0  0  0
   -4.0500   -1.5792    0.0000 C   0  0  0  0  0  0  0  0  0  0  0  0
   15.9042   12.5417    0.0000 C   0  0  0  0  0  0  0  0  0  0  0  0
   -8.8750   -6.1292    0.0000 C   0  0  0  0  0  0  0  0  0  0  0  0
   -7.7792   -2.5542    0.0000 C   0  0  0  0  0  0  0  0  0  0  0  0
  2  1  1  0  0  0  0
  3  2  1  0  0  0  0
  4  1  1  0  0  0  0
  5  4  2  0  0  0  0
  6  3  1  0  0  0  0
  7  6  1  0  0  0  0
  8  7  1  0  0  0  0
  9  1  2  0  0  0  0
 10  7  2  0  0  0  0
 11  8  1  0  0  0  0
 12  8  2  0  0  0  0
 13 12  1  0  0  0  0
 14 11  2  0  0  0  0
 15 13  2  0  0  0  0
 16  4  1  0  0  0  0
 17  5  1  0  0  0  0
 18 15  1  0  0  0  0
 19 16  2  0  0  0  0
 20 19  1  0  0  0  0
  3  5  1  0  0  0  0
 20 17  2  0  0  0  0
 15 14  1  0  0  0  0
M  END
> <IDNUMBER>
F0921-1014

> <Chemical_Name>
3-[2-(4-methylphenyl)-2-oxoethyl]-1,3-dihydro-2-benzofuran-1-one

> <CAS>
69322-22-1

> <PriceCoeff>
1.00

> <MW>
266.29

> <Description>
solid

> <FSP3>
0.18

> <clogP>
2.57

> <TPSA>
43.37

> <Acceptor>
3

> <Donor>
0

> <RotBonds>
3

> <HAC>
20

> <Collection>
General

> <Reference_compound>
CHEMBL250205

> <Similarity>
0.8440

$$$$
F1065-0330
  -ISIS-  06222321442D

 22 24  0  0  0  0  0  0  0  0999 V2000
   -1.8125    0.0125    0.0000 N   0  0  3  0  0  0  0  0  0  0  0  0
   -1.0958    0.9000    0.0000 C   0  0  0  0  0  0  0  0  0  0  0  0
   -1.1958   -0.9375    0.0000 C   0  0  0  0  0  0  0  0  0  0  0  0
   -0.0833   -0.6292    0.0000 C   0  0  3  0  0  0  0  0  0  0  0  0
   -0.0458    0.5000    0.0000 C   0  0  0  0  0  0  0  0  0  0  0  0
    0.8375   -1.3500    0.0000 N   0  0  0  0  0  0  0  0  0  0  0  0
   -2.9625    0.0125    0.0000 C   0  0  0  0  0  0  0  0  0  0  0  0
   -1.4000    2.0333    0.0000 O   0  0  0  0  0  0  0  0  0  0  0  0
   -1.5833   -2.0292    0.0000 O   0  0  0  0  0  0  0  0  0  0  0  0
    1.8875   -0.9292    0.0000 C   0  0  0  0  0  0  0  0  0  0  0  0
    4.0292   -0.0500    0.0000 C   0  0  0  0  0  0  0  0  0  0  0  0
    2.0375    0.2000    0.0000 C   0  0  0  0  0  0  0  0  0  0  0  0
    2.8000   -1.6167    0.0000 C   0  0  0  0  0  0  0  0  0  0  0  0
    3.8542   -1.1792    0.0000 C   0  0  0  0  0  0  0  0  0  0  0  0
    3.1042    0.6333    0.0000 C   0  0  0  0  0  0  0  0  0  0  0  0
    5.0792    0.3708    0.0000 O   0  0  0  0  0  0  0  0  0  0  0  0
   -3.5458   -0.9792    0.0000 C   0  0  0  0  0  0  0  0  0  0  0  0
   -3.5458    1.0208    0.0000 C   0  0  0  0  0  0  0  0  0  0  0  0
    5.2375    1.4958    0.0000 C   0  0  0  0  0  0  0  0  0  0  0  0
   -4.6958   -0.9792    0.0000 C   0  0  0  0  0  0  0  0  0  0  0  0
   -4.6958    1.0208    0.0000 C   0  0  0  0  0  0  0  0  0  0  0  0
   -5.2708    0.0125    0.0000 C   0  0  0  0  0  0  0  0  0  0  0  0
  2  1  1  0  0  0  0
  3  1  1  0  0  0  0
  4  3  1  0  0  0  0
  5  2  1  0  0  0  0
  6  4  1  0  0  0  0
  7  1  1  0  0  0  0
  8  2  2  0  0  0  0
  9  3  2  0  0  0  0
 10  6  1  0  0  0  0
 11 14  1  0  0  0  0
 12 10  2  0  0  0  0
 13 10  1  0  0  0  0
 14 13  2  0  0  0  0
 15 12  1  0  0  0  0
 16 11  1  0  0  0  0
 17  7  2  0  0  0  0
 18  7  1  0  0  0  0
 19 16  1  0  0  0  0
 20 17  1  0  0  0  0
 21 18  2  0  0  0  0
 22 21  1  0  0  0  0
  4  5  1  0  0  0  0
 20 22  2  0  0  0  0
 11 15  2  0  0  0  0
M  END
> <IDNUMBER>
F1065-0330

> <Chemical_Name>
3-[(4-methoxyphenyl)amino]-1-phenylpyrrolidine-2,5-dione

> <CAS>
37910-31-9

> <PriceCoeff>
1.00

> <MW>
296.32

> <Description>
solid

> <FSP3>
0.18

> <clogP>
2.59

> <TPSA>
58.64

> <Acceptor>
4

> <Donor>
1

> <RotBonds>
4

> <HAC>
22

> <Collection>
General

$$$$
F1065-0594
  -ISIS-  06222321442D

 27 30  0  0  0  0  0  0  0  0999 V2000
   -0.0125   -0.0042    0.0000 N   0  0  3  0  0  0  0  0  0  0  0  0
    0.4667    0.6958    0.0000 C   0  0  0  0  0  0  0  0  0  0  0  0
    0.5292   -0.6667    0.0000 C   0  0  0  0  0  0  0  0  0  0  0  0
    1.3042   -0.3875    0.0000 C   0  0  3  0  0  0  0  0  0  0  0  0
    1.2875    0.4500    0.0000 C   0  0  0  0  0  0  0  0  0  0  0  0
   -3.3958    0.0125    0.0000 N   0  0  3  0  0  0  0  0  0  0  0  0
    2.0292   -0.8500    0.0000 N   0  0  0  0  0  0  0  0  0  0  0  0
   -0.8500    0.0125    0.0000 C   0  0  0  0  0  0  0  0  0  0  0  0
   -2.5333    0.0125    0.0000 C   0  0  0  0  0  0  0  0  0  0  0  0
    0.1875    1.5125    0.0000 O   0  0  0  0  0  0  0  0  0  0  0  0
    0.3042   -1.5042    0.0000 O   0  0  0  0  0  0  0  0  0  0  0  0
   -1.2708   -0.7042    0.0000 C   0  0  0  0  0  0  0  0  0  0  0  0
   -1.2500    0.7708    0.0000 C   0  0  0  0  0  0  0  0  0  0  0  0
   -2.1125   -0.7042    0.0000 C   0  0  0  0  0  0  0  0  0  0  0  0
   -2.1125    0.7708    0.0000 C   0  0  0  0  0  0  0  0  0  0  0  0
   -5.0708    0.0125    0.0000 O   0  0  0  0  0  0  0  0  0  0  0  0
    2.7875   -0.4667    0.0000 C   0  0  0  0  0  0  0  0  0  0  0  0
    4.2875    0.3125    0.0000 C   0  0  0  0  0  0  0  0  0  0  0  0
    5.0500    0.6958    0.0000 F   0  0  0  0  0  0  0  0  0  0  0  0
    2.8500    0.3958    0.0000 C   0  0  0  0  0  0  0  0  0  0  0  0
    3.5042   -0.9292    0.0000 C   0  0  0  0  0  0  0  0  0  0  0  0
    4.2667   -0.5292    0.0000 C   0  0  0  0  0  0  0  0  0  0  0  0
    3.5875    0.7708    0.0000 C   0  0  0  0  0  0  0  0  0  0  0  0
   -3.8125    0.7708    0.0000 C   0  0  0  0  0  0  0  0  0  0  0  0
   -3.8125   -0.7042    0.0000 C   0  0  0  0  0  0  0  0  0  0  0  0
   -4.6583   -0.7042    0.0000 C   0  0  0  0  0  0  0  0  0  0  0  0
   -4.6708    0.7708    0.0000 C   0  0  0  0  0  0  0  0  0  0  0  0
  2  1  1  0  0  0  0
  3  1  1  0  0  0  0
  4  3  1  0  0  0  0
  5  2  1  0  0  0  0
  6  9  1  0  0  0  0
  7  4  1  0  0  0  0
  8  1  1  0  0  0  0
  9 15  2  0  0  0  0
 10  2  2  0  0  0  0
 11  3  2  0  0  0  0
 12  8  1  0  0  0  0
 13  8  2  0  0  0  0
 14 12  2  0  0  0  0
 15 13  1  0  0  0  0
 16 26  1  0  0  0  0
 17  7  1  0  0  0  0
 18 22  2  0  0  0  0
 19 18  1  0  0  0  0
 20 17  1  0  0  0  0
 21 17  2  0  0  0  0
 22 21  1  0  0  0  0
 23 20  2  0  0  0  0
 24  6  1  0  0  0  0
 25  6  1  0  0  0  0
 26 25  1  0  0  0  0
 27 24  1  0  0  0  0
  5  4  1  0  0  0  0
 14  9  1  0  0  0  0
 18 23  1  0  0  0  0
 16 27  1  0  0  0  0
M  END
> <IDNUMBER>
F1065-0594

> <Chemical_Name>
3-[(4-fluorophenyl)amino]-1-[4-(morpholin-4-yl)phenyl]pyrrolidine-2,5-dione

> <CAS>
473568-22-8

> <PriceCoeff>
1.00

> <MW>
369.39

> <Description>
solid

> <FSP3>
0.30

> <clogP>
2.39

> <TPSA>
61.88

> <Acceptor>
5

> <Donor>
2

> <RotBonds>
4

> <HAC>
27

> <Collection>
General

$$$$
F1190-0476
  -ISIS-  06222321142D

 23 25  0  0  0  0  0  0  0  0999 V2000
    0.5167    1.6125    0.0000 C   0  0  0  0  0  0  0  0  0  0  0  0
   -0.2000    1.2083    0.0000 C   0  0  0  0  0  0  0  0  0  0  0  0
    0.5167    2.4458    0.0000 C   0  0  0  0  0  0  0  0  0  0  0  0
   -0.9125    1.6208    0.0000 C   0  0  0  0  0  0  0  0  0  0  0  0
   -0.9083    2.4458    0.0000 C   0  0  0  0  0  0  0  0  0  0  0  0
   -0.1958    2.8625    0.0000 O   0  0  0  0  0  0  0  0  0  0  0  0
    1.2292    1.2000    0.0000 C   0  0  0  0  0  0  0  0  0  0  0  0
    1.9417    1.6125    0.0000 C   0  0  0  0  0  0  0  0  0  0  0  0
   -1.6333    2.8625    0.0000 C   0  0  0  0  0  0  0  0  0  0  0  0
   -1.6333    1.2083    0.0000 C   0  0  0  0  0  0  0  0  0  0  0  0
    2.6542    1.1958    0.0000 C   0  0  0  0  0  0  0  0  0  0  0  0
   -0.2083    0.3833    0.0000 O   0  0  0  0  0  0  0  0  0  0  0  0
    1.2167    0.3833    0.0000 C   0  0  0  0  0  0  0  0  0  0  0  0
    2.6542    0.3708    0.0000 C   0  0  0  0  0  0  0  0  0  0  0  0
    1.9292   -0.0292    0.0000 C   0  0  0  0  0  0  0  0  0  0  0  0
   -2.3458    2.4583    0.0000 C   0  0  0  0  0  0  0  0  0  0  0  0
   -2.3458    1.6208    0.0000 C   0  0  0  0  0  0  0  0  0  0  0  0
    1.2375    2.8500    0.0000 C   0  0  0  0  0  0  0  0  0  0  0  0
    3.3667    1.6083    0.0000 O   0  0  0  0  0  0  0  0  0  0  0  0
    3.3625   -0.0417    0.0000 O   0  0  0  0  0  0  0  0  0  0  0  0
   -3.0583    2.8625    0.0000 O   0  0  0  0  0  0  0  0  0  0  0  0
    3.3750    2.4333    0.0000 C   0  0  0  0  0  0  0  0  0  0  0  0
    4.0792    0.3708    0.0000 C   0  0  0  0  0  0  0  0  0  0  0  0
  2  1  1  0  0  0  0
  3  1  2  0  0  0  0
  4  2  1  0  0  0  0
  5  6  1  0  0  0  0
  6  3  1  0  0  0  0
  7  1  1  0  0  0  0
  8  7  2  0  0  0  0
  9  5  2  0  0  0  0
 10  4  2  0  0  0  0
 11  8  1  0  0  0  0
 12  2  2  0  0  0  0
 13  7  1  0  0  0  0
 14 15  1  0  0  0  0
 15 13  2  0  0  0  0
 16  9  1  0  0  0  0
 17 10  1  0  0  0  0
 18  3  1  0  0  0  0
 19 11  1  0  0  0  0
 20 14  1  0  0  0  0
 21 16  1  0  0  0  0
 22 19  1  0  0  0  0
 23 20  1  0  0  0  0
  4  5  1  0  0  0  0
 14 11  2  0  0  0  0
 16 17  2  0  0  0  0
M  END
> <IDNUMBER>
F1190-0476

> <Chemical_Name>
3-(3,4-dimethoxyphenyl)-7-hydroxy-2-methyl-4H-chromen-4-one

> <CAS>
54528-39-1

> <PriceCoeff>
1.00

> <MW>
312.32

> <Description>
solid

> <FSP3>
0.17

> <clogP>
2.57

> <TPSA>
64.99

> <Acceptor>
5

> <Donor>
1

> <RotBonds>
3

> <HAC>
23

> <Collection>
General

> <Reference_compound>
CHEMBL455048

> <Similarity>
0.8310

$$$$
F1065-0444
  -ISIS-  06222321442D

 27 30  0  0  0  0  0  0  0  0999 V2000
   -2.3000   -1.3792    0.0000 N   0  0  3  0  0  0  0  0  0  0  0  0
   -1.9958   -0.3292    0.0000 C   0  0  0  0  0  0  0  0  0  0  0  0
   -1.4333   -1.9792    0.0000 C   0  0  0  0  0  0  0  0  0  0  0  0
   -0.5625   -1.3167    0.0000 C   0  0  3  0  0  0  0  0  0  0  0  0
   -0.9458   -0.3292    0.0000 C   0  0  0  0  0  0  0  0  0  0  0  0
   -3.2833   -1.7500    0.0000 C   0  0  0  0  0  0  0  0  0  0  0  0
    3.4500    1.4458    0.0000 N   0  0  3  0  0  0  0  0  0  0  0  0
    0.4542   -1.5875    0.0000 N   0  0  0  0  0  0  0  0  0  0  0  0
   -2.6000    0.5333    0.0000 O   0  0  0  0  0  0  0  0  0  0  0  0
    2.7000    0.6958    0.0000 C   0  0  0  0  0  0  0  0  0  0  0  0
   -1.4333   -3.0500    0.0000 O   0  0  0  0  0  0  0  0  0  0  0  0
   -4.1000   -1.0792    0.0000 C   0  0  0  0  0  0  0  0  0  0  0  0
    4.9375    2.9458    0.0000 O   0  0  0  0  0  0  0  0  0  0  0  0
    3.0000   -0.3375    0.0000 C   0  0  0  0  0  0  0  0  0  0  0  0
    1.6500    0.9708    0.0000 C   0  0  0  0  0  0  0  0  0  0  0  0
    1.2000   -0.8375    0.0000 C   0  0  0  0  0  0  0  0  0  0  0  0
   -3.9458   -0.0292    0.0000 F   0  0  0  0  0  0  0  0  0  0  0  0
    0.9167    0.1958    0.0000 C   0  0  0  0  0  0  0  0  0  0  0  0
    2.2375   -1.1000    0.0000 C   0  0  0  0  0  0  0  0  0  0  0  0
    3.1667    2.4625    0.0000 C   0  0  0  0  0  0  0  0  0  0  0  0
    4.4792    1.1708    0.0000 C   0  0  0  0  0  0  0  0  0  0  0  0
   -3.4500   -2.7875    0.0000 C   0  0  0  0  0  0  0  0  0  0  0  0
    5.2375    1.9125    0.0000 C   0  0  0  0  0  0  0  0  0  0  0  0
    3.9042    3.2208    0.0000 C   0  0  0  0  0  0  0  0  0  0  0  0
   -5.1000   -1.4542    0.0000 C   0  0  0  0  0  0  0  0  0  0  0  0
   -4.4458   -3.1667    0.0000 C   0  0  0  0  0  0  0  0  0  0  0  0
   -5.2708   -2.5000    0.0000 C   0  0  0  0  0  0  0  0  0  0  0  0
  2  1  1  0  0  0  0
  3  1  1  0  0  0  0
  4  3  1  0  0  0  0
  5  2  1  0  0  0  0
  6  1  1  0  0  0  0
  7 10  1  0  0  0  0
  8  4  1  0  0  0  0
  9  2  2  0  0  0  0
 10 14  2  0  0  0  0
 11  3  2  0  0  0  0
 12  6  2  0  0  0  0
 13 23  1  0  0  0  0
 14 19  1  0  0  0  0
 15 18  2  0  0  0  0
 16  8  1  0  0  0  0
 17 12  1  0  0  0  0
 18 16  1  0  0  0  0
 19 16  2  0  0  0  0
 20  7  1  0  0  0  0
 21  7  1  0  0  0  0
 22  6  1  0  0  0  0
 23 21  1  0  0  0  0
 24 20  1  0  0  0  0
 25 12  1  0  0  0  0
 26 22  2  0  0  0  0
 27 26  1  0  0  0  0
  4  5  1  0  0  0  0
 27 25  2  0  0  0  0
 15 10  1  0  0  0  0
 24 13  1  0  0  0  0
M  END
> <IDNUMBER>
F1065-0444

> <Chemical_Name>
1-(2-fluorophenyl)-3-{[4-(morpholin-4-yl)phenyl]amino}pyrrolidine-2,5-dione

> <CAS>
342615-49-0

> <PriceCoeff>
1.00

> <MW>
369.39

> <Description>
solid

> <FSP3>
0.30

> <clogP>
2.20

> <TPSA>
61.88

> <Acceptor>
5

> <Donor>
2

> <RotBonds>
4

> <HAC>
27

> <Collection>
General

$$$$
F3023-0977
  -ISIS-  06222321442D

 28 31  0  0  0  0  0  0  0  0999 V2000
    4.2417   -6.4542    0.0000 N   0  0  3  0  0  0  0  0  0  0  0  0
    4.6625   -5.8792    0.0000 C   0  0  0  0  0  0  0  0  0  0  0  0
    4.6667   -7.0250    0.0000 C   0  0  0  0  0  0  0  0  0  0  0  0
    5.3417   -6.8042    0.0000 C   0  0  3  0  0  0  0  0  0  0  0  0
    5.3375   -6.0917    0.0000 C   0  0  0  0  0  0  0  0  0  0  0  0
    3.5375   -6.4542    0.0000 C   0  0  0  0  0  0  0  0  0  0  0  0
    8.5042   -6.0625    0.0000 N   0  0  3  0  0  0  0  0  0  0  0  0
    5.9125   -7.2167    0.0000 N   0  0  0  0  0  0  0  0  0  0  0  0
    4.4375   -5.2042    0.0000 O   0  0  0  0  0  0  0  0  0  0  0  0
    7.8542   -6.3542    0.0000 C   0  0  0  0  0  0  0  0  0  0  0  0
    3.1792   -5.8417    0.0000 C   0  0  0  0  0  0  0  0  0  0  0  0
    3.1917   -7.0750    0.0000 C   0  0  0  0  0  0  0  0  0  0  0  0
    4.4542   -7.7000    0.0000 O   0  0  0  0  0  0  0  0  0  0  0  0
    2.4875   -7.0792    0.0000 C   0  0  0  0  0  0  0  0  0  0  0  0
    2.4750   -5.8500    0.0000 C   0  0  0  0  0  0  0  0  0  0  0  0
    9.8042   -5.4875    0.0000 O   0  0  0  0  0  0  0  0  0  0  0  0
    7.7792   -7.0542    0.0000 C   0  0  0  0  0  0  0  0  0  0  0  0
    7.2750   -5.9375    0.0000 C   0  0  0  0  0  0  0  0  0  0  0  0
    6.5625   -6.9292    0.0000 C   0  0  0  0  0  0  0  0  0  0  0  0
    2.1250   -6.4667    0.0000 C   0  0  0  0  0  0  0  0  0  0  0  0
    6.6292   -6.2250    0.0000 C   0  0  0  0  0  0  0  0  0  0  0  0
    7.1292   -7.3417    0.0000 C   0  0  0  0  0  0  0  0  0  0  0  0
    8.5750   -5.3542    0.0000 C   0  0  0  0  0  0  0  0  0  0  0  0
    9.0792   -6.4792    0.0000 C   0  0  0  0  0  0  0  0  0  0  0  0
    9.7250   -6.1917    0.0000 C   0  0  0  0  0  0  0  0  0  0  0  0
    9.2250   -5.0667    0.0000 C   0  0  0  0  0  0  0  0  0  0  0  0
    2.1292   -7.7000    0.0000 C   0  0  0  0  0  0  0  0  0  0  0  0
    2.1167   -5.2417    0.0000 C   0  0  0  0  0  0  0  0  0  0  0  0
  2  1  1  0  0  0  0
  3  1  1  0  0  0  0
  4  3  1  0  0  0  0
  5  2  1  0  0  0  0
  6  1  1  0  0  0  0
  7 10  1  0  0  0  0
  8  4  1  0  0  0  0
  9  2  2  0  0  0  0
 10 17  2  0  0  0  0
 11  6  2  0  0  0  0
 12  6  1  0  0  0  0
 13  3  2  0  0  0  0
 14 12  2  0  0  0  0
 15 11  1  0  0  0  0
 16 25  1  0  0  0  0
 17 22  1  0  0  0  0
 18 21  2  0  0  0  0
 19  8  1  0  0  0  0
 20 14  1  0  0  0  0
 21 19  1  0  0  0  0
 22 19  2  0  0  0  0
 23  7  1  0  0  0  0
 24  7  1  0  0  0  0
 25 24  1  0  0  0  0
 26 23  1  0  0  0  0
 27 14  1  0  0  0  0
 28 15  1  0  0  0  0
  5  4  1  0  0  0  0
 20 15  2  0  0  0  0
 18 10  1  0  0  0  0
 16 26  1  0  0  0  0
M  END
> <IDNUMBER>
F3023-0977

> <Chemical_Name>
1-(3,5-dimethylphenyl)-3-{[4-(morpholin-4-yl)phenyl]amino}pyrrolidine-2,5-dione

> <CAS>
1008695-30-4

> <PriceCoeff>
1.00

> <MW>
379.45

> <Description>
solid

> <FSP3>
0.36

> <clogP>
2.94

> <TPSA>
61.88

> <Acceptor>
5

> <Donor>
2

> <RotBonds>
4

> <HAC>
28

> <Collection>
General

$$$$
F0327-0384
  -ISIS-  06222321452D

 25 27  0  0  0  0  0  0  0  0999 V2000
    4.4792   -0.8875    0.0000 N   0  0  3  0  0  0  0  0  0  0  0  0
    4.9792   -0.3292    0.0000 C   0  0  0  0  0  0  0  0  0  0  0  0
    4.8375   -1.5292    0.0000 C   0  0  0  0  0  0  0  0  0  0  0  0
    1.4792   -0.8875    0.0000 C   0  0  0  0  0  0  0  0  0  0  0  0
    1.1167   -0.2500    0.0000 N   0  0  0  0  0  0  0  0  0  0  0  0
    3.7167   -0.8875    0.0000 C   0  0  0  0  0  0  0  0  0  0  0  0
    2.2375   -0.8875    0.0000 C   0  0  0  0  0  0  0  0  0  0  0  0
   -0.7625    0.3958    0.0000 C   0  0  0  0  0  0  0  0  0  0  0  0
   -1.1625    1.0500    0.0000 C   0  0  0  0  0  0  0  0  0  0  0  0
    0.3542   -0.2500    0.0000 C   0  0  0  0  0  0  0  0  0  0  0  0
    5.6542   -0.6292    0.0000 C   0  0  0  0  0  0  0  0  0  0  0  0
    5.5542   -1.3667    0.0000 C   0  0  0  0  0  0  0  0  0  0  0  0
   -0.0208    0.3958    0.0000 C   0  0  0  0  0  0  0  0  0  0  0  0
    1.1167   -1.5292    0.0000 O   0  0  0  0  0  0  0  0  0  0  0  0
    4.5542   -2.2292    0.0000 O   0  0  0  0  0  0  0  0  0  0  0  0
    4.8167    0.4333    0.0000 O   0  0  0  0  0  0  0  0  0  0  0  0
    3.3542   -0.2500    0.0000 C   0  0  0  0  0  0  0  0  0  0  0  0
    3.3542   -1.5292    0.0000 C   0  0  0  0  0  0  0  0  0  0  0  0
   -0.7833    1.6958    0.0000 O   0  0  0  0  0  0  0  0  0  0  0  0
    2.6000   -0.2500    0.0000 C   0  0  0  0  0  0  0  0  0  0  0  0
    2.6000   -1.5292    0.0000 C   0  0  0  0  0  0  0  0  0  0  0  0
   -1.1458   -0.2500    0.0000 C   0  0  0  0  0  0  0  0  0  0  0  0
   -0.7625   -0.8875    0.0000 C   0  0  0  0  0  0  0  0  0  0  0  0
   -0.0208   -0.8875    0.0000 C   0  0  0  0  0  0  0  0  0  0  0  0
   -1.9208    1.0500    0.0000 C   0  0  0  0  0  0  0  0  0  0  0  0
  2  1  1  0  0  0  0
  3  1  1  0  0  0  0
  4  7  1  0  0  0  0
  5  4  1  0  0  0  0
  6  1  1  0  0  0  0
  7 21  2  0  0  0  0
  8 13  1  0  0  0  0
  9  8  1  0  0  0  0
 10  5  1  0  0  0  0
 11  2  1  0  0  0  0
 12  3  1  0  0  0  0
 13 10  2  0  0  0  0
 14  4  2  0  0  0  0
 15  3  2  0  0  0  0
 16  2  2  0  0  0  0
 17  6  1  0  0  0  0
 18  6  2  0  0  0  0
 19  9  2  0  0  0  0
 20 17  2  0  0  0  0
 21 18  1  0  0  0  0
 22 23  1  0  0  0  0
 23 24  2  0  0  0  0
 24 10  1  0  0  0  0
 25  9  1  0  0  0  0
 11 12  1  0  0  0  0
 20  7  1  0  0  0  0
 22  8  2  0  0  0  0
M  END
> <IDNUMBER>
F0327-0384

> <Chemical_Name>
N-(3-acetylphenyl)-4-(2,5-dioxopyrrolidin-1-yl)benzamide

> <CAS>
330200-96-9

> <PriceCoeff>
1.00

> <MW>
336.34

> <Description>
solid

> <FSP3>
0.16

> <clogP>
0.70

> <TPSA>
83.55

> <Acceptor>
4

> <Donor>
1

> <RotBonds>
4

> <HAC>
25

> <Collection>
General

$$$$
F0908-2782
  -ISIS-  06222321452D

 14 15  0  0  0  0  0  0  0  0999 V2000
    0.9042   -3.2292    0.0000 C   0  0  0  0  0  0  0  0  0  0  0  0
    6.7125   -5.0542    0.0000 N   0  0  0  0  0  0  0  0  0  0  0  0
    0.9042    2.6583    0.0000 C   0  0  0  0  0  0  0  0  0  0  0  0
   -4.1458   -6.2167    0.0000 N   0  0  3  0  0  0  0  0  0  0  0  0
   -9.2792   -3.2292    0.0000 C   0  0  0  0  0  0  0  0  0  0  0  0
   -9.2792    2.6583    0.0000 N   0  0  0  0  0  0  0  0  0  0  0  0
   10.0292   -0.2417    0.0000 C   0  0  0  0  0  0  0  0  0  0  0  0
   -4.1458    5.6375    0.0000 C   0  0  0  0  0  0  0  0  0  0  0  0
    6.7125    4.4667    0.0000 N   0  0  3  0  0  0  0  0  0  0  0  0
  -14.5875   -6.2167    0.0000 O   0  0  0  0  0  0  0  0  0  0  0  0
   -4.1458   11.6042    0.0000 O   0  0  0  0  0  0  0  0  0  0  0  0
   16.0000   -0.2417    0.0000 Br  0  0  0  0  0  0  0  0  0  0  0  0
   -4.1458  -12.1792    0.0000 C   0  0  0  0  0  0  0  0  0  0  0  0
    8.7042   10.1125    0.0000 C   0  0  0  0  0  0  0  0  0  0  0  0
  2  1  1  0  0  0  0
  3  1  2  0  0  0  0
  4  1  1  0  0  0  0
  5  4  1  0  0  0  0
  6  5  1  0  0  0  0
  7  2  2  0  0  0  0
  8  3  1  0  0  0  0
  9  3  1  0  0  0  0
 10  5  2  0  0  0  0
 11  8  2  0  0  0  0
 12  7  1  0  0  0  0
 13  4  1  0  0  0  0
 14  9  1  0  0  0  0
  9  7  1  0  0  0  0
  8  6  1  0  0  0  0
M  END
> <IDNUMBER>
F0908-2782

> <Chemical_Name>
8-bromo-3,7-dimethyl-2,3,6,7-tetrahydro-1H-purine-2,6-dione

> <CAS>
15371-15-0

> <PriceCoeff>
1.00

> <MW>
259.06

> <Description>
solid

> <FSP3>
0.29

> <clogP>
0.23

> <TPSA>
67.23

> <Acceptor>
3

> <Donor>
2

> <RotBonds>
0

> <HAC>
14

> <Collection>
General

> <Reference_compound>
CHEMBL113

> <Similarity>
0.8710

$$$$
F1383-0022
  -ISIS-  06222321142D

 26 29  0  0  0  0  0  0  0  0999 V2000
    3.7375   -1.4042    0.0000 N   0  0  3  0  0  0  0  0  0  0  0  0
    4.4042   -0.9167    0.0000 C   0  0  0  0  0  0  0  0  0  0  0  0
    3.9875   -2.2000    0.0000 C   0  0  0  0  0  0  0  0  0  0  0  0
    4.8167   -2.2000    0.0000 C   0  0  3  0  0  0  0  0  0  0  0  0
    2.9500   -1.1542    0.0000 C   0  0  0  0  0  0  0  0  0  0  0  0
    5.0792   -1.4042    0.0000 C   0  0  0  0  0  0  0  0  0  0  0  0
    6.1292   -2.7792    0.0000 C   0  0  0  0  0  0  0  0  0  0  0  0
    6.6167   -3.4542    0.0000 C   0  0  0  0  0  0  0  0  0  0  0  0
    5.3042   -2.8667    0.0000 S   0  0  0  0  0  0  0  0  0  0  0  0
    2.3417   -1.7125    0.0000 C   0  0  0  0  0  0  0  0  0  0  0  0
    6.2750   -4.2125    0.0000 C   0  0  0  0  0  0  0  0  0  0  0  0
    1.5625   -1.4625    0.0000 C   0  0  0  0  0  0  0  0  0  0  0  0
    6.4625   -2.0292    0.0000 N   0  0  0  0  0  0  0  0  0  0  0  0
    4.4042   -0.0917    0.0000 O   0  0  0  0  0  0  0  0  0  0  0  0
    1.3875   -0.6542    0.0000 C   0  0  0  0  0  0  0  0  0  0  0  0
    0.8417   -1.8792    0.0000 O   0  0  0  0  0  0  0  0  0  0  0  0
    3.5042   -2.8667    0.0000 O   0  0  0  0  0  0  0  0  0  0  0  0
    0.5625   -0.5667    0.0000 O   0  0  0  0  0  0  0  0  0  0  0  0
    2.7792   -0.3500    0.0000 C   0  0  0  0  0  0  0  0  0  0  0  0
    0.2250   -1.3292    0.0000 C   0  0  0  0  0  0  0  0  0  0  0  0
    6.7542   -4.8875    0.0000 O   0  0  0  0  0  0  0  0  0  0  0  0
    1.9917   -0.0917    0.0000 C   0  0  0  0  0  0  0  0  0  0  0  0
    5.4500   -4.3000    0.0000 O   0  0  0  0  0  0  0  0  0  0  0  0
    7.4417   -3.3667    0.0000 C   0  0  0  0  0  0  0  0  0  0  0  0
    7.2792   -1.9417    0.0000 C   0  0  0  0  0  0  0  0  0  0  0  0
    7.7792   -2.6125    0.0000 C   0  0  0  0  0  0  0  0  0  0  0  0
  2  1  1  0  0  0  0
  3  1  1  0  0  0  0
  4  3  1  0  0  0  0
  5  1  1  0  0  0  0
  6  2  1  0  0  0  0
  7  9  1  0  0  0  0
  8  7  2  0  0  0  0
  9  4  1  0  0  0  0
 10  5  1  0  0  0  0
 11  8  1  0  0  0  0
 12 10  2  0  0  0  0
 13  7  1  0  0  0  0
 14  2  2  0  0  0  0
 15 22  2  0  0  0  0
 16 12  1  0  0  0  0
 17  3  2  0  0  0  0
 18 15  1  0  0  0  0
 19  5  2  0  0  0  0
 20 16  1  0  0  0  0
 21 11  2  0  0  0  0
 22 19  1  0  0  0  0
 23 11  1  0  0  0  0
 24  8  1  0  0  0  0
 25 13  2  0  0  0  0
 26 25  1  0  0  0  0
  6  4  1  0  0  0  0
 15 12  1  0  0  0  0
 20 18  1  0  0  0  0
 26 24  2  0  0  0  0
M  END
> <IDNUMBER>
F1383-0022

> <Chemical_Name>
2-{[1-(2H-1,3-benzodioxol-5-yl)-2,5-dioxopyrrolidin-3-yl]sulfanyl}pyridine-3-carboxylic acid

> <CAS>
685130-32-9

> <PriceCoeff>
1.00

> <MW>
372.35

> <Description>
solid

> <FSP3>
0.18

> <clogP>
1.58

> <TPSA>
131.33

> <Acceptor>
7

> <Donor>
1

> <RotBonds>
4

> <HAC>
26

> <Collection>
General

$$$$
F2668-0051
  -ISIS-  06222321152D

 27 30  0  0  0  0  0  0  0  0999 V2000
   -3.8625    7.4417    0.0000 N   0  0  3  0  0  0  0  0  0  0  0  0
   -4.5083    1.0708    0.0000 N   0  3  0  0  0  0  0  0  0  0  0  0
   -3.8625    6.6917    0.0000 C   0  0  0  0  0  0  0  0  0  0  0  0
   -4.5083    3.3208    0.0000 C   0  0  0  0  0  0  0  0  0  0  0  0
   -4.5083    4.0667    0.0000 C   0  0  0  0  0  0  0  0  0  0  0  0
   -4.5208    6.3167    0.0000 C   0  0  0  0  0  0  0  0  0  0  0  0
   -4.5083    7.8167    0.0000 C   0  0  0  0  0  0  0  0  0  0  0  0
   -3.2208    6.3167    0.0000 C   0  0  0  0  0  0  0  0  0  0  0  0
   -3.8625    2.9458    0.0000 C   0  0  0  0  0  0  0  0  0  0  0  0
   -4.5083    1.8208    0.0000 C   0  0  0  0  0  0  0  0  0  0  0  0
   -3.8625    4.4417    0.0000 N   0  0  0  0  0  0  0  0  0  0  0  0
   -3.8625    2.1958    0.0000 C   0  0  0  0  0  0  0  0  0  0  0  0
   -3.8625    5.1917    0.0000 C   0  0  0  0  0  0  0  0  0  0  0  0
   -5.1583    2.9458    0.0000 C   0  0  0  0  0  0  0  0  0  0  0  0
   -4.5208    5.5667    0.0000 C   0  0  0  0  0  0  0  0  0  0  0  0
   -5.1583    0.6958    0.0000 O   0  5  0  0  0  0  0  0  0  0  0  0
   -3.2208    5.5667    0.0000 C   0  0  0  0  0  0  0  0  0  0  0  0
   -3.8583    0.6958    0.0000 O   0  0  0  0  0  0  0  0  0  0  0  0
   -5.1583    4.4417    0.0000 O   0  0  0  0  0  0  0  0  0  0  0  0
   -5.1625    6.6917    0.0000 C   0  0  0  0  0  0  0  0  0  0  0  0
   -5.1583    2.1958    0.0000 C   0  0  0  0  0  0  0  0  0  0  0  0
   -5.1583    7.4417    0.0000 C   0  0  0  0  0  0  0  0  0  0  0  0
   -4.5083    8.5667    0.0000 O   0  0  0  0  0  0  0  0  0  0  0  0
   -3.2083    3.3333    0.0000 Cl  0  0  0  0  0  0  0  0  0  0  0  0
   -3.2208    7.8167    0.0000 C   0  0  0  0  0  0  0  0  0  0  0  0
   -2.5708    6.6917    0.0000 C   0  0  0  0  0  0  0  0  0  0  0  0
   -2.5708    7.4417    0.0000 C   0  0  0  0  0  0  0  0  0  0  0  0
  2 10  1  0  0  0  0
  3  1  1  0  0  0  0
  4  5  1  0  0  0  0
  5 11  1  0  0  0  0
  6  3  1  0  0  0  0
  7  1  1  0  0  0  0
  8  3  2  0  0  0  0
  9  4  1  0  0  0  0
 10 21  2  0  0  0  0
 11 13  1  0  0  0  0
 12  9  2  0  0  0  0
 13 17  2  0  0  0  0
 14  4  2  0  0  0  0
 15  6  2  0  0  0  0
 16  2  1  0  0  0  0
 17  8  1  0  0  0  0
 18  2  2  0  0  0  0
 19  5  2  0  0  0  0
 20 22  1  0  0  0  0
 21 14  1  0  0  0  0
 22  7  1  0  0  0  0
 23  7  2  0  0  0  0
 24  9  1  0  0  0  0
 25  1  1  0  0  0  0
 26 27  1  0  0  0  0
 27 25  1  0  0  0  0
 26  8  1  0  0  0  0
 20  6  1  0  0  0  0
 13 15  1  0  0  0  0
 10 12  1  0  0  0  0
M  CHG  2   2   1  16  -1
M  END
> <IDNUMBER>
F2668-0051

> <Chemical_Name>
2-chloro-4-nitro-N-{2-oxo-1-azatricyclo[7.3.1.0^{5,13}]trideca-5,7,9(13)-trien-7-yl}benzamide

> <CAS>
903300-04-9

> <PriceCoeff>
1.00

> <MW>
385.80

> <Description>
solid

> <FSP3>
0.26

> <clogP>
2.69

> <TPSA>
92.55

> <Acceptor>
4

> <Donor>
1

> <RotBonds>
3

> <HAC>
27

> <Collection>
General

$$$$
F3023-0990
  -ISIS-  06222321152D

 27 30  0  0  0  0  0  0  0  0999 V2000
    3.5500   -6.4542    0.0000 N   0  0  3  0  0  0  0  0  0  0  0  0
    3.9667   -5.8792    0.0000 C   0  0  0  0  0  0  0  0  0  0  0  0
    3.9667   -7.0250    0.0000 C   0  0  0  0  0  0  0  0  0  0  0  0
    4.6417   -6.8042    0.0000 C   0  0  3  0  0  0  0  0  0  0  0  0
    4.6417   -6.0917    0.0000 C   0  0  0  0  0  0  0  0  0  0  0  0
    2.8417   -6.4542    0.0000 C   0  0  0  0  0  0  0  0  0  0  0  0
    7.8042   -6.0625    0.0000 N   0  0  3  0  0  0  0  0  0  0  0  0
    5.2167   -7.2167    0.0000 N   0  0  0  0  0  0  0  0  0  0  0  0
    3.7417   -5.2042    0.0000 O   0  0  0  0  0  0  0  0  0  0  0  0
    7.1542   -6.3542    0.0000 C   0  0  0  0  0  0  0  0  0  0  0  0
    3.7542   -7.7000    0.0000 O   0  0  0  0  0  0  0  0  0  0  0  0
    2.4875   -5.8417    0.0000 C   0  0  0  0  0  0  0  0  0  0  0  0
    7.0875   -7.0542    0.0000 C   0  0  0  0  0  0  0  0  0  0  0  0
    6.5792   -5.9375    0.0000 C   0  0  0  0  0  0  0  0  0  0  0  0
    5.8667   -6.9292    0.0000 C   0  0  0  0  0  0  0  0  0  0  0  0
    2.8375   -5.2292    0.0000 F   0  0  0  0  0  0  0  0  0  0  0  0
    5.9292   -6.2250    0.0000 C   0  0  0  0  0  0  0  0  0  0  0  0
    6.4375   -7.3417    0.0000 C   0  0  0  0  0  0  0  0  0  0  0  0
    8.3792   -6.4792    0.0000 C   0  0  0  0  0  0  0  0  0  0  0  0
    7.8792   -5.3542    0.0000 C   0  0  0  0  0  0  0  0  0  0  0  0
    2.4917   -7.0750    0.0000 C   0  0  0  0  0  0  0  0  0  0  0  0
    1.7792   -5.8500    0.0000 C   0  0  0  0  0  0  0  0  0  0  0  0
    8.5292   -5.0667    0.0000 C   0  0  0  0  0  0  0  0  0  0  0  0
    9.0292   -6.1917    0.0000 C   0  0  0  0  0  0  0  0  0  0  0  0
    1.7917   -7.0792    0.0000 C   0  0  0  0  0  0  0  0  0  0  0  0
    1.4292   -6.4667    0.0000 C   0  0  0  0  0  0  0  0  0  0  0  0
    9.1042   -5.4875    0.0000 C   0  0  0  0  0  0  0  0  0  0  0  0
  2  1  1  0  0  0  0
  3  1  1  0  0  0  0
  4  3  1  0  0  0  0
  5  2  1  0  0  0  0
  6  1  1  0  0  0  0
  7 10  1  0  0  0  0
  8  4  1  0  0  0  0
  9  2  2  0  0  0  0
 10 13  2  0  0  0  0
 11  3  2  0  0  0  0
 12  6  2  0  0  0  0
 13 18  1  0  0  0  0
 14 17  2  0  0  0  0
 15  8  1  0  0  0  0
 16 12  1  0  0  0  0
 17 15  1  0  0  0  0
 18 15  2  0  0  0  0
 19  7  1  0  0  0  0
 20  7  1  0  0  0  0
 21  6  1  0  0  0  0
 22 12  1  0  0  0  0
 23 20  1  0  0  0  0
 24 19  1  0  0  0  0
 25 21  2  0  0  0  0
 26 25  1  0  0  0  0
 27 23  1  0  0  0  0
  5  4  1  0  0  0  0
 26 22  2  0  0  0  0
 14 10  1  0  0  0  0
 27 24  1  0  0  0  0
M  END
> <IDNUMBER>
F3023-0990

> <Chemical_Name>
1-(2-fluorophenyl)-3-{[4-(piperidin-1-yl)phenyl]amino}pyrrolidine-2,5-dione

> <CAS>
1008960-30-2

> <PriceCoeff>
1.00

> <MW>
367.42

> <Description>
solid

> <FSP3>
0.33

> <clogP>
3.58

> <TPSA>
52.65

> <Acceptor>
4

> <Donor>
2

> <RotBonds>
4

> <HAC>
27

> <Collection>
General

$$$$
F3188-0115
  -ISIS-  06222321152D

 23 26  0  0  0  0  0  0  0  0999 V2000
    5.0167   -6.2667    0.0000 N   0  0  3  0  0  0  0  0  0  0  0  0
    5.5042   -5.5917    0.0000 C   0  0  0  0  0  0  0  0  0  0  0  0
    5.5125   -6.9292    0.0000 C   0  0  0  0  0  0  0  0  0  0  0  0
    6.2917   -6.6667    0.0000 C   0  0  3  0  0  0  0  0  0  0  0  0
    6.2917   -5.8417    0.0000 C   0  0  0  0  0  0  0  0  0  0  0  0
    6.9542   -7.1500    0.0000 N   0  0  0  0  0  0  0  0  0  0  0  0
    9.1292   -6.9500    0.0000 C   0  0  0  0  0  0  0  0  0  0  0  0
    8.3792   -7.2917    0.0000 C   0  0  0  0  0  0  0  0  0  0  0  0
    4.2000   -6.2667    0.0000 C   0  0  0  0  0  0  0  0  0  0  0  0
    5.2417   -4.8125    0.0000 O   0  0  0  0  0  0  0  0  0  0  0  0
    9.2042   -6.1292    0.0000 C   0  0  0  0  0  0  0  0  0  0  0  0
    9.8792   -7.2792    0.0000 O   0  0  0  0  0  0  0  0  0  0  0  0
    7.7042   -6.8125    0.0000 C   0  0  0  0  0  0  0  0  0  0  0  0
    5.2542   -7.7167    0.0000 O   0  0  0  0  0  0  0  0  0  0  0  0
   10.0125   -5.9542    0.0000 O   0  0  0  0  0  0  0  0  0  0  0  0
   10.4292   -6.6625    0.0000 C   0  0  0  0  0  0  0  0  0  0  0  0
    8.5292   -5.6542    0.0000 C   0  0  0  0  0  0  0  0  0  0  0  0
    7.7875   -5.9917    0.0000 C   0  0  0  0  0  0  0  0  0  0  0  0
    3.7792   -5.5542    0.0000 C   0  0  0  0  0  0  0  0  0  0  0  0
    3.7917   -6.9875    0.0000 C   0  0  0  0  0  0  0  0  0  0  0  0
    2.9667   -6.9917    0.0000 C   0  0  0  0  0  0  0  0  0  0  0  0
    2.9542   -5.5625    0.0000 C   0  0  0  0  0  0  0  0  0  0  0  0
    2.5500   -6.2792    0.0000 C   0  0  0  0  0  0  0  0  0  0  0  0
  2  1  1  0  0  0  0
  3  1  1  0  0  0  0
  4  3  1  0  0  0  0
  5  2  1  0  0  0  0
  6  4  1  0  0  0  0
  7  8  1  0  0  0  0
  8 13  2  0  0  0  0
  9  1  1  0  0  0  0
 10  2  2  0  0  0  0
 11 17  1  0  0  0  0
 12  7  1  0  0  0  0
 13  6  1  0  0  0  0
 14  3  2  0  0  0  0
 15 11  1  0  0  0  0
 16 12  1  0  0  0  0
 17 18  2  0  0  0  0
 18 13  1  0  0  0  0
 19  9  2  0  0  0  0
 20  9  1  0  0  0  0
 21 20  2  0  0  0  0
 22 19  1  0  0  0  0
 23 21  1  0  0  0  0
  5  4  1  0  0  0  0
 23 22  2  0  0  0  0
  7 11  2  0  0  0  0
 15 16  1  0  0  0  0
M  END
> <IDNUMBER>
F3188-0115

> <Chemical_Name>
3-[(2H-1,3-benzodioxol-5-yl)amino]-1-phenylpyrrolidine-2,5-dione

> <CAS>
1008051-74-8

> <PriceCoeff>
1.00

> <MW>
310.30

> <Description>
solid

> <FSP3>
0.18

> <clogP>
2.58

> <TPSA>
67.87

> <Acceptor>
5

> <Donor>
1

> <RotBonds>
3

> <HAC>
23

> <Collection>
General

$$$$
F0919-4623
  -ISIS-  06222321142D

 13 14  0  0  0  0  0  0  0  0999 V2000
   10.7375   -5.5250    0.0000 C   0  0  0  0  0  0  0  0  0  0  0  0
    7.9125  -10.4750    0.0000 C   0  0  0  0  0  0  0  0  0  0  0  0
   10.7667  -12.0750    0.0000 C   0  0  0  0  0  0  0  0  0  0  0  0
   13.5750  -10.4750    0.0000 C   0  0  0  0  0  0  0  0  0  0  0  0
    7.9125   -7.2000    0.0000 C   0  0  0  0  0  0  0  0  0  0  0  0
   13.5750   -7.2000    0.0000 C   0  0  0  0  0  0  0  0  0  0  0  0
   11.4375  -15.2625    0.0000 O   0  0  0  0  0  0  0  0  0  0  0  0
   16.0000  -12.6375    0.0000 O   0  0  0  0  0  0  0  0  0  0  0  0
   14.6750  -15.6125    0.0000 C   0  0  0  0  0  0  0  0  0  0  0  0
   10.7375   -2.2500    0.0000 C   0  0  0  0  0  0  0  0  0  0  0  0
   13.5750   -0.6125    0.0000 O   0  0  0  0  0  0  0  0  0  0  0  0
    5.0750   -5.5750    0.0000 O   0  0  0  0  0  0  0  0  0  0  0  0
    2.2500   -7.2125    0.0000 C   0  0  0  0  0  0  0  0  0  0  0  0
  2  5  2  0  0  0  0
  3  4  2  0  0  0  0
  4  6  1  0  0  0  0
  5  1  1  0  0  0  0
  6  1  2  0  0  0  0
  7  3  1  0  0  0  0
  8  4  1  0  0  0  0
  9  8  1  0  0  0  0
 10  1  1  0  0  0  0
 11 10  2  0  0  0  0
 12  5  1  0  0  0  0
 13 12  1  0  0  0  0
  2  3  1  0  0  0  0
  7  9  1  0  0  0  0
M  END
> <IDNUMBER>
F0919-4623

> <Chemical_Name>
6-methoxy-2H-1,3-benzodioxole-5-carbaldehyde

> <CAS>
5780-00-7

> <PriceCoeff>
1.00

> <MW>
180.16

> <Description>
solid

> <FSP3>
0.22

> <clogP>
1.71

> <TPSA>
44.76

> <Acceptor>
4

> <Donor>
0

> <RotBonds>
2

> <HAC>
13

> <Collection>
General

> <Reference_compound>
CHEMBL271663

> <Similarity>
0.8040

$$$$
F1383-0013
  -ISIS-  06222321142D

 26 28  0  0  0  0  0  0  0  0999 V2000
    2.6167    1.0083    0.0000 N   0  0  3  0  0  0  0  0  0  0  0  0
    3.2875    1.4875    0.0000 C   0  0  0  0  0  0  0  0  0  0  0  0
    2.8750    0.2208    0.0000 C   0  0  0  0  0  0  0  0  0  0  0  0
    3.7000    0.2208    0.0000 C   0  0  3  0  0  0  0  0  0  0  0  0
    3.9542    1.0083    0.0000 C   0  0  0  0  0  0  0  0  0  0  0  0
    5.0042   -0.3625    0.0000 C   0  0  0  0  0  0  0  0  0  0  0  0
    5.4792   -1.0292    0.0000 C   0  0  0  0  0  0  0  0  0  0  0  0
    4.1792   -0.4500    0.0000 S   0  0  0  0  0  0  0  0  0  0  0  0
    5.1417   -1.7875    0.0000 C   0  0  0  0  0  0  0  0  0  0  0  0
    1.8375    1.2583    0.0000 C   0  0  0  0  0  0  0  0  0  0  0  0
    5.3292    0.3875    0.0000 N   0  0  0  0  0  0  0  0  0  0  0  0
    3.2792    2.3125    0.0000 O   0  0  0  0  0  0  0  0  0  0  0  0
    2.3792   -0.4500    0.0000 O   0  0  0  0  0  0  0  0  0  0  0  0
    5.6250   -2.4542    0.0000 O   0  0  0  0  0  0  0  0  0  0  0  0
    1.6667    2.0625    0.0000 C   0  0  0  0  0  0  0  0  0  0  0  0
    1.2292    0.7083    0.0000 C   0  0  0  0  0  0  0  0  0  0  0  0
    4.3250   -1.8667    0.0000 O   0  0  0  0  0  0  0  0  0  0  0  0
    0.2667    1.7708    0.0000 C   0  0  0  0  0  0  0  0  0  0  0  0
    0.8792    2.3208    0.0000 C   0  0  0  0  0  0  0  0  0  0  0  0
    0.4417    0.9583    0.0000 C   0  0  0  0  0  0  0  0  0  0  0  0
    6.3042   -0.9417    0.0000 C   0  0  0  0  0  0  0  0  0  0  0  0
   -0.5208    2.0208    0.0000 O   0  0  0  0  0  0  0  0  0  0  0  0
    6.1500    0.4750    0.0000 C   0  0  0  0  0  0  0  0  0  0  0  0
   -0.6875    2.8333    0.0000 C   0  0  0  0  0  0  0  0  0  0  0  0
    6.6417   -0.1917    0.0000 C   0  0  0  0  0  0  0  0  0  0  0  0
   -1.4750    3.0833    0.0000 C   0  0  0  0  0  0  0  0  0  0  0  0
  2  1  1  0  0  0  0
  3  1  1  0  0  0  0
  4  3  1  0  0  0  0
  5  2  1  0  0  0  0
  6  8  1  0  0  0  0
  7  6  2  0  0  0  0
  8  4  1  0  0  0  0
  9  7  1  0  0  0  0
 10  1  1  0  0  0  0
 11  6  1  0  0  0  0
 12  2  2  0  0  0  0
 13  3  2  0  0  0  0
 14  9  2  0  0  0  0
 15 10  2  0  0  0  0
 16 10  1  0  0  0  0
 17  9  1  0  0  0  0
 18 20  1  0  0  0  0
 19 15  1  0  0  0  0
 20 16  2  0  0  0  0
 21  7  1  0  0  0  0
 22 18  1  0  0  0  0
 23 11  2  0  0  0  0
 24 22  1  0  0  0  0
 25 23  1  0  0  0  0
 26 24  1  0  0  0  0
  5  4  1  0  0  0  0
 18 19  2  0  0  0  0
 25 21  2  0  0  0  0
M  END
> <IDNUMBER>
F1383-0013

> <Chemical_Name>
2-{[1-(4-ethoxyphenyl)-2,5-dioxopyrrolidin-3-yl]sulfanyl}pyridine-3-carboxylic acid

> <CAS>
448198-55-8

> <PriceCoeff>
1.00

> <MW>
372.40

> <Description>
solid

> <FSP3>
0.22

> <clogP>
2.13

> <TPSA>
122.10

> <Acceptor>
6

> <Donor>
1

> <RotBonds>
6

> <HAC>
26

> <Collection>
General

$$$$
F2756-0977
  -ISIS-  06222304352D

 36 39  0  0  0  0  0  0  0  0999 V2000
   -3.1583    5.0292    0.0000 C   0  0  0  0  0  0  0  0  0  0  0  0
   -3.1583    4.2042    0.0000 N   0  0  3  0  0  0  0  0  0  0  0  0
   -3.8250    5.5167    0.0000 N   0  0  0  0  0  0  0  0  0  0  0  0
   -3.8833    0.5125    0.0000 N   0  0  3  0  0  0  0  0  0  0  0  0
   -2.4958    5.5167    0.0000 S   0  0  0  0  0  0  0  0  0  0  0  0
   -3.8708    3.8000    0.0000 C   0  0  0  0  0  0  0  0  0  0  0  0
   -2.7500    6.3000    0.0000 C   0  0  0  0  0  0  0  0  0  0  0  0
   -4.5083    0.0083    0.0000 C   0  0  0  0  0  0  0  0  0  0  0  0
   -3.1958    0.0583    0.0000 C   0  0  0  0  0  0  0  0  0  0  0  0
   -3.5750    6.3000    0.0000 C   0  0  0  0  0  0  0  0  0  0  0  0
   -2.4458    3.8000    0.0000 C   0  0  0  0  0  0  0  0  0  0  0  0
   -3.8750    1.3375    0.0000 C   0  0  0  0  0  0  0  0  0  0  0  0
   -2.3375    7.0125    0.0000 C   0  0  0  0  0  0  0  0  0  0  0  0
   -3.8708    2.9833    0.0000 C   0  0  0  0  0  0  0  0  0  0  0  0
   -1.7333    2.5583    0.0000 N   0  0  3  0  0  0  0  0  0  0  0  0
   -4.5833    4.2042    0.0000 O   0  0  0  0  0  0  0  0  0  0  0  0
   -4.2333   -0.7625    0.0000 C   0  0  0  0  0  0  0  0  0  0  0  0
   -3.4208   -0.7375    0.0000 C   0  0  0  0  0  0  0  0  0  0  0  0
   -5.3083    0.2333    0.0000 O   0  0  0  0  0  0  0  0  0  0  0  0
   -2.4083    0.3375    0.0000 O   0  0  0  0  0  0  0  0  0  0  0  0
   -3.9833    7.0125    0.0000 C   0  0  0  0  0  0  0  0  0  0  0  0
   -3.1500    1.7458    0.0000 C   0  0  0  0  0  0  0  0  0  0  0  0
   -4.5833    1.7500    0.0000 C   0  0  0  0  0  0  0  0  0  0  0  0
   -2.4458    2.9708    0.0000 C   0  0  0  0  0  0  0  0  0  0  0  0
   -4.5708    2.5833    0.0000 C   0  0  0  0  0  0  0  0  0  0  0  0
   -3.1458    2.5708    0.0000 C   0  0  0  0  0  0  0  0  0  0  0  0
   -0.3083    1.7333    0.0000 O   0  0  0  0  0  0  0  0  0  0  0  0
   -2.7500    7.7292    0.0000 C   0  0  0  0  0  0  0  0  0  0  0  0
   -3.5708    7.7167    0.0000 C   0  0  0  0  0  0  0  0  0  0  0  0
   -2.3458    8.4542    0.0000 O   0  0  0  0  0  0  0  0  0  0  0  0
   -1.7333    1.7375    0.0000 C   0  0  0  0  0  0  0  0  0  0  0  0
   -1.0208    2.9833    0.0000 C   0  0  0  0  0  0  0  0  0  0  0  0
   -0.3083    2.5625    0.0000 C   0  0  0  0  0  0  0  0  0  0  0  0
   -1.0208    1.3250    0.0000 C   0  0  0  0  0  0  0  0  0  0  0  0
   -1.5208    8.4667    0.0000 C   0  0  0  0  0  0  0  0  0  0  0  0
    1.2084    3.9958    0.0000 Cl  0  0  0  0  0  0  0  0  0  0  0  0
  3  1  2  0  0  0  0
  4 12  1  0  0  0  0
  5  1  1  0  0  0  0
  6  2  1  0  0  0  0
  7  5  1  0  0  0  0
  8  4  1  0  0  0  0
  9  4  1  0  0  0  0
 10  3  1  0  0  0  0
 11  2  1  0  0  0  0
 12 22  1  0  0  0  0
 13  7  1  0  0  0  0
 14  6  1  0  0  0  0
 15 24  1  0  0  0  0
 16  6  2  0  0  0  0
 17  8  1  0  0  0  0
 18  9  1  0  0  0  0
 19  8  2  0  0  0  0
 20  9  2  0  0  0  0
 21 10  1  0  0  0  0
 22 26  2  0  0  0  0
 23 25  1  0  0  0  0
 24 11  1  0  0  0  0
 25 14  2  0  0  0  0
 26 14  1  0  0  0  0
 27 33  1  0  0  0  0
 28 13  2  0  0  0  0
 29 21  2  0  0  0  0
 30 28  1  0  0  0  0
 31 15  1  0  0  0  0
 32 15  1  0  0  0  0
 33 32  1  0  0  0  0
 34 31  1  0  0  0  0
 35 30  1  0  0  0  0
  7 10  2  0  0  0  0
 29 28  1  0  0  0  0
 12 23  2  0  0  0  0
 27 34  1  0  0  0  0
 18 17  1  0  0  0  0
  2  1  1  0  0  0  0
M  END
> <IDNUMBER>
F2756-0977

> <Chemical_Name>
4-(2,5-dioxopyrrolidin-1-yl)-N-(6-methoxy-1,3-benzothiazol-2-yl)-N-[2-(morpholin-4-yl)ethyl]benzamide hydrochloride

> <CAS>
1329927-50-5

> <PriceCoeff>
1.00

> <MW>
494.56

> <Description>
solid

> <FSP3>
0.36

> <clogP>
1.40

> <TPSA>
120.52

> <Acceptor>
6

> <Donor>
1

> <RotBonds>
8

> <HAC>
35

> <Collection>
General

$$$$
F0799-0088
  -ISIS-  06222321452D

 20 21  0  0  0  0  0  0  0  0999 V2000
   -0.3458    0.5333    0.0000 C   0  0  0  0  0  0  0  0  0  0  0  0
   -0.3458    1.3083    0.0000 C   0  0  0  0  0  0  0  0  0  0  0  0
    0.3167    0.1333    0.0000 N   0  0  0  0  0  0  0  0  0  0  0  0
   -1.0333    0.1375    0.0000 N   0  0  3  0  0  0  0  0  0  0  0  0
   -1.7000    1.3083    0.0000 N   0  0  3  0  0  0  0  0  0  0  0  0
   -1.7000    0.5208    0.0000 C   0  0  0  0  0  0  0  0  0  0  0  0
   -1.0333    1.7000    0.0000 C   0  0  0  0  0  0  0  0  0  0  0  0
    0.9875    0.5125    0.0000 C   0  0  0  0  0  0  0  0  0  0  0  0
    1.0000    1.3000    0.0000 N   0  0  3  0  0  0  0  0  0  0  0  0
   -2.3750    0.1333    0.0000 O   0  0  0  0  0  0  0  0  0  0  0  0
   -1.0333    2.4833    0.0000 O   0  0  0  0  0  0  0  0  0  0  0  0
    1.6542    0.1333    0.0000 Br  0  0  0  0  0  0  0  0  0  0  0  0
   -1.0333   -0.6417    0.0000 C   0  0  0  0  0  0  0  0  0  0  0  0
   -2.4583    1.5083    0.0000 C   0  0  0  0  0  0  0  0  0  0  0  0
    1.5875    1.8750    0.0000 C   0  0  0  0  0  0  0  0  0  0  0  0
    2.3792    1.6583    0.0000 C   0  0  0  0  0  0  0  0  0  0  0  0
    4.3375    2.5958    0.0000 C   0  0  0  0  0  0  0  0  0  0  0  0
    3.7542    2.0083    0.0000 C   0  0  0  0  0  0  0  0  0  0  0  0
    2.9667    2.2333    0.0000 C   0  0  0  0  0  0  0  0  0  0  0  0
    5.1292    2.3833    0.0000 C   0  0  0  0  0  0  0  0  0  0  0  0
  2  1  2  0  0  0  0
  3  1  1  0  0  0  0
  4  1  1  0  0  0  0
  5  6  1  0  0  0  0
  6  4  1  0  0  0  0
  7  2  1  0  0  0  0
  8  3  2  0  0  0  0
  9  2  1  0  0  0  0
 10  6  2  0  0  0  0
 11  7  2  0  0  0  0
 12  8  1  0  0  0  0
 13  4  1  0  0  0  0
 14  5  1  0  0  0  0
 15  9  1  0  0  0  0
 16 15  1  0  0  0  0
 17 18  1  0  0  0  0
 18 19  1  0  0  0  0
 19 16  1  0  0  0  0
 20 17  1  0  0  0  0
  8  9  1  0  0  0  0
  7  5  1  0  0  0  0
M  END
> <IDNUMBER>
F0799-0088

> <Chemical_Name>
8-bromo-7-hexyl-1,3-dimethyl-2,3,6,7-tetrahydro-1H-purine-2,6-dione

> <CAS>
1225-19-0

> <PriceCoeff>
1.00

> <MW>
343.23

> <Description>
solid

> <FSP3>
0.62

> <clogP>
3.50

> <TPSA>
58.44

> <Acceptor>
3

> <Donor>
1

> <RotBonds>
5

> <HAC>
20

> <Collection>
General

> <Reference_compound>
CHEMBL113

> <Similarity>
0.8000

$$$$
F9994-5178
  -ISIS-  06222321472D

 11 11  0  0  0  0  0  0  0  0999 V2000
   -1.2875    2.3583    0.0000 C   0  0  0  0  0  0  0  0  0  0  0  0
   -0.5708    1.9458    0.0000 C   0  0  0  0  0  0  0  0  0  0  0  0
   -2.0000    1.9458    0.0000 C   0  0  0  0  0  0  0  0  0  0  0  0
    0.1417    2.3625    0.0000 C   0  0  0  0  0  0  0  0  0  0  0  0
    0.8542    1.9583    0.0000 O   0  0  0  0  0  0  0  0  0  0  0  0
   -1.2958    3.1833    0.0000 O   0  0  0  0  0  0  0  0  0  0  0  0
   -2.7125    2.3583    0.0000 O   0  0  0  0  0  0  0  0  0  0  0  0
   -0.5708    1.1208    0.0000 C   0  0  0  0  0  0  0  0  0  0  0  0
   -1.2875    0.7083    0.0000 C   0  0  0  0  0  0  0  0  0  0  0  0
   -2.0000    1.1208    0.0000 C   0  0  0  0  0  0  0  0  0  0  0  0
   -2.0083    3.5958    0.0000 C   0  0  0  0  0  0  0  0  0  0  0  0
  2  1  2  0  0  0  0
  3  1  1  0  0  0  0
  4  2  1  0  0  0  0
  5  4  2  0  0  0  0
  6  1  1  0  0  0  0
  7  3  1  0  0  0  0
  8  2  1  0  0  0  0
  9 10  1  0  0  0  0
 10  3  2  0  0  0  0
 11  6  1  0  0  0  0
  9  8  2  0  0  0  0
M  END
> <IDNUMBER>
F9994-5178

> <Chemical_Name>
3-hydroxy-2-methoxybenzaldehyde

> <CAS>
66495-88-3

> <PriceCoeff>
1.00

> <MW>
152.15

> <Description>
solid

> <FSP3>
0.12

> <clogP>
1.28

> <TPSA>
46.53

> <Acceptor>
3

> <Donor>
1

> <RotBonds>
2

> <HAC>
11

> <Collection>
General

> <Reference_compound>
CHEMBL13859

> <Similarity>
0.9530

$$$$
F3139-1207
  -ISIS-  06222321152D

 20 22  0  0  0  0  0  0  0  0999 V2000
   11.7667    0.4208    0.0000 C   0  0  0  0  0  0  0  0  0  0  0  0
   11.0417    0.0083    0.0000 C   0  0  0  0  0  0  0  0  0  0  0  0
   10.3250    0.4208    0.0000 C   0  0  0  0  0  0  0  0  0  0  0  0
   11.7667    1.2583    0.0000 C   0  0  0  0  0  0  0  0  0  0  0  0
   10.3292    1.2583    0.0000 C   0  0  0  0  0  0  0  0  0  0  0  0
   11.0417    1.6750    0.0000 O   0  0  0  0  0  0  0  0  0  0  0  0
   12.4750    0.0083    0.0000 C   0  0  0  0  0  0  0  0  0  0  0  0
    9.6125    0.0125    0.0000 C   0  0  0  0  0  0  0  0  0  0  0  0
    9.6125    1.6708    0.0000 C   0  0  0  0  0  0  0  0  0  0  0  0
   11.0417   -0.8167    0.0000 O   0  0  0  0  0  0  0  0  0  0  0  0
   12.4667   -0.8167    0.0000 C   0  0  0  0  0  0  0  0  0  0  0  0
   13.1875    0.4208    0.0000 C   0  0  0  0  0  0  0  0  0  0  0  0
    8.9000    1.2500    0.0000 C   0  0  0  0  0  0  0  0  0  0  0  0
    8.9000    0.4250    0.0000 C   0  0  0  0  0  0  0  0  0  0  0  0
   13.9000   -0.8250    0.0000 C   0  0  0  0  0  0  0  0  0  0  0  0
   13.9000    0.0083    0.0000 C   0  0  0  0  0  0  0  0  0  0  0  0
   13.1792   -1.2292    0.0000 C   0  0  0  0  0  0  0  0  0  0  0  0
    8.1875    1.6625    0.0000 O   0  0  0  0  0  0  0  0  0  0  0  0
   14.6125   -1.2375    0.0000 O   0  0  0  0  0  0  0  0  0  0  0  0
   15.3292   -0.8250    0.0000 C   0  0  0  0  0  0  0  0  0  0  0  0
  2  1  1  0  0  0  0
  3  2  1  0  0  0  0
  4  1  2  0  0  0  0
  5  6  1  0  0  0  0
  6  4  1  0  0  0  0
  7  1  1  0  0  0  0
  8  3  2  0  0  0  0
  9  5  2  0  0  0  0
 10  2  2  0  0  0  0
 11  7  2  0  0  0  0
 12  7  1  0  0  0  0
 13  9  1  0  0  0  0
 14  8  1  0  0  0  0
 15 16  1  0  0  0  0
 16 12  2  0  0  0  0
 17 11  1  0  0  0  0
 18 13  1  0  0  0  0
 19 15  1  0  0  0  0
 20 19  1  0  0  0  0
 15 17  2  0  0  0  0
  5  3  1  0  0  0  0
 13 14  2  0  0  0  0
M  END
> <IDNUMBER>
F3139-1207

> <Chemical_Name>
7-hydroxy-3-(4-methoxyphenyl)-4H-chromen-4-one

> <CAS>
485-72-3

> <PriceCoeff>
1.00

> <MW>
268.26

> <Description>
solid

> <FSP3>
0.06

> <clogP>
2.64

> <TPSA>
55.76

> <Acceptor>
4

> <Donor>
1

> <RotBonds>
2

> <HAC>
20

> <Collection>
General

> <Reference_compound>
CHEMBL44

> <Similarity>
0.9760

$$$$
F3144-0137
  -ISIS-  06222321442D

 17 18  0  0  0  0  0  0  0  0999 V2000
    6.0625    2.1083    0.0000 C   0  0  0  0  0  0  0  0  0  0  0  0
    6.0625    3.5083    0.0000 C   0  0  0  0  0  0  0  0  0  0  0  0
    7.3917    1.6750    0.0000 N   0  0  0  0  0  0  0  0  0  0  0  0
    4.8500    1.4083    0.0000 N   0  0  3  0  0  0  0  0  0  0  0  0
    3.6375    3.5000    0.0000 N   0  0  3  0  0  0  0  0  0  0  0  0
    3.6375    2.1083    0.0000 C   0  0  0  0  0  0  0  0  0  0  0  0
    4.8417    4.2042    0.0000 C   0  0  0  0  0  0  0  0  0  0  0  0
    8.2125    2.8083    0.0000 C   0  0  0  0  0  0  0  0  0  0  0  0
    7.3917    3.9375    0.0000 N   0  0  3  0  0  0  0  0  0  0  0  0
    2.4250    1.4083    0.0000 O   0  0  0  0  0  0  0  0  0  0  0  0
    4.8417    5.6042    0.0000 O   0  0  0  0  0  0  0  0  0  0  0  0
    2.4167    4.1917    0.0000 C   0  0  0  0  0  0  0  0  0  0  0  0
    9.6125    2.8083    0.0000 Br  0  0  0  0  0  0  0  0  0  0  0  0
    4.8500   -0.0000    0.0000 C   0  0  0  0  0  0  0  0  0  0  0  0
    1.2125    3.4958    0.0000 C   0  0  0  0  0  0  0  0  0  0  0  0
    0.0000    4.1917    0.0000 C   0  0  0  0  0  0  0  0  0  0  0  0
    7.8292    5.2667    0.0000 C   0  0  0  0  0  0  0  0  0  0  0  0
  2  1  2  0  0  0  0
  3  1  1  0  0  0  0
  4  1  1  0  0  0  0
  5  6  1  0  0  0  0
  6  4  1  0  0  0  0
  7  2  1  0  0  0  0
  8  3  2  0  0  0  0
  9  2  1  0  0  0  0
 10  6  2  0  0  0  0
 11  7  2  0  0  0  0
 12  5  1  0  0  0  0
 13  8  1  0  0  0  0
 14  4  1  0  0  0  0
 15 12  1  0  0  0  0
 16 15  2  0  0  0  0
 17  9  1  0  0  0  0
  9  8  1  0  0  0  0
  5  7  1  0  0  0  0
M  END
> <IDNUMBER>
F3144-0137

> <Chemical_Name>
8-bromo-3,7-dimethyl-1-(prop-2-en-1-yl)-2,3,6,7-tetrahydro-1H-purine-2,6-dione

> <CAS>
16877-88-6

> <PriceCoeff>
1.00

> <MW>
299.12

> <Description>
solid

> <FSP3>
0.30

> <clogP>
1.63

> <TPSA>
58.44

> <Acceptor>
3

> <Donor>
1

> <RotBonds>
2

> <HAC>
17

> <Collection>
General

> <Reference_compound>
CHEMBL113

> <Similarity>
0.8400

$$$$
F6064-5505
  -ISIS-  06222321442D

 29 32  0  0  0  0  0  0  0  0999 V2000
   -1.3833    4.8667    0.0000 N   0  0  0  0  0  0  0  0  0  0  0  0
   -3.8625    4.2125    0.0000 N   0  0  3  0  0  0  0  0  0  0  0  0
   -2.1375    5.2042    0.0000 C   0  0  0  0  0  0  0  0  0  0  0  0
   -4.5833    3.8083    0.0000 C   0  0  0  0  0  0  0  0  0  0  0  0
   -2.8500    4.7917    0.0000 C   0  0  3  0  0  0  0  0  0  0  0  0
   -0.8208    5.4792    0.0000 C   0  0  0  0  0  0  0  0  0  0  0  0
   -1.2375    6.2042    0.0000 N   0  0  0  0  0  0  0  0  0  0  0  0
   -2.0458    6.0292    0.0000 O   0  0  0  0  0  0  0  0  0  0  0  0
   -3.0708    4.0000    0.0000 C   0  0  0  0  0  0  0  0  0  0  0  0
   -3.6458    5.0042    0.0000 C   0  0  0  0  0  0  0  0  0  0  0  0
   -4.5833    2.9833    0.0000 N   0  0  0  0  0  0  0  0  0  0  0  0
   -6.0042    1.3375    0.0000 C   0  0  0  0  0  0  0  0  0  0  0  0
   -5.3083    1.7458    0.0000 C   0  0  0  0  0  0  0  0  0  0  0  0
    0.0000    5.3917    0.0000 C   0  0  0  0  0  0  0  0  0  0  0  0
    0.4917    6.0667    0.0000 C   0  0  0  0  0  0  0  0  0  0  0  0
   -5.3000    2.5833    0.0000 C   0  0  0  0  0  0  0  0  0  0  0  0
   -5.3000    4.2125    0.0000 O   0  0  0  0  0  0  0  0  0  0  0  0
   -6.7167    1.7458    0.0000 C   0  0  0  0  0  0  0  0  0  0  0  0
    1.3042    5.9792    0.0000 C   0  0  0  0  0  0  0  0  0  0  0  0
   -6.7167    2.5708    0.0000 C   0  0  0  0  0  0  0  0  0  0  0  0
   -6.0125    0.5083    0.0000 Cl  0  0  0  0  0  0  0  0  0  0  0  0
   -6.0042    2.9833    0.0000 C   0  0  0  0  0  0  0  0  0  0  0  0
   -7.4417    1.3250    0.0000 Cl  0  0  0  0  0  0  0  0  0  0  0  0
    1.6417    5.2167    0.0000 O   0  0  0  0  0  0  0  0  0  0  0  0
    0.1500    6.8167    0.0000 C   0  0  0  0  0  0  0  0  0  0  0  0
    1.7917    6.6417    0.0000 C   0  0  0  0  0  0  0  0  0  0  0  0
    2.4667    5.1292    0.0000 C   0  0  0  0  0  0  0  0  0  0  0  0
    0.6292    7.4875    0.0000 C   0  0  0  0  0  0  0  0  0  0  0  0
    1.4625    7.4000    0.0000 C   0  0  0  0  0  0  0  0  0  0  0  0
  2 10  1  0  0  0  0
  3  1  2  0  0  0  0
  4  2  1  0  0  0  0
  5  3  1  0  0  0  0
  6  1  1  0  0  0  0
  7  6  2  0  0  0  0
  8  3  1  0  0  0  0
  9  5  1  0  0  0  0
 10  5  1  0  0  0  0
 11  4  1  0  0  0  0
 12 13  1  0  0  0  0
 13 16  2  0  0  0  0
 14  6  1  0  0  0  0
 15 14  1  0  0  0  0
 16 11  1  0  0  0  0
 17  4  2  0  0  0  0
 18 20  1  0  0  0  0
 19 15  2  0  0  0  0
 20 22  2  0  0  0  0
 21 12  1  0  0  0  0
 22 16  1  0  0  0  0
 23 18  1  0  0  0  0
 24 19  1  0  0  0  0
 25 15  1  0  0  0  0
 26 19  1  0  0  0  0
 27 24  1  0  0  0  0
 28 25  2  0  0  0  0
 29 28  1  0  0  0  0
  7  8  1  0  0  0  0
  2  9  1  0  0  0  0
 26 29  2  0  0  0  0
 12 18  2  0  0  0  0
M  END
> <IDNUMBER>
F6064-5505

> <Chemical_Name>
N-(3,4-dichlorophenyl)-3-{3-[(2-methoxyphenyl)methyl]-1,2,4-oxadiazol-5-yl}azetidine-1-carboxamide

> <CAS>
1396682-96-4

> <PriceCoeff>
1.00

> <MW>
433.29

> <Description>
solid

> <FSP3>
0.25

> <clogP>
3.11

> <TPSA>
80.49

> <Acceptor>
5

> <Donor>
1

> <RotBonds>
6

> <HAC>
29

> <Collection>
General

$$$$
F2191-0011
  -ISIS-  06222321142D

 14 15  0  0  0  0  0  0  0  0999 V2000
    4.8792   -2.5500    0.0000 C   0  0  0  0  0  0  0  0  0  0  0  0
    4.1667   -2.9667    0.0000 C   0  0  0  0  0  0  0  0  0  0  0  0
    3.4500   -2.5542    0.0000 C   0  0  0  0  0  0  0  0  0  0  0  0
    2.7375   -2.9708    0.0000 C   0  0  0  0  0  0  0  0  0  0  0  0
    2.7375   -3.7958    0.0000 C   0  0  0  0  0  0  0  0  0  0  0  0
    4.8750   -1.7250    0.0000 O   0  0  0  0  0  0  0  0  0  0  0  0
    2.0250   -4.2083    0.0000 C   0  0  0  0  0  0  0  0  0  0  0  0
    4.1667   -3.7958    0.0000 C   0  0  0  0  0  0  0  0  0  0  0  0
    3.4500   -4.2083    0.0000 C   0  0  0  0  0  0  0  0  0  0  0  0
    2.0250   -2.5583    0.0000 C   0  0  0  0  0  0  0  0  0  0  0  0
    1.3125   -3.7958    0.0000 C   0  0  0  0  0  0  0  0  0  0  0  0
    5.5958   -2.9583    0.0000 O   0  0  0  0  0  0  0  0  0  0  0  0
    0.6000   -4.2125    0.0000 N   0  0  0  0  0  0  0  0  0  0  0  0
    1.3125   -2.9708    0.0000 C   0  0  0  0  0  0  0  0  0  0  0  0
  2  1  1  0  0  0  0
  3  2  2  0  0  0  0
  4  3  1  0  0  0  0
  5  9  1  0  0  0  0
  6  1  2  0  0  0  0
  7  5  2  0  0  0  0
  8  2  1  0  0  0  0
  9  8  2  0  0  0  0
 10  4  2  0  0  0  0
 11  7  1  0  0  0  0
 12  1  1  0  0  0  0
 13 11  1  0  0  0  0
 14 10  1  0  0  0  0
  4  5  1  0  0  0  0
 11 14  2  0  0  0  0
M  END
> <IDNUMBER>
F2191-0011

> <Chemical_Name>
6-aminonaphthalene-2-carboxylic acid

> <CAS>
116668-47-4

> <PriceCoeff>
1.00

> <MW>
187.20

> <Description>
solid

> <FSP3>
0.00

> <clogP>
2.07

> <TPSA>
125.38

> <Acceptor>
3

> <Donor>
1

> <RotBonds>
1

> <HAC>
14

> <Collection>
General

> <Reference_compound>
CHEMBL542

> <Similarity>
0.8780

$$$$
F0327-0385
  -ISIS-  06222321452D

 25 27  0  0  0  0  0  0  0  0999 V2000
    4.4792   -0.8875    0.0000 N   0  0  3  0  0  0  0  0  0  0  0  0
    4.9792   -0.3292    0.0000 C   0  0  0  0  0  0  0  0  0  0  0  0
    4.8375   -1.5292    0.0000 C   0  0  0  0  0  0  0  0  0  0  0  0
    1.4792   -0.8875    0.0000 C   0  0  0  0  0  0  0  0  0  0  0  0
    1.1167   -0.2500    0.0000 N   0  0  0  0  0  0  0  0  0  0  0  0
    3.7167   -0.8875    0.0000 C   0  0  0  0  0  0  0  0  0  0  0  0
    2.2375   -0.8875    0.0000 C   0  0  0  0  0  0  0  0  0  0  0  0
   -1.8833   -0.2500    0.0000 C   0  0  0  0  0  0  0  0  0  0  0  0
   -1.1458   -0.2500    0.0000 C   0  0  0  0  0  0  0  0  0  0  0  0
    5.6542   -0.6292    0.0000 C   0  0  0  0  0  0  0  0  0  0  0  0
    5.5542   -1.3667    0.0000 C   0  0  0  0  0  0  0  0  0  0  0  0
    1.1167   -1.5292    0.0000 O   0  0  0  0  0  0  0  0  0  0  0  0
    4.5542   -2.2292    0.0000 O   0  0  0  0  0  0  0  0  0  0  0  0
    4.8167    0.4333    0.0000 O   0  0  0  0  0  0  0  0  0  0  0  0
    3.3542   -0.2500    0.0000 C   0  0  0  0  0  0  0  0  0  0  0  0
    3.3542   -1.5292    0.0000 C   0  0  0  0  0  0  0  0  0  0  0  0
   -2.2833    0.3625    0.0000 O   0  0  0  0  0  0  0  0  0  0  0  0
    2.6000   -1.5292    0.0000 C   0  0  0  0  0  0  0  0  0  0  0  0
    2.6000   -0.2500    0.0000 C   0  0  0  0  0  0  0  0  0  0  0  0
    0.3542   -0.2500    0.0000 C   0  0  0  0  0  0  0  0  0  0  0  0
   -0.7625    0.3958    0.0000 C   0  0  0  0  0  0  0  0  0  0  0  0
   -0.7625   -0.8875    0.0000 C   0  0  0  0  0  0  0  0  0  0  0  0
   -0.0208    0.3958    0.0000 C   0  0  0  0  0  0  0  0  0  0  0  0
   -0.0208   -0.8875    0.0000 C   0  0  0  0  0  0  0  0  0  0  0  0
   -2.2958   -0.8542    0.0000 C   0  0  0  0  0  0  0  0  0  0  0  0
  2  1  1  0  0  0  0
  3  1  1  0  0  0  0
  4  7  1  0  0  0  0
  5  4  1  0  0  0  0
  6  1  1  0  0  0  0
  7 18  2  0  0  0  0
  8  9  1  0  0  0  0
  9 22  1  0  0  0  0
 10  2  1  0  0  0  0
 11  3  1  0  0  0  0
 12  4  2  0  0  0  0
 13  3  2  0  0  0  0
 14  2  2  0  0  0  0
 15  6  1  0  0  0  0
 16  6  2  0  0  0  0
 17  8  2  0  0  0  0
 18 16  1  0  0  0  0
 19 15  2  0  0  0  0
 20  5  1  0  0  0  0
 21 23  1  0  0  0  0
 22 24  2  0  0  0  0
 23 20  2  0  0  0  0
 24 20  1  0  0  0  0
 25  8  1  0  0  0  0
 11 10  1  0  0  0  0
  7 19  1  0  0  0  0
 21  9  2  0  0  0  0
M  END
> <IDNUMBER>
F0327-0385

> <Chemical_Name>
N-(4-acetylphenyl)-4-(2,5-dioxopyrrolidin-1-yl)benzamide

> <CAS>
313405-96-8

> <PriceCoeff>
1.00

> <MW>
336.34

> <Description>
solid

> <FSP3>
0.16

> <clogP>
0.70

> <TPSA>
83.55

> <Acceptor>
4

> <Donor>
1

> <RotBonds>
4

> <HAC>
25

> <Collection>
General

$$$$
F3385-0097
  -ISIS-  06222321462D

 26 29  0  0  0  0  0  0  0  0999 V2000
    2.5792   -0.6375    0.0000 C   0  0  0  0  0  0  0  0  0  0  0  0
    1.1500    0.1875    0.0000 C   0  0  0  0  0  0  0  0  0  0  0  0
    1.1500   -0.6375    0.0000 C   0  0  0  0  0  0  0  0  0  0  0  0
    1.8625   -1.0500    0.0000 C   0  0  0  0  0  0  0  0  0  0  0  0
    0.4375    0.6000    0.0000 C   0  0  0  0  0  0  0  0  0  0  0  0
    1.8625    0.6000    0.0000 O   0  0  0  0  0  0  0  0  0  0  0  0
    2.5792    0.1875    0.0000 C   0  0  0  0  0  0  0  0  0  0  0  0
    0.4375    1.4250    0.0000 C   0  0  0  0  0  0  0  0  0  0  0  0
    0.4375   -1.0500    0.0000 C   0  0  0  0  0  0  0  0  0  0  0  0
    3.2917   -1.0500    0.0000 C   0  0  0  0  0  0  0  0  0  0  0  0
    1.1500    1.8375    0.0000 N   0  0  3  0  0  0  0  0  0  0  0  0
   -0.2833    0.1875    0.0000 C   0  0  0  0  0  0  0  0  0  0  0  0
    1.8625   -1.8750    0.0000 O   0  0  0  0  0  0  0  0  0  0  0  0
   -0.2833   -0.6375    0.0000 C   0  0  0  0  0  0  0  0  0  0  0  0
    4.0042   -0.6375    0.0000 C   0  0  0  0  0  0  0  0  0  0  0  0
    3.2917   -1.8792    0.0000 C   0  0  0  0  0  0  0  0  0  0  0  0
    4.7250   -1.8792    0.0000 C   0  0  0  0  0  0  0  0  0  0  0  0
    4.0042   -2.2917    0.0000 C   0  0  0  0  0  0  0  0  0  0  0  0
    4.7250   -1.0500    0.0000 C   0  0  0  0  0  0  0  0  0  0  0  0
   -1.0000    0.6000    0.0000 O   0  0  0  0  0  0  0  0  0  0  0  0
    5.4375   -2.2917    0.0000 O   0  0  0  0  0  0  0  0  0  0  0  0
    1.1500    2.6708    0.0000 C   0  0  0  0  0  0  0  0  0  0  0  0
    1.9292    1.5833    0.0000 C   0  0  0  0  0  0  0  0  0  0  0  0
    6.1542   -1.8792    0.0000 C   0  0  0  0  0  0  0  0  0  0  0  0
    1.9292    2.9208    0.0000 C   0  0  0  0  0  0  0  0  0  0  0  0
    2.4167    2.2583    0.0000 C   0  0  0  0  0  0  0  0  0  0  0  0
  2  6  1  0  0  0  0
  3  4  1  0  0  0  0
  4  1  1  0  0  0  0
  5  2  2  0  0  0  0
  6  7  1  0  0  0  0
  7  1  2  0  0  0  0
  8  5  1  0  0  0  0
  9  3  2  0  0  0  0
 10  1  1  0  0  0  0
 11  8  1  0  0  0  0
 12  5  1  0  0  0  0
 13  4  2  0  0  0  0
 14  9  1  0  0  0  0
 15 10  1  0  0  0  0
 16 10  2  0  0  0  0
 17 18  2  0  0  0  0
 18 16  1  0  0  0  0
 19 15  2  0  0  0  0
 20 12  1  0  0  0  0
 21 17  1  0  0  0  0
 22 11  1  0  0  0  0
 23 11  1  0  0  0  0
 24 21  1  0  0  0  0
 25 22  1  0  0  0  0
 26 23  1  0  0  0  0
  3  2  1  0  0  0  0
 19 17  1  0  0  0  0
 14 12  2  0  0  0  0
 25 26  1  0  0  0  0
M  END
> <IDNUMBER>
F3385-0097

> <Chemical_Name>
7-hydroxy-3-(4-methoxyphenyl)-8-[(pyrrolidin-1-yl)methyl]-4H-chromen-4-one

> <CAS>
637753-18-5

> <PriceCoeff>
1.00

> <MW>
351.40

> <Description>
solid

> <FSP3>
0.29

> <clogP>
3.06

> <TPSA>
59.00

> <Acceptor>
4

> <Donor>
2

> <RotBonds>
4

> <HAC>
26

> <Collection>
General

> <Reference_compound>
CHEMBL463936

> <Similarity>
0.8060

$$$$
F2121-0053
  -ISIS-  06222321142D

 13 13  0  0  0  0  0  0  0  0999 V2000
    3.6875   -1.7625    0.0000 C   0  0  0  0  0  0  0  0  0  0  0  0
    2.9667   -1.3500    0.0000 C   0  0  0  0  0  0  0  0  0  0  0  0
    3.6875   -2.5875    0.0000 C   0  0  0  0  0  0  0  0  0  0  0  0
    4.4042   -2.9917    0.0000 C   0  0  0  0  0  0  0  0  0  0  0  0
    2.9667   -0.5167    0.0000 C   0  0  0  0  0  0  0  0  0  0  0  0
    2.2542   -1.7625    0.0000 C   0  0  0  0  0  0  0  0  0  0  0  0
    5.1167   -2.5875    0.0000 O   0  0  0  0  0  0  0  0  0  0  0  0
    2.2542   -0.1042    0.0000 C   0  0  0  0  0  0  0  0  0  0  0  0
    1.5417   -1.3500    0.0000 C   0  0  0  0  0  0  0  0  0  0  0  0
    3.6792   -0.1042    0.0000 Cl  0  0  0  0  0  0  0  0  0  0  0  0
    4.4042   -3.8250    0.0000 O   0  0  0  0  0  0  0  0  0  0  0  0
    1.5417   -0.5250    0.0000 C   0  0  0  0  0  0  0  0  0  0  0  0
    0.8250   -1.7542    0.0000 Cl  0  0  0  0  0  0  0  0  0  0  0  0
  2  1  1  0  0  0  0
  3  1  2  0  0  0  0
  4  3  1  0  0  0  0
  5  2  1  0  0  0  0
  6  2  2  0  0  0  0
  7  4  2  0  0  0  0
  8  5  2  0  0  0  0
  9  6  1  0  0  0  0
 10  5  1  0  0  0  0
 11  4  1  0  0  0  0
 12  9  2  0  0  0  0
 13  9  1  0  0  0  0
  8 12  1  0  0  0  0
M  END
> <IDNUMBER>
F2121-0053

> <Chemical_Name>
(2E)-3-(2,5-dichlorophenyl)prop-2-enoic acid

> <CAS>


> <PriceCoeff>
1.00

> <MW>
217.05

> <Description>
solid

> <FSP3>
0.00

> <clogP>
3.67

> <TPSA>
37.30

> <Acceptor>
2

> <Donor>
0

> <RotBonds>
2

> <HAC>
13

> <Collection>
General

> <Reference_compound>
CHEMBL327951

> <Similarity>
0.8300

$$$$
F0373-0089
  -ISIS-  06222321142D

 14 15  0  0  0  0  0  0  0  0999 V2000
   -0.0625   -0.7167    0.0000 C   0  0  0  0  0  0  0  0  0  0  0  0
    1.4792   -1.2167    0.0000 N   0  0  0  0  0  0  0  0  0  0  0  0
   -0.0625    0.9000    0.0000 C   0  0  0  0  0  0  0  0  0  0  0  0
   -1.4625   -1.5292    0.0000 N   0  0  3  0  0  0  0  0  0  0  0  0
   -2.8833   -0.7167    0.0000 C   0  0  0  0  0  0  0  0  0  0  0  0
    2.4167    0.1000    0.0000 C   0  0  0  0  0  0  0  0  0  0  0  0
   -2.8833    0.9000    0.0000 N   0  0  0  0  0  0  0  0  0  0  0  0
   -1.4625    1.7208    0.0000 C   0  0  0  0  0  0  0  0  0  0  0  0
    1.4792    1.4000    0.0000 N   0  0  3  0  0  0  0  0  0  0  0  0
   -4.3125   -1.5500    0.0000 O   0  0  0  0  0  0  0  0  0  0  0  0
   -1.4625    3.3583    0.0000 O   0  0  0  0  0  0  0  0  0  0  0  0
    4.0500    0.1125    0.0000 S   0  0  0  0  0  0  0  0  0  0  0  0
   -1.4625   -3.1542    0.0000 C   0  0  0  0  0  0  0  0  0  0  0  0
    2.0000    2.9625    0.0000 C   0  0  0  0  0  0  0  0  0  0  0  0
  2  1  1  0  0  0  0
  3  1  2  0  0  0  0
  4  1  1  0  0  0  0
  5  4  1  0  0  0  0
  6  2  2  0  0  0  0
  7  5  1  0  0  0  0
  8  3  1  0  0  0  0
  9  3  1  0  0  0  0
 10  5  2  0  0  0  0
 11  8  2  0  0  0  0
 12  6  1  0  0  0  0
 13  4  1  0  0  0  0
 14  9  1  0  0  0  0
  9  6  1  0  0  0  0
  7  8  1  0  0  0  0
M  END
> <IDNUMBER>
F0373-0089

> <Chemical_Name>
3,7-dimethyl-8-sulfanyl-2,3,6,7-tetrahydro-1H-purine-2,6-dione

> <CAS>
6703-92-0

> <PriceCoeff>
1.00

> <MW>
212.23

> <Description>
solid

> <FSP3>
0.29

> <clogP>
0.13

> <TPSA>
106.03

> <Acceptor>
3

> <Donor>
3

> <RotBonds>
0

> <HAC>
14

> <Collection>
General

> <Reference_compound>
CHEMBL113

> <Similarity>
0.8640

$$$$
F3129-0236
  -ISIS-  06222321152D

 25 28  0  0  0  0  0  0  0  0999 V2000
    6.0292   -4.4917    0.0000 C   0  0  0  0  0  0  0  0  0  0  0  0
    6.7417   -4.0792    0.0000 C   0  0  3  0  0  0  0  0  0  0  0  0
    6.0417   -5.3042    0.0000 C   0  0  0  0  0  0  0  0  0  0  0  0
    5.3417   -5.7250    0.0000 C   0  0  0  0  0  0  0  0  0  0  0  0
    5.3167   -4.0917    0.0000 C   0  0  0  0  0  0  0  0  0  0  0  0
    7.4625   -4.4792    0.0000 C   0  0  0  0  0  0  0  0  0  0  0  0
    6.7375   -3.2500    0.0000 N   0  0  3  0  0  0  0  0  0  0  0  0
    4.6250   -5.3250    0.0000 C   0  0  0  0  0  0  0  0  0  0  0  0
    8.1750   -4.0667    0.0000 C   0  0  0  0  0  0  0  0  0  0  0  0
    4.6167   -4.5042    0.0000 C   0  0  0  0  0  0  0  0  0  0  0  0
    5.1792   -6.5292    0.0000 O   0  0  0  0  0  0  0  0  0  0  0  0
    4.0167   -5.8792    0.0000 O   0  0  0  0  0  0  0  0  0  0  0  0
    5.3125   -3.2667    0.0000 C   0  0  0  0  0  0  0  0  0  0  0  0
    4.3667   -6.6250    0.0000 C   0  0  0  0  0  0  0  0  0  0  0  0
    6.0167   -2.8417    0.0000 C   0  0  0  0  0  0  0  0  0  0  0  0
    8.1625   -3.2417    0.0000 O   0  0  0  0  0  0  0  0  0  0  0  0
    8.8917   -4.4667    0.0000 C   0  0  0  0  0  0  0  0  0  0  0  0
    6.7625   -5.7125    0.0000 O   0  0  0  0  0  0  0  0  0  0  0  0
    7.4500   -2.8292    0.0000 C   0  0  0  0  0  0  0  0  0  0  0  0
    8.8917   -5.2917    0.0000 C   0  0  0  0  0  0  0  0  0  0  0  0
    9.5917   -4.0500    0.0000 C   0  0  0  0  0  0  0  0  0  0  0  0
    6.7542   -6.5375    0.0000 C   0  0  0  0  0  0  0  0  0  0  0  0
   10.3125   -4.4417    0.0000 C   0  0  0  0  0  0  0  0  0  0  0  0
    9.6125   -5.7000    0.0000 C   0  0  0  0  0  0  0  0  0  0  0  0
   10.3250   -5.2792    0.0000 C   0  0  0  0  0  0  0  0  0  0  0  0
  2  1  1  0  0  0  0
  3  1  1  0  0  0  0
  4  3  2  0  0  0  0
  5  1  2  0  0  0  0
  6  2  1  0  0  0  0
  7  2  1  0  0  0  0
  8 10  2  0  0  0  0
  9  6  1  0  0  0  0
 10  5  1  0  0  0  0
 11  4  1  0  0  0  0
 12  8  1  0  0  0  0
 13  5  1  0  0  0  0
 14 11  1  0  0  0  0
 15 13  1  0  0  0  0
 16  9  2  0  0  0  0
 17  9  1  0  0  0  0
 18  3  1  0  0  0  0
 19  7  1  0  0  0  0
 20 17  2  0  0  0  0
 21 17  1  0  0  0  0
 22 18  1  0  0  0  0
 23 21  2  0  0  0  0
 24 20  1  0  0  0  0
 25 23  1  0  0  0  0
 15  7  1  0  0  0  0
  8  4  1  0  0  0  0
 14 12  1  0  0  0  0
 25 24  2  0  0  0  0
M  END
> <IDNUMBER>
F3129-0236

> <Chemical_Name>
2-{4-methoxy-6-methyl-2H,5H,6H,7H,8H-[1,3]dioxolo[4,5-g]isoquinolin-5-yl}-1-phenylethan-1-one

> <CAS>
2220-06-6

> <PriceCoeff>
1.00

> <MW>
339.39

> <Description>
solid

> <FSP3>
0.35

> <clogP>
3.80

> <TPSA>
48.00

> <Acceptor>
4

> <Donor>
1

> <RotBonds>
4

> <HAC>
25

> <Collection>
General

> <Reference_compound>
CHEMBL490533

> <Similarity>
0.8160

$$$$
F0526-1896
  -ISIS-  06222304352D

 33 36  0  0  0  0  0  0  0  0999 V2000
    2.5792   -1.4292    0.0000 C   0  0  0  0  0  0  0  0  0  0  0  0
    3.0542   -2.1042    0.0000 C   0  0  0  0  0  0  0  0  0  0  0  0
    2.8292   -0.6417    0.0000 C   0  0  0  0  0  0  0  0  0  0  0  0
    4.3042   -4.2667    0.0000 N   0  0  3  0  0  0  0  0  0  0  0  0
    1.7917   -2.5042    0.0000 C   0  0  0  0  0  0  0  0  0  0  0  0
    1.7917   -1.6792    0.0000 C   0  0  0  0  0  0  0  0  0  0  0  0
    2.3167   -0.0000    0.0000 N   0  0  0  0  0  0  0  0  0  0  0  0
    2.5792   -2.7667    0.0000 S   0  0  0  0  0  0  0  0  0  0  0  0
    3.5917   -0.4375    0.0000 S   0  0  0  0  0  0  0  0  0  0  0  0
    3.8792   -2.1042    0.0000 N   0  0  0  0  0  0  0  0  0  0  0  0
    0.3667   -2.5042    0.0000 N   0  0  3  0  0  0  0  0  0  0  0  0
    5.1042   -4.3625    0.0000 C   0  0  0  0  0  0  0  0  0  0  0  0
    3.9542   -5.0167    0.0000 C   0  0  0  0  0  0  0  0  0  0  0  0
    1.0792   -2.9167    0.0000 C   0  0  0  0  0  0  0  0  0  0  0  0
    4.2917   -2.8167    0.0000 C   0  0  0  0  0  0  0  0  0  0  0  0
    2.8167    0.6500    0.0000 C   0  0  0  0  0  0  0  0  0  0  0  0
    3.5792    0.3750    0.0000 C   0  0  0  0  0  0  0  0  0  0  0  0
    3.8792   -3.5292    0.0000 C   0  0  0  0  0  0  0  0  0  0  0  0
    1.0792   -1.2667    0.0000 C   0  0  0  0  0  0  0  0  0  0  0  0
    0.3667   -1.6792    0.0000 C   0  0  0  0  0  0  0  0  0  0  0  0
    5.2667   -5.1917    0.0000 C   0  0  0  0  0  0  0  0  0  0  0  0
    4.5667   -5.5792    0.0000 C   0  0  0  0  0  0  0  0  0  0  0  0
    3.1417   -5.1792    0.0000 O   0  0  0  0  0  0  0  0  0  0  0  0
    5.6667   -3.7542    0.0000 O   0  0  0  0  0  0  0  0  0  0  0  0
    5.1292   -2.8167    0.0000 O   0  0  0  0  0  0  0  0  0  0  0  0
   -0.3583   -2.9167    0.0000 C   0  0  3  0  0  0  0  0  0  0  0  0
    2.6667    1.4625    0.0000 C   0  0  0  0  0  0  0  0  0  0  0  0
    4.2292    0.9000    0.0000 C   0  0  0  0  0  0  0  0  0  0  0  0
   -0.3458   -3.7542    0.0000 C   0  0  0  0  0  0  0  0  0  0  0  0
   -1.0583   -2.5042    0.0000 C   0  0  0  0  0  0  0  0  0  0  0  0
    3.2792    2.0333    0.0000 C   0  0  0  0  0  0  0  0  0  0  0  0
    4.0792    1.7250    0.0000 C   0  0  0  0  0  0  0  0  0  0  0  0
    7.1834   -1.6792    0.0000 Cl  0  0  0  0  0  0  0  0  0  0  0  0
  3  1  1  0  0  0  0
  4 18  1  0  0  0  0
  5  6  2  0  0  0  0
  6  1  1  0  0  0  0
  7  3  2  0  0  0  0
  8  2  1  0  0  0  0
  9  3  1  0  0  0  0
 10  2  1  0  0  0  0
 11 20  1  0  0  0  0
 12  4  1  0  0  0  0
 13  4  1  0  0  0  0
 14  5  1  0  0  0  0
 15 10  1  0  0  0  0
 16  7  1  0  0  0  0
 17  9  1  0  0  0  0
 18 15  1  0  0  0  0
 19  6  1  0  0  0  0
 20 19  1  0  0  0  0
 21 12  1  0  0  0  0
 22 13  1  0  0  0  0
 23 13  2  0  0  0  0
 24 12  2  0  0  0  0
 25 15  2  0  0  0  0
 26 11  1  0  0  0  0
 27 16  1  0  0  0  0
 28 17  1  0  0  0  0
 29 26  1  0  0  0  0
 30 26  1  0  0  0  0
 31 27  2  0  0  0  0
 32 28  2  0  0  0  0
  8  5  1  0  0  0  0
 11 14  1  0  0  0  0
 17 16  2  0  0  0  0
 32 31  1  0  0  0  0
 21 22  1  0  0  0  0
  2  1  2  0  0  0  0
M  END
> <IDNUMBER>
F0526-1896

> <Chemical_Name>
N-[3-(1,3-benzothiazol-2-yl)-6-(propan-2-yl)-4H,5H,6H,7H-thieno[2,3-c]pyridin-2-yl]-2-(2,5-dioxopyrrolidin-1-yl)acetamide hydrochloride

> <CAS>
1189927-07-8

> <PriceCoeff>
1.00

> <MW>
468.59

> <Description>
solid

> <FSP3>
0.39

> <clogP>
2.28

> <TPSA>
139.09

> <Acceptor>
4

> <Donor>
2

> <RotBonds>
5

> <HAC>
32

> <Collection>
General

$$$$
F1065-0020
  -ISIS-  06222321452D

 28 31  0  0  0  0  0  0  0  0999 V2000
   -3.1000    0.3958    0.0000 N   0  0  3  0  0  0  0  0  0  0  0  0
   -3.9958    1.1125    0.0000 C   0  0  0  0  0  0  0  0  0  0  0  0
   -2.1000    1.0000    0.0000 C   0  0  0  0  0  0  0  0  0  0  0  0
   -3.3833   -0.7500    0.0000 C   0  0  0  0  0  0  0  0  0  0  0  0
   -2.4125    2.1125    0.0000 C   0  0  3  0  0  0  0  0  0  0  0  0
   -3.5708    2.1958    0.0000 C   0  0  0  0  0  0  0  0  0  0  0  0
   -2.4958   -1.5292    0.0000 C   0  0  0  0  0  0  0  0  0  0  0  0
    2.8542    1.7833    0.0000 N   0  0  3  0  0  0  0  0  0  0  0  0
   -1.6000    2.9458    0.0000 N   0  0  0  0  0  0  0  0  0  0  0  0
   -5.1208    0.7833    0.0000 O   0  0  0  0  0  0  0  0  0  0  0  0
    1.7500    2.0500    0.0000 C   0  0  0  0  0  0  0  0  0  0  0  0
   -1.0208    0.5833    0.0000 O   0  0  0  0  0  0  0  0  0  0  0  0
   -2.7708   -2.6542    0.0000 C   0  0  0  0  0  0  0  0  0  0  0  0
    5.1000    1.2500    0.0000 O   0  0  0  0  0  0  0  0  0  0  0  0
    0.9500    1.2208    0.0000 C   0  0  0  0  0  0  0  0  0  0  0  0
    1.4375    3.1708    0.0000 C   0  0  0  0  0  0  0  0  0  0  0  0
   -0.4708    2.6458    0.0000 C   0  0  0  0  0  0  0  0  0  0  0  0
   -4.4833   -1.0792    0.0000 C   0  0  0  0  0  0  0  0  0  0  0  0
    0.3375    3.4458    0.0000 C   0  0  0  0  0  0  0  0  0  0  0  0
   -0.1625    1.5333    0.0000 C   0  0  0  0  0  0  0  0  0  0  0  0
    3.1875    0.6958    0.0000 C   0  0  0  0  0  0  0  0  0  0  0  0
    3.6542    2.6125    0.0000 C   0  0  0  0  0  0  0  0  0  0  0  0
   -1.3833   -1.1875    0.0000 C   0  0  0  0  0  0  0  0  0  0  0  0
   -4.7333   -2.2167    0.0000 C   0  0  0  0  0  0  0  0  0  0  0  0
   -3.8708   -3.0167    0.0000 C   0  0  0  0  0  0  0  0  0  0  0  0
    4.7375    2.3625    0.0000 C   0  0  0  0  0  0  0  0  0  0  0  0
    4.3000    0.3958    0.0000 C   0  0  0  0  0  0  0  0  0  0  0  0
   -1.8833   -3.4375    0.0000 C   0  0  0  0  0  0  0  0  0  0  0  0
  2  1  1  0  0  0  0
  3  1  1  0  0  0  0
  4  1  1  0  0  0  0
  5  3  1  0  0  0  0
  6  2  1  0  0  0  0
  7  4  1  0  0  0  0
  8 11  1  0  0  0  0
  9  5  1  0  0  0  0
 10  2  2  0  0  0  0
 11 15  2  0  0  0  0
 12  3  2  0  0  0  0
 13  7  2  0  0  0  0
 14 26  1  0  0  0  0
 15 20  1  0  0  0  0
 16 19  2  0  0  0  0
 17  9  1  0  0  0  0
 18  4  2  0  0  0  0
 19 17  1  0  0  0  0
 20 17  2  0  0  0  0
 21  8  1  0  0  0  0
 22  8  1  0  0  0  0
 23  7  1  0  0  0  0
 24 18  1  0  0  0  0
 25 24  2  0  0  0  0
 26 22  1  0  0  0  0
 27 21  1  0  0  0  0
 28 13  1  0  0  0  0
  6  5  1  0  0  0  0
 25 13  1  0  0  0  0
 11 16  1  0  0  0  0
 14 27  1  0  0  0  0
M  END
> <IDNUMBER>
F1065-0020

> <Chemical_Name>
1-(2,3-dimethylphenyl)-3-{[4-(morpholin-4-yl)phenyl]amino}pyrrolidine-2,5-dione

> <CAS>
473704-46-0

> <PriceCoeff>
1.00

> <MW>
379.45

> <Description>
solid

> <FSP3>
0.36

> <clogP>
2.49

> <TPSA>
61.88

> <Acceptor>
5

> <Donor>
2

> <RotBonds>
4

> <HAC>
28

> <Collection>
General

$$$$
F2113-0600
  -ISIS-  06222321462D

 12 13  0  0  0  0  0  0  0  0999 V2000
    1.5542    0.4458    0.0000 C   0  0  0  0  0  0  0  0  0  0  0  0
    0.8417   -0.8000    0.0000 C   0  0  0  0  0  0  0  0  0  0  0  0
    0.1292   -0.3875    0.0000 C   0  0  0  0  0  0  0  0  0  0  0  0
    0.1292    0.4458    0.0000 C   0  0  0  0  0  0  0  0  0  0  0  0
    1.5625   -0.3792    0.0000 C   0  0  0  0  0  0  0  0  0  0  0  0
    0.8417    0.8583    0.0000 C   0  0  0  0  0  0  0  0  0  0  0  0
   -0.6583   -0.6417    0.0000 O   0  0  0  0  0  0  0  0  0  0  0  0
   -0.6583    0.7000    0.0000 O   0  0  0  0  0  0  0  0  0  0  0  0
   -1.1458    0.0333    0.0000 C   0  0  0  0  0  0  0  0  0  0  0  0
    2.2667    0.8583    0.0000 C   0  0  0  0  0  0  0  0  0  0  0  0
    2.9875    0.4500    0.0000 O   0  0  0  0  0  0  0  0  0  0  0  0
    2.2792   -0.7917    0.0000 O   0  0  0  0  0  0  0  0  0  0  0  0
  2  5  2  0  0  0  0
  3  4  2  0  0  0  0
  4  6  1  0  0  0  0
  5  1  1  0  0  0  0
  6  1  2  0  0  0  0
  7  3  1  0  0  0  0
  8  4  1  0  0  0  0
  9  8  1  0  0  0  0
 10  1  1  0  0  0  0
 11 10  2  0  0  0  0
 12  5  1  0  0  0  0
  2  3  1  0  0  0  0
  9  7  1  0  0  0  0
M  END
> <IDNUMBER>
F2113-0600

> <Chemical_Name>
6-hydroxy-2H-1,3-benzodioxole-5-carbaldehyde

> <CAS>
4720-68-7

> <PriceCoeff>
1.00

> <MW>
166.13

> <Description>
solid

> <FSP3>
0.12

> <clogP>
1.83

> <TPSA>
55.76

> <Acceptor>
4

> <Donor>
1

> <RotBonds>
1

> <HAC>
12

> <Collection>
General

> <Reference_compound>
CHEMBL13859

> <Similarity>
0.8000

$$$$
F3023-0294
  -ISIS-  06222321462D

 25 27  0  0  0  0  0  0  0  0999 V2000
    4.0250   -6.0250    0.0000 N   0  0  3  0  0  0  0  0  0  0  0  0
    4.4500   -6.6042    0.0000 C   0  0  0  0  0  0  0  0  0  0  0  0
    4.4417   -5.4417    0.0000 C   0  0  0  0  0  0  0  0  0  0  0  0
    5.1292   -6.3792    0.0000 C   0  0  3  0  0  0  0  0  0  0  0  0
    6.3667   -6.5000    0.0000 C   0  0  0  0  0  0  0  0  0  0  0  0
    5.1292   -5.6625    0.0000 C   0  0  0  0  0  0  0  0  0  0  0  0
    6.9417   -6.9167    0.0000 C   0  0  0  0  0  0  0  0  0  0  0  0
    5.7125   -6.7917    0.0000 S   0  0  0  0  0  0  0  0  0  0  0  0
    6.8750   -7.6375    0.0000 C   0  0  0  0  0  0  0  0  0  0  0  0
    3.3042   -6.0292    0.0000 C   0  0  0  0  0  0  0  0  0  0  0  0
    6.4292   -5.7917    0.0000 N   0  0  0  0  0  0  0  0  0  0  0  0
    4.2292   -7.2875    0.0000 O   0  0  0  0  0  0  0  0  0  0  0  0
    4.2167   -4.7625    0.0000 O   0  0  0  0  0  0  0  0  0  0  0  0
    7.4542   -8.0542    0.0000 O   0  0  0  0  0  0  0  0  0  0  0  0
    2.9417   -5.4125    0.0000 C   0  0  0  0  0  0  0  0  0  0  0  0
    6.2167   -7.9292    0.0000 O   0  0  0  0  0  0  0  0  0  0  0  0
    7.6000   -6.6250    0.0000 C   0  0  0  0  0  0  0  0  0  0  0  0
    2.2292   -5.4167    0.0000 C   0  0  0  0  0  0  0  0  0  0  0  0
    7.0792   -5.4917    0.0000 C   0  0  0  0  0  0  0  0  0  0  0  0
    1.8667   -4.7917    0.0000 C   0  0  0  0  0  0  0  0  0  0  0  0
    1.8792   -6.0375    0.0000 C   0  0  0  0  0  0  0  0  0  0  0  0
    7.6667   -5.9125    0.0000 C   0  0  0  0  0  0  0  0  0  0  0  0
    1.1667   -6.0417    0.0000 C   0  0  0  0  0  0  0  0  0  0  0  0
    1.1542   -4.8000    0.0000 C   0  0  0  0  0  0  0  0  0  0  0  0
    0.8000   -5.4167    0.0000 C   0  0  0  0  0  0  0  0  0  0  0  0
  2  1  1  0  0  0  0
  3  1  1  0  0  0  0
  4  2  1  0  0  0  0
  5  8  1  0  0  0  0
  6  3  1  0  0  0  0
  7  5  2  0  0  0  0
  8  4  1  0  0  0  0
  9  7  1  0  0  0  0
 10  1  1  0  0  0  0
 11  5  1  0  0  0  0
 12  2  2  0  0  0  0
 13  3  2  0  0  0  0
 14  9  2  0  0  0  0
 15 10  1  0  0  0  0
 16  9  1  0  0  0  0
 17  7  1  0  0  0  0
 18 15  1  0  0  0  0
 19 11  2  0  0  0  0
 20 18  2  0  0  0  0
 21 18  1  0  0  0  0
 22 19  1  0  0  0  0
 23 21  2  0  0  0  0
 24 20  1  0  0  0  0
 25 23  1  0  0  0  0
  6  4  1  0  0  0  0
 25 24  2  0  0  0  0
 22 17  2  0  0  0  0
M  END
> <IDNUMBER>
F3023-0294

> <Chemical_Name>
2-{[2,5-dioxo-1-(2-phenylethyl)pyrrolidin-3-yl]sulfanyl}pyridine-3-carboxylic acid

> <CAS>
830344-72-4

> <PriceCoeff>
1.00

> <MW>
356.40

> <Description>
solid

> <FSP3>
0.22

> <clogP>
2.77

> <TPSA>
112.87

> <Acceptor>
5

> <Donor>
1

> <RotBonds>
6

> <HAC>
25

> <Collection>
General

$$$$
F3023-0411
  -ISIS-  06222321462D

 23 25  0  0  0  0  0  0  0  0999 V2000
   10.3500   -6.1542    0.0000 N   0  0  3  0  0  0  0  0  0  0  0  0
    9.9292   -5.5750    0.0000 C   0  0  0  0  0  0  0  0  0  0  0  0
    9.9250   -6.7375    0.0000 C   0  0  0  0  0  0  0  0  0  0  0  0
    9.2417   -6.5042    0.0000 C   0  0  3  0  0  0  0  0  0  0  0  0
    9.2417   -5.7917    0.0000 C   0  0  0  0  0  0  0  0  0  0  0  0
   11.0667   -6.1625    0.0000 C   0  0  0  0  0  0  0  0  0  0  0  0
    8.6625   -6.9292    0.0000 N   0  0  0  0  0  0  0  0  0  0  0  0
   10.1542   -4.8917    0.0000 O   0  0  0  0  0  0  0  0  0  0  0  0
   10.1417   -7.4167    0.0000 O   0  0  0  0  0  0  0  0  0  0  0  0
   11.4167   -5.5417    0.0000 C   0  0  0  0  0  0  0  0  0  0  0  0
    8.0042   -6.6292    0.0000 C   0  0  0  0  0  0  0  0  0  0  0  0
    6.7042   -6.0417    0.0000 C   0  0  0  0  0  0  0  0  0  0  0  0
   12.1375   -5.5417    0.0000 C   0  0  0  0  0  0  0  0  0  0  0  0
   11.4167   -6.7875    0.0000 C   0  0  0  0  0  0  0  0  0  0  0  0
    7.4292   -7.0500    0.0000 C   0  0  0  0  0  0  0  0  0  0  0  0
    7.9417   -5.9167    0.0000 C   0  0  0  0  0  0  0  0  0  0  0  0
    7.2917   -5.6250    0.0000 C   0  0  0  0  0  0  0  0  0  0  0  0
    6.7792   -6.7542    0.0000 C   0  0  0  0  0  0  0  0  0  0  0  0
    6.0542   -5.7417    0.0000 O   0  0  0  0  0  0  0  0  0  0  0  0
   12.1292   -6.7917    0.0000 C   0  0  0  0  0  0  0  0  0  0  0  0
   12.4917   -6.1667    0.0000 C   0  0  0  0  0  0  0  0  0  0  0  0
   12.4917   -4.9250    0.0000 C   0  0  0  0  0  0  0  0  0  0  0  0
    5.9792   -5.0292    0.0000 C   0  0  0  0  0  0  0  0  0  0  0  0
  2  1  1  0  0  0  0
  3  1  1  0  0  0  0
  4  3  1  0  0  0  0
  5  2  1  0  0  0  0
  6  1  1  0  0  0  0
  7  4  1  0  0  0  0
  8  2  2  0  0  0  0
  9  3  2  0  0  0  0
 10  6  1  0  0  0  0
 11  7  1  0  0  0  0
 12 17  2  0  0  0  0
 13 10  2  0  0  0  0
 14  6  2  0  0  0  0
 15 11  1  0  0  0  0
 16 11  2  0  0  0  0
 17 16  1  0  0  0  0
 18 15  2  0  0  0  0
 19 12  1  0  0  0  0
 20 14  1  0  0  0  0
 21 20  2  0  0  0  0
 22 13  1  0  0  0  0
 23 19  1  0  0  0  0
  4  5  1  0  0  0  0
 21 13  1  0  0  0  0
 18 12  1  0  0  0  0
M  END
> <IDNUMBER>
F3023-0411

> <Chemical_Name>
3-[(4-methoxyphenyl)amino]-1-(3-methylphenyl)pyrrolidine-2,5-dione

> <CAS>
1008710-77-7

> <PriceCoeff>
1.00

> <MW>
310.35

> <Description>
solid

> <FSP3>
0.22

> <clogP>
3.09

> <TPSA>
58.64

> <Acceptor>
4

> <Donor>
1

> <RotBonds>
4

> <HAC>
23

> <Collection>
General

$$$$
F1166-0172
  -ISIS-  06222321142D

 31 35  0  0  0  0  0  0  0  0999 V2000
    3.0125    0.5583    0.0000 N   0  0  3  0  0  0  0  0  0  0  0  0
   -0.4250    3.0833    0.0000 C   0  0  0  0  0  0  0  0  0  0  0  0
   -0.9833    2.4708    0.0000 N   0  0  0  0  0  0  0  0  0  0  0  0
    0.3917    2.9958    0.0000 N   0  0  0  0  0  0  0  0  0  0  0  0
   -1.7333    2.8125    0.0000 C   0  0  0  0  0  0  0  0  0  0  0  0
    2.6792    1.3083    0.0000 C   0  0  0  0  0  0  0  0  0  0  0  0
    0.7250    2.2458    0.0000 C   0  0  0  0  0  0  0  0  0  0  0  0
    2.5667   -0.1292    0.0000 C   0  0  0  0  0  0  0  0  0  0  0  0
    3.8000    0.3583    0.0000 C   0  0  0  0  0  0  0  0  0  0  0  0
   -0.8333    3.8000    0.0000 S   0  0  0  0  0  0  0  0  0  0  0  0
   -1.6458    3.6333    0.0000 C   0  0  0  0  0  0  0  0  0  0  0  0
   -2.4458    2.4083    0.0000 C   0  0  0  0  0  0  0  0  0  0  0  0
    1.8625    1.4000    0.0000 C   0  0  0  0  0  0  0  0  0  0  0  0
    1.5375    2.1500    0.0000 C   0  0  0  0  0  0  0  0  0  0  0  0
   -2.4500    1.5833    0.0000 C   0  0  0  0  0  0  0  0  0  0  0  0
   -3.1625    1.1750    0.0000 C   0  0  0  0  0  0  0  0  0  0  0  0
    0.2375    1.5833    0.0000 O   0  0  0  0  0  0  0  0  0  0  0  0
    3.1000   -0.7667    0.0000 C   0  0  0  0  0  0  0  0  0  0  0  0
    3.8542   -0.4667    0.0000 C   0  0  0  0  0  0  0  0  0  0  0  0
   -3.8750    1.5958    0.0000 C   0  0  0  0  0  0  0  0  0  0  0  0
    1.7417   -0.1750    0.0000 O   0  0  0  0  0  0  0  0  0  0  0  0
    4.4375    0.8583    0.0000 O   0  0  0  0  0  0  0  0  0  0  0  0
   -3.1583    2.8208    0.0000 C   0  0  0  0  0  0  0  0  0  0  0  0
   -3.8708    2.4125    0.0000 C   0  0  0  0  0  0  0  0  0  0  0  0
    3.1667    1.9708    0.0000 C   0  0  0  0  0  0  0  0  0  0  0  0
    2.0167    2.8125    0.0000 C   0  0  0  0  0  0  0  0  0  0  0  0
    2.8417    2.7208    0.0000 C   0  0  0  0  0  0  0  0  0  0  0  0
   -3.1625    0.3500    0.0000 C   0  0  0  0  0  0  0  0  0  0  0  0
   -4.5833    1.1750    0.0000 C   0  0  0  0  0  0  0  0  0  0  0  0
   -3.8750   -0.0542    0.0000 C   0  0  0  0  0  0  0  0  0  0  0  0
   -4.5833    0.3500    0.0000 C   0  0  0  0  0  0  0  0  0  0  0  0
  2  4  1  0  0  0  0
  3  2  2  0  0  0  0
  4  7  1  0  0  0  0
  5  3  1  0  0  0  0
  6  1  1  0  0  0  0
  7 14  1  0  0  0  0
  8  1  1  0  0  0  0
  9  1  1  0  0  0  0
 10  2  1  0  0  0  0
 11 10  1  0  0  0  0
 12  5  1  0  0  0  0
 13  6  1  0  0  0  0
 14 13  2  0  0  0  0
 15 12  2  0  0  0  0
 16 15  1  0  0  0  0
 17  7  2  0  0  0  0
 18  8  1  0  0  0  0
 19  9  1  0  0  0  0
 20 24  1  0  0  0  0
 21  8  2  0  0  0  0
 22  9  2  0  0  0  0
 23 12  1  0  0  0  0
 24 23  2  0  0  0  0
 25  6  2  0  0  0  0
 26 27  2  0  0  0  0
 27 25  1  0  0  0  0
 28 16  1  0  0  0  0
 29 20  1  0  0  0  0
 30 28  1  0  0  0  0
 31 29  1  0  0  0  0
 18 19  1  0  0  0  0
 26 14  1  0  0  0  0
  5 11  2  0  0  0  0
 16 20  2  0  0  0  0
 30 31  1  0  0  0  0
M  END
> <IDNUMBER>
F1166-0172

> <Chemical_Name>
3-(2,5-dioxopyrrolidin-1-yl)-N-[4-(5,6,7,8-tetrahydronaphthalen-2-yl)-1,3-thiazol-2-yl]benzamide

> <CAS>
684233-11-2

> <PriceCoeff>
1.00

> <MW>
431.51

> <Description>
solid

> <FSP3>
0.25

> <clogP>
3.70

> <TPSA>
107.61

> <Acceptor>
4

> <Donor>
1

> <RotBonds>
4

> <HAC>
31

> <Collection>
General

$$$$
F0758-0046
  -ISIS-  06222321142D

 21 23  0  0  0  0  0  0  0  0999 V2000
    1.1042    1.1125    0.0000 C   0  0  0  0  0  0  0  0  0  0  0  0
    0.6667    0.3708    0.0000 C   0  0  0  0  0  0  0  0  0  0  0  0
    0.6667    1.8958    0.0000 C   0  0  0  0  0  0  0  0  0  0  0  0
   -0.2125    0.3708    0.0000 C   0  0  0  0  0  0  0  0  0  0  0  0
   -0.6333    1.1125    0.0000 C   0  0  0  0  0  0  0  0  0  0  0  0
   -0.2125    1.8708    0.0000 O   0  0  0  0  0  0  0  0  0  0  0  0
   -1.5125    1.1125    0.0000 C   0  0  0  0  0  0  0  0  0  0  0  0
    1.9875    1.1125    0.0000 C   0  0  0  0  0  0  0  0  0  0  0  0
   -0.6333   -0.4042    0.0000 C   0  0  0  0  0  0  0  0  0  0  0  0
    1.1292   -0.4042    0.0000 O   0  0  0  0  0  0  0  0  0  0  0  0
    2.4042    1.8708    0.0000 C   0  0  0  0  0  0  0  0  0  0  0  0
    2.4042    0.3708    0.0000 C   0  0  0  0  0  0  0  0  0  0  0  0
   -1.9333    0.3708    0.0000 C   0  0  0  0  0  0  0  0  0  0  0  0
   -1.4958   -0.4042    0.0000 C   0  0  0  0  0  0  0  0  0  0  0  0
    1.0875    2.6708    0.0000 C   0  0  0  0  0  0  0  0  0  0  0  0
    3.7042    1.1125    0.0000 C   0  0  0  0  0  0  0  0  0  0  0  0
    3.2875    0.3708    0.0000 C   0  0  0  0  0  0  0  0  0  0  0  0
    3.2667    1.8958    0.0000 C   0  0  0  0  0  0  0  0  0  0  0  0
   -2.8125    0.3708    0.0000 O   0  0  0  0  0  0  0  0  0  0  0  0
    4.5875    1.1125    0.0000 O   0  0  0  0  0  0  0  0  0  0  0  0
    5.0042    0.3500    0.0000 C   0  0  0  0  0  0  0  0  0  0  0  0
  2  1  1  0  0  0  0
  3  1  2  0  0  0  0
  4  2  1  0  0  0  0
  5  6  1  0  0  0  0
  6  3  1  0  0  0  0
  7  5  1  0  0  0  0
  8  1  1  0  0  0  0
  9  4  1  0  0  0  0
 10  2  2  0  0  0  0
 11  8  1  0  0  0  0
 12  8  2  0  0  0  0
 13  7  2  0  0  0  0
 14  9  2  0  0  0  0
 15  3  1  0  0  0  0
 16 17  2  0  0  0  0
 17 12  1  0  0  0  0
 18 11  2  0  0  0  0
 19 13  1  0  0  0  0
 20 16  1  0  0  0  0
 21 20  1  0  0  0  0
 16 18  1  0  0  0  0
  5  4  2  0  0  0  0
 13 14  1  0  0  0  0
M  END
> <IDNUMBER>
F0758-0046

> <Chemical_Name>
7-hydroxy-3-(4-methoxyphenyl)-2-methyl-4H-chromen-4-one

> <CAS>
13004-42-7

> <PriceCoeff>
1.00

> <MW>
282.29

> <Description>
solid

> <FSP3>
0.12

> <clogP>
2.84

> <TPSA>
55.76

> <Acceptor>
4

> <Donor>
1

> <RotBonds>
2

> <HAC>
21

> <Collection>
General

> <Reference_compound>
CHEMBL44

> <Similarity>
0.8330

$$$$
F1268-0176
  -ISIS-  06222321442D

 21 23  0  0  0  0  0  0  0  0999 V2000
    2.7500   -1.7500    0.0000 N   0  0  3  0  0  0  0  0  0  0  0  0
    3.3292   -1.1625    0.0000 C   0  0  0  0  0  0  0  0  0  0  0  0
    3.3250   -2.4125    0.0000 C   0  0  0  0  0  0  0  0  0  0  0  0
    4.1250   -2.2000    0.0000 C   0  0  3  0  0  0  0  0  0  0  0  0
    4.1292   -1.3750    0.0000 C   0  0  0  0  0  0  0  0  0  0  0  0
    4.8375   -2.6125    0.0000 N   0  0  0  0  0  0  0  0  0  0  0  0
    1.9250   -1.7500    0.0000 C   0  0  0  0  0  0  0  0  0  0  0  0
    3.3292   -0.3375    0.0000 O   0  0  0  0  0  0  0  0  0  0  0  0
    3.3167   -3.2375    0.0000 O   0  0  0  0  0  0  0  0  0  0  0  0
    1.5125   -1.0375    0.0000 C   0  0  0  0  0  0  0  0  0  0  0  0
    1.5167   -2.4625    0.0000 C   0  0  0  0  0  0  0  0  0  0  0  0
    5.4167   -2.0250    0.0000 C   0  0  0  0  0  0  0  0  0  0  0  0
    0.6917   -2.4667    0.0000 C   0  0  0  0  0  0  0  0  0  0  0  0
    0.6917   -1.0375    0.0000 C   0  0  0  0  0  0  0  0  0  0  0  0
    0.2792   -1.7542    0.0000 C   0  0  0  0  0  0  0  0  0  0  0  0
    6.2167   -2.2375    0.0000 C   0  0  0  0  0  0  0  0  0  0  0  0
    5.2000   -1.2292    0.0000 C   0  0  0  0  0  0  0  0  0  0  0  0
   -0.5458   -1.7542    0.0000 C   0  0  0  0  0  0  0  0  0  0  0  0
    5.7792   -0.6417    0.0000 C   0  0  0  0  0  0  0  0  0  0  0  0
    6.8042   -1.6500    0.0000 C   0  0  0  0  0  0  0  0  0  0  0  0
    6.5875   -0.8500    0.0000 C   0  0  0  0  0  0  0  0  0  0  0  0
  2  1  1  0  0  0  0
  3  1  1  0  0  0  0
  4  3  1  0  0  0  0
  5  2  1  0  0  0  0
  6  4  1  0  0  0  0
  7  1  1  0  0  0  0
  8  2  2  0  0  0  0
  9  3  2  0  0  0  0
 10  7  2  0  0  0  0
 11  7  1  0  0  0  0
 12  6  1  0  0  0  0
 13 11  2  0  0  0  0
 14 10  1  0  0  0  0
 15 13  1  0  0  0  0
 16 12  2  0  0  0  0
 17 12  1  0  0  0  0
 18 15  1  0  0  0  0
 19 17  2  0  0  0  0
 20 16  1  0  0  0  0
 21 19  1  0  0  0  0
  4  5  1  0  0  0  0
 15 14  2  0  0  0  0
 21 20  2  0  0  0  0
M  END
> <IDNUMBER>
F1268-0176

> <Chemical_Name>
1-(4-methylphenyl)-3-(phenylamino)pyrrolidine-2,5-dione

> <CAS>
37910-33-1

> <PriceCoeff>
1.00

> <MW>
280.32

> <Description>
solid

> <FSP3>
0.18

> <clogP>
2.99

> <TPSA>
49.41

> <Acceptor>
3

> <Donor>
1

> <RotBonds>
3

> <HAC>
21

> <Collection>
General

$$$$
F3023-0917
  -ISIS-  06222321442D

 24 26  0  0  0  0  0  0  0  0999 V2000
    3.6250   -5.4042    0.0000 N   0  0  3  0  0  0  0  0  0  0  0  0
    4.0417   -5.9750    0.0000 C   0  0  0  0  0  0  0  0  0  0  0  0
    4.0417   -4.8292    0.0000 C   0  0  0  0  0  0  0  0  0  0  0  0
    4.7167   -5.7542    0.0000 C   0  0  3  0  0  0  0  0  0  0  0  0
    4.7167   -5.0417    0.0000 C   0  0  0  0  0  0  0  0  0  0  0  0
    5.2917   -6.1667    0.0000 N   0  0  3  0  0  0  0  0  0  0  0  0
    6.4375   -7.0000    0.0000 N   0  0  3  0  0  0  0  0  0  0  0  0
    7.0042   -7.4167    0.0000 C   0  0  0  0  0  0  0  0  0  0  0  0
    3.8292   -6.6500    0.0000 O   0  0  0  0  0  0  0  0  0  0  0  0
    3.8167   -4.1542    0.0000 O   0  0  0  0  0  0  0  0  0  0  0  0
    5.9375   -5.8750    0.0000 C   0  0  0  0  0  0  0  0  0  0  0  0
    5.2167   -6.8667    0.0000 C   0  0  0  0  0  0  0  0  0  0  0  0
    5.7875   -7.2875    0.0000 C   0  0  0  0  0  0  0  0  0  0  0  0
    6.5125   -6.2917    0.0000 C   0  0  0  0  0  0  0  0  0  0  0  0
    6.9292   -8.1167    0.0000 C   0  0  0  0  0  0  0  0  0  0  0  0
    7.6500   -7.1250    0.0000 C   0  0  0  0  0  0  0  0  0  0  0  0
    2.9167   -5.4042    0.0000 C   0  0  0  0  0  0  0  0  0  0  0  0
    8.1542   -8.2417    0.0000 C   0  0  0  0  0  0  0  0  0  0  0  0
    7.5042   -8.5292    0.0000 C   0  0  0  0  0  0  0  0  0  0  0  0
    8.2250   -7.5375    0.0000 C   0  0  0  0  0  0  0  0  0  0  0  0
    8.7292   -8.6542    0.0000 F   0  0  0  0  0  0  0  0  0  0  0  0
    2.5625   -4.7917    0.0000 C   0  0  0  0  0  0  0  0  0  0  0  0
    1.8500   -4.8000    0.0000 C   0  0  0  0  0  0  0  0  0  0  0  0
    1.4917   -4.1917    0.0000 C   0  0  0  0  0  0  0  0  0  0  0  0
  2  1  1  0  0  0  0
  3  1  1  0  0  0  0
  4  2  1  0  0  0  0
  5  3  1  0  0  0  0
  6  4  1  0  0  0  0
  7 13  1  0  0  0  0
  8  7  1  0  0  0  0
  9  2  2  0  0  0  0
 10  3  2  0  0  0  0
 11  6  1  0  0  0  0
 12  6  1  0  0  0  0
 13 12  1  0  0  0  0
 14 11  1  0  0  0  0
 15  8  2  0  0  0  0
 16  8  1  0  0  0  0
 17  1  1  0  0  0  0
 18 20  1  0  0  0  0
 19 15  1  0  0  0  0
 20 16  2  0  0  0  0
 21 18  1  0  0  0  0
 22 17  1  0  0  0  0
 23 22  1  0  0  0  0
 24 23  1  0  0  0  0
  5  4  1  0  0  0  0
  7 14  1  0  0  0  0
 18 19  2  0  0  0  0
M  END
> <IDNUMBER>
F3023-0917

> <Chemical_Name>
1-butyl-3-[4-(4-fluorophenyl)piperazin-1-yl]pyrrolidine-2,5-dione

> <CAS>
857494-25-8

> <PriceCoeff>
1.00

> <MW>
333.40

> <Description>
solid

> <FSP3>
0.56

> <clogP>
4.25

> <TPSA>
43.86

> <Acceptor>
3

> <Donor>
2

> <RotBonds>
5

> <HAC>
24

> <Collection>
General

$$$$
F3023-0298
  -ISIS-  06222321462D

 26 28  0  0  0  0  0  0  0  0999 V2000
    8.4917   -5.7750    0.0000 N   0  0  3  0  0  0  0  0  0  0  0  0
    8.9125   -5.1917    0.0000 C   0  0  0  0  0  0  0  0  0  0  0  0
    8.9167   -6.3542    0.0000 C   0  0  0  0  0  0  0  0  0  0  0  0
    9.6000   -6.1292    0.0000 C   0  0  3  0  0  0  0  0  0  0  0  0
    9.5917   -5.4125    0.0000 C   0  0  0  0  0  0  0  0  0  0  0  0
   10.8292   -6.2500    0.0000 C   0  0  0  0  0  0  0  0  0  0  0  0
   11.4125   -6.6667    0.0000 C   0  0  0  0  0  0  0  0  0  0  0  0
   10.1792   -6.5417    0.0000 S   0  0  0  0  0  0  0  0  0  0  0  0
    7.7750   -5.7792    0.0000 C   0  0  0  0  0  0  0  0  0  0  0  0
   11.3417   -7.3875    0.0000 C   0  0  0  0  0  0  0  0  0  0  0  0
   10.8917   -5.5417    0.0000 N   0  0  0  0  0  0  0  0  0  0  0  0
    8.6875   -4.5042    0.0000 O   0  0  0  0  0  0  0  0  0  0  0  0
    8.7000   -7.0375    0.0000 O   0  0  0  0  0  0  0  0  0  0  0  0
    7.4167   -5.1625    0.0000 C   0  0  0  0  0  0  0  0  0  0  0  0
   11.9167   -7.8042    0.0000 O   0  0  0  0  0  0  0  0  0  0  0  0
   10.6875   -7.6792    0.0000 O   0  0  0  0  0  0  0  0  0  0  0  0
   12.0667   -6.3750    0.0000 C   0  0  0  0  0  0  0  0  0  0  0  0
    7.7667   -4.5375    0.0000 O   0  0  0  0  0  0  0  0  0  0  0  0
    7.4250   -6.4000    0.0000 C   0  0  0  0  0  0  0  0  0  0  0  0
   11.5500   -5.2417    0.0000 C   0  0  0  0  0  0  0  0  0  0  0  0
    6.7000   -5.1667    0.0000 C   0  0  0  0  0  0  0  0  0  0  0  0
    7.4125   -3.9167    0.0000 C   0  0  0  0  0  0  0  0  0  0  0  0
   12.1375   -5.6625    0.0000 C   0  0  0  0  0  0  0  0  0  0  0  0
    6.7125   -6.4042    0.0000 C   0  0  0  0  0  0  0  0  0  0  0  0
    7.7667   -3.2917    0.0000 C   0  0  0  0  0  0  0  0  0  0  0  0
    6.3417   -5.7875    0.0000 C   0  0  0  0  0  0  0  0  0  0  0  0
  2  1  1  0  0  0  0
  3  1  1  0  0  0  0
  4  3  1  0  0  0  0
  5  2  1  0  0  0  0
  6  8  1  0  0  0  0
  7  6  2  0  0  0  0
  8  4  1  0  0  0  0
  9  1  1  0  0  0  0
 10  7  1  0  0  0  0
 11  6  1  0  0  0  0
 12  2  2  0  0  0  0
 13  3  2  0  0  0  0
 14  9  2  0  0  0  0
 15 10  2  0  0  0  0
 16 10  1  0  0  0  0
 17  7  1  0  0  0  0
 18 14  1  0  0  0  0
 19  9  1  0  0  0  0
 20 11  2  0  0  0  0
 21 14  1  0  0  0  0
 22 18  1  0  0  0  0
 23 20  1  0  0  0  0
 24 19  2  0  0  0  0
 25 22  1  0  0  0  0
 26 24  1  0  0  0  0
  5  4  1  0  0  0  0
 26 21  2  0  0  0  0
 23 17  2  0  0  0  0
M  END
> <IDNUMBER>
F3023-0298

> <Chemical_Name>
2-{[1-(2-ethoxyphenyl)-2,5-dioxopyrrolidin-3-yl]sulfanyl}pyridine-3-carboxylic acid

> <CAS>
831188-53-5

> <PriceCoeff>
1.00

> <MW>
372.40

> <Description>
solid

> <FSP3>
0.22

> <clogP>
2.13

> <TPSA>
122.10

> <Acceptor>
6

> <Donor>
1

> <RotBonds>
6

> <HAC>
26

> <Collection>
General

$$$$
F2211-0001
  -ISIS-  06222321142D

 18 20  0  0  0  0  0  0  0  0999 V2000
    6.3042   -8.2292    0.0000 C   0  0  0  0  0  0  0  0  0  0  0  0
    6.3000   -9.0542    0.0000 C   0  0  0  0  0  0  0  0  0  0  0  0
    4.8667   -9.0500    0.0000 C   0  0  0  0  0  0  0  0  0  0  0  0
    5.5792   -9.4625    0.0000 C   0  0  0  0  0  0  0  0  0  0  0  0
    5.5875   -7.8125    0.0000 O   0  0  0  0  0  0  0  0  0  0  0  0
    4.8750   -8.2250    0.0000 C   0  0  0  0  0  0  0  0  0  0  0  0
    4.1625   -9.4625    0.0000 C   0  0  0  0  0  0  0  0  0  0  0  0
    7.0167   -7.8167    0.0000 C   0  0  0  0  0  0  0  0  0  0  0  0
    5.5792  -10.2875    0.0000 O   0  0  0  0  0  0  0  0  0  0  0  0
    4.1625   -7.8125    0.0000 C   0  0  0  0  0  0  0  0  0  0  0  0
    3.4417   -9.0542    0.0000 C   0  0  0  0  0  0  0  0  0  0  0  0
    2.7292   -9.4667    0.0000 N   0  0  0  0  0  0  0  0  0  0  0  0
    3.4417   -8.2250    0.0000 C   0  0  0  0  0  0  0  0  0  0  0  0
    7.0167   -6.9917    0.0000 C   0  0  0  0  0  0  0  0  0  0  0  0
    7.7292   -8.2292    0.0000 C   0  0  0  0  0  0  0  0  0  0  0  0
    8.4417   -7.8250    0.0000 C   0  0  0  0  0  0  0  0  0  0  0  0
    7.7292   -6.5792    0.0000 C   0  0  0  0  0  0  0  0  0  0  0  0
    8.4417   -7.0000    0.0000 C   0  0  0  0  0  0  0  0  0  0  0  0
  2  1  2  0  0  0  0
  3  6  1  0  0  0  0
  4  2  1  0  0  0  0
  5  1  1  0  0  0  0
  6  5  1  0  0  0  0
  7  3  2  0  0  0  0
  8  1  1  0  0  0  0
  9  4  2  0  0  0  0
 10  6  2  0  0  0  0
 11 13  2  0  0  0  0
 12 11  1  0  0  0  0
 13 10  1  0  0  0  0
 14  8  1  0  0  0  0
 15  8  2  0  0  0  0
 16 15  1  0  0  0  0
 17 14  2  0  0  0  0
 18 16  2  0  0  0  0
  4  3  1  0  0  0  0
 18 17  1  0  0  0  0
 11  7  1  0  0  0  0
M  END
> <IDNUMBER>
F2211-0001

> <Chemical_Name>
6-amino-2-phenyl-4H-chromen-4-one

> <CAS>
4613-53-0

> <PriceCoeff>
1.00

> <MW>
237.25

> <Description>
solid

> <FSP3>
0.00

> <clogP>
2.63

> <TPSA>
52.32

> <Acceptor>
3

> <Donor>
1

> <RotBonds>
1

> <HAC>
18

> <Collection>
General

> <Reference_compound>
CHEMBL275638

> <Similarity>
0.9090

$$$$
F2783-0322
  -ISIS-  06222321152D

 27 29  0  0  0  0  0  0  0  0999 V2000
   -3.0500    7.5250    0.0000 N   0  0  3  0  0  0  0  0  0  0  0  0
   -3.7708    0.4875    0.0000 N   0  3  0  0  0  0  0  0  0  0  0  0
   -3.7708    2.9833    0.0000 C   0  0  0  0  0  0  0  0  0  0  0  0
   -3.7583    3.8000    0.0000 C   0  0  0  0  0  0  0  0  0  0  0  0
   -3.0500    6.7000    0.0000 C   0  0  0  0  0  0  0  0  0  0  0  0
   -2.3875    8.0167    0.0000 C   0  0  0  0  0  0  0  0  0  0  0  0
   -3.0375    2.5583    0.0000 C   0  0  0  0  0  0  0  0  0  0  0  0
   -3.7625    1.3125    0.0000 C   0  0  0  0  0  0  0  0  0  0  0  0
   -3.7708    6.2792    0.0000 C   0  0  0  0  0  0  0  0  0  0  0  0
   -3.0375    1.7250    0.0000 C   0  0  0  0  0  0  0  0  0  0  0  0
   -3.0458    4.2125    0.0000 N   0  0  0  0  0  0  0  0  0  0  0  0
   -4.4833    2.5625    0.0000 C   0  0  0  0  0  0  0  0  0  0  0  0
   -3.7625    5.4500    0.0000 C   0  0  0  0  0  0  0  0  0  0  0  0
   -2.3333    6.2792    0.0000 C   0  0  0  0  0  0  0  0  0  0  0  0
   -4.4833    0.0833    0.0000 O   0  5  0  0  0  0  0  0  0  0  0  0
   -3.0458    5.0417    0.0000 C   0  0  0  0  0  0  0  0  0  0  0  0
   -3.0583    0.0750    0.0000 O   0  0  0  0  0  0  0  0  0  0  0  0
   -4.4750    4.2042    0.0000 O   0  0  0  0  0  0  0  0  0  0  0  0
   -4.4833    1.7333    0.0000 C   0  0  0  0  0  0  0  0  0  0  0  0
   -1.6083    7.7667    0.0000 O   0  0  0  0  0  0  0  0  0  0  0  0
   -2.3208    2.9625    0.0000 Cl  0  0  0  0  0  0  0  0  0  0  0  0
   -2.3333    5.4542    0.0000 C   0  0  0  0  0  0  0  0  0  0  0  0
   -3.7250    8.0042    0.0000 C   0  0  0  0  0  0  0  0  0  0  0  0
   -4.4875    6.6917    0.0000 O   0  0  0  0  0  0  0  0  0  0  0  0
   -2.6458    8.8042    0.0000 C   0  0  0  0  0  0  0  0  0  0  0  0
   -3.4750    8.8000    0.0000 C   0  0  0  0  0  0  0  0  0  0  0  0
   -4.4958    7.5167    0.0000 C   0  0  0  0  0  0  0  0  0  0  0  0
  2  8  1  0  0  0  0
  3  4  1  0  0  0  0
  4 11  1  0  0  0  0
  5  1  1  0  0  0  0
  6  1  1  0  0  0  0
  7  3  1  0  0  0  0
  8 19  2  0  0  0  0
  9  5  2  0  0  0  0
 10  7  2  0  0  0  0
 11 16  1  0  0  0  0
 12  3  2  0  0  0  0
 13  9  1  0  0  0  0
 14  5  1  0  0  0  0
 15  2  1  0  0  0  0
 16 22  1  0  0  0  0
 17  2  2  0  0  0  0
 18  4  2  0  0  0  0
 19 12  1  0  0  0  0
 20  6  2  0  0  0  0
 21  7  1  0  0  0  0
 22 14  2  0  0  0  0
 23  1  1  0  0  0  0
 24  9  1  0  0  0  0
 25  6  1  0  0  0  0
 26 23  1  0  0  0  0
 27 24  1  0  0  0  0
 25 26  1  0  0  0  0
 13 16  2  0  0  0  0
 10  8  1  0  0  0  0
M  CHG  2   2   1  15  -1
M  END
> <IDNUMBER>
F2783-0322

> <Chemical_Name>
2-chloro-N-[3-methoxy-4-(2-oxopyrrolidin-1-yl)phenyl]-4-nitrobenzamide

> <CAS>
941889-50-5

> <PriceCoeff>
1.00

> <MW>
389.79

> <Description>
solid

> <FSP3>
0.22

> <clogP>
2.68

> <TPSA>
101.78

> <Acceptor>
5

> <Donor>
1

> <RotBonds>
5

> <HAC>
27

> <Collection>
General

$$$$
F2783-0673
  -ISIS-  06222321152D

 27 29  0  0  0  0  0  0  0  0999 V2000
   -4.4833    6.6875    0.0000 N   0  0  3  0  0  0  0  0  0  0  0  0
   -3.7708    0.4875    0.0000 N   0  3  0  0  0  0  0  0  0  0  0  0
   -3.7708    2.9833    0.0000 C   0  0  0  0  0  0  0  0  0  0  0  0
   -3.7583    3.8000    0.0000 C   0  0  0  0  0  0  0  0  0  0  0  0
   -3.7625    6.2792    0.0000 C   0  0  0  0  0  0  0  0  0  0  0  0
   -5.2375    6.3417    0.0000 C   0  0  0  0  0  0  0  0  0  0  0  0
   -3.0375    2.5583    0.0000 C   0  0  0  0  0  0  0  0  0  0  0  0
   -3.7625    1.3125    0.0000 C   0  0  0  0  0  0  0  0  0  0  0  0
   -3.0375    1.7250    0.0000 C   0  0  0  0  0  0  0  0  0  0  0  0
   -3.0458    4.2125    0.0000 N   0  0  0  0  0  0  0  0  0  0  0  0
   -3.7583    5.4500    0.0000 C   0  0  0  0  0  0  0  0  0  0  0  0
   -4.4833    2.5625    0.0000 C   0  0  0  0  0  0  0  0  0  0  0  0
   -4.4833    0.0833    0.0000 O   0  5  0  0  0  0  0  0  0  0  0  0
   -3.0458    6.6917    0.0000 C   0  0  0  0  0  0  0  0  0  0  0  0
   -3.0458    5.0417    0.0000 C   0  0  0  0  0  0  0  0  0  0  0  0
   -3.0583    0.0750    0.0000 O   0  0  0  0  0  0  0  0  0  0  0  0
   -4.4750    4.2042    0.0000 O   0  0  0  0  0  0  0  0  0  0  0  0
   -4.4833    1.7333    0.0000 C   0  0  0  0  0  0  0  0  0  0  0  0
   -5.4083    5.5292    0.0000 O   0  0  0  0  0  0  0  0  0  0  0  0
   -2.3333    6.2792    0.0000 C   0  0  0  0  0  0  0  0  0  0  0  0
   -2.3208    2.9625    0.0000 Cl  0  0  0  0  0  0  0  0  0  0  0  0
   -4.5833    7.5042    0.0000 C   0  0  0  0  0  0  0  0  0  0  0  0
   -2.3208    5.4542    0.0000 C   0  0  0  0  0  0  0  0  0  0  0  0
   -3.0500    7.5250    0.0000 O   0  0  0  0  0  0  0  0  0  0  0  0
   -5.7958    6.9542    0.0000 C   0  0  0  0  0  0  0  0  0  0  0  0
   -5.3833    7.6750    0.0000 C   0  0  0  0  0  0  0  0  0  0  0  0
   -2.3333    7.9417    0.0000 C   0  0  0  0  0  0  0  0  0  0  0  0
  2  8  1  0  0  0  0
  3  4  1  0  0  0  0
  4 10  1  0  0  0  0
  5  1  1  0  0  0  0
  6  1  1  0  0  0  0
  7  3  1  0  0  0  0
  8 18  2  0  0  0  0
  9  7  2  0  0  0  0
 10 15  1  0  0  0  0
 11  5  1  0  0  0  0
 12  3  2  0  0  0  0
 13  2  1  0  0  0  0
 14  5  2  0  0  0  0
 15 11  2  0  0  0  0
 16  2  2  0  0  0  0
 17  4  2  0  0  0  0
 18 12  1  0  0  0  0
 19  6  2  0  0  0  0
 20 14  1  0  0  0  0
 21  7  1  0  0  0  0
 22  1  1  0  0  0  0
 23 20  2  0  0  0  0
 24 14  1  0  0  0  0
 25  6  1  0  0  0  0
 26 22  1  0  0  0  0
 27 24  1  0  0  0  0
 26 25  1  0  0  0  0
 15 23  1  0  0  0  0
  9  8  1  0  0  0  0
M  CHG  2   2   1  13  -1
M  END
> <IDNUMBER>
F2783-0673

> <Chemical_Name>
2-chloro-N-[4-methoxy-3-(2-oxopyrrolidin-1-yl)phenyl]-4-nitrobenzamide

> <CAS>
941934-48-1

> <PriceCoeff>
1.00

> <MW>
389.79

> <Description>
solid

> <FSP3>
0.22

> <clogP>
2.68

> <TPSA>
101.78

> <Acceptor>
5

> <Donor>
1

> <RotBonds>
5

> <HAC>
27

> <Collection>
General

$$$$
F0222-0029
  -ISIS-  06222321442D

 27 30  0  0  0  0  0  0  0  0999 V2000
   -1.2000    0.1458    0.0000 N   0  0  3  0  0  0  0  0  0  0  0  0
   -1.3958   -0.6375    0.0000 C   0  0  0  0  0  0  0  0  0  0  0  0
   -0.3958    0.2208    0.0000 C   0  0  0  0  0  0  0  0  0  0  0  0
   -0.0833   -0.5375    0.0000 C   0  0  3  0  0  0  0  0  0  0  0  0
   -0.6833   -1.0542    0.0000 C   0  0  0  0  0  0  0  0  0  0  0  0
    3.0042    1.5125    0.0000 N   0  0  3  0  0  0  0  0  0  0  0  0
    0.7000   -0.7375    0.0000 N   0  0  0  0  0  0  0  0  0  0  0  0
   -1.6708    0.8000    0.0000 C   0  0  0  0  0  0  0  0  0  0  0  0
   -2.1500   -0.9667    0.0000 O   0  0  0  0  0  0  0  0  0  0  0  0
    2.4042    0.9625    0.0000 C   0  0  0  0  0  0  0  0  0  0  0  0
    0.0500    0.9000    0.0000 O   0  0  0  0  0  0  0  0  0  0  0  0
    4.1667    2.6500    0.0000 O   0  0  0  0  0  0  0  0  0  0  0  0
   -1.3208    1.5458    0.0000 C   0  0  0  0  0  0  0  0  0  0  0  0
   -2.4708    0.7458    0.0000 C   0  0  0  0  0  0  0  0  0  0  0  0
    1.6500    1.1833    0.0000 C   0  0  0  0  0  0  0  0  0  0  0  0
    2.6292    0.1958    0.0000 C   0  0  0  0  0  0  0  0  0  0  0  0
    1.2792   -0.1667    0.0000 C   0  0  0  0  0  0  0  0  0  0  0  0
   -2.6000    2.1208    0.0000 C   0  0  0  0  0  0  0  0  0  0  0  0
    1.0875    0.6125    0.0000 C   0  0  0  0  0  0  0  0  0  0  0  0
    2.0667   -0.3875    0.0000 C   0  0  0  0  0  0  0  0  0  0  0  0
   -2.9333    1.4125    0.0000 C   0  0  0  0  0  0  0  0  0  0  0  0
   -1.7833    2.2083    0.0000 C   0  0  0  0  0  0  0  0  0  0  0  0
   -3.0833    2.7958    0.0000 F   0  0  0  0  0  0  0  0  0  0  0  0
    3.7792    1.3000    0.0000 C   0  0  0  0  0  0  0  0  0  0  0  0
    2.8042    2.3125    0.0000 C   0  0  0  0  0  0  0  0  0  0  0  0
    3.4000    2.8625    0.0000 C   0  0  0  0  0  0  0  0  0  0  0  0
    4.3792    1.8708    0.0000 C   0  0  0  0  0  0  0  0  0  0  0  0
  2  1  1  0  0  0  0
  3  1  1  0  0  0  0
  4  3  1  0  0  0  0
  5  2  1  0  0  0  0
  6 10  1  0  0  0  0
  7  4  1  0  0  0  0
  8  1  1  0  0  0  0
  9  2  2  0  0  0  0
 10 16  2  0  0  0  0
 11  3  2  0  0  0  0
 12 26  1  0  0  0  0
 13  8  2  0  0  0  0
 14  8  1  0  0  0  0
 15 19  2  0  0  0  0
 16 20  1  0  0  0  0
 17  7  1  0  0  0  0
 18 21  1  0  0  0  0
 19 17  1  0  0  0  0
 20 17  2  0  0  0  0
 21 14  2  0  0  0  0
 22 13  1  0  0  0  0
 23 18  1  0  0  0  0
 24  6  1  0  0  0  0
 25  6  1  0  0  0  0
 26 25  1  0  0  0  0
 27 24  1  0  0  0  0
  4  5  1  0  0  0  0
 18 22  2  0  0  0  0
 15 10  1  0  0  0  0
 12 27  1  0  0  0  0
M  END
> <IDNUMBER>
F0222-0029

> <Chemical_Name>
1-(4-fluorophenyl)-3-{[4-(morpholin-4-yl)phenyl]amino}pyrrolidine-2,5-dione

> <CAS>
353793-16-5

> <PriceCoeff>
1.00

> <MW>
369.39

> <Description>
solid

> <FSP3>
0.30

> <clogP>
2.37

> <TPSA>
61.88

> <Acceptor>
5

> <Donor>
2

> <RotBonds>
4

> <HAC>
27

> <Collection>
General

$$$$
F3095-4413
  -ISIS-  06222321462D

 21 23  0  0  0  0  0  0  0  0999 V2000
    2.0875   -2.6000    0.0000 C   0  0  0  0  0  0  0  0  0  0  0  0
    1.0375   -3.2000    0.0000 C   0  0  0  0  0  0  0  0  0  0  0  0
    0.0375   -2.6000    0.0000 C   0  0  0  0  0  0  0  0  0  0  0  0
    2.0875   -1.4375    0.0000 C   0  0  0  0  0  0  0  0  0  0  0  0
    0.0375   -1.4375    0.0000 C   0  0  0  0  0  0  0  0  0  0  0  0
    1.0375   -0.8375    0.0000 O   0  0  0  0  0  0  0  0  0  0  0  0
    2.8000   -3.0042    0.0000 C   0  0  0  0  0  0  0  0  0  0  0  0
   -0.9958   -3.2000    0.0000 C   0  0  0  0  0  0  0  0  0  0  0  0
   -0.9958   -0.8375    0.0000 C   0  0  0  0  0  0  0  0  0  0  0  0
    1.0375   -4.4000    0.0000 O   0  0  0  0  0  0  0  0  0  0  0  0
    2.8000   -3.8375    0.0000 C   0  0  0  0  0  0  0  0  0  0  0  0
   -2.0333   -1.4375    0.0000 C   0  0  0  0  0  0  0  0  0  0  0  0
   -2.0333   -2.6000    0.0000 C   0  0  0  0  0  0  0  0  0  0  0  0
    2.0792   -4.2500    0.0000 O   0  0  0  0  0  0  0  0  0  0  0  0
    3.5042   -2.6000    0.0000 C   0  0  0  0  0  0  0  0  0  0  0  0
   -3.0708   -0.8375    0.0000 O   0  0  0  0  0  0  0  0  0  0  0  0
    3.5042   -4.2500    0.0000 C   0  0  0  0  0  0  0  0  0  0  0  0
    2.0792   -5.0667    0.0000 C   0  0  0  0  0  0  0  0  0  0  0  0
   -3.0708    0.3625    0.0000 C   0  0  0  0  0  0  0  0  0  0  0  0
    4.2167   -3.0042    0.0000 C   0  0  0  0  0  0  0  0  0  0  0  0
    4.2167   -3.8375    0.0000 C   0  0  0  0  0  0  0  0  0  0  0  0
  2  1  1  0  0  0  0
  3  2  1  0  0  0  0
  4  1  2  0  0  0  0
  5  6  1  0  0  0  0
  6  4  1  0  0  0  0
  7  1  1  0  0  0  0
  8  3  2  0  0  0  0
  9  5  2  0  0  0  0
 10  2  2  0  0  0  0
 11  7  2  0  0  0  0
 12  9  1  0  0  0  0
 13  8  1  0  0  0  0
 14 11  1  0  0  0  0
 15  7  1  0  0  0  0
 16 12  1  0  0  0  0
 17 11  1  0  0  0  0
 18 14  1  0  0  0  0
 19 16  1  0  0  0  0
 20 15  2  0  0  0  0
 21 20  1  0  0  0  0
  5  3  1  0  0  0  0
 21 17  2  0  0  0  0
 12 13  2  0  0  0  0
M  END
> <IDNUMBER>
F3095-4413

> <Chemical_Name>
7-methoxy-3-(2-methoxyphenyl)-4H-chromen-4-one

> <CAS>
19725-40-7

> <PriceCoeff>
1.00

> <MW>
282.29

> <Description>
solid

> <FSP3>
0.12

> <clogP>
2.46

> <TPSA>
44.76

> <Acceptor>
4

> <Donor>
0

> <RotBonds>
3

> <HAC>
21

> <Collection>
General

> <Reference_compound>
CHEMBL44

> <Similarity>
0.9360

$$$$
F3205-0103
  -ISIS-  06222321462D

 24 27  0  0  0  0  0  0  0  0999 V2000
    0.9542    0.7458    0.0000 N   0  0  3  0  0  0  0  0  0  0  0  0
    1.4417    1.4083    0.0000 C   0  0  0  0  0  0  0  0  0  0  0  0
    1.4375    0.0750    0.0000 C   0  0  0  0  0  0  0  0  0  0  0  0
    2.2167    0.3250    0.0000 C   0  0  3  0  0  0  0  0  0  0  0  0
    2.2250    1.1583    0.0000 C   0  0  0  0  0  0  0  0  0  0  0  0
    2.9292   -0.0875    0.0000 N   0  0  0  0  0  0  0  0  0  0  0  0
    0.1292    0.7458    0.0000 C   0  0  0  0  0  0  0  0  0  0  0  0
    5.0750    0.3250    0.0000 C   0  0  0  0  0  0  0  0  0  0  0  0
    4.3625   -0.0917    0.0000 C   0  0  0  0  0  0  0  0  0  0  0  0
    1.1792    2.1958    0.0000 O   0  0  0  0  0  0  0  0  0  0  0  0
    5.0750    1.1583    0.0000 C   0  0  0  0  0  0  0  0  0  0  0  0
    5.8625    0.0708    0.0000 O   0  0  0  0  0  0  0  0  0  0  0  0
    3.6500    0.3250    0.0000 C   0  0  0  0  0  0  0  0  0  0  0  0
    1.1792   -0.7042    0.0000 O   0  0  0  0  0  0  0  0  0  0  0  0
    5.8667    1.4083    0.0000 O   0  0  0  0  0  0  0  0  0  0  0  0
    6.3500    0.7375    0.0000 C   0  0  0  0  0  0  0  0  0  0  0  0
   -0.2833    1.4583    0.0000 C   0  0  0  0  0  0  0  0  0  0  0  0
   -0.2833    0.0375    0.0000 C   0  0  0  0  0  0  0  0  0  0  0  0
    4.3667    1.5583    0.0000 C   0  0  0  0  0  0  0  0  0  0  0  0
    3.6542    1.1500    0.0000 C   0  0  0  0  0  0  0  0  0  0  0  0
   -1.5000    0.7500    0.0000 C   0  0  0  0  0  0  0  0  0  0  0  0
   -1.0958    1.4583    0.0000 C   0  0  0  0  0  0  0  0  0  0  0  0
   -1.0958    0.0375    0.0000 C   0  0  0  0  0  0  0  0  0  0  0  0
   -2.3250    0.7583    0.0000 O   0  0  0  0  0  0  0  0  0  0  0  0
  2  1  1  0  0  0  0
  3  1  1  0  0  0  0
  4  3  1  0  0  0  0
  5  2  1  0  0  0  0
  6  4  1  0  0  0  0
  7  1  1  0  0  0  0
  8  9  2  0  0  0  0
  9 13  1  0  0  0  0
 10  2  2  0  0  0  0
 11 19  2  0  0  0  0
 12  8  1  0  0  0  0
 13  6  1  0  0  0  0
 14  3  2  0  0  0  0
 15 11  1  0  0  0  0
 16 12  1  0  0  0  0
 17  7  1  0  0  0  0
 18  7  2  0  0  0  0
 19 20  1  0  0  0  0
 20 13  2  0  0  0  0
 21 23  2  0  0  0  0
 22 17  2  0  0  0  0
 23 18  1  0  0  0  0
 24 21  1  0  0  0  0
  4  5  1  0  0  0  0
 21 22  1  0  0  0  0
 11  8  1  0  0  0  0
 15 16  1  0  0  0  0
M  END
> <IDNUMBER>
F3205-0103

> <Chemical_Name>
3-[(2H-1,3-benzodioxol-5-yl)amino]-1-(4-hydroxyphenyl)pyrrolidine-2,5-dione

> <CAS>
1008248-12-1

> <PriceCoeff>
1.00

> <MW>
326.30

> <Description>
solid

> <FSP3>
0.18

> <clogP>
1.91

> <TPSA>
88.10

> <Acceptor>
6

> <Donor>
2

> <RotBonds>
3

> <HAC>
24

> <Collection>
General

$$$$
F2266-0311
  -ISIS-  06222321142D

 24 26  0  0  0  0  0  0  0  0999 V2000
   -3.7583    0.4958    0.0000 N   0  3  0  0  0  0  0  0  0  0  0  0
   -3.7500    2.9833    0.0000 C   0  0  0  0  0  0  0  0  0  0  0  0
   -3.7500    3.8000    0.0000 C   0  0  0  0  0  0  0  0  0  0  0  0
   -3.0458    7.5250    0.0000 N   0  0  0  0  0  0  0  0  0  0  0  0
   -4.4833    2.5708    0.0000 C   0  0  0  0  0  0  0  0  0  0  0  0
   -3.7583    1.3083    0.0000 C   0  0  0  0  0  0  0  0  0  0  0  0
   -4.4833    1.7333    0.0000 C   0  0  0  0  0  0  0  0  0  0  0  0
   -3.0458    6.6917    0.0000 C   0  0  0  0  0  0  0  0  0  0  0  0
   -3.0375    4.2125    0.0000 N   0  0  0  0  0  0  0  0  0  0  0  0
   -2.3250    7.9292    0.0000 C   0  0  0  0  0  0  0  0  0  0  0  0
   -3.0333    2.5625    0.0000 C   0  0  0  0  0  0  0  0  0  0  0  0
   -2.3250    6.2792    0.0000 C   0  0  0  0  0  0  0  0  0  0  0  0
   -3.0375    0.0833    0.0000 O   0  5  0  0  0  0  0  0  0  0  0  0
   -4.4708    0.0833    0.0000 O   0  0  0  0  0  0  0  0  0  0  0  0
   -3.0375    5.0292    0.0000 C   0  0  0  0  0  0  0  0  0  0  0  0
   -4.4708    4.2042    0.0000 O   0  0  0  0  0  0  0  0  0  0  0  0
   -2.3250    5.4542    0.0000 C   0  0  0  0  0  0  0  0  0  0  0  0
   -3.0375    1.7375    0.0000 C   0  0  0  0  0  0  0  0  0  0  0  0
   -2.3250    8.7667    0.0000 O   0  0  0  0  0  0  0  0  0  0  0  0
   -3.7625    6.2792    0.0000 C   0  0  0  0  0  0  0  0  0  0  0  0
   -1.6208    6.6917    0.0000 C   0  0  0  0  0  0  0  0  0  0  0  0
   -5.1875    2.9833    0.0000 Cl  0  0  0  0  0  0  0  0  0  0  0  0
   -1.6125    7.5167    0.0000 C   0  0  0  0  0  0  0  0  0  0  0  0
   -3.7625    5.4542    0.0000 C   0  0  0  0  0  0  0  0  0  0  0  0
  2 11  2  0  0  0  0
  3  2  1  0  0  0  0
  4  8  1  0  0  0  0
  5  7  2  0  0  0  0
  6  1  1  0  0  0  0
  7  6  1  0  0  0  0
  8 20  1  0  0  0  0
  9  3  1  0  0  0  0
 10  4  1  0  0  0  0
 11 18  1  0  0  0  0
 12 17  1  0  0  0  0
 13  1  1  0  0  0  0
 14  1  2  0  0  0  0
 15  9  1  0  0  0  0
 16  3  2  0  0  0  0
 17 15  2  0  0  0  0
 18  6  2  0  0  0  0
 19 10  2  0  0  0  0
 20 24  2  0  0  0  0
 21 12  1  0  0  0  0
 22  5  1  0  0  0  0
 23 21  1  0  0  0  0
 24 15  1  0  0  0  0
  5  2  1  0  0  0  0
 12  8  2  0  0  0  0
 23 10  1  0  0  0  0
M  CHG  2   1   1  13  -1
M  END
> <IDNUMBER>
F2266-0311

> <Chemical_Name>
2-chloro-4-nitro-N-(2-oxo-1,2,3,4-tetrahydroquinolin-6-yl)benzamide

> <CAS>
922000-35-9

> <PriceCoeff>
1.00

> <MW>
345.74

> <Description>
solid

> <FSP3>
0.12

> <clogP>
1.93

> <TPSA>
101.34

> <Acceptor>
4

> <Donor>
2

> <RotBonds>
3

> <HAC>
24

> <Collection>
General

$$$$
F2146-0754
  -ISIS-  06222304352D

 29 30  0  0  0  0  0  0  0  0999 V2000
    4.2375   -3.2708    0.0000 C   0  0  0  0  0  0  0  0  0  0  0  0
    2.9083   -3.2708    0.0000 C   0  0  0  0  0  0  0  0  0  0  0  0
    3.5792   -2.7875    0.0000 S   0  0  0  0  0  0  0  0  0  0  0  0
    3.9875   -4.0542    0.0000 N   0  0  3  0  0  0  0  0  0  0  0  0
    3.1625   -4.0542    0.0000 C   0  0  0  0  0  0  0  0  0  0  0  0
    5.0250   -3.0167    0.0000 N   0  0  0  0  0  0  0  0  0  0  0  0
    2.1042   -3.0958    0.0000 C   0  0  0  0  0  0  0  0  0  0  0  0
    2.6083   -4.6625    0.0000 C   0  0  0  0  0  0  0  0  0  0  0  0
    1.5500   -3.7083    0.0000 C   0  0  0  0  0  0  0  0  0  0  0  0
    1.8083   -4.4875    0.0000 C   0  0  0  0  0  0  0  0  0  0  0  0
    4.4708   -4.7250    0.0000 C   0  0  0  0  0  0  0  0  0  0  0  0
    1.8542   -2.3042    0.0000 O   0  0  0  0  0  0  0  0  0  0  0  0
    2.8542   -5.4583    0.0000 O   0  0  0  0  0  0  0  0  0  0  0  0
    4.6208   -6.1500    0.0000 O   0  0  0  0  0  0  0  0  0  0  0  0
    4.1333   -5.4792    0.0000 C   0  0  0  0  0  0  0  0  0  0  0  0
    1.0458   -2.1250    0.0000 C   0  0  0  0  0  0  0  0  0  0  0  0
    2.2875   -6.0667    0.0000 C   0  0  0  0  0  0  0  0  0  0  0  0
    4.2833   -6.9042    0.0000 C   0  0  0  0  0  0  0  0  0  0  0  0
    8.0598   -3.5038    0.0000 S   0  0  3  0  0  0  0  0  0  0  0  0
    7.6570   -4.2136    0.0000 C   0  0  0  0  0  0  0  0  0  0  0  0
    7.3489   -3.0825    0.0000 O   0  0  0  0  0  0  0  0  0  0  0  0
    8.4656   -2.7827    0.0000 O   0  0  0  0  0  0  0  0  0  0  0  0
    8.7810   -3.9096    0.0000 O   0  0  0  0  0  0  0  0  0  0  0  0
    8.0724   -4.9312    0.0000 C   0  0  0  0  0  0  0  0  0  0  0  0
    6.8265   -4.2178    0.0000 C   0  0  0  0  0  0  0  0  0  0  0  0
    7.6553   -5.6494    0.0000 C   0  0  0  0  0  0  0  0  0  0  0  0
    6.4186   -4.9353    0.0000 C   0  0  0  0  0  0  0  0  0  0  0  0
    6.8320   -5.6493    0.0000 C   0  0  0  0  0  0  0  0  0  0  0  0
    6.4184   -6.3654    0.0000 C   0  0  0  0  0  0  0  0  0  0  0  0
 13  8  1  0  0  0  0
 14 15  1  0  0  0  0
 15 11  1  0  0  0  0
 16 12  1  0  0  0  0
 17 13  1  0  0  0  0
 18 14  1  0  0  0  0
  2  5  2  0  0  0  0
 10  9  1  0  0  0  0
  2  3  1  0  0  0  0
  3  1  1  0  0  0  0
  4  1  1  0  0  0  0
  5  4  1  0  0  0  0
  6  1  2  0  0  0  0
  7  2  1  0  0  0  0
  8  5  1  0  0  0  0
  9  7  2  0  0  0  0
 10  8  2  0  0  0  0
 11  4  1  0  0  0  0
 12  7  1  0  0  0  0
 20 19  1  0  0  0  0
 21 19  2  0  0  0  0
 22 19  2  0  0  0  0
 23 19  1  0  0  0  0
 24 20  1  0  0  0  0
 25 20  2  0  0  0  0
 26 24  2  0  0  0  0
 27 25  1  0  0  0  0
 28 27  2  0  0  0  0
 29 28  1  0  0  0  0
 26 28  1  0  0  0  0
M  END
> <IDNUMBER>
F2146-0754

> <Chemical_Name>
4,7-dimethoxy-3-(2-methoxyethyl)-2,3-dihydro-1,3-benzothiazol-2-imine; 4-methylbenzene-1-sulfonic acid

> <CAS>
2034156-69-7

> <PriceCoeff>
1.00

> <MW>
268.33

> <Description>
solid

> <FSP3>
0.42

> <clogP>
2.92

> <TPSA>
80.08

> <Acceptor>
3

> <Donor>
1

> <RotBonds>
5

> <HAC>
18

> <Collection>
General

> <Reference_compound>
PRI5904

> <Similarity>
0.8060

$$$$
F2784-0088
  -ISIS-  06222321462D

 26 28  0  0  0  0  0  0  0  0999 V2000
   -3.7708    0.4875    0.0000 N   0  3  0  0  0  0  0  0  0  0  0  0
   -3.7708    2.9833    0.0000 C   0  0  0  0  0  0  0  0  0  0  0  0
   -3.7583    3.8000    0.0000 C   0  0  0  0  0  0  0  0  0  0  0  0
   -3.0583    7.5250    0.0000 N   0  0  3  0  0  0  0  0  0  0  0  0
   -3.0375    2.5583    0.0000 C   0  0  0  0  0  0  0  0  0  0  0  0
   -2.3375    7.9417    0.0000 C   0  0  0  0  0  0  0  0  0  0  0  0
   -3.7625    1.3125    0.0000 C   0  0  0  0  0  0  0  0  0  0  0  0
   -3.0375    1.7250    0.0000 C   0  0  0  0  0  0  0  0  0  0  0  0
   -3.0458    4.2125    0.0000 N   0  0  0  0  0  0  0  0  0  0  0  0
   -4.4833    2.5625    0.0000 C   0  0  0  0  0  0  0  0  0  0  0  0
   -3.0500    6.7000    0.0000 C   0  0  0  0  0  0  0  0  0  0  0  0
   -4.4833    0.0833    0.0000 O   0  5  0  0  0  0  0  0  0  0  0  0
   -3.0583    0.0750    0.0000 O   0  0  0  0  0  0  0  0  0  0  0  0
   -4.4750    4.2042    0.0000 O   0  0  0  0  0  0  0  0  0  0  0  0
   -4.4833    1.7333    0.0000 C   0  0  0  0  0  0  0  0  0  0  0  0
   -1.6208    7.5292    0.0000 O   0  0  0  0  0  0  0  0  0  0  0  0
   -2.3333    6.2792    0.0000 C   0  0  0  0  0  0  0  0  0  0  0  0
   -3.7708    6.2792    0.0000 C   0  0  0  0  0  0  0  0  0  0  0  0
   -3.0458    5.0417    0.0000 C   0  0  0  0  0  0  0  0  0  0  0  0
   -2.3208    2.9625    0.0000 Cl  0  0  0  0  0  0  0  0  0  0  0  0
   -2.3333    5.4542    0.0000 C   0  0  0  0  0  0  0  0  0  0  0  0
   -3.7625    5.4500    0.0000 C   0  0  0  0  0  0  0  0  0  0  0  0
   -3.7750    7.9417    0.0000 C   0  0  0  0  0  0  0  0  0  0  0  0
   -2.3458    8.7750    0.0000 C   0  0  0  0  0  0  0  0  0  0  0  0
   -3.7750    8.7667    0.0000 C   0  0  0  0  0  0  0  0  0  0  0  0
   -3.0625    9.1875    0.0000 C   0  0  0  0  0  0  0  0  0  0  0  0
  2 10  2  0  0  0  0
  3  2  1  0  0  0  0
  4 11  1  0  0  0  0
  5  8  2  0  0  0  0
  6  4  1  0  0  0  0
  7  1  1  0  0  0  0
  8  7  1  0  0  0  0
  9  3  1  0  0  0  0
 10 15  1  0  0  0  0
 11 18  2  0  0  0  0
 12  1  1  0  0  0  0
 13  1  2  0  0  0  0
 14  3  2  0  0  0  0
 15  7  2  0  0  0  0
 16  6  2  0  0  0  0
 17 21  2  0  0  0  0
 18 22  1  0  0  0  0
 19  9  1  0  0  0  0
 20  5  1  0  0  0  0
 21 19  1  0  0  0  0
 22 19  2  0  0  0  0
 23  4  1  0  0  0  0
 24  6  1  0  0  0  0
 25 23  1  0  0  0  0
 26 25  1  0  0  0  0
  2  5  1  0  0  0  0
 17 11  1  0  0  0  0
 26 24  1  0  0  0  0
M  CHG  2   1   1  12  -1
M  END
> <IDNUMBER>
F2784-0088

> <Chemical_Name>
2-chloro-4-nitro-N-[4-(2-oxopiperidin-1-yl)phenyl]benzamide

> <CAS>
942013-45-8

> <PriceCoeff>
1.00

> <MW>
373.79

> <Description>
solid

> <FSP3>
0.22

> <clogP>
3.30

> <TPSA>
92.55

> <Acceptor>
4

> <Donor>
1

> <RotBonds>
4

> <HAC>
26

> <Collection>
General

$$$$
F3228-0143
  -ISIS-  06222321462D

 22 24  0  0  0  0  0  0  0  0999 V2000
    2.6792   -2.8417    0.0000 C   0  0  0  0  0  0  0  0  0  0  0  0
    2.1167   -1.8750    0.0000 C   0  0  0  0  0  0  0  0  0  0  0  0
    3.2417   -2.5250    0.0000 C   0  0  0  0  0  0  0  0  0  0  0  0
    2.1167   -2.5250    0.0000 C   0  0  0  0  0  0  0  0  0  0  0  0
    2.6792   -1.5417    0.0000 O   0  0  0  0  0  0  0  0  0  0  0  0
    3.2417   -1.8750    0.0000 C   0  0  0  0  0  0  0  0  0  0  0  0
    1.5542   -1.5542    0.0000 C   0  0  0  0  0  0  0  0  0  0  0  0
    1.5542   -2.8417    0.0000 C   0  0  0  0  0  0  0  0  0  0  0  0
    3.8000   -2.8417    0.0000 C   0  0  0  0  0  0  0  0  0  0  0  0
    1.0000   -1.8750    0.0000 C   0  0  0  0  0  0  0  0  0  0  0  0
    2.6792   -3.4917    0.0000 O   0  0  0  0  0  0  0  0  0  0  0  0
    1.0000   -2.5250    0.0000 C   0  0  0  0  0  0  0  0  0  0  0  0
    4.3542   -2.5250    0.0000 C   0  0  0  0  0  0  0  0  0  0  0  0
    3.8000   -3.4917    0.0000 C   0  0  0  0  0  0  0  0  0  0  0  0
    3.8042   -1.5500    0.0000 C   0  0  0  0  0  0  0  0  0  0  0  0
    4.9167   -3.4917    0.0000 C   0  0  0  0  0  0  0  0  0  0  0  0
    4.9167   -2.8417    0.0000 C   0  0  0  0  0  0  0  0  0  0  0  0
    4.3542   -3.8167    0.0000 C   0  0  0  0  0  0  0  0  0  0  0  0
    0.4417   -1.5542    0.0000 O   0  0  0  0  0  0  0  0  0  0  0  0
    1.5542   -0.9042    0.0000 C   0  0  0  0  0  0  0  0  0  0  0  0
    5.4750   -3.8167    0.0000 O   0  0  0  0  0  0  0  0  0  0  0  0
    6.0292   -3.4917    0.0000 C   0  0  0  0  0  0  0  0  0  0  0  0
  2  4  1  0  0  0  0
  3  1  1  0  0  0  0
  4  1  1  0  0  0  0
  5  2  1  0  0  0  0
  6  3  2  0  0  0  0
  7  2  2  0  0  0  0
  8  4  2  0  0  0  0
  9  3  1  0  0  0  0
 10 12  2  0  0  0  0
 11  1  2  0  0  0  0
 12  8  1  0  0  0  0
 13  9  1  0  0  0  0
 14  9  2  0  0  0  0
 15  6  1  0  0  0  0
 16 18  2  0  0  0  0
 17 13  2  0  0  0  0
 18 14  1  0  0  0  0
 19 10  1  0  0  0  0
 20  7  1  0  0  0  0
 21 16  1  0  0  0  0
 22 21  1  0  0  0  0
  5  6  1  0  0  0  0
 10  7  1  0  0  0  0
 16 17  1  0  0  0  0
M  END
> <IDNUMBER>
F3228-0143

> <Chemical_Name>
7-hydroxy-3-(4-methoxyphenyl)-2,8-dimethyl-4H-chromen-4-one

> <CAS>
433954-10-0

> <PriceCoeff>
1.00

> <MW>
296.32

> <Description>
solid

> <FSP3>
0.17

> <clogP>
3.29

> <TPSA>
55.76

> <Acceptor>
4

> <Donor>
1

> <RotBonds>
2

> <HAC>
22

> <Collection>
General

> <Reference_compound>
CHEMBL44

> <Similarity>
0.8130

$$$$
F3023-0946
  -ISIS-  06222321152D

 24 26  0  0  0  0  0  0  0  0999 V2000
    4.8167   -6.4042    0.0000 N   0  0  3  0  0  0  0  0  0  0  0  0
    5.2375   -5.8292    0.0000 C   0  0  0  0  0  0  0  0  0  0  0  0
    5.2417   -6.9750    0.0000 C   0  0  0  0  0  0  0  0  0  0  0  0
    5.9167   -6.7542    0.0000 C   0  0  3  0  0  0  0  0  0  0  0  0
    5.9125   -6.0417    0.0000 C   0  0  0  0  0  0  0  0  0  0  0  0
    6.4875   -7.1667    0.0000 N   0  0  0  0  0  0  0  0  0  0  0  0
    4.1125   -6.4042    0.0000 C   0  0  0  0  0  0  0  0  0  0  0  0
    5.0125   -5.1542    0.0000 O   0  0  0  0  0  0  0  0  0  0  0  0
    5.0292   -7.6500    0.0000 O   0  0  0  0  0  0  0  0  0  0  0  0
    8.4292   -6.3042    0.0000 C   0  0  0  0  0  0  0  0  0  0  0  0
    9.0792   -6.0125    0.0000 N   0  0  3  0  0  0  0  0  0  0  0  0
    3.7542   -5.7917    0.0000 C   0  0  0  0  0  0  0  0  0  0  0  0
    3.7667   -7.0250    0.0000 C   0  0  0  0  0  0  0  0  0  0  0  0
    7.1375   -6.8792    0.0000 C   0  0  0  0  0  0  0  0  0  0  0  0
    7.8500   -5.8875    0.0000 C   0  0  0  0  0  0  0  0  0  0  0  0
    8.3542   -7.0042    0.0000 C   0  0  0  0  0  0  0  0  0  0  0  0
    7.2042   -6.1750    0.0000 C   0  0  0  0  0  0  0  0  0  0  0  0
    7.7042   -7.2917    0.0000 C   0  0  0  0  0  0  0  0  0  0  0  0
    3.0625   -7.0292    0.0000 C   0  0  0  0  0  0  0  0  0  0  0  0
    3.0500   -5.8000    0.0000 C   0  0  0  0  0  0  0  0  0  0  0  0
    2.7000   -6.4167    0.0000 C   0  0  0  0  0  0  0  0  0  0  0  0
    9.1500   -5.3042    0.0000 C   0  0  0  0  0  0  0  0  0  0  0  0
    9.6542   -6.4292    0.0000 C   0  0  0  0  0  0  0  0  0  0  0  0
    1.9917   -6.4167    0.0000 C   0  0  0  0  0  0  0  0  0  0  0  0
  2  1  1  0  0  0  0
  3  1  1  0  0  0  0
  4  3  1  0  0  0  0
  5  2  1  0  0  0  0
  6  4  1  0  0  0  0
  7  1  1  0  0  0  0
  8  2  2  0  0  0  0
  9  3  2  0  0  0  0
 10 16  2  0  0  0  0
 11 10  1  0  0  0  0
 12  7  2  0  0  0  0
 13  7  1  0  0  0  0
 14  6  1  0  0  0  0
 15 17  2  0  0  0  0
 16 18  1  0  0  0  0
 17 14  1  0  0  0  0
 18 14  2  0  0  0  0
 19 13  2  0  0  0  0
 20 12  1  0  0  0  0
 21 19  1  0  0  0  0
 22 11  1  0  0  0  0
 23 11  1  0  0  0  0
 24 21  1  0  0  0  0
  5  4  1  0  0  0  0
 21 20  2  0  0  0  0
 15 10  1  0  0  0  0
M  END
> <IDNUMBER>
F3023-0946

> <Chemical_Name>
3-{[4-(dimethylamino)phenyl]amino}-1-(4-methylphenyl)pyrrolidine-2,5-dione

> <CAS>
1009289-75-1

> <PriceCoeff>
1.00

> <MW>
323.39

> <Description>
solid

> <FSP3>
0.26

> <clogP>
3.15

> <TPSA>
52.65

> <Acceptor>
4

> <Donor>
2

> <RotBonds>
4

> <HAC>
24

> <Collection>
General

$$$$
F0343-0010
  -ISIS-  06222304342D

 35 38  0  0  0  0  0  0  0  0999 V2000
    3.2167    1.5875    0.0000 C   0  0  0  0  0  0  0  0  0  0  0  0
    2.7167    0.9125    0.0000 N   0  0  0  0  0  0  0  0  0  0  0  0
    2.7167    2.2708    0.0000 N   0  0  0  0  0  0  0  0  0  0  0  0
    4.4625    0.8708    0.0000 N   0  0  0  0  0  0  0  0  0  0  0  0
    4.0417    1.5875    0.0000 C   0  0  0  0  0  0  0  0  0  0  0  0
    1.9417    1.1750    0.0000 C   0  0  0  0  0  0  0  0  0  0  0  0
    1.9417    2.0083    0.0000 C   0  0  0  0  0  0  0  0  0  0  0  0
    5.3042    0.8958    0.0000 C   0  0  0  0  0  0  0  0  0  0  0  0
    4.4292    2.3083    0.0000 C   0  0  0  0  0  0  0  0  0  0  0  0
    5.6917    1.6083    0.0000 C   0  0  0  0  0  0  0  0  0  0  0  0
    5.2625    2.3083    0.0000 C   0  0  0  0  0  0  0  0  0  0  0  0
    1.2042    0.7583    0.0000 C   0  0  0  0  0  0  0  0  0  0  0  0
    1.2042    2.4333    0.0000 C   0  0  0  0  0  0  0  0  0  0  0  0
    5.7292    0.1833    0.0000 C   0  0  0  0  0  0  0  0  0  0  0  0
    6.5250    1.6083    0.0000 C   0  0  0  0  0  0  0  0  0  0  0  0
    0.4875    2.0083    0.0000 C   0  0  0  0  0  0  0  0  0  0  0  0
    0.4875    1.1750    0.0000 C   0  0  0  0  0  0  0  0  0  0  0  0
    6.5667    0.1958    0.0000 C   0  0  0  0  0  0  0  0  0  0  0  0
    6.9542    0.9125    0.0000 C   0  0  0  0  0  0  0  0  0  0  0  0
    9.8750    1.9166    0.0000 C   0  0  0  0  0  0  0  0  0  0  0  0
    9.7083    0.5208    0.0000 C   0  0  0  0  0  0  0  0  0  0  0  0
    9.3958    1.2666    0.0000 C   0  0  0  0  0  0  0  0  0  0  0  0
    9.5375    2.6916    0.0000 N   0  3  0  0  0  0  0  0  0  0  0  0
    9.1875   -0.1584    0.0000 N   0  3  0  0  0  0  0  0  0  0  0  0
   11.8500    0.9916    0.0000 N   0  3  0  0  0  0  0  0  0  0  0  0
   11.0250    1.0791    0.0000 C   0  0  0  0  0  0  0  0  0  0  0  0
   10.5333    0.3916    0.0000 C   0  0  0  0  0  0  0  0  0  0  0  0
   10.7000    1.8166    0.0000 C   0  0  0  0  0  0  0  0  0  0  0  0
    8.3791   -0.0417    0.0000 O   0  5  0  0  0  0  0  0  0  0  0  0
   10.0333    3.3458    0.0000 O   0  5  0  0  0  0  0  0  0  0  0  0
   12.2000    0.2541    0.0000 O   0  5  0  0  0  0  0  0  0  0  0  0
    8.7375    2.7666    0.0000 O   0  0  0  0  0  0  0  0  0  0  0  0
    9.5125   -0.9209    0.0000 O   0  0  0  0  0  0  0  0  0  0  0  0
   12.3250    1.6791    0.0000 O   0  0  0  0  0  0  0  0  0  0  0  0
    8.5666    1.3666    0.0000 O   0  0  0  0  0  0  0  0  0  0  0  0
 18 14  2  0  0  0  0
 19 15  2  0  0  0  0
  6  7  2  0  0  0  0
  8 10  1  0  0  0  0
 16 17  1  0  0  0  0
 18 19  1  0  0  0  0
  2  1  2  0  0  0  0
  3  1  1  0  0  0  0
  4  5  1  0  0  0  0
  5  1  1  0  0  0  0
  6  2  1  0  0  0  0
  7  3  1  0  0  0  0
  8  4  2  0  0  0  0
  9  5  2  0  0  0  0
 10 11  2  0  0  0  0
 11  9  1  0  0  0  0
 12  6  1  0  0  0  0
 13  7  1  0  0  0  0
 14  8  1  0  0  0  0
 15 10  1  0  0  0  0
 16 13  2  0  0  0  0
 17 12  2  0  0  0  0
 21 22  2  0  0  0  0
 22 20  1  0  0  0  0
 23 20  1  0  0  0  0
 24 21  1  0  0  0  0
 25 26  1  0  0  0  0
 26 28  1  0  0  0  0
 27 26  2  0  0  0  0
 28 20  2  0  0  0  0
 29 24  1  0  0  0  0
 30 23  1  0  0  0  0
 31 25  1  0  0  0  0
 32 23  2  0  0  0  0
 33 24  2  0  0  0  0
 34 25  2  0  0  0  0
 35 22  1  0  0  0  0
 21 27  1  0  0  0  0
M  CHG  6  23   1  24   1  25   1  29  -1  30  -1  31  -1
M  END
> <IDNUMBER>
F0343-0010

> <Chemical_Name>
2,4,6-trinitrophenol; 2-(1H-1,3-benzodiazol-2-yl)quinoline

> <CAS>
467450-36-8

> <PriceCoeff>
1.00

> <MW>
245.28

> <Description>
solid

> <FSP3>
0.00

> <clogP>
3.92

> <TPSA>
41.57

> <Acceptor>
3

> <Donor>
3

> <RotBonds>
1

> <HAC>
19

> <Collection>
General

> <Reference_compound>
CHEMBL72683

> <Similarity>
0.9080

$$$$
F2146-0748
  -ISIS-  06222304352D

 26 27  0  0  0  0  0  0  0  0999 V2000
    3.4792   -2.2833    0.0000 C   0  0  0  0  0  0  0  0  0  0  0  0
    3.2250   -3.0708    0.0000 N   0  0  3  0  0  0  0  0  0  0  0  0
    2.8167   -1.8000    0.0000 S   0  0  0  0  0  0  0  0  0  0  0  0
    2.1417   -2.2833    0.0000 C   0  0  0  0  0  0  0  0  0  0  0  0
    2.4000   -3.0708    0.0000 C   0  0  0  0  0  0  0  0  0  0  0  0
    1.3333   -2.1083    0.0000 C   0  0  0  0  0  0  0  0  0  0  0  0
    4.2708   -2.0292    0.0000 N   0  0  0  0  0  0  0  0  0  0  0  0
    1.8417   -3.6833    0.0000 C   0  0  0  0  0  0  0  0  0  0  0  0
    0.7750   -2.7250    0.0000 C   0  0  0  0  0  0  0  0  0  0  0  0
    3.7125   -3.7458    0.0000 C   0  0  0  0  0  0  0  0  0  0  0  0
    1.0375   -3.5083    0.0000 C   0  0  0  0  0  0  0  0  0  0  0  0
   -0.0333   -2.5542    0.0000 F   0  0  0  0  0  0  0  0  0  0  0  0
    3.8625   -5.1792    0.0000 O   0  0  0  0  0  0  0  0  0  0  0  0
    3.3750   -4.5042    0.0000 C   0  0  0  0  0  0  0  0  0  0  0  0
    3.5250   -5.9375    0.0000 C   0  0  0  0  0  0  0  0  0  0  0  0
    7.3056   -2.7996    0.0000 S   0  0  3  0  0  0  0  0  0  0  0  0
    6.9028   -3.5094    0.0000 C   0  0  0  0  0  0  0  0  0  0  0  0
    6.5947   -2.3783    0.0000 O   0  0  0  0  0  0  0  0  0  0  0  0
    7.7114   -2.0785    0.0000 O   0  0  0  0  0  0  0  0  0  0  0  0
    8.0268   -3.2054    0.0000 O   0  0  0  0  0  0  0  0  0  0  0  0
    7.3182   -4.2270    0.0000 C   0  0  0  0  0  0  0  0  0  0  0  0
    6.0723   -3.5136    0.0000 C   0  0  0  0  0  0  0  0  0  0  0  0
    6.9011   -4.9452    0.0000 C   0  0  0  0  0  0  0  0  0  0  0  0
    5.6644   -4.2311    0.0000 C   0  0  0  0  0  0  0  0  0  0  0  0
    6.0778   -4.9451    0.0000 C   0  0  0  0  0  0  0  0  0  0  0  0
    5.6642   -5.6612    0.0000 C   0  0  0  0  0  0  0  0  0  0  0  0
 13 14  1  0  0  0  0
 14 10  1  0  0  0  0
 15 13  1  0  0  0  0
  4  5  2  0  0  0  0
 11  9  1  0  0  0  0
  2  1  1  0  0  0  0
  3  1  1  0  0  0  0
  4  3  1  0  0  0  0
  5  2  1  0  0  0  0
  6  4  1  0  0  0  0
  7  1  2  0  0  0  0
  8  5  1  0  0  0  0
  9  6  2  0  0  0  0
 10  2  1  0  0  0  0
 11  8  2  0  0  0  0
 12  9  1  0  0  0  0
 17 16  1  0  0  0  0
 18 16  2  0  0  0  0
 19 16  2  0  0  0  0
 20 16  1  0  0  0  0
 21 17  1  0  0  0  0
 22 17  2  0  0  0  0
 23 21  2  0  0  0  0
 24 22  1  0  0  0  0
 25 24  2  0  0  0  0
 26 25  1  0  0  0  0
 23 25  1  0  0  0  0
M  END
> <IDNUMBER>
F2146-0748

> <Chemical_Name>
4-methylbenzene-1-sulfonic acid; 6-fluoro-3-(2-methoxyethyl)-2,3-dihydro-1,3-benzothiazol-2-imine

> <CAS>
2034156-64-2

> <PriceCoeff>
1.00

> <MW>
226.27

> <Description>
solid

> <FSP3>
0.30

> <clogP>
3.05

> <TPSA>
61.62

> <Acceptor>
1

> <Donor>
1

> <RotBonds>
3

> <HAC>
15

> <Collection>
General

> <Reference_compound>
PRI5904

> <Similarity>
0.8060

$$$$
F2146-0751
  -ISIS-  06222304352D

 26 27  0  0  0  0  0  0  0  0999 V2000
    1.7917    0.3083    0.0000 C   0  0  0  0  0  0  0  0  0  0  0  0
    1.5375   -0.4792    0.0000 N   0  0  3  0  0  0  0  0  0  0  0  0
    1.1292    0.7958    0.0000 S   0  0  0  0  0  0  0  0  0  0  0  0
    0.7125   -0.4792    0.0000 C   0  0  0  0  0  0  0  0  0  0  0  0
    0.4542    0.3083    0.0000 C   0  0  0  0  0  0  0  0  0  0  0  0
    2.5833    0.5625    0.0000 N   0  0  0  0  0  0  0  0  0  0  0  0
    0.1542   -1.0917    0.0000 C   0  0  0  0  0  0  0  0  0  0  0  0
    2.0250   -1.1542    0.0000 C   0  0  0  0  0  0  0  0  0  0  0  0
    0.4083   -1.8750    0.0000 F   0  0  0  0  0  0  0  0  0  0  0  0
   -0.3542    0.4833    0.0000 C   0  0  0  0  0  0  0  0  0  0  0  0
   -0.9125   -0.1333    0.0000 C   0  0  0  0  0  0  0  0  0  0  0  0
    2.1750   -2.5875    0.0000 O   0  0  0  0  0  0  0  0  0  0  0  0
   -0.6500   -0.9167    0.0000 C   0  0  0  0  0  0  0  0  0  0  0  0
    1.6875   -1.9125    0.0000 C   0  0  0  0  0  0  0  0  0  0  0  0
    1.8375   -3.3458    0.0000 C   0  0  0  0  0  0  0  0  0  0  0  0
    5.6181   -0.2079    0.0000 S   0  0  3  0  0  0  0  0  0  0  0  0
    5.2153   -0.9177    0.0000 C   0  0  0  0  0  0  0  0  0  0  0  0
    4.9072    0.2134    0.0000 O   0  0  0  0  0  0  0  0  0  0  0  0
    6.0239    0.5132    0.0000 O   0  0  0  0  0  0  0  0  0  0  0  0
    6.3393   -0.6137    0.0000 O   0  0  0  0  0  0  0  0  0  0  0  0
    5.6307   -1.6353    0.0000 C   0  0  0  0  0  0  0  0  0  0  0  0
    4.3848   -0.9219    0.0000 C   0  0  0  0  0  0  0  0  0  0  0  0
    5.2136   -2.3535    0.0000 C   0  0  0  0  0  0  0  0  0  0  0  0
    3.9769   -1.6394    0.0000 C   0  0  0  0  0  0  0  0  0  0  0  0
    4.3903   -2.3534    0.0000 C   0  0  0  0  0  0  0  0  0  0  0  0
    3.9767   -3.0695    0.0000 C   0  0  0  0  0  0  0  0  0  0  0  0
 13  7  2  0  0  0  0
 14  8  1  0  0  0  0
 15 12  1  0  0  0  0
  5  4  2  0  0  0  0
 13 11  1  0  0  0  0
  2  1  1  0  0  0  0
  3  1  1  0  0  0  0
  4  2  1  0  0  0  0
  5  3  1  0  0  0  0
  6  1  2  0  0  0  0
  7  4  1  0  0  0  0
  8  2  1  0  0  0  0
  9  7  1  0  0  0  0
 10  5  1  0  0  0  0
 11 10  2  0  0  0  0
 12 14  1  0  0  0  0
 17 16  1  0  0  0  0
 18 16  2  0  0  0  0
 19 16  2  0  0  0  0
 20 16  1  0  0  0  0
 21 17  1  0  0  0  0
 22 17  2  0  0  0  0
 23 21  2  0  0  0  0
 24 22  1  0  0  0  0
 25 24  2  0  0  0  0
 26 25  1  0  0  0  0
 23 25  1  0  0  0  0
M  END
> <IDNUMBER>
F2146-0751

> <Chemical_Name>
4-fluoro-3-(2-methoxyethyl)-2,3-dihydro-1,3-benzothiazol-2-imine; 4-methylbenzene-1-sulfonic acid

> <CAS>
2034153-20-1

> <PriceCoeff>
1.00

> <MW>
226.27

> <Description>
solid

> <FSP3>
0.30

> <clogP>
3.05

> <TPSA>
61.62

> <Acceptor>
1

> <Donor>
1

> <RotBonds>
3

> <HAC>
15

> <Collection>
General

> <Reference_compound>
PRI5904

> <Similarity>
0.8060

$$$$
F2784-0669
  -ISIS-  06222321462D

 28 30  0  0  0  0  0  0  0  0999 V2000
   -4.4750    6.6750    0.0000 N   0  0  3  0  0  0  0  0  0  0  0  0
   -3.7708    0.4875    0.0000 N   0  3  0  0  0  0  0  0  0  0  0  0
   -3.7708    2.9833    0.0000 C   0  0  0  0  0  0  0  0  0  0  0  0
   -3.7583    3.8000    0.0000 C   0  0  0  0  0  0  0  0  0  0  0  0
   -3.7625    6.2667    0.0000 C   0  0  0  0  0  0  0  0  0  0  0  0
   -5.1958    6.2542    0.0000 C   0  0  0  0  0  0  0  0  0  0  0  0
   -3.0375    2.5583    0.0000 C   0  0  0  0  0  0  0  0  0  0  0  0
   -3.7625    1.3125    0.0000 C   0  0  0  0  0  0  0  0  0  0  0  0
   -3.0375    1.7250    0.0000 C   0  0  0  0  0  0  0  0  0  0  0  0
   -3.0458    4.2125    0.0000 N   0  0  0  0  0  0  0  0  0  0  0  0
   -3.7583    5.4417    0.0000 C   0  0  0  0  0  0  0  0  0  0  0  0
   -4.4833    2.5625    0.0000 C   0  0  0  0  0  0  0  0  0  0  0  0
   -4.4833    0.0833    0.0000 O   0  5  0  0  0  0  0  0  0  0  0  0
   -3.0500    6.6875    0.0000 C   0  0  0  0  0  0  0  0  0  0  0  0
   -3.0458    5.0292    0.0000 C   0  0  0  0  0  0  0  0  0  0  0  0
   -3.0583    0.0750    0.0000 O   0  0  0  0  0  0  0  0  0  0  0  0
   -4.4750    4.2042    0.0000 O   0  0  0  0  0  0  0  0  0  0  0  0
   -4.4833    1.7333    0.0000 C   0  0  0  0  0  0  0  0  0  0  0  0
   -5.1875    5.4292    0.0000 O   0  0  0  0  0  0  0  0  0  0  0  0
   -2.3333    6.2792    0.0000 C   0  0  0  0  0  0  0  0  0  0  0  0
   -2.3208    2.9625    0.0000 Cl  0  0  0  0  0  0  0  0  0  0  0  0
   -4.4875    7.5042    0.0000 C   0  0  0  0  0  0  0  0  0  0  0  0
   -2.3250    5.4542    0.0000 C   0  0  0  0  0  0  0  0  0  0  0  0
   -3.0583    7.5125    0.0000 O   0  0  0  0  0  0  0  0  0  0  0  0
   -5.9125    6.6667    0.0000 C   0  0  0  0  0  0  0  0  0  0  0  0
   -2.3458    7.9292    0.0000 C   0  0  0  0  0  0  0  0  0  0  0  0
   -5.2083    7.9042    0.0000 C   0  0  0  0  0  0  0  0  0  0  0  0
   -5.9125    7.4875    0.0000 C   0  0  0  0  0  0  0  0  0  0  0  0
  2  8  1  0  0  0  0
  3  4  1  0  0  0  0
  4 10  1  0  0  0  0
  5  1  1  0  0  0  0
  6  1  1  0  0  0  0
  7  3  1  0  0  0  0
  8 18  2  0  0  0  0
  9  7  2  0  0  0  0
 10 15  1  0  0  0  0
 11  5  1  0  0  0  0
 12  3  2  0  0  0  0
 13  2  1  0  0  0  0
 14  5  2  0  0  0  0
 15 11  2  0  0  0  0
 16  2  2  0  0  0  0
 17  4  2  0  0  0  0
 18 12  1  0  0  0  0
 19  6  2  0  0  0  0
 20 14  1  0  0  0  0
 21  7  1  0  0  0  0
 22  1  1  0  0  0  0
 23 20  2  0  0  0  0
 24 14  1  0  0  0  0
 25  6  1  0  0  0  0
 26 24  1  0  0  0  0
 27 22  1  0  0  0  0
 28 27  1  0  0  0  0
 28 25  1  0  0  0  0
 15 23  1  0  0  0  0
  9  8  1  0  0  0  0
M  CHG  2   2   1  13  -1
M  END
> <IDNUMBER>
F2784-0669

> <Chemical_Name>
2-chloro-N-[4-methoxy-3-(2-oxopiperidin-1-yl)phenyl]-4-nitrobenzamide

> <CAS>
941919-87-5

> <PriceCoeff>
1.00

> <MW>
403.82

> <Description>
solid

> <FSP3>
0.26

> <clogP>
3.24

> <TPSA>
101.78

> <Acceptor>
5

> <Donor>
1

> <RotBonds>
5

> <HAC>
28

> <Collection>
General

$$$$
F1065-0258
  -ISIS-  06222321142D

 23 25  0  0  0  0  0  0  0  0999 V2000
   -1.9458    0.6958    0.0000 N   0  0  3  0  0  0  0  0  0  0  0  0
   -0.8000    1.2208    0.0000 C   0  0  0  0  0  0  0  0  0  0  0  0
   -1.7833   -0.6042    0.0000 C   0  0  0  0  0  0  0  0  0  0  0  0
   -0.5125   -0.8000    0.0000 C   0  0  3  0  0  0  0  0  0  0  0  0
    0.0875    0.3625    0.0000 C   0  0  0  0  0  0  0  0  0  0  0  0
   -3.0458    1.3458    0.0000 C   0  0  0  0  0  0  0  0  0  0  0  0
    0.0375   -1.9500    0.0000 N   0  0  0  0  0  0  0  0  0  0  0  0
   -0.6000    2.4708    0.0000 O   0  0  0  0  0  0  0  0  0  0  0  0
   -2.6958   -1.4875    0.0000 O   0  0  0  0  0  0  0  0  0  0  0  0
   -4.1625    0.6958    0.0000 C   0  0  0  0  0  0  0  0  0  0  0  0
    1.3167   -2.0167    0.0000 C   0  0  0  0  0  0  0  0  0  0  0  0
    3.8792   -2.1875    0.0000 C   0  0  0  0  0  0  0  0  0  0  0  0
    5.1500   -2.2542    0.0000 F   0  0  0  0  0  0  0  0  0  0  0  0
    1.8667   -3.1667    0.0000 C   0  0  0  0  0  0  0  0  0  0  0  0
    2.0167   -0.9792    0.0000 C   0  0  0  0  0  0  0  0  0  0  0  0
    3.3167   -1.0500    0.0000 C   0  0  0  0  0  0  0  0  0  0  0  0
    3.1542   -3.2542    0.0000 C   0  0  0  0  0  0  0  0  0  0  0  0
   -4.1625   -0.5792    0.0000 O   0  0  0  0  0  0  0  0  0  0  0  0
   -3.0458    2.6125    0.0000 C   0  0  0  0  0  0  0  0  0  0  0  0
   -5.2708    1.3458    0.0000 C   0  0  0  0  0  0  0  0  0  0  0  0
   -5.2500   -1.2042    0.0000 C   0  0  0  0  0  0  0  0  0  0  0  0
   -4.1625    3.2708    0.0000 C   0  0  0  0  0  0  0  0  0  0  0  0
   -5.2708    2.6125    0.0000 C   0  0  0  0  0  0  0  0  0  0  0  0
  2  1  1  0  0  0  0
  3  1  1  0  0  0  0
  4  3  1  0  0  0  0
  5  2  1  0  0  0  0
  6  1  1  0  0  0  0
  7  4  1  0  0  0  0
  8  2  2  0  0  0  0
  9  3  2  0  0  0  0
 10  6  1  0  0  0  0
 11  7  1  0  0  0  0
 12 16  2  0  0  0  0
 13 12  1  0  0  0  0
 14 11  1  0  0  0  0
 15 11  2  0  0  0  0
 16 15  1  0  0  0  0
 17 14  2  0  0  0  0
 18 10  1  0  0  0  0
 19  6  2  0  0  0  0
 20 10  2  0  0  0  0
 21 18  1  0  0  0  0
 22 19  1  0  0  0  0
 23 22  2  0  0  0  0
  5  4  1  0  0  0  0
 20 23  1  0  0  0  0
 17 12  1  0  0  0  0
M  END
> <IDNUMBER>
F1065-0258

> <Chemical_Name>
3-[(4-fluorophenyl)amino]-1-(2-methoxyphenyl)pyrrolidine-2,5-dione

> <CAS>
380872-66-2

> <PriceCoeff>
1.00

> <MW>
314.31

> <Description>
solid

> <FSP3>
0.18

> <clogP>
3.02

> <TPSA>
58.64

> <Acceptor>
4

> <Donor>
1

> <RotBonds>
4

> <HAC>
23

> <Collection>
General

$$$$
F1065-0329
  -ISIS-  06222321142D

 23 25  0  0  0  0  0  0  0  0999 V2000
   -1.7625   -0.3792    0.0000 N   0  0  3  0  0  0  0  0  0  0  0  0
   -1.0333    0.5208    0.0000 C   0  0  0  0  0  0  0  0  0  0  0  0
   -1.1333   -1.3500    0.0000 C   0  0  0  0  0  0  0  0  0  0  0  0
    0.0000   -1.0375    0.0000 C   0  0  3  0  0  0  0  0  0  0  0  0
    0.0375    0.1125    0.0000 C   0  0  0  0  0  0  0  0  0  0  0  0
   -2.9333   -0.3792    0.0000 C   0  0  0  0  0  0  0  0  0  0  0  0
    0.9292   -1.7667    0.0000 N   0  0  0  0  0  0  0  0  0  0  0  0
   -1.3458    1.6708    0.0000 O   0  0  0  0  0  0  0  0  0  0  0  0
   -1.5208   -2.4542    0.0000 O   0  0  0  0  0  0  0  0  0  0  0  0
   -3.5125    0.6458    0.0000 C   0  0  0  0  0  0  0  0  0  0  0  0
    2.0000   -1.3375    0.0000 C   0  0  0  0  0  0  0  0  0  0  0  0
    4.1667   -0.4500    0.0000 C   0  0  0  0  0  0  0  0  0  0  0  0
    2.1500   -0.1875    0.0000 C   0  0  0  0  0  0  0  0  0  0  0  0
    2.9167   -2.0375    0.0000 C   0  0  0  0  0  0  0  0  0  0  0  0
   -2.9458    1.6458    0.0000 O   0  0  0  0  0  0  0  0  0  0  0  0
    4.0000   -1.5875    0.0000 C   0  0  0  0  0  0  0  0  0  0  0  0
    3.2375    0.2500    0.0000 C   0  0  0  0  0  0  0  0  0  0  0  0
   -3.5125   -1.3875    0.0000 C   0  0  0  0  0  0  0  0  0  0  0  0
   -4.6833    0.6458    0.0000 C   0  0  0  0  0  0  0  0  0  0  0  0
    5.2375   -0.0167    0.0000 C   0  0  0  0  0  0  0  0  0  0  0  0
   -3.5125    2.6333    0.0000 C   0  0  0  0  0  0  0  0  0  0  0  0
   -4.6833   -1.3875    0.0000 C   0  0  0  0  0  0  0  0  0  0  0  0
   -5.2708   -0.3792    0.0000 C   0  0  0  0  0  0  0  0  0  0  0  0
  2  1  1  0  0  0  0
  3  1  1  0  0  0  0
  4  3  1  0  0  0  0
  5  2  1  0  0  0  0
  6  1  1  0  0  0  0
  7  4  1  0  0  0  0
  8  2  2  0  0  0  0
  9  3  2  0  0  0  0
 10  6  1  0  0  0  0
 11  7  1  0  0  0  0
 12 16  1  0  0  0  0
 13 11  2  0  0  0  0
 14 11  1  0  0  0  0
 15 10  1  0  0  0  0
 16 14  2  0  0  0  0
 17 13  1  0  0  0  0
 18  6  2  0  0  0  0
 19 10  2  0  0  0  0
 20 12  1  0  0  0  0
 21 15  1  0  0  0  0
 22 18  1  0  0  0  0
 23 22  2  0  0  0  0
  4  5  1  0  0  0  0
 23 19  1  0  0  0  0
 12 17  2  0  0  0  0
M  END
> <IDNUMBER>
F1065-0329

> <Chemical_Name>
1-(2-methoxyphenyl)-3-[(4-methylphenyl)amino]pyrrolidine-2,5-dione

> <CAS>
342615-88-7

> <PriceCoeff>
1.00

> <MW>
310.35

> <Description>
solid

> <FSP3>
0.22

> <clogP>
3.07

> <TPSA>
58.64

> <Acceptor>
4

> <Donor>
1

> <RotBonds>
4

> <HAC>
23

> <Collection>
General

$$$$
F2211-0005
  -ISIS-  06222321142D

 19 21  0  0  0  0  0  0  0  0999 V2000
    6.3042   -8.2292    0.0000 C   0  0  0  0  0  0  0  0  0  0  0  0
    6.3000   -9.0542    0.0000 C   0  0  0  0  0  0  0  0  0  0  0  0
    5.5875   -7.8125    0.0000 O   0  0  0  0  0  0  0  0  0  0  0  0
    4.8667   -9.0500    0.0000 C   0  0  0  0  0  0  0  0  0  0  0  0
    5.5792   -9.4625    0.0000 C   0  0  0  0  0  0  0  0  0  0  0  0
    4.8750   -8.2250    0.0000 C   0  0  0  0  0  0  0  0  0  0  0  0
    7.0167   -7.8167    0.0000 C   0  0  0  0  0  0  0  0  0  0  0  0
    4.1625   -9.4625    0.0000 C   0  0  0  0  0  0  0  0  0  0  0  0
    7.0167   -6.9917    0.0000 C   0  0  0  0  0  0  0  0  0  0  0  0
    5.5792  -10.2875    0.0000 O   0  0  0  0  0  0  0  0  0  0  0  0
    4.1625   -7.8125    0.0000 C   0  0  0  0  0  0  0  0  0  0  0  0
    3.4417   -9.0542    0.0000 C   0  0  0  0  0  0  0  0  0  0  0  0
    6.3042   -6.5792    0.0000 F   0  0  0  0  0  0  0  0  0  0  0  0
    2.7292   -9.4667    0.0000 N   0  0  0  0  0  0  0  0  0  0  0  0
    3.4417   -8.2250    0.0000 C   0  0  0  0  0  0  0  0  0  0  0  0
    7.7292   -8.2292    0.0000 C   0  0  0  0  0  0  0  0  0  0  0  0
    7.7292   -6.5792    0.0000 C   0  0  0  0  0  0  0  0  0  0  0  0
    8.4417   -7.8250    0.0000 C   0  0  0  0  0  0  0  0  0  0  0  0
    8.4417   -7.0000    0.0000 C   0  0  0  0  0  0  0  0  0  0  0  0
  2  1  2  0  0  0  0
  3  1  1  0  0  0  0
  4  6  1  0  0  0  0
  5  2  1  0  0  0  0
  6  3  1  0  0  0  0
  7  1  1  0  0  0  0
  8  4  2  0  0  0  0
  9  7  1  0  0  0  0
 10  5  2  0  0  0  0
 11  6  2  0  0  0  0
 12 15  2  0  0  0  0
 13  9  1  0  0  0  0
 14 12  1  0  0  0  0
 15 11  1  0  0  0  0
 16  7  2  0  0  0  0
 17  9  2  0  0  0  0
 18 16  1  0  0  0  0
 19 18  2  0  0  0  0
  5  4  1  0  0  0  0
 19 17  1  0  0  0  0
 12  8  1  0  0  0  0
M  END
> <IDNUMBER>
F2211-0005

> <Chemical_Name>
6-amino-2-(2-fluorophenyl)-4H-chromen-4-one

> <CAS>
923233-84-5

> <PriceCoeff>
1.00

> <MW>
255.24

> <Description>
solid

> <FSP3>
0.00

> <clogP>
2.77

> <TPSA>
52.32

> <Acceptor>
3

> <Donor>
1

> <RotBonds>
1

> <HAC>
19

> <Collection>
General

> <Reference_compound>
CHEMBL477846

> <Similarity>
0.8420

$$$$
F3023-0618
  -ISIS-  06222321152D

 29 32  0  0  0  0  0  0  0  0999 V2000
    5.1125   -5.9667    0.0000 N   0  0  3  0  0  0  0  0  0  0  0  0
    5.5917   -5.2917    0.0000 C   0  0  0  0  0  0  0  0  0  0  0  0
    5.6042   -6.6292    0.0000 C   0  0  0  0  0  0  0  0  0  0  0  0
    6.3875   -6.3667    0.0000 C   0  0  3  0  0  0  0  0  0  0  0  0
    6.3792   -5.5417    0.0000 C   0  0  0  0  0  0  0  0  0  0  0  0
    7.8042   -6.5167    0.0000 C   0  0  0  0  0  0  0  0  0  0  0  0
    8.4750   -7.0000    0.0000 C   0  0  0  0  0  0  0  0  0  0  0  0
    7.0542   -6.8542    0.0000 S   0  0  0  0  0  0  0  0  0  0  0  0
    8.3917   -7.8167    0.0000 C   0  0  0  0  0  0  0  0  0  0  0  0
    1.8167   -5.9875    0.0000 N   0  0  3  0  0  0  0  0  0  0  0  0
    4.2875   -5.9667    0.0000 C   0  0  0  0  0  0  0  0  0  0  0  0
    7.8875   -5.7000    0.0000 N   0  0  0  0  0  0  0  0  0  0  0  0
    2.6417   -5.9792    0.0000 C   0  0  0  0  0  0  0  0  0  0  0  0
    5.3375   -4.5042    0.0000 O   0  0  0  0  0  0  0  0  0  0  0  0
    5.3500   -7.4167    0.0000 O   0  0  0  0  0  0  0  0  0  0  0  0
    9.0542   -8.3042    0.0000 O   0  0  0  0  0  0  0  0  0  0  0  0
    3.8792   -6.6875    0.0000 C   0  0  0  0  0  0  0  0  0  0  0  0
    3.8750   -5.2542    0.0000 C   0  0  0  0  0  0  0  0  0  0  0  0
    3.0500   -5.2625    0.0000 C   0  0  0  0  0  0  0  0  0  0  0  0
    3.0625   -6.6917    0.0000 C   0  0  0  0  0  0  0  0  0  0  0  0
    7.6375   -8.1542    0.0000 O   0  0  0  0  0  0  0  0  0  0  0  0
    9.2250   -6.6625    0.0000 C   0  0  0  0  0  0  0  0  0  0  0  0
    1.4042   -5.2667    0.0000 C   0  0  0  0  0  0  0  0  0  0  0  0
    1.4125   -6.7042    0.0000 C   0  0  0  0  0  0  0  0  0  0  0  0
    8.6292   -5.3542    0.0000 C   0  0  0  0  0  0  0  0  0  0  0  0
    9.3042   -5.8375    0.0000 C   0  0  0  0  0  0  0  0  0  0  0  0
    0.5875   -6.7042    0.0000 C   0  0  0  0  0  0  0  0  0  0  0  0
    0.5792   -5.2750    0.0000 C   0  0  0  0  0  0  0  0  0  0  0  0
    0.1667   -5.9917    0.0000 C   0  0  0  0  0  0  0  0  0  0  0  0
  2  1  1  0  0  0  0
  3  1  1  0  0  0  0
  4  3  1  0  0  0  0
  5  2  1  0  0  0  0
  6  8  1  0  0  0  0
  7  6  2  0  0  0  0
  8  4  1  0  0  0  0
  9  7  1  0  0  0  0
 10 13  1  0  0  0  0
 11  1  1  0  0  0  0
 12  6  1  0  0  0  0
 13 19  2  0  0  0  0
 14  2  2  0  0  0  0
 15  3  2  0  0  0  0
 16  9  2  0  0  0  0
 17 11  1  0  0  0  0
 18 11  2  0  0  0  0
 19 18  1  0  0  0  0
 20 17  2  0  0  0  0
 21  9  1  0  0  0  0
 22  7  1  0  0  0  0
 23 10  1  0  0  0  0
 24 10  1  0  0  0  0
 25 12  2  0  0  0  0
 26 25  1  0  0  0  0
 27 24  1  0  0  0  0
 28 23  1  0  0  0  0
 29 27  1  0  0  0  0
  5  4  1  0  0  0  0
 13 20  1  0  0  0  0
 26 22  2  0  0  0  0
 29 28  1  0  0  0  0
M  END
> <IDNUMBER>
F3023-0618

> <Chemical_Name>
2-({2,5-dioxo-1-[4-(piperidin-1-yl)phenyl]pyrrolidin-3-yl}sulfanyl)pyridine-3-carboxylic acid

> <CAS>
847241-31-0

> <PriceCoeff>
1.00

> <MW>
411.47

> <Description>
solid

> <FSP3>
0.33

> <clogP>
2.35

> <TPSA>
116.11

> <Acceptor>
6

> <Donor>
2

> <RotBonds>
5

> <HAC>
29

> <Collection>
General

$$$$
F3023-0942
  -ISIS-  06222321152D

 24 26  0  0  0  0  0  0  0  0999 V2000
    4.4667   -6.4042    0.0000 N   0  0  3  0  0  0  0  0  0  0  0  0
    4.8792   -5.8292    0.0000 C   0  0  0  0  0  0  0  0  0  0  0  0
    4.8875   -6.9750    0.0000 C   0  0  0  0  0  0  0  0  0  0  0  0
    5.5625   -6.7542    0.0000 C   0  0  3  0  0  0  0  0  0  0  0  0
    5.5542   -6.0417    0.0000 C   0  0  0  0  0  0  0  0  0  0  0  0
    6.1292   -7.1667    0.0000 N   0  0  0  0  0  0  0  0  0  0  0  0
    3.7542   -6.4042    0.0000 C   0  0  0  0  0  0  0  0  0  0  0  0
    4.6542   -5.1542    0.0000 O   0  0  0  0  0  0  0  0  0  0  0  0
    4.6750   -7.6500    0.0000 O   0  0  0  0  0  0  0  0  0  0  0  0
    8.0750   -6.3042    0.0000 C   0  0  0  0  0  0  0  0  0  0  0  0
    8.7250   -6.0125    0.0000 N   0  0  3  0  0  0  0  0  0  0  0  0
    3.4042   -5.7917    0.0000 C   0  0  0  0  0  0  0  0  0  0  0  0
    3.4125   -7.0250    0.0000 C   0  0  0  0  0  0  0  0  0  0  0  0
    6.7792   -6.8792    0.0000 C   0  0  0  0  0  0  0  0  0  0  0  0
    7.4917   -5.8875    0.0000 C   0  0  0  0  0  0  0  0  0  0  0  0
    8.0042   -7.0042    0.0000 C   0  0  0  0  0  0  0  0  0  0  0  0
    2.3417   -6.4167    0.0000 C   0  0  0  0  0  0  0  0  0  0  0  0
    7.3542   -7.2917    0.0000 C   0  0  0  0  0  0  0  0  0  0  0  0
    6.8500   -6.1750    0.0000 C   0  0  0  0  0  0  0  0  0  0  0  0
    2.7042   -7.0292    0.0000 C   0  0  0  0  0  0  0  0  0  0  0  0
    2.6917   -5.8000    0.0000 C   0  0  0  0  0  0  0  0  0  0  0  0
    1.6375   -6.4167    0.0000 F   0  0  0  0  0  0  0  0  0  0  0  0
    9.3000   -6.4292    0.0000 C   0  0  0  0  0  0  0  0  0  0  0  0
    8.7917   -5.3042    0.0000 C   0  0  0  0  0  0  0  0  0  0  0  0
  2  1  1  0  0  0  0
  3  1  1  0  0  0  0
  4  3  1  0  0  0  0
  5  2  1  0  0  0  0
  6  4  1  0  0  0  0
  7  1  1  0  0  0  0
  8  2  2  0  0  0  0
  9  3  2  0  0  0  0
 10 15  1  0  0  0  0
 11 10  1  0  0  0  0
 12  7  2  0  0  0  0
 13  7  1  0  0  0  0
 14  6  1  0  0  0  0
 15 19  2  0  0  0  0
 16 18  1  0  0  0  0
 17 20  1  0  0  0  0
 18 14  2  0  0  0  0
 19 14  1  0  0  0  0
 20 13  2  0  0  0  0
 21 12  1  0  0  0  0
 22 17  1  0  0  0  0
 23 11  1  0  0  0  0
 24 11  1  0  0  0  0
  5  4  1  0  0  0  0
 17 21  2  0  0  0  0
 10 16  2  0  0  0  0
M  END
> <IDNUMBER>
F3023-0942

> <Chemical_Name>
3-{[4-(dimethylamino)phenyl]amino}-1-(4-fluorophenyl)pyrrolidine-2,5-dione

> <CAS>
1009289-74-0

> <PriceCoeff>
1.00

> <MW>
327.35

> <Description>
solid

> <FSP3>
0.22

> <clogP>
3.07

> <TPSA>
52.65

> <Acceptor>
4

> <Donor>
2

> <RotBonds>
4

> <HAC>
24

> <Collection>
General

$$$$
F3385-4420
  -ISIS-  06222321152D

 24 26  0  0  0  0  0  0  0  0999 V2000
    2.8000   -0.8917    0.0000 C   0  0  0  0  0  0  0  0  0  0  0  0
    2.8042   -0.0625    0.0000 C   0  0  0  0  0  0  0  0  0  0  0  0
    2.0875   -1.3042    0.0000 C   0  0  0  0  0  0  0  0  0  0  0  0
    3.5167   -1.3042    0.0000 O   0  0  0  0  0  0  0  0  0  0  0  0
    3.5167    0.3583    0.0000 C   0  0  0  0  0  0  0  0  0  0  0  0
    4.2417   -0.8917    0.0000 C   0  0  0  0  0  0  0  0  0  0  0  0
    4.2417   -0.0625    0.0000 C   0  0  0  0  0  0  0  0  0  0  0  0
    2.0875    0.3500    0.0000 C   0  0  0  0  0  0  0  0  0  0  0  0
    1.3750   -0.8917    0.0000 C   0  0  0  0  0  0  0  0  0  0  0  0
    1.3750   -0.0625    0.0000 C   0  0  0  0  0  0  0  0  0  0  0  0
    2.0875   -2.1292    0.0000 C   0  0  0  0  0  0  0  0  0  0  0  0
    3.5167    1.1833    0.0000 O   0  0  0  0  0  0  0  0  0  0  0  0
    4.9500   -1.3125    0.0000 C   0  0  0  0  0  0  0  0  0  0  0  0
    1.3750   -2.5417    0.0000 N   0  0  3  0  0  0  0  0  0  0  0  0
    2.0792    1.1750    0.0000 O   0  0  0  0  0  0  0  0  0  0  0  0
    0.6625   -1.3000    0.0000 O   0  0  0  0  0  0  0  0  0  0  0  0
    5.6625   -0.9000    0.0000 C   0  0  0  0  0  0  0  0  0  0  0  0
    4.9417   -2.1375    0.0000 C   0  0  0  0  0  0  0  0  0  0  0  0
    0.6625   -2.1250    0.0000 C   0  0  0  0  0  0  0  0  0  0  0  0
    1.3792   -3.3667    0.0000 C   0  0  0  0  0  0  0  0  0  0  0  0
    1.3667    1.5833    0.0000 C   0  0  0  0  0  0  0  0  0  0  0  0
    6.3750   -1.3125    0.0000 C   0  0  0  0  0  0  0  0  0  0  0  0
    5.6542   -2.5500    0.0000 C   0  0  0  0  0  0  0  0  0  0  0  0
    6.3750   -2.1417    0.0000 C   0  0  0  0  0  0  0  0  0  0  0  0
  2  1  1  0  0  0  0
  3  1  2  0  0  0  0
  4  1  1  0  0  0  0
  5  2  1  0  0  0  0
  6  4  1  0  0  0  0
  7  6  2  0  0  0  0
  8  2  2  0  0  0  0
  9  3  1  0  0  0  0
 10  9  2  0  0  0  0
 11  3  1  0  0  0  0
 12  5  2  0  0  0  0
 13  6  1  0  0  0  0
 14 11  1  0  0  0  0
 15  8  1  0  0  0  0
 16  9  1  0  0  0  0
 17 13  1  0  0  0  0
 18 13  2  0  0  0  0
 19 14  1  0  0  0  0
 20 14  1  0  0  0  0
 21 15  1  0  0  0  0
 22 17  2  0  0  0  0
 23 18  1  0  0  0  0
 24 23  2  0  0  0  0
  7  5  1  0  0  0  0
 10  8  1  0  0  0  0
 24 22  1  0  0  0  0
M  END
> <IDNUMBER>
F3385-4420

> <Chemical_Name>
8-[(dimethylamino)methyl]-7-hydroxy-5-methoxy-2-phenyl-4H-chromen-4-one

> <CAS>
924807-53-4

> <PriceCoeff>
1.00

> <MW>
325.36

> <Description>
solid

> <FSP3>
0.21

> <clogP>
3.03

> <TPSA>
59.00

> <Acceptor>
4

> <Donor>
2

> <RotBonds>
4

> <HAC>
24

> <Collection>
General

> <Reference_compound>
CHEMBL134291

> <Similarity>
0.8220

$$$$
F0349-4255
  -ISIS-  06222321142D

 17 19  0  0  0  0  0  0  0  0999 V2000
   -0.0333    0.7000    0.0000 C   0  0  0  0  0  0  0  0  0  0  0  0
    1.1292    0.0458    0.0000 C   0  0  0  0  0  0  0  0  0  0  0  0
   -1.2000    0.0458    0.0000 C   0  0  0  0  0  0  0  0  0  0  0  0
    1.1292   -1.3167    0.0000 C   0  0  0  0  0  0  0  0  0  0  0  0
   -1.2000   -1.3167    0.0000 C   0  0  0  0  0  0  0  0  0  0  0  0
   -0.0333   -2.0000    0.0000 O   0  0  0  0  0  0  0  0  0  0  0  0
   -2.3333   -2.0000    0.0000 C   0  0  0  0  0  0  0  0  0  0  0  0
    2.3000   -2.0000    0.0000 C   0  0  0  0  0  0  0  0  0  0  0  0
   -2.3333    0.7000    0.0000 C   0  0  0  0  0  0  0  0  0  0  0  0
    2.3000    0.7000    0.0000 C   0  0  0  0  0  0  0  0  0  0  0  0
   -0.0333    2.0458    0.0000 O   0  0  0  0  0  0  0  0  0  0  0  0
   -3.5000   -1.3167    0.0000 C   0  0  0  0  0  0  0  0  0  0  0  0
    3.4667   -1.3167    0.0000 C   0  0  0  0  0  0  0  0  0  0  0  0
    3.4667    0.0458    0.0000 C   0  0  0  0  0  0  0  0  0  0  0  0
   -3.5000    0.0458    0.0000 C   0  0  0  0  0  0  0  0  0  0  0  0
    4.6500   -2.0292    0.0000 O   0  0  0  0  0  0  0  0  0  0  0  0
   -4.6708   -2.0292    0.0000 O   0  0  0  0  0  0  0  0  0  0  0  0
  2  1  1  0  0  0  0
  3  1  1  0  0  0  0
  4  2  2  0  0  0  0
  5  3  2  0  0  0  0
  6  5  1  0  0  0  0
  7  5  1  0  0  0  0
  8  4  1  0  0  0  0
  9  3  1  0  0  0  0
 10  2  1  0  0  0  0
 11  1  2  0  0  0  0
 12 15  1  0  0  0  0
 13 14  1  0  0  0  0
 14 10  2  0  0  0  0
 15  9  2  0  0  0  0
 16 13  1  0  0  0  0
 17 12  1  0  0  0  0
  6  4  1  0  0  0  0
  7 12  2  0  0  0  0
  8 13  2  0  0  0  0
M  END
> <IDNUMBER>
F0349-4255

> <Chemical_Name>
3,6-dihydroxy-9H-xanthen-9-one

> <CAS>
1214-24-0

> <PriceCoeff>
1.00

> <MW>
228.20

> <Description>
solid

> <FSP3>
0.00

> <clogP>
2.16

> <TPSA>
66.76

> <Acceptor>
4

> <Donor>
2

> <RotBonds>
0

> <HAC>
17

> <Collection>
General

> <Reference_compound>
CHEMBL186784

> <Similarity>
0.9110

$$$$
F0887-0184
  -ISIS-  06222321142D

 18 19  0  0  0  0  0  0  0  0999 V2000
    1.0792   -1.3042    0.0000 C   0  0  0  0  0  0  0  0  0  0  0  0
    1.0792   -0.6625    0.0000 C   0  0  0  0  0  0  0  0  0  0  0  0
    1.6417   -1.6417    0.0000 N   0  0  0  0  0  0  0  0  0  0  0  0
    0.4917   -1.6292    0.0000 N   0  0  3  0  0  0  0  0  0  0  0  0
   -0.0708   -0.6625    0.0000 N   0  0  3  0  0  0  0  0  0  0  0  0
   -0.0708   -1.3167    0.0000 C   0  0  0  0  0  0  0  0  0  0  0  0
    0.4917   -0.3375    0.0000 C   0  0  0  0  0  0  0  0  0  0  0  0
    2.2125   -1.3292    0.0000 C   0  0  0  0  0  0  0  0  0  0  0  0
    2.2250   -0.6625    0.0000 N   0  0  3  0  0  0  0  0  0  0  0  0
   -0.6458   -1.6417    0.0000 O   0  0  0  0  0  0  0  0  0  0  0  0
    0.4917    0.3333    0.0000 O   0  0  0  0  0  0  0  0  0  0  0  0
    4.1917    0.2708    0.0000 N   0  0  0  0  0  0  0  0  0  0  0  0
    2.7750   -1.6542    0.0000 Br  0  0  0  0  0  0  0  0  0  0  0  0
    3.6042   -0.3042    0.0000 C   0  0  0  0  0  0  0  0  0  0  0  0
    0.4917   -2.2875    0.0000 C   0  0  0  0  0  0  0  0  0  0  0  0
   -0.6250   -0.3417    0.0000 C   0  0  0  0  0  0  0  0  0  0  0  0
    2.8125   -0.0875    0.0000 C   0  0  0  0  0  0  0  0  0  0  0  0
    4.9792    0.0458    0.0000 O   0  0  0  0  0  0  0  0  0  0  0  0
  2  1  2  0  0  0  0
  3  1  1  0  0  0  0
  4  1  1  0  0  0  0
  5  6  1  0  0  0  0
  6  4  1  0  0  0  0
  7  2  1  0  0  0  0
  8  3  2  0  0  0  0
  9  2  1  0  0  0  0
 10  6  2  0  0  0  0
 11  7  2  0  0  0  0
 12 14  2  0  0  0  0
 13  8  1  0  0  0  0
 14 17  1  0  0  0  0
 15  4  1  0  0  0  0
 16  5  1  0  0  0  0
 17  9  1  0  0  0  0
 18 12  1  0  0  0  0
  8  9  1  0  0  0  0
  7  5  1  0  0  0  0
M  END
> <IDNUMBER>
F0887-0184

> <Chemical_Name>
8-bromo-7-[(2E)-2-(hydroxyimino)ethyl]-1,3-dimethyl-2,3,6,7-tetrahydro-1H-purine-2,6-dione

> <CAS>
333755-65-0

> <PriceCoeff>
1.00

> <MW>
316.11

> <Description>
solid

> <FSP3>
0.33

> <clogP>
0.27

> <TPSA>
91.03

> <Acceptor>
5

> <Donor>
3

> <RotBonds>
2

> <HAC>
18

> <Collection>
General

> <Reference_compound>
CHEMBL113

> <Similarity>
0.8010

$$$$
F3188-0124
  -ISIS-  06222321152D

 24 27  0  0  0  0  0  0  0  0999 V2000
    4.2042   -2.3042    0.0000 N   0  0  3  0  0  0  0  0  0  0  0  0
    4.6917   -1.6292    0.0000 C   0  0  0  0  0  0  0  0  0  0  0  0
    4.7000   -2.9667    0.0000 C   0  0  0  0  0  0  0  0  0  0  0  0
    5.4792   -2.7042    0.0000 C   0  0  3  0  0  0  0  0  0  0  0  0
    5.4792   -1.8792    0.0000 C   0  0  0  0  0  0  0  0  0  0  0  0
    3.3875   -2.3042    0.0000 C   0  0  0  0  0  0  0  0  0  0  0  0
    6.1417   -3.1875    0.0000 N   0  0  0  0  0  0  0  0  0  0  0  0
    8.3167   -2.9875    0.0000 C   0  0  0  0  0  0  0  0  0  0  0  0
    7.5667   -3.3292    0.0000 C   0  0  0  0  0  0  0  0  0  0  0  0
    4.4292   -0.8500    0.0000 O   0  0  0  0  0  0  0  0  0  0  0  0
    8.3917   -2.1667    0.0000 C   0  0  0  0  0  0  0  0  0  0  0  0
    9.0667   -3.3167    0.0000 O   0  0  0  0  0  0  0  0  0  0  0  0
    6.8917   -2.8500    0.0000 C   0  0  0  0  0  0  0  0  0  0  0  0
    4.4417   -3.7542    0.0000 O   0  0  0  0  0  0  0  0  0  0  0  0
    9.2000   -1.9917    0.0000 O   0  0  0  0  0  0  0  0  0  0  0  0
    2.9667   -1.5917    0.0000 C   0  0  0  0  0  0  0  0  0  0  0  0
    9.6167   -2.7000    0.0000 C   0  0  0  0  0  0  0  0  0  0  0  0
    7.7167   -1.6917    0.0000 C   0  0  0  0  0  0  0  0  0  0  0  0
    6.9750   -2.0292    0.0000 C   0  0  0  0  0  0  0  0  0  0  0  0
    2.1417   -1.6000    0.0000 C   0  0  0  0  0  0  0  0  0  0  0  0
    2.9792   -3.0250    0.0000 C   0  0  0  0  0  0  0  0  0  0  0  0
    2.1542   -3.0292    0.0000 C   0  0  0  0  0  0  0  0  0  0  0  0
    1.7375   -2.3167    0.0000 C   0  0  0  0  0  0  0  0  0  0  0  0
    1.7292   -0.8875    0.0000 C   0  0  0  0  0  0  0  0  0  0  0  0
  2  1  1  0  0  0  0
  3  1  1  0  0  0  0
  4  3  1  0  0  0  0
  5  2  1  0  0  0  0
  6  1  1  0  0  0  0
  7  4  1  0  0  0  0
  8  9  1  0  0  0  0
  9 13  2  0  0  0  0
 10  2  2  0  0  0  0
 11 18  1  0  0  0  0
 12  8  1  0  0  0  0
 13  7  1  0  0  0  0
 14  3  2  0  0  0  0
 15 11  1  0  0  0  0
 16  6  2  0  0  0  0
 17 12  1  0  0  0  0
 18 19  2  0  0  0  0
 19 13  1  0  0  0  0
 20 16  1  0  0  0  0
 21  6  1  0  0  0  0
 22 21  2  0  0  0  0
 23 22  1  0  0  0  0
 24 20  1  0  0  0  0
  5  4  1  0  0  0  0
 23 20  2  0  0  0  0
  8 11  2  0  0  0  0
 15 17  1  0  0  0  0
M  END
> <IDNUMBER>
F3188-0124

> <Chemical_Name>
3-[(2H-1,3-benzodioxol-5-yl)amino]-1-(3-methylphenyl)pyrrolidine-2,5-dione

> <CAS>
1008268-27-6

> <PriceCoeff>
1.00

> <MW>
324.33

> <Description>
solid

> <FSP3>
0.22

> <clogP>
3.08

> <TPSA>
67.87

> <Acceptor>
5

> <Donor>
1

> <RotBonds>
3

> <HAC>
24

> <Collection>
General

$$$$
F0030-0090
  -ISIS-  06222321442D

 27 30  0  0  0  0  0  0  0  0999 V2000
    0.8375    1.5708    0.0000 N   0  0  3  0  0  0  0  0  0  0  0  0
    0.4000    0.7958    0.0000 C   0  0  0  0  0  0  0  0  0  0  0  0
    1.7000    1.3958    0.0000 C   0  0  0  0  0  0  0  0  0  0  0  0
    1.0000    0.1500    0.0000 C   0  0  3  0  0  0  0  0  0  0  0  0
    1.7792    0.5125    0.0000 C   0  0  0  0  0  0  0  0  0  0  0  0
   -2.4833   -2.0042    0.0000 N   0  0  3  0  0  0  0  0  0  0  0  0
    0.8375   -0.7500    0.0000 N   0  0  0  0  0  0  0  0  0  0  0  0
    0.4000    2.3500    0.0000 C   0  0  0  0  0  0  0  0  0  0  0  0
   -1.6625   -1.6875    0.0000 C   0  0  0  0  0  0  0  0  0  0  0  0
   -0.5000    0.6958    0.0000 O   0  0  0  0  0  0  0  0  0  0  0  0
    2.3792    1.9708    0.0000 O   0  0  0  0  0  0  0  0  0  0  0  0
   -4.1208   -2.6042    0.0000 O   0  0  0  0  0  0  0  0  0  0  0  0
   -1.5208   -0.8292    0.0000 C   0  0  0  0  0  0  0  0  0  0  0  0
   -0.9625   -2.2500    0.0000 C   0  0  0  0  0  0  0  0  0  0  0  0
    0.0167   -1.0667    0.0000 C   0  0  0  0  0  0  0  0  0  0  0  0
   -0.4833    2.3500    0.0000 C   0  0  0  0  0  0  0  0  0  0  0  0
   -0.1208   -1.9292    0.0000 C   0  0  0  0  0  0  0  0  0  0  0  0
   -0.6833   -0.5042    0.0000 C   0  0  0  0  0  0  0  0  0  0  0  0
   -2.6208   -2.8667    0.0000 C   0  0  0  0  0  0  0  0  0  0  0  0
   -3.1625   -1.4500    0.0000 C   0  0  0  0  0  0  0  0  0  0  0  0
   -3.4458   -3.1667    0.0000 C   0  0  0  0  0  0  0  0  0  0  0  0
   -3.9833   -1.7667    0.0000 C   0  0  0  0  0  0  0  0  0  0  0  0
   -0.9208    3.1125    0.0000 C   0  0  0  0  0  0  0  0  0  0  0  0
   -0.9458    1.5708    0.0000 C   0  0  0  0  0  0  0  0  0  0  0  0
   -1.8208    3.1333    0.0000 C   0  0  0  0  0  0  0  0  0  0  0  0
   -1.8208    1.5708    0.0000 C   0  0  0  0  0  0  0  0  0  0  0  0
   -2.2625    2.3500    0.0000 C   0  0  0  0  0  0  0  0  0  0  0  0
  2  1  1  0  0  0  0
  3  1  1  0  0  0  0
  4  2  1  0  0  0  0
  5  3  1  0  0  0  0
  6  9  1  0  0  0  0
  7  4  1  0  0  0  0
  8  1  1  0  0  0  0
  9 13  1  0  0  0  0
 10  2  2  0  0  0  0
 11  3  2  0  0  0  0
 12 22  1  0  0  0  0
 13 18  2  0  0  0  0
 14 17  1  0  0  0  0
 15  7  1  0  0  0  0
 16  8  1  0  0  0  0
 17 15  2  0  0  0  0
 18 15  1  0  0  0  0
 19  6  1  0  0  0  0
 20  6  1  0  0  0  0
 21 19  1  0  0  0  0
 22 20  1  0  0  0  0
 23 16  1  0  0  0  0
 24 16  2  0  0  0  0
 25 23  2  0  0  0  0
 26 24  1  0  0  0  0
 27 26  2  0  0  0  0
  4  5  1  0  0  0  0
 25 27  1  0  0  0  0
 14  9  2  0  0  0  0
 21 12  1  0  0  0  0
M  END
> <IDNUMBER>
F0030-0090

> <Chemical_Name>
1-benzyl-3-{[4-(morpholin-4-yl)phenyl]amino}pyrrolidine-2,5-dione

> <CAS>
308101-58-8

> <PriceCoeff>
1.00

> <MW>
365.43

> <Description>
solid

> <FSP3>
0.33

> <clogP>
2.69

> <TPSA>
61.88

> <Acceptor>
5

> <Donor>
2

> <RotBonds>
5

> <HAC>
27

> <Collection>
General

$$$$
F2880-0498
  -ISIS-  06222321442D

 28 30  0  0  0  0  0  0  0  0999 V2000
   -0.0333    6.8042    0.0000 N   0  3  0  0  0  0  0  0  0  0  0  0
   -1.9833    5.6667    0.0000 C   0  0  0  0  0  0  0  0  0  0  0  0
   -2.6208    5.2917    0.0000 C   0  0  0  0  0  0  0  0  0  0  0  0
   -1.9833    6.4250    0.0000 C   0  0  0  0  0  0  0  0  0  0  0  0
   -0.6833    6.4250    0.0000 C   0  0  0  0  0  0  0  0  0  0  0  0
   -1.3333    6.8000    0.0000 C   0  0  0  0  0  0  0  0  0  0  0  0
   -5.2208    5.2917    0.0000 N   0  0  3  0  0  0  0  0  0  0  0  0
   -3.2750    5.6667    0.0000 N   0  0  0  0  0  0  0  0  0  0  0  0
   -4.5833    5.6667    0.0000 C   0  0  3  0  0  0  0  0  0  0  0  0
   -1.3333    5.2917    0.0000 C   0  0  0  0  0  0  0  0  0  0  0  0
   -3.9250    5.2917    0.0000 C   0  0  0  0  0  0  0  0  0  0  0  0
    0.6167    6.4292    0.0000 O   0  5  0  0  0  0  0  0  0  0  0  0
   -0.0333    7.5542    0.0000 O   0  0  0  0  0  0  0  0  0  0  0  0
   -4.5833    6.4250    0.0000 C   0  0  0  0  0  0  0  0  0  0  0  0
   -0.6833    5.6667    0.0000 C   0  0  0  0  0  0  0  0  0  0  0  0
   -2.6250    4.5417    0.0000 O   0  0  0  0  0  0  0  0  0  0  0  0
   -6.5167    4.5417    0.0000 O   0  0  0  0  0  0  0  0  0  0  0  0
   -5.2208    6.8000    0.0000 C   0  0  0  0  0  0  0  0  0  0  0  0
   -3.9250    6.8000    0.0000 C   0  0  0  0  0  0  0  0  0  0  0  0
   -2.6333    6.8042    0.0000 Cl  0  0  0  0  0  0  0  0  0  0  0  0
   -3.9250    7.5500    0.0000 C   0  0  0  0  0  0  0  0  0  0  0  0
   -5.2208    7.5500    0.0000 C   0  0  0  0  0  0  0  0  0  0  0  0
   -4.5833    7.9250    0.0000 C   0  0  0  0  0  0  0  0  0  0  0  0
   -5.8708    5.6667    0.0000 C   0  0  0  0  0  0  0  0  0  0  0  0
   -5.2208    4.5417    0.0000 C   0  0  0  0  0  0  0  0  0  0  0  0
   -5.8708    4.1667    0.0000 C   0  0  0  0  0  0  0  0  0  0  0  0
   -6.5167    5.2917    0.0000 C   0  0  0  0  0  0  0  0  0  0  0  0
   -4.5833    8.6750    0.0000 C   0  0  0  0  0  0  0  0  0  0  0  0
  2 10  2  0  0  0  0
  3  2  1  0  0  0  0
  4  6  2  0  0  0  0
  5  1  1  0  0  0  0
  6  5  1  0  0  0  0
  7  9  1  0  0  0  0
  8  3  1  0  0  0  0
  9 11  1  0  0  0  0
 10 15  1  0  0  0  0
 11  8  1  0  0  0  0
 12  1  1  0  0  0  0
 13  1  2  0  0  0  0
 14  9  1  0  0  0  0
 15  5  2  0  0  0  0
 16  3  2  0  0  0  0
 17 26  1  0  0  0  0
 18 14  2  0  0  0  0
 19 14  1  0  0  0  0
 20  4  1  0  0  0  0
 21 19  2  0  0  0  0
 22 18  1  0  0  0  0
 23 21  1  0  0  0  0
 24  7  1  0  0  0  0
 25  7  1  0  0  0  0
 26 25  1  0  0  0  0
 27 24  1  0  0  0  0
 28 23  1  0  0  0  0
  2  4  1  0  0  0  0
 27 17  1  0  0  0  0
 23 22  2  0  0  0  0
M  CHG  2   1   1  12  -1
M  END
> <IDNUMBER>
F2880-0498

> <Chemical_Name>
2-chloro-N-[2-(4-methylphenyl)-2-(morpholin-4-yl)ethyl]-4-nitrobenzamide

> <CAS>
899975-52-1

> <PriceCoeff>
1.00

> <MW>
403.86

> <Description>
solid

> <FSP3>
0.35

> <clogP>
3.34

> <TPSA>
84.71

> <Acceptor>
4

> <Donor>
2

> <RotBonds>
6

> <HAC>
28

> <Collection>
General

$$$$
F3385-2564
  -ISIS-  06222321442D

 26 28  0  0  0  0  0  0  0  0999 V2000
    0.2042   -0.9667    0.0000 C   0  0  0  0  0  0  0  0  0  0  0  0
   -1.2250   -0.1417    0.0000 C   0  0  0  0  0  0  0  0  0  0  0  0
   -1.2250   -0.9667    0.0000 C   0  0  0  0  0  0  0  0  0  0  0  0
   -0.5125   -1.3792    0.0000 C   0  0  0  0  0  0  0  0  0  0  0  0
   -1.9375    0.2708    0.0000 C   0  0  0  0  0  0  0  0  0  0  0  0
   -0.5125    0.2708    0.0000 O   0  0  0  0  0  0  0  0  0  0  0  0
    0.2042   -0.1417    0.0000 C   0  0  0  0  0  0  0  0  0  0  0  0
    0.9167   -1.3875    0.0000 C   0  0  0  0  0  0  0  0  0  0  0  0
   -1.9375   -1.3792    0.0000 C   0  0  0  0  0  0  0  0  0  0  0  0
    1.6292   -0.9667    0.0000 C   0  0  0  0  0  0  0  0  0  0  0  0
   -2.6583   -0.1417    0.0000 C   0  0  0  0  0  0  0  0  0  0  0  0
   -1.9375    1.0875    0.0000 C   0  0  0  0  0  0  0  0  0  0  0  0
    2.3500   -1.3792    0.0000 C   0  0  0  0  0  0  0  0  0  0  0  0
   -0.5125   -2.2042    0.0000 O   0  0  0  0  0  0  0  0  0  0  0  0
    2.3500   -2.2125    0.0000 C   0  0  0  0  0  0  0  0  0  0  0  0
    0.9167   -2.2125    0.0000 C   0  0  0  0  0  0  0  0  0  0  0  0
   -2.6583   -0.9667    0.0000 C   0  0  0  0  0  0  0  0  0  0  0  0
    1.6292   -2.6250    0.0000 C   0  0  0  0  0  0  0  0  0  0  0  0
   -2.6458    1.5083    0.0000 N   0  0  3  0  0  0  0  0  0  0  0  0
    3.0667   -0.9667    0.0000 O   0  0  0  0  0  0  0  0  0  0  0  0
   -3.3750    0.2708    0.0000 O   0  0  0  0  0  0  0  0  0  0  0  0
    3.0750   -2.6292    0.0000 O   0  0  0  0  0  0  0  0  0  0  0  0
   -2.6458    2.3333    0.0000 C   0  0  0  0  0  0  0  0  0  0  0  0
   -3.3583    1.1000    0.0000 C   0  0  0  0  0  0  0  0  0  0  0  0
    3.7792   -1.3875    0.0000 C   0  0  0  0  0  0  0  0  0  0  0  0
    3.0792   -3.4625    0.0000 C   0  0  0  0  0  0  0  0  0  0  0  0
  2  6  1  0  0  0  0
  3  4  1  0  0  0  0
  4  1  1  0  0  0  0
  5  2  2  0  0  0  0
  6  7  1  0  0  0  0
  7  1  2  0  0  0  0
  8  1  1  0  0  0  0
  9  3  2  0  0  0  0
 10  8  1  0  0  0  0
 11  5  1  0  0  0  0
 12  5  1  0  0  0  0
 13 10  2  0  0  0  0
 14  4  2  0  0  0  0
 15 18  2  0  0  0  0
 16  8  2  0  0  0  0
 17  9  1  0  0  0  0
 18 16  1  0  0  0  0
 19 12  1  0  0  0  0
 20 13  1  0  0  0  0
 21 11  1  0  0  0  0
 22 15  1  0  0  0  0
 23 19  1  0  0  0  0
 24 19  1  0  0  0  0
 25 20  1  0  0  0  0
 26 22  1  0  0  0  0
  2  3  1  0  0  0  0
 15 13  1  0  0  0  0
 11 17  2  0  0  0  0
M  END
> <IDNUMBER>
F3385-2564

> <Chemical_Name>
3-(3,4-dimethoxyphenyl)-8-[(dimethylamino)methyl]-7-hydroxy-4H-chromen-4-one

> <CAS>
858764-21-3

> <PriceCoeff>
1.00

> <MW>
355.38

> <Description>
solid

> <FSP3>
0.25

> <clogP>
2.16

> <TPSA>
68.23

> <Acceptor>
5

> <Donor>
2

> <RotBonds>
5

> <HAC>
26

> <Collection>
General

> <Reference_compound>
CHEMBL455048

> <Similarity>
0.8380

$$$$
F6442-5567
  -ISIS-  06222321462D

 27 29  0  0  0  0  0  0  0  0999 V2000
   -3.1333    7.5000    0.0000 N   0  0  3  0  0  0  0  0  0  0  0  0
   -3.8500    1.3458    0.0000 C   0  0  0  0  0  0  0  0  0  0  0  0
   -3.8708    3.8000    0.0000 C   0  0  0  0  0  0  0  0  0  0  0  0
   -3.8500    0.5125    0.0000 C   0  0  0  0  0  0  0  0  0  0  0  0
   -3.1458    6.6750    0.0000 C   0  0  0  0  0  0  0  0  0  0  0  0
   -4.5708    1.7625    0.0000 C   0  0  0  0  0  0  0  0  0  0  0  0
   -3.1583    4.2042    0.0000 N   0  0  0  0  0  0  0  0  0  0  0  0
   -3.8458    7.9167    0.0000 C   0  0  0  0  0  0  0  0  0  0  0  0
   -2.4208    7.9042    0.0000 C   0  0  0  0  0  0  0  0  0  0  0  0
   -4.5833    2.5708    0.0000 O   0  0  0  0  0  0  0  0  0  0  0  0
   -4.5833    4.2042    0.0000 O   0  0  0  0  0  0  0  0  0  0  0  0
   -2.4083    8.7250    0.0000 C   0  0  0  0  0  0  0  0  0  0  0  0
   -3.8333    8.7417    0.0000 C   0  0  0  0  0  0  0  0  0  0  0  0
   -2.4333    6.2542    0.0000 C   0  0  0  0  0  0  0  0  0  0  0  0
   -3.8583    6.2750    0.0000 C   0  0  0  0  0  0  0  0  0  0  0  0
   -5.2708    1.3333    0.0000 C   0  0  0  0  0  0  0  0  0  0  0  0
   -4.5833    0.1083    0.0000 C   0  0  0  0  0  0  0  0  0  0  0  0
   -3.8708    2.9875    0.0000 C   0  0  0  0  0  0  0  0  0  0  0  0
   -3.1583    5.0292    0.0000 C   0  0  0  0  0  0  0  0  0  0  0  0
   -3.1375    1.7583    0.0000 Cl  0  0  0  0  0  0  0  0  0  0  0  0
   -3.1208    9.1417    0.0000 C   0  0  3  0  0  0  0  0  0  0  0  0
   -5.2708    0.5125    0.0000 C   0  0  0  0  0  0  0  0  0  0  0  0
   -2.4458    5.4417    0.0000 C   0  0  0  0  0  0  0  0  0  0  0  0
   -3.8625    5.4542    0.0000 C   0  0  0  0  0  0  0  0  0  0  0  0
   -4.5583   -0.7292    0.0000 Cl  0  0  0  0  0  0  0  0  0  0  0  0
   -3.1208    9.9667    0.0000 O   0  0  0  0  0  0  0  0  0  0  0  0
   -2.3958   10.3792    0.0000 C   0  0  0  0  0  0  0  0  0  0  0  0
  2  6  1  0  0  0  0
  3  7  1  0  0  0  0
  4  2  2  0  0  0  0
  5  1  1  0  0  0  0
  6 10  1  0  0  0  0
  7 19  1  0  0  0  0
  8  1  1  0  0  0  0
  9  1  1  0  0  0  0
 10 18  1  0  0  0  0
 11  3  2  0  0  0  0
 12  9  1  0  0  0  0
 13  8  1  0  0  0  0
 14  5  1  0  0  0  0
 15  5  2  0  0  0  0
 16  6  2  0  0  0  0
 17 22  2  0  0  0  0
 18  3  1  0  0  0  0
 19 24  2  0  0  0  0
 20  2  1  0  0  0  0
 21 12  1  0  0  0  0
 22 16  1  0  0  0  0
 23 14  2  0  0  0  0
 24 15  1  0  0  0  0
 25 17  1  0  0  0  0
 26 21  1  0  0  0  0
 27 26  1  0  0  0  0
 13 21  1  0  0  0  0
 19 23  1  0  0  0  0
 17  4  1  0  0  0  0
M  END
> <IDNUMBER>
F6442-5567

> <Chemical_Name>
2-(2,4-dichlorophenoxy)-N-[4-(4-methoxypiperidin-1-yl)phenyl]acetamide

> <CAS>
1798037-48-5

> <PriceCoeff>
1.00

> <MW>
409.31

> <Description>
solid

> <FSP3>
0.35

> <clogP>
3.53

> <TPSA>
50.80

> <Acceptor>
4

> <Donor>
2

> <RotBonds>
6

> <HAC>
27

> <Collection>
General

> <Reference_compound>
CHEMBL1459580

> <Similarity>
0.8090

$$$$
F0440-0371
  -ISIS-  06222321142D

 24 26  0  0  0  0  0  0  0  0999 V2000
    1.7792   -0.0667    0.0000 N   0  0  3  0  0  0  0  0  0  0  0  0
    2.3542   -0.1167    0.0000 C   0  0  0  0  0  0  0  0  0  0  0  0
    1.6500    0.4625    0.0000 C   0  0  0  0  0  0  0  0  0  0  0  0
    1.5542   -1.0292    0.0000 C   0  0  0  0  0  0  0  0  0  0  0  0
    1.1792   -1.4542    0.0000 N   0  0  0  0  0  0  0  0  0  0  0  0
    1.3792   -0.4792    0.0000 C   0  0  0  0  0  0  0  0  0  0  0  0
    0.5792   -1.3500    0.0000 C   0  0  0  0  0  0  0  0  0  0  0  0
    0.2000   -1.7792    0.0000 C   0  0  0  0  0  0  0  0  0  0  0  0
    0.1000   -2.3167    0.0000 O   0  0  0  0  0  0  0  0  0  0  0  0
    2.5500    0.4000    0.0000 C   0  0  0  0  0  0  0  0  0  0  0  0
    2.1042    0.7708    0.0000 C   0  0  0  0  0  0  0  0  0  0  0  0
    2.6667   -0.6500    0.0000 O   0  0  0  0  0  0  0  0  0  0  0  0
    1.0792    0.6625    0.0000 O   0  0  0  0  0  0  0  0  0  0  0  0
    2.2792   -1.2542    0.0000 O   0  0  0  0  0  0  0  0  0  0  0  0
   -0.4625   -2.5000    0.0000 C   0  0  0  0  0  0  0  0  0  0  0  0
    0.4000   -0.7792    0.0000 C   0  0  0  0  0  0  0  0  0  0  0  0
   -0.3500   -1.6542    0.0000 C   0  0  0  0  0  0  0  0  0  0  0  0
   -0.9000   -2.1500    0.0000 C   0  0  0  0  0  0  0  0  0  0  0  0
   -0.6125   -3.0792    0.0000 C   0  0  0  0  0  0  0  0  0  0  0  0
   -0.1500   -0.6542    0.0000 C   0  0  0  0  0  0  0  0  0  0  0  0
   -0.5500   -1.0792    0.0000 C   0  0  0  0  0  0  0  0  0  0  0  0
   -1.1625   -3.2542    0.0000 C   0  0  0  0  0  0  0  0  0  0  0  0
   -1.4500   -2.2667    0.0000 C   0  0  0  0  0  0  0  0  0  0  0  0
   -1.6000   -2.8500    0.0000 C   0  0  0  0  0  0  0  0  0  0  0  0
  2  1  1  0  0  0  0
  3  1  1  0  0  0  0
  4  6  1  0  0  0  0
  5  4  1  0  0  0  0
  6  1  1  0  0  0  0
  7  5  1  0  0  0  0
  8  7  1  0  0  0  0
  9  8  1  0  0  0  0
 10  2  1  0  0  0  0
 11  3  1  0  0  0  0
 12  2  2  0  0  0  0
 13  3  2  0  0  0  0
 14  4  2  0  0  0  0
 15  9  1  0  0  0  0
 16  7  2  0  0  0  0
 17  8  2  0  0  0  0
 18 15  1  0  0  0  0
 19 15  2  0  0  0  0
 20 16  1  0  0  0  0
 21 20  2  0  0  0  0
 22 19  1  0  0  0  0
 23 18  2  0  0  0  0
 24 22  2  0  0  0  0
 11 10  1  0  0  0  0
 21 17  1  0  0  0  0
 24 23  1  0  0  0  0
M  END
> <IDNUMBER>
F0440-0371

> <Chemical_Name>
2-(2,5-dioxopyrrolidin-1-yl)-N-(2-phenoxyphenyl)acetamide

> <CAS>
392324-98-0

> <PriceCoeff>
1.00

> <MW>
324.33

> <Description>
solid

> <FSP3>
0.17

> <clogP>
2.12

> <TPSA>
75.71

> <Acceptor>
4

> <Donor>
1

> <RotBonds>
5

> <HAC>
24

> <Collection>
General

$$$$
F3023-0619
  -ISIS-  06222321152D

 25 27  0  0  0  0  0  0  0  0999 V2000
    5.1125   -5.9667    0.0000 N   0  0  3  0  0  0  0  0  0  0  0  0
    5.5917   -5.2917    0.0000 C   0  0  0  0  0  0  0  0  0  0  0  0
    5.6042   -6.6292    0.0000 C   0  0  0  0  0  0  0  0  0  0  0  0
    6.3875   -6.3667    0.0000 C   0  0  3  0  0  0  0  0  0  0  0  0
    4.2875   -5.9667    0.0000 C   0  0  0  0  0  0  0  0  0  0  0  0
    6.3792   -5.5417    0.0000 C   0  0  0  0  0  0  0  0  0  0  0  0
    7.8042   -6.5167    0.0000 C   0  0  0  0  0  0  0  0  0  0  0  0
    8.4750   -7.0000    0.0000 C   0  0  0  0  0  0  0  0  0  0  0  0
    7.0542   -6.8542    0.0000 S   0  0  0  0  0  0  0  0  0  0  0  0
    3.8750   -5.2542    0.0000 C   0  0  0  0  0  0  0  0  0  0  0  0
    8.3917   -7.8167    0.0000 C   0  0  0  0  0  0  0  0  0  0  0  0
    3.0500   -5.2625    0.0000 C   0  0  0  0  0  0  0  0  0  0  0  0
    7.8875   -5.7000    0.0000 N   0  0  0  0  0  0  0  0  0  0  0  0
    5.3375   -4.5042    0.0000 O   0  0  0  0  0  0  0  0  0  0  0  0
    5.3500   -7.4167    0.0000 O   0  0  0  0  0  0  0  0  0  0  0  0
    3.8792   -6.6875    0.0000 C   0  0  0  0  0  0  0  0  0  0  0  0
    2.6417   -5.9792    0.0000 C   0  0  0  0  0  0  0  0  0  0  0  0
    9.0542   -8.3042    0.0000 O   0  0  0  0  0  0  0  0  0  0  0  0
    3.0625   -6.6917    0.0000 C   0  0  0  0  0  0  0  0  0  0  0  0
    2.6292   -4.5500    0.0000 Cl  0  0  0  0  0  0  0  0  0  0  0  0
    7.6375   -8.1542    0.0000 O   0  0  0  0  0  0  0  0  0  0  0  0
    1.8167   -5.9792    0.0000 F   0  0  0  0  0  0  0  0  0  0  0  0
    9.2250   -6.6625    0.0000 C   0  0  0  0  0  0  0  0  0  0  0  0
    8.6292   -5.3542    0.0000 C   0  0  0  0  0  0  0  0  0  0  0  0
    9.3042   -5.8375    0.0000 C   0  0  0  0  0  0  0  0  0  0  0  0
  2  1  1  0  0  0  0
  3  1  1  0  0  0  0
  4  3  1  0  0  0  0
  5  1  1  0  0  0  0
  6  2  1  0  0  0  0
  7  9  1  0  0  0  0
  8  7  2  0  0  0  0
  9  4  1  0  0  0  0
 10  5  2  0  0  0  0
 11  8  1  0  0  0  0
 12 10  1  0  0  0  0
 13  7  1  0  0  0  0
 14  2  2  0  0  0  0
 15  3  2  0  0  0  0
 16  5  1  0  0  0  0
 17 19  1  0  0  0  0
 18 11  2  0  0  0  0
 19 16  2  0  0  0  0
 20 12  1  0  0  0  0
 21 11  1  0  0  0  0
 22 17  1  0  0  0  0
 23  8  1  0  0  0  0
 24 13  2  0  0  0  0
 25 24  1  0  0  0  0
  6  4  1  0  0  0  0
 17 12  2  0  0  0  0
 25 23  2  0  0  0  0
M  END
> <IDNUMBER>
F3023-0619

> <Chemical_Name>
2-{[1-(3-chloro-4-fluorophenyl)-2,5-dioxopyrrolidin-3-yl]sulfanyl}pyridine-3-carboxylic acid

> <CAS>
857494-03-2

> <PriceCoeff>
1.00

> <MW>
380.78

> <Description>
solid

> <FSP3>
0.12

> <clogP>
2.74

> <TPSA>
112.87

> <Acceptor>
5

> <Donor>
1

> <RotBonds>
4

> <HAC>
25

> <Collection>
General

$$$$
F3228-0134
  -ISIS-  06222321152D

 21 23  0  0  0  0  0  0  0  0999 V2000
    1.7542    0.9125    0.0000 C   0  0  0  0  0  0  0  0  0  0  0  0
    0.6250    0.9208    0.0000 C   0  0  0  0  0  0  0  0  0  0  0  0
    1.1875    0.5958    0.0000 C   0  0  0  0  0  0  0  0  0  0  0  0
    0.6250    1.5708    0.0000 C   0  0  0  0  0  0  0  0  0  0  0  0
    1.1875    1.8958    0.0000 O   0  0  0  0  0  0  0  0  0  0  0  0
    1.7542    1.5708    0.0000 C   0  0  0  0  0  0  0  0  0  0  0  0
    0.0625    1.8958    0.0000 C   0  0  0  0  0  0  0  0  0  0  0  0
    0.0625    0.5958    0.0000 C   0  0  0  0  0  0  0  0  0  0  0  0
    2.3042    0.5958    0.0000 C   0  0  0  0  0  0  0  0  0  0  0  0
   -0.4958    1.5625    0.0000 C   0  0  0  0  0  0  0  0  0  0  0  0
    1.1792   -0.0542    0.0000 O   0  0  0  0  0  0  0  0  0  0  0  0
   -0.4958    0.9208    0.0000 C   0  0  0  0  0  0  0  0  0  0  0  0
    2.3042   -0.0542    0.0000 C   0  0  0  0  0  0  0  0  0  0  0  0
    2.8667    0.9125    0.0000 C   0  0  0  0  0  0  0  0  0  0  0  0
    3.4250   -0.0542    0.0000 C   0  0  0  0  0  0  0  0  0  0  0  0
    3.4250    0.5958    0.0000 C   0  0  0  0  0  0  0  0  0  0  0  0
    2.8667   -0.3792    0.0000 C   0  0  0  0  0  0  0  0  0  0  0  0
   -1.0583    1.8958    0.0000 O   0  0  0  0  0  0  0  0  0  0  0  0
    0.0542    2.5333    0.0000 C   0  0  0  0  0  0  0  0  0  0  0  0
    3.9792   -0.3792    0.0000 O   0  0  0  0  0  0  0  0  0  0  0  0
    4.5417   -0.0542    0.0000 C   0  0  0  0  0  0  0  0  0  0  0  0
  2  3  1  0  0  0  0
  3  1  1  0  0  0  0
  4  5  1  0  0  0  0
  5  6  1  0  0  0  0
  6  1  2  0  0  0  0
  7  4  2  0  0  0  0
  8  2  2  0  0  0  0
  9  1  1  0  0  0  0
 10  7  1  0  0  0  0
 11  3  2  0  0  0  0
 12  8  1  0  0  0  0
 13  9  2  0  0  0  0
 14  9  1  0  0  0  0
 15 16  1  0  0  0  0
 16 14  2  0  0  0  0
 17 13  1  0  0  0  0
 18 10  1  0  0  0  0
 19  7  1  0  0  0  0
 20 15  1  0  0  0  0
 21 20  1  0  0  0  0
 15 17  2  0  0  0  0
  2  4  1  0  0  0  0
 12 10  2  0  0  0  0
M  END
> <IDNUMBER>
F3228-0134

> <Chemical_Name>
7-hydroxy-3-(4-methoxyphenyl)-8-methyl-4H-chromen-4-one

> <CAS>
116718-51-5

> <PriceCoeff>
1.00

> <MW>
282.29

> <Description>
solid

> <FSP3>
0.12

> <clogP>
3.09

> <TPSA>
55.76

> <Acceptor>
4

> <Donor>
1

> <RotBonds>
2

> <HAC>
21

> <Collection>
General

> <Reference_compound>
CHEMBL44

> <Similarity>
0.9420

$$$$
F5834-4901
  -ISIS-  06222321152D

 30 32  0  0  0  0  0  0  0  0999 V2000
   -4.5833    3.8000    0.0000 S   0  0  3  0  0  0  0  0  0  0  0  0
   -6.7167    3.3583    0.0000 N   0  0  3  0  0  0  0  0  0  0  0  0
   -7.4417    3.7583    0.0000 C   0  0  0  0  0  0  0  0  0  0  0  0
   -6.7042    2.5208    0.0000 C   0  0  0  0  0  0  0  0  0  0  0  0
   -5.2875    3.3833    0.0000 C   0  0  0  0  0  0  0  0  0  0  0  0
   -6.0042    3.7833    0.0000 C   0  0  0  0  0  0  0  0  0  0  0  0
   -3.8625    4.2125    0.0000 N   0  0  0  0  0  0  0  0  0  0  0  0
   -1.7375   10.4542    0.0000 S   0  0  0  0  0  0  0  0  0  0  0  0
   -2.4125    9.9750    0.0000 C   0  0  0  0  0  0  0  0  0  0  0  0
   -3.1458    7.9167    0.0000 C   0  0  0  0  0  0  0  0  0  0  0  0
   -4.1583    3.1083    0.0000 O   0  0  0  0  0  0  0  0  0  0  0  0
   -5.0083    4.5042    0.0000 O   0  0  0  0  0  0  0  0  0  0  0  0
   -3.1375    8.7417    0.0000 N   0  0  0  0  0  0  0  0  0  0  0  0
   -5.9833    2.1208    0.0000 O   0  0  0  0  0  0  0  0  0  0  0  0
   -7.4667    4.5792    0.0000 O   0  0  0  0  0  0  0  0  0  0  0  0
   -1.9875   11.2417    0.0000 C   0  0  0  0  0  0  0  0  0  0  0  0
   -3.0750   10.4667    0.0000 C   0  0  0  0  0  0  0  0  0  0  0  0
   -2.8125   11.2542    0.0000 C   0  0  0  0  0  0  0  0  0  0  0  0
   -2.4333    7.5042    0.0000 O   0  0  0  0  0  0  0  0  0  0  0  0
   -2.4208    9.1542    0.0000 C   0  0  0  0  0  0  0  0  0  0  0  0
   -3.8625    5.0292    0.0000 C   0  0  0  0  0  0  0  0  0  0  0  0
   -3.8583    7.5125    0.0000 C   0  0  0  0  0  0  0  0  0  0  0  0
   -3.8625    6.6792    0.0000 C   0  0  0  0  0  0  0  0  0  0  0  0
   -4.5833    5.4500    0.0000 C   0  0  0  0  0  0  0  0  0  0  0  0
   -3.1500    5.4417    0.0000 C   0  0  0  0  0  0  0  0  0  0  0  0
   -4.5833    6.2792    0.0000 C   0  0  0  0  0  0  0  0  0  0  0  0
   -3.1500    6.2667    0.0000 C   0  0  0  0  0  0  0  0  0  0  0  0
   -7.4042    2.0958    0.0000 C   0  0  0  0  0  0  0  0  0  0  0  0
   -8.1542    3.3208    0.0000 C   0  0  0  0  0  0  0  0  0  0  0  0
   -8.1292    2.4875    0.0000 C   0  0  0  0  0  0  0  0  0  0  0  0
  2  6  1  0  0  0  0
  3  2  1  0  0  0  0
  4  2  1  0  0  0  0
  5  1  1  0  0  0  0
  6  5  1  0  0  0  0
  7  1  1  0  0  0  0
  8  9  1  0  0  0  0
  9 20  1  0  0  0  0
 10 22  1  0  0  0  0
 11  1  2  0  0  0  0
 12  1  2  0  0  0  0
 13 10  1  0  0  0  0
 14  4  2  0  0  0  0
 15  3  2  0  0  0  0
 16  8  1  0  0  0  0
 17  9  2  0  0  0  0
 18 17  1  0  0  0  0
 19 10  2  0  0  0  0
 20 13  1  0  0  0  0
 21  7  1  0  0  0  0
 22 23  1  0  0  0  0
 23 27  2  0  0  0  0
 24 21  1  0  0  0  0
 25 21  2  0  0  0  0
 26 24  2  0  0  0  0
 27 25  1  0  0  0  0
 28  4  1  0  0  0  0
 29  3  1  0  0  0  0
 30 28  1  0  0  0  0
 23 26  1  0  0  0  0
 30 29  1  0  0  0  0
 16 18  2  0  0  0  0
M  END
> <IDNUMBER>
F5834-4901

> <Chemical_Name>
2-{4-[2-(2,6-dioxopiperidin-1-yl)ethanesulfonamido]phenyl}-N-[(thiophen-2-yl)methyl]acetamide

> <CAS>
1207022-45-4

> <PriceCoeff>
1.00

> <MW>
449.54

> <Description>
solid

> <FSP3>
0.35

> <clogP>
1.40

> <TPSA>
149.27

> <Acceptor>
6

> <Donor>
2

> <RotBonds>
9

> <HAC>
30

> <Collection>
General

$$$$
F3228-0133
  -ISIS-  06222321442D

 21 23  0  0  0  0  0  0  0  0999 V2000
    4.6167   -2.6667    0.0000 C   0  0  0  0  0  0  0  0  0  0  0  0
    5.7667   -2.0167    0.0000 C   0  0  0  0  0  0  0  0  0  0  0  0
    3.4667   -2.0167    0.0000 C   0  0  0  0  0  0  0  0  0  0  0  0
    3.4667   -0.6792    0.0000 C   0  0  0  0  0  0  0  0  0  0  0  0
    5.7667   -0.6792    0.0000 C   0  0  0  0  0  0  0  0  0  0  0  0
    4.6167   -0.0167    0.0000 O   0  0  0  0  0  0  0  0  0  0  0  0
    2.3125   -2.6667    0.0000 C   0  0  0  0  0  0  0  0  0  0  0  0
    2.3125   -0.0167    0.0000 C   0  0  0  0  0  0  0  0  0  0  0  0
    6.9250   -2.6667    0.0000 C   0  0  0  0  0  0  0  0  0  0  0  0
    4.6167   -4.0042    0.0000 O   0  0  0  0  0  0  0  0  0  0  0  0
    1.1625   -2.0167    0.0000 C   0  0  0  0  0  0  0  0  0  0  0  0
    1.1625   -0.6875    0.0000 C   0  0  0  0  0  0  0  0  0  0  0  0
    6.9250   -4.0042    0.0000 C   0  0  0  0  0  0  0  0  0  0  0  0
    8.0667   -2.0167    0.0000 C   0  0  0  0  0  0  0  0  0  0  0  0
    9.2167   -4.0042    0.0000 C   0  0  0  0  0  0  0  0  0  0  0  0
    9.2167   -2.6667    0.0000 C   0  0  0  0  0  0  0  0  0  0  0  0
    8.0667   -4.6667    0.0000 C   0  0  0  0  0  0  0  0  0  0  0  0
    0.0000   -0.0000    0.0000 O   0  0  0  0  0  0  0  0  0  0  0  0
    2.3167   -4.0042    0.0000 C   0  0  0  0  0  0  0  0  0  0  0  0
   10.3542   -4.6667    0.0000 O   0  0  0  0  0  0  0  0  0  0  0  0
   11.5167   -3.9917    0.0000 C   0  0  0  0  0  0  0  0  0  0  0  0
  2  1  1  0  0  0  0
  3  1  1  0  0  0  0
  4  3  1  0  0  0  0
  5  2  2  0  0  0  0
  6  4  1  0  0  0  0
  7  3  2  0  0  0  0
  8  4  2  0  0  0  0
  9  2  1  0  0  0  0
 10  1  2  0  0  0  0
 11  7  1  0  0  0  0
 12 11  2  0  0  0  0
 13  9  2  0  0  0  0
 14  9  1  0  0  0  0
 15 16  1  0  0  0  0
 16 14  2  0  0  0  0
 17 13  1  0  0  0  0
 18 12  1  0  0  0  0
 19  7  1  0  0  0  0
 20 15  1  0  0  0  0
 21 20  1  0  0  0  0
  5  6  1  0  0  0  0
  8 12  1  0  0  0  0
 15 17  2  0  0  0  0
M  END
> <IDNUMBER>
F3228-0133

> <Chemical_Name>
7-hydroxy-3-(4-methoxyphenyl)-5-methyl-4H-chromen-4-one

> <CAS>
128672-43-5

> <PriceCoeff>
1.00

> <MW>
282.29

> <Description>
solid

> <FSP3>
0.12

> <clogP>
3.14

> <TPSA>
55.76

> <Acceptor>
4

> <Donor>
1

> <RotBonds>
2

> <HAC>
21

> <Collection>
General

> <Reference_compound>
CHEMBL44

> <Similarity>
0.8800

$$$$
F0196-0125
  -ISIS-  06222321142D

 22 25  0  0  0  0  0  0  0  0999 V2000
    0.8042   -0.2500    0.0000 C   0  0  0  0  0  0  0  0  0  0  0  0
   -0.0125   -0.7292    0.0000 C   0  0  0  0  0  0  0  0  0  0  0  0
   -0.8333   -0.2500    0.0000 C   0  0  0  0  0  0  0  0  0  0  0  0
    0.8042    0.6958    0.0000 C   0  0  0  0  0  0  0  0  0  0  0  0
   -0.8333    0.6958    0.0000 C   0  0  0  0  0  0  0  0  0  0  0  0
    1.6292   -0.7292    0.0000 C   0  0  0  0  0  0  0  0  0  0  0  0
   -0.0125    1.1708    0.0000 O   0  0  0  0  0  0  0  0  0  0  0  0
    3.2667   -0.7292    0.0000 C   0  0  0  0  0  0  0  0  0  0  0  0
    2.4417   -0.2500    0.0000 C   0  0  0  0  0  0  0  0  0  0  0  0
   -1.6500   -0.7292    0.0000 C   0  0  0  0  0  0  0  0  0  0  0  0
   -1.6500    1.1708    0.0000 C   0  0  0  0  0  0  0  0  0  0  0  0
    3.2667   -1.6875    0.0000 C   0  0  0  0  0  0  0  0  0  0  0  0
   -0.0125   -1.6875    0.0000 O   0  0  0  0  0  0  0  0  0  0  0  0
    4.0875   -0.2500    0.0000 O   0  0  0  0  0  0  0  0  0  0  0  0
    1.6292   -1.6875    0.0000 C   0  0  0  0  0  0  0  0  0  0  0  0
    4.0875   -2.1500    0.0000 O   0  0  0  0  0  0  0  0  0  0  0  0
    2.4417   -2.1500    0.0000 C   0  0  0  0  0  0  0  0  0  0  0  0
   -2.4708    0.6958    0.0000 C   0  0  0  0  0  0  0  0  0  0  0  0
   -2.4708   -0.2500    0.0000 C   0  0  0  0  0  0  0  0  0  0  0  0
   -3.2958    1.1708    0.0000 O   0  0  0  0  0  0  0  0  0  0  0  0
    4.9042   -0.7292    0.0000 C   0  0  0  0  0  0  0  0  0  0  0  0
    4.9042   -1.6875    0.0000 C   0  0  0  0  0  0  0  0  0  0  0  0
  2  1  1  0  0  0  0
  3  2  1  0  0  0  0
  4  1  2  0  0  0  0
  5  7  1  0  0  0  0
  6  1  1  0  0  0  0
  7  4  1  0  0  0  0
  8  9  2  0  0  0  0
  9  6  1  0  0  0  0
 10  3  1  0  0  0  0
 11  5  1  0  0  0  0
 12 17  2  0  0  0  0
 13  2  2  0  0  0  0
 14  8  1  0  0  0  0
 15  6  2  0  0  0  0
 16 12  1  0  0  0  0
 17 15  1  0  0  0  0
 18 11  2  0  0  0  0
 19 10  2  0  0  0  0
 20 18  1  0  0  0  0
 21 14  1  0  0  0  0
 22 16  1  0  0  0  0
  5  3  2  0  0  0  0
  8 12  1  0  0  0  0
 18 19  1  0  0  0  0
 21 22  1  0  0  0  0
M  END
> <IDNUMBER>
F0196-0125

> <Chemical_Name>
3-(2,3-dihydro-1,4-benzodioxin-6-yl)-7-hydroxy-4H-chromen-4-one

> <CAS>
96754-91-5

> <PriceCoeff>
1.00

> <MW>
296.27

> <Description>
solid

> <FSP3>
0.12

> <clogP>
2.64

> <TPSA>
64.99

> <Acceptor>
5

> <Donor>
1

> <RotBonds>
1

> <HAC>
22

> <Collection>
General

> <Reference_compound>
CHEMBL44

> <Similarity>
0.8370

$$$$
F3385-1000
  -ISIS-  06222321152D

 25 28  0  0  0  0  0  0  0  0999 V2000
    5.2250    0.5833    0.0000 C   0  0  0  0  0  0  0  0  0  0  0  0
    4.5125    0.1708    0.0000 C   0  0  0  0  0  0  0  0  0  0  0  0
    3.8042    0.5833    0.0000 C   0  0  0  0  0  0  0  0  0  0  0  0
    5.2250    1.4083    0.0000 C   0  0  0  0  0  0  0  0  0  0  0  0
    3.8000    1.4000    0.0000 C   0  0  0  0  0  0  0  0  0  0  0  0
    5.9375    0.1750    0.0000 C   0  0  0  0  0  0  0  0  0  0  0  0
    4.5042    1.8208    0.0000 O   0  0  0  0  0  0  0  0  0  0  0  0
   -0.4833    2.2250    0.0000 N   0  0  0  0  0  0  0  0  0  0  0  0
    7.3625    0.1750    0.0000 C   0  0  0  0  0  0  0  0  0  0  0  0
    6.6500    0.5833    0.0000 C   0  0  0  0  0  0  0  0  0  0  0  0
    3.0875    0.1625    0.0000 C   0  0  0  0  0  0  0  0  0  0  0  0
    3.0875    1.8208    0.0000 C   0  0  0  0  0  0  0  0  0  0  0  0
    0.2292    1.8125    0.0000 C   0  0  0  0  0  0  0  0  0  0  0  0
    7.3625   -0.6542    0.0000 C   0  0  0  0  0  0  0  0  0  0  0  0
    4.5125   -0.6542    0.0000 O   0  0  0  0  0  0  0  0  0  0  0  0
    8.0792    0.5958    0.0000 O   0  0  0  0  0  0  0  0  0  0  0  0
    5.9375   -0.6542    0.0000 C   0  0  0  0  0  0  0  0  0  0  0  0
    8.0792   -1.0667    0.0000 O   0  0  0  0  0  0  0  0  0  0  0  0
    6.6500   -1.0667    0.0000 C   0  0  0  0  0  0  0  0  0  0  0  0
    2.3750    1.4000    0.0000 C   0  0  0  0  0  0  0  0  0  0  0  0
    2.3750    0.5750    0.0000 C   0  0  0  0  0  0  0  0  0  0  0  0
    1.6625    1.8125    0.0000 O   0  0  0  0  0  0  0  0  0  0  0  0
    0.9417    1.4000    0.0000 C   0  0  0  0  0  0  0  0  0  0  0  0
    8.8042    0.1833    0.0000 C   0  0  0  0  0  0  0  0  0  0  0  0
    8.8042   -0.6542    0.0000 C   0  0  0  0  0  0  0  0  0  0  0  0
  2  1  1  0  0  0  0
  3  2  1  0  0  0  0
  4  1  2  0  0  0  0
  5  7  1  0  0  0  0
  6  1  1  0  0  0  0
  7  4  1  0  0  0  0
  8 13  3  0  0  0  0
  9 10  2  0  0  0  0
 10  6  1  0  0  0  0
 11  3  2  0  0  0  0
 12  5  2  0  0  0  0
 13 23  1  0  0  0  0
 14 19  2  0  0  0  0
 15  2  2  0  0  0  0
 16  9  1  0  0  0  0
 17  6  2  0  0  0  0
 18 14  1  0  0  0  0
 19 17  1  0  0  0  0
 20 12  1  0  0  0  0
 21 11  1  0  0  0  0
 22 20  1  0  0  0  0
 23 22  1  0  0  0  0
 24 16  1  0  0  0  0
 25 18  1  0  0  0  0
  3  5  1  0  0  0  0
 14  9  1  0  0  0  0
 21 20  2  0  0  0  0
 25 24  1  0  0  0  0
M  END
> <IDNUMBER>
F3385-1000

> <Chemical_Name>
2-{[3-(2,3-dihydro-1,4-benzodioxin-6-yl)-4-oxo-4H-chromen-7-yl]oxy}acetonitrile

> <CAS>
843668-88-2

> <PriceCoeff>
1.00

> <MW>
335.31

> <Description>
solid

> <FSP3>
0.16

> <clogP>
2.00

> <TPSA>
77.78

> <Acceptor>
6

> <Donor>
0

> <RotBonds>
3

> <HAC>
25

> <Collection>
General

> <Reference_compound>
CHEMBL455048

> <Similarity>
0.8660

$$$$
F0373-0001
  -ISIS-  06222321442D

 13 14  0  0  0  0  0  0  0  0999 V2000
    0.0542   -0.6500    0.0000 C   0  0  0  0  0  0  0  0  0  0  0  0
    0.0542    0.9125    0.0000 C   0  0  0  0  0  0  0  0  0  0  0  0
   -1.2958   -1.4500    0.0000 N   0  0  3  0  0  0  0  0  0  0  0  0
    1.5500   -1.1500    0.0000 N   0  0  0  0  0  0  0  0  0  0  0  0
   -2.6625   -0.6500    0.0000 C   0  0  0  0  0  0  0  0  0  0  0  0
   -2.6625    0.9125    0.0000 N   0  0  0  0  0  0  0  0  0  0  0  0
   -1.2958    1.7000    0.0000 C   0  0  0  0  0  0  0  0  0  0  0  0
    2.4417    0.1333    0.0000 C   0  0  0  0  0  0  0  0  0  0  0  0
    1.5500    1.4000    0.0000 N   0  0  0  0  0  0  0  0  0  0  0  0
   -4.0500   -1.4500    0.0000 O   0  0  0  0  0  0  0  0  0  0  0  0
   -1.2958    3.2708    0.0000 O   0  0  0  0  0  0  0  0  0  0  0  0
    4.0167    0.1333    0.0000 Br  0  0  0  0  0  0  0  0  0  0  0  0
   -1.2958   -3.0042    0.0000 C   0  0  0  0  0  0  0  0  0  0  0  0
  2  1  2  0  0  0  0
  3  1  1  0  0  0  0
  4  1  1  0  0  0  0
  5  3  1  0  0  0  0
  6  5  1  0  0  0  0
  7  2  1  0  0  0  0
  8  4  2  0  0  0  0
  9  2  1  0  0  0  0
 10  5  2  0  0  0  0
 11  7  2  0  0  0  0
 12  8  1  0  0  0  0
 13  3  1  0  0  0  0
  8  9  1  0  0  0  0
  7  6  1  0  0  0  0
M  END
> <IDNUMBER>
F0373-0001

> <Chemical_Name>
8-bromo-3-methyl-2,3,6,7-tetrahydro-1H-purine-2,6-dione

> <CAS>
93703-24-3

> <PriceCoeff>
1.00

> <MW>
245.03

> <Description>
solid

> <FSP3>
0.17

> <clogP>
0.30

> <TPSA>
78.09

> <Acceptor>
4

> <Donor>
3

> <RotBonds>
0

> <HAC>
13

> <Collection>
General

> <Reference_compound>
CHEMBL190

> <Similarity>
0.8710

$$$$
F0466-0040
  -ISIS-  06222321142D

 29 32  0  0  0  0  0  0  0  0999 V2000
   -1.9958    2.2500    0.0000 N   0  0  3  0  0  0  0  0  0  0  0  0
   -1.4708    2.2500    0.0000 C   0  0  0  0  0  0  0  0  0  0  0  0
   -2.2500    1.7958    0.0000 C   0  0  0  0  0  0  0  0  0  0  0  0
   -2.3500    2.6333    0.0000 C   0  0  0  0  0  0  0  0  0  0  0  0
   -0.4500    1.3333    0.0000 C   0  0  0  0  0  0  0  0  0  0  0  0
    0.0667    1.3208    0.0000 N   0  0  0  0  0  0  0  0  0  0  0  0
   -1.2125    1.7958    0.0000 C   0  0  0  0  0  0  0  0  0  0  0  0
   -0.6833    1.7833    0.0000 C   0  0  0  0  0  0  0  0  0  0  0  0
    0.3500    1.7708    0.0000 C   0  0  0  0  0  0  0  0  0  0  0  0
    0.8542    1.7708    0.0000 C   0  0  0  0  0  0  0  0  0  0  0  0
    1.1500    1.3208    0.0000 O   0  0  0  0  0  0  0  0  0  0  0  0
   -0.6958    0.8708    0.0000 O   0  0  0  0  0  0  0  0  0  0  0  0
   -2.7708    1.9000    0.0000 C   0  0  0  0  0  0  0  0  0  0  0  0
   -2.8208    2.4208    0.0000 C   0  0  0  0  0  0  0  0  0  0  0  0
   -2.2208    3.1500    0.0000 O   0  0  0  0  0  0  0  0  0  0  0  0
   -2.0500    1.2958    0.0000 O   0  0  0  0  0  0  0  0  0  0  0  0
    0.8500    0.8708    0.0000 C   0  0  0  0  0  0  0  0  0  0  0  0
   -1.2125    2.7083    0.0000 C   0  0  0  0  0  0  0  0  0  0  0  0
   -0.4458    2.2458    0.0000 C   0  0  0  0  0  0  0  0  0  0  0  0
   -0.6833    2.7083    0.0000 C   0  0  0  0  0  0  0  0  0  0  0  0
    0.0792    2.2208    0.0000 C   0  0  0  0  0  0  0  0  0  0  0  0
    1.1500    2.2333    0.0000 C   0  0  0  0  0  0  0  0  0  0  0  0
    1.1000    0.3958    0.0000 C   0  0  0  0  0  0  0  0  0  0  0  0
    0.3292    0.8708    0.0000 C   0  0  0  0  0  0  0  0  0  0  0  0
    0.8667    2.6833    0.0000 C   0  0  0  0  0  0  0  0  0  0  0  0
    0.3500    2.6833    0.0000 C   0  0  0  0  0  0  0  0  0  0  0  0
    0.8292   -0.0292    0.0000 C   0  0  0  0  0  0  0  0  0  0  0  0
    0.0500    0.4458    0.0000 C   0  0  0  0  0  0  0  0  0  0  0  0
    0.3000   -0.0292    0.0000 C   0  0  0  0  0  0  0  0  0  0  0  0
  2  1  1  0  0  0  0
  3  1  1  0  0  0  0
  4  1  1  0  0  0  0
  5  8  1  0  0  0  0
  6  5  1  0  0  0  0
  7  2  2  0  0  0  0
  8  7  1  0  0  0  0
  9  6  1  0  0  0  0
 10  9  1  0  0  0  0
 11 10  1  0  0  0  0
 12  5  2  0  0  0  0
 13  3  1  0  0  0  0
 14  4  1  0  0  0  0
 15  4  2  0  0  0  0
 16  3  2  0  0  0  0
 17 11  1  0  0  0  0
 18  2  1  0  0  0  0
 19 20  1  0  0  0  0
 20 18  2  0  0  0  0
 21  9  2  0  0  0  0
 22 10  2  0  0  0  0
 23 17  1  0  0  0  0
 24 17  2  0  0  0  0
 25 26  2  0  0  0  0
 26 21  1  0  0  0  0
 27 23  2  0  0  0  0
 28 24  1  0  0  0  0
 29 28  2  0  0  0  0
 14 13  1  0  0  0  0
  8 19  2  0  0  0  0
 25 22  1  0  0  0  0
 27 29  1  0  0  0  0
M  END
> <IDNUMBER>
F0466-0040

> <Chemical_Name>
3-(2,5-dioxopyrrolidin-1-yl)-N-(2-phenoxyphenyl)benzamide

> <CAS>
391867-74-6

> <PriceCoeff>
1.00

> <MW>
386.40

> <Description>
solid

> <FSP3>
0.09

> <clogP>
2.30

> <TPSA>
75.71

> <Acceptor>
4

> <Donor>
1

> <RotBonds>
5

> <HAC>
29

> <Collection>
General

$$$$
F2146-0728
  -ISIS-  06222304352D

 28 29  0  0  0  0  0  0  0  0999 V2000
    4.9083   -3.5625    0.0000 C   0  0  0  0  0  0  0  0  0  0  0  0
    4.6500   -4.3458    0.0000 N   0  0  3  0  0  0  0  0  0  0  0  0
    4.2417   -3.0750    0.0000 S   0  0  0  0  0  0  0  0  0  0  0  0
    3.5708   -3.5625    0.0000 C   0  0  0  0  0  0  0  0  0  0  0  0
    3.8250   -4.3458    0.0000 C   0  0  0  0  0  0  0  0  0  0  0  0
    5.7000   -3.3042    0.0000 N   0  0  0  0  0  0  0  0  0  0  0  0
    2.7625   -3.3792    0.0000 C   0  0  0  0  0  0  0  0  0  0  0  0
    3.2708   -4.9583    0.0000 C   0  0  0  0  0  0  0  0  0  0  0  0
    2.2042   -4.0000    0.0000 C   0  0  0  0  0  0  0  0  0  0  0  0
    5.1417   -5.0167    0.0000 C   0  0  0  0  0  0  0  0  0  0  0  0
    2.4667   -4.7833    0.0000 C   0  0  0  0  0  0  0  0  0  0  0  0
    1.4000   -3.8292    0.0000 O   0  0  0  0  0  0  0  0  0  0  0  0
    4.0125   -5.8667    0.0000 O   0  0  0  0  0  0  0  0  0  0  0  0
    4.8042   -5.7792    0.0000 C   0  0  0  0  0  0  0  0  0  0  0  0
    3.6500   -6.6208    0.0000 C   0  0  0  0  0  0  0  0  0  0  0  0
    0.8500   -4.4417    0.0000 C   0  0  0  0  0  0  0  0  0  0  0  0
    4.1125   -7.3042    0.0000 C   0  0  0  0  0  0  0  0  0  0  0  0
    8.7348   -4.1204    0.0000 S   0  0  3  0  0  0  0  0  0  0  0  0
    8.3320   -4.8302    0.0000 C   0  0  0  0  0  0  0  0  0  0  0  0
    8.0239   -3.6991    0.0000 O   0  0  0  0  0  0  0  0  0  0  0  0
    9.1406   -3.3993    0.0000 O   0  0  0  0  0  0  0  0  0  0  0  0
    9.4560   -4.5262    0.0000 O   0  0  0  0  0  0  0  0  0  0  0  0
    8.7474   -5.5478    0.0000 C   0  0  0  0  0  0  0  0  0  0  0  0
    7.5015   -4.8344    0.0000 C   0  0  0  0  0  0  0  0  0  0  0  0
    8.3303   -6.2660    0.0000 C   0  0  0  0  0  0  0  0  0  0  0  0
    7.0936   -5.5519    0.0000 C   0  0  0  0  0  0  0  0  0  0  0  0
    7.5070   -6.2659    0.0000 C   0  0  0  0  0  0  0  0  0  0  0  0
    7.0934   -6.9820    0.0000 C   0  0  0  0  0  0  0  0  0  0  0  0
 13 14  1  0  0  0  0
 14 10  1  0  0  0  0
 15 13  1  0  0  0  0
 16 12  1  0  0  0  0
 17 15  1  0  0  0  0
  4  5  2  0  0  0  0
 11  9  1  0  0  0  0
  2  1  1  0  0  0  0
  3  1  1  0  0  0  0
  4  3  1  0  0  0  0
  5  2  1  0  0  0  0
  6  1  2  0  0  0  0
  7  4  1  0  0  0  0
  8  5  1  0  0  0  0
  9  7  2  0  0  0  0
 10  2  1  0  0  0  0
 11  8  2  0  0  0  0
 12  9  1  0  0  0  0
 19 18  1  0  0  0  0
 20 18  2  0  0  0  0
 21 18  2  0  0  0  0
 22 18  1  0  0  0  0
 23 19  1  0  0  0  0
 24 19  2  0  0  0  0
 25 23  2  0  0  0  0
 26 24  1  0  0  0  0
 27 26  2  0  0  0  0
 28 27  1  0  0  0  0
 25 27  1  0  0  0  0
M  END
> <IDNUMBER>
F2146-0728

> <Chemical_Name>
3-(2-ethoxyethyl)-6-methoxy-2,3-dihydro-1,3-benzothiazol-2-imine; 4-methylbenzene-1-sulfonic acid

> <CAS>
2034154-27-1

> <PriceCoeff>
1.00

> <MW>
252.33

> <Description>
solid

> <FSP3>
0.42

> <clogP>
3.22

> <TPSA>
70.85

> <Acceptor>
2

> <Donor>
1

> <RotBonds>
5

> <HAC>
17

> <Collection>
General

> <Reference_compound>
PRI5904

> <Similarity>
0.8060

$$$$
F1065-0606
  -ISIS-  06222321452D

 21 23  0  0  0  0  0  0  0  0999 V2000
   -0.9000    1.0458    0.0000 N   0  0  3  0  0  0  0  0  0  0  0  0
    0.1792    0.2458    0.0000 C   0  0  0  0  0  0  0  0  0  0  0  0
   -0.4708    2.3208    0.0000 C   0  0  0  0  0  0  0  0  0  0  0  0
    1.2542    1.0333    0.0000 C   0  0  3  0  0  0  0  0  0  0  0  0
    0.8542    2.3208    0.0000 C   0  0  0  0  0  0  0  0  0  0  0  0
    2.5000    0.4500    0.0000 N   0  0  0  0  0  0  0  0  0  0  0  0
   -2.2000    0.6500    0.0000 C   0  0  0  0  0  0  0  0  0  0  0  0
    0.1667   -1.1167    0.0000 O   0  0  0  0  0  0  0  0  0  0  0  0
   -1.2958    3.4208    0.0000 O   0  0  0  0  0  0  0  0  0  0  0  0
    2.6375   -0.9000    0.0000 C   0  0  0  0  0  0  0  0  0  0  0  0
   -2.4833   -0.6667    0.0000 C   0  0  0  0  0  0  0  0  0  0  0  0
    1.5500   -1.6667    0.0000 C   0  0  0  0  0  0  0  0  0  0  0  0
    3.8792   -1.4375    0.0000 C   0  0  0  0  0  0  0  0  0  0  0  0
   -3.7625   -1.0500    0.0000 C   0  0  0  0  0  0  0  0  0  0  0  0
   -1.4958   -1.5500    0.0000 C   0  0  0  0  0  0  0  0  0  0  0  0
    1.6792   -3.0167    0.0000 C   0  0  0  0  0  0  0  0  0  0  0  0
   -4.0458   -2.3500    0.0000 C   0  0  0  0  0  0  0  0  0  0  0  0
   -1.7833   -2.8667    0.0000 C   0  0  0  0  0  0  0  0  0  0  0  0
    4.0167   -2.7792    0.0000 C   0  0  0  0  0  0  0  0  0  0  0  0
    2.9167   -3.5667    0.0000 C   0  0  0  0  0  0  0  0  0  0  0  0
   -3.0625   -3.2542    0.0000 C   0  0  0  0  0  0  0  0  0  0  0  0
  2  1  1  0  0  0  0
  3  1  1  0  0  0  0
  4  2  1  0  0  0  0
  5  3  1  0  0  0  0
  6  4  1  0  0  0  0
  7  1  1  0  0  0  0
  8  2  2  0  0  0  0
  9  3  2  0  0  0  0
 10  6  1  0  0  0  0
 11  7  1  0  0  0  0
 12 10  2  0  0  0  0
 13 10  1  0  0  0  0
 14 11  2  0  0  0  0
 15 11  1  0  0  0  0
 16 12  1  0  0  0  0
 17 14  1  0  0  0  0
 18 15  2  0  0  0  0
 19 13  2  0  0  0  0
 20 19  1  0  0  0  0
 21 18  1  0  0  0  0
  5  4  1  0  0  0  0
 21 17  2  0  0  0  0
 16 20  2  0  0  0  0
M  END
> <IDNUMBER>
F1065-0606

> <Chemical_Name>
1-benzyl-3-(phenylamino)pyrrolidine-2,5-dione

> <CAS>
27036-51-7

> <PriceCoeff>
1.00

> <MW>
280.32

> <Description>
solid

> <FSP3>
0.18

> <clogP>
3.23

> <TPSA>
49.41

> <Acceptor>
3

> <Donor>
1

> <RotBonds>
4

> <HAC>
21

> <Collection>
General

$$$$
F3023-0978
  -ISIS-  06222321442D

 28 31  0  0  0  0  0  0  0  0999 V2000
    4.2417   -6.4542    0.0000 N   0  0  3  0  0  0  0  0  0  0  0  0
    4.6625   -5.8792    0.0000 C   0  0  0  0  0  0  0  0  0  0  0  0
    4.6667   -7.0250    0.0000 C   0  0  0  0  0  0  0  0  0  0  0  0
    3.5375   -6.4542    0.0000 C   0  0  0  0  0  0  0  0  0  0  0  0
    5.3417   -6.8042    0.0000 C   0  0  3  0  0  0  0  0  0  0  0  0
    5.3375   -6.0917    0.0000 C   0  0  0  0  0  0  0  0  0  0  0  0
    3.1917   -7.0750    0.0000 C   0  0  0  0  0  0  0  0  0  0  0  0
    8.5042   -6.0625    0.0000 N   0  0  3  0  0  0  0  0  0  0  0  0
    5.9125   -7.2167    0.0000 N   0  0  0  0  0  0  0  0  0  0  0  0
    4.4375   -5.2042    0.0000 O   0  0  0  0  0  0  0  0  0  0  0  0
    7.8542   -6.3542    0.0000 C   0  0  0  0  0  0  0  0  0  0  0  0
    4.4542   -7.7000    0.0000 O   0  0  0  0  0  0  0  0  0  0  0  0
    2.4875   -7.0792    0.0000 C   0  0  0  0  0  0  0  0  0  0  0  0
    9.8042   -5.4875    0.0000 O   0  0  0  0  0  0  0  0  0  0  0  0
    7.7792   -7.0542    0.0000 C   0  0  0  0  0  0  0  0  0  0  0  0
    7.2750   -5.9375    0.0000 C   0  0  0  0  0  0  0  0  0  0  0  0
    6.5625   -6.9292    0.0000 C   0  0  0  0  0  0  0  0  0  0  0  0
    3.1792   -5.8417    0.0000 C   0  0  0  0  0  0  0  0  0  0  0  0
    2.1292   -7.7000    0.0000 Cl  0  0  0  0  0  0  0  0  0  0  0  0
    7.1292   -7.3417    0.0000 C   0  0  0  0  0  0  0  0  0  0  0  0
    6.6292   -6.2250    0.0000 C   0  0  0  0  0  0  0  0  0  0  0  0
    3.5542   -7.6792    0.0000 C   0  0  0  0  0  0  0  0  0  0  0  0
    8.5750   -5.3542    0.0000 C   0  0  0  0  0  0  0  0  0  0  0  0
    9.0792   -6.4792    0.0000 C   0  0  0  0  0  0  0  0  0  0  0  0
    2.4750   -5.8500    0.0000 C   0  0  0  0  0  0  0  0  0  0  0  0
    2.1250   -6.4667    0.0000 C   0  0  0  0  0  0  0  0  0  0  0  0
    9.7250   -6.1917    0.0000 C   0  0  0  0  0  0  0  0  0  0  0  0
    9.2250   -5.0667    0.0000 C   0  0  0  0  0  0  0  0  0  0  0  0
  2  1  1  0  0  0  0
  3  1  1  0  0  0  0
  4  1  1  0  0  0  0
  5  3  1  0  0  0  0
  6  2  1  0  0  0  0
  7  4  1  0  0  0  0
  8 11  1  0  0  0  0
  9  5  1  0  0  0  0
 10  2  2  0  0  0  0
 11 16  1  0  0  0  0
 12  3  2  0  0  0  0
 13  7  2  0  0  0  0
 14 27  1  0  0  0  0
 15 20  1  0  0  0  0
 16 21  2  0  0  0  0
 17  9  1  0  0  0  0
 18  4  2  0  0  0  0
 19 13  1  0  0  0  0
 20 17  2  0  0  0  0
 21 17  1  0  0  0  0
 22  7  1  0  0  0  0
 23  8  1  0  0  0  0
 24  8  1  0  0  0  0
 25 18  1  0  0  0  0
 26 25  2  0  0  0  0
 27 24  1  0  0  0  0
 28 23  1  0  0  0  0
  6  5  1  0  0  0  0
 26 13  1  0  0  0  0
 11 15  2  0  0  0  0
 14 28  1  0  0  0  0
M  END
> <IDNUMBER>
F3023-0978

> <Chemical_Name>
1-(3-chloro-2-methylphenyl)-3-{[4-(morpholin-4-yl)phenyl]amino}pyrrolidine-2,5-dione

> <CAS>
1008712-55-7

> <PriceCoeff>
1.00

> <MW>
399.87

> <Description>
solid

> <FSP3>
0.33

> <clogP>
3.03

> <TPSA>
61.88

> <Acceptor>
5

> <Donor>
2

> <RotBonds>
4

> <HAC>
28

> <Collection>
General

$$$$
F3023-0378
  -ISIS-  06222321462D

 20 21  0  0  0  0  0  0  0  0999 V2000
   12.1917   -5.8417    0.0000 N   0  0  3  0  0  0  0  0  0  0  0  0
   11.7667   -6.4250    0.0000 C   0  0  0  0  0  0  0  0  0  0  0  0
   11.7750   -5.2625    0.0000 C   0  0  0  0  0  0  0  0  0  0  0  0
   11.0875   -6.1917    0.0000 C   0  0  3  0  0  0  0  0  0  0  0  0
   11.0917   -5.4792    0.0000 C   0  0  0  0  0  0  0  0  0  0  0  0
   10.5042   -6.6167    0.0000 N   0  0  0  0  0  0  0  0  0  0  0  0
   11.9875   -7.1042    0.0000 O   0  0  0  0  0  0  0  0  0  0  0  0
   12.0000   -4.5792    0.0000 O   0  0  0  0  0  0  0  0  0  0  0  0
    9.8542   -6.3167    0.0000 C   0  0  0  0  0  0  0  0  0  0  0  0
   12.9125   -5.8500    0.0000 C   0  0  0  0  0  0  0  0  0  0  0  0
    8.5542   -5.7292    0.0000 C   0  0  0  0  0  0  0  0  0  0  0  0
    9.7875   -5.6042    0.0000 C   0  0  0  0  0  0  0  0  0  0  0  0
    9.2792   -6.7375    0.0000 C   0  0  0  0  0  0  0  0  0  0  0  0
    8.6250   -6.4417    0.0000 C   0  0  0  0  0  0  0  0  0  0  0  0
    9.1375   -5.3125    0.0000 C   0  0  0  0  0  0  0  0  0  0  0  0
    7.9000   -5.4292    0.0000 C   0  0  0  0  0  0  0  0  0  0  0  0
   13.2667   -6.4667    0.0000 C   0  0  0  0  0  0  0  0  0  0  0  0
   13.9792   -6.4750    0.0000 C   0  0  0  0  0  0  0  0  0  0  0  0
    7.3167   -5.8542    0.0000 C   0  0  0  0  0  0  0  0  0  0  0  0
   14.3375   -7.1000    0.0000 C   0  0  0  0  0  0  0  0  0  0  0  0
  2  1  1  0  0  0  0
  3  1  1  0  0  0  0
  4  2  1  0  0  0  0
  5  3  1  0  0  0  0
  6  4  1  0  0  0  0
  7  2  2  0  0  0  0
  8  3  2  0  0  0  0
  9  6  1  0  0  0  0
 10  1  1  0  0  0  0
 11 14  1  0  0  0  0
 12  9  2  0  0  0  0
 13  9  1  0  0  0  0
 14 13  2  0  0  0  0
 15 12  1  0  0  0  0
 16 11  1  0  0  0  0
 17 10  1  0  0  0  0
 18 17  1  0  0  0  0
 19 16  1  0  0  0  0
 20 18  1  0  0  0  0
  4  5  1  0  0  0  0
 11 15  2  0  0  0  0
M  END
> <IDNUMBER>
F3023-0378

> <Chemical_Name>
1-butyl-3-[(4-ethylphenyl)amino]pyrrolidine-2,5-dione

> <CAS>
1008036-41-6

> <PriceCoeff>
1.00

> <MW>
274.36

> <Description>
solid

> <FSP3>
0.50

> <clogP>
4.27

> <TPSA>
49.41

> <Acceptor>
3

> <Donor>
1

> <RotBonds>
6

> <HAC>
20

> <Collection>
General

$$$$
F0902-0374
  -ISIS-  06222321142D

 27 30  0  0  0  0  0  0  0  0999 V2000
   -2.1458    2.0958    0.0000 N   0  0  3  0  0  0  0  0  0  0  0  0
   -2.4958    2.9208    0.0000 C   0  0  0  0  0  0  0  0  0  0  0  0
   -1.2333    2.2083    0.0000 C   0  0  0  0  0  0  0  0  0  0  0  0
   -1.0500    3.0833    0.0000 C   0  0  3  0  0  0  0  0  0  0  0  0
   -1.8333    3.5208    0.0000 C   0  0  0  0  0  0  0  0  0  0  0  0
   -2.5625    1.3125    0.0000 C   0  0  0  0  0  0  0  0  0  0  0  0
    2.7500    1.3833    0.0000 N   0  0  3  0  0  0  0  0  0  0  0  0
   -0.2125    3.4625    0.0000 N   0  0  0  0  0  0  0  0  0  0  0  0
   -3.4000    3.1083    0.0000 O   0  0  0  0  0  0  0  0  0  0  0  0
    2.0042    1.8958    0.0000 C   0  0  0  0  0  0  0  0  0  0  0  0
   -0.5958    1.5208    0.0000 O   0  0  0  0  0  0  0  0  0  0  0  0
   -3.4625    1.2625    0.0000 C   0  0  0  0  0  0  0  0  0  0  0  0
    4.2500    0.3458    0.0000 O   0  0  0  0  0  0  0  0  0  0  0  0
    1.2000    1.5208    0.0000 C   0  0  0  0  0  0  0  0  0  0  0  0
    2.0792    2.8000    0.0000 C   0  0  0  0  0  0  0  0  0  0  0  0
    0.5042    2.9458    0.0000 C   0  0  0  0  0  0  0  0  0  0  0  0
   -3.9583    2.0458    0.0000 Cl  0  0  0  0  0  0  0  0  0  0  0  0
    1.3500    3.3208    0.0000 C   0  0  0  0  0  0  0  0  0  0  0  0
    0.4292    2.0333    0.0000 C   0  0  0  0  0  0  0  0  0  0  0  0
    3.5792    1.7625    0.0000 C   0  0  0  0  0  0  0  0  0  0  0  0
    2.6667    0.4833    0.0000 C   0  0  0  0  0  0  0  0  0  0  0  0
   -2.0708    0.5333    0.0000 C   0  0  0  0  0  0  0  0  0  0  0  0
    4.3167    1.2458    0.0000 C   0  0  0  0  0  0  0  0  0  0  0  0
    3.4292   -0.0292    0.0000 C   0  0  0  0  0  0  0  0  0  0  0  0
   -3.8833    0.4833    0.0000 C   0  0  0  0  0  0  0  0  0  0  0  0
   -2.5125   -0.2500    0.0000 C   0  0  0  0  0  0  0  0  0  0  0  0
   -3.4125   -0.2792    0.0000 C   0  0  0  0  0  0  0  0  0  0  0  0
  2  1  1  0  0  0  0
  3  1  1  0  0  0  0
  4  3  1  0  0  0  0
  5  2  1  0  0  0  0
  6  1  1  0  0  0  0
  7 10  1  0  0  0  0
  8  4  1  0  0  0  0
  9  2  2  0  0  0  0
 10 14  1  0  0  0  0
 11  3  2  0  0  0  0
 12  6  1  0  0  0  0
 13 24  1  0  0  0  0
 14 19  2  0  0  0  0
 15 18  1  0  0  0  0
 16  8  1  0  0  0  0
 17 12  1  0  0  0  0
 18 16  2  0  0  0  0
 19 16  1  0  0  0  0
 20  7  1  0  0  0  0
 21  7  1  0  0  0  0
 22  6  2  0  0  0  0
 23 20  1  0  0  0  0
 24 21  1  0  0  0  0
 25 12  2  0  0  0  0
 26 22  1  0  0  0  0
 27 26  2  0  0  0  0
  5  4  1  0  0  0  0
 25 27  1  0  0  0  0
 10 15  2  0  0  0  0
 23 13  1  0  0  0  0
M  END
> <IDNUMBER>
F0902-0374

> <Chemical_Name>
1-(2-chlorophenyl)-3-{[4-(morpholin-4-yl)phenyl]amino}pyrrolidine-2,5-dione

> <CAS>
301648-92-0

> <PriceCoeff>
1.00

> <MW>
385.84

> <Description>
solid

> <FSP3>
0.30

> <clogP>
2.54

> <TPSA>
61.88

> <Acceptor>
5

> <Donor>
2

> <RotBonds>
4

> <HAC>
27

> <Collection>
General

$$$$
F1424-0124
  -ISIS-  06222321142D

 27 29  0  0  0  0  0  0  0  0999 V2000
    9.5917   -4.5417    0.0000 C   0  0  0  0  0  0  0  0  0  0  0  0
   10.5417   -6.2000    0.0000 N   0  0  0  0  0  0  0  0  0  0  0  0
    7.7292   -4.9417    0.0000 O   0  0  0  0  0  0  0  0  0  0  0  0
    9.2792   -7.6167    0.0000 N   0  0  0  0  0  0  0  0  0  0  0  0
    7.5292   -6.8417    0.0000 C   0  0  0  0  0  0  0  0  0  0  0  0
   10.3625   -2.8125    0.0000 C   0  0  0  0  0  0  0  0  0  0  0  0
   11.8917    0.6583    0.0000 C   0  0  0  0  0  0  0  0  0  0  0  0
   10.0167    0.4500    0.0000 C   0  0  0  0  0  0  0  0  0  0  0  0
   13.0125   -0.8917    0.0000 C   0  0  0  0  0  0  0  0  0  0  0  0
   12.2375   -2.6167    0.0000 C   0  0  0  0  0  0  0  0  0  0  0  0
    9.2417   -1.3000    0.0000 C   0  0  0  0  0  0  0  0  0  0  0  0
    2.6167   -9.6542    0.0000 C   0  0  0  0  0  0  0  0  0  0  0  0
    0.9750  -10.5667    0.0000 C   0  0  0  0  0  0  0  0  0  0  0  0
    4.2292  -10.6167    0.0000 C   0  0  0  0  0  0  0  0  0  0  0  0
    5.8917   -9.6792    0.0000 O   0  0  0  0  0  0  0  0  0  0  0  0
    5.8917   -7.7875    0.0000 C   0  0  0  0  0  0  0  0  0  0  0  0
    4.2292  -12.4917    0.0000 C   0  0  0  0  0  0  0  0  0  0  0  0
    0.9417  -12.4667    0.0000 C   0  0  0  0  0  0  0  0  0  0  0  0
    2.6375   -7.7542    0.0000 Cl  0  0  0  0  0  0  0  0  0  0  0  0
   12.6667    2.3750    0.0000 O   0  0  0  0  0  0  0  0  0  0  0  0
   14.8917   -0.6917    0.0000 O   0  0  0  0  0  0  0  0  0  0  0  0
    8.9042    1.9750    0.0000 O   0  0  0  0  0  0  0  0  0  0  0  0
    2.5792  -13.4417    0.0000 C   0  0  0  0  0  0  0  0  0  0  0  0
   -0.7083  -13.4042    0.0000 Cl  0  0  0  0  0  0  0  0  0  0  0  0
   14.5625    2.5833    0.0000 C   0  0  0  0  0  0  0  0  0  0  0  0
    9.6667    3.7083    0.0000 C   0  0  0  0  0  0  0  0  0  0  0  0
   16.0000   -2.2375    0.0000 C   0  0  0  0  0  0  0  0  0  0  0  0
  2  1  2  0  0  0  0
  3  1  1  0  0  0  0
  4  2  1  0  0  0  0
  5  3  1  0  0  0  0
  6  1  1  0  0  0  0
  7  8  1  0  0  0  0
  8 11  2  0  0  0  0
  9 10  1  0  0  0  0
 10  6  2  0  0  0  0
 11  6  1  0  0  0  0
 12 14  2  0  0  0  0
 13 12  1  0  0  0  0
 14 15  1  0  0  0  0
 15 16  1  0  0  0  0
 16  5  1  0  0  0  0
 17 14  1  0  0  0  0
 18 23  1  0  0  0  0
 19 12  1  0  0  0  0
 20  7  1  0  0  0  0
 21  9  1  0  0  0  0
 22  8  1  0  0  0  0
 23 17  2  0  0  0  0
 24 18  1  0  0  0  0
 25 20  1  0  0  0  0
 26 22  1  0  0  0  0
 27 21  1  0  0  0  0
  5  4  2  0  0  0  0
  9  7  2  0  0  0  0
 13 18  2  0  0  0  0
M  END
> <IDNUMBER>
F1424-0124

> <Chemical_Name>
2-[(2,4-dichlorophenoxy)methyl]-5-(3,4,5-trimethoxyphenyl)-1,3,4-oxadiazole

> <CAS>
433705-59-0

> <PriceCoeff>
1.00

> <MW>
411.24

> <Description>
solid

> <FSP3>
0.22

> <clogP>
3.26

> <TPSA>
75.84

> <Acceptor>
7

> <Donor>
0

> <RotBonds>
7

> <HAC>
27

> <Collection>
General

> <Reference_compound>
CHEMBL2270335

> <Similarity>
0.8070

$$$$
F3325-0136
  -ISIS-  06222321152D

 24 26  0  0  0  0  0  0  0  0999 V2000
    3.0375   -3.0417    0.0000 N   0  0  3  0  0  0  0  0  0  0  0  0
    3.4875   -2.3500    0.0000 C   0  0  0  0  0  0  0  0  0  0  0  0
    3.5542   -3.6917    0.0000 C   0  0  0  0  0  0  0  0  0  0  0  0
    4.3250   -3.4000    0.0000 C   0  0  3  0  0  0  0  0  0  0  0  0
    4.2875   -2.5667    0.0000 C   0  0  0  0  0  0  0  0  0  0  0  0
    2.2125   -3.0875    0.0000 C   0  0  0  0  0  0  0  0  0  0  0  0
    5.0625   -3.7792    0.0000 N   0  0  0  0  0  0  0  0  0  0  0  0
    3.1917   -1.5792    0.0000 O   0  0  0  0  0  0  0  0  0  0  0  0
    3.3375   -4.4875    0.0000 O   0  0  0  0  0  0  0  0  0  0  0  0
    7.1500   -2.4292    0.0000 C   0  0  0  0  0  0  0  0  0  0  0  0
    1.7667   -2.3875    0.0000 C   0  0  0  0  0  0  0  0  0  0  0  0
    7.8417   -1.9875    0.0000 N   0  0  3  0  0  0  0  0  0  0  0  0
    5.7625   -3.3292    0.0000 C   0  0  0  0  0  0  0  0  0  0  0  0
    6.4167   -2.0542    0.0000 C   0  0  0  0  0  0  0  0  0  0  0  0
    7.1917   -3.2625    0.0000 C   0  0  0  0  0  0  0  0  0  0  0  0
    2.1417   -1.6542    0.0000 Cl  0  0  0  0  0  0  0  0  0  0  0  0
    6.4917   -3.7042    0.0000 C   0  0  0  0  0  0  0  0  0  0  0  0
    5.7250   -2.5042    0.0000 C   0  0  0  0  0  0  0  0  0  0  0  0
    1.8417   -3.8167    0.0000 C   0  0  0  0  0  0  0  0  0  0  0  0
    7.8042   -1.1625    0.0000 C   0  0  0  0  0  0  0  0  0  0  0  0
    8.5792   -2.3625    0.0000 C   0  0  0  0  0  0  0  0  0  0  0  0
    0.9417   -2.4292    0.0000 C   0  0  0  0  0  0  0  0  0  0  0  0
    1.0167   -3.8542    0.0000 C   0  0  0  0  0  0  0  0  0  0  0  0
    0.5667   -3.1667    0.0000 C   0  0  0  0  0  0  0  0  0  0  0  0
  2  1  1  0  0  0  0
  3  1  1  0  0  0  0
  4  3  1  0  0  0  0
  5  2  1  0  0  0  0
  6  1  1  0  0  0  0
  7  4  1  0  0  0  0
  8  2  2  0  0  0  0
  9  3  2  0  0  0  0
 10 14  2  0  0  0  0
 11  6  2  0  0  0  0
 12 10  1  0  0  0  0
 13  7  1  0  0  0  0
 14 18  1  0  0  0  0
 15 17  2  0  0  0  0
 16 11  1  0  0  0  0
 17 13  1  0  0  0  0
 18 13  2  0  0  0  0
 19  6  1  0  0  0  0
 20 12  1  0  0  0  0
 21 12  1  0  0  0  0
 22 11  1  0  0  0  0
 23 19  2  0  0  0  0
 24 23  1  0  0  0  0
  5  4  1  0  0  0  0
 22 24  2  0  0  0  0
 15 10  1  0  0  0  0
M  END
> <IDNUMBER>
F3325-0136

> <Chemical_Name>
1-(2-chlorophenyl)-3-{[4-(dimethylamino)phenyl]amino}pyrrolidine-2,5-dione

> <CAS>
1025396-09-1

> <PriceCoeff>
1.00

> <MW>
343.81

> <Description>
solid

> <FSP3>
0.22

> <clogP>
3.24

> <TPSA>
52.65

> <Acceptor>
4

> <Donor>
2

> <RotBonds>
4

> <HAC>
24

> <Collection>
General

$$$$
F2146-0749
  -ISIS-  06222304352D

 25 26  0  0  0  0  0  0  0  0999 V2000
    1.8500   -2.1583    0.0000 C   0  0  0  0  0  0  0  0  0  0  0  0
    1.5917   -2.9458    0.0000 N   0  0  3  0  0  0  0  0  0  0  0  0
    1.1875   -1.6750    0.0000 S   0  0  0  0  0  0  0  0  0  0  0  0
    0.7667   -2.9458    0.0000 C   0  0  0  0  0  0  0  0  0  0  0  0
    0.5125   -2.1583    0.0000 C   0  0  0  0  0  0  0  0  0  0  0  0
    2.6417   -1.9042    0.0000 N   0  0  0  0  0  0  0  0  0  0  0  0
    2.0833   -3.6208    0.0000 C   0  0  0  0  0  0  0  0  0  0  0  0
    0.2125   -3.5583    0.0000 C   0  0  0  0  0  0  0  0  0  0  0  0
   -0.2958   -1.9833    0.0000 C   0  0  0  0  0  0  0  0  0  0  0  0
    2.2333   -5.0542    0.0000 O   0  0  0  0  0  0  0  0  0  0  0  0
    1.7458   -4.3792    0.0000 C   0  0  0  0  0  0  0  0  0  0  0  0
    1.8958   -5.8125    0.0000 C   0  0  0  0  0  0  0  0  0  0  0  0
   -0.5917   -3.3833    0.0000 C   0  0  0  0  0  0  0  0  0  0  0  0
   -0.8542   -2.6000    0.0000 C   0  0  0  0  0  0  0  0  0  0  0  0
    5.6765   -2.6746    0.0000 S   0  0  3  0  0  0  0  0  0  0  0  0
    5.2737   -3.3844    0.0000 C   0  0  0  0  0  0  0  0  0  0  0  0
    4.9656   -2.2533    0.0000 O   0  0  0  0  0  0  0  0  0  0  0  0
    6.0823   -1.9535    0.0000 O   0  0  0  0  0  0  0  0  0  0  0  0
    6.3977   -3.0804    0.0000 O   0  0  0  0  0  0  0  0  0  0  0  0
    5.6891   -4.1020    0.0000 C   0  0  0  0  0  0  0  0  0  0  0  0
    4.4432   -3.3886    0.0000 C   0  0  0  0  0  0  0  0  0  0  0  0
    5.2720   -4.8202    0.0000 C   0  0  0  0  0  0  0  0  0  0  0  0
    4.0353   -4.1061    0.0000 C   0  0  0  0  0  0  0  0  0  0  0  0
    4.4487   -4.8201    0.0000 C   0  0  0  0  0  0  0  0  0  0  0  0
    4.0351   -5.5362    0.0000 C   0  0  0  0  0  0  0  0  0  0  0  0
 13  8  2  0  0  0  0
 14  9  2  0  0  0  0
  5  4  2  0  0  0  0
 13 14  1  0  0  0  0
  2  1  1  0  0  0  0
  3  1  1  0  0  0  0
  4  2  1  0  0  0  0
  5  3  1  0  0  0  0
  6  1  2  0  0  0  0
  7  2  1  0  0  0  0
  8  4  1  0  0  0  0
  9  5  1  0  0  0  0
 10 11  1  0  0  0  0
 11  7  1  0  0  0  0
 12 10  1  0  0  0  0
 16 15  1  0  0  0  0
 17 15  2  0  0  0  0
 18 15  2  0  0  0  0
 19 15  1  0  0  0  0
 20 16  1  0  0  0  0
 21 16  2  0  0  0  0
 22 20  2  0  0  0  0
 23 21  1  0  0  0  0
 24 23  2  0  0  0  0
 25 24  1  0  0  0  0
 22 24  1  0  0  0  0
M  END
> <IDNUMBER>
F2146-0749

> <Chemical_Name>
3-(2-methoxyethyl)-2,3-dihydro-1,3-benzothiazol-2-imine; 4-methylbenzene-1-sulfonic acid

> <CAS>
2034619-06-0

> <PriceCoeff>
1.00

> <MW>
208.28

> <Description>
solid

> <FSP3>
0.30

> <clogP>
2.91

> <TPSA>
61.62

> <Acceptor>
1

> <Donor>
1

> <RotBonds>
3

> <HAC>
14

> <Collection>
General

> <Reference_compound>
PRI5904

> <Similarity>
0.8060

$$$$
F0406-1022
  -ISIS-  06222321452D

 18 21  0  0  0  0  0  0  0  0999 V2000
   -1.2708   -0.0500    0.0000 C   0  0  0  0  0  0  0  0  0  0  0  0
   -1.4625   -0.7500    0.0000 C   0  0  0  0  0  0  0  0  0  0  0  0
   -0.5833    0.2125    0.0000 N   0  0  0  0  0  0  0  0  0  0  0  0
   -1.7333    0.5458    0.0000 N   0  0  0  0  0  0  0  0  0  0  0  0
   -0.9958   -1.3167    0.0000 C   0  0  0  0  0  0  0  0  0  0  0  0
   -2.1500   -0.9792    0.0000 C   0  0  0  0  0  0  0  0  0  0  0  0
   -1.4458   -1.9500    0.0000 N   0  0  0  0  0  0  0  0  0  0  0  0
   -0.6125    0.9708    0.0000 C   0  0  0  0  0  0  0  0  0  0  0  0
   -1.2708    1.1625    0.0000 C   0  0  0  0  0  0  0  0  0  0  0  0
   -2.1500   -1.7042    0.0000 C   0  0  0  0  0  0  0  0  0  0  0  0
   -2.8000   -0.6042    0.0000 C   0  0  0  0  0  0  0  0  0  0  0  0
   -0.0708    1.4708    0.0000 C   0  0  0  0  0  0  0  0  0  0  0  0
   -1.4708    1.8833    0.0000 C   0  0  0  0  0  0  0  0  0  0  0  0
   -2.8000   -2.1000    0.0000 C   0  0  0  0  0  0  0  0  0  0  0  0
   -3.4333   -0.9792    0.0000 C   0  0  0  0  0  0  0  0  0  0  0  0
   -0.2500    2.2208    0.0000 C   0  0  0  0  0  0  0  0  0  0  0  0
   -0.9208    2.4125    0.0000 C   0  0  0  0  0  0  0  0  0  0  0  0
   -3.4333   -1.7042    0.0000 C   0  0  0  0  0  0  0  0  0  0  0  0
  2  1  1  0  0  0  0
  3  1  2  0  0  0  0
  4  1  1  0  0  0  0
  5  2  2  0  0  0  0
  6  2  1  0  0  0  0
  7  5  1  0  0  0  0
  8  3  1  0  0  0  0
  9  4  1  0  0  0  0
 10  6  2  0  0  0  0
 11  6  1  0  0  0  0
 12  8  1  0  0  0  0
 13  9  1  0  0  0  0
 14 10  1  0  0  0  0
 15 11  2  0  0  0  0
 16 12  2  0  0  0  0
 17 13  2  0  0  0  0
 18 15  1  0  0  0  0
  9  8  2  0  0  0  0
  7 10  1  0  0  0  0
 17 16  1  0  0  0  0
 14 18  2  0  0  0  0
M  END
> <IDNUMBER>
F0406-1022

> <Chemical_Name>
2-(1H-indol-3-yl)-1H-1,3-benzodiazole

> <CAS>
54634-78-5

> <PriceCoeff>
1.00

> <MW>
233.27

> <Description>
solid

> <FSP3>
0.00

> <clogP>
3.80

> <TPSA>
44.47

> <Acceptor>
2

> <Donor>
3

> <RotBonds>
1

> <HAC>
18

> <Collection>
General

> <Reference_compound>
CHEMBL1380882

> <Similarity>
0.8560

$$$$
F3139-0815
  -ISIS-  06222321152D

 21 23  0  0  0  0  0  0  0  0999 V2000
    6.9292   -3.1417    0.0000 C   0  0  0  0  0  0  0  0  0  0  0  0
    6.2167   -3.5542    0.0000 C   0  0  0  0  0  0  0  0  0  0  0  0
    5.5000   -3.1417    0.0000 C   0  0  0  0  0  0  0  0  0  0  0  0
    6.9292   -2.3167    0.0000 C   0  0  0  0  0  0  0  0  0  0  0  0
    5.5042   -2.3167    0.0000 C   0  0  0  0  0  0  0  0  0  0  0  0
    6.2167   -1.9000    0.0000 O   0  0  0  0  0  0  0  0  0  0  0  0
    1.2167   -1.4792    0.0000 N   0  0  0  0  0  0  0  0  0  0  0  0
    4.7875   -3.5542    0.0000 C   0  0  0  0  0  0  0  0  0  0  0  0
    4.7875   -1.9042    0.0000 C   0  0  0  0  0  0  0  0  0  0  0  0
    1.9292   -1.8917    0.0000 C   0  0  0  0  0  0  0  0  0  0  0  0
    7.6417   -3.5542    0.0000 C   0  0  0  0  0  0  0  0  0  0  0  0
    6.2125   -4.3792    0.0000 O   0  0  0  0  0  0  0  0  0  0  0  0
    4.0750   -2.3167    0.0000 C   0  0  0  0  0  0  0  0  0  0  0  0
    4.0750   -3.1417    0.0000 C   0  0  0  0  0  0  0  0  0  0  0  0
    3.3625   -1.9042    0.0000 O   0  0  0  0  0  0  0  0  0  0  0  0
    2.6417   -2.3167    0.0000 C   0  0  0  0  0  0  0  0  0  0  0  0
    8.3542   -3.1417    0.0000 C   0  0  0  0  0  0  0  0  0  0  0  0
    7.6417   -4.3792    0.0000 C   0  0  0  0  0  0  0  0  0  0  0  0
    8.3542   -4.7917    0.0000 C   0  0  0  0  0  0  0  0  0  0  0  0
    9.0667   -3.5542    0.0000 C   0  0  0  0  0  0  0  0  0  0  0  0
    9.0667   -4.3792    0.0000 C   0  0  0  0  0  0  0  0  0  0  0  0
  2  1  1  0  0  0  0
  3  2  1  0  0  0  0
  4  1  2  0  0  0  0
  5  6  1  0  0  0  0
  6  4  1  0  0  0  0
  7 10  3  0  0  0  0
  8  3  2  0  0  0  0
  9  5  2  0  0  0  0
 10 16  1  0  0  0  0
 11  1  1  0  0  0  0
 12  2  2  0  0  0  0
 13  9  1  0  0  0  0
 14  8  1  0  0  0  0
 15 13  1  0  0  0  0
 16 15  1  0  0  0  0
 17 11  1  0  0  0  0
 18 11  2  0  0  0  0
 19 18  1  0  0  0  0
 20 17  2  0  0  0  0
 21 19  2  0  0  0  0
  3  5  1  0  0  0  0
 20 21  1  0  0  0  0
 14 13  2  0  0  0  0
M  END
> <IDNUMBER>
F3139-0815

> <Chemical_Name>
2-[(4-oxo-3-phenyl-4H-chromen-7-yl)oxy]acetonitrile

> <CAS>
449737-25-1

> <PriceCoeff>
1.00

> <MW>
277.27

> <Description>
solid

> <FSP3>
0.06

> <clogP>
2.07

> <TPSA>
59.32

> <Acceptor>
4

> <Donor>
0

> <RotBonds>
3

> <HAC>
21

> <Collection>
General

> <Reference_compound>
CHEMBL44

> <Similarity>
0.8840

$$$$
F2211-0003
  -ISIS-  06222321442D

 19 21  0  0  0  0  0  0  0  0999 V2000
    6.3042   -8.2292    0.0000 C   0  0  0  0  0  0  0  0  0  0  0  0
    6.3000   -9.0542    0.0000 C   0  0  0  0  0  0  0  0  0  0  0  0
    4.8667   -9.0500    0.0000 C   0  0  0  0  0  0  0  0  0  0  0  0
    5.5792   -9.4625    0.0000 C   0  0  0  0  0  0  0  0  0  0  0  0
    5.5875   -7.8125    0.0000 O   0  0  0  0  0  0  0  0  0  0  0  0
    4.8750   -8.2250    0.0000 C   0  0  0  0  0  0  0  0  0  0  0  0
    7.0167   -7.8167    0.0000 C   0  0  0  0  0  0  0  0  0  0  0  0
    4.1625   -9.4625    0.0000 C   0  0  0  0  0  0  0  0  0  0  0  0
    5.5792  -10.2875    0.0000 O   0  0  0  0  0  0  0  0  0  0  0  0
    7.7292   -8.2292    0.0000 C   0  0  0  0  0  0  0  0  0  0  0  0
    4.1625   -7.8125    0.0000 C   0  0  0  0  0  0  0  0  0  0  0  0
    3.4417   -9.0542    0.0000 C   0  0  0  0  0  0  0  0  0  0  0  0
    2.7292   -9.4667    0.0000 N   0  0  0  0  0  0  0  0  0  0  0  0
    3.4417   -8.2250    0.0000 C   0  0  0  0  0  0  0  0  0  0  0  0
    8.4417   -7.8250    0.0000 C   0  0  0  0  0  0  0  0  0  0  0  0
    7.0167   -6.9917    0.0000 C   0  0  0  0  0  0  0  0  0  0  0  0
    7.7292   -6.5792    0.0000 C   0  0  0  0  0  0  0  0  0  0  0  0
    8.4417   -7.0000    0.0000 C   0  0  0  0  0  0  0  0  0  0  0  0
    9.1542   -8.2417    0.0000 C   0  0  0  0  0  0  0  0  0  0  0  0
  2  1  2  0  0  0  0
  3  6  1  0  0  0  0
  4  2  1  0  0  0  0
  5  1  1  0  0  0  0
  6  5  1  0  0  0  0
  7  1  1  0  0  0  0
  8  3  2  0  0  0  0
  9  4  2  0  0  0  0
 10  7  2  0  0  0  0
 11  6  2  0  0  0  0
 12 14  2  0  0  0  0
 13 12  1  0  0  0  0
 14 11  1  0  0  0  0
 15 10  1  0  0  0  0
 16  7  1  0  0  0  0
 17 16  2  0  0  0  0
 18 17  1  0  0  0  0
 19 15  1  0  0  0  0
  4  3  1  0  0  0  0
 18 15  2  0  0  0  0
 12  8  1  0  0  0  0
M  END
> <IDNUMBER>
F2211-0003

> <Chemical_Name>
6-amino-2-(3-methylphenyl)-4H-chromen-4-one

> <CAS>
923184-83-2

> <PriceCoeff>
1.00

> <MW>
251.28

> <Description>
solid

> <FSP3>
0.06

> <clogP>
3.13

> <TPSA>
52.32

> <Acceptor>
3

> <Donor>
1

> <RotBonds>
1

> <HAC>
19

> <Collection>
General

> <Reference_compound>
CHEMBL275638

> <Similarity>
0.8780

$$$$
F3023-1012
  -ISIS-  06222321152D

 28 31  0  0  0  0  0  0  0  0999 V2000
    4.2542   -6.4542    0.0000 N   0  0  3  0  0  0  0  0  0  0  0  0
    4.6667   -5.8792    0.0000 C   0  0  0  0  0  0  0  0  0  0  0  0
    4.6750   -7.0250    0.0000 C   0  0  0  0  0  0  0  0  0  0  0  0
    3.5417   -6.4542    0.0000 C   0  0  0  0  0  0  0  0  0  0  0  0
    5.3500   -6.8042    0.0000 C   0  0  3  0  0  0  0  0  0  0  0  0
    5.3417   -6.0917    0.0000 C   0  0  0  0  0  0  0  0  0  0  0  0
    3.2000   -7.0750    0.0000 C   0  0  0  0  0  0  0  0  0  0  0  0
    8.5125   -6.0625    0.0000 N   0  0  3  0  0  0  0  0  0  0  0  0
    5.9167   -7.2167    0.0000 N   0  0  0  0  0  0  0  0  0  0  0  0
    4.4417   -5.2042    0.0000 O   0  0  0  0  0  0  0  0  0  0  0  0
    7.8625   -6.3542    0.0000 C   0  0  0  0  0  0  0  0  0  0  0  0
    4.4625   -7.7000    0.0000 O   0  0  0  0  0  0  0  0  0  0  0  0
    2.4917   -7.0792    0.0000 C   0  0  0  0  0  0  0  0  0  0  0  0
    7.2792   -5.9375    0.0000 C   0  0  0  0  0  0  0  0  0  0  0  0
    7.7917   -7.0542    0.0000 C   0  0  0  0  0  0  0  0  0  0  0  0
    6.5667   -6.9292    0.0000 C   0  0  0  0  0  0  0  0  0  0  0  0
    3.1917   -5.8417    0.0000 C   0  0  0  0  0  0  0  0  0  0  0  0
    7.1417   -7.3417    0.0000 C   0  0  0  0  0  0  0  0  0  0  0  0
    6.6375   -6.2250    0.0000 C   0  0  0  0  0  0  0  0  0  0  0  0
    8.5792   -5.3542    0.0000 C   0  0  0  0  0  0  0  0  0  0  0  0
    9.0875   -6.4792    0.0000 C   0  0  0  0  0  0  0  0  0  0  0  0
    3.5625   -7.6792    0.0000 C   0  0  0  0  0  0  0  0  0  0  0  0
    2.4792   -5.8500    0.0000 C   0  0  0  0  0  0  0  0  0  0  0  0
    2.1292   -6.4667    0.0000 C   0  0  0  0  0  0  0  0  0  0  0  0
    2.1417   -7.7000    0.0000 C   0  0  0  0  0  0  0  0  0  0  0  0
    9.7292   -6.1917    0.0000 C   0  0  0  0  0  0  0  0  0  0  0  0
    9.2292   -5.0667    0.0000 C   0  0  0  0  0  0  0  0  0  0  0  0
    9.8125   -5.4875    0.0000 C   0  0  0  0  0  0  0  0  0  0  0  0
  2  1  1  0  0  0  0
  3  1  1  0  0  0  0
  4  1  1  0  0  0  0
  5  3  1  0  0  0  0
  6  2  1  0  0  0  0
  7  4  1  0  0  0  0
  8 11  1  0  0  0  0
  9  5  1  0  0  0  0
 10  2  2  0  0  0  0
 11 14  1  0  0  0  0
 12  3  2  0  0  0  0
 13  7  2  0  0  0  0
 14 19  2  0  0  0  0
 15 18  1  0  0  0  0
 16  9  1  0  0  0  0
 17  4  2  0  0  0  0
 18 16  2  0  0  0  0
 19 16  1  0  0  0  0
 20  8  1  0  0  0  0
 21  8  1  0  0  0  0
 22  7  1  0  0  0  0
 23 17  1  0  0  0  0
 24 23  2  0  0  0  0
 25 13  1  0  0  0  0
 26 21  1  0  0  0  0
 27 20  1  0  0  0  0
 28 26  1  0  0  0  0
  6  5  1  0  0  0  0
 24 13  1  0  0  0  0
 11 15  2  0  0  0  0
 28 27  1  0  0  0  0
M  END
> <IDNUMBER>
F3023-1012

> <Chemical_Name>
1-(2,3-dimethylphenyl)-3-{[4-(piperidin-1-yl)phenyl]amino}pyrrolidine-2,5-dione

> <CAS>
1009706-36-8

> <PriceCoeff>
1.00

> <MW>
377.48

> <Description>
solid

> <FSP3>
0.39

> <clogP>
3.87

> <TPSA>
52.65

> <Acceptor>
4

> <Donor>
2

> <RotBonds>
4

> <HAC>
28

> <Collection>
General

$$$$
F6064-3978
  -ISIS-  06222321152D

 30 33  0  0  0  0  0  0  0  0999 V2000
   -1.3833    4.8667    0.0000 N   0  0  0  0  0  0  0  0  0  0  0  0
   -2.1375    5.2042    0.0000 C   0  0  0  0  0  0  0  0  0  0  0  0
   -3.8625    4.2125    0.0000 N   0  0  3  0  0  0  0  0  0  0  0  0
   -0.8250    5.4792    0.0000 C   0  0  0  0  0  0  0  0  0  0  0  0
   -4.5833    3.8000    0.0000 C   0  0  0  0  0  0  0  0  0  0  0  0
   -1.2458    6.2042    0.0000 N   0  0  0  0  0  0  0  0  0  0  0  0
   -2.8583    4.7917    0.0000 C   0  0  3  0  0  0  0  0  0  0  0  0
   -2.0500    6.0250    0.0000 O   0  0  0  0  0  0  0  0  0  0  0  0
   -3.0708    4.0000    0.0000 C   0  0  0  0  0  0  0  0  0  0  0  0
   -3.6500    5.0042    0.0000 C   0  0  0  0  0  0  0  0  0  0  0  0
   -4.5833    2.9833    0.0000 N   0  0  0  0  0  0  0  0  0  0  0  0
    1.4792    3.8125    0.0000 C   0  0  0  0  0  0  0  0  0  0  0  0
   -0.0083    5.4042    0.0000 C   0  0  0  0  0  0  0  0  0  0  0  0
    1.1417    4.5625    0.0000 C   0  0  0  0  0  0  0  0  0  0  0  0
   -6.0042    1.3375    0.0000 C   0  0  0  0  0  0  0  0  0  0  0  0
    0.3292    4.6417    0.0000 C   0  0  0  0  0  0  0  0  0  0  0  0
   -5.3083    1.7458    0.0000 C   0  0  0  0  0  0  0  0  0  0  0  0
   -5.3000    2.5833    0.0000 C   0  0  0  0  0  0  0  0  0  0  0  0
   -5.3000    4.2125    0.0000 O   0  0  0  0  0  0  0  0  0  0  0  0
   -6.7167    1.7458    0.0000 C   0  0  0  0  0  0  0  0  0  0  0  0
    2.3042    3.7333    0.0000 O   0  0  0  0  0  0  0  0  0  0  0  0
    1.0000    3.1458    0.0000 N   0  0  0  0  0  0  0  0  0  0  0  0
   -6.7167    2.5708    0.0000 C   0  0  0  0  0  0  0  0  0  0  0  0
   -6.0042    0.5083    0.0000 Cl  0  0  0  0  0  0  0  0  0  0  0  0
   -6.0042    2.9833    0.0000 C   0  0  0  0  0  0  0  0  0  0  0  0
   -7.4417    1.3250    0.0000 Cl  0  0  0  0  0  0  0  0  0  0  0  0
    0.4750    6.0667    0.0000 C   0  0  0  0  0  0  0  0  0  0  0  0
    1.6292    5.2292    0.0000 C   0  0  0  0  0  0  0  0  0  0  0  0
    1.2917    5.9792    0.0000 C   0  0  0  0  0  0  0  0  0  0  0  0
    1.3292    2.3958    0.0000 C   0  0  0  0  0  0  0  0  0  0  0  0
  2  1  2  0  0  0  0
  3 10  1  0  0  0  0
  4  1  1  0  0  0  0
  5  3  1  0  0  0  0
  6  4  2  0  0  0  0
  7  2  1  0  0  0  0
  8  2  1  0  0  0  0
  9  7  1  0  0  0  0
 10  7  1  0  0  0  0
 11  5  1  0  0  0  0
 12 14  1  0  0  0  0
 13  4  1  0  0  0  0
 14 16  1  0  0  0  0
 15 17  1  0  0  0  0
 16 13  2  0  0  0  0
 17 18  2  0  0  0  0
 18 11  1  0  0  0  0
 19  5  2  0  0  0  0
 20 23  1  0  0  0  0
 21 12  2  0  0  0  0
 22 12  1  0  0  0  0
 23 25  2  0  0  0  0
 24 15  1  0  0  0  0
 25 18  1  0  0  0  0
 26 20  1  0  0  0  0
 27 13  1  0  0  0  0
 28 29  1  0  0  0  0
 29 27  2  0  0  0  0
 30 22  1  0  0  0  0
  6  8  1  0  0  0  0
  3  9  1  0  0  0  0
 14 28  2  0  0  0  0
 15 20  2  0  0  0  0
M  END
> <IDNUMBER>
F6064-3978

> <Chemical_Name>
N-(3,4-dichlorophenyl)-3-{3-[3-(methylcarbamoyl)phenyl]-1,2,4-oxadiazol-5-yl}azetidine-1-carboxamide

> <CAS>
1396802-36-0

> <PriceCoeff>
1.00

> <MW>
446.29

> <Description>
solid

> <FSP3>
0.20

> <clogP>
2.12

> <TPSA>
100.36

> <Acceptor>
5

> <Donor>
2

> <RotBonds>
5

> <HAC>
30

> <Collection>
General

$$$$
F3023-0404
  -ISIS-  06222321442D

 27 30  0  0  0  0  0  0  0  0999 V2000
    9.9542   -6.1542    0.0000 N   0  0  3  0  0  0  0  0  0  0  0  0
    9.5375   -5.5750    0.0000 C   0  0  0  0  0  0  0  0  0  0  0  0
    9.5292   -6.7375    0.0000 C   0  0  0  0  0  0  0  0  0  0  0  0
    8.8500   -6.5042    0.0000 C   0  0  3  0  0  0  0  0  0  0  0  0
    8.8542   -5.7917    0.0000 C   0  0  0  0  0  0  0  0  0  0  0  0
   12.8167   -6.1750    0.0000 N   0  0  3  0  0  0  0  0  0  0  0  0
    8.2667   -6.9292    0.0000 N   0  0  0  0  0  0  0  0  0  0  0  0
   10.6750   -6.1625    0.0000 C   0  0  0  0  0  0  0  0  0  0  0  0
   12.1042   -6.1667    0.0000 C   0  0  0  0  0  0  0  0  0  0  0  0
    9.7625   -4.8917    0.0000 O   0  0  0  0  0  0  0  0  0  0  0  0
    9.7500   -7.4167    0.0000 O   0  0  0  0  0  0  0  0  0  0  0  0
   11.0292   -5.5417    0.0000 C   0  0  0  0  0  0  0  0  0  0  0  0
   11.0167   -6.7875    0.0000 C   0  0  0  0  0  0  0  0  0  0  0  0
   11.7417   -6.7917    0.0000 C   0  0  0  0  0  0  0  0  0  0  0  0
   11.7417   -5.5417    0.0000 C   0  0  0  0  0  0  0  0  0  0  0  0
    7.6167   -6.6292    0.0000 C   0  0  0  0  0  0  0  0  0  0  0  0
    6.3167   -6.0417    0.0000 C   0  0  0  0  0  0  0  0  0  0  0  0
    7.5500   -5.9167    0.0000 C   0  0  0  0  0  0  0  0  0  0  0  0
    7.0417   -7.0500    0.0000 C   0  0  0  0  0  0  0  0  0  0  0  0
    6.3875   -6.7542    0.0000 C   0  0  0  0  0  0  0  0  0  0  0  0
    6.9000   -5.6250    0.0000 C   0  0  0  0  0  0  0  0  0  0  0  0
   13.1667   -6.8000    0.0000 C   0  0  0  0  0  0  0  0  0  0  0  0
   13.1792   -5.5542    0.0000 C   0  0  0  0  0  0  0  0  0  0  0  0
    5.6625   -5.7417    0.0000 C   0  0  0  0  0  0  0  0  0  0  0  0
   13.8917   -5.5625    0.0000 C   0  0  0  0  0  0  0  0  0  0  0  0
   13.8875   -6.8042    0.0000 C   0  0  0  0  0  0  0  0  0  0  0  0
   14.2500   -6.1792    0.0000 C   0  0  0  0  0  0  0  0  0  0  0  0
  2  1  1  0  0  0  0
  3  1  1  0  0  0  0
  4  3  1  0  0  0  0
  5  2  1  0  0  0  0
  6  9  1  0  0  0  0
  7  4  1  0  0  0  0
  8  1  1  0  0  0  0
  9 14  2  0  0  0  0
 10  2  2  0  0  0  0
 11  3  2  0  0  0  0
 12  8  1  0  0  0  0
 13  8  2  0  0  0  0
 14 13  1  0  0  0  0
 15 12  2  0  0  0  0
 16  7  1  0  0  0  0
 17 20  1  0  0  0  0
 18 16  2  0  0  0  0
 19 16  1  0  0  0  0
 20 19  2  0  0  0  0
 21 18  1  0  0  0  0
 22  6  1  0  0  0  0
 23  6  1  0  0  0  0
 24 17  1  0  0  0  0
 25 23  1  0  0  0  0
 26 22  1  0  0  0  0
 27 25  1  0  0  0  0
  4  5  1  0  0  0  0
  9 15  1  0  0  0  0
 17 21  2  0  0  0  0
 27 26  1  0  0  0  0
M  END
> <IDNUMBER>
F3023-0404

> <Chemical_Name>
3-[(4-methylphenyl)amino]-1-[4-(piperidin-1-yl)phenyl]pyrrolidine-2,5-dione

> <CAS>
1008061-51-5

> <PriceCoeff>
1.00

> <MW>
363.45

> <Description>
solid

> <FSP3>
0.36

> <clogP>
3.82

> <TPSA>
52.65

> <Acceptor>
4

> <Donor>
2

> <RotBonds>
4

> <HAC>
27

> <Collection>
General

$$$$
F2146-0750
  -ISIS-  06222304352D

 28 29  0  0  0  0  0  0  0  0999 V2000
    4.2458   -3.2667    0.0000 C   0  0  0  0  0  0  0  0  0  0  0  0
    3.9875   -4.0542    0.0000 N   0  0  3  0  0  0  0  0  0  0  0  0
    3.5875   -2.7792    0.0000 S   0  0  0  0  0  0  0  0  0  0  0  0
    3.1625   -4.0542    0.0000 C   0  0  0  0  0  0  0  0  0  0  0  0
    2.9083   -3.2667    0.0000 C   0  0  0  0  0  0  0  0  0  0  0  0
    5.0375   -3.0125    0.0000 N   0  0  0  0  0  0  0  0  0  0  0  0
    2.6083   -4.6667    0.0000 C   0  0  0  0  0  0  0  0  0  0  0  0
    4.4792   -4.7292    0.0000 C   0  0  0  0  0  0  0  0  0  0  0  0
    2.1000   -3.0917    0.0000 C   0  0  0  0  0  0  0  0  0  0  0  0
    2.8625   -5.4458    0.0000 O   0  0  0  0  0  0  0  0  0  0  0  0
    1.5417   -3.7083    0.0000 C   0  0  0  0  0  0  0  0  0  0  0  0
    4.6292   -6.1625    0.0000 O   0  0  0  0  0  0  0  0  0  0  0  0
    1.8042   -4.4917    0.0000 C   0  0  0  0  0  0  0  0  0  0  0  0
    4.1417   -5.4875    0.0000 C   0  0  0  0  0  0  0  0  0  0  0  0
    2.3333   -6.1208    0.0000 C   0  0  0  0  0  0  0  0  0  0  0  0
    4.2917   -6.9208    0.0000 C   0  0  0  0  0  0  0  0  0  0  0  0
    2.6417   -6.8875    0.0000 C   0  0  0  0  0  0  0  0  0  0  0  0
    8.0723   -3.7829    0.0000 S   0  0  3  0  0  0  0  0  0  0  0  0
    7.6695   -4.4927    0.0000 C   0  0  0  0  0  0  0  0  0  0  0  0
    7.3614   -3.3616    0.0000 O   0  0  0  0  0  0  0  0  0  0  0  0
    8.4781   -3.0618    0.0000 O   0  0  0  0  0  0  0  0  0  0  0  0
    8.7935   -4.1887    0.0000 O   0  0  0  0  0  0  0  0  0  0  0  0
    8.0849   -5.2103    0.0000 C   0  0  0  0  0  0  0  0  0  0  0  0
    6.8390   -4.4969    0.0000 C   0  0  0  0  0  0  0  0  0  0  0  0
    7.6678   -5.9285    0.0000 C   0  0  0  0  0  0  0  0  0  0  0  0
    6.4311   -5.2144    0.0000 C   0  0  0  0  0  0  0  0  0  0  0  0
    6.8445   -5.9284    0.0000 C   0  0  0  0  0  0  0  0  0  0  0  0
    6.4309   -6.6445    0.0000 C   0  0  0  0  0  0  0  0  0  0  0  0
 13  7  2  0  0  0  0
 14  8  1  0  0  0  0
 15 10  1  0  0  0  0
 16 12  1  0  0  0  0
 17 15  1  0  0  0  0
  5  4  2  0  0  0  0
 13 11  1  0  0  0  0
  2  1  1  0  0  0  0
  3  1  1  0  0  0  0
  4  2  1  0  0  0  0
  5  3  1  0  0  0  0
  6  1  2  0  0  0  0
  7  4  1  0  0  0  0
  8  2  1  0  0  0  0
  9  5  1  0  0  0  0
 10  7  1  0  0  0  0
 11  9  2  0  0  0  0
 12 14  1  0  0  0  0
 19 18  1  0  0  0  0
 20 18  2  0  0  0  0
 21 18  2  0  0  0  0
 22 18  1  0  0  0  0
 23 19  1  0  0  0  0
 24 19  2  0  0  0  0
 25 23  2  0  0  0  0
 26 24  1  0  0  0  0
 27 26  2  0  0  0  0
 28 27  1  0  0  0  0
 25 27  1  0  0  0  0
M  END
> <IDNUMBER>
F2146-0750

> <Chemical_Name>
4-ethoxy-3-(2-methoxyethyl)-2,3-dihydro-1,3-benzothiazol-2-imine; 4-methylbenzene-1-sulfonic acid

> <CAS>
2034157-44-1

> <PriceCoeff>
1.00

> <MW>
252.33

> <Description>
solid

> <FSP3>
0.42

> <clogP>
3.36

> <TPSA>
70.85

> <Acceptor>
2

> <Donor>
1

> <RotBonds>
5

> <HAC>
17

> <Collection>
General

> <Reference_compound>
PRI5904

> <Similarity>
0.8060

$$$$
F9995-4161
  -ISIS-  06222321162D

 17 18  0  0  0  0  0  0  0  0999 V2000
    4.8042    0.1958    0.0000 C   0  0  0  0  0  0  0  0  0  0  0  0
    4.0917   -0.2208    0.0000 C   0  0  0  0  0  0  0  0  0  0  0  0
    3.3792    0.1833    0.0000 C   0  0  0  0  0  0  0  0  0  0  0  0
    4.8042    1.0208    0.0000 O   0  0  0  0  0  0  0  0  0  0  0  0
    2.6750   -0.2375    0.0000 C   0  0  0  0  0  0  0  0  0  0  0  0
    1.9542    0.1708    0.0000 O   0  0  0  0  0  0  0  0  0  0  0  0
    1.2417   -0.2417    0.0000 C   0  0  0  0  0  0  0  0  0  0  0  0
    5.5292   -0.2167    0.0000 O   0  0  0  0  0  0  0  0  0  0  0  0
   -0.1833   -1.0750    0.0000 C   0  0  0  0  0  0  0  0  0  0  0  0
    0.5292    0.1708    0.0000 C   0  0  0  0  0  0  0  0  0  0  0  0
    1.2417   -1.0750    0.0000 C   0  0  0  0  0  0  0  0  0  0  0  0
   -0.1833   -0.2500    0.0000 C   0  0  0  0  0  0  0  0  0  0  0  0
    0.5292   -1.4875    0.0000 C   0  0  0  0  0  0  0  0  0  0  0  0
    4.1042   -1.0542    0.0000 C   0  0  0  0  0  0  0  0  0  0  0  0
    3.3875   -1.4667    0.0000 C   0  0  0  0  0  0  0  0  0  0  0  0
    2.6750   -1.0625    0.0000 C   0  0  0  0  0  0  0  0  0  0  0  0
   -0.9000   -1.4875    0.0000 C   0  0  0  0  0  0  0  0  0  0  0  0
  2  1  1  0  0  0  0
  3  2  2  0  0  0  0
  4  1  2  0  0  0  0
  5  3  1  0  0  0  0
  6  5  1  0  0  0  0
  7  6  1  0  0  0  0
  8  1  1  0  0  0  0
  9 13  1  0  0  0  0
 10  7  2  0  0  0  0
 11  7  1  0  0  0  0
 12 10  1  0  0  0  0
 13 11  2  0  0  0  0
 14  2  1  0  0  0  0
 15 14  2  0  0  0  0
 16 15  1  0  0  0  0
 17  9  1  0  0  0  0
  5 16  2  0  0  0  0
 12  9  2  0  0  0  0
M  END
> <IDNUMBER>
F9995-4161

> <Chemical_Name>
3-(4-methylphenoxy)benzoic acid

> <CAS>
62507-86-2

> <PriceCoeff>
1.00

> <MW>
228.25

> <Description>
solid

> <FSP3>
0.07

> <clogP>
4.48

> <TPSA>
46.53

> <Acceptor>
3

> <Donor>
0

> <RotBonds>
3

> <HAC>
17

> <Collection>
General

> <Reference_compound>
CHEMBL21932

> <Similarity>
0.8330

$$$$
F1967-2640
  -ISIS-  06222321452D

 14 15  0  0  0  0  0  0  0  0999 V2000
    4.4792   -0.3292    0.0000 C   0  0  0  0  0  0  0  0  0  0  0  0
    4.7417    0.4583    0.0000 N   0  0  0  0  0  0  0  0  0  0  0  0
    3.7000   -0.5875    0.0000 C   0  0  0  0  0  0  0  0  0  0  0  0
    5.1542   -0.8125    0.0000 O   0  0  0  0  0  0  0  0  0  0  0  0
    5.8167   -0.3292    0.0000 C   0  0  0  0  0  0  0  0  0  0  0  0
    5.5667    0.4583    0.0000 C   0  0  0  0  0  0  0  0  0  0  0  0
    3.0875   -0.0333    0.0000 C   0  0  0  0  0  0  0  0  0  0  0  0
    3.2542    0.7708    0.0000 F   0  0  0  0  0  0  0  0  0  0  0  0
    3.5292   -1.3917    0.0000 C   0  0  0  0  0  0  0  0  0  0  0  0
    6.6042   -0.5875    0.0000 C   0  0  0  0  0  0  0  0  0  0  0  0
    6.7750   -1.3917    0.0000 Br  0  0  0  0  0  0  0  0  0  0  0  0
    2.3042   -0.2917    0.0000 C   0  0  0  0  0  0  0  0  0  0  0  0
    2.7542   -1.6500    0.0000 C   0  0  0  0  0  0  0  0  0  0  0  0
    2.1292   -1.1000    0.0000 C   0  0  0  0  0  0  0  0  0  0  0  0
  2  1  2  0  0  0  0
  3  1  1  0  0  0  0
  4  1  1  0  0  0  0
  5  4  1  0  0  0  0
  6  2  1  0  0  0  0
  7  3  2  0  0  0  0
  8  7  1  0  0  0  0
  9  3  1  0  0  0  0
 10  5  1  0  0  0  0
 11 10  1  0  0  0  0
 12  7  1  0  0  0  0
 13  9  2  0  0  0  0
 14 13  1  0  0  0  0
  5  6  2  0  0  0  0
 12 14  2  0  0  0  0
M  END
> <IDNUMBER>
F1967-2640

> <Chemical_Name>
5-(bromomethyl)-2-(2-fluorophenyl)-1,3-oxazole

> <CAS>
2098091-29-1

> <PriceCoeff>
1.00

> <MW>
256.07

> <Description>
solid

> <FSP3>
0.10

> <clogP>
2.86

> <TPSA>
26.03

> <Acceptor>
2

> <Donor>
0

> <RotBonds>
2

> <HAC>
14

> <Collection>
General

> <Reference_compound>
CHEMBL2271305

> <Similarity>
0.8120

$$$$
F2146-0727
  -ISIS-  06222304352D

 30 31  0  0  0  0  0  0  0  0999 V2000
    4.9250   -3.5625    0.0000 C   0  0  0  0  0  0  0  0  0  0  0  0
    4.6625   -4.3458    0.0000 N   0  0  3  0  0  0  0  0  0  0  0  0
    4.2625   -3.0750    0.0000 S   0  0  0  0  0  0  0  0  0  0  0  0
    3.5875   -3.5625    0.0000 C   0  0  0  0  0  0  0  0  0  0  0  0
    3.8375   -4.3458    0.0000 C   0  0  0  0  0  0  0  0  0  0  0  0
    1.4125   -3.8292    0.0000 C   0  0  0  0  0  0  0  0  0  0  0  0
    2.7792   -3.3792    0.0000 C   0  0  0  0  0  0  0  0  0  0  0  0
    2.2208   -4.0000    0.0000 C   0  0  0  0  0  0  0  0  0  0  0  0
    5.7167   -3.3042    0.0000 N   0  0  0  0  0  0  0  0  0  0  0  0
    3.2875   -4.9583    0.0000 C   0  0  0  0  0  0  0  0  0  0  0  0
    2.4833   -4.7833    0.0000 C   0  0  0  0  0  0  0  0  0  0  0  0
    0.8583   -4.4458    0.0000 O   0  0  0  0  0  0  0  0  0  0  0  0
    5.1583   -5.0167    0.0000 C   0  0  0  0  0  0  0  0  0  0  0  0
    1.1542   -3.0458    0.0000 O   0  0  0  0  0  0  0  0  0  0  0  0
    4.0292   -5.8667    0.0000 O   0  0  0  0  0  0  0  0  0  0  0  0
    4.8208   -5.7792    0.0000 C   0  0  0  0  0  0  0  0  0  0  0  0
    3.6667   -6.6208    0.0000 C   0  0  0  0  0  0  0  0  0  0  0  0
    1.7042   -2.4292    0.0000 C   0  0  0  0  0  0  0  0  0  0  0  0
    2.8417   -6.6833    0.0000 C   0  0  0  0  0  0  0  0  0  0  0  0
    8.7515   -3.5454    0.0000 S   0  0  3  0  0  0  0  0  0  0  0  0
    8.3487   -4.2552    0.0000 C   0  0  0  0  0  0  0  0  0  0  0  0
    8.0406   -3.1241    0.0000 O   0  0  0  0  0  0  0  0  0  0  0  0
    9.1573   -2.8243    0.0000 O   0  0  0  0  0  0  0  0  0  0  0  0
    9.4727   -3.9512    0.0000 O   0  0  0  0  0  0  0  0  0  0  0  0
    8.7641   -4.9728    0.0000 C   0  0  0  0  0  0  0  0  0  0  0  0
    7.5182   -4.2594    0.0000 C   0  0  0  0  0  0  0  0  0  0  0  0
    8.3470   -5.6910    0.0000 C   0  0  0  0  0  0  0  0  0  0  0  0
    7.1103   -4.9769    0.0000 C   0  0  0  0  0  0  0  0  0  0  0  0
    7.5237   -5.6909    0.0000 C   0  0  0  0  0  0  0  0  0  0  0  0
    7.1101   -6.4070    0.0000 C   0  0  0  0  0  0  0  0  0  0  0  0
 13  2  1  0  0  0  0
 14  6  1  0  0  0  0
 15 16  1  0  0  0  0
 16 13  1  0  0  0  0
 17 15  1  0  0  0  0
 18 14  1  0  0  0  0
 19 17  1  0  0  0  0
  4  5  2  0  0  0  0
 11  8  1  0  0  0  0
  2  1  1  0  0  0  0
  3  1  1  0  0  0  0
  4  3  1  0  0  0  0
  5  2  1  0  0  0  0
  6  8  1  0  0  0  0
  7  4  1  0  0  0  0
  8  7  2  0  0  0  0
  9  1  2  0  0  0  0
 10  5  1  0  0  0  0
 11 10  2  0  0  0  0
 12  6  2  0  0  0  0
 21 20  1  0  0  0  0
 22 20  2  0  0  0  0
 23 20  2  0  0  0  0
 24 20  1  0  0  0  0
 25 21  1  0  0  0  0
 26 21  2  0  0  0  0
 27 25  2  0  0  0  0
 28 26  1  0  0  0  0
 29 28  2  0  0  0  0
 30 29  1  0  0  0  0
 27 29  1  0  0  0  0
M  END
> <IDNUMBER>
F2146-0727

> <Chemical_Name>
4-methylbenzene-1-sulfonic acid; methyl 3-(2-ethoxyethyl)-2-imino-2,3-dihydro-1,3-benzothiazole-6-carboxylate

> <CAS>
2034154-18-0

> <PriceCoeff>
1.00

> <MW>
280.34

> <Description>
solid

> <FSP3>
0.38

> <clogP>
3.27

> <TPSA>
87.92

> <Acceptor>
3

> <Donor>
1

> <RotBonds>
6

> <HAC>
19

> <Collection>
General

> <Reference_compound>
PRI5904

> <Similarity>
0.8060

$$$$
F0758-0033
  -ISIS-  06222321452D

 19 21  0  0  0  0  0  0  0  0999 V2000
    0.0292    0.7000    0.0000 C   0  0  0  0  0  0  0  0  0  0  0  0
   -0.7958    0.2208    0.0000 C   0  0  0  0  0  0  0  0  0  0  0  0
    0.0292    1.6458    0.0000 C   0  0  0  0  0  0  0  0  0  0  0  0
   -1.6125    0.7000    0.0000 C   0  0  0  0  0  0  0  0  0  0  0  0
   -1.6125    1.6458    0.0000 C   0  0  0  0  0  0  0  0  0  0  0  0
   -0.7958    2.1000    0.0000 O   0  0  0  0  0  0  0  0  0  0  0  0
   -2.4125    2.1000    0.0000 C   0  0  0  0  0  0  0  0  0  0  0  0
   -2.4125    0.2208    0.0000 C   0  0  0  0  0  0  0  0  0  0  0  0
   -0.7958   -0.7167    0.0000 O   0  0  0  0  0  0  0  0  0  0  0  0
    0.8500    0.2208    0.0000 C   0  0  0  0  0  0  0  0  0  0  0  0
   -3.2333    1.6458    0.0000 C   0  0  0  0  0  0  0  0  0  0  0  0
   -3.2333    0.7000    0.0000 C   0  0  0  0  0  0  0  0  0  0  0  0
    0.8500    2.1208    0.0000 C   0  0  0  0  0  0  0  0  0  0  0  0
   -4.0500    2.1208    0.0000 O   0  0  0  0  0  0  0  0  0  0  0  0
    0.8292   -0.7167    0.0000 C   0  0  0  0  0  0  0  0  0  0  0  0
    1.6667    0.7000    0.0000 C   0  0  0  0  0  0  0  0  0  0  0  0
    2.4667    0.2208    0.0000 C   0  0  0  0  0  0  0  0  0  0  0  0
    1.6500   -1.2000    0.0000 C   0  0  0  0  0  0  0  0  0  0  0  0
    2.4667   -0.7375    0.0000 C   0  0  0  0  0  0  0  0  0  0  0  0
  2  1  1  0  0  0  0
  3  1  2  0  0  0  0
  4  2  1  0  0  0  0
  5  6  1  0  0  0  0
  6  3  1  0  0  0  0
  7  5  1  0  0  0  0
  8  4  1  0  0  0  0
  9  2  2  0  0  0  0
 10  1  1  0  0  0  0
 11  7  2  0  0  0  0
 12  8  2  0  0  0  0
 13  3  1  0  0  0  0
 14 11  1  0  0  0  0
 15 10  1  0  0  0  0
 16 10  2  0  0  0  0
 17 16  1  0  0  0  0
 18 15  2  0  0  0  0
 19 17  2  0  0  0  0
  5  4  2  0  0  0  0
 18 19  1  0  0  0  0
 11 12  1  0  0  0  0
M  END
> <IDNUMBER>
F0758-0033

> <Chemical_Name>
7-hydroxy-2-methyl-3-phenyl-4H-chromen-4-one

> <CAS>
2859-88-3

> <PriceCoeff>
1.00

> <MW>
252.26

> <Description>
solid

> <FSP3>
0.06

> <clogP>
2.91

> <TPSA>
46.53

> <Acceptor>
3

> <Donor>
1

> <RotBonds>
1

> <HAC>
19

> <Collection>
General

> <Reference_compound>
CHEMBL44

> <Similarity>
0.8220

$$$$
F3023-1003
  -ISIS-  06222321462D

 27 30  0  0  0  0  0  0  0  0999 V2000
    4.2542   -6.4542    0.0000 N   0  0  3  0  0  0  0  0  0  0  0  0
    4.6667   -5.8792    0.0000 C   0  0  0  0  0  0  0  0  0  0  0  0
    4.6750   -7.0250    0.0000 C   0  0  0  0  0  0  0  0  0  0  0  0
    5.3500   -6.8042    0.0000 C   0  0  3  0  0  0  0  0  0  0  0  0
    5.3417   -6.0917    0.0000 C   0  0  0  0  0  0  0  0  0  0  0  0
    8.5125   -6.0625    0.0000 N   0  0  3  0  0  0  0  0  0  0  0  0
    5.9167   -7.2167    0.0000 N   0  0  0  0  0  0  0  0  0  0  0  0
    3.5417   -6.4542    0.0000 C   0  0  0  0  0  0  0  0  0  0  0  0
    4.4417   -5.2042    0.0000 O   0  0  0  0  0  0  0  0  0  0  0  0
    7.8625   -6.3542    0.0000 C   0  0  0  0  0  0  0  0  0  0  0  0
    4.4625   -7.7000    0.0000 O   0  0  0  0  0  0  0  0  0  0  0  0
    3.1917   -5.8417    0.0000 C   0  0  0  0  0  0  0  0  0  0  0  0
    3.2000   -7.0750    0.0000 C   0  0  0  0  0  0  0  0  0  0  0  0
    7.2792   -5.9375    0.0000 C   0  0  0  0  0  0  0  0  0  0  0  0
    7.7917   -7.0542    0.0000 C   0  0  0  0  0  0  0  0  0  0  0  0
    6.5667   -6.9292    0.0000 C   0  0  0  0  0  0  0  0  0  0  0  0
    6.6375   -6.2250    0.0000 C   0  0  0  0  0  0  0  0  0  0  0  0
    7.1417   -7.3417    0.0000 C   0  0  0  0  0  0  0  0  0  0  0  0
    2.4917   -7.0792    0.0000 C   0  0  0  0  0  0  0  0  0  0  0  0
    2.4792   -5.8500    0.0000 C   0  0  0  0  0  0  0  0  0  0  0  0
    2.1292   -6.4667    0.0000 C   0  0  0  0  0  0  0  0  0  0  0  0
    8.5792   -5.3542    0.0000 C   0  0  0  0  0  0  0  0  0  0  0  0
    9.0875   -6.4792    0.0000 C   0  0  0  0  0  0  0  0  0  0  0  0
    1.4250   -6.4667    0.0000 C   0  0  0  0  0  0  0  0  0  0  0  0
    9.2292   -5.0667    0.0000 C   0  0  0  0  0  0  0  0  0  0  0  0
    9.7292   -6.1917    0.0000 C   0  0  0  0  0  0  0  0  0  0  0  0
    9.8125   -5.4875    0.0000 C   0  0  0  0  0  0  0  0  0  0  0  0
  2  1  1  0  0  0  0
  3  1  1  0  0  0  0
  4  3  1  0  0  0  0
  5  2  1  0  0  0  0
  6 10  1  0  0  0  0
  7  4  1  0  0  0  0
  8  1  1  0  0  0  0
  9  2  2  0  0  0  0
 10 15  2  0  0  0  0
 11  3  2  0  0  0  0
 12  8  2  0  0  0  0
 13  8  1  0  0  0  0
 14 17  2  0  0  0  0
 15 18  1  0  0  0  0
 16  7  1  0  0  0  0
 17 16  1  0  0  0  0
 18 16  2  0  0  0  0
 19 13  2  0  0  0  0
 20 12  1  0  0  0  0
 21 19  1  0  0  0  0
 22  6  1  0  0  0  0
 23  6  1  0  0  0  0
 24 21  1  0  0  0  0
 25 22  1  0  0  0  0
 26 23  1  0  0  0  0
 27 26  1  0  0  0  0
  5  4  1  0  0  0  0
 21 20  2  0  0  0  0
 14 10  1  0  0  0  0
 27 25  1  0  0  0  0
M  END
> <IDNUMBER>
F3023-1003

> <Chemical_Name>
1-(4-methylphenyl)-3-{[4-(piperidin-1-yl)phenyl]amino}pyrrolidine-2,5-dione

> <CAS>
1008189-06-7

> <PriceCoeff>
1.00

> <MW>
363.45

> <Description>
solid

> <FSP3>
0.36

> <clogP>
3.82

> <TPSA>
52.65

> <Acceptor>
4

> <Donor>
2

> <RotBonds>
4

> <HAC>
27

> <Collection>
General

$$$$
F1799-0313
  -ISIS-  06222321142D

 26 29  0  0  0  0  0  0  0  0999 V2000
    0.0667    0.4958    0.0000 N   0  0  3  0  0  0  0  0  0  0  0  0
   -0.4500    0.8333    0.0000 C   0  0  0  0  0  0  0  0  0  0  0  0
   -0.1125   -0.1292    0.0000 C   0  0  0  0  0  0  0  0  0  0  0  0
   -0.9500    0.4500    0.0000 C   0  0  3  0  0  0  0  0  0  0  0  0
   -0.7333   -0.1500    0.0000 C   0  0  0  0  0  0  0  0  0  0  0  0
    0.6500    0.7333    0.0000 C   0  0  0  0  0  0  0  0  0  0  0  0
   -1.5500    0.6125    0.0000 N   0  0  3  0  0  0  0  0  0  0  0  0
   -2.7958    0.9333    0.0000 N   0  0  3  0  0  0  0  0  0  0  0  0
    1.1667    0.3500    0.0000 C   0  0  0  0  0  0  0  0  0  0  0  0
   -0.4708    1.4708    0.0000 O   0  0  0  0  0  0  0  0  0  0  0  0
    0.2875   -0.6500    0.0000 O   0  0  0  0  0  0  0  0  0  0  0  0
   -2.0125    0.1500    0.0000 C   0  0  0  0  0  0  0  0  0  0  0  0
   -1.7125    1.2125    0.0000 C   0  0  0  0  0  0  0  0  0  0  0  0
   -2.6125    0.3125    0.0000 C   0  0  0  0  0  0  0  0  0  0  0  0
   -2.3333    1.3958    0.0000 C   0  0  0  0  0  0  0  0  0  0  0  0
   -3.3958    1.0708    0.0000 C   0  0  0  0  0  0  0  0  0  0  0  0
    1.7500    0.6125    0.0000 C   0  0  0  0  0  0  0  0  0  0  0  0
    0.7042    1.3708    0.0000 C   0  0  0  0  0  0  0  0  0  0  0  0
    2.2667    0.2333    0.0000 Cl  0  0  0  0  0  0  0  0  0  0  0  0
    1.2875    1.6333    0.0000 C   0  0  0  0  0  0  0  0  0  0  0  0
   -3.5958    1.6708    0.0000 C   0  0  0  0  0  0  0  0  0  0  0  0
   -3.8333    0.6125    0.0000 C   0  0  0  0  0  0  0  0  0  0  0  0
    1.8042    1.2708    0.0000 C   0  0  0  0  0  0  0  0  0  0  0  0
   -4.1958    1.8125    0.0000 C   0  0  0  0  0  0  0  0  0  0  0  0
   -4.4333    0.7500    0.0000 C   0  0  0  0  0  0  0  0  0  0  0  0
   -4.6333    1.3500    0.0000 C   0  0  0  0  0  0  0  0  0  0  0  0
  2  1  1  0  0  0  0
  3  1  1  0  0  0  0
  4  2  1  0  0  0  0
  5  3  1  0  0  0  0
  6  1  1  0  0  0  0
  7  4  1  0  0  0  0
  8 15  1  0  0  0  0
  9  6  1  0  0  0  0
 10  2  2  0  0  0  0
 11  3  2  0  0  0  0
 12  7  1  0  0  0  0
 13  7  1  0  0  0  0
 14 12  1  0  0  0  0
 15 13  1  0  0  0  0
 16  8  1  0  0  0  0
 17  9  2  0  0  0  0
 18  6  2  0  0  0  0
 19 17  1  0  0  0  0
 20 18  1  0  0  0  0
 21 16  1  0  0  0  0
 22 16  2  0  0  0  0
 23 20  2  0  0  0  0
 24 21  2  0  0  0  0
 25 22  1  0  0  0  0
 26 25  2  0  0  0  0
  5  4  1  0  0  0  0
 23 17  1  0  0  0  0
 14  8  1  0  0  0  0
 24 26  1  0  0  0  0
M  END
> <IDNUMBER>
F1799-0313

> <Chemical_Name>
1-(3-chlorophenyl)-3-(4-phenylpiperazin-1-yl)pyrrolidine-2,5-dione

> <CAS>
299408-68-7

> <PriceCoeff>
1.00

> <MW>
369.84

> <Description>
solid

> <FSP3>
0.30

> <clogP>
4.14

> <TPSA>
43.86

> <Acceptor>
3

> <Donor>
2

> <RotBonds>
3

> <HAC>
26

> <Collection>
General

$$$$
F3205-0099
  -ISIS-  06222321152D

 25 27  0  0  0  0  0  0  0  0999 V2000
    1.6667   -0.1167    0.0000 N   0  0  3  0  0  0  0  0  0  0  0  0
    2.1542    0.5458    0.0000 C   0  0  0  0  0  0  0  0  0  0  0  0
    2.1542   -0.7875    0.0000 C   0  0  0  0  0  0  0  0  0  0  0  0
    2.9292   -0.5375    0.0000 C   0  0  3  0  0  0  0  0  0  0  0  0
    2.9375    0.2958    0.0000 C   0  0  0  0  0  0  0  0  0  0  0  0
    3.6417   -0.9417    0.0000 N   0  0  0  0  0  0  0  0  0  0  0  0
    0.8417   -0.1167    0.0000 C   0  0  0  0  0  0  0  0  0  0  0  0
    1.9000    1.3333    0.0000 O   0  0  0  0  0  0  0  0  0  0  0  0
    1.8917   -1.5750    0.0000 O   0  0  0  0  0  0  0  0  0  0  0  0
    5.7875    0.2875    0.0000 C   0  0  0  0  0  0  0  0  0  0  0  0
    6.5000    0.7083    0.0000 N   0  0  3  0  0  0  0  0  0  0  0  0
    0.4292   -0.8292    0.0000 C   0  0  0  0  0  0  0  0  0  0  0  0
    0.4292    0.5958    0.0000 C   0  0  0  0  0  0  0  0  0  0  0  0
    4.3625   -0.5375    0.0000 C   0  0  0  0  0  0  0  0  0  0  0  0
    5.0750    0.7000    0.0000 C   0  0  0  0  0  0  0  0  0  0  0  0
    5.7875   -0.5375    0.0000 C   0  0  0  0  0  0  0  0  0  0  0  0
    4.3625    0.2875    0.0000 C   0  0  0  0  0  0  0  0  0  0  0  0
    5.0750   -0.9500    0.0000 C   0  0  0  0  0  0  0  0  0  0  0  0
   -0.3958    0.5958    0.0000 C   0  0  0  0  0  0  0  0  0  0  0  0
   -0.3958   -0.8292    0.0000 C   0  0  0  0  0  0  0  0  0  0  0  0
   -0.8083   -0.1167    0.0000 C   0  0  0  0  0  0  0  0  0  0  0  0
    7.2167    0.2958    0.0000 C   0  0  0  0  0  0  0  0  0  0  0  0
    6.5000    1.5333    0.0000 C   0  0  0  0  0  0  0  0  0  0  0  0
   -1.6333   -0.1167    0.0000 C   0  0  0  0  0  0  0  0  0  0  0  0
   -2.0458    0.5958    0.0000 C   0  0  0  0  0  0  0  0  0  0  0  0
  2  1  1  0  0  0  0
  3  1  1  0  0  0  0
  4  3  1  0  0  0  0
  5  2  1  0  0  0  0
  6  4  1  0  0  0  0
  7  1  1  0  0  0  0
  8  2  2  0  0  0  0
  9  3  2  0  0  0  0
 10 16  1  0  0  0  0
 11 10  1  0  0  0  0
 12  7  1  0  0  0  0
 13  7  2  0  0  0  0
 14  6  1  0  0  0  0
 15 17  1  0  0  0  0
 16 18  2  0  0  0  0
 17 14  2  0  0  0  0
 18 14  1  0  0  0  0
 19 13  1  0  0  0  0
 20 12  2  0  0  0  0
 21 19  2  0  0  0  0
 22 11  1  0  0  0  0
 23 11  1  0  0  0  0
 24 21  1  0  0  0  0
 25 24  1  0  0  0  0
  4  5  1  0  0  0  0
 21 20  1  0  0  0  0
 15 10  2  0  0  0  0
M  END
> <IDNUMBER>
F3205-0099

> <Chemical_Name>
3-{[4-(dimethylamino)phenyl]amino}-1-(4-ethylphenyl)pyrrolidine-2,5-dione

> <CAS>
1009338-81-1

> <PriceCoeff>
1.00

> <MW>
337.42

> <Description>
solid

> <FSP3>
0.30

> <clogP>
3.68

> <TPSA>
52.65

> <Acceptor>
4

> <Donor>
2

> <RotBonds>
5

> <HAC>
25

> <Collection>
General

$$$$
F1799-0316
  -ISIS-  06222321442D

 26 29  0  0  0  0  0  0  0  0999 V2000
    0.2792    0.3625    0.0000 N   0  0  3  0  0  0  0  0  0  0  0  0
   -0.3208    0.5833    0.0000 C   0  0  0  0  0  0  0  0  0  0  0  0
    0.2375   -0.2542    0.0000 C   0  0  0  0  0  0  0  0  0  0  0  0
   -0.7000    0.1000    0.0000 C   0  0  3  0  0  0  0  0  0  0  0  0
   -0.3625   -0.4167    0.0000 C   0  0  0  0  0  0  0  0  0  0  0  0
   -1.3208    0.1000    0.0000 N   0  0  3  0  0  0  0  0  0  0  0  0
   -2.5625    0.1000    0.0000 N   0  0  3  0  0  0  0  0  0  0  0  0
    0.7542    0.7208    0.0000 C   0  0  0  0  0  0  0  0  0  0  0  0
   -0.4833    1.1833    0.0000 O   0  0  0  0  0  0  0  0  0  0  0  0
    0.7167   -0.6542    0.0000 O   0  0  0  0  0  0  0  0  0  0  0  0
   -1.6208   -0.4375    0.0000 C   0  0  0  0  0  0  0  0  0  0  0  0
   -1.6208    0.6458    0.0000 C   0  0  0  0  0  0  0  0  0  0  0  0
   -2.2208   -0.4542    0.0000 C   0  0  0  0  0  0  0  0  0  0  0  0
   -2.2458    0.6458    0.0000 C   0  0  0  0  0  0  0  0  0  0  0  0
   -3.1625    0.1208    0.0000 C   0  0  0  0  0  0  0  0  0  0  0  0
    1.3167    0.4833    0.0000 C   0  0  0  0  0  0  0  0  0  0  0  0
    0.7000    1.3458    0.0000 C   0  0  0  0  0  0  0  0  0  0  0  0
    1.7542    1.4625    0.0000 C   0  0  0  0  0  0  0  0  0  0  0  0
    1.2000    1.7000    0.0000 C   0  0  0  0  0  0  0  0  0  0  0  0
    1.8167    0.8458    0.0000 C   0  0  0  0  0  0  0  0  0  0  0  0
    2.2792    1.8208    0.0000 Cl  0  0  0  0  0  0  0  0  0  0  0  0
   -3.4833    0.6458    0.0000 C   0  0  0  0  0  0  0  0  0  0  0  0
   -3.4625   -0.4375    0.0000 C   0  0  0  0  0  0  0  0  0  0  0  0
   -4.0833   -0.4542    0.0000 C   0  0  0  0  0  0  0  0  0  0  0  0
   -4.1000    0.6458    0.0000 C   0  0  0  0  0  0  0  0  0  0  0  0
   -4.4083    0.1208    0.0000 C   0  0  0  0  0  0  0  0  0  0  0  0
  2  1  1  0  0  0  0
  3  1  1  0  0  0  0
  4  2  1  0  0  0  0
  5  3  1  0  0  0  0
  6  4  1  0  0  0  0
  7 14  1  0  0  0  0
  8  1  1  0  0  0  0
  9  2  2  0  0  0  0
 10  3  2  0  0  0  0
 11  6  1  0  0  0  0
 12  6  1  0  0  0  0
 13 11  1  0  0  0  0
 14 12  1  0  0  0  0
 15  7  1  0  0  0  0
 16  8  1  0  0  0  0
 17  8  2  0  0  0  0
 18 19  2  0  0  0  0
 19 17  1  0  0  0  0
 20 16  2  0  0  0  0
 21 18  1  0  0  0  0
 22 15  1  0  0  0  0
 23 15  2  0  0  0  0
 24 23  1  0  0  0  0
 25 22  2  0  0  0  0
 26 24  2  0  0  0  0
  4  5  1  0  0  0  0
 20 18  1  0  0  0  0
  7 13  1  0  0  0  0
 25 26  1  0  0  0  0
M  END
> <IDNUMBER>
F1799-0316

> <Chemical_Name>
1-(4-chlorophenyl)-3-(4-phenylpiperazin-1-yl)pyrrolidine-2,5-dione

> <CAS>
299408-64-3

> <PriceCoeff>
1.00

> <MW>
369.84

> <Description>
solid

> <FSP3>
0.30

> <clogP>
4.14

> <TPSA>
43.86

> <Acceptor>
3

> <Donor>
2

> <RotBonds>
3

> <HAC>
26

> <Collection>
General

$$$$
F3115-0020
  -ISIS-  06222321442D

 25 27  0  0  0  0  0  0  0  0999 V2000
    0.7667    0.8208    0.0000 N   0  0  3  0  0  0  0  0  0  0  0  0
    0.4292    1.8833    0.0000 C   0  0  0  0  0  0  0  0  0  0  0  0
   -0.1333    0.1625    0.0000 C   0  0  0  0  0  0  0  0  0  0  0  0
   -1.0208    0.8500    0.0000 C   0  0  3  0  0  0  0  0  0  0  0  0
   -0.6958    1.8833    0.0000 C   0  0  0  0  0  0  0  0  0  0  0  0
   -2.1958   -0.7500    0.0000 C   0  0  0  0  0  0  0  0  0  0  0  0
    1.8500    0.4958    0.0000 C   0  0  0  0  0  0  0  0  0  0  0  0
   -3.2000   -1.2000    0.0000 C   0  0  0  0  0  0  0  0  0  0  0  0
   -2.0708    0.3708    0.0000 S   0  0  0  0  0  0  0  0  0  0  0  0
   -4.1125   -0.5292    0.0000 C   0  0  0  0  0  0  0  0  0  0  0  0
    2.6667    1.2958    0.0000 C   0  0  0  0  0  0  0  0  0  0  0  0
   -1.2833   -1.4167    0.0000 N   0  0  0  0  0  0  0  0  0  0  0  0
    2.1292   -0.5792    0.0000 C   0  0  0  0  0  0  0  0  0  0  0  0
    1.1042    2.8000    0.0000 O   0  0  0  0  0  0  0  0  0  0  0  0
   -0.1333   -0.9792    0.0000 O   0  0  0  0  0  0  0  0  0  0  0  0
    3.7500    0.9833    0.0000 C   0  0  0  0  0  0  0  0  0  0  0  0
   -5.1458   -0.9792    0.0000 O   0  0  0  0  0  0  0  0  0  0  0  0
    2.4167    2.3833    0.0000 Br  0  0  0  0  0  0  0  0  0  0  0  0
   -3.9958    0.5958    0.0000 O   0  0  0  0  0  0  0  0  0  0  0  0
    3.2292   -0.9042    0.0000 C   0  0  0  0  0  0  0  0  0  0  0  0
    4.0292   -0.0875    0.0000 C   0  0  0  0  0  0  0  0  0  0  0  0
   -3.3500   -2.3292    0.0000 C   0  0  0  0  0  0  0  0  0  0  0  0
   -1.4000   -2.5292    0.0000 C   0  0  0  0  0  0  0  0  0  0  0  0
    5.1167   -0.3375    0.0000 C   0  0  0  0  0  0  0  0  0  0  0  0
   -2.4333   -2.9792    0.0000 C   0  0  0  0  0  0  0  0  0  0  0  0
  2  1  1  0  0  0  0
  3  1  1  0  0  0  0
  4  3  1  0  0  0  0
  5  2  1  0  0  0  0
  6  9  1  0  0  0  0
  7  1  1  0  0  0  0
  8  6  2  0  0  0  0
  9  4  1  0  0  0  0
 10  8  1  0  0  0  0
 11  7  2  0  0  0  0
 12  6  1  0  0  0  0
 13  7  1  0  0  0  0
 14  2  2  0  0  0  0
 15  3  2  0  0  0  0
 16 11  1  0  0  0  0
 17 10  2  0  0  0  0
 18 11  1  0  0  0  0
 19 10  1  0  0  0  0
 20 13  2  0  0  0  0
 21 20  1  0  0  0  0
 22  8  1  0  0  0  0
 23 12  2  0  0  0  0
 24 21  1  0  0  0  0
 25 23  1  0  0  0  0
  5  4  1  0  0  0  0
 16 21  2  0  0  0  0
 25 22  2  0  0  0  0
M  END
> <IDNUMBER>
F3115-0020

> <Chemical_Name>
2-{[1-(2-bromo-4-methylphenyl)-2,5-dioxopyrrolidin-3-yl]sulfanyl}pyridine-3-carboxylic acid

> <CAS>
496779-20-5

> <PriceCoeff>
1.00

> <MW>
421.27

> <Description>
solid

> <FSP3>
0.18

> <clogP>
2.69

> <TPSA>
112.87

> <Acceptor>
5

> <Donor>
1

> <RotBonds>
4

> <HAC>
25

> <Collection>
General

$$$$
F3385-0965
  -ISIS-  06222321462D

 21 23  0  0  0  0  0  0  0  0999 V2000
    6.0417   -1.6792    0.0000 C   0  0  0  0  0  0  0  0  0  0  0  0
    5.3292   -2.1042    0.0000 C   0  0  0  0  0  0  0  0  0  0  0  0
    4.6125   -1.6917    0.0000 C   0  0  0  0  0  0  0  0  0  0  0  0
    6.0417   -0.8542    0.0000 C   0  0  0  0  0  0  0  0  0  0  0  0
    4.6042   -0.8542    0.0000 C   0  0  0  0  0  0  0  0  0  0  0  0
    5.3167   -0.4417    0.0000 O   0  0  0  0  0  0  0  0  0  0  0  0
    6.7542   -2.0917    0.0000 C   0  0  0  0  0  0  0  0  0  0  0  0
    3.8917   -2.0917    0.0000 C   0  0  0  0  0  0  0  0  0  0  0  0
    3.8917   -0.4542    0.0000 C   0  0  0  0  0  0  0  0  0  0  0  0
    5.3292   -2.9292    0.0000 O   0  0  0  0  0  0  0  0  0  0  0  0
    6.7625   -2.9167    0.0000 C   0  0  0  0  0  0  0  0  0  0  0  0
    7.4792   -1.6667    0.0000 C   0  0  0  0  0  0  0  0  0  0  0  0
    3.1875   -0.8667    0.0000 C   0  0  0  0  0  0  0  0  0  0  0  0
    3.1792   -1.6792    0.0000 C   0  0  0  0  0  0  0  0  0  0  0  0
    8.1917   -2.9042    0.0000 C   0  0  0  0  0  0  0  0  0  0  0  0
    7.4750   -3.3292    0.0000 C   0  0  0  0  0  0  0  0  0  0  0  0
    8.1792   -2.0792    0.0000 C   0  0  0  0  0  0  0  0  0  0  0  0
    2.4750   -0.4542    0.0000 O   0  0  0  0  0  0  0  0  0  0  0  0
    8.9042   -3.3167    0.0000 O   0  0  0  0  0  0  0  0  0  0  0  0
    9.6167   -2.9042    0.0000 C   0  0  0  0  0  0  0  0  0  0  0  0
    1.7542   -0.8542    0.0000 C   0  0  0  0  0  0  0  0  0  0  0  0
  2  1  1  0  0  0  0
  3  2  1  0  0  0  0
  4  1  2  0  0  0  0
  5  6  1  0  0  0  0
  6  4  1  0  0  0  0
  7  1  1  0  0  0  0
  8  3  2  0  0  0  0
  9  5  2  0  0  0  0
 10  2  2  0  0  0  0
 11  7  2  0  0  0  0
 12  7  1  0  0  0  0
 13  9  1  0  0  0  0
 14  8  1  0  0  0  0
 15 17  1  0  0  0  0
 16 11  1  0  0  0  0
 17 12  2  0  0  0  0
 18 13  1  0  0  0  0
 19 15  1  0  0  0  0
 20 19  1  0  0  0  0
 21 18  1  0  0  0  0
 15 16  2  0  0  0  0
  3  5  1  0  0  0  0
 14 13  2  0  0  0  0
M  END
> <IDNUMBER>
F3385-0965

> <Chemical_Name>
7-methoxy-3-(4-methoxyphenyl)-4H-chromen-4-one

> <CAS>
1157-39-7

> <PriceCoeff>
1.00

> <MW>
282.29

> <Description>
solid

> <FSP3>
0.12

> <clogP>
3.02

> <TPSA>
44.76

> <Acceptor>
4

> <Donor>
0

> <RotBonds>
3

> <HAC>
21

> <Collection>
General

> <Reference_compound>
CHEMBL44

> <Similarity>
0.9700

$$$$
F1065-0552
  -ISIS-  06222321142D

 27 30  0  0  0  0  0  0  0  0999 V2000
   -2.0208   -0.2167    0.0000 N   0  0  3  0  0  0  0  0  0  0  0  0
   -1.4583   -0.9250    0.0000 C   0  0  0  0  0  0  0  0  0  0  0  0
   -1.5333    0.5750    0.0000 C   0  0  0  0  0  0  0  0  0  0  0  0
   -0.6583    0.3208    0.0000 C   0  0  3  0  0  0  0  0  0  0  0  0
   -0.5958   -0.6000    0.0000 C   0  0  0  0  0  0  0  0  0  0  0  0
   -2.9458   -0.3250    0.0000 C   0  0  0  0  0  0  0  0  0  0  0  0
    3.6000    0.0375    0.0000 N   0  0  3  0  0  0  0  0  0  0  0  0
    0.0167    0.9750    0.0000 N   0  0  0  0  0  0  0  0  0  0  0  0
   -3.4833    0.4375    0.0000 C   0  0  0  0  0  0  0  0  0  0  0  0
   -1.7208   -1.8250    0.0000 O   0  0  0  0  0  0  0  0  0  0  0  0
    2.7167    0.2625    0.0000 C   0  0  0  0  0  0  0  0  0  0  0  0
   -1.8583    1.4375    0.0000 O   0  0  0  0  0  0  0  0  0  0  0  0
    5.3792   -0.4250    0.0000 O   0  0  0  0  0  0  0  0  0  0  0  0
    2.0667   -0.4042    0.0000 C   0  0  0  0  0  0  0  0  0  0  0  0
    2.4667    1.1458    0.0000 C   0  0  0  0  0  0  0  0  0  0  0  0
    0.9167    0.7208    0.0000 C   0  0  0  0  0  0  0  0  0  0  0  0
   -4.4083    0.3458    0.0000 C   0  0  0  0  0  0  0  0  0  0  0  0
    1.1667   -0.1542    0.0000 C   0  0  0  0  0  0  0  0  0  0  0  0
    1.5667    1.3750    0.0000 C   0  0  0  0  0  0  0  0  0  0  0  0
   -3.3333   -1.1792    0.0000 C   0  0  0  0  0  0  0  0  0  0  0  0
   -4.9208    1.0958    0.0000 Cl  0  0  0  0  0  0  0  0  0  0  0  0
    3.8417   -0.8625    0.0000 C   0  0  0  0  0  0  0  0  0  0  0  0
    4.2417    0.6833    0.0000 C   0  0  0  0  0  0  0  0  0  0  0  0
   -4.2458   -1.2625    0.0000 C   0  0  0  0  0  0  0  0  0  0  0  0
    4.7417   -1.1000    0.0000 C   0  0  0  0  0  0  0  0  0  0  0  0
    5.1375    0.4583    0.0000 C   0  0  0  0  0  0  0  0  0  0  0  0
   -4.7833   -0.5250    0.0000 C   0  0  0  0  0  0  0  0  0  0  0  0
  2  1  1  0  0  0  0
  3  1  1  0  0  0  0
  4  3  1  0  0  0  0
  5  2  1  0  0  0  0
  6  1  1  0  0  0  0
  7 11  1  0  0  0  0
  8  4  1  0  0  0  0
  9  6  2  0  0  0  0
 10  2  2  0  0  0  0
 11 15  1  0  0  0  0
 12  3  2  0  0  0  0
 13 26  1  0  0  0  0
 14 18  1  0  0  0  0
 15 19  2  0  0  0  0
 16  8  1  0  0  0  0
 17  9  1  0  0  0  0
 18 16  2  0  0  0  0
 19 16  1  0  0  0  0
 20  6  1  0  0  0  0
 21 17  1  0  0  0  0
 22  7  1  0  0  0  0
 23  7  1  0  0  0  0
 24 20  2  0  0  0  0
 25 22  1  0  0  0  0
 26 23  1  0  0  0  0
 27 24  1  0  0  0  0
  5  4  1  0  0  0  0
 27 17  2  0  0  0  0
 11 14  2  0  0  0  0
 13 25  1  0  0  0  0
M  END
> <IDNUMBER>
F1065-0552

> <Chemical_Name>
1-(3-chlorophenyl)-3-{[4-(morpholin-4-yl)phenyl]amino}pyrrolidine-2,5-dione

> <CAS>
473445-43-1

> <PriceCoeff>
1.00

> <MW>
385.84

> <Description>
solid

> <FSP3>
0.30

> <clogP>
2.94

> <TPSA>
61.88

> <Acceptor>
5

> <Donor>
2

> <RotBonds>
4

> <HAC>
27

> <Collection>
General

$$$$
F3385-0122
  -ISIS-  06222321152D

 27 30  0  0  0  0  0  0  0  0999 V2000
   11.2000   -0.8125    0.0000 C   0  0  0  0  0  0  0  0  0  0  0  0
    9.7625    0.0208    0.0000 C   0  0  0  0  0  0  0  0  0  0  0  0
    9.7542   -0.8125    0.0000 C   0  0  0  0  0  0  0  0  0  0  0  0
   10.4750   -1.2250    0.0000 C   0  0  0  0  0  0  0  0  0  0  0  0
    9.0417    0.4333    0.0000 C   0  0  0  0  0  0  0  0  0  0  0  0
   10.4792    0.4458    0.0000 O   0  0  0  0  0  0  0  0  0  0  0  0
   11.2000    0.0208    0.0000 C   0  0  0  0  0  0  0  0  0  0  0  0
    9.0417    1.2583    0.0000 C   0  0  0  0  0  0  0  0  0  0  0  0
    9.0417   -1.2167    0.0000 C   0  0  0  0  0  0  0  0  0  0  0  0
   11.9042   -1.2250    0.0000 C   0  0  0  0  0  0  0  0  0  0  0  0
    8.3292    1.6708    0.0000 N   0  0  3  0  0  0  0  0  0  0  0  0
    8.3292    0.0208    0.0000 C   0  0  0  0  0  0  0  0  0  0  0  0
   10.4750   -2.0500    0.0000 O   0  0  0  0  0  0  0  0  0  0  0  0
    8.3292   -0.8042    0.0000 C   0  0  0  0  0  0  0  0  0  0  0  0
   11.9042   -2.0542    0.0000 C   0  0  0  0  0  0  0  0  0  0  0  0
   12.6167   -0.8167    0.0000 C   0  0  0  0  0  0  0  0  0  0  0  0
   13.3292   -2.0542    0.0000 C   0  0  0  0  0  0  0  0  0  0  0  0
   13.3292   -1.2292    0.0000 C   0  0  0  0  0  0  0  0  0  0  0  0
   12.6167   -2.4667    0.0000 C   0  0  0  0  0  0  0  0  0  0  0  0
    7.6167    0.4333    0.0000 O   0  0  0  0  0  0  0  0  0  0  0  0
   14.0417   -2.4667    0.0000 O   0  0  0  0  0  0  0  0  0  0  0  0
    7.6167    1.2583    0.0000 C   0  0  0  0  0  0  0  0  0  0  0  0
    8.3292    2.4958    0.0000 C   0  0  0  0  0  0  0  0  0  0  0  0
   14.7625   -2.0542    0.0000 C   0  0  0  0  0  0  0  0  0  0  0  0
    6.9000    1.6708    0.0000 C   0  0  0  0  0  0  0  0  0  0  0  0
    7.6167    2.9083    0.0000 C   0  0  0  0  0  0  0  0  0  0  0  0
    6.9000    2.4958    0.0000 C   0  0  0  0  0  0  0  0  0  0  0  0
  2  6  1  0  0  0  0
  3  4  1  0  0  0  0
  4  1  1  0  0  0  0
  5  2  2  0  0  0  0
  6  7  1  0  0  0  0
  7  1  2  0  0  0  0
  8  5  1  0  0  0  0
  9  3  2  0  0  0  0
 10  1  1  0  0  0  0
 11  8  1  0  0  0  0
 12  5  1  0  0  0  0
 13  4  2  0  0  0  0
 14  9  1  0  0  0  0
 15 10  2  0  0  0  0
 16 10  1  0  0  0  0
 17 18  1  0  0  0  0
 18 16  2  0  0  0  0
 19 15  1  0  0  0  0
 20 12  1  0  0  0  0
 21 17  1  0  0  0  0
 22 11  1  0  0  0  0
 23 11  1  0  0  0  0
 24 21  1  0  0  0  0
 25 22  1  0  0  0  0
 26 23  1  0  0  0  0
 27 26  1  0  0  0  0
  2  3  1  0  0  0  0
 19 17  2  0  0  0  0
 12 14  2  0  0  0  0
 25 27  1  0  0  0  0
M  END
> <IDNUMBER>
F3385-0122

> <Chemical_Name>
7-hydroxy-3-(4-methoxyphenyl)-8-[(piperidin-1-yl)methyl]-4H-chromen-4-one

> <CAS>
637753-70-9

> <PriceCoeff>
1.00

> <MW>
365.42

> <Description>
solid

> <FSP3>
0.32

> <clogP>
3.62

> <TPSA>
59.00

> <Acceptor>
4

> <Donor>
2

> <RotBonds>
4

> <HAC>
27

> <Collection>
General

> <Reference_compound>
CHEMBL463936

> <Similarity>
0.8020

$$$$
F3139-0461
  -ISIS-  06222321442D

 23 25  0  0  0  0  0  0  0  0999 V2000
   12.1042   -3.2875    0.0000 C   0  0  0  0  0  0  0  0  0  0  0  0
   10.8000   -4.0500    0.0000 C   0  0  0  0  0  0  0  0  0  0  0  0
    9.5125   -3.2875    0.0000 C   0  0  0  0  0  0  0  0  0  0  0  0
   12.1042   -1.8042    0.0000 C   0  0  0  0  0  0  0  0  0  0  0  0
    9.5125   -1.8042    0.0000 C   0  0  0  0  0  0  0  0  0  0  0  0
   10.8000   -1.0625    0.0000 O   0  0  0  0  0  0  0  0  0  0  0  0
   13.3917   -4.0500    0.0000 C   0  0  0  0  0  0  0  0  0  0  0  0
    1.7250   -0.2750    0.0000 N   0  0  0  0  0  0  0  0  0  0  0  0
    8.2375   -4.0500    0.0000 C   0  0  0  0  0  0  0  0  0  0  0  0
    8.2375   -1.0625    0.0000 C   0  0  0  0  0  0  0  0  0  0  0  0
    3.0375   -1.0250    0.0000 C   0  0  0  0  0  0  0  0  0  0  0  0
   10.8000   -5.5292    0.0000 O   0  0  0  0  0  0  0  0  0  0  0  0
   13.3917   -5.5500    0.0000 C   0  0  0  0  0  0  0  0  0  0  0  0
    6.9292   -1.8042    0.0000 C   0  0  0  0  0  0  0  0  0  0  0  0
    6.9292   -3.2875    0.0000 C   0  0  0  0  0  0  0  0  0  0  0  0
   12.1292   -6.2750    0.0000 O   0  0  0  0  0  0  0  0  0  0  0  0
    5.6167   -1.0625    0.0000 O   0  0  0  0  0  0  0  0  0  0  0  0
   14.6917   -3.2875    0.0000 C   0  0  0  0  0  0  0  0  0  0  0  0
    4.3417   -1.8042    0.0000 C   0  0  0  0  0  0  0  0  0  0  0  0
   14.6917   -6.2917    0.0000 C   0  0  0  0  0  0  0  0  0  0  0  0
   12.1042   -7.7792    0.0000 C   0  0  0  0  0  0  0  0  0  0  0  0
   16.0000   -4.0500    0.0000 C   0  0  0  0  0  0  0  0  0  0  0  0
   16.0000   -5.5500    0.0000 C   0  0  0  0  0  0  0  0  0  0  0  0
  2  1  1  0  0  0  0
  3  2  1  0  0  0  0
  4  1  2  0  0  0  0
  5  6  1  0  0  0  0
  6  4  1  0  0  0  0
  7  1  1  0  0  0  0
  8 11  3  0  0  0  0
  9  3  2  0  0  0  0
 10  5  2  0  0  0  0
 11 19  1  0  0  0  0
 12  2  2  0  0  0  0
 13  7  2  0  0  0  0
 14 10  1  0  0  0  0
 15  9  1  0  0  0  0
 16 13  1  0  0  0  0
 17 14  1  0  0  0  0
 18  7  1  0  0  0  0
 19 17  1  0  0  0  0
 20 13  1  0  0  0  0
 21 16  1  0  0  0  0
 22 18  2  0  0  0  0
 23 22  1  0  0  0  0
  5  3  1  0  0  0  0
 20 23  2  0  0  0  0
 14 15  2  0  0  0  0
M  END
> <IDNUMBER>
F3139-0461

> <Chemical_Name>
2-{[3-(2-methoxyphenyl)-4-oxo-4H-chromen-7-yl]oxy}acetonitrile

> <CAS>
610764-16-4

> <PriceCoeff>
1.00

> <MW>
307.30

> <Description>
solid

> <FSP3>
0.11

> <clogP>
1.45

> <TPSA>
68.55

> <Acceptor>
5

> <Donor>
0

> <RotBonds>
4

> <HAC>
23

> <Collection>
General

> <Reference_compound>
CHEMBL44

> <Similarity>
0.8660

$$$$
F1190-0466
  -ISIS-  06222321452D

 22 23  0  0  0  0  0  0  0  0999 V2000
   -0.3833    0.8458    0.0000 C   0  0  0  0  0  0  0  0  0  0  0  0
    0.3292    1.2625    0.0000 C   0  0  0  0  0  0  0  0  0  0  0  0
   -1.1000    1.2583    0.0000 C   0  0  0  0  0  0  0  0  0  0  0  0
   -0.3833    0.0208    0.0000 C   0  0  0  0  0  0  0  0  0  0  0  0
   -1.8125    0.8458    0.0000 C   0  0  0  0  0  0  0  0  0  0  0  0
   -1.1000   -0.3917    0.0000 C   0  0  0  0  0  0  0  0  0  0  0  0
    3.1792    1.2708    0.0000 C   0  0  0  0  0  0  0  0  0  0  0  0
    1.0417    0.8583    0.0000 C   0  0  0  0  0  0  0  0  0  0  0  0
   -1.8125    0.0208    0.0000 C   0  0  0  0  0  0  0  0  0  0  0  0
    0.3250    2.0875    0.0000 O   0  0  0  0  0  0  0  0  0  0  0  0
    3.1792    2.0958    0.0000 C   0  0  0  0  0  0  0  0  0  0  0  0
    2.4667    0.8583    0.0000 C   0  0  0  0  0  0  0  0  0  0  0  0
    1.7542    1.2708    0.0000 C   0  0  0  0  0  0  0  0  0  0  0  0
    2.4625    2.5083    0.0000 C   0  0  0  0  0  0  0  0  0  0  0  0
   -1.1083    2.0833    0.0000 O   0  0  0  0  0  0  0  0  0  0  0  0
    0.3292   -0.3917    0.0000 O   0  0  0  0  0  0  0  0  0  0  0  0
    1.7500    2.0875    0.0000 C   0  0  0  0  0  0  0  0  0  0  0  0
    3.9000    0.8583    0.0000 O   0  0  0  0  0  0  0  0  0  0  0  0
   -2.5333   -0.3917    0.0000 O   0  0  0  0  0  0  0  0  0  0  0  0
    3.8917    2.5208    0.0000 O   0  0  0  0  0  0  0  0  0  0  0  0
    4.6125    1.2708    0.0000 C   0  0  0  0  0  0  0  0  0  0  0  0
    3.8917    3.3375    0.0000 C   0  0  0  0  0  0  0  0  0  0  0  0
  2  1  1  0  0  0  0
  3  1  2  0  0  0  0
  4  1  1  0  0  0  0
  5  3  1  0  0  0  0
  6  4  2  0  0  0  0
  7 12  1  0  0  0  0
  8  2  1  0  0  0  0
  9  6  1  0  0  0  0
 10  2  2  0  0  0  0
 11 14  1  0  0  0  0
 12 13  2  0  0  0  0
 13  8  1  0  0  0  0
 14 17  2  0  0  0  0
 15  3  1  0  0  0  0
 16  4  1  0  0  0  0
 17 13  1  0  0  0  0
 18  7  1  0  0  0  0
 19  9  1  0  0  0  0
 20 11  1  0  0  0  0
 21 18  1  0  0  0  0
 22 20  1  0  0  0  0
  9  5  2  0  0  0  0
 11  7  2  0  0  0  0
M  END
> <IDNUMBER>
F1190-0466

> <Chemical_Name>
2-(3,4-dimethoxyphenyl)-1-(2,4,6-trihydroxyphenyl)ethan-1-one

> <CAS>
53084-06-3

> <PriceCoeff>
1.00

> <MW>
304.29

> <Description>
solid

> <FSP3>
0.19

> <clogP>
2.22

> <TPSA>
96.22

> <Acceptor>
6

> <Donor>
3

> <RotBonds>
5

> <HAC>
22

> <Collection>
General

> <Reference_compound>
CHEMBL3092474

> <Similarity>
0.8470

$$$$
F3023-0029
  -ISIS-  06222321462D

 25 27  0  0  0  0  0  0  0  0999 V2000
    3.4042   -3.2500    0.0000 N   0  0  3  0  0  0  0  0  0  0  0  0
    3.8875   -2.5792    0.0000 C   0  0  0  0  0  0  0  0  0  0  0  0
    3.8917   -3.9167    0.0000 C   0  0  0  0  0  0  0  0  0  0  0  0
    2.5792   -3.2542    0.0000 C   0  0  0  0  0  0  0  0  0  0  0  0
    4.6792   -3.6542    0.0000 C   0  0  3  0  0  0  0  0  0  0  0  0
    4.6750   -2.8292    0.0000 C   0  0  0  0  0  0  0  0  0  0  0  0
    6.1000   -3.8000    0.0000 C   0  0  0  0  0  0  0  0  0  0  0  0
    6.7667   -4.2792    0.0000 C   0  0  0  0  0  0  0  0  0  0  0  0
    2.1667   -2.5417    0.0000 C   0  0  0  0  0  0  0  0  0  0  0  0
    5.3417   -4.1292    0.0000 S   0  0  0  0  0  0  0  0  0  0  0  0
    6.6792   -5.1042    0.0000 C   0  0  0  0  0  0  0  0  0  0  0  0
    6.1792   -2.9792    0.0000 N   0  0  0  0  0  0  0  0  0  0  0  0
    3.6292   -1.7917    0.0000 O   0  0  0  0  0  0  0  0  0  0  0  0
    3.6417   -4.7000    0.0000 O   0  0  0  0  0  0  0  0  0  0  0  0
    1.3417   -2.5417    0.0000 C   0  0  0  0  0  0  0  0  0  0  0  0
    7.3500   -5.5875    0.0000 O   0  0  0  0  0  0  0  0  0  0  0  0
    2.5750   -1.8250    0.0000 Cl  0  0  0  0  0  0  0  0  0  0  0  0
    5.9292   -5.4417    0.0000 O   0  0  0  0  0  0  0  0  0  0  0  0
    2.1750   -3.9667    0.0000 C   0  0  0  0  0  0  0  0  0  0  0  0
    0.9250   -1.8292    0.0000 Cl  0  0  0  0  0  0  0  0  0  0  0  0
    7.5167   -3.9417    0.0000 C   0  0  0  0  0  0  0  0  0  0  0  0
    1.3542   -3.9750    0.0000 C   0  0  0  0  0  0  0  0  0  0  0  0
    6.9250   -2.6417    0.0000 C   0  0  0  0  0  0  0  0  0  0  0  0
    0.9292   -3.2625    0.0000 C   0  0  0  0  0  0  0  0  0  0  0  0
    7.6000   -3.1167    0.0000 C   0  0  0  0  0  0  0  0  0  0  0  0
  2  1  1  0  0  0  0
  3  1  1  0  0  0  0
  4  1  1  0  0  0  0
  5  3  1  0  0  0  0
  6  2  1  0  0  0  0
  7 10  1  0  0  0  0
  8  7  2  0  0  0  0
  9  4  2  0  0  0  0
 10  5  1  0  0  0  0
 11  8  1  0  0  0  0
 12  7  1  0  0  0  0
 13  2  2  0  0  0  0
 14  3  2  0  0  0  0
 15  9  1  0  0  0  0
 16 11  2  0  0  0  0
 17  9  1  0  0  0  0
 18 11  1  0  0  0  0
 19  4  1  0  0  0  0
 20 15  1  0  0  0  0
 21  8  1  0  0  0  0
 22 19  2  0  0  0  0
 23 12  2  0  0  0  0
 24 22  1  0  0  0  0
 25 23  1  0  0  0  0
  6  5  1  0  0  0  0
 24 15  2  0  0  0  0
 25 21  2  0  0  0  0
M  END
> <IDNUMBER>
F3023-0029

> <Chemical_Name>
2-{[1-(2,3-dichlorophenyl)-2,5-dioxopyrrolidin-3-yl]sulfanyl}pyridine-3-carboxylic acid

> <CAS>
838882-67-0

> <PriceCoeff>
1.00

> <MW>
397.23

> <Description>
solid

> <FSP3>
0.12

> <clogP>
2.79

> <TPSA>
112.87

> <Acceptor>
5

> <Donor>
1

> <RotBonds>
4

> <HAC>
25

> <Collection>
General

$$$$
F3139-1694
  -ISIS-  06222321462D

 24 26  0  0  0  0  0  0  0  0999 V2000
    4.8667   -0.5542    0.0000 C   0  0  0  0  0  0  0  0  0  0  0  0
    4.1417   -0.9667    0.0000 C   0  0  0  0  0  0  0  0  0  0  0  0
    3.4250   -0.5542    0.0000 C   0  0  0  0  0  0  0  0  0  0  0  0
    4.8667    0.2833    0.0000 C   0  0  0  0  0  0  0  0  0  0  0  0
    3.4292    0.2833    0.0000 C   0  0  0  0  0  0  0  0  0  0  0  0
    4.1417    0.7000    0.0000 O   0  0  0  0  0  0  0  0  0  0  0  0
    5.5750   -0.9667    0.0000 C   0  0  0  0  0  0  0  0  0  0  0  0
    2.7125   -0.9625    0.0000 C   0  0  0  0  0  0  0  0  0  0  0  0
    2.7125    0.6958    0.0000 C   0  0  0  0  0  0  0  0  0  0  0  0
    6.2875   -0.5542    0.0000 C   0  0  0  0  0  0  0  0  0  0  0  0
    2.0000   -0.5500    0.0000 C   0  0  0  0  0  0  0  0  0  0  0  0
    7.0000   -0.9667    0.0000 C   0  0  0  0  0  0  0  0  0  0  0  0
    4.1417   -1.7917    0.0000 O   0  0  0  0  0  0  0  0  0  0  0  0
    2.0000    0.2750    0.0000 C   0  0  0  0  0  0  0  0  0  0  0  0
    5.5667   -1.7917    0.0000 C   0  0  0  0  0  0  0  0  0  0  0  0
    7.0000   -1.8000    0.0000 C   0  0  0  0  0  0  0  0  0  0  0  0
    6.2792   -2.2042    0.0000 C   0  0  0  0  0  0  0  0  0  0  0  0
    2.7125   -1.7875    0.0000 O   0  0  0  0  0  0  0  0  0  0  0  0
    5.5792    0.6875    0.0000 C   0  0  0  0  0  0  0  0  0  0  0  0
    7.7167   -0.5542    0.0000 O   0  0  0  0  0  0  0  0  0  0  0  0
    1.2875    0.6875    0.0000 O   0  0  0  0  0  0  0  0  0  0  0  0
    7.7125   -2.2125    0.0000 O   0  0  0  0  0  0  0  0  0  0  0  0
    7.7125    0.2708    0.0000 C   0  0  0  0  0  0  0  0  0  0  0  0
    8.4292   -1.8000    0.0000 C   0  0  0  0  0  0  0  0  0  0  0  0
  2  1  1  0  0  0  0
  3  2  1  0  0  0  0
  4  1  2  0  0  0  0
  5  6  1  0  0  0  0
  6  4  1  0  0  0  0
  7  1  1  0  0  0  0
  8  3  2  0  0  0  0
  9  5  2  0  0  0  0
 10  7  1  0  0  0  0
 11  8  1  0  0  0  0
 12 10  2  0  0  0  0
 13  2  2  0  0  0  0
 14  9  1  0  0  0  0
 15  7  2  0  0  0  0
 16 17  2  0  0  0  0
 17 15  1  0  0  0  0
 18  8  1  0  0  0  0
 19  4  1  0  0  0  0
 20 12  1  0  0  0  0
 21 14  1  0  0  0  0
 22 16  1  0  0  0  0
 23 20  1  0  0  0  0
 24 22  1  0  0  0  0
  3  5  1  0  0  0  0
 16 12  1  0  0  0  0
 11 14  2  0  0  0  0
M  END
> <IDNUMBER>
F3139-1694

> <Chemical_Name>
3-(3,4-dimethoxyphenyl)-5,7-dihydroxy-2-methyl-4H-chromen-4-one

> <CAS>
637750-97-1

> <PriceCoeff>
1.00

> <MW>
328.32

> <Description>
solid

> <FSP3>
0.17

> <clogP>
2.92

> <TPSA>
85.22

> <Acceptor>
6

> <Donor>
2

> <RotBonds>
3

> <HAC>
24

> <Collection>
General

> <Reference_compound>
CHEMBL455048

> <Similarity>
0.8360

$$$$
F2211-0006
  -ISIS-  06222321442D

 19 21  0  0  0  0  0  0  0  0999 V2000
    6.3042   -8.2292    0.0000 C   0  0  0  0  0  0  0  0  0  0  0  0
    6.3000   -9.0542    0.0000 C   0  0  0  0  0  0  0  0  0  0  0  0
    4.8667   -9.0500    0.0000 C   0  0  0  0  0  0  0  0  0  0  0  0
    5.5792   -9.4625    0.0000 C   0  0  0  0  0  0  0  0  0  0  0  0
    5.5875   -7.8125    0.0000 O   0  0  0  0  0  0  0  0  0  0  0  0
    4.8750   -8.2250    0.0000 C   0  0  0  0  0  0  0  0  0  0  0  0
    7.0167   -7.8167    0.0000 C   0  0  0  0  0  0  0  0  0  0  0  0
    4.1625   -9.4625    0.0000 C   0  0  0  0  0  0  0  0  0  0  0  0
    5.5792  -10.2875    0.0000 O   0  0  0  0  0  0  0  0  0  0  0  0
    4.1625   -7.8125    0.0000 C   0  0  0  0  0  0  0  0  0  0  0  0
    7.0167   -6.9917    0.0000 C   0  0  0  0  0  0  0  0  0  0  0  0
    7.7292   -8.2292    0.0000 C   0  0  0  0  0  0  0  0  0  0  0  0
    3.4417   -9.0542    0.0000 C   0  0  0  0  0  0  0  0  0  0  0  0
    8.4417   -7.0000    0.0000 C   0  0  0  0  0  0  0  0  0  0  0  0
    2.7292   -9.4667    0.0000 N   0  0  0  0  0  0  0  0  0  0  0  0
    3.4417   -8.2250    0.0000 C   0  0  0  0  0  0  0  0  0  0  0  0
    8.4417   -7.8250    0.0000 C   0  0  0  0  0  0  0  0  0  0  0  0
    7.7292   -6.5792    0.0000 C   0  0  0  0  0  0  0  0  0  0  0  0
    9.1667   -6.5917    0.0000 F   0  0  0  0  0  0  0  0  0  0  0  0
  2  1  2  0  0  0  0
  3  6  1  0  0  0  0
  4  2  1  0  0  0  0
  5  1  1  0  0  0  0
  6  5  1  0  0  0  0
  7  1  1  0  0  0  0
  8  3  2  0  0  0  0
  9  4  2  0  0  0  0
 10  6  2  0  0  0  0
 11  7  1  0  0  0  0
 12  7  2  0  0  0  0
 13 16  2  0  0  0  0
 14 17  2  0  0  0  0
 15 13  1  0  0  0  0
 16 10  1  0  0  0  0
 17 12  1  0  0  0  0
 18 11  2  0  0  0  0
 19 14  1  0  0  0  0
  4  3  1  0  0  0  0
 14 18  1  0  0  0  0
 13  8  1  0  0  0  0
M  END
> <IDNUMBER>
F2211-0006

> <Chemical_Name>
6-amino-2-(4-fluorophenyl)-4H-chromen-4-one

> <CAS>
923693-49-6

> <PriceCoeff>
1.00

> <MW>
255.24

> <Description>
solid

> <FSP3>
0.00

> <clogP>
2.77

> <TPSA>
52.32

> <Acceptor>
3

> <Donor>
1

> <RotBonds>
1

> <HAC>
19

> <Collection>
General

> <Reference_compound>
CHEMBL275638

> <Similarity>
0.8500

$$$$
F0722-2692
  -ISIS-  06222321142D

 25 27  0  0  0  0  0  0  0  0999 V2000
    3.5667  -11.8875    0.0000 N   0  3  0  0  0  0  0  0  0  0  0  0
    3.5542   -9.4042    0.0000 C   0  0  0  0  0  0  0  0  0  0  0  0
    3.5542   -8.5875    0.0000 C   0  0  0  0  0  0  0  0  0  0  0  0
    4.2792   -9.8167    0.0000 C   0  0  0  0  0  0  0  0  0  0  0  0
    3.5667  -11.0542    0.0000 C   0  0  0  0  0  0  0  0  0  0  0  0
    4.2792  -10.6500    0.0000 C   0  0  0  0  0  0  0  0  0  0  0  0
    7.1167   -6.5167    0.0000 N   0  0  3  0  0  0  0  0  0  0  0  0
    4.2667   -8.1792    0.0000 N   0  0  0  0  0  0  0  0  0  0  0  0
    2.8500   -9.8167    0.0000 C   0  0  0  0  0  0  0  0  0  0  0  0
    2.8500  -12.3000    0.0000 O   0  5  0  0  0  0  0  0  0  0  0  0
    6.4042   -6.9375    0.0000 C   0  0  0  0  0  0  0  0  0  0  0  0
    4.2792  -12.3000    0.0000 O   0  0  0  0  0  0  0  0  0  0  0  0
    2.8500   -8.1792    0.0000 O   0  0  0  0  0  0  0  0  0  0  0  0
    2.8500  -10.6500    0.0000 C   0  0  0  0  0  0  0  0  0  0  0  0
    8.5500   -5.7000    0.0000 O   0  0  0  0  0  0  0  0  0  0  0  0
    4.9792   -7.7667    0.0000 C   0  0  0  0  0  0  0  0  0  0  0  0
    6.4042   -7.7667    0.0000 C   0  0  0  0  0  0  0  0  0  0  0  0
    5.7000   -6.5167    0.0000 C   0  0  0  0  0  0  0  0  0  0  0  0
    5.0000   -9.4042    0.0000 Cl  0  0  0  0  0  0  0  0  0  0  0  0
    4.9792   -6.9375    0.0000 C   0  0  0  0  0  0  0  0  0  0  0  0
    5.7000   -8.1792    0.0000 C   0  0  0  0  0  0  0  0  0  0  0  0
    7.1167   -5.7000    0.0000 C   0  0  0  0  0  0  0  0  0  0  0  0
    7.8375   -6.9292    0.0000 C   0  0  0  0  0  0  0  0  0  0  0  0
    8.5500   -6.5167    0.0000 C   0  0  0  0  0  0  0  0  0  0  0  0
    7.8292   -5.2792    0.0000 C   0  0  0  0  0  0  0  0  0  0  0  0
  2  9  1  0  0  0  0
  3  2  1  0  0  0  0
  4  6  1  0  0  0  0
  5  1  1  0  0  0  0
  6  5  2  0  0  0  0
  7 11  1  0  0  0  0
  8  3  1  0  0  0  0
  9 14  2  0  0  0  0
 10  1  1  0  0  0  0
 11 17  1  0  0  0  0
 12  1  2  0  0  0  0
 13  3  2  0  0  0  0
 14  5  1  0  0  0  0
 15 24  1  0  0  0  0
 16  8  1  0  0  0  0
 17 21  2  0  0  0  0
 18 20  1  0  0  0  0
 19  4  1  0  0  0  0
 20 16  2  0  0  0  0
 21 16  1  0  0  0  0
 22  7  1  0  0  0  0
 23  7  1  0  0  0  0
 24 23  1  0  0  0  0
 25 22  1  0  0  0  0
  4  2  2  0  0  0  0
 11 18  2  0  0  0  0
 25 15  1  0  0  0  0
M  CHG  2   1   1  10  -1
M  END
> <IDNUMBER>
F0722-2692

> <Chemical_Name>
2-chloro-N-[4-(morpholin-4-yl)phenyl]-4-nitrobenzamide

> <CAS>
303972-20-5

> <PriceCoeff>
1.00

> <MW>
361.78

> <Description>
solid

> <FSP3>
0.24

> <clogP>
2.23

> <TPSA>
84.71

> <Acceptor>
5

> <Donor>
2

> <RotBonds>
4

> <HAC>
25

> <Collection>
General

$$$$
F3023-0934
  -ISIS-  06222321152D

 25 27  0  0  0  0  0  0  0  0999 V2000
    4.4667   -6.4042    0.0000 N   0  0  3  0  0  0  0  0  0  0  0  0
    4.8792   -5.8292    0.0000 C   0  0  0  0  0  0  0  0  0  0  0  0
    4.8875   -6.9750    0.0000 C   0  0  0  0  0  0  0  0  0  0  0  0
    5.5625   -6.7542    0.0000 C   0  0  3  0  0  0  0  0  0  0  0  0
    5.5542   -6.0417    0.0000 C   0  0  0  0  0  0  0  0  0  0  0  0
    3.7542   -6.4042    0.0000 C   0  0  0  0  0  0  0  0  0  0  0  0
    6.1292   -7.1667    0.0000 N   0  0  0  0  0  0  0  0  0  0  0  0
    4.6542   -5.1542    0.0000 O   0  0  0  0  0  0  0  0  0  0  0  0
    4.6750   -7.6500    0.0000 O   0  0  0  0  0  0  0  0  0  0  0  0
    8.0750   -6.3042    0.0000 C   0  0  0  0  0  0  0  0  0  0  0  0
    3.4042   -5.7917    0.0000 C   0  0  0  0  0  0  0  0  0  0  0  0
    8.7250   -6.0125    0.0000 N   0  0  3  0  0  0  0  0  0  0  0  0
    6.7792   -6.8792    0.0000 C   0  0  0  0  0  0  0  0  0  0  0  0
    8.0042   -7.0042    0.0000 C   0  0  0  0  0  0  0  0  0  0  0  0
    7.4917   -5.8875    0.0000 C   0  0  0  0  0  0  0  0  0  0  0  0
    7.3542   -7.2917    0.0000 C   0  0  0  0  0  0  0  0  0  0  0  0
    6.8500   -6.1750    0.0000 C   0  0  0  0  0  0  0  0  0  0  0  0
    3.7542   -5.1792    0.0000 O   0  0  0  0  0  0  0  0  0  0  0  0
    3.4125   -7.0250    0.0000 C   0  0  0  0  0  0  0  0  0  0  0  0
    8.7917   -5.3042    0.0000 C   0  0  0  0  0  0  0  0  0  0  0  0
    9.3000   -6.4292    0.0000 C   0  0  0  0  0  0  0  0  0  0  0  0
    2.6917   -5.8000    0.0000 C   0  0  0  0  0  0  0  0  0  0  0  0
    3.4000   -4.5667    0.0000 C   0  0  0  0  0  0  0  0  0  0  0  0
    2.7042   -7.0292    0.0000 C   0  0  0  0  0  0  0  0  0  0  0  0
    2.3417   -6.4167    0.0000 C   0  0  0  0  0  0  0  0  0  0  0  0
  2  1  1  0  0  0  0
  3  1  1  0  0  0  0
  4  3  1  0  0  0  0
  5  2  1  0  0  0  0
  6  1  1  0  0  0  0
  7  4  1  0  0  0  0
  8  2  2  0  0  0  0
  9  3  2  0  0  0  0
 10 15  1  0  0  0  0
 11  6  2  0  0  0  0
 12 10  1  0  0  0  0
 13  7  1  0  0  0  0
 14 16  1  0  0  0  0
 15 17  2  0  0  0  0
 16 13  2  0  0  0  0
 17 13  1  0  0  0  0
 18 11  1  0  0  0  0
 19  6  1  0  0  0  0
 20 12  1  0  0  0  0
 21 12  1  0  0  0  0
 22 11  1  0  0  0  0
 23 18  1  0  0  0  0
 24 19  2  0  0  0  0
 25 24  1  0  0  0  0
  5  4  1  0  0  0  0
 25 22  2  0  0  0  0
 10 14  2  0  0  0  0
M  END
> <IDNUMBER>
F3023-0934

> <Chemical_Name>
3-{[4-(dimethylamino)phenyl]amino}-1-(2-methoxyphenyl)pyrrolidine-2,5-dione

> <CAS>
1009289-73-9

> <PriceCoeff>
1.00

> <MW>
339.39

> <Description>
solid

> <FSP3>
0.26

> <clogP>
2.74

> <TPSA>
61.88

> <Acceptor>
5

> <Donor>
2

> <RotBonds>
5

> <HAC>
25

> <Collection>
General

$$$$
F0270-0027
  -ISIS-  06222321442D

 23 25  0  0  0  0  0  0  0  0999 V2000
   -1.5333    0.5333    0.0000 N   0  0  3  0  0  0  0  0  0  0  0  0
   -1.1125    1.2958    0.0000 C   0  0  0  0  0  0  0  0  0  0  0  0
   -0.9333   -0.1292    0.0000 C   0  0  0  0  0  0  0  0  0  0  0  0
   -0.1333    0.2708    0.0000 C   0  0  3  0  0  0  0  0  0  0  0  0
   -0.2500    1.1333    0.0000 C   0  0  0  0  0  0  0  0  0  0  0  0
   -2.4000    0.4500    0.0000 C   0  0  0  0  0  0  0  0  0  0  0  0
    0.5875   -0.2500    0.0000 N   0  0  0  0  0  0  0  0  0  0  0  0
   -1.4958    2.0958    0.0000 O   0  0  0  0  0  0  0  0  0  0  0  0
   -1.1125   -1.0042    0.0000 O   0  0  0  0  0  0  0  0  0  0  0  0
   -2.7625   -0.3542    0.0000 C   0  0  0  0  0  0  0  0  0  0  0  0
    0.5042   -1.1292    0.0000 C   0  0  0  0  0  0  0  0  0  0  0  0
   -2.2500   -1.0542    0.0000 Cl  0  0  0  0  0  0  0  0  0  0  0  0
    0.3292   -2.8667    0.0000 C   0  0  0  0  0  0  0  0  0  0  0  0
    1.2292   -1.6500    0.0000 C   0  0  0  0  0  0  0  0  0  0  0  0
   -0.2958   -1.4667    0.0000 C   0  0  0  0  0  0  0  0  0  0  0  0
   -0.3958   -2.3292    0.0000 C   0  0  0  0  0  0  0  0  0  0  0  0
    1.1292   -2.5042    0.0000 C   0  0  0  0  0  0  0  0  0  0  0  0
   -2.9208    1.1708    0.0000 C   0  0  0  0  0  0  0  0  0  0  0  0
    0.2542   -3.7375    0.0000 O   0  0  0  0  0  0  0  0  0  0  0  0
   -3.6500   -0.4375    0.0000 C   0  0  0  0  0  0  0  0  0  0  0  0
   -0.5458   -4.1000    0.0000 C   0  0  0  0  0  0  0  0  0  0  0  0
   -3.8000    1.0833    0.0000 C   0  0  0  0  0  0  0  0  0  0  0  0
   -4.1708    0.2833    0.0000 C   0  0  0  0  0  0  0  0  0  0  0  0
  2  1  1  0  0  0  0
  3  1  1  0  0  0  0
  4  3  1  0  0  0  0
  5  2  1  0  0  0  0
  6  1  1  0  0  0  0
  7  4  1  0  0  0  0
  8  2  2  0  0  0  0
  9  3  2  0  0  0  0
 10  6  1  0  0  0  0
 11  7  1  0  0  0  0
 12 10  1  0  0  0  0
 13 16  2  0  0  0  0
 14 11  1  0  0  0  0
 15 11  2  0  0  0  0
 16 15  1  0  0  0  0
 17 14  2  0  0  0  0
 18  6  2  0  0  0  0
 19 13  1  0  0  0  0
 20 10  2  0  0  0  0
 21 19  1  0  0  0  0
 22 18  1  0  0  0  0
 23 22  2  0  0  0  0
  5  4  1  0  0  0  0
 20 23  1  0  0  0  0
 17 13  1  0  0  0  0
M  END
> <IDNUMBER>
F0270-0027

> <Chemical_Name>
1-(2-chlorophenyl)-3-[(4-methoxyphenyl)amino]pyrrolidine-2,5-dione

> <CAS>
306275-90-1

> <PriceCoeff>
1.00

> <MW>
330.77

> <Description>
solid

> <FSP3>
0.18

> <clogP>
3.18

> <TPSA>
58.64

> <Acceptor>
4

> <Donor>
1

> <RotBonds>
4

> <HAC>
23

> <Collection>
General

$$$$
F3023-0970
  -ISIS-  06222321442D

 29 32  0  0  0  0  0  0  0  0999 V2000
    4.2417   -6.4542    0.0000 N   0  0  3  0  0  0  0  0  0  0  0  0
    4.6625   -5.8792    0.0000 C   0  0  0  0  0  0  0  0  0  0  0  0
    4.6667   -7.0250    0.0000 C   0  0  0  0  0  0  0  0  0  0  0  0
    5.3417   -6.8042    0.0000 C   0  0  3  0  0  0  0  0  0  0  0  0
    5.3375   -6.0917    0.0000 C   0  0  0  0  0  0  0  0  0  0  0  0
    8.5042   -6.0625    0.0000 N   0  0  3  0  0  0  0  0  0  0  0  0
    5.9125   -7.2167    0.0000 N   0  0  0  0  0  0  0  0  0  0  0  0
    3.5375   -6.4542    0.0000 C   0  0  0  0  0  0  0  0  0  0  0  0
    4.4375   -5.2042    0.0000 O   0  0  0  0  0  0  0  0  0  0  0  0
    7.8542   -6.3542    0.0000 C   0  0  0  0  0  0  0  0  0  0  0  0
    4.4542   -7.7000    0.0000 O   0  0  0  0  0  0  0  0  0  0  0  0
    2.1250   -6.4667    0.0000 C   0  0  0  0  0  0  0  0  0  0  0  0
    1.4167   -6.4667    0.0000 C   0  0  0  0  0  0  0  0  0  0  0  0
    3.1917   -7.0750    0.0000 C   0  0  0  0  0  0  0  0  0  0  0  0
    3.1792   -5.8417    0.0000 C   0  0  0  0  0  0  0  0  0  0  0  0
    1.0542   -5.8625    0.0000 O   0  0  0  0  0  0  0  0  0  0  0  0
    2.4875   -7.0792    0.0000 C   0  0  0  0  0  0  0  0  0  0  0  0
    2.4750   -5.8500    0.0000 C   0  0  0  0  0  0  0  0  0  0  0  0
    9.8042   -5.4875    0.0000 O   0  0  0  0  0  0  0  0  0  0  0  0
    7.2750   -5.9375    0.0000 C   0  0  0  0  0  0  0  0  0  0  0  0
    7.7792   -7.0542    0.0000 C   0  0  0  0  0  0  0  0  0  0  0  0
    6.5625   -6.9292    0.0000 C   0  0  0  0  0  0  0  0  0  0  0  0
    6.6292   -6.2250    0.0000 C   0  0  0  0  0  0  0  0  0  0  0  0
    7.1292   -7.3417    0.0000 C   0  0  0  0  0  0  0  0  0  0  0  0
    8.5750   -5.3542    0.0000 C   0  0  0  0  0  0  0  0  0  0  0  0
    9.0792   -6.4792    0.0000 C   0  0  0  0  0  0  0  0  0  0  0  0
    9.7250   -6.1917    0.0000 C   0  0  0  0  0  0  0  0  0  0  0  0
    9.2250   -5.0667    0.0000 C   0  0  0  0  0  0  0  0  0  0  0  0
    1.0667   -7.0875    0.0000 C   0  0  0  0  0  0  0  0  0  0  0  0
  2  1  1  0  0  0  0
  3  1  1  0  0  0  0
  4  3  1  0  0  0  0
  5  2  1  0  0  0  0
  6 10  1  0  0  0  0
  7  4  1  0  0  0  0
  8  1  1  0  0  0  0
  9  2  2  0  0  0  0
 10 21  2  0  0  0  0
 11  3  2  0  0  0  0
 12 18  2  0  0  0  0
 13 12  1  0  0  0  0
 14  8  1  0  0  0  0
 15  8  2  0  0  0  0
 16 13  2  0  0  0  0
 17 14  2  0  0  0  0
 18 15  1  0  0  0  0
 19 27  1  0  0  0  0
 20 23  2  0  0  0  0
 21 24  1  0  0  0  0
 22  7  1  0  0  0  0
 23 22  1  0  0  0  0
 24 22  2  0  0  0  0
 25  6  1  0  0  0  0
 26  6  1  0  0  0  0
 27 26  1  0  0  0  0
 28 25  1  0  0  0  0
 29 13  1  0  0  0  0
  5  4  1  0  0  0  0
 12 17  1  0  0  0  0
 20 10  1  0  0  0  0
 19 28  1  0  0  0  0
M  END
> <IDNUMBER>
F3023-0970

> <Chemical_Name>
1-(4-acetylphenyl)-3-{[4-(morpholin-4-yl)phenyl]amino}pyrrolidine-2,5-dione

> <CAS>
1008189-05-6

> <PriceCoeff>
1.00

> <MW>
393.44

> <Description>
solid

> <FSP3>
0.32

> <clogP>
1.89

> <TPSA>
78.95

> <Acceptor>
6

> <Donor>
2

> <RotBonds>
5

> <HAC>
29

> <Collection>
General

$$$$
F3023-0973
  -ISIS-  06222321442D

 28 31  0  0  0  0  0  0  0  0999 V2000
    4.2417   -6.4542    0.0000 N   0  0  3  0  0  0  0  0  0  0  0  0
    4.6625   -5.8792    0.0000 C   0  0  0  0  0  0  0  0  0  0  0  0
    4.6667   -7.0250    0.0000 C   0  0  0  0  0  0  0  0  0  0  0  0
    5.3417   -6.8042    0.0000 C   0  0  3  0  0  0  0  0  0  0  0  0
    5.3375   -6.0917    0.0000 C   0  0  0  0  0  0  0  0  0  0  0  0
    8.5042   -6.0625    0.0000 N   0  0  3  0  0  0  0  0  0  0  0  0
    5.9125   -7.2167    0.0000 N   0  0  0  0  0  0  0  0  0  0  0  0
    3.5375   -6.4542    0.0000 C   0  0  0  0  0  0  0  0  0  0  0  0
    4.4375   -5.2042    0.0000 O   0  0  0  0  0  0  0  0  0  0  0  0
    7.8542   -6.3542    0.0000 C   0  0  0  0  0  0  0  0  0  0  0  0
    4.4542   -7.7000    0.0000 O   0  0  0  0  0  0  0  0  0  0  0  0
    9.8042   -5.4875    0.0000 O   0  0  0  0  0  0  0  0  0  0  0  0
    3.1792   -5.8417    0.0000 C   0  0  0  0  0  0  0  0  0  0  0  0
    3.1917   -7.0750    0.0000 C   0  0  0  0  0  0  0  0  0  0  0  0
    7.7792   -7.0542    0.0000 C   0  0  0  0  0  0  0  0  0  0  0  0
    7.2750   -5.9375    0.0000 C   0  0  0  0  0  0  0  0  0  0  0  0
    6.5625   -6.9292    0.0000 C   0  0  0  0  0  0  0  0  0  0  0  0
    7.1292   -7.3417    0.0000 C   0  0  0  0  0  0  0  0  0  0  0  0
    6.6292   -6.2250    0.0000 C   0  0  0  0  0  0  0  0  0  0  0  0
    2.4875   -7.0792    0.0000 C   0  0  0  0  0  0  0  0  0  0  0  0
    2.4750   -5.8500    0.0000 C   0  0  0  0  0  0  0  0  0  0  0  0
    2.1250   -6.4667    0.0000 C   0  0  0  0  0  0  0  0  0  0  0  0
    8.5750   -5.3542    0.0000 C   0  0  0  0  0  0  0  0  0  0  0  0
    9.0792   -6.4792    0.0000 C   0  0  0  0  0  0  0  0  0  0  0  0
    9.7250   -6.1917    0.0000 C   0  0  0  0  0  0  0  0  0  0  0  0
    9.2250   -5.0667    0.0000 C   0  0  0  0  0  0  0  0  0  0  0  0
    1.4167   -6.4667    0.0000 C   0  0  0  0  0  0  0  0  0  0  0  0
    1.0542   -5.8625    0.0000 C   0  0  0  0  0  0  0  0  0  0  0  0
  2  1  1  0  0  0  0
  3  1  1  0  0  0  0
  4  3  1  0  0  0  0
  5  2  1  0  0  0  0
  6 10  1  0  0  0  0
  7  4  1  0  0  0  0
  8  1  1  0  0  0  0
  9  2  2  0  0  0  0
 10 16  1  0  0  0  0
 11  3  2  0  0  0  0
 12 25  1  0  0  0  0
 13  8  2  0  0  0  0
 14  8  1  0  0  0  0
 15 18  1  0  0  0  0
 16 19  2  0  0  0  0
 17  7  1  0  0  0  0
 18 17  2  0  0  0  0
 19 17  1  0  0  0  0
 20 14  2  0  0  0  0
 21 13  1  0  0  0  0
 22 20  1  0  0  0  0
 23  6  1  0  0  0  0
 24  6  1  0  0  0  0
 25 24  1  0  0  0  0
 26 23  1  0  0  0  0
 27 22  1  0  0  0  0
 28 27  1  0  0  0  0
  5  4  1  0  0  0  0
 22 21  2  0  0  0  0
 10 15  2  0  0  0  0
 12 26  1  0  0  0  0
M  END
> <IDNUMBER>
F3023-0973

> <Chemical_Name>
1-(4-ethylphenyl)-3-{[4-(morpholin-4-yl)phenyl]amino}pyrrolidine-2,5-dione

> <CAS>
1008712-52-4

> <PriceCoeff>
1.00

> <MW>
379.45

> <Description>
solid

> <FSP3>
0.36

> <clogP>
2.97

> <TPSA>
61.88

> <Acceptor>
5

> <Donor>
2

> <RotBonds>
5

> <HAC>
28

> <Collection>
General

$$$$
F2146-0716
  -ISIS-  06222304352D

 27 28  0  0  0  0  0  0  0  0999 V2000
    2.8375   -5.4042    0.0000 C   0  0  0  0  0  0  0  0  0  0  0  0
    2.5750   -6.1875    0.0000 N   0  0  3  0  0  0  0  0  0  0  0  0
    2.1750   -4.9167    0.0000 S   0  0  0  0  0  0  0  0  0  0  0  0
    1.5000   -5.4042    0.0000 C   0  0  0  0  0  0  0  0  0  0  0  0
    1.7500   -6.1875    0.0000 C   0  0  0  0  0  0  0  0  0  0  0  0
   -0.6750   -5.6708    0.0000 C   0  0  0  0  0  0  0  0  0  0  0  0
    0.6917   -5.2208    0.0000 C   0  0  0  0  0  0  0  0  0  0  0  0
    0.1333   -5.8417    0.0000 C   0  0  0  0  0  0  0  0  0  0  0  0
    3.6292   -5.1458    0.0000 N   0  0  0  0  0  0  0  0  0  0  0  0
    1.2000   -6.8000    0.0000 C   0  0  0  0  0  0  0  0  0  0  0  0
    0.3958   -6.6250    0.0000 C   0  0  0  0  0  0  0  0  0  0  0  0
   -1.2292   -6.2875    0.0000 O   0  0  0  0  0  0  0  0  0  0  0  0
    3.0708   -6.8583    0.0000 C   0  0  0  0  0  0  0  0  0  0  0  0
   -0.9333   -4.8875    0.0000 O   0  0  0  0  0  0  0  0  0  0  0  0
   -0.3833   -4.2708    0.0000 C   0  0  0  0  0  0  0  0  0  0  0  0
    2.7333   -7.6208    0.0000 C   0  0  0  0  0  0  0  0  0  0  0  0
    6.6640   -4.9329    0.0000 S   0  0  3  0  0  0  0  0  0  0  0  0
    6.2612   -5.6427    0.0000 C   0  0  0  0  0  0  0  0  0  0  0  0
    5.9531   -4.5116    0.0000 O   0  0  0  0  0  0  0  0  0  0  0  0
    7.0698   -4.2118    0.0000 O   0  0  0  0  0  0  0  0  0  0  0  0
    7.3852   -5.3387    0.0000 O   0  0  0  0  0  0  0  0  0  0  0  0
    6.6766   -6.3603    0.0000 C   0  0  0  0  0  0  0  0  0  0  0  0
    5.4307   -5.6469    0.0000 C   0  0  0  0  0  0  0  0  0  0  0  0
    6.2595   -7.0785    0.0000 C   0  0  0  0  0  0  0  0  0  0  0  0
    5.0228   -6.3644    0.0000 C   0  0  0  0  0  0  0  0  0  0  0  0
    5.4362   -7.0784    0.0000 C   0  0  0  0  0  0  0  0  0  0  0  0
    5.0226   -7.7945    0.0000 C   0  0  0  0  0  0  0  0  0  0  0  0
 13  2  1  0  0  0  0
 14  6  1  0  0  0  0
 15 14  1  0  0  0  0
 16 13  1  0  0  0  0
  4  5  2  0  0  0  0
 11  8  1  0  0  0  0
  2  1  1  0  0  0  0
  3  1  1  0  0  0  0
  4  3  1  0  0  0  0
  5  2  1  0  0  0  0
  6  8  1  0  0  0  0
  7  4  1  0  0  0  0
  8  7  2  0  0  0  0
  9  1  2  0  0  0  0
 10  5  1  0  0  0  0
 11 10  2  0  0  0  0
 12  6  2  0  0  0  0
 18 17  1  0  0  0  0
 19 17  2  0  0  0  0
 20 17  2  0  0  0  0
 21 17  1  0  0  0  0
 22 18  1  0  0  0  0
 23 18  2  0  0  0  0
 24 22  2  0  0  0  0
 25 23  1  0  0  0  0
 26 25  2  0  0  0  0
 27 26  1  0  0  0  0
 24 26  1  0  0  0  0
M  END
> <IDNUMBER>
F2146-0716

> <Chemical_Name>
4-methylbenzene-1-sulfonic acid; methyl 3-ethyl-2-imino-2,3-dihydro-1,3-benzothiazole-6-carboxylate

> <CAS>
2034154-17-9

> <PriceCoeff>
1.00

> <MW>
236.29

> <Description>
solid

> <FSP3>
0.27

> <clogP>
3.74

> <TPSA>
78.69

> <Acceptor>
2

> <Donor>
1

> <RotBonds>
3

> <HAC>
16

> <Collection>
General

> <Reference_compound>
PRI5904

> <Similarity>
0.8060

$$$$
F3023-0626
  -ISIS-  06222321152D

 24 26  0  0  0  0  0  0  0  0999 V2000
    5.1125   -5.9667    0.0000 N   0  0  3  0  0  0  0  0  0  0  0  0
    5.5917   -5.2917    0.0000 C   0  0  0  0  0  0  0  0  0  0  0  0
    5.6042   -6.6292    0.0000 C   0  0  0  0  0  0  0  0  0  0  0  0
    6.3875   -6.3667    0.0000 C   0  0  3  0  0  0  0  0  0  0  0  0
    6.3792   -5.5417    0.0000 C   0  0  0  0  0  0  0  0  0  0  0  0
    7.8042   -6.5167    0.0000 C   0  0  0  0  0  0  0  0  0  0  0  0
    4.2875   -5.9667    0.0000 C   0  0  0  0  0  0  0  0  0  0  0  0
    8.4750   -7.0000    0.0000 C   0  0  0  0  0  0  0  0  0  0  0  0
    7.0542   -6.8542    0.0000 S   0  0  0  0  0  0  0  0  0  0  0  0
    8.3917   -7.8167    0.0000 C   0  0  0  0  0  0  0  0  0  0  0  0
    3.8750   -5.2542    0.0000 C   0  0  0  0  0  0  0  0  0  0  0  0
    7.8875   -5.7000    0.0000 N   0  0  0  0  0  0  0  0  0  0  0  0
    5.3375   -4.5042    0.0000 O   0  0  0  0  0  0  0  0  0  0  0  0
    5.3500   -7.4167    0.0000 O   0  0  0  0  0  0  0  0  0  0  0  0
    9.0542   -8.3042    0.0000 O   0  0  0  0  0  0  0  0  0  0  0  0
    3.0500   -5.2625    0.0000 C   0  0  0  0  0  0  0  0  0  0  0  0
    7.6375   -8.1542    0.0000 O   0  0  0  0  0  0  0  0  0  0  0  0
    3.8792   -6.6875    0.0000 C   0  0  0  0  0  0  0  0  0  0  0  0
    2.6292   -4.5500    0.0000 Br  0  0  0  0  0  0  0  0  0  0  0  0
    9.2250   -6.6625    0.0000 C   0  0  0  0  0  0  0  0  0  0  0  0
    3.0625   -6.6917    0.0000 C   0  0  0  0  0  0  0  0  0  0  0  0
    8.6292   -5.3542    0.0000 C   0  0  0  0  0  0  0  0  0  0  0  0
    2.6417   -5.9792    0.0000 C   0  0  0  0  0  0  0  0  0  0  0  0
    9.3042   -5.8375    0.0000 C   0  0  0  0  0  0  0  0  0  0  0  0
  2  1  1  0  0  0  0
  3  1  1  0  0  0  0
  4  3  1  0  0  0  0
  5  2  1  0  0  0  0
  6  9  1  0  0  0  0
  7  1  1  0  0  0  0
  8  6  2  0  0  0  0
  9  4  1  0  0  0  0
 10  8  1  0  0  0  0
 11  7  2  0  0  0  0
 12  6  1  0  0  0  0
 13  2  2  0  0  0  0
 14  3  2  0  0  0  0
 15 10  2  0  0  0  0
 16 11  1  0  0  0  0
 17 10  1  0  0  0  0
 18  7  1  0  0  0  0
 19 16  1  0  0  0  0
 20  8  1  0  0  0  0
 21 18  2  0  0  0  0
 22 12  2  0  0  0  0
 23 21  1  0  0  0  0
 24 22  1  0  0  0  0
  5  4  1  0  0  0  0
 23 16  2  0  0  0  0
 24 20  2  0  0  0  0
M  END
> <IDNUMBER>
F3023-0626

> <Chemical_Name>
2-{[1-(3-bromophenyl)-2,5-dioxopyrrolidin-3-yl]sulfanyl}pyridine-3-carboxylic acid

> <CAS>
838866-99-2

> <PriceCoeff>
1.00

> <MW>
407.24

> <Description>
solid

> <FSP3>
0.12

> <clogP>
2.65

> <TPSA>
112.87

> <Acceptor>
5

> <Donor>
1

> <RotBonds>
4

> <HAC>
24

> <Collection>
General

$$$$
F1199-0110
  -ISIS-  06222321442D

 28 31  0  0  0  0  0  0  0  0999 V2000
   -0.7208   -0.4667    0.0000 N   0  0  3  0  0  0  0  0  0  0  0  0
   -0.0500    0.0208    0.0000 C   0  0  0  0  0  0  0  0  0  0  0  0
   -0.4625   -1.2542    0.0000 C   0  0  0  0  0  0  0  0  0  0  0  0
    0.3625   -1.2542    0.0000 C   0  0  3  0  0  0  0  0  0  0  0  0
    0.6167   -0.4667    0.0000 C   0  0  0  0  0  0  0  0  0  0  0  0
   -1.5083   -0.2042    0.0000 C   0  0  0  0  0  0  0  0  0  0  0  0
    4.1417   -1.5792    0.0000 N   0  0  3  0  0  0  0  0  0  0  0  0
    0.8542   -1.9250    0.0000 N   0  0  0  0  0  0  0  0  0  0  0  0
   -1.6750    0.6000    0.0000 C   0  0  0  0  0  0  0  0  0  0  0  0
   -0.0500    0.8500    0.0000 O   0  0  0  0  0  0  0  0  0  0  0  0
    3.3250   -1.6667    0.0000 C   0  0  0  0  0  0  0  0  0  0  0  0
   -0.9583   -1.9250    0.0000 O   0  0  0  0  0  0  0  0  0  0  0  0
    5.7917   -1.4167    0.0000 O   0  0  0  0  0  0  0  0  0  0  0  0
    2.8292   -0.9917    0.0000 C   0  0  0  0  0  0  0  0  0  0  0  0
    2.9792   -2.4250    0.0000 C   0  0  0  0  0  0  0  0  0  0  0  0
    1.6792   -1.8375    0.0000 C   0  0  0  0  0  0  0  0  0  0  0  0
   -2.4625    0.8583    0.0000 C   0  0  0  0  0  0  0  0  0  0  0  0
    2.1542   -2.5125    0.0000 C   0  0  0  0  0  0  0  0  0  0  0  0
    2.0042   -1.0792    0.0000 C   0  0  0  0  0  0  0  0  0  0  0  0
   -2.1208   -0.7667    0.0000 C   0  0  0  0  0  0  0  0  0  0  0  0
    4.6292   -2.2542    0.0000 C   0  0  0  0  0  0  0  0  0  0  0  0
    4.4750   -0.8250    0.0000 C   0  0  0  0  0  0  0  0  0  0  0  0
   -2.6333    1.6625    0.0000 O   0  0  0  0  0  0  0  0  0  0  0  0
   -2.9083   -0.5167    0.0000 C   0  0  0  0  0  0  0  0  0  0  0  0
    5.4500   -2.1750    0.0000 C   0  0  0  0  0  0  0  0  0  0  0  0
    5.3042   -0.7417    0.0000 C   0  0  0  0  0  0  0  0  0  0  0  0
   -3.0833    0.3000    0.0000 C   0  0  0  0  0  0  0  0  0  0  0  0
   -2.0208    2.2208    0.0000 C   0  0  0  0  0  0  0  0  0  0  0  0
  2  1  1  0  0  0  0
  3  1  1  0  0  0  0
  4  3  1  0  0  0  0
  5  2  1  0  0  0  0
  6  1  1  0  0  0  0
  7 11  1  0  0  0  0
  8  4  1  0  0  0  0
  9  6  2  0  0  0  0
 10  2  2  0  0  0  0
 11 14  1  0  0  0  0
 12  3  2  0  0  0  0
 13 26  1  0  0  0  0
 14 19  2  0  0  0  0
 15 18  1  0  0  0  0
 16  8  1  0  0  0  0
 17  9  1  0  0  0  0
 18 16  2  0  0  0  0
 19 16  1  0  0  0  0
 20  6  1  0  0  0  0
 21  7  1  0  0  0  0
 22  7  1  0  0  0  0
 23 17  1  0  0  0  0
 24 20  2  0  0  0  0
 25 21  1  0  0  0  0
 26 22  1  0  0  0  0
 27 24  1  0  0  0  0
 28 23  1  0  0  0  0
  5  4  1  0  0  0  0
 27 17  2  0  0  0  0
 11 15  2  0  0  0  0
 13 25  1  0  0  0  0
M  END
> <IDNUMBER>
F1199-0110

> <Chemical_Name>
1-(3-methoxyphenyl)-3-{[4-(morpholin-4-yl)phenyl]amino}pyrrolidine-2,5-dione

> <CAS>
474008-08-7

> <PriceCoeff>
1.00

> <MW>
381.43

> <Description>
solid

> <FSP3>
0.33

> <clogP>
2.03

> <TPSA>
71.11

> <Acceptor>
6

> <Donor>
2

> <RotBonds>
5

> <HAC>
28

> <Collection>
General

$$$$
F2794-0088
  -ISIS-  06222321462D

 27 29  0  0  0  0  0  0  0  0999 V2000
   -3.7500    7.9375    0.0000 S   0  0  3  0  0  0  0  0  0  0  0  0
   -3.0375    7.5292    0.0000 N   0  0  3  0  0  0  0  0  0  0  0  0
   -3.7708    0.4875    0.0000 N   0  3  0  0  0  0  0  0  0  0  0  0
   -3.7708    2.9833    0.0000 C   0  0  0  0  0  0  0  0  0  0  0  0
   -3.7583    3.8000    0.0000 C   0  0  0  0  0  0  0  0  0  0  0  0
   -3.0375    2.5583    0.0000 C   0  0  0  0  0  0  0  0  0  0  0  0
   -3.7625    1.3125    0.0000 C   0  0  0  0  0  0  0  0  0  0  0  0
   -3.0375    1.7250    0.0000 C   0  0  0  0  0  0  0  0  0  0  0  0
   -3.0458    4.2125    0.0000 N   0  0  0  0  0  0  0  0  0  0  0  0
   -4.4583    8.3625    0.0000 O   0  0  0  0  0  0  0  0  0  0  0  0
   -3.7458    7.1042    0.0000 O   0  0  0  0  0  0  0  0  0  0  0  0
   -4.4833    2.5625    0.0000 C   0  0  0  0  0  0  0  0  0  0  0  0
   -3.0458    6.6917    0.0000 C   0  0  0  0  0  0  0  0  0  0  0  0
   -4.4833    0.0833    0.0000 O   0  5  0  0  0  0  0  0  0  0  0  0
   -3.0583    0.0750    0.0000 O   0  0  0  0  0  0  0  0  0  0  0  0
   -4.4750    4.2042    0.0000 O   0  0  0  0  0  0  0  0  0  0  0  0
   -4.4833    1.7333    0.0000 C   0  0  0  0  0  0  0  0  0  0  0  0
   -3.7375    8.7667    0.0000 C   0  0  0  0  0  0  0  0  0  0  0  0
   -3.7625    6.2792    0.0000 C   0  0  0  0  0  0  0  0  0  0  0  0
   -2.3208    6.2792    0.0000 C   0  0  0  0  0  0  0  0  0  0  0  0
   -3.0458    5.0292    0.0000 C   0  0  0  0  0  0  0  0  0  0  0  0
   -2.3208    2.9625    0.0000 Cl  0  0  0  0  0  0  0  0  0  0  0  0
   -2.3125    7.9292    0.0000 C   0  0  0  0  0  0  0  0  0  0  0  0
   -2.3250    5.4500    0.0000 C   0  0  0  0  0  0  0  0  0  0  0  0
   -3.7625    5.4542    0.0000 C   0  0  0  0  0  0  0  0  0  0  0  0
   -3.0208    9.1792    0.0000 C   0  0  0  0  0  0  0  0  0  0  0  0
   -2.3083    8.7542    0.0000 C   0  0  0  0  0  0  0  0  0  0  0  0
  2  1  1  0  0  0  0
  3  7  1  0  0  0  0
  4  5  1  0  0  0  0
  5  9  1  0  0  0  0
  6  4  1  0  0  0  0
  7 17  2  0  0  0  0
  8  6  2  0  0  0  0
  9 21  1  0  0  0  0
 10  1  2  0  0  0  0
 11  1  2  0  0  0  0
 12  4  2  0  0  0  0
 13  2  1  0  0  0  0
 14  3  1  0  0  0  0
 15  3  2  0  0  0  0
 16  5  2  0  0  0  0
 17 12  1  0  0  0  0
 18  1  1  0  0  0  0
 19 13  1  0  0  0  0
 20 13  2  0  0  0  0
 21 24  2  0  0  0  0
 22  6  1  0  0  0  0
 23  2  1  0  0  0  0
 24 20  1  0  0  0  0
 25 19  2  0  0  0  0
 26 18  1  0  0  0  0
 27 26  1  0  0  0  0
 23 27  1  0  0  0  0
 25 21  1  0  0  0  0
  8  7  1  0  0  0  0
M  CHG  2   3   1  14  -1
M  END
> <IDNUMBER>
F2794-0088

> <Chemical_Name>
2-chloro-N-[4-(1,1-dioxo-1lambda6,2-thiazinan-2-yl)phenyl]-4-nitrobenzamide

> <CAS>
899731-85-2

> <PriceCoeff>
1.00

> <MW>
409.84

> <Description>
solid

> <FSP3>
0.24

> <clogP>
2.29

> <TPSA>
118.00

> <Acceptor>
6

> <Donor>
1

> <RotBonds>
4

> <HAC>
27

> <Collection>
General

$$$$
F0849-4319
  -ISIS-  06222321142D

 24 26  0  0  0  0  0  0  0  0999 V2000
    1.0500    0.4000    0.0000 N   0  0  3  0  0  0  0  0  0  0  0  0
    0.1500    0.7500    0.0000 C   0  0  0  0  0  0  0  0  0  0  0  0
    0.9792   -0.5375    0.0000 C   0  0  0  0  0  0  0  0  0  0  0  0
    0.0500   -0.7875    0.0000 C   0  0  3  0  0  0  0  0  0  0  0  0
   -0.4500    0.0208    0.0000 C   0  0  0  0  0  0  0  0  0  0  0  0
   -0.2000   -1.7167    0.0000 N   0  0  0  0  0  0  0  0  0  0  0  0
    1.8167    0.9500    0.0000 C   0  0  0  0  0  0  0  0  0  0  0  0
   -0.0500    1.6958    0.0000 O   0  0  0  0  0  0  0  0  0  0  0  0
    1.7375   -1.1375    0.0000 O   0  0  0  0  0  0  0  0  0  0  0  0
    1.7292    1.9000    0.0000 C   0  0  0  0  0  0  0  0  0  0  0  0
    2.6792    0.5625    0.0000 C   0  0  0  0  0  0  0  0  0  0  0  0
   -1.1333   -1.9667    0.0000 C   0  0  0  0  0  0  0  0  0  0  0  0
    3.3667    2.0625    0.0000 C   0  0  0  0  0  0  0  0  0  0  0  0
   -2.9625   -2.4167    0.0000 C   0  0  0  0  0  0  0  0  0  0  0  0
    3.4542    1.1208    0.0000 C   0  0  0  0  0  0  0  0  0  0  0  0
    2.5042    2.4625    0.0000 C   0  0  0  0  0  0  0  0  0  0  0  0
   -1.8125   -1.2792    0.0000 C   0  0  0  0  0  0  0  0  0  0  0  0
   -1.3958   -2.8792    0.0000 C   0  0  0  0  0  0  0  0  0  0  0  0
   -2.3125   -3.1042    0.0000 C   0  0  0  0  0  0  0  0  0  0  0  0
   -2.6958   -1.5292    0.0000 C   0  0  0  0  0  0  0  0  0  0  0  0
    4.1500    2.6208    0.0000 O   0  0  0  0  0  0  0  0  0  0  0  0
   -3.9000   -2.6542    0.0000 O   0  0  0  0  0  0  0  0  0  0  0  0
    4.0542    3.5708    0.0000 C   0  0  0  0  0  0  0  0  0  0  0  0
   -4.1708   -3.5667    0.0000 C   0  0  0  0  0  0  0  0  0  0  0  0
  2  1  1  0  0  0  0
  3  1  1  0  0  0  0
  4  3  1  0  0  0  0
  5  2  1  0  0  0  0
  6  4  1  0  0  0  0
  7  1  1  0  0  0  0
  8  2  2  0  0  0  0
  9  3  2  0  0  0  0
 10  7  2  0  0  0  0
 11  7  1  0  0  0  0
 12  6  1  0  0  0  0
 13 15  1  0  0  0  0
 14 19  2  0  0  0  0
 15 11  2  0  0  0  0
 16 10  1  0  0  0  0
 17 12  1  0  0  0  0
 18 12  2  0  0  0  0
 19 18  1  0  0  0  0
 20 17  2  0  0  0  0
 21 13  1  0  0  0  0
 22 14  1  0  0  0  0
 23 21  1  0  0  0  0
 24 22  1  0  0  0  0
  4  5  1  0  0  0  0
 13 16  2  0  0  0  0
 14 20  1  0  0  0  0
M  END
> <IDNUMBER>
F0849-4319

> <Chemical_Name>
1-(4-methoxyphenyl)-3-[(4-methoxyphenyl)amino]pyrrolidine-2,5-dione

> <CAS>
37034-97-2

> <PriceCoeff>
1.00

> <MW>
326.35

> <Description>
solid

> <FSP3>
0.22

> <clogP>
2.68

> <TPSA>
67.87

> <Acceptor>
5

> <Donor>
1

> <RotBonds>
5

> <HAC>
24

> <Collection>
General

$$$$
F0158-0017
  -ISIS-  06222321442D

 28 31  0  0  0  0  0  0  0  0999 V2000
   -0.8208    1.0500    0.0000 N   0  0  3  0  0  0  0  0  0  0  0  0
   -0.3625    1.7333    0.0000 C   0  0  0  0  0  0  0  0  0  0  0  0
   -0.3000    0.4125    0.0000 C   0  0  0  0  0  0  0  0  0  0  0  0
    0.4792    0.6958    0.0000 C   0  0  3  0  0  0  0  0  0  0  0  0
    0.4375    1.5125    0.0000 C   0  0  0  0  0  0  0  0  0  0  0  0
    4.1667    1.6708    0.0000 N   0  0  3  0  0  0  0  0  0  0  0  0
    1.1792    0.2333    0.0000 N   0  0  0  0  0  0  0  0  0  0  0  0
   -1.6458    1.0500    0.0000 C   0  0  0  0  0  0  0  0  0  0  0  0
   -0.6625    2.5333    0.0000 O   0  0  0  0  0  0  0  0  0  0  0  0
    3.4167    1.3208    0.0000 C   0  0  0  0  0  0  0  0  0  0  0  0
   -0.5208   -0.4042    0.0000 O   0  0  0  0  0  0  0  0  0  0  0  0
    5.6875    2.3625    0.0000 O   0  0  0  0  0  0  0  0  0  0  0  0
   -2.0458    1.7708    0.0000 C   0  0  0  0  0  0  0  0  0  0  0  0
   -2.0458    0.3500    0.0000 C   0  0  0  0  0  0  0  0  0  0  0  0
    3.3542    0.5000    0.0000 C   0  0  0  0  0  0  0  0  0  0  0  0
    2.7292    1.7958    0.0000 C   0  0  0  0  0  0  0  0  0  0  0  0
    1.9167    0.6000    0.0000 C   0  0  0  0  0  0  0  0  0  0  0  0
   -3.2833    1.0500    0.0000 C   0  0  0  0  0  0  0  0  0  0  0  0
    2.6000    0.1458    0.0000 C   0  0  0  0  0  0  0  0  0  0  0  0
    1.9792    1.4458    0.0000 C   0  0  0  0  0  0  0  0  0  0  0  0
   -2.8625    1.7958    0.0000 C   0  0  0  0  0  0  0  0  0  0  0  0
   -2.8833    0.3500    0.0000 C   0  0  0  0  0  0  0  0  0  0  0  0
    4.8375    1.1958    0.0000 C   0  0  0  0  0  0  0  0  0  0  0  0
    4.2375    2.5000    0.0000 C   0  0  0  0  0  0  0  0  0  0  0  0
   -4.1000    1.0125    0.0000 O   0  0  0  0  0  0  0  0  0  0  0  0
    5.0042    2.8500    0.0000 C   0  0  0  0  0  0  0  0  0  0  0  0
    5.6042    1.5333    0.0000 C   0  0  0  0  0  0  0  0  0  0  0  0
   -4.5500    1.7000    0.0000 C   0  0  0  0  0  0  0  0  0  0  0  0
  2  1  1  0  0  0  0
  3  1  1  0  0  0  0
  4  3  1  0  0  0  0
  5  2  1  0  0  0  0
  6 10  1  0  0  0  0
  7  4  1  0  0  0  0
  8  1  1  0  0  0  0
  9  2  2  0  0  0  0
 10 16  1  0  0  0  0
 11  3  2  0  0  0  0
 12 26  1  0  0  0  0
 13  8  2  0  0  0  0
 14  8  1  0  0  0  0
 15 19  1  0  0  0  0
 16 20  2  0  0  0  0
 17  7  1  0  0  0  0
 18 22  1  0  0  0  0
 19 17  2  0  0  0  0
 20 17  1  0  0  0  0
 21 13  1  0  0  0  0
 22 14  2  0  0  0  0
 23  6  1  0  0  0  0
 24  6  1  0  0  0  0
 25 18  1  0  0  0  0
 26 24  1  0  0  0  0
 27 23  1  0  0  0  0
 28 25  1  0  0  0  0
  4  5  1  0  0  0  0
 18 21  2  0  0  0  0
 15 10  2  0  0  0  0
 12 27  1  0  0  0  0
M  END
> <IDNUMBER>
F0158-0017

> <Chemical_Name>
1-(4-methoxyphenyl)-3-{[4-(morpholin-4-yl)phenyl]amino}pyrrolidine-2,5-dione

> <CAS>
469890-91-3

> <PriceCoeff>
1.00

> <MW>
381.43

> <Description>
solid

> <FSP3>
0.33

> <clogP>
2.03

> <TPSA>
71.11

> <Acceptor>
6

> <Donor>
2

> <RotBonds>
5

> <HAC>
28

> <Collection>
General

$$$$
F0220-0040
  -ISIS-  06222321452D

 28 31  0  0  0  0  0  0  0  0999 V2000
   -0.3208    0.2208    0.0000 N   0  0  3  0  0  0  0  0  0  0  0  0
   -0.0208    1.1208    0.0000 C   0  0  0  0  0  0  0  0  0  0  0  0
    0.4542   -0.3375    0.0000 C   0  0  0  0  0  0  0  0  0  0  0  0
    1.2375    0.2208    0.0000 C   0  0  3  0  0  0  0  0  0  0  0  0
    0.9167    1.1458    0.0000 C   0  0  0  0  0  0  0  0  0  0  0  0
   -4.0000   -0.6542    0.0000 N   0  0  3  0  0  0  0  0  0  0  0  0
    2.1167   -0.1542    0.0000 N   0  0  0  0  0  0  0  0  0  0  0  0
   -1.2458   -0.0000    0.0000 C   0  0  0  0  0  0  0  0  0  0  0  0
   -3.0833   -0.4375    0.0000 C   0  0  0  0  0  0  0  0  0  0  0  0
   -0.6208    1.9000    0.0000 O   0  0  0  0  0  0  0  0  0  0  0  0
    0.4542   -1.3000    0.0000 O   0  0  0  0  0  0  0  0  0  0  0  0
   -1.5208   -0.9000    0.0000 C   0  0  0  0  0  0  0  0  0  0  0  0
   -1.9083    0.7000    0.0000 C   0  0  0  0  0  0  0  0  0  0  0  0
   -2.4458   -1.1375    0.0000 C   0  0  0  0  0  0  0  0  0  0  0  0
   -2.8000    0.4833    0.0000 C   0  0  0  0  0  0  0  0  0  0  0  0
   -5.8625   -1.0542    0.0000 O   0  0  0  0  0  0  0  0  0  0  0  0
    2.9000    0.4208    0.0000 C   0  0  0  0  0  0  0  0  0  0  0  0
    4.4375    1.5458    0.0000 C   0  0  0  0  0  0  0  0  0  0  0  0
    2.8000    1.3833    0.0000 C   0  0  0  0  0  0  0  0  0  0  0  0
    3.7792    0.0208    0.0000 C   0  0  0  0  0  0  0  0  0  0  0  0
    4.5375    0.6000    0.0000 C   0  0  0  0  0  0  0  0  0  0  0  0
    3.5792    1.9458    0.0000 C   0  0  0  0  0  0  0  0  0  0  0  0
   -4.6458    0.0458    0.0000 C   0  0  0  0  0  0  0  0  0  0  0  0
   -4.2833   -1.5542    0.0000 C   0  0  0  0  0  0  0  0  0  0  0  0
    5.2167    2.1000    0.0000 O   0  0  0  0  0  0  0  0  0  0  0  0
   -5.5625   -0.1542    0.0000 C   0  0  0  0  0  0  0  0  0  0  0  0
   -5.2083   -1.7792    0.0000 C   0  0  0  0  0  0  0  0  0  0  0  0
    5.1375    3.0625    0.0000 C   0  0  0  0  0  0  0  0  0  0  0  0
  2  1  1  0  0  0  0
  3  1  1  0  0  0  0
  4  3  1  0  0  0  0
  5  2  1  0  0  0  0
  6  9  1  0  0  0  0
  7  4  1  0  0  0  0
  8  1  1  0  0  0  0
  9 15  1  0  0  0  0
 10  2  2  0  0  0  0
 11  3  2  0  0  0  0
 12  8  2  0  0  0  0
 13  8  1  0  0  0  0
 14 12  1  0  0  0  0
 15 13  2  0  0  0  0
 16 27  1  0  0  0  0
 17  7  1  0  0  0  0
 18 21  1  0  0  0  0
 19 17  2  0  0  0  0
 20 17  1  0  0  0  0
 21 20  2  0  0  0  0
 22 19  1  0  0  0  0
 23  6  1  0  0  0  0
 24  6  1  0  0  0  0
 25 18  1  0  0  0  0
 26 23  1  0  0  0  0
 27 24  1  0  0  0  0
 28 25  1  0  0  0  0
  5  4  1  0  0  0  0
  9 14  2  0  0  0  0
 18 22  2  0  0  0  0
 26 16  1  0  0  0  0
M  END
> <IDNUMBER>
F0220-0040

> <Chemical_Name>
3-[(4-methoxyphenyl)amino]-1-[4-(morpholin-4-yl)phenyl]pyrrolidine-2,5-dione

> <CAS>
470696-05-0

> <PriceCoeff>
1.00

> <MW>
381.43

> <Description>
solid

> <FSP3>
0.33

> <clogP>
2.05

> <TPSA>
71.11

> <Acceptor>
6

> <Donor>
2

> <RotBonds>
5

> <HAC>
28

> <Collection>
General

$$$$
F1199-0027
  -ISIS-  06222321452D

 27 30  0  0  0  0  0  0  0  0999 V2000
    1.9000   -2.2792    0.0000 N   0  0  3  0  0  0  0  0  0  0  0  0
    2.6542   -1.9417    0.0000 C   0  0  0  0  0  0  0  0  0  0  0  0
    1.9792   -3.1042    0.0000 C   0  0  0  0  0  0  0  0  0  0  0  0
    2.7917   -3.2750    0.0000 C   0  0  3  0  0  0  0  0  0  0  0  0
    3.2042   -2.5542    0.0000 C   0  0  0  0  0  0  0  0  0  0  0  0
   -0.9583   -0.6292    0.0000 N   0  0  3  0  0  0  0  0  0  0  0  0
    3.1292   -4.0292    0.0000 N   0  0  0  0  0  0  0  0  0  0  0  0
    1.1792   -1.8667    0.0000 C   0  0  0  0  0  0  0  0  0  0  0  0
   -0.2458   -1.0417    0.0000 C   0  0  0  0  0  0  0  0  0  0  0  0
    2.8250   -1.1375    0.0000 O   0  0  0  0  0  0  0  0  0  0  0  0
    1.3667   -3.6542    0.0000 O   0  0  0  0  0  0  0  0  0  0  0  0
    0.4667   -2.2792    0.0000 C   0  0  0  0  0  0  0  0  0  0  0  0
    1.1792   -1.0417    0.0000 C   0  0  0  0  0  0  0  0  0  0  0  0
   -0.2458   -1.8667    0.0000 C   0  0  0  0  0  0  0  0  0  0  0  0
    0.4667   -0.6292    0.0000 C   0  0  0  0  0  0  0  0  0  0  0  0
    3.9500   -4.1125    0.0000 C   0  0  0  0  0  0  0  0  0  0  0  0
    5.5875   -4.2792    0.0000 C   0  0  0  0  0  0  0  0  0  0  0  0
    6.4042   -4.3667    0.0000 F   0  0  0  0  0  0  0  0  0  0  0  0
    4.4292   -3.4417    0.0000 C   0  0  0  0  0  0  0  0  0  0  0  0
    4.2792   -4.8667    0.0000 C   0  0  0  0  0  0  0  0  0  0  0  0
    5.1000   -4.9542    0.0000 C   0  0  0  0  0  0  0  0  0  0  0  0
    5.2417   -3.5292    0.0000 C   0  0  0  0  0  0  0  0  0  0  0  0
   -0.9583    0.1958    0.0000 C   0  0  0  0  0  0  0  0  0  0  0  0
   -1.6708   -1.0417    0.0000 C   0  0  0  0  0  0  0  0  0  0  0  0
   -1.6708    0.6083    0.0000 C   0  0  0  0  0  0  0  0  0  0  0  0
   -2.3833   -0.6292    0.0000 C   0  0  0  0  0  0  0  0  0  0  0  0
   -2.3833    0.1958    0.0000 C   0  0  0  0  0  0  0  0  0  0  0  0
  2  1  1  0  0  0  0
  3  1  1  0  0  0  0
  4  3  1  0  0  0  0
  5  2  1  0  0  0  0
  6  9  1  0  0  0  0
  7  4  1  0  0  0  0
  8  1  1  0  0  0  0
  9 15  1  0  0  0  0
 10  2  2  0  0  0  0
 11  3  2  0  0  0  0
 12  8  2  0  0  0  0
 13  8  1  0  0  0  0
 14 12  1  0  0  0  0
 15 13  2  0  0  0  0
 16  7  1  0  0  0  0
 17 21  2  0  0  0  0
 18 17  1  0  0  0  0
 19 16  1  0  0  0  0
 20 16  2  0  0  0  0
 21 20  1  0  0  0  0
 22 19  2  0  0  0  0
 23  6  1  0  0  0  0
 24  6  1  0  0  0  0
 25 23  1  0  0  0  0
 26 24  1  0  0  0  0
 27 26  1  0  0  0  0
  5  4  1  0  0  0  0
 14  9  2  0  0  0  0
 17 22  1  0  0  0  0
 27 25  1  0  0  0  0
M  END
> <IDNUMBER>
F1199-0027

> <Chemical_Name>
3-[(4-fluorophenyl)amino]-1-[4-(piperidin-1-yl)phenyl]pyrrolidine-2,5-dione

> <CAS>
1009519-68-9

> <PriceCoeff>
1.00

> <MW>
367.42

> <Description>
solid

> <FSP3>
0.33

> <clogP>
3.77

> <TPSA>
52.65

> <Acceptor>
4

> <Donor>
2

> <RotBonds>
4

> <HAC>
27

> <Collection>
General

$$$$
F2146-0730
  -ISIS-  06222304352D

 30 31  0  0  0  0  0  0  0  0999 V2000
    4.4875   -3.2792    0.0000 C   0  0  0  0  0  0  0  0  0  0  0  0
    3.1583   -3.2792    0.0000 C   0  0  0  0  0  0  0  0  0  0  0  0
    3.8292   -2.7917    0.0000 S   0  0  0  0  0  0  0  0  0  0  0  0
    4.2375   -4.0625    0.0000 N   0  0  3  0  0  0  0  0  0  0  0  0
    3.4125   -4.0625    0.0000 C   0  0  0  0  0  0  0  0  0  0  0  0
    5.2750   -3.0250    0.0000 N   0  0  0  0  0  0  0  0  0  0  0  0
    2.3542   -3.1042    0.0000 C   0  0  0  0  0  0  0  0  0  0  0  0
    2.8583   -4.6708    0.0000 C   0  0  0  0  0  0  0  0  0  0  0  0
    1.8000   -3.7167    0.0000 C   0  0  0  0  0  0  0  0  0  0  0  0
    2.0583   -4.4958    0.0000 C   0  0  0  0  0  0  0  0  0  0  0  0
    4.7208   -4.7333    0.0000 C   0  0  0  0  0  0  0  0  0  0  0  0
    2.1042   -2.3125    0.0000 O   0  0  0  0  0  0  0  0  0  0  0  0
    3.1042   -5.4667    0.0000 O   0  0  0  0  0  0  0  0  0  0  0  0
    4.8708   -6.1583    0.0000 O   0  0  0  0  0  0  0  0  0  0  0  0
    4.3833   -5.4875    0.0000 C   0  0  0  0  0  0  0  0  0  0  0  0
    4.5333   -6.9125    0.0000 C   0  0  0  0  0  0  0  0  0  0  0  0
    1.2958   -2.1292    0.0000 C   0  0  0  0  0  0  0  0  0  0  0  0
    2.5375   -6.0750    0.0000 C   0  0  0  0  0  0  0  0  0  0  0  0
    5.0167   -7.5833    0.0000 C   0  0  0  0  0  0  0  0  0  0  0  0
    8.3098   -3.8454    0.0000 S   0  0  3  0  0  0  0  0  0  0  0  0
    7.9070   -4.5552    0.0000 C   0  0  0  0  0  0  0  0  0  0  0  0
    7.5989   -3.4241    0.0000 O   0  0  0  0  0  0  0  0  0  0  0  0
    8.7156   -3.1243    0.0000 O   0  0  0  0  0  0  0  0  0  0  0  0
    9.0310   -4.2512    0.0000 O   0  0  0  0  0  0  0  0  0  0  0  0
    8.3224   -5.2728    0.0000 C   0  0  0  0  0  0  0  0  0  0  0  0
    7.0765   -4.5594    0.0000 C   0  0  0  0  0  0  0  0  0  0  0  0
    7.9053   -5.9910    0.0000 C   0  0  0  0  0  0  0  0  0  0  0  0
    6.6686   -5.2769    0.0000 C   0  0  0  0  0  0  0  0  0  0  0  0
    7.0820   -5.9909    0.0000 C   0  0  0  0  0  0  0  0  0  0  0  0
    6.6684   -6.7070    0.0000 C   0  0  0  0  0  0  0  0  0  0  0  0
 13  8  1  0  0  0  0
 14 15  1  0  0  0  0
 15 11  1  0  0  0  0
 16 14  1  0  0  0  0
 17 12  1  0  0  0  0
 18 13  1  0  0  0  0
 19 16  1  0  0  0  0
  2  5  2  0  0  0  0
 10  9  1  0  0  0  0
  2  3  1  0  0  0  0
  3  1  1  0  0  0  0
  4  1  1  0  0  0  0
  5  4  1  0  0  0  0
  6  1  2  0  0  0  0
  7  2  1  0  0  0  0
  8  5  1  0  0  0  0
  9  7  2  0  0  0  0
 10  8  2  0  0  0  0
 11  4  1  0  0  0  0
 12  7  1  0  0  0  0
 21 20  1  0  0  0  0
 22 20  2  0  0  0  0
 23 20  2  0  0  0  0
 24 20  1  0  0  0  0
 25 21  1  0  0  0  0
 26 21  2  0  0  0  0
 27 25  2  0  0  0  0
 28 26  1  0  0  0  0
 29 28  2  0  0  0  0
 30 29  1  0  0  0  0
 27 29  1  0  0  0  0
M  END
> <IDNUMBER>
F2146-0730

> <Chemical_Name>
3-(2-ethoxyethyl)-4,7-dimethoxy-2,3-dihydro-1,3-benzothiazol-2-imine; 4-methylbenzene-1-sulfonic acid

> <CAS>
2034156-61-9

> <PriceCoeff>
1.00

> <MW>
282.36

> <Description>
solid

> <FSP3>
0.46

> <clogP>
3.31

> <TPSA>
80.08

> <Acceptor>
3

> <Donor>
1

> <RotBonds>
6

> <HAC>
19

> <Collection>
General

> <Reference_compound>
PRI5904

> <Similarity>
0.8060

$$$$
F3023-0610
  -ISIS-  06222321462D

 25 27  0  0  0  0  0  0  0  0999 V2000
    5.1125   -5.9667    0.0000 N   0  0  3  0  0  0  0  0  0  0  0  0
    5.5917   -5.2917    0.0000 C   0  0  0  0  0  0  0  0  0  0  0  0
    5.6042   -6.6292    0.0000 C   0  0  0  0  0  0  0  0  0  0  0  0
    6.3875   -6.3667    0.0000 C   0  0  3  0  0  0  0  0  0  0  0  0
    6.3792   -5.5417    0.0000 C   0  0  0  0  0  0  0  0  0  0  0  0
    7.8042   -6.5167    0.0000 C   0  0  0  0  0  0  0  0  0  0  0  0
    4.2875   -5.9667    0.0000 C   0  0  0  0  0  0  0  0  0  0  0  0
    8.4750   -7.0000    0.0000 C   0  0  0  0  0  0  0  0  0  0  0  0
    7.0542   -6.8542    0.0000 S   0  0  0  0  0  0  0  0  0  0  0  0
    3.8750   -5.2542    0.0000 C   0  0  0  0  0  0  0  0  0  0  0  0
    8.3917   -7.8167    0.0000 C   0  0  0  0  0  0  0  0  0  0  0  0
    3.0500   -5.2625    0.0000 C   0  0  0  0  0  0  0  0  0  0  0  0
    7.8875   -5.7000    0.0000 N   0  0  0  0  0  0  0  0  0  0  0  0
    3.8792   -6.6875    0.0000 C   0  0  0  0  0  0  0  0  0  0  0  0
    5.3375   -4.5042    0.0000 O   0  0  0  0  0  0  0  0  0  0  0  0
    5.3500   -7.4167    0.0000 O   0  0  0  0  0  0  0  0  0  0  0  0
    9.0542   -8.3042    0.0000 O   0  0  0  0  0  0  0  0  0  0  0  0
    2.6417   -5.9792    0.0000 C   0  0  0  0  0  0  0  0  0  0  0  0
    4.2792   -4.5417    0.0000 Cl  0  0  0  0  0  0  0  0  0  0  0  0
    7.6375   -8.1542    0.0000 O   0  0  0  0  0  0  0  0  0  0  0  0
    3.0625   -6.6917    0.0000 C   0  0  0  0  0  0  0  0  0  0  0  0
    1.8167   -5.9792    0.0000 Cl  0  0  0  0  0  0  0  0  0  0  0  0
    9.2250   -6.6625    0.0000 C   0  0  0  0  0  0  0  0  0  0  0  0
    8.6292   -5.3542    0.0000 C   0  0  0  0  0  0  0  0  0  0  0  0
    9.3042   -5.8375    0.0000 C   0  0  0  0  0  0  0  0  0  0  0  0
  2  1  1  0  0  0  0
  3  1  1  0  0  0  0
  4  3  1  0  0  0  0
  5  2  1  0  0  0  0
  6  9  1  0  0  0  0
  7  1  1  0  0  0  0
  8  6  2  0  0  0  0
  9  4  1  0  0  0  0
 10  7  2  0  0  0  0
 11  8  1  0  0  0  0
 12 10  1  0  0  0  0
 13  6  1  0  0  0  0
 14  7  1  0  0  0  0
 15  2  2  0  0  0  0
 16  3  2  0  0  0  0
 17 11  2  0  0  0  0
 18 21  1  0  0  0  0
 19 10  1  0  0  0  0
 20 11  1  0  0  0  0
 21 14  2  0  0  0  0
 22 18  1  0  0  0  0
 23  8  1  0  0  0  0
 24 13  2  0  0  0  0
 25 24  1  0  0  0  0
  5  4  1  0  0  0  0
 18 12  2  0  0  0  0
 25 23  2  0  0  0  0
M  END
> <IDNUMBER>
F3023-0610

> <Chemical_Name>
2-{[1-(2,4-dichlorophenyl)-2,5-dioxopyrrolidin-3-yl]sulfanyl}pyridine-3-carboxylic acid

> <CAS>
838881-48-4

> <PriceCoeff>
1.00

> <MW>
397.23

> <Description>
solid

> <FSP3>
0.12

> <clogP>
2.91

> <TPSA>
112.87

> <Acceptor>
5

> <Donor>
1

> <RotBonds>
4

> <HAC>
25

> <Collection>
General

$$$$
F0196-0113
  -ISIS-  06222321142D

 25 28  0  0  0  0  0  0  0  0999 V2000
   -0.4208   -0.0792    0.0000 C   0  0  0  0  0  0  0  0  0  0  0  0
   -1.1458   -0.4792    0.0000 C   0  0  0  0  0  0  0  0  0  0  0  0
   -1.8625   -0.0792    0.0000 C   0  0  0  0  0  0  0  0  0  0  0  0
   -0.4208    0.7625    0.0000 C   0  0  0  0  0  0  0  0  0  0  0  0
   -1.8625    0.7625    0.0000 C   0  0  0  0  0  0  0  0  0  0  0  0
   -1.1458    1.1833    0.0000 O   0  0  0  0  0  0  0  0  0  0  0  0
    0.3000   -0.5000    0.0000 C   0  0  0  0  0  0  0  0  0  0  0  0
   -2.5625   -0.4792    0.0000 C   0  0  0  0  0  0  0  0  0  0  0  0
   -2.5625    1.1833    0.0000 C   0  0  0  0  0  0  0  0  0  0  0  0
    1.0000   -0.0792    0.0000 C   0  0  0  0  0  0  0  0  0  0  0  0
    1.7167   -0.5000    0.0000 C   0  0  0  0  0  0  0  0  0  0  0  0
   -3.2833   -0.0792    0.0000 C   0  0  0  0  0  0  0  0  0  0  0  0
   -1.1458   -1.3167    0.0000 O   0  0  0  0  0  0  0  0  0  0  0  0
    1.7167   -1.3167    0.0000 C   0  0  0  0  0  0  0  0  0  0  0  0
   -3.2833    0.7625    0.0000 C   0  0  0  0  0  0  0  0  0  0  0  0
    0.2792   -1.3167    0.0000 C   0  0  0  0  0  0  0  0  0  0  0  0
    2.3542    0.0208    0.0000 O   0  0  0  0  0  0  0  0  0  0  0  0
    2.3542   -1.8375    0.0000 O   0  0  0  0  0  0  0  0  0  0  0  0
    1.0000   -1.7375    0.0000 C   0  0  0  0  0  0  0  0  0  0  0  0
   -2.5625   -1.3167    0.0000 O   0  0  0  0  0  0  0  0  0  0  0  0
    0.3000    1.1833    0.0000 C   0  0  0  0  0  0  0  0  0  0  0  0
   -4.0000    1.1833    0.0000 O   0  0  0  0  0  0  0  0  0  0  0  0
    3.5167   -0.9000    0.0000 C   0  0  0  0  0  0  0  0  0  0  0  0
    3.1542   -0.1542    0.0000 C   0  0  0  0  0  0  0  0  0  0  0  0
    3.1542   -1.6542    0.0000 C   0  0  0  0  0  0  0  0  0  0  0  0
  2  1  1  0  0  0  0
  3  2  1  0  0  0  0
  4  1  2  0  0  0  0
  5  6  1  0  0  0  0
  6  4  1  0  0  0  0
  7  1  1  0  0  0  0
  8  3  1  0  0  0  0
  9  5  1  0  0  0  0
 10  7  2  0  0  0  0
 11 10  1  0  0  0  0
 12  8  2  0  0  0  0
 13  2  2  0  0  0  0
 14 19  1  0  0  0  0
 15  9  2  0  0  0  0
 16  7  1  0  0  0  0
 17 11  1  0  0  0  0
 18 14  1  0  0  0  0
 19 16  2  0  0  0  0
 20  8  1  0  0  0  0
 21  4  1  0  0  0  0
 22 15  1  0  0  0  0
 23 24  1  0  0  0  0
 24 17  1  0  0  0  0
 25 18  1  0  0  0  0
  3  5  2  0  0  0  0
 11 14  2  0  0  0  0
 15 12  1  0  0  0  0
 25 23  1  0  0  0  0
M  END
> <IDNUMBER>
F0196-0113

> <Chemical_Name>
3-(3,4-dihydro-2H-1,5-benzodioxepin-7-yl)-5,7-dihydroxy-2-methyl-4H-chromen-4-one

> <CAS>
169903-86-0

> <PriceCoeff>
1.00

> <MW>
340.33

> <Description>
solid

> <FSP3>
0.21

> <clogP>
3.35

> <TPSA>
85.22

> <Acceptor>
6

> <Donor>
2

> <RotBonds>
1

> <HAC>
25

> <Collection>
General

> <Reference_compound>
CHEMBL455048

> <Similarity>
0.8070

$$$$
F1294-0164
  -ISIS-  06222321442D

 12 12  0  0  0  0  0  0  0  0999 V2000
   -1.9583    0.0958    0.0000 C   0  0  0  0  0  0  0  0  0  0  0  0
   -2.5708    1.1708    0.0000 N   0  0  0  0  0  0  0  0  0  0  0  0
   -2.5708   -0.2542    0.0000 S   0  0  0  0  0  0  0  0  0  0  0  0
   -1.9583    0.8125    0.0000 N   0  0  0  0  0  0  0  0  0  0  0  0
   -1.3375   -0.2542    0.0000 N   0  0  0  0  0  0  0  0  0  0  0  0
   -2.5708    1.8833    0.0000 C   0  0  0  0  0  0  0  0  0  0  0  0
   -3.1875    2.2458    0.0000 C   0  0  0  0  0  0  0  0  0  0  0  0
   -3.8083    1.8958    0.0000 C   0  0  0  0  0  0  0  0  0  0  0  0
   -3.1875    2.9583    0.0000 C   0  0  0  0  0  0  0  0  0  0  0  0
   -4.4208    2.2458    0.0000 C   0  0  0  0  0  0  0  0  0  0  0  0
   -3.8083    3.3125    0.0000 C   0  0  0  0  0  0  0  0  0  0  0  0
   -4.4208    2.9583    0.0000 C   0  0  0  0  0  0  0  0  0  0  0  0
  2  4  1  0  0  0  0
  3  1  2  0  0  0  0
  4  1  1  0  0  0  0
  5  1  1  0  0  0  0
  6  2  2  0  0  0  0
  7  6  1  0  0  0  0
  8  7  2  0  0  0  0
  9  7  1  0  0  0  0
 10  8  1  0  0  0  0
 11  9  2  0  0  0  0
 12 11  1  0  0  0  0
 12 10  2  0  0  0  0
M  END
> <IDNUMBER>
F1294-0164

> <Chemical_Name>
[(E)-(phenylmethylidene)amino]thiourea

> <CAS>
1627-73-2

> <PriceCoeff>
1.00

> <MW>
179.24

> <Description>
solid

> <FSP3>
0.00

> <clogP>
1.87

> <TPSA>
82.50

> <Acceptor>
2

> <Donor>
3

> <RotBonds>
2

> <HAC>
12

> <Collection>
General

> <Reference_compound>
CHEMBL243185

> <Similarity>
1.0000

$$$$
F0440-0366
  -ISIS-  06222321452D

 26 28  0  0  0  0  0  0  0  0999 V2000
   -0.8333    2.1625    0.0000 N   0  0  3  0  0  0  0  0  0  0  0  0
    2.2500    1.7208    0.0000 C   0  0  0  0  0  0  0  0  0  0  0  0
   -1.1500    1.5458    0.0000 C   0  0  0  0  0  0  0  0  0  0  0  0
   -1.3333    2.6625    0.0000 C   0  0  0  0  0  0  0  0  0  0  0  0
    2.4375    2.4208    0.0000 C   0  0  0  0  0  0  0  0  0  0  0  0
    1.5542    1.5458    0.0000 C   0  0  0  0  0  0  0  0  0  0  0  0
    0.3500    1.8625    0.0000 C   0  0  0  0  0  0  0  0  0  0  0  0
    1.0500    2.0625    0.0000 N   0  0  0  0  0  0  0  0  0  0  0  0
   -0.1500    2.3625    0.0000 C   0  0  0  0  0  0  0  0  0  0  0  0
    2.7500    1.2208    0.0000 C   0  0  0  0  0  0  0  0  0  0  0  0
   -1.8500    1.6625    0.0000 C   0  0  0  0  0  0  0  0  0  0  0  0
   -1.9500    2.3458    0.0000 C   0  0  0  0  0  0  0  0  0  0  0  0
    1.9542    2.9208    0.0000 O   0  0  0  0  0  0  0  0  0  0  0  0
   -0.8125    0.9000    0.0000 O   0  0  0  0  0  0  0  0  0  0  0  0
   -1.2333    3.3833    0.0000 O   0  0  0  0  0  0  0  0  0  0  0  0
    3.1167    2.5833    0.0000 C   0  0  0  0  0  0  0  0  0  0  0  0
    0.1542    1.1833    0.0000 O   0  0  0  0  0  0  0  0  0  0  0  0
    1.3542    0.8625    0.0000 C   0  0  0  0  0  0  0  0  0  0  0  0
    2.5500    0.5458    0.0000 C   0  0  0  0  0  0  0  0  0  0  0  0
    1.8542    0.3625    0.0000 C   0  0  0  0  0  0  0  0  0  0  0  0
    3.3500    3.2708    0.0000 C   0  0  0  0  0  0  0  0  0  0  0  0
    3.6167    2.0625    0.0000 C   0  0  0  0  0  0  0  0  0  0  0  0
    3.0542    0.0458    0.0000 C   0  0  0  0  0  0  0  0  0  0  0  0
    4.3000    2.2208    0.0000 C   0  0  0  0  0  0  0  0  0  0  0  0
    4.0167    3.4208    0.0000 C   0  0  0  0  0  0  0  0  0  0  0  0
    4.5000    2.9000    0.0000 C   0  0  0  0  0  0  0  0  0  0  0  0
  2  6  2  0  0  0  0
  3  1  1  0  0  0  0
  4  1  1  0  0  0  0
  5  2  1  0  0  0  0
  6  8  1  0  0  0  0
  7  9  1  0  0  0  0
  8  7  1  0  0  0  0
  9  1  1  0  0  0  0
 10  2  1  0  0  0  0
 11  3  1  0  0  0  0
 12  4  1  0  0  0  0
 13  5  2  0  0  0  0
 14  3  2  0  0  0  0
 15  4  2  0  0  0  0
 16  5  1  0  0  0  0
 17  7  2  0  0  0  0
 18  6  1  0  0  0  0
 19 20  1  0  0  0  0
 20 18  2  0  0  0  0
 21 16  2  0  0  0  0
 22 16  1  0  0  0  0
 23 19  1  0  0  0  0
 24 22  2  0  0  0  0
 25 21  1  0  0  0  0
 26 24  1  0  0  0  0
 12 11  1  0  0  0  0
 19 10  2  0  0  0  0
 26 25  2  0  0  0  0
M  END
> <IDNUMBER>
F0440-0366

> <Chemical_Name>
N-(2-benzoyl-4-methylphenyl)-2-(2,5-dioxopyrrolidin-1-yl)acetamide

> <CAS>
392324-94-6

> <PriceCoeff>
1.00

> <MW>
350.37

> <Description>
solid

> <FSP3>
0.20

> <clogP>
3.05

> <TPSA>
83.55

> <Acceptor>
4

> <Donor>
1

> <RotBonds>
5

> <HAC>
26

> <Collection>
General

$$$$
F1383-0014
  -ISIS-  06222321142D

 27 29  0  0  0  0  0  0  0  0999 V2000
    2.7375   -1.1917    0.0000 N   0  0  3  0  0  0  0  0  0  0  0  0
    3.4042   -0.7042    0.0000 C   0  0  0  0  0  0  0  0  0  0  0  0
    2.9875   -1.9792    0.0000 C   0  0  0  0  0  0  0  0  0  0  0  0
    3.8167   -1.9792    0.0000 C   0  0  3  0  0  0  0  0  0  0  0  0
    4.0792   -1.1917    0.0000 C   0  0  0  0  0  0  0  0  0  0  0  0
    5.1292   -2.5667    0.0000 C   0  0  0  0  0  0  0  0  0  0  0  0
    5.6167   -3.2417    0.0000 C   0  0  0  0  0  0  0  0  0  0  0  0
    4.3042   -2.6542    0.0000 S   0  0  0  0  0  0  0  0  0  0  0  0
    5.2750   -3.9917    0.0000 C   0  0  0  0  0  0  0  0  0  0  0  0
    1.9500   -0.9417    0.0000 C   0  0  0  0  0  0  0  0  0  0  0  0
    5.4625   -1.8125    0.0000 N   0  0  0  0  0  0  0  0  0  0  0  0
    3.4042    0.1250    0.0000 O   0  0  0  0  0  0  0  0  0  0  0  0
    2.5042   -2.6542    0.0000 O   0  0  0  0  0  0  0  0  0  0  0  0
   -0.5875    0.6375    0.0000 C   0  0  0  0  0  0  0  0  0  0  0  0
    5.7542   -4.6667    0.0000 O   0  0  0  0  0  0  0  0  0  0  0  0
   -0.4208   -0.1750    0.0000 O   0  0  0  0  0  0  0  0  0  0  0  0
    0.0250    1.1958    0.0000 O   0  0  0  0  0  0  0  0  0  0  0  0
    1.3375   -1.4917    0.0000 C   0  0  0  0  0  0  0  0  0  0  0  0
    1.7792   -0.1292    0.0000 C   0  0  0  0  0  0  0  0  0  0  0  0
    0.3750   -0.4250    0.0000 C   0  0  0  0  0  0  0  0  0  0  0  0
    4.4500   -4.0792    0.0000 O   0  0  0  0  0  0  0  0  0  0  0  0
    0.5500   -1.2417    0.0000 C   0  0  0  0  0  0  0  0  0  0  0  0
    0.9917    0.1333    0.0000 C   0  0  0  0  0  0  0  0  0  0  0  0
    6.4417   -3.1500    0.0000 C   0  0  0  0  0  0  0  0  0  0  0  0
    6.2792   -1.7250    0.0000 C   0  0  0  0  0  0  0  0  0  0  0  0
   -1.3833    0.8958    0.0000 C   0  0  0  0  0  0  0  0  0  0  0  0
    6.7792   -2.3917    0.0000 C   0  0  0  0  0  0  0  0  0  0  0  0
  2  1  1  0  0  0  0
  3  1  1  0  0  0  0
  4  3  1  0  0  0  0
  5  2  1  0  0  0  0
  6  8  1  0  0  0  0
  7  6  2  0  0  0  0
  8  4  1  0  0  0  0
  9  7  1  0  0  0  0
 10  1  1  0  0  0  0
 11  6  1  0  0  0  0
 12  2  2  0  0  0  0
 13  3  2  0  0  0  0
 14 16  1  0  0  0  0
 15  9  2  0  0  0  0
 16 20  1  0  0  0  0
 17 14  2  0  0  0  0
 18 10  1  0  0  0  0
 19 10  2  0  0  0  0
 20 23  2  0  0  0  0
 21  9  1  0  0  0  0
 22 18  2  0  0  0  0
 23 19  1  0  0  0  0
 24  7  1  0  0  0  0
 25 11  2  0  0  0  0
 26 14  1  0  0  0  0
 27 25  1  0  0  0  0
  5  4  1  0  0  0  0
 20 22  1  0  0  0  0
 27 24  2  0  0  0  0
M  END
> <IDNUMBER>
F1383-0014

> <Chemical_Name>
2-({1-[4-(acetyloxy)phenyl]-2,5-dioxopyrrolidin-3-yl}sulfanyl)pyridine-3-carboxylic acid

> <CAS>
448198-57-0

> <PriceCoeff>
1.00

> <MW>
386.38

> <Description>
solid

> <FSP3>
0.17

> <clogP>
1.03

> <TPSA>
139.17

> <Acceptor>
7

> <Donor>
1

> <RotBonds>
6

> <HAC>
27

> <Collection>
General

$$$$
F2384-0011
  -ISIS-  06222321142D

 24 26  0  0  0  0  0  0  0  0999 V2000
   -3.0333    7.5250    0.0000 N   0  0  3  0  0  0  0  0  0  0  0  0
   -3.0375    6.6917    0.0000 C   0  0  0  0  0  0  0  0  0  0  0  0
   -2.3083    7.9250    0.0000 C   0  0  0  0  0  0  0  0  0  0  0  0
   -3.7500    3.8000    0.0000 C   0  0  0  0  0  0  0  0  0  0  0  0
   -2.3208    6.2667    0.0000 C   0  0  0  0  0  0  0  0  0  0  0  0
   -3.0375    4.2125    0.0000 N   0  0  0  0  0  0  0  0  0  0  0  0
   -3.7583    6.2792    0.0000 C   0  0  0  0  0  0  0  0  0  0  0  0
   -3.7583    2.9833    0.0000 C   0  0  0  0  0  0  0  0  0  0  0  0
   -3.0375    5.0292    0.0000 C   0  0  0  0  0  0  0  0  0  0  0  0
   -2.3208    5.4500    0.0000 C   0  0  0  0  0  0  0  0  0  0  0  0
   -1.5958    7.5042    0.0000 C   0  0  0  0  0  0  0  0  0  0  0  0
   -4.4708    4.2042    0.0000 O   0  0  0  0  0  0  0  0  0  0  0  0
   -2.3083    8.7500    0.0000 O   0  0  0  0  0  0  0  0  0  0  0  0
   -1.6083    6.6792    0.0000 C   0  0  0  0  0  0  0  0  0  0  0  0
   -3.0458    2.5583    0.0000 C   0  0  0  0  0  0  0  0  0  0  0  0
   -4.4708    2.5708    0.0000 C   0  0  0  0  0  0  0  0  0  0  0  0
   -3.7583    5.4542    0.0000 C   0  0  0  0  0  0  0  0  0  0  0  0
   -3.7458    7.9375    0.0000 C   0  0  0  0  0  0  0  0  0  0  0  0
   -3.7625    1.3208    0.0000 C   0  0  0  0  0  0  0  0  0  0  0  0
   -3.0458    1.7333    0.0000 C   0  0  0  0  0  0  0  0  0  0  0  0
   -4.4750    1.7375    0.0000 C   0  0  0  0  0  0  0  0  0  0  0  0
   -3.7708    0.4958    0.0000 Cl  0  0  0  0  0  0  0  0  0  0  0  0
   -3.7458    8.7542    0.0000 C   0  0  0  0  0  0  0  0  0  0  0  0
   -4.4583    9.1792    0.0000 C   0  0  0  0  0  0  0  0  0  0  0  0
  2  1  1  0  0  0  0
  3  1  1  0  0  0  0
  4  6  1  0  0  0  0
  5  2  2  0  0  0  0
  6  9  1  0  0  0  0
  7  2  1  0  0  0  0
  8  4  1  0  0  0  0
  9 17  1  0  0  0  0
 10  5  1  0  0  0  0
 11  3  1  0  0  0  0
 12  4  2  0  0  0  0
 13  3  2  0  0  0  0
 14 11  1  0  0  0  0
 15  8  1  0  0  0  0
 16  8  2  0  0  0  0
 17  7  2  0  0  0  0
 18  1  1  0  0  0  0
 19 21  2  0  0  0  0
 20 15  2  0  0  0  0
 21 16  1  0  0  0  0
 22 19  1  0  0  0  0
 23 18  1  0  0  0  0
 24 23  1  0  0  0  0
  5 14  1  0  0  0  0
 10  9  2  0  0  0  0
 20 19  1  0  0  0  0
M  END
> <IDNUMBER>
F2384-0011

> <Chemical_Name>
4-chloro-N-(2-oxo-1-propyl-1,2,3,4-tetrahydroquinolin-6-yl)benzamide

> <CAS>
1021280-61-4

> <PriceCoeff>
1.00

> <MW>
342.82

> <Description>
solid

> <FSP3>
0.26

> <clogP>
3.84

> <TPSA>
49.41

> <Acceptor>
2

> <Donor>
1

> <RotBonds>
4

> <HAC>
24

> <Collection>
General

> <Reference_compound>
CHEMBL2286415

> <Similarity>
0.8240

$$$$
F3205-0101
  -ISIS-  06222321152D

 26 29  0  0  0  0  0  0  0  0999 V2000
    1.4542    0.5250    0.0000 N   0  0  3  0  0  0  0  0  0  0  0  0
    1.9417    1.1958    0.0000 C   0  0  0  0  0  0  0  0  0  0  0  0
    1.9375   -0.1417    0.0000 C   0  0  0  0  0  0  0  0  0  0  0  0
    2.7167    0.1083    0.0000 C   0  0  3  0  0  0  0  0  0  0  0  0
    2.7250    0.9375    0.0000 C   0  0  0  0  0  0  0  0  0  0  0  0
    3.4292   -0.3042    0.0000 N   0  0  0  0  0  0  0  0  0  0  0  0
    0.6292    0.5250    0.0000 C   0  0  0  0  0  0  0  0  0  0  0  0
    5.5750    0.1083    0.0000 C   0  0  0  0  0  0  0  0  0  0  0  0
    4.8625   -0.3042    0.0000 C   0  0  0  0  0  0  0  0  0  0  0  0
    1.6792    1.9833    0.0000 O   0  0  0  0  0  0  0  0  0  0  0  0
    5.5750    0.9333    0.0000 C   0  0  0  0  0  0  0  0  0  0  0  0
    6.3542   -0.1500    0.0000 O   0  0  0  0  0  0  0  0  0  0  0  0
    4.1500    0.1083    0.0000 C   0  0  0  0  0  0  0  0  0  0  0  0
    1.6792   -0.9250    0.0000 O   0  0  0  0  0  0  0  0  0  0  0  0
    6.3625    1.1833    0.0000 O   0  0  0  0  0  0  0  0  0  0  0  0
   -1.0000    0.5333    0.0000 C   0  0  0  0  0  0  0  0  0  0  0  0
    6.8417    0.5208    0.0000 C   0  0  0  0  0  0  0  0  0  0  0  0
   -1.8250    0.5375    0.0000 N   0  0  3  0  0  0  0  0  0  0  0  0
    0.2167   -0.1792    0.0000 C   0  0  0  0  0  0  0  0  0  0  0  0
    0.2167    1.2375    0.0000 C   0  0  0  0  0  0  0  0  0  0  0  0
   -0.5958   -0.1792    0.0000 C   0  0  0  0  0  0  0  0  0  0  0  0
   -0.5958    1.2375    0.0000 C   0  0  0  0  0  0  0  0  0  0  0  0
    4.8667    1.3458    0.0000 C   0  0  0  0  0  0  0  0  0  0  0  0
    4.1542    0.9333    0.0000 C   0  0  0  0  0  0  0  0  0  0  0  0
   -2.2458   -0.1792    0.0000 C   0  0  0  0  0  0  0  0  0  0  0  0
   -2.2375    1.2500    0.0000 C   0  0  0  0  0  0  0  0  0  0  0  0
  2  1  1  0  0  0  0
  3  1  1  0  0  0  0
  4  3  1  0  0  0  0
  5  2  1  0  0  0  0
  6  4  1  0  0  0  0
  7  1  1  0  0  0  0
  8  9  2  0  0  0  0
  9 13  1  0  0  0  0
 10  2  2  0  0  0  0
 11 23  2  0  0  0  0
 12  8  1  0  0  0  0
 13  6  1  0  0  0  0
 14  3  2  0  0  0  0
 15 11  1  0  0  0  0
 16 22  1  0  0  0  0
 17 12  1  0  0  0  0
 18 16  1  0  0  0  0
 19  7  2  0  0  0  0
 20  7  1  0  0  0  0
 21 19  1  0  0  0  0
 22 20  2  0  0  0  0
 23 24  1  0  0  0  0
 24 13  2  0  0  0  0
 25 18  1  0  0  0  0
 26 18  1  0  0  0  0
  4  5  1  0  0  0  0
 21 16  2  0  0  0  0
 11  8  1  0  0  0  0
 15 17  1  0  0  0  0
M  END
> <IDNUMBER>
F3205-0101

> <Chemical_Name>
3-[(2H-1,3-benzodioxol-5-yl)amino]-1-[4-(dimethylamino)phenyl]pyrrolidine-2,5-dione

> <CAS>
1008077-20-0

> <PriceCoeff>
1.00

> <MW>
353.37

> <Description>
solid

> <FSP3>
0.26

> <clogP>
2.75

> <TPSA>
71.11

> <Acceptor>
6

> <Donor>
2

> <RotBonds>
4

> <HAC>
26

> <Collection>
General

$$$$
F3325-0135
  -ISIS-  06222321152D

 24 26  0  0  0  0  0  0  0  0999 V2000
    3.0375   -3.0417    0.0000 N   0  0  3  0  0  0  0  0  0  0  0  0
    3.5542   -3.6917    0.0000 C   0  0  0  0  0  0  0  0  0  0  0  0
    3.4875   -2.3500    0.0000 C   0  0  0  0  0  0  0  0  0  0  0  0
    4.3250   -3.4000    0.0000 C   0  0  3  0  0  0  0  0  0  0  0  0
    4.2875   -2.5667    0.0000 C   0  0  0  0  0  0  0  0  0  0  0  0
    5.0625   -3.7792    0.0000 N   0  0  0  0  0  0  0  0  0  0  0  0
    2.2125   -3.0875    0.0000 C   0  0  0  0  0  0  0  0  0  0  0  0
    3.3375   -4.4875    0.0000 O   0  0  0  0  0  0  0  0  0  0  0  0
    3.1917   -1.5792    0.0000 O   0  0  0  0  0  0  0  0  0  0  0  0
    7.1500   -2.4292    0.0000 C   0  0  0  0  0  0  0  0  0  0  0  0
    7.8417   -1.9875    0.0000 N   0  0  3  0  0  0  0  0  0  0  0  0
    5.7625   -3.3292    0.0000 C   0  0  0  0  0  0  0  0  0  0  0  0
    7.1917   -3.2625    0.0000 C   0  0  0  0  0  0  0  0  0  0  0  0
    6.4167   -2.0542    0.0000 C   0  0  0  0  0  0  0  0  0  0  0  0
    1.7667   -2.3917    0.0000 C   0  0  0  0  0  0  0  0  0  0  0  0
    5.7250   -2.5042    0.0000 C   0  0  0  0  0  0  0  0  0  0  0  0
    6.4917   -3.7042    0.0000 C   0  0  0  0  0  0  0  0  0  0  0  0
    7.8042   -1.1625    0.0000 C   0  0  0  0  0  0  0  0  0  0  0  0
    8.5792   -2.3625    0.0000 C   0  0  0  0  0  0  0  0  0  0  0  0
    2.1417   -1.6625    0.0000 C   0  0  0  0  0  0  0  0  0  0  0  0
    0.9417   -2.4375    0.0000 C   0  0  0  0  0  0  0  0  0  0  0  0
    0.4917   -1.7500    0.0000 C   0  0  0  0  0  0  0  0  0  0  0  0
    1.6917   -0.9667    0.0000 C   0  0  0  0  0  0  0  0  0  0  0  0
    0.8667   -1.0042    0.0000 C   0  0  0  0  0  0  0  0  0  0  0  0
  2  1  1  0  0  0  0
  3  1  1  0  0  0  0
  4  2  1  0  0  0  0
  5  3  1  0  0  0  0
  6  4  1  0  0  0  0
  7  1  1  0  0  0  0
  8  2  2  0  0  0  0
  9  3  2  0  0  0  0
 10 13  1  0  0  0  0
 11 10  1  0  0  0  0
 12  6  1  0  0  0  0
 13 17  2  0  0  0  0
 14 16  1  0  0  0  0
 15  7  1  0  0  0  0
 16 12  2  0  0  0  0
 17 12  1  0  0  0  0
 18 11  1  0  0  0  0
 19 11  1  0  0  0  0
 20 15  2  0  0  0  0
 21 15  1  0  0  0  0
 22 21  2  0  0  0  0
 23 20  1  0  0  0  0
 24 22  1  0  0  0  0
  5  4  1  0  0  0  0
 23 24  2  0  0  0  0
 10 14  2  0  0  0  0
M  END
> <IDNUMBER>
F3325-0135

> <Chemical_Name>
1-benzyl-3-{[4-(dimethylamino)phenyl]amino}pyrrolidine-2,5-dione

> <CAS>
1025396-05-7

> <PriceCoeff>
1.00

> <MW>
323.39

> <Description>
solid

> <FSP3>
0.26

> <clogP>
3.40

> <TPSA>
52.65

> <Acceptor>
4

> <Donor>
2

> <RotBonds>
5

> <HAC>
24

> <Collection>
General

$$$$
F3023-1011
  -ISIS-  06222321442D

 29 32  0  0  0  0  0  0  0  0999 V2000
    4.2542   -6.4542    0.0000 N   0  0  3  0  0  0  0  0  0  0  0  0
    4.6667   -5.8792    0.0000 C   0  0  0  0  0  0  0  0  0  0  0  0
    4.6750   -7.0250    0.0000 C   0  0  0  0  0  0  0  0  0  0  0  0
    5.3500   -6.8042    0.0000 C   0  0  3  0  0  0  0  0  0  0  0  0
    5.3417   -6.0917    0.0000 C   0  0  0  0  0  0  0  0  0  0  0  0
    8.5125   -6.0625    0.0000 N   0  0  3  0  0  0  0  0  0  0  0  0
    5.9167   -7.2167    0.0000 N   0  0  0  0  0  0  0  0  0  0  0  0
    3.5417   -6.4542    0.0000 C   0  0  0  0  0  0  0  0  0  0  0  0
    4.4417   -5.2042    0.0000 O   0  0  0  0  0  0  0  0  0  0  0  0
    7.8625   -6.3542    0.0000 C   0  0  0  0  0  0  0  0  0  0  0  0
    4.4625   -7.7000    0.0000 O   0  0  0  0  0  0  0  0  0  0  0  0
    2.1292   -6.4667    0.0000 C   0  0  0  0  0  0  0  0  0  0  0  0
    1.4250   -6.4667    0.0000 C   0  0  0  0  0  0  0  0  0  0  0  0
    3.2000   -7.0750    0.0000 C   0  0  0  0  0  0  0  0  0  0  0  0
    3.1917   -5.8417    0.0000 C   0  0  0  0  0  0  0  0  0  0  0  0
    1.0667   -5.8625    0.0000 O   0  0  0  0  0  0  0  0  0  0  0  0
    2.4917   -7.0792    0.0000 C   0  0  0  0  0  0  0  0  0  0  0  0
    2.4792   -5.8500    0.0000 C   0  0  0  0  0  0  0  0  0  0  0  0
    7.7917   -7.0542    0.0000 C   0  0  0  0  0  0  0  0  0  0  0  0
    7.2792   -5.9375    0.0000 C   0  0  0  0  0  0  0  0  0  0  0  0
    6.5667   -6.9292    0.0000 C   0  0  0  0  0  0  0  0  0  0  0  0
    7.1417   -7.3417    0.0000 C   0  0  0  0  0  0  0  0  0  0  0  0
    6.6375   -6.2250    0.0000 C   0  0  0  0  0  0  0  0  0  0  0  0
    8.5792   -5.3542    0.0000 C   0  0  0  0  0  0  0  0  0  0  0  0
    9.0875   -6.4792    0.0000 C   0  0  0  0  0  0  0  0  0  0  0  0
    1.0750   -7.0875    0.0000 C   0  0  0  0  0  0  0  0  0  0  0  0
    9.2292   -5.0667    0.0000 C   0  0  0  0  0  0  0  0  0  0  0  0
    9.7292   -6.1917    0.0000 C   0  0  0  0  0  0  0  0  0  0  0  0
    9.8125   -5.4875    0.0000 C   0  0  0  0  0  0  0  0  0  0  0  0
  2  1  1  0  0  0  0
  3  1  1  0  0  0  0
  4  3  1  0  0  0  0
  5  2  1  0  0  0  0
  6 10  1  0  0  0  0
  7  4  1  0  0  0  0
  8  1  1  0  0  0  0
  9  2  2  0  0  0  0
 10 20  1  0  0  0  0
 11  3  2  0  0  0  0
 12 18  2  0  0  0  0
 13 12  1  0  0  0  0
 14  8  1  0  0  0  0
 15  8  2  0  0  0  0
 16 13  2  0  0  0  0
 17 14  2  0  0  0  0
 18 15  1  0  0  0  0
 19 22  1  0  0  0  0
 20 23  2  0  0  0  0
 21  7  1  0  0  0  0
 22 21  2  0  0  0  0
 23 21  1  0  0  0  0
 24  6  1  0  0  0  0
 25  6  1  0  0  0  0
 26 13  1  0  0  0  0
 27 24  1  0  0  0  0
 28 25  1  0  0  0  0
 29 28  1  0  0  0  0
  5  4  1  0  0  0  0
 12 17  1  0  0  0  0
 10 19  2  0  0  0  0
 29 27  1  0  0  0  0
M  END
> <IDNUMBER>
F3023-1011

> <Chemical_Name>
1-(4-acetylphenyl)-3-{[4-(piperidin-1-yl)phenyl]amino}pyrrolidine-2,5-dione

> <CAS>
1009234-29-0

> <PriceCoeff>
1.00

> <MW>
391.46

> <Description>
solid

> <FSP3>
0.35

> <clogP>
3.27

> <TPSA>
69.72

> <Acceptor>
5

> <Donor>
2

> <RotBonds>
5

> <HAC>
29

> <Collection>
General

$$$$
F1190-0490
  -ISIS-  06222321142D

 22 24  0  0  0  0  0  0  0  0999 V2000
    4.0167    0.9708    0.0000 C   0  0  0  0  0  0  0  0  0  0  0  0
    3.3000    1.3833    0.0000 C   0  0  0  0  0  0  0  0  0  0  0  0
    4.7417    1.3833    0.0000 C   0  0  0  0  0  0  0  0  0  0  0  0
    4.7417    2.2208    0.0000 C   0  0  0  0  0  0  0  0  0  0  0  0
    3.3042    2.2208    0.0000 C   0  0  0  0  0  0  0  0  0  0  0  0
    4.0167    2.6458    0.0000 O   0  0  0  0  0  0  0  0  0  0  0  0
    2.5875    0.9750    0.0000 C   0  0  0  0  0  0  0  0  0  0  0  0
    2.5875    2.6333    0.0000 C   0  0  0  0  0  0  0  0  0  0  0  0
    1.8750    1.3875    0.0000 C   0  0  0  0  0  0  0  0  0  0  0  0
    5.4542    0.9708    0.0000 C   0  0  0  0  0  0  0  0  0  0  0  0
    4.0167    0.1458    0.0000 O   0  0  0  0  0  0  0  0  0  0  0  0
    1.8750    2.2125    0.0000 C   0  0  0  0  0  0  0  0  0  0  0  0
    5.4417    0.1458    0.0000 C   0  0  0  0  0  0  0  0  0  0  0  0
    6.1625    1.3833    0.0000 C   0  0  0  0  0  0  0  0  0  0  0  0
    2.5875    0.1500    0.0000 O   0  0  0  0  0  0  0  0  0  0  0  0
    5.4542    2.6250    0.0000 C   0  0  0  0  0  0  0  0  0  0  0  0
    6.8750    0.1375    0.0000 C   0  0  0  0  0  0  0  0  0  0  0  0
    6.8750    0.9708    0.0000 C   0  0  0  0  0  0  0  0  0  0  0  0
    6.1542   -0.2667    0.0000 C   0  0  0  0  0  0  0  0  0  0  0  0
    1.1625    2.6250    0.0000 O   0  0  0  0  0  0  0  0  0  0  0  0
    7.5875   -0.2750    0.0000 O   0  0  0  0  0  0  0  0  0  0  0  0
    8.3042    0.1375    0.0000 C   0  0  0  0  0  0  0  0  0  0  0  0
  2  1  1  0  0  0  0
  3  1  1  0  0  0  0
  4  3  2  0  0  0  0
  5  2  1  0  0  0  0
  6  4  1  0  0  0  0
  7  2  2  0  0  0  0
  8  5  2  0  0  0  0
  9  7  1  0  0  0  0
 10  3  1  0  0  0  0
 11  1  2  0  0  0  0
 12  9  2  0  0  0  0
 13 10  2  0  0  0  0
 14 10  1  0  0  0  0
 15  7  1  0  0  0  0
 16  4  1  0  0  0  0
 17 18  1  0  0  0  0
 18 14  2  0  0  0  0
 19 13  1  0  0  0  0
 20 12  1  0  0  0  0
 21 17  1  0  0  0  0
 22 21  1  0  0  0  0
  6  5  1  0  0  0  0
 17 19  2  0  0  0  0
 12  8  1  0  0  0  0
M  END
> <IDNUMBER>
F1190-0490

> <Chemical_Name>
5,7-dihydroxy-3-(4-methoxyphenyl)-2-methyl-4H-chromen-4-one

> <CAS>
62845-05-0

> <PriceCoeff>
1.00

> <MW>
298.29

> <Description>
solid

> <FSP3>
0.12

> <clogP>
3.19

> <TPSA>
75.99

> <Acceptor>
5

> <Donor>
2

> <RotBonds>
2

> <HAC>
22

> <Collection>
General

> <Reference_compound>
CHEMBL44

> <Similarity>
0.8490

$$$$
F3385-1245
  -ISIS-  06222321152D

 27 30  0  0  0  0  0  0  0  0999 V2000
    6.9167   -1.2667    0.0000 C   0  0  0  0  0  0  0  0  0  0  0  0
    5.4792   -0.4292    0.0000 C   0  0  0  0  0  0  0  0  0  0  0  0
    5.4750   -1.2667    0.0000 C   0  0  0  0  0  0  0  0  0  0  0  0
    6.1917   -1.6792    0.0000 C   0  0  0  0  0  0  0  0  0  0  0  0
    4.7625   -0.0167    0.0000 C   0  0  0  0  0  0  0  0  0  0  0  0
    6.1917   -0.0125    0.0000 O   0  0  0  0  0  0  0  0  0  0  0  0
    6.9167   -0.4292    0.0000 C   0  0  0  0  0  0  0  0  0  0  0  0
    4.0417    1.2125    0.0000 N   0  0  3  0  0  0  0  0  0  0  0  0
    4.7542    0.8083    0.0000 C   0  0  0  0  0  0  0  0  0  0  0  0
    4.7625   -1.6750    0.0000 C   0  0  0  0  0  0  0  0  0  0  0  0
    4.0500   -0.4375    0.0000 C   0  0  0  0  0  0  0  0  0  0  0  0
    2.6167    2.0458    0.0000 N   0  0  3  0  0  0  0  0  0  0  0  0
    7.6250   -1.6792    0.0000 C   0  0  0  0  0  0  0  0  0  0  0  0
    6.1917   -2.5042    0.0000 O   0  0  0  0  0  0  0  0  0  0  0  0
    4.0500   -1.2625    0.0000 C   0  0  0  0  0  0  0  0  0  0  0  0
    4.0417    2.0458    0.0000 C   0  0  0  0  0  0  0  0  0  0  0  0
    3.3292    0.8000    0.0000 C   0  0  0  0  0  0  0  0  0  0  0  0
    2.6167    1.2125    0.0000 C   0  0  0  0  0  0  0  0  0  0  0  0
    3.3292    2.4583    0.0000 C   0  0  0  0  0  0  0  0  0  0  0  0
    3.3375   -0.0250    0.0000 O   0  0  0  0  0  0  0  0  0  0  0  0
    1.9042    2.4583    0.0000 C   0  0  0  0  0  0  0  0  0  0  0  0
    8.3375   -1.2667    0.0000 C   0  0  0  0  0  0  0  0  0  0  0  0
    7.6167   -2.5042    0.0000 C   0  0  0  0  0  0  0  0  0  0  0  0
    1.1875    2.0458    0.0000 C   0  0  0  0  0  0  0  0  0  0  0  0
    9.0500   -1.6792    0.0000 C   0  0  0  0  0  0  0  0  0  0  0  0
    8.3292   -2.9167    0.0000 C   0  0  0  0  0  0  0  0  0  0  0  0
    9.0500   -2.5125    0.0000 C   0  0  0  0  0  0  0  0  0  0  0  0
  2  6  1  0  0  0  0
  3  4  1  0  0  0  0
  4  1  1  0  0  0  0
  5  2  2  0  0  0  0
  6  7  1  0  0  0  0
  7  1  2  0  0  0  0
  8  9  1  0  0  0  0
  9  5  1  0  0  0  0
 10  3  2  0  0  0  0
 11  5  1  0  0  0  0
 12 18  1  0  0  0  0
 13  1  1  0  0  0  0
 14  4  2  0  0  0  0
 15 10  1  0  0  0  0
 16  8  1  0  0  0  0
 17  8  1  0  0  0  0
 18 17  1  0  0  0  0
 19 16  1  0  0  0  0
 20 11  1  0  0  0  0
 21 12  1  0  0  0  0
 22 13  1  0  0  0  0
 23 13  2  0  0  0  0
 24 21  1  0  0  0  0
 25 22  2  0  0  0  0
 26 23  1  0  0  0  0
 27 26  2  0  0  0  0
  3  2  1  0  0  0  0
 25 27  1  0  0  0  0
 15 11  2  0  0  0  0
 12 19  1  0  0  0  0
M  END
> <IDNUMBER>
F3385-1245

> <Chemical_Name>
8-[(4-ethylpiperazin-1-yl)methyl]-7-hydroxy-3-phenyl-4H-chromen-4-one

> <CAS>
847379-61-7

> <PriceCoeff>
1.00

> <MW>
364.44

> <Description>
solid

> <FSP3>
0.32

> <clogP>
3.50

> <TPSA>
53.01

> <Acceptor>
5

> <Donor>
3

> <RotBonds>
4

> <HAC>
27

> <Collection>
General

> <Reference_compound>
CHEMBL463936

> <Similarity>
0.8030

$$$$
F5831-0290
  -ISIS-  06222321152D

 32 34  0  0  0  0  0  0  0  0999 V2000
   -1.7250    6.2792    0.0000 S   0  0  3  0  0  0  0  0  0  0  0  0
   -2.4458    6.6917    0.0000 N   0  0  3  0  0  0  0  0  0  0  0  0
   -6.7167    3.3583    0.0000 N   0  0  3  0  0  0  0  0  0  0  0  0
   -4.5833    3.8000    0.0000 S   0  0  3  0  0  0  0  0  0  0  0  0
   -7.4417    3.7583    0.0000 C   0  0  0  0  0  0  0  0  0  0  0  0
   -6.7042    2.5208    0.0000 C   0  0  0  0  0  0  0  0  0  0  0  0
   -5.2875    3.3833    0.0000 C   0  0  0  0  0  0  0  0  0  0  0  0
   -6.0042    3.7833    0.0000 C   0  0  0  0  0  0  0  0  0  0  0  0
   -1.0083    5.8750    0.0000 C   0  0  0  0  0  0  0  0  0  0  0  0
   -2.1375    5.5667    0.0000 O   0  0  0  0  0  0  0  0  0  0  0  0
   -1.3208    6.9917    0.0000 O   0  0  0  0  0  0  0  0  0  0  0  0
   -4.1583    3.1083    0.0000 O   0  0  0  0  0  0  0  0  0  0  0  0
   -5.0083    4.5042    0.0000 O   0  0  0  0  0  0  0  0  0  0  0  0
   -3.1458    6.2667    0.0000 C   0  0  3  0  0  0  0  0  0  0  0  0
   -3.8625    4.2125    0.0000 N   0  0  0  0  0  0  0  0  0  0  0  0
   -5.9833    2.1208    0.0000 O   0  0  0  0  0  0  0  0  0  0  0  0
   -7.4667    4.5792    0.0000 O   0  0  0  0  0  0  0  0  0  0  0  0
   -1.0000    5.0542    0.0000 C   0  0  0  0  0  0  0  0  0  0  0  0
   -0.3083    6.3042    0.0000 C   0  0  0  0  0  0  0  0  0  0  0  0
   -2.4375    7.5042    0.0000 C   0  0  0  0  0  0  0  0  0  0  0  0
   -3.1458    5.4500    0.0000 C   0  0  0  0  0  0  0  0  0  0  0  0
   -3.8625    5.0417    0.0000 C   0  0  0  0  0  0  0  0  0  0  0  0
    0.4167    5.9042    0.0000 C   0  0  0  0  0  0  0  0  0  0  0  0
   -0.2833    4.6542    0.0000 C   0  0  0  0  0  0  0  0  0  0  0  0
    0.4292    5.0750    0.0000 C   0  0  0  0  0  0  0  0  0  0  0  0
   -7.4042    2.0958    0.0000 C   0  0  0  0  0  0  0  0  0  0  0  0
   -8.1542    3.3208    0.0000 C   0  0  0  0  0  0  0  0  0  0  0  0
   -8.1292    2.4875    0.0000 C   0  0  0  0  0  0  0  0  0  0  0  0
   -3.8583    6.6792    0.0000 C   0  0  0  0  0  0  0  0  0  0  0  0
    1.1500    4.6667    0.0000 C   0  0  0  0  0  0  0  0  0  0  0  0
   -3.1583    7.9167    0.0000 C   0  0  0  0  0  0  0  0  0  0  0  0
   -3.8750    7.5125    0.0000 C   0  0  0  0  0  0  0  0  0  0  0  0
  2  1  1  0  0  0  0
  3  8  1  0  0  0  0
  4 15  1  0  0  0  0
  5  3  1  0  0  0  0
  6  3  1  0  0  0  0
  7  4  1  0  0  0  0
  8  7  1  0  0  0  0
  9  1  1  0  0  0  0
 10  1  2  0  0  0  0
 11  1  2  0  0  0  0
 12  4  2  0  0  0  0
 13  4  2  0  0  0  0
 14  2  1  0  0  0  0
 15 22  1  0  0  0  0
 16  6  2  0  0  0  0
 17  5  2  0  0  0  0
 18  9  1  0  0  0  0
 19  9  2  0  0  0  0
 20  2  1  0  0  0  0
 21 14  1  0  0  0  0
 22 21  1  0  0  0  0
 23 19  1  0  0  0  0
 24 18  2  0  0  0  0
 25 23  2  0  0  0  0
 26  6  1  0  0  0  0
 27  5  1  0  0  0  0
 28 26  1  0  0  0  0
 29 14  1  0  0  0  0
 30 25  1  0  0  0  0
 31 20  1  0  0  0  0
 32 31  1  0  0  0  0
 25 24  1  0  0  0  0
 32 29  1  0  0  0  0
 27 28  1  0  0  0  0
M  END
> <IDNUMBER>
F5831-0290

> <Chemical_Name>
2-(2,6-dioxopiperidin-1-yl)-N-{2-[1-(4-methylbenzenesulfonyl)piperidin-2-yl]ethyl}ethane-1-sulfonamide

> <CAS>
1251547-91-7

> <PriceCoeff>
1.00

> <MW>
485.62

> <Description>
oil

> <FSP3>
0.62

> <clogP>
3.08

> <TPSA>
137.69

> <Acceptor>
6

> <Donor>
1

> <RotBonds>
9

> <HAC>
32

> <Collection>
General

$$$$
F2146-0724
  -ISIS-  06222304352D

 27 28  0  0  0  0  0  0  0  0999 V2000
    4.6333   -3.5625    0.0000 C   0  0  0  0  0  0  0  0  0  0  0  0
    4.3750   -4.3458    0.0000 N   0  0  3  0  0  0  0  0  0  0  0  0
    3.9667   -3.0750    0.0000 S   0  0  0  0  0  0  0  0  0  0  0  0
    3.2958   -3.5625    0.0000 C   0  0  0  0  0  0  0  0  0  0  0  0
    3.5500   -4.3458    0.0000 C   0  0  0  0  0  0  0  0  0  0  0  0
    5.4250   -3.3042    0.0000 N   0  0  0  0  0  0  0  0  0  0  0  0
    2.9958   -4.9583    0.0000 C   0  0  0  0  0  0  0  0  0  0  0  0
    2.4875   -3.3792    0.0000 C   0  0  0  0  0  0  0  0  0  0  0  0
    4.8667   -5.0167    0.0000 C   0  0  0  0  0  0  0  0  0  0  0  0
    2.1917   -4.7833    0.0000 C   0  0  0  0  0  0  0  0  0  0  0  0
    1.9292   -4.0000    0.0000 C   0  0  0  0  0  0  0  0  0  0  0  0
    3.7375   -5.8667    0.0000 O   0  0  0  0  0  0  0  0  0  0  0  0
    4.5292   -5.7792    0.0000 C   0  0  0  0  0  0  0  0  0  0  0  0
    1.1208   -3.8292    0.0000 C   0  0  0  0  0  0  0  0  0  0  0  0
    3.3750   -6.6208    0.0000 C   0  0  0  0  0  0  0  0  0  0  0  0
    3.8375   -7.3042    0.0000 C   0  0  0  0  0  0  0  0  0  0  0  0
    8.4598   -4.1204    0.0000 S   0  0  3  0  0  0  0  0  0  0  0  0
    8.0570   -4.8302    0.0000 C   0  0  0  0  0  0  0  0  0  0  0  0
    7.7489   -3.6991    0.0000 O   0  0  0  0  0  0  0  0  0  0  0  0
    8.8656   -3.3993    0.0000 O   0  0  0  0  0  0  0  0  0  0  0  0
    9.1810   -4.5262    0.0000 O   0  0  0  0  0  0  0  0  0  0  0  0
    8.4724   -5.5478    0.0000 C   0  0  0  0  0  0  0  0  0  0  0  0
    7.2265   -4.8344    0.0000 C   0  0  0  0  0  0  0  0  0  0  0  0
    8.0553   -6.2660    0.0000 C   0  0  0  0  0  0  0  0  0  0  0  0
    6.8186   -5.5519    0.0000 C   0  0  0  0  0  0  0  0  0  0  0  0
    7.2320   -6.2659    0.0000 C   0  0  0  0  0  0  0  0  0  0  0  0
    6.8184   -6.9820    0.0000 C   0  0  0  0  0  0  0  0  0  0  0  0
 13  9  1  0  0  0  0
 14 11  1  0  0  0  0
 15 12  1  0  0  0  0
 16 15  1  0  0  0  0
  4  5  2  0  0  0  0
 10 11  1  0  0  0  0
  2  1  1  0  0  0  0
  3  1  1  0  0  0  0
  4  3  1  0  0  0  0
  5  2  1  0  0  0  0
  6  1  2  0  0  0  0
  7  5  1  0  0  0  0
  8  4  1  0  0  0  0
  9  2  1  0  0  0  0
 10  7  2  0  0  0  0
 11  8  2  0  0  0  0
 12 13  1  0  0  0  0
 18 17  1  0  0  0  0
 19 17  2  0  0  0  0
 20 17  2  0  0  0  0
 21 17  1  0  0  0  0
 22 18  1  0  0  0  0
 23 18  2  0  0  0  0
 24 22  2  0  0  0  0
 25 23  1  0  0  0  0
 26 25  2  0  0  0  0
 27 26  1  0  0  0  0
 24 26  1  0  0  0  0
M  END
> <IDNUMBER>
F2146-0724

> <Chemical_Name>
3-(2-ethoxyethyl)-6-methyl-2,3-dihydro-1,3-benzothiazol-2-imine; 4-methylbenzene-1-sulfonic acid

> <CAS>
2034157-13-4

> <PriceCoeff>
1.00

> <MW>
236.33

> <Description>
solid

> <FSP3>
0.42

> <clogP>
3.80

> <TPSA>
61.62

> <Acceptor>
1

> <Donor>
1

> <RotBonds>
4

> <HAC>
16

> <Collection>
General

> <Reference_compound>
PRI5904

> <Similarity>
0.8060

$$$$
F3030-0002
  -ISIS-  06222321462D

 23 25  0  0  0  0  0  0  0  0999 V2000
   -1.9250   -1.1292    0.0000 N   0  0  3  0  0  0  0  0  0  0  0  0
   -1.2583   -0.6500    0.0000 C   0  0  0  0  0  0  0  0  0  0  0  0
   -1.6708   -1.9250    0.0000 C   0  0  0  0  0  0  0  0  0  0  0  0
   -0.8375   -1.9250    0.0000 C   0  0  3  0  0  0  0  0  0  0  0  0
   -0.5833   -1.1292    0.0000 C   0  0  0  0  0  0  0  0  0  0  0  0
   -2.7125   -0.8792    0.0000 C   0  0  0  0  0  0  0  0  0  0  0  0
   -0.3583   -2.5917    0.0000 N   0  0  0  0  0  0  0  0  0  0  0  0
   -1.2583    0.1833    0.0000 O   0  0  0  0  0  0  0  0  0  0  0  0
   -2.1583   -2.5917    0.0000 O   0  0  0  0  0  0  0  0  0  0  0  0
   -2.8833   -0.0667    0.0000 C   0  0  0  0  0  0  0  0  0  0  0  0
    0.4667   -2.5042    0.0000 C   0  0  0  0  0  0  0  0  0  0  0  0
   -2.2708    0.4833    0.0000 F   0  0  0  0  0  0  0  0  0  0  0  0
    2.1167   -2.3375    0.0000 C   0  0  0  0  0  0  0  0  0  0  0  0
    0.8042   -1.7542    0.0000 C   0  0  0  0  0  0  0  0  0  0  0  0
    0.9542   -3.1792    0.0000 C   0  0  0  0  0  0  0  0  0  0  0  0
    1.7792   -3.0917    0.0000 C   0  0  0  0  0  0  0  0  0  0  0  0
    1.6250   -1.6667    0.0000 C   0  0  0  0  0  0  0  0  0  0  0  0
   -3.3208   -1.4375    0.0000 C   0  0  0  0  0  0  0  0  0  0  0  0
   -3.6708    0.1833    0.0000 C   0  0  0  0  0  0  0  0  0  0  0  0
    2.9375   -2.2542    0.0000 C   0  0  0  0  0  0  0  0  0  0  0  0
   -4.1083   -1.1792    0.0000 C   0  0  0  0  0  0  0  0  0  0  0  0
    3.2750   -1.5000    0.0000 C   0  0  0  0  0  0  0  0  0  0  0  0
   -4.2875   -0.3667    0.0000 C   0  0  0  0  0  0  0  0  0  0  0  0
  2  1  1  0  0  0  0
  3  1  1  0  0  0  0
  4  3  1  0  0  0  0
  5  2  1  0  0  0  0
  6  1  1  0  0  0  0
  7  4  1  0  0  0  0
  8  2  2  0  0  0  0
  9  3  2  0  0  0  0
 10  6  2  0  0  0  0
 11  7  1  0  0  0  0
 12 10  1  0  0  0  0
 13 16  2  0  0  0  0
 14 11  1  0  0  0  0
 15 11  2  0  0  0  0
 16 15  1  0  0  0  0
 17 14  2  0  0  0  0
 18  6  1  0  0  0  0
 19 10  1  0  0  0  0
 20 13  1  0  0  0  0
 21 18  2  0  0  0  0
 22 20  1  0  0  0  0
 23 21  1  0  0  0  0
  5  4  1  0  0  0  0
 23 19  2  0  0  0  0
 13 17  1  0  0  0  0
M  END
> <IDNUMBER>
F3030-0002

> <Chemical_Name>
3-[(4-ethylphenyl)amino]-1-(2-fluorophenyl)pyrrolidine-2,5-dione

> <CAS>
1008012-02-9

> <PriceCoeff>
1.00

> <MW>
312.34

> <Description>
solid

> <FSP3>
0.22

> <clogP>
3.77

> <TPSA>
49.41

> <Acceptor>
3

> <Donor>
1

> <RotBonds>
4

> <HAC>
23

> <Collection>
General

$$$$
F0030-0094
  -ISIS-  06222321142D

 22 24  0  0  0  0  0  0  0  0999 V2000
    0.5667    1.3625    0.0000 N   0  0  3  0  0  0  0  0  0  0  0  0
    1.1500    2.1000    0.0000 C   0  0  0  0  0  0  0  0  0  0  0  0
    1.0875    0.5833    0.0000 C   0  0  0  0  0  0  0  0  0  0  0  0
    2.0042    0.8458    0.0000 C   0  0  3  0  0  0  0  0  0  0  0  0
    2.0292    1.7625    0.0000 C   0  0  0  0  0  0  0  0  0  0  0  0
   -0.3708    1.3625    0.0000 C   0  0  0  0  0  0  0  0  0  0  0  0
    2.7667    0.2833    0.0000 N   0  0  0  0  0  0  0  0  0  0  0  0
    0.8875    3.0208    0.0000 O   0  0  0  0  0  0  0  0  0  0  0  0
    0.7500   -0.3167    0.0000 O   0  0  0  0  0  0  0  0  0  0  0  0
   -0.8500    0.5625    0.0000 C   0  0  0  0  0  0  0  0  0  0  0  0
    2.6667   -0.6375    0.0000 C   0  0  0  0  0  0  0  0  0  0  0  0
    2.5042   -2.5000    0.0000 C   0  0  0  0  0  0  0  0  0  0  0  0
   -0.3500   -0.2542    0.0000 Cl  0  0  0  0  0  0  0  0  0  0  0  0
    2.4292   -3.4375    0.0000 F   0  0  0  0  0  0  0  0  0  0  0  0
    1.8292   -1.0375    0.0000 C   0  0  0  0  0  0  0  0  0  0  0  0
    3.4292   -1.1542    0.0000 C   0  0  0  0  0  0  0  0  0  0  0  0
    1.7500   -1.9542    0.0000 C   0  0  0  0  0  0  0  0  0  0  0  0
    3.3667   -2.1000    0.0000 C   0  0  0  0  0  0  0  0  0  0  0  0
   -0.8500    2.2083    0.0000 C   0  0  0  0  0  0  0  0  0  0  0  0
   -1.7958    0.5625    0.0000 C   0  0  0  0  0  0  0  0  0  0  0  0
   -1.7958    2.2083    0.0000 C   0  0  0  0  0  0  0  0  0  0  0  0
   -2.2708    1.3625    0.0000 C   0  0  0  0  0  0  0  0  0  0  0  0
  2  1  1  0  0  0  0
  3  1  1  0  0  0  0
  4  3  1  0  0  0  0
  5  2  1  0  0  0  0
  6  1  1  0  0  0  0
  7  4  1  0  0  0  0
  8  2  2  0  0  0  0
  9  3  2  0  0  0  0
 10  6  2  0  0  0  0
 11  7  1  0  0  0  0
 12 18  1  0  0  0  0
 13 10  1  0  0  0  0
 14 12  1  0  0  0  0
 15 11  2  0  0  0  0
 16 11  1  0  0  0  0
 17 15  1  0  0  0  0
 18 16  2  0  0  0  0
 19  6  1  0  0  0  0
 20 10  1  0  0  0  0
 21 19  2  0  0  0  0
 22 21  1  0  0  0  0
  5  4  1  0  0  0  0
 22 20  2  0  0  0  0
 17 12  2  0  0  0  0
M  END
> <IDNUMBER>
F0030-0094

> <Chemical_Name>
1-(2-chlorophenyl)-3-[(4-fluorophenyl)amino]pyrrolidine-2,5-dione

> <CAS>
317814-62-3

> <PriceCoeff>
1.00

> <MW>
318.73

> <Description>
solid

> <FSP3>
0.12

> <clogP>
3.52

> <TPSA>
49.41

> <Acceptor>
3

> <Donor>
1

> <RotBonds>
3

> <HAC>
22

> <Collection>
General

$$$$
F3023-0938
  -ISIS-  06222321152D

 24 26  0  0  0  0  0  0  0  0999 V2000
    4.4667   -6.4042    0.0000 N   0  0  3  0  0  0  0  0  0  0  0  0
    4.8792   -5.8292    0.0000 C   0  0  0  0  0  0  0  0  0  0  0  0
    4.8875   -6.9750    0.0000 C   0  0  0  0  0  0  0  0  0  0  0  0
    5.5625   -6.7542    0.0000 C   0  0  3  0  0  0  0  0  0  0  0  0
    5.5542   -6.0417    0.0000 C   0  0  0  0  0  0  0  0  0  0  0  0
    3.7542   -6.4042    0.0000 C   0  0  0  0  0  0  0  0  0  0  0  0
    6.1292   -7.1667    0.0000 N   0  0  0  0  0  0  0  0  0  0  0  0
    3.4042   -5.7917    0.0000 C   0  0  0  0  0  0  0  0  0  0  0  0
    4.6542   -5.1542    0.0000 O   0  0  0  0  0  0  0  0  0  0  0  0
    4.6750   -7.6500    0.0000 O   0  0  0  0  0  0  0  0  0  0  0  0
    8.0750   -6.3042    0.0000 C   0  0  0  0  0  0  0  0  0  0  0  0
    8.7250   -6.0125    0.0000 N   0  0  3  0  0  0  0  0  0  0  0  0
    6.7792   -6.8792    0.0000 C   0  0  0  0  0  0  0  0  0  0  0  0
    8.0042   -7.0042    0.0000 C   0  0  0  0  0  0  0  0  0  0  0  0
    7.4917   -5.8875    0.0000 C   0  0  0  0  0  0  0  0  0  0  0  0
    2.6917   -5.8000    0.0000 C   0  0  0  0  0  0  0  0  0  0  0  0
    6.8500   -6.1750    0.0000 C   0  0  0  0  0  0  0  0  0  0  0  0
    7.3542   -7.2917    0.0000 C   0  0  0  0  0  0  0  0  0  0  0  0
    3.4125   -7.0250    0.0000 C   0  0  0  0  0  0  0  0  0  0  0  0
    2.3375   -5.1917    0.0000 Cl  0  0  0  0  0  0  0  0  0  0  0  0
    2.7042   -7.0292    0.0000 C   0  0  0  0  0  0  0  0  0  0  0  0
    8.7917   -5.3042    0.0000 C   0  0  0  0  0  0  0  0  0  0  0  0
    9.3000   -6.4292    0.0000 C   0  0  0  0  0  0  0  0  0  0  0  0
    2.3417   -6.4167    0.0000 C   0  0  0  0  0  0  0  0  0  0  0  0
  2  1  1  0  0  0  0
  3  1  1  0  0  0  0
  4  3  1  0  0  0  0
  5  2  1  0  0  0  0
  6  1  1  0  0  0  0
  7  4  1  0  0  0  0
  8  6  2  0  0  0  0
  9  2  2  0  0  0  0
 10  3  2  0  0  0  0
 11 14  2  0  0  0  0
 12 11  1  0  0  0  0
 13  7  1  0  0  0  0
 14 18  1  0  0  0  0
 15 17  2  0  0  0  0
 16  8  1  0  0  0  0
 17 13  1  0  0  0  0
 18 13  2  0  0  0  0
 19  6  1  0  0  0  0
 20 16  1  0  0  0  0
 21 19  2  0  0  0  0
 22 12  1  0  0  0  0
 23 12  1  0  0  0  0
 24 21  1  0  0  0  0
  5  4  1  0  0  0  0
 24 16  2  0  0  0  0
 15 11  1  0  0  0  0
M  END
> <IDNUMBER>
F3023-0938

> <Chemical_Name>
1-(3-chlorophenyl)-3-{[4-(dimethylamino)phenyl]amino}pyrrolidine-2,5-dione

> <CAS>
1009268-62-5

> <PriceCoeff>
1.00

> <MW>
343.81

> <Description>
solid

> <FSP3>
0.22

> <clogP>
3.64

> <TPSA>
52.65

> <Acceptor>
4

> <Donor>
2

> <RotBonds>
4

> <HAC>
24

> <Collection>
General

$$$$
F3023-0953
  -ISIS-  06222321152D

 25 27  0  0  0  0  0  0  0  0999 V2000
    4.8167   -6.4042    0.0000 N   0  0  3  0  0  0  0  0  0  0  0  0
    5.2375   -5.8292    0.0000 C   0  0  0  0  0  0  0  0  0  0  0  0
    5.2417   -6.9750    0.0000 C   0  0  0  0  0  0  0  0  0  0  0  0
    4.1125   -6.4042    0.0000 C   0  0  0  0  0  0  0  0  0  0  0  0
    5.9167   -6.7542    0.0000 C   0  0  3  0  0  0  0  0  0  0  0  0
    5.9125   -6.0417    0.0000 C   0  0  0  0  0  0  0  0  0  0  0  0
    3.7667   -7.0250    0.0000 C   0  0  0  0  0  0  0  0  0  0  0  0
    6.4875   -7.1667    0.0000 N   0  0  0  0  0  0  0  0  0  0  0  0
    5.0125   -5.1542    0.0000 O   0  0  0  0  0  0  0  0  0  0  0  0
    5.0292   -7.6500    0.0000 O   0  0  0  0  0  0  0  0  0  0  0  0
    3.0625   -7.0292    0.0000 C   0  0  0  0  0  0  0  0  0  0  0  0
    8.4292   -6.3042    0.0000 C   0  0  0  0  0  0  0  0  0  0  0  0
    9.0792   -6.0125    0.0000 N   0  0  3  0  0  0  0  0  0  0  0  0
    7.1375   -6.8792    0.0000 C   0  0  0  0  0  0  0  0  0  0  0  0
    7.8500   -5.8875    0.0000 C   0  0  0  0  0  0  0  0  0  0  0  0
    8.3542   -7.0042    0.0000 C   0  0  0  0  0  0  0  0  0  0  0  0
    3.7542   -5.7917    0.0000 C   0  0  0  0  0  0  0  0  0  0  0  0
    2.7125   -7.6500    0.0000 Cl  0  0  0  0  0  0  0  0  0  0  0  0
    7.2042   -6.1750    0.0000 C   0  0  0  0  0  0  0  0  0  0  0  0
    7.7042   -7.2917    0.0000 C   0  0  0  0  0  0  0  0  0  0  0  0
    4.1292   -7.6292    0.0000 C   0  0  0  0  0  0  0  0  0  0  0  0
    3.0500   -5.8000    0.0000 C   0  0  0  0  0  0  0  0  0  0  0  0
    2.7000   -6.4167    0.0000 C   0  0  0  0  0  0  0  0  0  0  0  0
    9.1500   -5.3042    0.0000 C   0  0  0  0  0  0  0  0  0  0  0  0
    9.6542   -6.4292    0.0000 C   0  0  0  0  0  0  0  0  0  0  0  0
  2  1  1  0  0  0  0
  3  1  1  0  0  0  0
  4  1  1  0  0  0  0
  5  3  1  0  0  0  0
  6  2  1  0  0  0  0
  7  4  1  0  0  0  0
  8  5  1  0  0  0  0
  9  2  2  0  0  0  0
 10  3  2  0  0  0  0
 11  7  2  0  0  0  0
 12 16  2  0  0  0  0
 13 12  1  0  0  0  0
 14  8  1  0  0  0  0
 15 19  2  0  0  0  0
 16 20  1  0  0  0  0
 17  4  2  0  0  0  0
 18 11  1  0  0  0  0
 19 14  1  0  0  0  0
 20 14  2  0  0  0  0
 21  7  1  0  0  0  0
 22 17  1  0  0  0  0
 23 22  2  0  0  0  0
 24 13  1  0  0  0  0
 25 13  1  0  0  0  0
  6  5  1  0  0  0  0
 23 11  1  0  0  0  0
 15 12  1  0  0  0  0
M  END
> <IDNUMBER>
F3023-0953

> <Chemical_Name>
1-(3-chloro-2-methylphenyl)-3-{[4-(dimethylamino)phenyl]amino}pyrrolidine-2,5-dione

> <CAS>
1009234-21-2

> <PriceCoeff>
1.00

> <MW>
357.83

> <Description>
solid

> <FSP3>
0.26

> <clogP>
3.74

> <TPSA>
52.65

> <Acceptor>
4

> <Donor>
2

> <RotBonds>
4

> <HAC>
25

> <Collection>
General

$$$$
F0915-6107
  -ISIS-  06222321442D

 21 22  0  0  0  0  0  0  0  0999 V2000
    5.0625   -5.5750    0.0000 C   0  0  0  0  0  0  0  0  0  0  0  0
    6.6417   -6.4542    0.0000 C   0  0  0  0  0  0  0  0  0  0  0  0
    5.0625   -3.7500    0.0000 C   0  0  0  0  0  0  0  0  0  0  0  0
    3.5042   -2.8500    0.0000 C   0  0  0  0  0  0  0  0  0  0  0  0
    3.5042   -6.4542    0.0000 C   0  0  0  0  0  0  0  0  0  0  0  0
   12.8667   -6.4500    0.0000 C   0  0  0  0  0  0  0  0  0  0  0  0
    8.2000   -5.5750    0.0000 C   0  0  0  0  0  0  0  0  0  0  0  0
   12.9000   -8.2292    0.0000 C   0  0  0  0  0  0  0  0  0  0  0  0
   11.2917   -5.5417    0.0000 C   0  0  0  0  0  0  0  0  0  0  0  0
    9.7667   -6.4542    0.0000 C   0  0  0  0  0  0  0  0  0  0  0  0
    6.6417   -8.2792    0.0000 O   0  0  0  0  0  0  0  0  0  0  0  0
   11.3250   -9.1542    0.0000 C   0  0  0  0  0  0  0  0  0  0  0  0
    1.9667   -3.7500    0.0000 C   0  0  0  0  0  0  0  0  0  0  0  0
    6.6417   -2.8417    0.0000 O   0  0  0  0  0  0  0  0  0  0  0  0
    1.9667   -5.5750    0.0000 C   0  0  0  0  0  0  0  0  0  0  0  0
    9.7375   -8.2625    0.0000 C   0  0  0  0  0  0  0  0  0  0  0  0
   14.4292   -5.5292    0.0000 O   0  0  0  0  0  0  0  0  0  0  0  0
   14.4417   -9.1542    0.0000 O   0  0  0  0  0  0  0  0  0  0  0  0
    0.3917   -2.8500    0.0000 O   0  0  0  0  0  0  0  0  0  0  0  0
   16.0000   -6.4167    0.0000 C   0  0  0  0  0  0  0  0  0  0  0  0
   14.4417  -10.9417    0.0000 C   0  0  0  0  0  0  0  0  0  0  0  0
  2  1  1  0  0  0  0
  3  1  1  0  0  0  0
  4  3  2  0  0  0  0
  5  1  2  0  0  0  0
  6  9  2  0  0  0  0
  7  2  1  0  0  0  0
  8 12  2  0  0  0  0
  9 10  1  0  0  0  0
 10  7  1  0  0  0  0
 11  2  2  0  0  0  0
 12 16  1  0  0  0  0
 13 15  2  0  0  0  0
 14  3  1  0  0  0  0
 15  5  1  0  0  0  0
 16 10  2  0  0  0  0
 17  6  1  0  0  0  0
 18  8  1  0  0  0  0
 19 13  1  0  0  0  0
 20 17  1  0  0  0  0
 21 18  1  0  0  0  0
  4 13  1  0  0  0  0
  6  8  1  0  0  0  0
M  END
> <IDNUMBER>
F0915-6107

> <Chemical_Name>
1-(2,4-dihydroxyphenyl)-2-(3,4-dimethoxyphenyl)ethan-1-one

> <CAS>
24126-98-5

> <PriceCoeff>
1.00

> <MW>
288.30

> <Description>
solid

> <FSP3>
0.19

> <clogP>
2.84

> <TPSA>
75.99

> <Acceptor>
5

> <Donor>
2

> <RotBonds>
5

> <HAC>
21

> <Collection>
General

> <Reference_compound>
CHEMBL3092474

> <Similarity>
0.8250

$$$$
F0196-0870
  -ISIS-  06222321452D

 18 20  0  0  0  0  0  0  0  0999 V2000
   -1.0708    1.0833    0.0000 C   0  0  0  0  0  0  0  0  0  0  0  0
   -1.8333    0.6333    0.0000 C   0  0  0  0  0  0  0  0  0  0  0  0
   -2.5958    1.0833    0.0000 C   0  0  0  0  0  0  0  0  0  0  0  0
   -1.0708    1.9583    0.0000 C   0  0  0  0  0  0  0  0  0  0  0  0
   -2.5958    1.9583    0.0000 C   0  0  0  0  0  0  0  0  0  0  0  0
   -1.8333    2.4000    0.0000 O   0  0  0  0  0  0  0  0  0  0  0  0
   -3.3500    0.6333    0.0000 C   0  0  0  0  0  0  0  0  0  0  0  0
   -3.3500    2.4000    0.0000 C   0  0  0  0  0  0  0  0  0  0  0  0
   -0.3125    0.6333    0.0000 C   0  0  0  0  0  0  0  0  0  0  0  0
   -1.8333   -0.2375    0.0000 O   0  0  0  0  0  0  0  0  0  0  0  0
   -4.1125    1.9583    0.0000 C   0  0  0  0  0  0  0  0  0  0  0  0
   -4.1125    1.0833    0.0000 C   0  0  0  0  0  0  0  0  0  0  0  0
   -4.8958    2.4000    0.0000 O   0  0  0  0  0  0  0  0  0  0  0  0
   -0.3125   -0.2375    0.0000 C   0  0  0  0  0  0  0  0  0  0  0  0
    0.4500    1.0833    0.0000 C   0  0  0  0  0  0  0  0  0  0  0  0
    1.2042    0.6333    0.0000 C   0  0  0  0  0  0  0  0  0  0  0  0
    0.4500   -0.6875    0.0000 C   0  0  0  0  0  0  0  0  0  0  0  0
    1.2042   -0.2375    0.0000 C   0  0  0  0  0  0  0  0  0  0  0  0
  2  1  1  0  0  0  0
  3  2  1  0  0  0  0
  4  1  2  0  0  0  0
  5  6  1  0  0  0  0
  6  4  1  0  0  0  0
  7  3  1  0  0  0  0
  8  5  1  0  0  0  0
  9  1  1  0  0  0  0
 10  2  2  0  0  0  0
 11  8  2  0  0  0  0
 12  7  2  0  0  0  0
 13 11  1  0  0  0  0
 14  9  2  0  0  0  0
 15  9  1  0  0  0  0
 16 15  2  0  0  0  0
 17 14  1  0  0  0  0
 18 16  1  0  0  0  0
  3  5  2  0  0  0  0
 18 17  2  0  0  0  0
 12 11  1  0  0  0  0
M  END
> <IDNUMBER>
F0196-0870

> <Chemical_Name>
7-hydroxy-3-phenyl-4H-chromen-4-one

> <CAS>
13057-72-2

> <PriceCoeff>
1.00

> <MW>
238.24

> <Description>
solid

> <FSP3>
0.00

> <clogP>
2.71

> <TPSA>
46.53

> <Acceptor>
3

> <Donor>
1

> <RotBonds>
1

> <HAC>
18

> <Collection>
General

> <Reference_compound>
CHEMBL44

> <Similarity>
0.9700

$$$$
F2211-0018
  -ISIS-  06222321462D

 22 24  0  0  0  0  0  0  0  0999 V2000
    6.3042   -8.2292    0.0000 C   0  0  0  0  0  0  0  0  0  0  0  0
    6.3000   -9.0542    0.0000 C   0  0  0  0  0  0  0  0  0  0  0  0
    4.8667   -9.0500    0.0000 C   0  0  0  0  0  0  0  0  0  0  0  0
    5.5792   -9.4625    0.0000 C   0  0  0  0  0  0  0  0  0  0  0  0
    5.5875   -7.8125    0.0000 O   0  0  0  0  0  0  0  0  0  0  0  0
    4.8750   -8.2250    0.0000 C   0  0  0  0  0  0  0  0  0  0  0  0
    7.0167   -7.8167    0.0000 C   0  0  0  0  0  0  0  0  0  0  0  0
    4.1625   -9.4625    0.0000 C   0  0  0  0  0  0  0  0  0  0  0  0
    2.0167   -9.0542    0.0000 C   0  0  0  0  0  0  0  0  0  0  0  0
    2.7292   -9.4667    0.0000 N   0  0  0  0  0  0  0  0  0  0  0  0
    3.4417   -9.0542    0.0000 C   0  0  0  0  0  0  0  0  0  0  0  0
    5.5792  -10.2875    0.0000 O   0  0  0  0  0  0  0  0  0  0  0  0
    4.1625   -7.8125    0.0000 C   0  0  0  0  0  0  0  0  0  0  0  0
    2.0042   -8.2292    0.0000 O   0  0  0  0  0  0  0  0  0  0  0  0
    7.0167   -6.9917    0.0000 C   0  0  0  0  0  0  0  0  0  0  0  0
    7.7292   -8.2292    0.0000 C   0  0  0  0  0  0  0  0  0  0  0  0
    3.4417   -8.2250    0.0000 C   0  0  0  0  0  0  0  0  0  0  0  0
    8.4417   -7.0000    0.0000 C   0  0  0  0  0  0  0  0  0  0  0  0
    8.4417   -7.8250    0.0000 C   0  0  0  0  0  0  0  0  0  0  0  0
    7.7292   -6.5792    0.0000 C   0  0  0  0  0  0  0  0  0  0  0  0
    9.1667   -6.5917    0.0000 F   0  0  0  0  0  0  0  0  0  0  0  0
    1.3000   -9.4667    0.0000 C   0  0  0  0  0  0  0  0  0  0  0  0
  2  1  2  0  0  0  0
  3  6  1  0  0  0  0
  4  2  1  0  0  0  0
  5  1  1  0  0  0  0
  6  5  1  0  0  0  0
  7  1  1  0  0  0  0
  8  3  2  0  0  0  0
  9 10  1  0  0  0  0
 10 11  1  0  0  0  0
 11 17  2  0  0  0  0
 12  4  2  0  0  0  0
 13  6  2  0  0  0  0
 14  9  2  0  0  0  0
 15  7  1  0  0  0  0
 16  7  2  0  0  0  0
 17 13  1  0  0  0  0
 18 19  2  0  0  0  0
 19 16  1  0  0  0  0
 20 15  2  0  0  0  0
 21 18  1  0  0  0  0
 22  9  1  0  0  0  0
  3  4  1  0  0  0  0
 20 18  1  0  0  0  0
  8 11  1  0  0  0  0
M  END
> <IDNUMBER>
F2211-0018

> <Chemical_Name>
N-[2-(4-fluorophenyl)-4-oxo-4H-chromen-6-yl]acetamide

> <CAS>
923138-98-1

> <PriceCoeff>
1.00

> <MW>
297.28

> <Description>
solid

> <FSP3>
0.06

> <clogP>
2.99

> <TPSA>
55.40

> <Acceptor>
3

> <Donor>
1

> <RotBonds>
2

> <HAC>
22

> <Collection>
General

> <Reference_compound>
CHEMBL477846

> <Similarity>
0.8040

$$$$
F2106-0046
  -ISIS-  06222321142D

 20 22  0  0  0  0  0  0  0  0999 V2000
    6.1875   -3.5375    0.0000 C   0  0  0  0  0  0  0  0  0  0  0  0
    6.9042   -3.9500    0.0000 C   0  0  0  0  0  0  0  0  0  0  0  0
    7.6292   -3.5375    0.0000 C   0  0  0  0  0  0  0  0  0  0  0  0
    7.6292   -2.7042    0.0000 C   0  0  0  0  0  0  0  0  0  0  0  0
    6.1917   -2.7042    0.0000 C   0  0  0  0  0  0  0  0  0  0  0  0
    6.9042   -2.2792    0.0000 O   0  0  0  0  0  0  0  0  0  0  0  0
    5.4750   -3.9417    0.0000 C   0  0  0  0  0  0  0  0  0  0  0  0
    5.4750   -2.2917    0.0000 C   0  0  0  0  0  0  0  0  0  0  0  0
    4.7625   -3.5292    0.0000 C   0  0  0  0  0  0  0  0  0  0  0  0
    4.7625   -2.7042    0.0000 C   0  0  0  0  0  0  0  0  0  0  0  0
    6.9042   -4.7750    0.0000 O   0  0  0  0  0  0  0  0  0  0  0  0
    8.3417   -2.2917    0.0000 C   0  0  0  0  0  0  0  0  0  0  0  0
    5.4750   -4.7667    0.0000 O   0  0  0  0  0  0  0  0  0  0  0  0
    4.0500   -2.2917    0.0000 O   0  0  0  0  0  0  0  0  0  0  0  0
    9.0542   -2.7125    0.0000 C   0  0  0  0  0  0  0  0  0  0  0  0
    8.3417   -1.4750    0.0000 C   0  0  0  0  0  0  0  0  0  0  0  0
    4.7542   -5.1792    0.0000 C   0  0  0  0  0  0  0  0  0  0  0  0
    9.7667   -2.3042    0.0000 C   0  0  0  0  0  0  0  0  0  0  0  0
    9.0542   -1.0625    0.0000 C   0  0  0  0  0  0  0  0  0  0  0  0
    9.7750   -1.4750    0.0000 C   0  0  0  0  0  0  0  0  0  0  0  0
  2  1  1  0  0  0  0
  3  2  1  0  0  0  0
  4  6  1  0  0  0  0
  5  1  1  0  0  0  0
  6  5  1  0  0  0  0
  7  1  2  0  0  0  0
  8  5  2  0  0  0  0
  9  7  1  0  0  0  0
 10  9  2  0  0  0  0
 11  2  2  0  0  0  0
 12  4  1  0  0  0  0
 13  7  1  0  0  0  0
 14 10  1  0  0  0  0
 15 12  2  0  0  0  0
 16 12  1  0  0  0  0
 17 13  1  0  0  0  0
 18 15  1  0  0  0  0
 19 16  2  0  0  0  0
 20 19  1  0  0  0  0
  8 10  1  0  0  0  0
  3  4  2  0  0  0  0
 18 20  2  0  0  0  0
M  END
> <IDNUMBER>
F2106-0046

> <Chemical_Name>
7-hydroxy-5-methoxy-2-phenyl-4H-chromen-4-one

> <CAS>
33554-47-1

> <PriceCoeff>
1.00

> <MW>
268.26

> <Description>
solid

> <FSP3>
0.06

> <clogP>
3.25

> <TPSA>
55.76

> <Acceptor>
4

> <Donor>
1

> <RotBonds>
2

> <HAC>
20

> <Collection>
General

> <Reference_compound>
CHEMBL275638

> <Similarity>
0.9300

$$$$
F2880-0668
  -ISIS-  06222321152D

 29 31  0  0  0  0  0  0  0  0999 V2000
   -0.0333    6.8042    0.0000 N   0  3  0  0  0  0  0  0  0  0  0  0
   -1.9833    5.6667    0.0000 C   0  0  0  0  0  0  0  0  0  0  0  0
   -2.6250    5.2917    0.0000 C   0  0  0  0  0  0  0  0  0  0  0  0
   -1.9833    6.4250    0.0000 C   0  0  0  0  0  0  0  0  0  0  0  0
   -0.6875    6.4250    0.0000 C   0  0  0  0  0  0  0  0  0  0  0  0
   -1.3375    6.8000    0.0000 C   0  0  0  0  0  0  0  0  0  0  0  0
   -5.2250    5.2917    0.0000 N   0  0  3  0  0  0  0  0  0  0  0  0
   -4.5833    5.6667    0.0000 C   0  0  3  0  0  0  0  0  0  0  0  0
   -3.2833    5.6667    0.0000 N   0  0  0  0  0  0  0  0  0  0  0  0
   -4.5833    6.4250    0.0000 C   0  0  0  0  0  0  0  0  0  0  0  0
   -1.3375    5.2917    0.0000 C   0  0  0  0  0  0  0  0  0  0  0  0
   -3.9333    5.2917    0.0000 C   0  0  0  0  0  0  0  0  0  0  0  0
    0.6167    6.4292    0.0000 O   0  5  0  0  0  0  0  0  0  0  0  0
   -0.0333    7.5542    0.0000 O   0  0  0  0  0  0  0  0  0  0  0  0
   -0.6875    5.6667    0.0000 C   0  0  0  0  0  0  0  0  0  0  0  0
   -3.9333    6.8000    0.0000 C   0  0  0  0  0  0  0  0  0  0  0  0
   -2.6333    4.5417    0.0000 O   0  0  0  0  0  0  0  0  0  0  0  0
   -6.5167    4.5417    0.0000 O   0  0  0  0  0  0  0  0  0  0  0  0
   -2.6375    6.8042    0.0000 Cl  0  0  0  0  0  0  0  0  0  0  0  0
   -3.9333    7.5500    0.0000 C   0  0  0  0  0  0  0  0  0  0  0  0
   -5.8708    5.6667    0.0000 C   0  0  0  0  0  0  0  0  0  0  0  0
   -5.2250    4.5417    0.0000 C   0  0  0  0  0  0  0  0  0  0  0  0
   -5.2250    6.8000    0.0000 C   0  0  0  0  0  0  0  0  0  0  0  0
   -3.2750    7.9292    0.0000 O   0  0  0  0  0  0  0  0  0  0  0  0
   -5.2250    7.5500    0.0000 C   0  0  0  0  0  0  0  0  0  0  0  0
   -6.5167    5.2917    0.0000 C   0  0  0  0  0  0  0  0  0  0  0  0
   -5.8708    4.1667    0.0000 C   0  0  0  0  0  0  0  0  0  0  0  0
   -4.5833    7.9250    0.0000 C   0  0  0  0  0  0  0  0  0  0  0  0
   -2.6250    7.5542    0.0000 C   0  0  0  0  0  0  0  0  0  0  0  0
  2 11  2  0  0  0  0
  3  2  1  0  0  0  0
  4  6  2  0  0  0  0
  5  1  1  0  0  0  0
  6  5  1  0  0  0  0
  7  8  1  0  0  0  0
  8 12  1  0  0  0  0
  9  3  1  0  0  0  0
 10  8  1  0  0  0  0
 11 15  1  0  0  0  0
 12  9  1  0  0  0  0
 13  1  1  0  0  0  0
 14  1  2  0  0  0  0
 15  5  2  0  0  0  0
 16 10  1  0  0  0  0
 17  3  2  0  0  0  0
 18 27  1  0  0  0  0
 19  4  1  0  0  0  0
 20 16  2  0  0  0  0
 21  7  1  0  0  0  0
 22  7  1  0  0  0  0
 23 10  2  0  0  0  0
 24 20  1  0  0  0  0
 25 23  1  0  0  0  0
 26 21  1  0  0  0  0
 27 22  1  0  0  0  0
 28 25  2  0  0  0  0
 29 24  1  0  0  0  0
  2  4  1  0  0  0  0
 26 18  1  0  0  0  0
 20 28  1  0  0  0  0
M  CHG  2   1   1  13  -1
M  END
> <IDNUMBER>
F2880-0668

> <Chemical_Name>
2-chloro-N-[2-(3-methoxyphenyl)-2-(morpholin-4-yl)ethyl]-4-nitrobenzamide

> <CAS>
942010-65-3

> <PriceCoeff>
1.00

> <MW>
419.86

> <Description>
solid

> <FSP3>
0.35

> <clogP>
2.76

> <TPSA>
93.94

> <Acceptor>
5

> <Donor>
2

> <RotBonds>
7

> <HAC>
29

> <Collection>
General

$$$$
F3019-0019
  -ISIS-  06222321152D

 24 26  0  0  0  0  0  0  0  0999 V2000
    1.0042   -0.9042    0.0000 N   0  0  3  0  0  0  0  0  0  0  0  0
    1.6750   -0.4250    0.0000 C   0  0  0  0  0  0  0  0  0  0  0  0
    1.2625   -1.7000    0.0000 C   0  0  0  0  0  0  0  0  0  0  0  0
    2.0875   -1.7000    0.0000 C   0  0  3  0  0  0  0  0  0  0  0  0
    2.3417   -0.9042    0.0000 C   0  0  0  0  0  0  0  0  0  0  0  0
    0.2167   -0.6542    0.0000 C   0  0  0  0  0  0  0  0  0  0  0  0
    2.5750   -2.3667    0.0000 N   0  0  0  0  0  0  0  0  0  0  0  0
    1.6667    0.4083    0.0000 O   0  0  0  0  0  0  0  0  0  0  0  0
    0.7667   -2.3667    0.0000 O   0  0  0  0  0  0  0  0  0  0  0  0
    0.0417    0.1583    0.0000 C   0  0  0  0  0  0  0  0  0  0  0  0
    3.4000   -2.2792    0.0000 C   0  0  0  0  0  0  0  0  0  0  0  0
    5.0417   -2.1125    0.0000 C   0  0  0  0  0  0  0  0  0  0  0  0
    3.8792   -2.9542    0.0000 C   0  0  0  0  0  0  0  0  0  0  0  0
    3.7292   -1.5292    0.0000 C   0  0  0  0  0  0  0  0  0  0  0  0
    0.6667    0.7083    0.0000 O   0  0  0  0  0  0  0  0  0  0  0  0
    4.7042   -2.8667    0.0000 C   0  0  0  0  0  0  0  0  0  0  0  0
    4.5542   -1.4417    0.0000 C   0  0  0  0  0  0  0  0  0  0  0  0
   -0.3958   -1.2125    0.0000 C   0  0  0  0  0  0  0  0  0  0  0  0
   -0.7458    0.4083    0.0000 C   0  0  0  0  0  0  0  0  0  0  0  0
    5.8625   -2.0292    0.0000 C   0  0  0  0  0  0  0  0  0  0  0  0
    0.4917    1.5208    0.0000 C   0  0  0  0  0  0  0  0  0  0  0  0
   -1.1833   -0.9542    0.0000 C   0  0  0  0  0  0  0  0  0  0  0  0
    6.3500   -2.6917    0.0000 C   0  0  0  0  0  0  0  0  0  0  0  0
   -1.3583   -0.1417    0.0000 C   0  0  0  0  0  0  0  0  0  0  0  0
  2  1  1  0  0  0  0
  3  1  1  0  0  0  0
  4  3  1  0  0  0  0
  5  2  1  0  0  0  0
  6  1  1  0  0  0  0
  7  4  1  0  0  0  0
  8  2  2  0  0  0  0
  9  3  2  0  0  0  0
 10  6  2  0  0  0  0
 11  7  1  0  0  0  0
 12 17  1  0  0  0  0
 13 11  2  0  0  0  0
 14 11  1  0  0  0  0
 15 10  1  0  0  0  0
 16 13  1  0  0  0  0
 17 14  2  0  0  0  0
 18  6  1  0  0  0  0
 19 10  1  0  0  0  0
 20 12  1  0  0  0  0
 21 15  1  0  0  0  0
 22 18  2  0  0  0  0
 23 20  1  0  0  0  0
 24 22  1  0  0  0  0
  5  4  1  0  0  0  0
 24 19  2  0  0  0  0
 12 16  2  0  0  0  0
M  END
> <IDNUMBER>
F3019-0019

> <Chemical_Name>
3-[(4-ethylphenyl)amino]-1-(2-methoxyphenyl)pyrrolidine-2,5-dione

> <CAS>
1009689-36-4

> <PriceCoeff>
1.00

> <MW>
324.37

> <Description>
solid

> <FSP3>
0.26

> <clogP>
3.60

> <TPSA>
58.64

> <Acceptor>
4

> <Donor>
1

> <RotBonds>
5

> <HAC>
24

> <Collection>
General

$$$$
F3023-0957
  -ISIS-  06222321442D

 28 31  0  0  0  0  0  0  0  0999 V2000
    3.5375   -6.4542    0.0000 N   0  0  3  0  0  0  0  0  0  0  0  0
    3.9542   -5.8792    0.0000 C   0  0  0  0  0  0  0  0  0  0  0  0
    3.9542   -7.0250    0.0000 C   0  0  0  0  0  0  0  0  0  0  0  0
    4.6292   -6.8042    0.0000 C   0  0  3  0  0  0  0  0  0  0  0  0
    4.6292   -6.0917    0.0000 C   0  0  0  0  0  0  0  0  0  0  0  0
    2.8292   -6.4542    0.0000 C   0  0  3  0  0  0  0  0  0  0  0  0
    7.7917   -6.0625    0.0000 N   0  0  3  0  0  0  0  0  0  0  0  0
    5.2042   -7.2167    0.0000 N   0  0  0  0  0  0  0  0  0  0  0  0
    3.7292   -5.2042    0.0000 O   0  0  0  0  0  0  0  0  0  0  0  0
    7.1417   -6.3542    0.0000 C   0  0  0  0  0  0  0  0  0  0  0  0
    3.7417   -7.7000    0.0000 O   0  0  0  0  0  0  0  0  0  0  0  0
    2.4792   -7.0750    0.0000 C   0  0  0  0  0  0  0  0  0  0  0  0
    9.0917   -5.4875    0.0000 O   0  0  0  0  0  0  0  0  0  0  0  0
    6.5667   -5.9375    0.0000 C   0  0  0  0  0  0  0  0  0  0  0  0
    7.0750   -7.0542    0.0000 C   0  0  0  0  0  0  0  0  0  0  0  0
    5.8542   -6.9292    0.0000 C   0  0  0  0  0  0  0  0  0  0  0  0
    5.9167   -6.2250    0.0000 C   0  0  0  0  0  0  0  0  0  0  0  0
    6.4250   -7.3417    0.0000 C   0  0  0  0  0  0  0  0  0  0  0  0
    7.8667   -5.3542    0.0000 C   0  0  0  0  0  0  0  0  0  0  0  0
    8.3667   -6.4792    0.0000 C   0  0  0  0  0  0  0  0  0  0  0  0
    2.4750   -5.8417    0.0000 C   0  0  0  0  0  0  0  0  0  0  0  0
    8.5167   -5.0667    0.0000 C   0  0  0  0  0  0  0  0  0  0  0  0
    9.0167   -6.1917    0.0000 C   0  0  0  0  0  0  0  0  0  0  0  0
    1.7667   -7.0792    0.0000 C   0  0  0  0  0  0  0  0  0  0  0  0
    2.8375   -7.6792    0.0000 C   0  0  0  0  0  0  0  0  0  0  0  0
    2.4917   -8.2917    0.0000 C   0  0  0  0  0  0  0  0  0  0  0  0
    1.4167   -7.6917    0.0000 C   0  0  0  0  0  0  0  0  0  0  0  0
    1.7792   -8.3042    0.0000 C   0  0  0  0  0  0  0  0  0  0  0  0
  2  1  1  0  0  0  0
  3  1  1  0  0  0  0
  4  3  1  0  0  0  0
  5  2  1  0  0  0  0
  6  1  1  0  0  0  0
  7 10  1  0  0  0  0
  8  4  1  0  0  0  0
  9  2  2  0  0  0  0
 10 15  2  0  0  0  0
 11  3  2  0  0  0  0
 12  6  1  0  0  0  0
 13 23  1  0  0  0  0
 14 17  2  0  0  0  0
 15 18  1  0  0  0  0
 16  8  1  0  0  0  0
 17 16  1  0  0  0  0
 18 16  2  0  0  0  0
 19  7  1  0  0  0  0
 20  7  1  0  0  0  0
 21  6  1  0  0  0  0
 22 19  1  0  0  0  0
 23 20  1  0  0  0  0
 24 12  2  0  0  0  0
 25 12  1  0  0  0  0
 26 25  2  0  0  0  0
 27 24  1  0  0  0  0
 28 26  1  0  0  0  0
  5  4  1  0  0  0  0
 28 27  2  0  0  0  0
 14 10  1  0  0  0  0
 13 22  1  0  0  0  0
M  END
> <IDNUMBER>
F3023-0957

> <Chemical_Name>
3-{[4-(morpholin-4-yl)phenyl]amino}-1-(1-phenylethyl)pyrrolidine-2,5-dione

> <CAS>
1008927-45-4

> <PriceCoeff>
1.00

> <MW>
379.45

> <Description>
solid

> <FSP3>
0.36

> <clogP>
3.00

> <TPSA>
61.88

> <Acceptor>
5

> <Donor>
2

> <RotBonds>
5

> <HAC>
28

> <Collection>
General

$$$$
F3139-2717
  -ISIS-  06222321442D

 23 25  0  0  0  0  0  0  0  0999 V2000
    4.4292   -0.3667    0.0000 C   0  0  0  0  0  0  0  0  0  0  0  0
    3.7042   -0.7792    0.0000 C   0  0  0  0  0  0  0  0  0  0  0  0
    2.9875   -0.3667    0.0000 C   0  0  0  0  0  0  0  0  0  0  0  0
    4.4292    0.4708    0.0000 C   0  0  0  0  0  0  0  0  0  0  0  0
    2.9917    0.4708    0.0000 C   0  0  0  0  0  0  0  0  0  0  0  0
    3.7042    0.8833    0.0000 O   0  0  0  0  0  0  0  0  0  0  0  0
    2.2750    0.8833    0.0000 C   0  0  0  0  0  0  0  0  0  0  0  0
    5.1375   -0.7792    0.0000 C   0  0  0  0  0  0  0  0  0  0  0  0
    2.2750   -0.7750    0.0000 C   0  0  0  0  0  0  0  0  0  0  0  0
    0.1292    0.4625    0.0000 C   0  0  0  0  0  0  0  0  0  0  0  0
    3.7042   -1.6042    0.0000 O   0  0  0  0  0  0  0  0  0  0  0  0
    1.5625    0.4625    0.0000 C   0  0  0  0  0  0  0  0  0  0  0  0
    0.8500    0.8750    0.0000 O   0  0  0  0  0  0  0  0  0  0  0  0
    0.1292   -0.3625    0.0000 O   0  0  0  0  0  0  0  0  0  0  0  0
    5.1292   -1.6042    0.0000 C   0  0  0  0  0  0  0  0  0  0  0  0
    5.8500   -0.3667    0.0000 C   0  0  0  0  0  0  0  0  0  0  0  0
    1.5625   -0.3625    0.0000 C   0  0  0  0  0  0  0  0  0  0  0  0
    6.5625   -1.6125    0.0000 C   0  0  0  0  0  0  0  0  0  0  0  0
    6.5625   -0.7792    0.0000 C   0  0  0  0  0  0  0  0  0  0  0  0
    5.8417   -2.0167    0.0000 C   0  0  0  0  0  0  0  0  0  0  0  0
    7.2750   -2.0250    0.0000 O   0  0  0  0  0  0  0  0  0  0  0  0
   -0.5833    0.8750    0.0000 C   0  0  0  0  0  0  0  0  0  0  0  0
    7.9917   -1.6125    0.0000 C   0  0  0  0  0  0  0  0  0  0  0  0
  2  1  1  0  0  0  0
  3  2  1  0  0  0  0
  4  1  2  0  0  0  0
  5  6  1  0  0  0  0
  6  4  1  0  0  0  0
  7  5  2  0  0  0  0
  8  1  1  0  0  0  0
  9  3  2  0  0  0  0
 10 13  1  0  0  0  0
 11  2  2  0  0  0  0
 12  7  1  0  0  0  0
 13 12  1  0  0  0  0
 14 10  2  0  0  0  0
 15  8  2  0  0  0  0
 16  8  1  0  0  0  0
 17  9  1  0  0  0  0
 18 19  1  0  0  0  0
 19 16  2  0  0  0  0
 20 15  1  0  0  0  0
 21 18  1  0  0  0  0
 22 10  1  0  0  0  0
 23 21  1  0  0  0  0
 18 20  2  0  0  0  0
  3  5  1  0  0  0  0
 17 12  2  0  0  0  0
M  END
> <IDNUMBER>
F3139-2717

> <Chemical_Name>
3-(4-methoxyphenyl)-4-oxo-4H-chromen-7-yl acetate

> <CAS>
13293-49-7

> <PriceCoeff>
1.00

> <MW>
310.30

> <Description>
solid

> <FSP3>
0.11

> <clogP>
2.45

> <TPSA>
61.83

> <Acceptor>
5

> <Donor>
0

> <RotBonds>
4

> <HAC>
23

> <Collection>
General

> <Reference_compound>
CHEMBL44

> <Similarity>
0.8960

$$$$
F2146-0753
  -ISIS-  06222304352D

 27 28  0  0  0  0  0  0  0  0999 V2000
    4.2458   -3.2667    0.0000 C   0  0  0  0  0  0  0  0  0  0  0  0
    3.9875   -4.0542    0.0000 N   0  0  3  0  0  0  0  0  0  0  0  0
    3.5875   -2.7792    0.0000 S   0  0  0  0  0  0  0  0  0  0  0  0
    3.1625   -4.0542    0.0000 C   0  0  0  0  0  0  0  0  0  0  0  0
    2.9083   -3.2667    0.0000 C   0  0  0  0  0  0  0  0  0  0  0  0
    2.6083   -4.6667    0.0000 C   0  0  0  0  0  0  0  0  0  0  0  0
    2.1000   -3.0917    0.0000 C   0  0  0  0  0  0  0  0  0  0  0  0
    5.0375   -3.0125    0.0000 N   0  0  0  0  0  0  0  0  0  0  0  0
    1.8042   -4.4917    0.0000 C   0  0  0  0  0  0  0  0  0  0  0  0
    1.5417   -3.7083    0.0000 C   0  0  0  0  0  0  0  0  0  0  0  0
    4.4792   -4.7292    0.0000 C   0  0  0  0  0  0  0  0  0  0  0  0
    4.6292   -6.1625    0.0000 O   0  0  0  0  0  0  0  0  0  0  0  0
    1.2542   -5.1083    0.0000 C   0  0  0  0  0  0  0  0  0  0  0  0
    0.7333   -3.5375    0.0000 C   0  0  0  0  0  0  0  0  0  0  0  0
    4.1417   -5.4875    0.0000 C   0  0  0  0  0  0  0  0  0  0  0  0
    4.2917   -6.9208    0.0000 C   0  0  0  0  0  0  0  0  0  0  0  0
    8.0723   -3.7829    0.0000 S   0  0  3  0  0  0  0  0  0  0  0  0
    7.6695   -4.4927    0.0000 C   0  0  0  0  0  0  0  0  0  0  0  0
    7.3614   -3.3616    0.0000 O   0  0  0  0  0  0  0  0  0  0  0  0
    8.4781   -3.0618    0.0000 O   0  0  0  0  0  0  0  0  0  0  0  0
    8.7935   -4.1887    0.0000 O   0  0  0  0  0  0  0  0  0  0  0  0
    8.0849   -5.2103    0.0000 C   0  0  0  0  0  0  0  0  0  0  0  0
    6.8390   -4.4969    0.0000 C   0  0  0  0  0  0  0  0  0  0  0  0
    7.6678   -5.9285    0.0000 C   0  0  0  0  0  0  0  0  0  0  0  0
    6.4311   -5.2144    0.0000 C   0  0  0  0  0  0  0  0  0  0  0  0
    6.8445   -5.9284    0.0000 C   0  0  0  0  0  0  0  0  0  0  0  0
    6.4309   -6.6445    0.0000 C   0  0  0  0  0  0  0  0  0  0  0  0
 13  9  1  0  0  0  0
 14 10  1  0  0  0  0
 15 11  1  0  0  0  0
 16 12  1  0  0  0  0
  5  4  2  0  0  0  0
  9 10  1  0  0  0  0
  2  1  1  0  0  0  0
  3  1  1  0  0  0  0
  4  2  1  0  0  0  0
  5  3  1  0  0  0  0
  6  4  1  0  0  0  0
  7  5  1  0  0  0  0
  8  1  2  0  0  0  0
  9  6  2  0  0  0  0
 10  7  2  0  0  0  0
 11  2  1  0  0  0  0
 12 15  1  0  0  0  0
 18 17  1  0  0  0  0
 19 17  2  0  0  0  0
 20 17  2  0  0  0  0
 21 17  1  0  0  0  0
 22 18  1  0  0  0  0
 23 18  2  0  0  0  0
 24 22  2  0  0  0  0
 25 23  1  0  0  0  0
 26 25  2  0  0  0  0
 27 26  1  0  0  0  0
 24 26  1  0  0  0  0
M  END
> <IDNUMBER>
F2146-0753

> <Chemical_Name>
3-(2-methoxyethyl)-5,6-dimethyl-2,3-dihydro-1,3-benzothiazol-2-imine; 4-methylbenzene-1-sulfonic acid

> <CAS>
2034157-62-3

> <PriceCoeff>
1.00

> <MW>
236.33

> <Description>
solid

> <FSP3>
0.42

> <clogP>
3.86

> <TPSA>
61.62

> <Acceptor>
1

> <Donor>
1

> <RotBonds>
3

> <HAC>
16

> <Collection>
General

> <Reference_compound>
PRI5904

> <Similarity>
0.8060

$$$$
F0220-0047
  -ISIS-  06222321452D

 27 30  0  0  0  0  0  0  0  0999 V2000
    0.1375    0.5333    0.0000 N   0  0  3  0  0  0  0  0  0  0  0  0
    0.3500    1.1708    0.0000 C   0  0  0  0  0  0  0  0  0  0  0  0
    0.7000    0.1333    0.0000 C   0  0  0  0  0  0  0  0  0  0  0  0
    1.2500    0.5333    0.0000 C   0  0  3  0  0  0  0  0  0  0  0  0
    1.0167    1.1833    0.0000 C   0  0  0  0  0  0  0  0  0  0  0  0
    3.9292    2.1625    0.0000 N   0  0  3  0  0  0  0  0  0  0  0  0
    1.9000    0.3208    0.0000 N   0  0  0  0  0  0  0  0  0  0  0  0
   -0.5000    0.3333    0.0000 C   0  0  0  0  0  0  0  0  0  0  0  0
   -0.0708    1.7333    0.0000 O   0  0  0  0  0  0  0  0  0  0  0  0
    3.4292    1.7125    0.0000 C   0  0  0  0  0  0  0  0  0  0  0  0
    0.7000   -0.5500    0.0000 O   0  0  0  0  0  0  0  0  0  0  0  0
    4.9500    3.0625    0.0000 O   0  0  0  0  0  0  0  0  0  0  0  0
   -1.0000    0.7958    0.0000 C   0  0  0  0  0  0  0  0  0  0  0  0
   -0.6500   -0.3375    0.0000 C   0  0  0  0  0  0  0  0  0  0  0  0
    2.7667    1.9208    0.0000 C   0  0  0  0  0  0  0  0  0  0  0  0
    3.5667    1.0333    0.0000 C   0  0  0  0  0  0  0  0  0  0  0  0
    2.4000    0.7833    0.0000 C   0  0  0  0  0  0  0  0  0  0  0  0
   -1.8125   -0.0792    0.0000 C   0  0  0  0  0  0  0  0  0  0  0  0
    3.0542    0.5625    0.0000 C   0  0  0  0  0  0  0  0  0  0  0  0
    2.2542    1.4625    0.0000 C   0  0  0  0  0  0  0  0  0  0  0  0
   -1.6625    0.5833    0.0000 C   0  0  0  0  0  0  0  0  0  0  0  0
   -1.3000   -0.5375    0.0000 C   0  0  0  0  0  0  0  0  0  0  0  0
   -2.4125   -0.3042    0.0000 Cl  0  0  0  0  0  0  0  0  0  0  0  0
    3.8000    2.8208    0.0000 C   0  0  0  0  0  0  0  0  0  0  0  0
    4.5667    1.9583    0.0000 C   0  0  0  0  0  0  0  0  0  0  0  0
    4.3000    3.2833    0.0000 C   0  0  0  0  0  0  0  0  0  0  0  0
    5.0875    2.3958    0.0000 C   0  0  0  0  0  0  0  0  0  0  0  0
  2  1  1  0  0  0  0
  3  1  1  0  0  0  0
  4  3  1  0  0  0  0
  5  2  1  0  0  0  0
  6 10  1  0  0  0  0
  7  4  1  0  0  0  0
  8  1  1  0  0  0  0
  9  2  2  0  0  0  0
 10 15  2  0  0  0  0
 11  3  2  0  0  0  0
 12 27  1  0  0  0  0
 13  8  1  0  0  0  0
 14  8  2  0  0  0  0
 15 20  1  0  0  0  0
 16 19  2  0  0  0  0
 17  7  1  0  0  0  0
 18 22  2  0  0  0  0
 19 17  1  0  0  0  0
 20 17  2  0  0  0  0
 21 13  2  0  0  0  0
 22 14  1  0  0  0  0
 23 18  1  0  0  0  0
 24  6  1  0  0  0  0
 25  6  1  0  0  0  0
 26 24  1  0  0  0  0
 27 25  1  0  0  0  0
  5  4  1  0  0  0  0
 21 18  1  0  0  0  0
 10 16  1  0  0  0  0
 12 26  1  0  0  0  0
M  END
> <IDNUMBER>
F0220-0047

> <Chemical_Name>
1-(4-chlorophenyl)-3-{[4-(morpholin-4-yl)phenyl]amino}pyrrolidine-2,5-dione

> <CAS>
470695-68-2

> <PriceCoeff>
1.00

> <MW>
385.84

> <Description>
solid

> <FSP3>
0.30

> <clogP>
2.94

> <TPSA>
61.88

> <Acceptor>
5

> <Donor>
2

> <RotBonds>
4

> <HAC>
27

> <Collection>
General

$$$$
F2146-0752
  -ISIS-  06222304352D

 27 28  0  0  0  0  0  0  0  0999 V2000
    2.2000   -3.7208    0.0000 C   0  0  0  0  0  0  0  0  0  0  0  0
    1.9417   -4.5083    0.0000 N   0  0  3  0  0  0  0  0  0  0  0  0
    1.5375   -3.2375    0.0000 S   0  0  0  0  0  0  0  0  0  0  0  0
    1.1167   -4.5083    0.0000 C   0  0  0  0  0  0  0  0  0  0  0  0
    0.8625   -3.7208    0.0000 C   0  0  0  0  0  0  0  0  0  0  0  0
    0.0542   -3.5458    0.0000 C   0  0  0  0  0  0  0  0  0  0  0  0
    2.9917   -3.4667    0.0000 N   0  0  0  0  0  0  0  0  0  0  0  0
    0.5625   -5.1208    0.0000 C   0  0  0  0  0  0  0  0  0  0  0  0
   -0.5042   -4.1625    0.0000 C   0  0  0  0  0  0  0  0  0  0  0  0
   -0.2417   -4.9458    0.0000 C   0  0  0  0  0  0  0  0  0  0  0  0
    2.4333   -5.1833    0.0000 C   0  0  0  0  0  0  0  0  0  0  0  0
   -0.1958   -2.7625    0.0000 C   0  0  0  0  0  0  0  0  0  0  0  0
    2.5833   -6.6167    0.0000 O   0  0  0  0  0  0  0  0  0  0  0  0
   -0.7917   -5.5625    0.0000 C   0  0  0  0  0  0  0  0  0  0  0  0
    2.0958   -5.9417    0.0000 C   0  0  0  0  0  0  0  0  0  0  0  0
    2.2458   -7.3750    0.0000 C   0  0  0  0  0  0  0  0  0  0  0  0
    6.0265   -4.0579    0.0000 S   0  0  3  0  0  0  0  0  0  0  0  0
    5.6237   -4.7677    0.0000 C   0  0  0  0  0  0  0  0  0  0  0  0
    5.3156   -3.6366    0.0000 O   0  0  0  0  0  0  0  0  0  0  0  0
    6.4323   -3.3368    0.0000 O   0  0  0  0  0  0  0  0  0  0  0  0
    6.7477   -4.4637    0.0000 O   0  0  0  0  0  0  0  0  0  0  0  0
    6.0391   -5.4853    0.0000 C   0  0  0  0  0  0  0  0  0  0  0  0
    4.7932   -4.7719    0.0000 C   0  0  0  0  0  0  0  0  0  0  0  0
    5.6220   -6.2035    0.0000 C   0  0  0  0  0  0  0  0  0  0  0  0
    4.3853   -5.4894    0.0000 C   0  0  0  0  0  0  0  0  0  0  0  0
    4.7987   -6.2034    0.0000 C   0  0  0  0  0  0  0  0  0  0  0  0
    4.3851   -6.9195    0.0000 C   0  0  0  0  0  0  0  0  0  0  0  0
 13 15  1  0  0  0  0
 14 10  1  0  0  0  0
 15 11  1  0  0  0  0
 16 13  1  0  0  0  0
  5  4  2  0  0  0  0
 10  9  1  0  0  0  0
  2  1  1  0  0  0  0
  3  1  1  0  0  0  0
  4  2  1  0  0  0  0
  5  3  1  0  0  0  0
  6  5  1  0  0  0  0
  7  1  2  0  0  0  0
  8  4  1  0  0  0  0
  9  6  2  0  0  0  0
 10  8  2  0  0  0  0
 11  2  1  0  0  0  0
 12  6  1  0  0  0  0
 18 17  1  0  0  0  0
 19 17  2  0  0  0  0
 20 17  2  0  0  0  0
 21 17  1  0  0  0  0
 22 18  1  0  0  0  0
 23 18  2  0  0  0  0
 24 22  2  0  0  0  0
 25 23  1  0  0  0  0
 26 25  2  0  0  0  0
 27 26  1  0  0  0  0
 24 26  1  0  0  0  0
M  END
> <IDNUMBER>
F2146-0752

> <Chemical_Name>
3-(2-methoxyethyl)-5,7-dimethyl-2,3-dihydro-1,3-benzothiazol-2-imine; 4-methylbenzene-1-sulfonic acid

> <CAS>
2034157-21-4

> <PriceCoeff>
1.00

> <MW>
236.33

> <Description>
solid

> <FSP3>
0.42

> <clogP>
3.91

> <TPSA>
61.62

> <Acceptor>
1

> <Donor>
1

> <RotBonds>
3

> <HAC>
16

> <Collection>
General

> <Reference_compound>
PRI5904

> <Similarity>
0.8060

$$$$
F3385-1175
  -ISIS-  06222321462D

 28 31  0  0  0  0  0  0  0  0999 V2000
    6.6917   -4.3542    0.0000 C   0  0  0  0  0  0  0  0  0  0  0  0
    5.2500   -3.5292    0.0000 C   0  0  0  0  0  0  0  0  0  0  0  0
    5.2542   -4.3625    0.0000 C   0  0  0  0  0  0  0  0  0  0  0  0
    5.9667   -4.7667    0.0000 C   0  0  0  0  0  0  0  0  0  0  0  0
    4.5292   -3.1167    0.0000 C   0  0  0  0  0  0  0  0  0  0  0  0
    5.9625   -3.1042    0.0000 O   0  0  0  0  0  0  0  0  0  0  0  0
    6.6875   -3.5167    0.0000 C   0  0  0  0  0  0  0  0  0  0  0  0
    3.8167   -1.8792    0.0000 N   0  0  3  0  0  0  0  0  0  0  0  0
    4.5292   -2.2917    0.0000 C   0  0  0  0  0  0  0  0  0  0  0  0
    4.5292   -4.7667    0.0000 C   0  0  0  0  0  0  0  0  0  0  0  0
    7.4042   -4.7625    0.0000 C   0  0  0  0  0  0  0  0  0  0  0  0
    3.8167   -3.5292    0.0000 C   0  0  0  0  0  0  0  0  0  0  0  0
    2.3792   -1.0542    0.0000 N   0  0  3  0  0  0  0  0  0  0  0  0
    5.9750   -5.5917    0.0000 O   0  0  0  0  0  0  0  0  0  0  0  0
    3.8167   -4.3542    0.0000 C   0  0  0  0  0  0  0  0  0  0  0  0
    7.4042   -5.5917    0.0000 C   0  0  0  0  0  0  0  0  0  0  0  0
    8.1167   -4.3500    0.0000 C   0  0  0  0  0  0  0  0  0  0  0  0
    3.8167   -1.0542    0.0000 C   0  0  0  0  0  0  0  0  0  0  0  0
    3.1042   -2.3000    0.0000 C   0  0  0  0  0  0  0  0  0  0  0  0
    2.3792   -1.8792    0.0000 C   0  0  0  0  0  0  0  0  0  0  0  0
    3.1042   -0.6417    0.0000 C   0  0  0  0  0  0  0  0  0  0  0  0
    8.8292   -5.5875    0.0000 C   0  0  0  0  0  0  0  0  0  0  0  0
    8.8292   -4.7542    0.0000 C   0  0  0  0  0  0  0  0  0  0  0  0
    8.1167   -6.0000    0.0000 C   0  0  0  0  0  0  0  0  0  0  0  0
    3.1042   -3.1167    0.0000 O   0  0  0  0  0  0  0  0  0  0  0  0
    9.5417   -5.9917    0.0000 O   0  0  0  0  0  0  0  0  0  0  0  0
    1.6750   -0.6417    0.0000 C   0  0  0  0  0  0  0  0  0  0  0  0
   10.2542   -5.5792    0.0000 C   0  0  0  0  0  0  0  0  0  0  0  0
  2  6  1  0  0  0  0
  3  4  1  0  0  0  0
  4  1  1  0  0  0  0
  5  2  2  0  0  0  0
  6  7  1  0  0  0  0
  7  1  2  0  0  0  0
  8  9  1  0  0  0  0
  9  5  1  0  0  0  0
 10  3  2  0  0  0  0
 11  1  1  0  0  0  0
 12  5  1  0  0  0  0
 13 20  1  0  0  0  0
 14  4  2  0  0  0  0
 15 10  1  0  0  0  0
 16 11  2  0  0  0  0
 17 11  1  0  0  0  0
 18  8  1  0  0  0  0
 19  8  1  0  0  0  0
 20 19  1  0  0  0  0
 21 18  1  0  0  0  0
 22 23  1  0  0  0  0
 23 17  2  0  0  0  0
 24 16  1  0  0  0  0
 25 12  1  0  0  0  0
 26 22  1  0  0  0  0
 27 13  1  0  0  0  0
 28 26  1  0  0  0  0
  2  3  1  0  0  0  0
 24 22  2  0  0  0  0
 12 15  2  0  0  0  0
 21 13  1  0  0  0  0
M  END
> <IDNUMBER>
F3385-1175

> <Chemical_Name>
7-hydroxy-3-(4-methoxyphenyl)-8-[(4-methylpiperazin-1-yl)methyl]-4H-chromen-4-one

> <CAS>
845807-32-1

> <PriceCoeff>
1.00

> <MW>
380.44

> <Description>
solid

> <FSP3>
0.32

> <clogP>
2.78

> <TPSA>
62.24

> <Acceptor>
6

> <Donor>
3

> <RotBonds>
4

> <HAC>
28

> <Collection>
General

> <Reference_compound>
CHEMBL463936

> <Similarity>
0.8000

$$$$
F1190-0497
  -ISIS-  06222321142D

 20 22  0  0  0  0  0  0  0  0999 V2000
    2.6125    1.2458    0.0000 C   0  0  3  0  0  0  0  0  0  0  0  0
    1.1667    0.4083    0.0000 C   0  0  0  0  0  0  0  0  0  0  0  0
    1.8917    1.6625    0.0000 O   0  0  0  0  0  0  0  0  0  0  0  0
    1.8875   -0.0042    0.0000 C   0  0  0  0  0  0  0  0  0  0  0  0
    1.1750    1.2458    0.0000 C   0  0  0  0  0  0  0  0  0  0  0  0
    2.6125    0.4083    0.0000 C   0  0  0  0  0  0  0  0  0  0  0  0
    3.3250    1.6500    0.0000 C   0  0  0  0  0  0  0  0  0  0  0  0
    0.4542   -0.0000    0.0000 C   0  0  0  0  0  0  0  0  0  0  0  0
    3.3292    2.4708    0.0000 C   0  0  0  0  0  0  0  0  0  0  0  0
    1.8875   -0.8292    0.0000 O   0  0  0  0  0  0  0  0  0  0  0  0
    0.4542    1.6583    0.0000 C   0  0  0  0  0  0  0  0  0  0  0  0
   -0.2583    0.4125    0.0000 C   0  0  0  0  0  0  0  0  0  0  0  0
    2.6042    2.8833    0.0000 F   0  0  0  0  0  0  0  0  0  0  0  0
   -0.2583    1.2375    0.0000 C   0  0  0  0  0  0  0  0  0  0  0  0
    4.0417    1.2333    0.0000 C   0  0  0  0  0  0  0  0  0  0  0  0
   -0.9708   -0.0000    0.0000 O   0  0  0  0  0  0  0  0  0  0  0  0
    4.0417    2.8833    0.0000 C   0  0  0  0  0  0  0  0  0  0  0  0
   -0.9708   -0.8250    0.0000 C   0  0  0  0  0  0  0  0  0  0  0  0
    4.7542    1.6458    0.0000 C   0  0  0  0  0  0  0  0  0  0  0  0
    4.7542    2.4708    0.0000 C   0  0  0  0  0  0  0  0  0  0  0  0
  2  4  1  0  0  0  0
  3  1  1  0  0  0  0
  4  6  1  0  0  0  0
  5  3  1  0  0  0  0
  6  1  1  0  0  0  0
  7  1  1  0  0  0  0
  8  2  2  0  0  0  0
  9  7  1  0  0  0  0
 10  4  2  0  0  0  0
 11  5  2  0  0  0  0
 12  8  1  0  0  0  0
 13  9  1  0  0  0  0
 14 11  1  0  0  0  0
 15  7  2  0  0  0  0
 16 12  1  0  0  0  0
 17  9  2  0  0  0  0
 18 16  1  0  0  0  0
 19 15  1  0  0  0  0
 20 19  2  0  0  0  0
  2  5  1  0  0  0  0
 20 17  1  0  0  0  0
 12 14  2  0  0  0  0
M  END
> <IDNUMBER>
F1190-0497

> <Chemical_Name>
2-(2-fluorophenyl)-6-methoxy-3,4-dihydro-2H-1-benzopyran-4-one

> <CAS>
510766-54-8

> <PriceCoeff>
1.00

> <MW>
272.27

> <Description>
solid

> <FSP3>
0.19

> <clogP>
3.65

> <TPSA>
35.53

> <Acceptor>
3

> <Donor>
0

> <RotBonds>
2

> <HAC>
20

> <Collection>
General

> <Reference_compound>
CHEMBL274318

> <Similarity>
0.8020

$$$$
F3023-0398
  -ISIS-  06222321152D

 22 24  0  0  0  0  0  0  0  0999 V2000
   11.0292   -6.1542    0.0000 N   0  0  3  0  0  0  0  0  0  0  0  0
   10.6042   -6.7375    0.0000 C   0  0  0  0  0  0  0  0  0  0  0  0
   10.6042   -5.5750    0.0000 C   0  0  0  0  0  0  0  0  0  0  0  0
    9.9167   -6.5042    0.0000 C   0  0  3  0  0  0  0  0  0  0  0  0
    9.9250   -5.7917    0.0000 C   0  0  0  0  0  0  0  0  0  0  0  0
    9.3417   -6.9292    0.0000 N   0  0  0  0  0  0  0  0  0  0  0  0
   11.7417   -6.1625    0.0000 C   0  0  0  0  0  0  0  0  0  0  0  0
   10.8167   -7.4167    0.0000 O   0  0  0  0  0  0  0  0  0  0  0  0
   10.8292   -4.8917    0.0000 O   0  0  0  0  0  0  0  0  0  0  0  0
    8.6875   -6.6292    0.0000 C   0  0  0  0  0  0  0  0  0  0  0  0
   12.1000   -6.7792    0.0000 C   0  0  0  0  0  0  0  0  0  0  0  0
    7.3875   -6.0417    0.0000 C   0  0  0  0  0  0  0  0  0  0  0  0
    8.1125   -7.0500    0.0000 C   0  0  0  0  0  0  0  0  0  0  0  0
    8.6167   -5.9167    0.0000 C   0  0  0  0  0  0  0  0  0  0  0  0
    7.9667   -5.6250    0.0000 C   0  0  0  0  0  0  0  0  0  0  0  0
    7.4542   -6.7542    0.0000 C   0  0  0  0  0  0  0  0  0  0  0  0
    6.7292   -5.7417    0.0000 C   0  0  0  0  0  0  0  0  0  0  0  0
   11.7375   -7.4000    0.0000 C   0  0  0  0  0  0  0  0  0  0  0  0
   12.8125   -6.7792    0.0000 C   0  0  0  0  0  0  0  0  0  0  0  0
   13.1667   -7.4042    0.0000 C   0  0  0  0  0  0  0  0  0  0  0  0
   12.0917   -8.0167    0.0000 C   0  0  0  0  0  0  0  0  0  0  0  0
   12.8042   -8.0250    0.0000 C   0  0  0  0  0  0  0  0  0  0  0  0
  2  1  1  0  0  0  0
  3  1  1  0  0  0  0
  4  2  1  0  0  0  0
  5  3  1  0  0  0  0
  6  4  1  0  0  0  0
  7  1  1  0  0  0  0
  8  2  2  0  0  0  0
  9  3  2  0  0  0  0
 10  6  1  0  0  0  0
 11  7  1  0  0  0  0
 12 15  2  0  0  0  0
 13 10  1  0  0  0  0
 14 10  2  0  0  0  0
 15 14  1  0  0  0  0
 16 13  2  0  0  0  0
 17 12  1  0  0  0  0
 18 11  2  0  0  0  0
 19 11  1  0  0  0  0
 20 19  2  0  0  0  0
 21 18  1  0  0  0  0
 22 20  1  0  0  0  0
  4  5  1  0  0  0  0
 22 21  2  0  0  0  0
 12 16  1  0  0  0  0
M  END
> <IDNUMBER>
F3023-0398

> <Chemical_Name>
1-benzyl-3-[(4-methylphenyl)amino]pyrrolidine-2,5-dione

> <CAS>
1009770-02-8

> <PriceCoeff>
1.00

> <MW>
294.35

> <Description>
solid

> <FSP3>
0.22

> <clogP>
3.73

> <TPSA>
49.41

> <Acceptor>
3

> <Donor>
1

> <RotBonds>
4

> <HAC>
22

> <Collection>
General

$$$$
F0425-0017
  -ISIS-  06222321142D

 24 26  0  0  0  0  0  0  0  0999 V2000
    2.9042   -2.5792    0.0000 N   0  0  3  0  0  0  0  0  0  0  0  0
    3.4000   -1.9167    0.0000 C   0  0  0  0  0  0  0  0  0  0  0  0
    3.3875   -3.2500    0.0000 C   0  0  0  0  0  0  0  0  0  0  0  0
    0.4500   -1.1500    0.0000 N   0  3  0  0  0  0  0  0  0  0  0  0
    4.1792   -3.0000    0.0000 C   0  0  3  0  0  0  0  0  0  0  0  0
    4.1792   -2.1667    0.0000 C   0  0  0  0  0  0  0  0  0  0  0  0
    2.0875   -2.5792    0.0000 C   0  0  0  0  0  0  0  0  0  0  0  0
    1.6792   -1.8667    0.0000 C   0  0  0  0  0  0  0  0  0  0  0  0
    0.8542   -1.8667    0.0000 C   0  0  0  0  0  0  0  0  0  0  0  0
    4.8500   -3.4792    0.0000 N   0  0  0  0  0  0  0  0  0  0  0  0
    0.8542   -0.4375    0.0000 O   0  5  0  0  0  0  0  0  0  0  0  0
    3.1375   -1.1292    0.0000 O   0  0  0  0  0  0  0  0  0  0  0  0
   -0.3708   -1.1500    0.0000 O   0  0  0  0  0  0  0  0  0  0  0  0
    3.1375   -4.0375    0.0000 O   0  0  0  0  0  0  0  0  0  0  0  0
    5.6000   -3.1500    0.0000 C   0  0  0  0  0  0  0  0  0  0  0  0
    1.6792   -3.2875    0.0000 C   0  0  0  0  0  0  0  0  0  0  0  0
    7.1042   -2.4875    0.0000 C   0  0  0  0  0  0  0  0  0  0  0  0
    6.2542   -3.6375    0.0000 C   0  0  0  0  0  0  0  0  0  0  0  0
    5.6792   -2.3292    0.0000 C   0  0  0  0  0  0  0  0  0  0  0  0
    6.4375   -2.0000    0.0000 C   0  0  0  0  0  0  0  0  0  0  0  0
    7.0167   -3.3042    0.0000 C   0  0  0  0  0  0  0  0  0  0  0  0
    0.4500   -2.5792    0.0000 C   0  0  0  0  0  0  0  0  0  0  0  0
    0.8500   -3.2875    0.0000 C   0  0  0  0  0  0  0  0  0  0  0  0
    7.8542   -2.1500    0.0000 C   0  0  0  0  0  0  0  0  0  0  0  0
  2  1  1  0  0  0  0
  3  1  1  0  0  0  0
  4  9  1  0  0  0  0
  5  3  1  0  0  0  0
  6  2  1  0  0  0  0
  7  1  1  0  0  0  0
  8  7  1  0  0  0  0
  9  8  2  0  0  0  0
 10  5  1  0  0  0  0
 11  4  1  0  0  0  0
 12  2  2  0  0  0  0
 13  4  2  0  0  0  0
 14  3  2  0  0  0  0
 15 10  1  0  0  0  0
 16  7  2  0  0  0  0
 17 20  1  0  0  0  0
 18 15  2  0  0  0  0
 19 15  1  0  0  0  0
 20 19  2  0  0  0  0
 21 18  1  0  0  0  0
 22 23  2  0  0  0  0
 23 16  1  0  0  0  0
 24 17  1  0  0  0  0
  5  6  1  0  0  0  0
  9 22  1  0  0  0  0
 21 17  2  0  0  0  0
M  CHG  2   4   1  11  -1
M  END
> <IDNUMBER>
F0425-0017

> <Chemical_Name>
3-[(4-methylphenyl)amino]-1-(3-nitrophenyl)pyrrolidine-2,5-dione

> <CAS>
476410-22-7

> <PriceCoeff>
1.00

> <MW>
325.32

> <Description>
solid

> <FSP3>
0.18

> <clogP>
3.33

> <TPSA>
92.55

> <Acceptor>
5

> <Donor>
1

> <RotBonds>
4

> <HAC>
24

> <Collection>
General

$$$$
F0758-0105
  -ISIS-  06222321142D

 22 24  0  0  0  0  0  0  0  0999 V2000
    0.9292    1.2458    0.0000 C   0  0  0  0  0  0  0  0  0  0  0  0
   -0.4125    0.4833    0.0000 C   0  0  0  0  0  0  0  0  0  0  0  0
    0.4875    0.4625    0.0000 C   0  0  0  0  0  0  0  0  0  0  0  0
   -0.8500    1.2458    0.0000 C   0  0  0  0  0  0  0  0  0  0  0  0
   -0.4125    2.0208    0.0000 O   0  0  0  0  0  0  0  0  0  0  0  0
    0.4875    2.0208    0.0000 C   0  0  0  0  0  0  0  0  0  0  0  0
   -1.7500    1.2625    0.0000 C   0  0  0  0  0  0  0  0  0  0  0  0
   -2.1958    0.4833    0.0000 C   0  0  0  0  0  0  0  0  0  0  0  0
   -0.8708   -0.3000    0.0000 C   0  0  0  0  0  0  0  0  0  0  0  0
   -3.0708    0.5000    0.0000 O   0  0  0  0  0  0  0  0  0  0  0  0
   -3.5208   -0.2500    0.0000 C   0  0  0  0  0  0  0  0  0  0  0  0
    1.8042    1.2458    0.0000 C   0  0  0  0  0  0  0  0  0  0  0  0
    0.9500   -0.3167    0.0000 O   0  0  0  0  0  0  0  0  0  0  0  0
   -1.7500   -0.3000    0.0000 C   0  0  0  0  0  0  0  0  0  0  0  0
   -4.4125   -0.2875    0.0000 O   0  0  0  0  0  0  0  0  0  0  0  0
   -2.2208    2.0500    0.0000 C   0  0  0  0  0  0  0  0  0  0  0  0
   -3.1458   -1.0375    0.0000 C   0  0  0  0  0  0  0  0  0  0  0  0
    2.2542    2.0208    0.0000 C   0  0  0  0  0  0  0  0  0  0  0  0
    2.2542    0.4708    0.0000 C   0  0  0  0  0  0  0  0  0  0  0  0
    3.1500    0.4708    0.0000 C   0  0  0  0  0  0  0  0  0  0  0  0
    3.1500    2.0208    0.0000 C   0  0  0  0  0  0  0  0  0  0  0  0
    3.5875    1.2458    0.0000 C   0  0  0  0  0  0  0  0  0  0  0  0
  2  3  1  0  0  0  0
  3  1  1  0  0  0  0
  4  5  1  0  0  0  0
  5  6  1  0  0  0  0
  6  1  2  0  0  0  0
  7  4  1  0  0  0  0
  8  7  2  0  0  0  0
  9  2  1  0  0  0  0
 10  8  1  0  0  0  0
 11 10  1  0  0  0  0
 12  1  1  0  0  0  0
 13  3  2  0  0  0  0
 14  9  2  0  0  0  0
 15 11  2  0  0  0  0
 16  7  1  0  0  0  0
 17 11  1  0  0  0  0
 18 12  1  0  0  0  0
 19 12  2  0  0  0  0
 20 19  1  0  0  0  0
 21 18  2  0  0  0  0
 22 20  2  0  0  0  0
  4  2  2  0  0  0  0
 21 22  1  0  0  0  0
  8 14  1  0  0  0  0
M  END
> <IDNUMBER>
F0758-0105

> <Chemical_Name>
8-methyl-4-oxo-3-phenyl-4H-chromen-7-yl acetate

> <CAS>
315233-86-4

> <PriceCoeff>
1.00

> <MW>
294.30

> <Description>
solid

> <FSP3>
0.11

> <clogP>
3.02

> <TPSA>
52.60

> <Acceptor>
4

> <Donor>
0

> <RotBonds>
3

> <HAC>
22

> <Collection>
General

> <Reference_compound>
CHEMBL44

> <Similarity>
0.8660

$$$$
F2146-0723
  -ISIS-  06222304352D

 26 27  0  0  0  0  0  0  0  0999 V2000
    4.2292   -3.5625    0.0000 C   0  0  0  0  0  0  0  0  0  0  0  0
    3.9667   -4.3458    0.0000 N   0  0  3  0  0  0  0  0  0  0  0  0
    3.5625   -3.0750    0.0000 S   0  0  0  0  0  0  0  0  0  0  0  0
    3.1417   -4.3458    0.0000 C   0  0  0  0  0  0  0  0  0  0  0  0
    2.8917   -3.5625    0.0000 C   0  0  0  0  0  0  0  0  0  0  0  0
    5.0208   -3.3042    0.0000 N   0  0  0  0  0  0  0  0  0  0  0  0
    4.4625   -5.0167    0.0000 C   0  0  0  0  0  0  0  0  0  0  0  0
    2.5917   -4.9583    0.0000 C   0  0  0  0  0  0  0  0  0  0  0  0
    2.0833   -3.3792    0.0000 C   0  0  0  0  0  0  0  0  0  0  0  0
    3.3333   -5.8667    0.0000 O   0  0  0  0  0  0  0  0  0  0  0  0
    4.1250   -5.7792    0.0000 C   0  0  0  0  0  0  0  0  0  0  0  0
    2.9708   -6.6208    0.0000 C   0  0  0  0  0  0  0  0  0  0  0  0
    1.7875   -4.7833    0.0000 C   0  0  0  0  0  0  0  0  0  0  0  0
    1.5250   -4.0000    0.0000 C   0  0  0  0  0  0  0  0  0  0  0  0
    2.1458   -6.6833    0.0000 C   0  0  0  0  0  0  0  0  0  0  0  0
    8.0556   -3.8121    0.0000 S   0  0  3  0  0  0  0  0  0  0  0  0
    7.6528   -4.5219    0.0000 C   0  0  0  0  0  0  0  0  0  0  0  0
    7.3447   -3.3908    0.0000 O   0  0  0  0  0  0  0  0  0  0  0  0
    8.4614   -3.0910    0.0000 O   0  0  0  0  0  0  0  0  0  0  0  0
    8.7768   -4.2179    0.0000 O   0  0  0  0  0  0  0  0  0  0  0  0
    8.0682   -5.2395    0.0000 C   0  0  0  0  0  0  0  0  0  0  0  0
    6.8223   -4.5261    0.0000 C   0  0  0  0  0  0  0  0  0  0  0  0
    7.6511   -5.9577    0.0000 C   0  0  0  0  0  0  0  0  0  0  0  0
    6.4144   -5.2436    0.0000 C   0  0  0  0  0  0  0  0  0  0  0  0
    6.8278   -5.9576    0.0000 C   0  0  0  0  0  0  0  0  0  0  0  0
    6.4142   -6.6737    0.0000 C   0  0  0  0  0  0  0  0  0  0  0  0
 13  8  2  0  0  0  0
 14  9  2  0  0  0  0
 15 12  1  0  0  0  0
  5  4  2  0  0  0  0
 13 14  1  0  0  0  0
  2  1  1  0  0  0  0
  3  1  1  0  0  0  0
  4  2  1  0  0  0  0
  5  3  1  0  0  0  0
  6  1  2  0  0  0  0
  7  2  1  0  0  0  0
  8  4  1  0  0  0  0
  9  5  1  0  0  0  0
 10 11  1  0  0  0  0
 11  7  1  0  0  0  0
 12 10  1  0  0  0  0
 17 16  1  0  0  0  0
 18 16  2  0  0  0  0
 19 16  2  0  0  0  0
 20 16  1  0  0  0  0
 21 17  1  0  0  0  0
 22 17  2  0  0  0  0
 23 21  2  0  0  0  0
 24 22  1  0  0  0  0
 25 24  2  0  0  0  0
 26 25  1  0  0  0  0
 23 25  1  0  0  0  0
M  END
> <IDNUMBER>
F2146-0723

> <Chemical_Name>
3-(2-ethoxyethyl)-2,3-dihydro-1,3-benzothiazol-2-imine; 4-methylbenzene-1-sulfonic acid

> <CAS>
2034157-59-8

> <PriceCoeff>
1.00

> <MW>
222.31

> <Description>
solid

> <FSP3>
0.36

> <clogP>
3.30

> <TPSA>
61.62

> <Acceptor>
1

> <Donor>
1

> <RotBonds>
4

> <HAC>
15

> <Collection>
General

> <Reference_compound>
PRI5904

> <Similarity>
0.8060

$$$$
F1800-0170
  -ISIS-  06222321452D

 23 24  0  0  0  0  0  0  0  0999 V2000
   -3.7250    2.3000    0.0000 N   0  0  3  0  0  0  0  0  0  0  0  0
   -3.3500    2.9583    0.0000 C   0  0  0  0  0  0  0  0  0  0  0  0
   -3.3500    1.6583    0.0000 C   0  0  0  0  0  0  0  0  0  0  0  0
   -2.2250    2.3000    0.0000 S   0  0  0  0  0  0  0  0  0  0  0  0
   -4.4750    2.3000    0.0000 C   0  0  0  0  0  0  0  0  0  0  0  0
   -4.8500    2.9458    0.0000 C   0  0  0  0  0  0  0  0  0  0  0  0
   -2.6000    2.9583    0.0000 C   0  0  3  0  0  0  0  0  0  0  0  0
   -2.6000    1.6583    0.0000 C   0  0  0  0  0  0  0  0  0  0  0  0
   -5.6000    2.9458    0.0000 N   0  0  0  0  0  0  0  0  0  0  0  0
   -3.7333    3.6083    0.0000 O   0  0  0  0  0  0  0  0  0  0  0  0
   -3.7333    1.0000    0.0000 O   0  0  0  0  0  0  0  0  0  0  0  0
   -4.4750    3.5958    0.0000 O   0  0  0  0  0  0  0  0  0  0  0  0
   -5.9750    3.5958    0.0000 C   0  0  0  0  0  0  0  0  0  0  0  0
   -6.7167    4.8917    0.0000 C   0  0  0  0  0  0  0  0  0  0  0  0
   -5.6000    4.2417    0.0000 C   0  0  0  0  0  0  0  0  0  0  0  0
   -6.7167    3.5958    0.0000 C   0  0  0  0  0  0  0  0  0  0  0  0
   -5.9750    4.8917    0.0000 C   0  0  0  0  0  0  0  0  0  0  0  0
   -7.0917    4.2292    0.0000 C   0  0  0  0  0  0  0  0  0  0  0  0
   -2.2208    3.6083    0.0000 C   0  0  0  0  0  0  0  0  0  0  0  0
   -7.0917    5.5417    0.0000 C   0  0  0  0  0  0  0  0  0  0  0  0
   -7.8542    5.5542    0.0000 C   0  0  0  0  0  0  0  0  0  0  0  0
   -8.2292    6.2042    0.0000 C   0  0  0  0  0  0  0  0  0  0  0  0
   -8.9792    6.2042    0.0000 C   0  0  0  0  0  0  0  0  0  0  0  0
  2  1  1  0  0  0  0
  3  1  1  0  0  0  0
  4  8  1  0  0  0  0
  5  1  1  0  0  0  0
  6  5  1  0  0  0  0
  7  2  1  0  0  0  0
  8  3  1  0  0  0  0
  9  6  1  0  0  0  0
 10  2  2  0  0  0  0
 11  3  2  0  0  0  0
 12  6  2  0  0  0  0
 13  9  1  0  0  0  0
 14 18  2  0  0  0  0
 15 13  1  0  0  0  0
 16 13  2  0  0  0  0
 17 15  2  0  0  0  0
 18 16  1  0  0  0  0
 19  7  1  0  0  0  0
 20 14  1  0  0  0  0
 21 20  1  0  0  0  0
 22 21  1  0  0  0  0
 23 22  1  0  0  0  0
  7  4  1  0  0  0  0
 17 14  1  0  0  0  0
M  END
> <IDNUMBER>
F1800-0170

> <Chemical_Name>
N-(4-butylphenyl)-2-(2-methyl-3,5-dioxothiomorpholin-4-yl)acetamide

> <CAS>
868215-91-2

> <PriceCoeff>
1.00

> <MW>
334.43

> <Description>
solid

> <FSP3>
0.47

> <clogP>
4.06

> <TPSA>
91.78

> <Acceptor>
3

> <Donor>
1

> <RotBonds>
6

> <HAC>
23

> <Collection>
General

$$$$
F2384-0077
  -ISIS-  06222321442D

 24 26  0  0  0  0  0  0  0  0999 V2000
   -3.0333    7.5250    0.0000 N   0  0  3  0  0  0  0  0  0  0  0  0
   -3.0375    6.6917    0.0000 C   0  0  0  0  0  0  0  0  0  0  0  0
   -2.3083    7.9250    0.0000 C   0  0  0  0  0  0  0  0  0  0  0  0
   -3.7500    3.8000    0.0000 C   0  0  0  0  0  0  0  0  0  0  0  0
   -2.3208    6.2667    0.0000 C   0  0  0  0  0  0  0  0  0  0  0  0
   -3.0375    4.2125    0.0000 N   0  0  0  0  0  0  0  0  0  0  0  0
   -3.7583    2.9833    0.0000 C   0  0  0  0  0  0  0  0  0  0  0  0
   -3.7583    6.2792    0.0000 C   0  0  0  0  0  0  0  0  0  0  0  0
   -3.0375    5.0292    0.0000 C   0  0  0  0  0  0  0  0  0  0  0  0
   -2.3208    5.4500    0.0000 C   0  0  0  0  0  0  0  0  0  0  0  0
   -4.4708    4.2042    0.0000 O   0  0  0  0  0  0  0  0  0  0  0  0
   -1.5958    7.5042    0.0000 C   0  0  0  0  0  0  0  0  0  0  0  0
   -2.3083    8.7500    0.0000 O   0  0  0  0  0  0  0  0  0  0  0  0
   -1.6083    6.6792    0.0000 C   0  0  0  0  0  0  0  0  0  0  0  0
   -4.4750    2.5625    0.0000 C   0  0  0  0  0  0  0  0  0  0  0  0
   -3.7583    5.4542    0.0000 C   0  0  0  0  0  0  0  0  0  0  0  0
   -3.7458    7.9375    0.0000 C   0  0  0  0  0  0  0  0  0  0  0  0
   -4.4833    1.7375    0.0000 C   0  0  0  0  0  0  0  0  0  0  0  0
   -5.1958    1.3333    0.0000 Cl  0  0  0  0  0  0  0  0  0  0  0  0
   -3.0458    2.5583    0.0000 C   0  0  0  0  0  0  0  0  0  0  0  0
   -3.0458    1.7250    0.0000 C   0  0  0  0  0  0  0  0  0  0  0  0
   -3.7625    1.3208    0.0000 C   0  0  0  0  0  0  0  0  0  0  0  0
   -3.7458    8.7542    0.0000 C   0  0  0  0  0  0  0  0  0  0  0  0
   -4.4583    9.1792    0.0000 C   0  0  0  0  0  0  0  0  0  0  0  0
  2  1  1  0  0  0  0
  3  1  1  0  0  0  0
  4  6  1  0  0  0  0
  5  2  2  0  0  0  0
  6  9  1  0  0  0  0
  7  4  1  0  0  0  0
  8  2  1  0  0  0  0
  9 16  1  0  0  0  0
 10  5  1  0  0  0  0
 11  4  2  0  0  0  0
 12  3  1  0  0  0  0
 13  3  2  0  0  0  0
 14 12  1  0  0  0  0
 15  7  2  0  0  0  0
 16  8  2  0  0  0  0
 17  1  1  0  0  0  0
 18 15  1  0  0  0  0
 19 18  1  0  0  0  0
 20  7  1  0  0  0  0
 21 20  2  0  0  0  0
 22 21  1  0  0  0  0
 23 17  1  0  0  0  0
 24 23  1  0  0  0  0
  5 14  1  0  0  0  0
 10  9  2  0  0  0  0
 22 18  2  0  0  0  0
M  END
> <IDNUMBER>
F2384-0077

> <Chemical_Name>
3-chloro-N-(2-oxo-1-propyl-1,2,3,4-tetrahydroquinolin-6-yl)benzamide

> <CAS>
954660-17-4

> <PriceCoeff>
1.00

> <MW>
342.82

> <Description>
solid

> <FSP3>
0.26

> <clogP>
3.84

> <TPSA>
49.41

> <Acceptor>
2

> <Donor>
1

> <RotBonds>
4

> <HAC>
24

> <Collection>
General

> <Reference_compound>
CHEMBL2286415

> <Similarity>
0.8060

$$$$
F3023-0612
  -ISIS-  06222321152D

 25 27  0  0  0  0  0  0  0  0999 V2000
    5.1125   -5.9667    0.0000 N   0  0  3  0  0  0  0  0  0  0  0  0
    5.5917   -5.2917    0.0000 C   0  0  0  0  0  0  0  0  0  0  0  0
    5.6042   -6.6292    0.0000 C   0  0  0  0  0  0  0  0  0  0  0  0
    6.3875   -6.3667    0.0000 C   0  0  3  0  0  0  0  0  0  0  0  0
    4.2875   -5.9667    0.0000 C   0  0  0  0  0  0  0  0  0  0  0  0
    6.3792   -5.5417    0.0000 C   0  0  0  0  0  0  0  0  0  0  0  0
    7.8042   -6.5167    0.0000 C   0  0  0  0  0  0  0  0  0  0  0  0
    8.4750   -7.0000    0.0000 C   0  0  0  0  0  0  0  0  0  0  0  0
    7.0542   -6.8542    0.0000 S   0  0  0  0  0  0  0  0  0  0  0  0
    3.8750   -5.2542    0.0000 C   0  0  0  0  0  0  0  0  0  0  0  0
    8.3917   -7.8167    0.0000 C   0  0  0  0  0  0  0  0  0  0  0  0
    3.0500   -5.2625    0.0000 C   0  0  0  0  0  0  0  0  0  0  0  0
    7.8875   -5.7000    0.0000 N   0  0  0  0  0  0  0  0  0  0  0  0
    5.3375   -4.5042    0.0000 O   0  0  0  0  0  0  0  0  0  0  0  0
    5.3500   -7.4167    0.0000 O   0  0  0  0  0  0  0  0  0  0  0  0
    3.8792   -6.6875    0.0000 C   0  0  0  0  0  0  0  0  0  0  0  0
    2.6417   -5.9792    0.0000 C   0  0  0  0  0  0  0  0  0  0  0  0
    9.0542   -8.3042    0.0000 O   0  0  0  0  0  0  0  0  0  0  0  0
    3.0625   -6.6917    0.0000 C   0  0  0  0  0  0  0  0  0  0  0  0
    2.6292   -4.5500    0.0000 Cl  0  0  0  0  0  0  0  0  0  0  0  0
    7.6375   -8.1542    0.0000 O   0  0  0  0  0  0  0  0  0  0  0  0
    1.8167   -5.9792    0.0000 Cl  0  0  0  0  0  0  0  0  0  0  0  0
    9.2250   -6.6625    0.0000 C   0  0  0  0  0  0  0  0  0  0  0  0
    8.6292   -5.3542    0.0000 C   0  0  0  0  0  0  0  0  0  0  0  0
    9.3042   -5.8375    0.0000 C   0  0  0  0  0  0  0  0  0  0  0  0
  2  1  1  0  0  0  0
  3  1  1  0  0  0  0
  4  3  1  0  0  0  0
  5  1  1  0  0  0  0
  6  2  1  0  0  0  0
  7  9  1  0  0  0  0
  8  7  2  0  0  0  0
  9  4  1  0  0  0  0
 10  5  2  0  0  0  0
 11  8  1  0  0  0  0
 12 10  1  0  0  0  0
 13  7  1  0  0  0  0
 14  2  2  0  0  0  0
 15  3  2  0  0  0  0
 16  5  1  0  0  0  0
 17 19  1  0  0  0  0
 18 11  2  0  0  0  0
 19 16  2  0  0  0  0
 20 12  1  0  0  0  0
 21 11  1  0  0  0  0
 22 17  1  0  0  0  0
 23  8  1  0  0  0  0
 24 13  2  0  0  0  0
 25 24  1  0  0  0  0
  6  4  1  0  0  0  0
 17 12  2  0  0  0  0
 25 23  2  0  0  0  0
M  END
> <IDNUMBER>
F3023-0612

> <Chemical_Name>
2-{[1-(3,4-dichlorophenyl)-2,5-dioxopyrrolidin-3-yl]sulfanyl}pyridine-3-carboxylic acid

> <CAS>
838882-20-5

> <PriceCoeff>
1.00

> <MW>
397.23

> <Description>
solid

> <FSP3>
0.12

> <clogP>
3.19

> <TPSA>
112.87

> <Acceptor>
5

> <Donor>
1

> <RotBonds>
4

> <HAC>
25

> <Collection>
General

$$$$
F3023-0918
  -ISIS-  06222321152D

 27 30  0  0  0  0  0  0  0  0999 V2000
    3.6250   -5.4042    0.0000 N   0  0  3  0  0  0  0  0  0  0  0  0
    4.0417   -5.9750    0.0000 C   0  0  0  0  0  0  0  0  0  0  0  0
    4.0417   -4.8292    0.0000 C   0  0  0  0  0  0  0  0  0  0  0  0
    4.7167   -5.7542    0.0000 C   0  0  3  0  0  0  0  0  0  0  0  0
    4.7167   -5.0417    0.0000 C   0  0  0  0  0  0  0  0  0  0  0  0
    5.2917   -6.1667    0.0000 N   0  0  3  0  0  0  0  0  0  0  0  0
    6.4375   -7.0000    0.0000 N   0  0  3  0  0  0  0  0  0  0  0  0
    2.9167   -5.4042    0.0000 C   0  0  0  0  0  0  0  0  0  0  0  0
    7.0042   -7.4167    0.0000 C   0  0  0  0  0  0  0  0  0  0  0  0
    3.8292   -6.6500    0.0000 O   0  0  0  0  0  0  0  0  0  0  0  0
    3.8167   -4.1542    0.0000 O   0  0  0  0  0  0  0  0  0  0  0  0
    5.2167   -6.8667    0.0000 C   0  0  0  0  0  0  0  0  0  0  0  0
    5.9375   -5.8750    0.0000 C   0  0  0  0  0  0  0  0  0  0  0  0
    6.5125   -6.2917    0.0000 C   0  0  0  0  0  0  0  0  0  0  0  0
    5.7875   -7.2875    0.0000 C   0  0  0  0  0  0  0  0  0  0  0  0
    7.6500   -7.1250    0.0000 C   0  0  0  0  0  0  0  0  0  0  0  0
    6.9292   -8.1167    0.0000 C   0  0  0  0  0  0  0  0  0  0  0  0
    8.1542   -8.2417    0.0000 C   0  0  0  0  0  0  0  0  0  0  0  0
    2.5667   -6.0250    0.0000 C   0  0  0  0  0  0  0  0  0  0  0  0
    8.2250   -7.5375    0.0000 C   0  0  0  0  0  0  0  0  0  0  0  0
    7.5042   -8.5292    0.0000 C   0  0  0  0  0  0  0  0  0  0  0  0
    8.7292   -8.6542    0.0000 F   0  0  0  0  0  0  0  0  0  0  0  0
    1.8542   -6.0292    0.0000 C   0  0  0  0  0  0  0  0  0  0  0  0
    2.9250   -6.6292    0.0000 C   0  0  0  0  0  0  0  0  0  0  0  0
    2.5792   -7.2417    0.0000 C   0  0  0  0  0  0  0  0  0  0  0  0
    1.5042   -6.6417    0.0000 C   0  0  0  0  0  0  0  0  0  0  0  0
    1.8667   -7.2542    0.0000 C   0  0  0  0  0  0  0  0  0  0  0  0
  2  1  1  0  0  0  0
  3  1  1  0  0  0  0
  4  2  1  0  0  0  0
  5  3  1  0  0  0  0
  6  4  1  0  0  0  0
  7 14  1  0  0  0  0
  8  1  1  0  0  0  0
  9  7  1  0  0  0  0
 10  2  2  0  0  0  0
 11  3  2  0  0  0  0
 12  6  1  0  0  0  0
 13  6  1  0  0  0  0
 14 13  1  0  0  0  0
 15 12  1  0  0  0  0
 16  9  1  0  0  0  0
 17  9  2  0  0  0  0
 18 21  2  0  0  0  0
 19  8  1  0  0  0  0
 20 16  2  0  0  0  0
 21 17  1  0  0  0  0
 22 18  1  0  0  0  0
 23 19  2  0  0  0  0
 24 19  1  0  0  0  0
 25 24  2  0  0  0  0
 26 23  1  0  0  0  0
 27 25  1  0  0  0  0
  5  4  1  0  0  0  0
 27 26  2  0  0  0  0
  7 15  1  0  0  0  0
 18 20  1  0  0  0  0
M  END
> <IDNUMBER>
F3023-0918

> <Chemical_Name>
1-benzyl-3-[4-(4-fluorophenyl)piperazin-1-yl]pyrrolidine-2,5-dione

> <CAS>
857494-26-9

> <PriceCoeff>
1.00

> <MW>
367.42

> <Description>
solid

> <FSP3>
0.33

> <clogP>
4.20

> <TPSA>
43.86

> <Acceptor>
3

> <Donor>
2

> <RotBonds>
4

> <HAC>
27

> <Collection>
General

$$$$
F3139-0996
  -ISIS-  06222321152D

 28 31  0  0  0  0  0  0  0  0999 V2000
    3.1042   -1.4250    0.0000 C   0  0  0  0  0  0  0  0  0  0  0  0
    1.6750   -1.4250    0.0000 C   0  0  0  0  0  0  0  0  0  0  0  0
    2.3792   -1.8375    0.0000 C   0  0  0  0  0  0  0  0  0  0  0  0
    3.1042   -0.6000    0.0000 C   0  0  0  0  0  0  0  0  0  0  0  0
    1.6750   -0.6000    0.0000 C   0  0  0  0  0  0  0  0  0  0  0  0
    3.8167   -1.8375    0.0000 C   0  0  0  0  0  0  0  0  0  0  0  0
    2.3792   -0.1875    0.0000 O   0  0  0  0  0  0  0  0  0  0  0  0
    0.9625   -1.8375    0.0000 C   0  0  0  0  0  0  0  0  0  0  0  0
    0.9625   -0.1875    0.0000 C   0  0  0  0  0  0  0  0  0  0  0  0
    0.2417   -0.6000    0.0000 C   0  0  0  0  0  0  0  0  0  0  0  0
    5.2500   -1.8375    0.0000 C   0  0  0  0  0  0  0  0  0  0  0  0
    0.2417   -1.4250    0.0000 C   0  0  0  0  0  0  0  0  0  0  0  0
    4.5375   -1.4250    0.0000 C   0  0  0  0  0  0  0  0  0  0  0  0
    5.2417   -2.6625    0.0000 C   0  0  0  0  0  0  0  0  0  0  0  0
   -1.9083   -0.1750    0.0000 C   0  0  0  0  0  0  0  0  0  0  0  0
    2.3792   -2.6625    0.0000 O   0  0  0  0  0  0  0  0  0  0  0  0
   -0.4750   -0.1875    0.0000 O   0  0  0  0  0  0  0  0  0  0  0  0
    5.9667   -1.4250    0.0000 O   0  0  0  0  0  0  0  0  0  0  0  0
    3.8167   -2.6667    0.0000 C   0  0  0  0  0  0  0  0  0  0  0  0
    5.9542   -3.0792    0.0000 O   0  0  0  0  0  0  0  0  0  0  0  0
   -1.9083    0.6500    0.0000 O   0  0  0  0  0  0  0  0  0  0  0  0
    4.5292   -3.0792    0.0000 C   0  0  0  0  0  0  0  0  0  0  0  0
   -1.1958   -0.5917    0.0000 C   0  0  0  0  0  0  0  0  0  0  0  0
   -2.6208   -0.5792    0.0000 N   0  0  0  0  0  0  0  0  0  0  0  0
   -0.4708   -1.8375    0.0000 C   0  0  0  0  0  0  0  0  0  0  0  0
    6.6792   -1.8417    0.0000 C   0  0  0  0  0  0  0  0  0  0  0  0
    6.6792   -2.6667    0.0000 C   0  0  0  0  0  0  0  0  0  0  0  0
   -0.4750   -2.6625    0.0000 C   0  0  0  0  0  0  0  0  0  0  0  0
  2  3  1  0  0  0  0
  3  1  1  0  0  0  0
  4  1  2  0  0  0  0
  5  7  1  0  0  0  0
  6  1  1  0  0  0  0
  7  4  1  0  0  0  0
  8  2  2  0  0  0  0
  9  5  2  0  0  0  0
 10  9  1  0  0  0  0
 11 13  2  0  0  0  0
 12  8  1  0  0  0  0
 13  6  1  0  0  0  0
 14 22  2  0  0  0  0
 15 23  1  0  0  0  0
 16  3  2  0  0  0  0
 17 10  1  0  0  0  0
 18 11  1  0  0  0  0
 19  6  2  0  0  0  0
 20 14  1  0  0  0  0
 21 15  2  0  0  0  0
 22 19  1  0  0  0  0
 23 17  1  0  0  0  0
 24 15  1  0  0  0  0
 25 12  1  0  0  0  0
 26 18  1  0  0  0  0
 27 20  1  0  0  0  0
 28 25  1  0  0  0  0
  5  2  1  0  0  0  0
 11 14  1  0  0  0  0
 10 12  2  0  0  0  0
 27 26  1  0  0  0  0
M  END
> <IDNUMBER>
F3139-0996

> <Chemical_Name>
2-{[3-(2,3-dihydro-1,4-benzodioxin-6-yl)-6-ethyl-4-oxo-4H-chromen-7-yl]oxy}acetamide

> <CAS>
610764-40-4

> <PriceCoeff>
1.00

> <MW>
381.38

> <Description>
solid

> <FSP3>
0.24

> <clogP>
2.54

> <TPSA>
97.08

> <Acceptor>
6

> <Donor>
1

> <RotBonds>
5

> <HAC>
28

> <Collection>
General

> <Reference_compound>
CHEMBL455048

> <Similarity>
0.8020

$$$$
F3385-4418
  -ISIS-  06222321152D

 24 26  0  0  0  0  0  0  0  0999 V2000
    2.8042   -0.0625    0.0000 C   0  0  0  0  0  0  0  0  0  0  0  0
    1.3750   -0.0625    0.0000 C   0  0  0  0  0  0  0  0  0  0  0  0
    2.0875    0.3500    0.0000 C   0  0  0  0  0  0  0  0  0  0  0  0
    3.5167    0.3583    0.0000 C   0  0  0  0  0  0  0  0  0  0  0  0
    2.8000   -0.8917    0.0000 C   0  0  0  0  0  0  0  0  0  0  0  0
    4.2417   -0.0625    0.0000 C   0  0  0  0  0  0  0  0  0  0  0  0
    4.2417   -0.8917    0.0000 C   0  0  0  0  0  0  0  0  0  0  0  0
    3.5167   -1.3042    0.0000 O   0  0  0  0  0  0  0  0  0  0  0  0
    1.3750   -0.8917    0.0000 C   0  0  0  0  0  0  0  0  0  0  0  0
    2.0875   -1.3042    0.0000 C   0  0  0  0  0  0  0  0  0  0  0  0
    0.6625    0.3458    0.0000 C   0  0  0  0  0  0  0  0  0  0  0  0
    3.5167    1.1833    0.0000 O   0  0  0  0  0  0  0  0  0  0  0  0
    4.9500   -1.3125    0.0000 C   0  0  0  0  0  0  0  0  0  0  0  0
    2.0792    1.1750    0.0000 O   0  0  0  0  0  0  0  0  0  0  0  0
   -0.0583   -0.0667    0.0000 N   0  0  3  0  0  0  0  0  0  0  0  0
    0.6625   -1.3000    0.0000 O   0  0  0  0  0  0  0  0  0  0  0  0
    5.6625   -0.9000    0.0000 C   0  0  0  0  0  0  0  0  0  0  0  0
    4.9417   -2.1375    0.0000 C   0  0  0  0  0  0  0  0  0  0  0  0
   -0.7708    0.3458    0.0000 C   0  0  0  0  0  0  0  0  0  0  0  0
   -0.0583   -0.8917    0.0000 C   0  0  0  0  0  0  0  0  0  0  0  0
    0.6625   -2.1250    0.0000 C   0  0  0  0  0  0  0  0  0  0  0  0
    6.3750   -1.3125    0.0000 C   0  0  0  0  0  0  0  0  0  0  0  0
    5.6542   -2.5500    0.0000 C   0  0  0  0  0  0  0  0  0  0  0  0
    6.3750   -2.1417    0.0000 C   0  0  0  0  0  0  0  0  0  0  0  0
  2  3  1  0  0  0  0
  3  1  2  0  0  0  0
  4  1  1  0  0  0  0
  5  1  1  0  0  0  0
  6  4  1  0  0  0  0
  7  8  1  0  0  0  0
  8  5  1  0  0  0  0
  9 10  1  0  0  0  0
 10  5  2  0  0  0  0
 11  2  1  0  0  0  0
 12  4  2  0  0  0  0
 13  7  1  0  0  0  0
 14  3  1  0  0  0  0
 15 11  1  0  0  0  0
 16  9  1  0  0  0  0
 17 13  1  0  0  0  0
 18 13  2  0  0  0  0
 19 15  1  0  0  0  0
 20 15  1  0  0  0  0
 21 16  1  0  0  0  0
 22 17  2  0  0  0  0
 23 18  1  0  0  0  0
 24 23  2  0  0  0  0
  9  2  2  0  0  0  0
  6  7  2  0  0  0  0
 24 22  1  0  0  0  0
M  END
> <IDNUMBER>
F3385-4418

> <Chemical_Name>
6-[(dimethylamino)methyl]-5-hydroxy-7-methoxy-2-phenyl-4H-chromen-4-one

> <CAS>
924807-49-8

> <PriceCoeff>
1.00

> <MW>
325.36

> <Description>
solid

> <FSP3>
0.21

> <clogP>
3.93

> <TPSA>
59.00

> <Acceptor>
4

> <Donor>
2

> <RotBonds>
4

> <HAC>
24

> <Collection>
General

> <Reference_compound>
CHEMBL134291

> <Similarity>
0.8220

$$$$
F2212-0015
  -ISIS-  06222321442D

 22 24  0  0  0  0  0  0  0  0999 V2000
    6.3917   -8.2250    0.0000 C   0  0  0  0  0  0  0  0  0  0  0  0
    6.3917   -7.4000    0.0000 C   0  0  0  0  0  0  0  0  0  0  0  0
    4.9667   -8.2292    0.0000 C   0  0  0  0  0  0  0  0  0  0  0  0
    5.6792   -8.6417    0.0000 O   0  0  0  0  0  0  0  0  0  0  0  0
    5.6750   -6.9917    0.0000 C   0  0  0  0  0  0  0  0  0  0  0  0
    4.9625   -7.4042    0.0000 C   0  0  0  0  0  0  0  0  0  0  0  0
    4.2542   -8.6417    0.0000 C   0  0  0  0  0  0  0  0  0  0  0  0
    4.2542   -6.9917    0.0000 C   0  0  0  0  0  0  0  0  0  0  0  0
    7.1042   -8.6375    0.0000 C   0  0  0  0  0  0  0  0  0  0  0  0
    2.1042   -8.2292    0.0000 C   0  0  0  0  0  0  0  0  0  0  0  0
    2.8167   -8.6417    0.0000 N   0  0  0  0  0  0  0  0  0  0  0  0
    3.5375   -8.2292    0.0000 C   0  0  0  0  0  0  0  0  0  0  0  0
    5.6667   -6.1667    0.0000 O   0  0  0  0  0  0  0  0  0  0  0  0
    2.1042   -7.4042    0.0000 O   0  0  0  0  0  0  0  0  0  0  0  0
    7.8167   -8.2167    0.0000 C   0  0  0  0  0  0  0  0  0  0  0  0
    7.1042   -9.4542    0.0000 C   0  0  0  0  0  0  0  0  0  0  0  0
    3.5375   -7.4000    0.0000 C   0  0  0  0  0  0  0  0  0  0  0  0
    7.8167   -9.8667    0.0000 C   0  0  0  0  0  0  0  0  0  0  0  0
    8.5375   -8.6292    0.0000 C   0  0  0  0  0  0  0  0  0  0  0  0
    8.5375   -9.4542    0.0000 C   0  0  0  0  0  0  0  0  0  0  0  0
    1.3917   -8.6417    0.0000 C   0  0  0  0  0  0  0  0  0  0  0  0
    9.2542   -9.8667    0.0000 C   0  0  0  0  0  0  0  0  0  0  0  0
  2  1  2  0  0  0  0
  3  4  1  0  0  0  0
  4  1  1  0  0  0  0
  5  2  1  0  0  0  0
  6  3  1  0  0  0  0
  7  3  2  0  0  0  0
  8  6  2  0  0  0  0
  9  1  1  0  0  0  0
 10 11  1  0  0  0  0
 11 12  1  0  0  0  0
 12  7  1  0  0  0  0
 13  5  2  0  0  0  0
 14 10  2  0  0  0  0
 15  9  2  0  0  0  0
 16  9  1  0  0  0  0
 17 12  2  0  0  0  0
 18 16  2  0  0  0  0
 19 15  1  0  0  0  0
 20 18  1  0  0  0  0
 21 10  1  0  0  0  0
 22 20  1  0  0  0  0
  5  6  1  0  0  0  0
 19 20  2  0  0  0  0
 17  8  1  0  0  0  0
M  END
> <IDNUMBER>
F2212-0015

> <Chemical_Name>
N-[2-(4-methylphenyl)-4-oxo-4H-chromen-7-yl]acetamide

> <CAS>
923673-80-7

> <PriceCoeff>
1.00

> <MW>
293.32

> <Description>
solid

> <FSP3>
0.11

> <clogP>
3.34

> <TPSA>
55.40

> <Acceptor>
3

> <Donor>
1

> <RotBonds>
2

> <HAC>
22

> <Collection>
General

> <Reference_compound>
CHEMBL275638

> <Similarity>
0.8070

$$$$
F2992-0058
  -ISIS-  06222321462D

 30 34  0  0  0  0  0  0  0  0999 V2000
   -2.1583    1.9083    0.0000 C   0  0  0  0  0  0  0  0  0  0  0  0
   -1.4958    1.4208    0.0000 C   0  0  0  0  0  0  0  0  0  0  0  0
   -0.7000    1.6833    0.0000 C   0  0  0  0  0  0  0  0  0  0  0  0
    2.7542    4.1375    0.0000 N   0  0  3  0  0  0  0  0  0  0  0  0
   -2.1583    2.7333    0.0000 N   0  0  0  0  0  0  0  0  0  0  0  0
   -2.9458    1.6500    0.0000 S   0  0  0  0  0  0  0  0  0  0  0  0
   -0.4458    2.4625    0.0000 N   0  0  0  0  0  0  0  0  0  0  0  0
    1.9375    4.1042    0.0000 C   0  0  0  0  0  0  0  0  0  0  0  0
    0.3625    2.6333    0.0000 C   0  0  0  0  0  0  0  0  0  0  0  0
    3.2417    4.7917    0.0000 C   0  0  0  0  0  0  0  0  0  0  0  0
    3.2292    3.4833    0.0000 C   0  0  0  0  0  0  0  0  0  0  0  0
   -0.2208    1.0083    0.0000 S   0  0  0  0  0  0  0  0  0  0  0  0
   -2.9375    2.9875    0.0000 C   0  0  0  0  0  0  0  0  0  0  0  0
   -3.4250    2.3208    0.0000 C   0  0  0  0  0  0  0  0  0  0  0  0
    1.5542    3.3958    0.0000 C   0  0  0  0  0  0  0  0  0  0  0  0
    0.7417    3.3583    0.0000 C   0  0  0  0  0  0  0  0  0  0  0  0
   -1.4958    0.5958    0.0000 C   0  0  0  0  0  0  0  0  0  0  0  0
   -0.7083    0.3458    0.0000 C   0  0  0  0  0  0  0  0  0  0  0  0
    0.6042    2.0458    0.0000 O   0  0  0  0  0  0  0  0  0  0  0  0
    4.0167    4.5417    0.0000 C   0  0  0  0  0  0  0  0  0  0  0  0
    4.0250    3.7458    0.0000 C   0  0  0  0  0  0  0  0  0  0  0  0
    3.0000    5.5792    0.0000 O   0  0  0  0  0  0  0  0  0  0  0  0
    2.9792    2.7083    0.0000 O   0  0  0  0  0  0  0  0  0  0  0  0
    1.5042    4.7917    0.0000 C   0  0  0  0  0  0  0  0  0  0  0  0
    0.3000    4.0417    0.0000 C   0  0  0  0  0  0  0  0  0  0  0  0
    0.6792    4.7750    0.0000 C   0  0  0  0  0  0  0  0  0  0  0  0
   -3.2708    3.7458    0.0000 C   0  0  0  0  0  0  0  0  0  0  0  0
   -4.2458    2.4083    0.0000 C   0  0  0  0  0  0  0  0  0  0  0  0
   -4.5833    3.1583    0.0000 C   0  0  0  0  0  0  0  0  0  0  0  0
   -4.0958    3.8333    0.0000 C   0  0  0  0  0  0  0  0  0  0  0  0
  2  1  1  0  0  0  0
  3  2  2  0  0  0  0
  4  8  1  0  0  0  0
  5  1  2  0  0  0  0
  6  1  1  0  0  0  0
  7  3  1  0  0  0  0
  8 15  1  0  0  0  0
  9  7  1  0  0  0  0
 10  4  1  0  0  0  0
 11  4  1  0  0  0  0
 12  3  1  0  0  0  0
 13  5  1  0  0  0  0
 14  6  1  0  0  0  0
 15 16  2  0  0  0  0
 16  9  1  0  0  0  0
 17  2  1  0  0  0  0
 18 17  2  0  0  0  0
 19  9  2  0  0  0  0
 20 10  1  0  0  0  0
 21 11  1  0  0  0  0
 22 10  2  0  0  0  0
 23 11  2  0  0  0  0
 24 26  1  0  0  0  0
 25 16  1  0  0  0  0
 26 25  2  0  0  0  0
 27 13  1  0  0  0  0
 28 14  1  0  0  0  0
 29 28  2  0  0  0  0
 30 27  2  0  0  0  0
 14 13  2  0  0  0  0
 18 12  1  0  0  0  0
 30 29  1  0  0  0  0
 24  8  2  0  0  0  0
 20 21  1  0  0  0  0
M  END
> <IDNUMBER>
F2992-0058

> <Chemical_Name>
N-[3-(1,3-benzothiazol-2-yl)thiophen-2-yl]-3-(2,5-dioxopyrrolidin-1-yl)benzamide

> <CAS>
923441-82-1

> <PriceCoeff>
1.00

> <MW>
433.50

> <Description>
solid

> <FSP3>
0.09

> <clogP>
1.72

> <TPSA>
135.85

> <Acceptor>
4

> <Donor>
1

> <RotBonds>
4

> <HAC>
30

> <Collection>
General

$$$$
F3139-0714
  -ISIS-  06222321462D

 23 25  0  0  0  0  0  0  0  0999 V2000
    1.2667   -5.2125    0.0000 C   0  0  0  0  0  0  0  0  0  0  0  0
    0.5542   -4.8000    0.0000 C   0  0  0  0  0  0  0  0  0  0  0  0
    1.9792   -4.8000    0.0000 C   0  0  0  0  0  0  0  0  0  0  0  0
    0.5542   -3.9750    0.0000 C   0  0  0  0  0  0  0  0  0  0  0  0
   -0.1583   -5.2125    0.0000 C   0  0  0  0  0  0  0  0  0  0  0  0
    1.9792   -3.9750    0.0000 C   0  0  0  0  0  0  0  0  0  0  0  0
    1.2667   -3.5625    0.0000 O   0  0  0  0  0  0  0  0  0  0  0  0
   -0.1583   -3.5625    0.0000 C   0  0  0  0  0  0  0  0  0  0  0  0
   -0.8750   -4.8000    0.0000 C   0  0  0  0  0  0  0  0  0  0  0  0
   -0.8750   -3.9750    0.0000 C   0  0  0  0  0  0  0  0  0  0  0  0
    2.6917   -5.2125    0.0000 C   0  0  0  0  0  0  0  0  0  0  0  0
    1.2667   -6.0375    0.0000 O   0  0  0  0  0  0  0  0  0  0  0  0
   -1.5958   -3.5625    0.0000 O   0  0  0  0  0  0  0  0  0  0  0  0
    3.4167   -4.8000    0.0000 C   0  0  0  0  0  0  0  0  0  0  0  0
    2.6917   -6.0417    0.0000 C   0  0  0  0  0  0  0  0  0  0  0  0
   -0.1583   -6.0375    0.0000 O   0  0  0  0  0  0  0  0  0  0  0  0
    4.1292   -6.0417    0.0000 C   0  0  0  0  0  0  0  0  0  0  0  0
    4.1292   -5.2125    0.0000 C   0  0  0  0  0  0  0  0  0  0  0  0
    3.4042   -6.4542    0.0000 C   0  0  0  0  0  0  0  0  0  0  0  0
    4.8417   -6.4542    0.0000 O   0  0  0  0  0  0  0  0  0  0  0  0
   -2.3125   -3.9667    0.0000 C   0  0  3  0  0  0  0  0  0  0  0  0
   -3.0250   -3.5500    0.0000 C   0  0  0  0  0  0  0  0  0  0  0  0
   -2.3208   -4.7917    0.0000 C   0  0  0  0  0  0  0  0  0  0  0  0
  2  1  1  0  0  0  0
  3  1  1  0  0  0  0
  4  2  1  0  0  0  0
  5  2  2  0  0  0  0
  6  3  2  0  0  0  0
  7  6  1  0  0  0  0
  8  4  2  0  0  0  0
  9  5  1  0  0  0  0
 10  9  2  0  0  0  0
 11  3  1  0  0  0  0
 12  1  2  0  0  0  0
 13 10  1  0  0  0  0
 14 11  1  0  0  0  0
 15 11  2  0  0  0  0
 16  5  1  0  0  0  0
 17 19  2  0  0  0  0
 18 14  2  0  0  0  0
 19 15  1  0  0  0  0
 20 17  1  0  0  0  0
 21 13  1  0  0  0  0
 22 21  1  0  0  0  0
 23 21  1  0  0  0  0
  7  4  1  0  0  0  0
 17 18  1  0  0  0  0
 10  8  1  0  0  0  0
M  END
> <IDNUMBER>
F3139-0714

> <Chemical_Name>
5-hydroxy-3-(4-hydroxyphenyl)-7-(propan-2-yloxy)-4H-chromen-4-one

> <CAS>
637747-93-4

> <PriceCoeff>
1.00

> <MW>
312.32

> <Description>
solid

> <FSP3>
0.17

> <clogP>
3.83

> <TPSA>
75.99

> <Acceptor>
5

> <Donor>
2

> <RotBonds>
3

> <HAC>
23

> <Collection>
General

> <Reference_compound>
CHEMBL44

> <Similarity>
0.9320

$$$$
F0196-0676
  -ISIS-  06222321142D

 21 23  0  0  0  0  0  0  0  0999 V2000
    0.4167    1.6708    0.0000 C   0  0  0  0  0  0  0  0  0  0  0  0
   -0.1000    1.3708    0.0000 C   0  0  0  0  0  0  0  0  0  0  0  0
   -0.6208    1.6708    0.0000 C   0  0  0  0  0  0  0  0  0  0  0  0
    0.4167    2.2958    0.0000 C   0  0  0  0  0  0  0  0  0  0  0  0
   -0.6208    2.2958    0.0000 C   0  0  0  0  0  0  0  0  0  0  0  0
   -0.1000    2.5958    0.0000 O   0  0  0  0  0  0  0  0  0  0  0  0
   -1.1458    2.5958    0.0000 C   0  0  0  0  0  0  0  0  0  0  0  0
   -1.1458    1.3708    0.0000 C   0  0  0  0  0  0  0  0  0  0  0  0
   -2.7125    2.3208    0.0000 C   0  0  0  0  0  0  0  0  0  0  0  0
    0.9375    1.3708    0.0000 C   0  0  0  0  0  0  0  0  0  0  0  0
   -0.1000    0.7708    0.0000 O   0  0  0  0  0  0  0  0  0  0  0  0
   -1.6625    2.2958    0.0000 C   0  0  0  0  0  0  0  0  0  0  0  0
   -2.1833    2.6125    0.0000 O   0  0  0  0  0  0  0  0  0  0  0  0
   -3.2458    2.6000    0.0000 O   0  0  0  0  0  0  0  0  0  0  0  0
   -1.6625    1.6708    0.0000 C   0  0  0  0  0  0  0  0  0  0  0  0
   -2.7500    1.7208    0.0000 C   0  0  0  0  0  0  0  0  0  0  0  0
    0.9375    0.7708    0.0000 C   0  0  0  0  0  0  0  0  0  0  0  0
    1.4542    1.6708    0.0000 C   0  0  0  0  0  0  0  0  0  0  0  0
    1.9792    1.3708    0.0000 C   0  0  0  0  0  0  0  0  0  0  0  0
    1.4542    0.4708    0.0000 C   0  0  0  0  0  0  0  0  0  0  0  0
    1.9792    0.7708    0.0000 C   0  0  0  0  0  0  0  0  0  0  0  0
  2  1  1  0  0  0  0
  3  2  1  0  0  0  0
  4  1  2  0  0  0  0
  5  6  1  0  0  0  0
  6  4  1  0  0  0  0
  7  5  1  0  0  0  0
  8  3  1  0  0  0  0
  9 13  1  0  0  0  0
 10  1  1  0  0  0  0
 11  2  2  0  0  0  0
 12  7  2  0  0  0  0
 13 12  1  0  0  0  0
 14  9  2  0  0  0  0
 15  8  2  0  0  0  0
 16  9  1  0  0  0  0
 17 10  1  0  0  0  0
 18 10  2  0  0  0  0
 19 18  1  0  0  0  0
 20 17  2  0  0  0  0
 21 19  2  0  0  0  0
  5  3  2  0  0  0  0
 20 21  1  0  0  0  0
 12 15  1  0  0  0  0
M  END
> <IDNUMBER>
F0196-0676

> <Chemical_Name>
4-oxo-3-phenyl-4H-chromen-7-yl acetate

> <CAS>
13020-22-9

> <PriceCoeff>
1.00

> <MW>
280.27

> <Description>
solid

> <FSP3>
0.06

> <clogP>
2.52

> <TPSA>
52.60

> <Acceptor>
4

> <Donor>
0

> <RotBonds>
3

> <HAC>
21

> <Collection>
General

> <Reference_compound>
CHEMBL44

> <Similarity>
0.8900

$$$$
F1065-0413
  -ISIS-  06222321142D

 28 31  0  0  0  0  0  0  0  0999 V2000
   -1.4708   -0.0000    0.0000 N   0  0  3  0  0  0  0  0  0  0  0  0
   -1.0125    0.7000    0.0000 C   0  0  0  0  0  0  0  0  0  0  0  0
   -0.9500   -0.6667    0.0000 C   0  0  0  0  0  0  0  0  0  0  0  0
   -0.1708   -0.3667    0.0000 C   0  0  3  0  0  0  0  0  0  0  0  0
   -0.2125    0.4833    0.0000 C   0  0  0  0  0  0  0  0  0  0  0  0
    3.6500    0.2833    0.0000 N   0  0  3  0  0  0  0  0  0  0  0  0
    0.4792   -0.9042    0.0000 N   0  0  0  0  0  0  0  0  0  0  0  0
   -2.3125    0.0208    0.0000 C   0  0  0  0  0  0  0  0  0  0  0  0
   -1.3333    1.5000    0.0000 O   0  0  0  0  0  0  0  0  0  0  0  0
    2.8667   -0.0000    0.0000 C   0  0  0  0  0  0  0  0  0  0  0  0
   -1.1708   -1.5000    0.0000 O   0  0  0  0  0  0  0  0  0  0  0  0
   -2.7208   -0.7292    0.0000 C   0  0  0  0  0  0  0  0  0  0  0  0
   -2.7208    0.7458    0.0000 C   0  0  0  0  0  0  0  0  0  0  0  0
    2.2500    0.5458    0.0000 C   0  0  0  0  0  0  0  0  0  0  0  0
    2.7292   -0.8500    0.0000 C   0  0  0  0  0  0  0  0  0  0  0  0
    1.3000   -0.6042    0.0000 C   0  0  0  0  0  0  0  0  0  0  0  0
   -3.9833    0.0208    0.0000 C   0  0  0  0  0  0  0  0  0  0  0  0
    1.4542    0.2458    0.0000 C   0  0  0  0  0  0  0  0  0  0  0  0
    1.9500   -1.1500    0.0000 C   0  0  0  0  0  0  0  0  0  0  0  0
   -3.5625    0.7458    0.0000 C   0  0  0  0  0  0  0  0  0  0  0  0
   -3.5833   -0.7292    0.0000 C   0  0  0  0  0  0  0  0  0  0  0  0
    4.3042   -0.2500    0.0000 C   0  0  0  0  0  0  0  0  0  0  0  0
    3.8000    1.1208    0.0000 C   0  0  0  0  0  0  0  0  0  0  0  0
   -4.8458    0.0208    0.0000 O   0  0  0  0  0  0  0  0  0  0  0  0
   -5.2708    0.7458    0.0000 C   0  0  0  0  0  0  0  0  0  0  0  0
    5.1000    0.0458    0.0000 C   0  0  0  0  0  0  0  0  0  0  0  0
    4.5667    1.4000    0.0000 C   0  0  0  0  0  0  0  0  0  0  0  0
    5.2292    0.8833    0.0000 C   0  0  0  0  0  0  0  0  0  0  0  0
  2  1  1  0  0  0  0
  3  1  1  0  0  0  0
  4  3  1  0  0  0  0
  5  2  1  0  0  0  0
  6 10  1  0  0  0  0
  7  4  1  0  0  0  0
  8  1  1  0  0  0  0
  9  2  2  0  0  0  0
 10 15  2  0  0  0  0
 11  3  2  0  0  0  0
 12  8  1  0  0  0  0
 13  8  2  0  0  0  0
 14 18  2  0  0  0  0
 15 19  1  0  0  0  0
 16  7  1  0  0  0  0
 17 20  2  0  0  0  0
 18 16  1  0  0  0  0
 19 16  2  0  0  0  0
 20 13  1  0  0  0  0
 21 12  2  0  0  0  0
 22  6  1  0  0  0  0
 23  6  1  0  0  0  0
 24 17  1  0  0  0  0
 25 24  1  0  0  0  0
 26 22  1  0  0  0  0
 27 23  1  0  0  0  0
 28 27  1  0  0  0  0
  4  5  1  0  0  0  0
 21 17  1  0  0  0  0
 14 10  1  0  0  0  0
 26 28  1  0  0  0  0
M  END
> <IDNUMBER>
F1065-0413

> <Chemical_Name>
1-(4-methoxyphenyl)-3-{[4-(piperidin-1-yl)phenyl]amino}pyrrolidine-2,5-dione

> <CAS>
309924-01-4

> <PriceCoeff>
1.00

> <MW>
379.45

> <Description>
solid

> <FSP3>
0.36

> <clogP>
3.41

> <TPSA>
61.88

> <Acceptor>
5

> <Donor>
2

> <RotBonds>
5

> <HAC>
28

> <Collection>
General

$$$$
F3385-3754
  -ISIS-  06222321152D

 26 28  0  0  0  0  0  0  0  0999 V2000
    6.5292   -6.6292    0.0000 C   0  0  0  0  0  0  0  0  0  0  0  0
    5.0917   -5.7917    0.0000 C   0  0  0  0  0  0  0  0  0  0  0  0
    5.0875   -6.6292    0.0000 C   0  0  0  0  0  0  0  0  0  0  0  0
    5.8042   -7.0417    0.0000 C   0  0  0  0  0  0  0  0  0  0  0  0
    4.3750   -5.3792    0.0000 C   0  0  0  0  0  0  0  0  0  0  0  0
    5.8042   -5.3792    0.0000 O   0  0  0  0  0  0  0  0  0  0  0  0
    6.5292   -5.7917    0.0000 C   0  0  0  0  0  0  0  0  0  0  0  0
    4.3750   -7.0375    0.0000 C   0  0  0  0  0  0  0  0  0  0  0  0
    7.2375   -7.0417    0.0000 C   0  0  0  0  0  0  0  0  0  0  0  0
    3.6625   -5.8000    0.0000 C   0  0  0  0  0  0  0  0  0  0  0  0
    4.3667   -4.5542    0.0000 C   0  0  0  0  0  0  0  0  0  0  0  0
    5.8042   -7.8667    0.0000 O   0  0  0  0  0  0  0  0  0  0  0  0
    3.6625   -6.6250    0.0000 C   0  0  0  0  0  0  0  0  0  0  0  0
    7.2292   -7.8667    0.0000 C   0  0  0  0  0  0  0  0  0  0  0  0
    7.9500   -6.6292    0.0000 C   0  0  0  0  0  0  0  0  0  0  0  0
    5.0875   -4.1417    0.0000 N   0  0  3  0  0  0  0  0  0  0  0  0
    8.6625   -7.8750    0.0000 C   0  0  0  0  0  0  0  0  0  0  0  0
    8.6625   -7.0417    0.0000 C   0  0  0  0  0  0  0  0  0  0  0  0
    7.9417   -8.2792    0.0000 C   0  0  0  0  0  0  0  0  0  0  0  0
    2.9500   -5.3875    0.0000 O   0  0  0  0  0  0  0  0  0  0  0  0
    9.3750   -8.2875    0.0000 O   0  0  0  0  0  0  0  0  0  0  0  0
    5.0792   -3.3167    0.0000 C   0  0  0  0  0  0  0  0  0  0  0  0
    5.8000   -4.5542    0.0000 C   0  0  0  0  0  0  0  0  0  0  0  0
   10.0917   -7.8750    0.0000 C   0  0  0  0  0  0  0  0  0  0  0  0
    6.5125   -4.1417    0.0000 C   0  0  0  0  0  0  0  0  0  0  0  0
    4.3625   -2.9125    0.0000 C   0  0  0  0  0  0  0  0  0  0  0  0
  2  6  1  0  0  0  0
  3  4  1  0  0  0  0
  4  1  1  0  0  0  0
  5  2  2  0  0  0  0
  6  7  1  0  0  0  0
  7  1  2  0  0  0  0
  8  3  2  0  0  0  0
  9  1  1  0  0  0  0
 10  5  1  0  0  0  0
 11  5  1  0  0  0  0
 12  4  2  0  0  0  0
 13  8  1  0  0  0  0
 14  9  2  0  0  0  0
 15  9  1  0  0  0  0
 16 11  1  0  0  0  0
 17 18  1  0  0  0  0
 18 15  2  0  0  0  0
 19 14  1  0  0  0  0
 20 10  1  0  0  0  0
 21 17  1  0  0  0  0
 22 16  1  0  0  0  0
 23 16  1  0  0  0  0
 24 21  1  0  0  0  0
 25 23  1  0  0  0  0
 26 22  1  0  0  0  0
  3  2  1  0  0  0  0
 17 19  2  0  0  0  0
 13 10  2  0  0  0  0
M  END
> <IDNUMBER>
F3385-3754

> <Chemical_Name>
8-[(diethylamino)methyl]-7-hydroxy-3-(4-methoxyphenyl)-4H-chromen-4-one

> <CAS>
858768-31-7

> <PriceCoeff>
1.00

> <MW>
353.41

> <Description>
solid

> <FSP3>
0.29

> <clogP>
3.49

> <TPSA>
59.00

> <Acceptor>
4

> <Donor>
2

> <RotBonds>
6

> <HAC>
26

> <Collection>
General

> <Reference_compound>
CHEMBL44

> <Similarity>
0.8280

$$$$
F3139-0913
  -ISIS-  06222321442D

 20 22  0  0  0  0  0  0  0  0999 V2000
    3.8375   -2.3125    0.0000 C   0  0  0  0  0  0  0  0  0  0  0  0
    4.5500   -2.7250    0.0000 C   0  0  0  0  0  0  0  0  0  0  0  0
    4.5500   -1.0750    0.0000 O   0  0  0  0  0  0  0  0  0  0  0  0
    3.8375   -1.4875    0.0000 C   0  0  0  0  0  0  0  0  0  0  0  0
    5.2667   -1.4875    0.0000 C   0  0  3  0  0  0  0  0  0  0  0  0
    5.2667   -2.3125    0.0000 C   0  0  0  0  0  0  0  0  0  0  0  0
    5.9792   -1.0750    0.0000 C   0  0  0  0  0  0  0  0  0  0  0  0
    3.1250   -2.7250    0.0000 C   0  0  0  0  0  0  0  0  0  0  0  0
    4.5500   -3.5500    0.0000 O   0  0  0  0  0  0  0  0  0  0  0  0
    3.1250   -1.0750    0.0000 C   0  0  0  0  0  0  0  0  0  0  0  0
    6.6917   -1.4917    0.0000 C   0  0  0  0  0  0  0  0  0  0  0  0
    5.9750   -0.2542    0.0000 C   0  0  0  0  0  0  0  0  0  0  0  0
    2.4042   -2.3125    0.0000 C   0  0  0  0  0  0  0  0  0  0  0  0
    2.4042   -1.4875    0.0000 C   0  0  0  0  0  0  0  0  0  0  0  0
    6.6875    0.1583    0.0000 C   0  0  0  0  0  0  0  0  0  0  0  0
    7.4042   -1.0792    0.0000 C   0  0  0  0  0  0  0  0  0  0  0  0
    7.4042   -0.2542    0.0000 C   0  0  0  0  0  0  0  0  0  0  0  0
    1.6917   -2.7250    0.0000 O   0  0  0  0  0  0  0  0  0  0  0  0
    8.1167    0.1625    0.0000 C   0  0  0  0  0  0  0  0  0  0  0  0
    0.9792   -2.3125    0.0000 C   0  0  0  0  0  0  0  0  0  0  0  0
  2  1  1  0  0  0  0
  3  4  1  0  0  0  0
  4  1  1  0  0  0  0
  5  3  1  0  0  0  0
  6  2  1  0  0  0  0
  7  5  1  0  0  0  0
  8  1  2  0  0  0  0
  9  2  2  0  0  0  0
 10  4  2  0  0  0  0
 11  7  2  0  0  0  0
 12  7  1  0  0  0  0
 13  8  1  0  0  0  0
 14 13  2  0  0  0  0
 15 12  2  0  0  0  0
 16 11  1  0  0  0  0
 17 15  1  0  0  0  0
 18 13  1  0  0  0  0
 19 17  1  0  0  0  0
 20 18  1  0  0  0  0
  5  6  1  0  0  0  0
 14 10  1  0  0  0  0
 17 16  2  0  0  0  0
M  END
> <IDNUMBER>
F3139-0913

> <Chemical_Name>
6-methoxy-2-(4-methylphenyl)-3,4-dihydro-2H-1-benzopyran-4-one

> <CAS>
618389-88-1

> <PriceCoeff>
1.00

> <MW>
268.31

> <Description>
solid

> <FSP3>
0.24

> <clogP>
4.00

> <TPSA>
35.53

> <Acceptor>
3

> <Donor>
0

> <RotBonds>
2

> <HAC>
20

> <Collection>
General

> <Reference_compound>
CHEMBL274318

> <Similarity>
0.9340

$$$$
F2018-1698
  -ISIS-  06222304352D

 35 38  0  0  0  0  0  0  0  0999 V2000
   -3.8708    2.9833    0.0000 C   0  0  0  0  0  0  0  0  0  0  0  0
   -3.1583    2.5625    0.0000 N   0  0  3  0  0  0  0  0  0  0  0  0
   -4.6333    2.6458    0.0000 N   0  0  0  0  0  0  0  0  0  0  0  0
    0.4167    1.3083    0.0000 N   0  0  3  0  0  0  0  0  0  0  0  0
   -3.9625    3.8083    0.0000 S   0  0  0  0  0  0  0  0  0  0  0  0
   -2.4458    2.9833    0.0000 C   0  0  0  0  0  0  0  0  0  0  0  0
   -5.1875    3.2583    0.0000 C   0  0  0  0  0  0  0  0  0  0  0  0
   -4.7708    3.9708    0.0000 C   0  0  0  0  0  0  0  0  0  0  0  0
    1.1625    1.6750    0.0000 C   0  0  0  0  0  0  0  0  0  0  0  0
    0.5292    0.5000    0.0000 C   0  0  0  0  0  0  0  0  0  0  0  0
   -6.0000    3.2583    0.0000 C   0  0  0  0  0  0  0  0  0  0  0  0
   -5.1833    4.6667    0.0000 C   0  0  0  0  0  0  0  0  0  0  0  0
   -6.0000    4.6792    0.0000 C   0  0  0  0  0  0  0  0  0  0  0  0
   -6.4042    3.9625    0.0000 C   0  0  0  0  0  0  0  0  0  0  0  0
   -3.1583    1.7375    0.0000 C   0  0  0  0  0  0  0  0  0  0  0  0
   -0.3000    1.7333    0.0000 C   0  0  0  0  0  0  0  0  0  0  0  0
   -1.7333    2.5625    0.0000 C   0  0  0  0  0  0  0  0  0  0  0  0
   -2.4458    3.8000    0.0000 O   0  0  0  0  0  0  0  0  0  0  0  0
   -7.2292    3.9583    0.0000 O   0  0  0  0  0  0  0  0  0  0  0  0
   -6.4042    5.3875    0.0000 O   0  0  0  0  0  0  0  0  0  0  0  0
    1.7375    1.0750    0.0000 C   0  0  0  0  0  0  0  0  0  0  0  0
    1.3417    0.3583    0.0000 C   0  0  0  0  0  0  0  0  0  0  0  0
    1.3125    2.5083    0.0000 O   0  0  0  0  0  0  0  0  0  0  0  0
   -0.0583   -0.0792    0.0000 O   0  0  0  0  0  0  0  0  0  0  0  0
   -0.2958    2.5625    0.0000 C   0  0  0  0  0  0  0  0  0  0  0  0
   -1.0208    1.3333    0.0000 C   0  0  0  0  0  0  0  0  0  0  0  0
   -1.7250    1.7458    0.0000 C   0  0  0  0  0  0  0  0  0  0  0  0
   -1.0000    2.9833    0.0000 C   0  0  0  0  0  0  0  0  0  0  0  0
   -3.8708    1.3250    0.0000 C   0  0  0  0  0  0  0  0  0  0  0  0
   -3.8708    0.5000    0.0000 N   0  0  3  0  0  0  0  0  0  0  0  0
   -7.2417    5.3875    0.0000 C   0  0  0  0  0  0  0  0  0  0  0  0
   -7.6542    4.6667    0.0000 C   0  0  0  0  0  0  0  0  0  0  0  0
   -4.5833    0.0875    0.0000 C   0  0  0  0  0  0  0  0  0  0  0  0
   -3.1583    0.0875    0.0000 C   0  0  0  0  0  0  0  0  0  0  0  0
    3.1250    2.6542    0.0000 Cl  0  0  0  0  0  0  0  0  0  0  0  0
  3  1  2  0  0  0  0
  4 16  1  0  0  0  0
  5  1  1  0  0  0  0
  6  2  1  0  0  0  0
  7  3  1  0  0  0  0
  8  5  1  0  0  0  0
  9  4  1  0  0  0  0
 10  4  1  0  0  0  0
 11  7  1  0  0  0  0
 12  8  1  0  0  0  0
 13 12  2  0  0  0  0
 14 11  2  0  0  0  0
 15  2  1  0  0  0  0
 16 25  1  0  0  0  0
 17  6  1  0  0  0  0
 18  6  2  0  0  0  0
 19 14  1  0  0  0  0
 20 13  1  0  0  0  0
 21  9  1  0  0  0  0
 22 10  1  0  0  0  0
 23  9  2  0  0  0  0
 24 10  2  0  0  0  0
 25 28  2  0  0  0  0
 26 27  1  0  0  0  0
 27 17  2  0  0  0  0
 28 17  1  0  0  0  0
 29 15  1  0  0  0  0
 30 29  1  0  0  0  0
 31 20  1  0  0  0  0
 32 19  1  0  0  0  0
 33 30  1  0  0  0  0
 34 30  1  0  0  0  0
  8  7  2  0  0  0  0
 13 14  1  0  0  0  0
 16 26  2  0  0  0  0
 32 31  1  0  0  0  0
 22 21  1  0  0  0  0
  2  1  1  0  0  0  0
M  END
> <IDNUMBER>
F2018-1698

> <Chemical_Name>
N-[2-(dimethylamino)ethyl]-N-{10,13-dioxa-4-thia-6-azatricyclo[7.4.0.0^{3,7}]trideca-1,3(7),5,8-tetraen-5-yl}-4-(2,5-dioxopyrrolidin-1-yl)benzamide hydrochloride

> <CAS>
1052538-21-2

> <PriceCoeff>
1.00

> <MW>
480.54

> <Description>
solid

> <FSP3>
0.33

> <clogP>
1.64

> <TPSA>
120.52

> <Acceptor>
6

> <Donor>
1

> <RotBonds>
7

> <HAC>
34

> <Collection>
General

$$$$
F2146-0725
  -ISIS-  06222304352D

 27 28  0  0  0  0  0  0  0  0999 V2000
    4.6333   -3.5625    0.0000 C   0  0  0  0  0  0  0  0  0  0  0  0
    4.3750   -4.3458    0.0000 N   0  0  3  0  0  0  0  0  0  0  0  0
    3.9667   -3.0750    0.0000 S   0  0  0  0  0  0  0  0  0  0  0  0
    3.2958   -3.5625    0.0000 C   0  0  0  0  0  0  0  0  0  0  0  0
    3.5500   -4.3458    0.0000 C   0  0  0  0  0  0  0  0  0  0  0  0
    2.4875   -3.3792    0.0000 C   0  0  0  0  0  0  0  0  0  0  0  0
    5.4250   -3.3042    0.0000 N   0  0  0  0  0  0  0  0  0  0  0  0
    2.9958   -4.9583    0.0000 C   0  0  0  0  0  0  0  0  0  0  0  0
    1.9292   -4.0000    0.0000 C   0  0  0  0  0  0  0  0  0  0  0  0
    4.8667   -5.0167    0.0000 C   0  0  0  0  0  0  0  0  0  0  0  0
    2.1917   -4.7833    0.0000 C   0  0  0  0  0  0  0  0  0  0  0  0
    1.1208   -3.8292    0.0000 F   0  0  0  0  0  0  0  0  0  0  0  0
    3.7375   -5.8667    0.0000 O   0  0  0  0  0  0  0  0  0  0  0  0
    4.5292   -5.7792    0.0000 C   0  0  0  0  0  0  0  0  0  0  0  0
    3.3750   -6.6208    0.0000 C   0  0  0  0  0  0  0  0  0  0  0  0
    2.5500   -6.6833    0.0000 C   0  0  0  0  0  0  0  0  0  0  0  0
    8.4598   -3.8121    0.0000 S   0  0  3  0  0  0  0  0  0  0  0  0
    8.0570   -4.5219    0.0000 C   0  0  0  0  0  0  0  0  0  0  0  0
    7.7489   -3.3908    0.0000 O   0  0  0  0  0  0  0  0  0  0  0  0
    8.8656   -3.0910    0.0000 O   0  0  0  0  0  0  0  0  0  0  0  0
    9.1810   -4.2179    0.0000 O   0  0  0  0  0  0  0  0  0  0  0  0
    8.4724   -5.2395    0.0000 C   0  0  0  0  0  0  0  0  0  0  0  0
    7.2265   -4.5261    0.0000 C   0  0  0  0  0  0  0  0  0  0  0  0
    8.0553   -5.9577    0.0000 C   0  0  0  0  0  0  0  0  0  0  0  0
    6.8186   -5.2436    0.0000 C   0  0  0  0  0  0  0  0  0  0  0  0
    7.2320   -5.9576    0.0000 C   0  0  0  0  0  0  0  0  0  0  0  0
    6.8184   -6.6737    0.0000 C   0  0  0  0  0  0  0  0  0  0  0  0
 13 14  1  0  0  0  0
 14 10  1  0  0  0  0
 15 13  1  0  0  0  0
 16 15  1  0  0  0  0
  4  5  2  0  0  0  0
 11  9  1  0  0  0  0
  2  1  1  0  0  0  0
  3  1  1  0  0  0  0
  4  3  1  0  0  0  0
  5  2  1  0  0  0  0
  6  4  1  0  0  0  0
  7  1  2  0  0  0  0
  8  5  1  0  0  0  0
  9  6  2  0  0  0  0
 10  2  1  0  0  0  0
 11  8  2  0  0  0  0
 12  9  1  0  0  0  0
 18 17  1  0  0  0  0
 19 17  2  0  0  0  0
 20 17  2  0  0  0  0
 21 17  1  0  0  0  0
 22 18  1  0  0  0  0
 23 18  2  0  0  0  0
 24 22  2  0  0  0  0
 25 23  1  0  0  0  0
 26 25  2  0  0  0  0
 27 26  1  0  0  0  0
 24 26  1  0  0  0  0
M  END
> <IDNUMBER>
F2146-0725

> <Chemical_Name>
3-(2-ethoxyethyl)-6-fluoro-2,3-dihydro-1,3-benzothiazol-2-imine; 4-methylbenzene-1-sulfonic acid

> <CAS>
2034155-65-0

> <PriceCoeff>
1.00

> <MW>
240.30

> <Description>
solid

> <FSP3>
0.36

> <clogP>
3.44

> <TPSA>
61.62

> <Acceptor>
1

> <Donor>
1

> <RotBonds>
4

> <HAC>
16

> <Collection>
General

> <Reference_compound>
PRI5904

> <Similarity>
0.8060

$$$$
F1199-0125
  -ISIS-  06222321452D

 27 29  0  0  0  0  0  0  0  0999 V2000
    0.0417    0.2333    0.0000 N   0  0  3  0  0  0  0  0  0  0  0  0
    0.7125    0.7208    0.0000 C   0  0  0  0  0  0  0  0  0  0  0  0
    0.3000   -0.5625    0.0000 C   0  0  0  0  0  0  0  0  0  0  0  0
    1.1292   -0.5625    0.0000 C   0  0  3  0  0  0  0  0  0  0  0  0
    1.3875    0.2333    0.0000 C   0  0  0  0  0  0  0  0  0  0  0  0
    2.4417   -1.1417    0.0000 C   0  0  0  0  0  0  0  0  0  0  0  0
    2.9250   -1.8167    0.0000 C   0  0  0  0  0  0  0  0  0  0  0  0
    1.6167   -1.2292    0.0000 S   0  0  0  0  0  0  0  0  0  0  0  0
    2.5875   -2.5750    0.0000 C   0  0  0  0  0  0  0  0  0  0  0  0
   -0.7375    0.4875    0.0000 C   0  0  0  0  0  0  0  0  0  0  0  0
   -3.0958    1.2500    0.0000 C   0  0  0  0  0  0  0  0  0  0  0  0
    2.7750   -0.3917    0.0000 N   0  0  0  0  0  0  0  0  0  0  0  0
    0.7125    1.5458    0.0000 O   0  0  0  0  0  0  0  0  0  0  0  0
   -0.1875   -1.2292    0.0000 O   0  0  0  0  0  0  0  0  0  0  0  0
   -2.3125    0.9958    0.0000 C   0  0  0  0  0  0  0  0  0  0  0  0
    3.0667   -3.2500    0.0000 O   0  0  0  0  0  0  0  0  0  0  0  0
   -3.2708    2.0583    0.0000 O   0  0  0  0  0  0  0  0  0  0  0  0
   -0.9125    1.2958    0.0000 C   0  0  0  0  0  0  0  0  0  0  0  0
   -1.3500   -0.0667    0.0000 C   0  0  0  0  0  0  0  0  0  0  0  0
   -2.1375    0.1833    0.0000 C   0  0  0  0  0  0  0  0  0  0  0  0
   -1.7000    1.5500    0.0000 C   0  0  0  0  0  0  0  0  0  0  0  0
    1.7625   -2.6542    0.0000 O   0  0  0  0  0  0  0  0  0  0  0  0
   -3.7083    0.6958    0.0000 O   0  0  0  0  0  0  0  0  0  0  0  0
    3.7500   -1.7292    0.0000 C   0  0  0  0  0  0  0  0  0  0  0  0
    3.5917   -0.3000    0.0000 C   0  0  0  0  0  0  0  0  0  0  0  0
   -3.5333   -0.1125    0.0000 C   0  0  0  0  0  0  0  0  0  0  0  0
    4.0875   -0.9667    0.0000 C   0  0  0  0  0  0  0  0  0  0  0  0
  2  1  1  0  0  0  0
  3  1  1  0  0  0  0
  4  3  1  0  0  0  0
  5  2  1  0  0  0  0
  6  8  1  0  0  0  0
  7  6  2  0  0  0  0
  8  4  1  0  0  0  0
  9  7  1  0  0  0  0
 10  1  1  0  0  0  0
 11 15  1  0  0  0  0
 12  6  1  0  0  0  0
 13  2  2  0  0  0  0
 14  3  2  0  0  0  0
 15 20  1  0  0  0  0
 16  9  2  0  0  0  0
 17 11  2  0  0  0  0
 18 10  2  0  0  0  0
 19 10  1  0  0  0  0
 20 19  2  0  0  0  0
 21 18  1  0  0  0  0
 22  9  1  0  0  0  0
 23 11  1  0  0  0  0
 24  7  1  0  0  0  0
 25 12  2  0  0  0  0
 26 23  1  0  0  0  0
 27 25  1  0  0  0  0
  5  4  1  0  0  0  0
 15 21  2  0  0  0  0
 27 24  2  0  0  0  0
M  END
> <IDNUMBER>
F1199-0125

> <Chemical_Name>
2-({1-[4-(methoxycarbonyl)phenyl]-2,5-dioxopyrrolidin-3-yl}sulfanyl)pyridine-3-carboxylic acid

> <CAS>
432020-08-1

> <PriceCoeff>
1.00

> <MW>
386.38

> <Description>
solid

> <FSP3>
0.17

> <clogP>
1.99

> <TPSA>
139.17

> <Acceptor>
7

> <Donor>
1

> <RotBonds>
6

> <HAC>
27

> <Collection>
General

$$$$
F0758-0031
  -ISIS-  06222321142D

 23 25  0  0  0  0  0  0  0  0999 V2000
   -0.7958    0.2208    0.0000 C   0  0  0  0  0  0  0  0  0  0  0  0
   -1.6125    1.6458    0.0000 C   0  0  0  0  0  0  0  0  0  0  0  0
    0.0292    0.7000    0.0000 C   0  0  0  0  0  0  0  0  0  0  0  0
   -1.6125    0.7000    0.0000 C   0  0  0  0  0  0  0  0  0  0  0  0
   -0.7958    2.1000    0.0000 O   0  0  0  0  0  0  0  0  0  0  0  0
    0.0292    1.6458    0.0000 C   0  0  0  0  0  0  0  0  0  0  0  0
   -2.4125    2.1000    0.0000 C   0  0  0  0  0  0  0  0  0  0  0  0
   -3.2333    1.6458    0.0000 C   0  0  0  0  0  0  0  0  0  0  0  0
   -2.4125    0.2208    0.0000 C   0  0  0  0  0  0  0  0  0  0  0  0
   -4.0500    2.1208    0.0000 O   0  0  0  0  0  0  0  0  0  0  0  0
   -4.8708    1.6458    0.0000 C   0  0  0  0  0  0  0  0  0  0  0  0
   -0.7958   -0.7167    0.0000 O   0  0  0  0  0  0  0  0  0  0  0  0
    0.8500    0.2208    0.0000 C   0  0  0  0  0  0  0  0  0  0  0  0
   -3.2333    0.7000    0.0000 C   0  0  0  0  0  0  0  0  0  0  0  0
   -4.8958    0.7000    0.0000 O   0  0  0  0  0  0  0  0  0  0  0  0
    0.8500    2.1208    0.0000 C   0  0  0  0  0  0  0  0  0  0  0  0
   -2.3625    2.9333    0.0000 C   0  0  0  0  0  0  0  0  0  0  0  0
   -5.6958    2.1208    0.0000 C   0  0  0  0  0  0  0  0  0  0  0  0
    0.8292   -0.7167    0.0000 C   0  0  0  0  0  0  0  0  0  0  0  0
    1.6667    0.7000    0.0000 C   0  0  0  0  0  0  0  0  0  0  0  0
    2.4667    0.2208    0.0000 C   0  0  0  0  0  0  0  0  0  0  0  0
    1.6500   -1.2000    0.0000 C   0  0  0  0  0  0  0  0  0  0  0  0
    2.4667   -0.7375    0.0000 C   0  0  0  0  0  0  0  0  0  0  0  0
  2  4  2  0  0  0  0
  3  1  1  0  0  0  0
  4  1  1  0  0  0  0
  5  2  1  0  0  0  0
  6  3  2  0  0  0  0
  7  2  1  0  0  0  0
  8 14  1  0  0  0  0
  9  4  1  0  0  0  0
 10  8  1  0  0  0  0
 11 10  1  0  0  0  0
 12  1  2  0  0  0  0
 13  3  1  0  0  0  0
 14  9  2  0  0  0  0
 15 11  2  0  0  0  0
 16  6  1  0  0  0  0
 17  7  1  0  0  0  0
 18 11  1  0  0  0  0
 19 13  1  0  0  0  0
 20 13  2  0  0  0  0
 21 20  1  0  0  0  0
 22 19  2  0  0  0  0
 23 21  2  0  0  0  0
  5  6  1  0  0  0  0
  7  8  2  0  0  0  0
 22 23  1  0  0  0  0
M  END
> <IDNUMBER>
F0758-0031

> <Chemical_Name>
2,8-dimethyl-4-oxo-3-phenyl-4H-chromen-7-yl acetate

> <CAS>
39582-06-4

> <PriceCoeff>
1.00

> <MW>
308.33

> <Description>
solid

> <FSP3>
0.16

> <clogP>
3.21

> <TPSA>
52.60

> <Acceptor>
4

> <Donor>
0

> <RotBonds>
3

> <HAC>
23

> <Collection>
General

> <Reference_compound>
CHEMBL463936

> <Similarity>
0.8020

$$$$
F2515-1622
  -ISIS-  06222321142D

 30 34  0  0  0  0  0  0  0  0999 V2000
   -4.5625    2.1500    0.0000 C   0  0  0  0  0  0  0  0  0  0  0  0
   -3.1333    4.6292    0.0000 N   0  0  3  0  0  0  0  0  0  0  0  0
   -3.8458    2.5583    0.0000 N   0  0  3  0  0  0  0  0  0  0  0  0
   -4.6583    1.3250    0.0000 N   0  0  0  0  0  0  0  0  0  0  0  0
   -5.3208    2.4875    0.0000 S   0  0  0  0  0  0  0  0  0  0  0  0
   -3.8458    3.3958    0.0000 C   0  0  0  0  0  0  0  0  0  0  0  0
   -5.4583    1.1583    0.0000 C   0  0  0  0  0  0  0  0  0  0  0  0
   -3.1333    3.8000    0.0000 C   0  0  0  0  0  0  0  0  0  0  0  0
   -5.8750    1.8708    0.0000 C   0  0  0  0  0  0  0  0  0  0  0  0
   -3.8000    5.1042    0.0000 C   0  0  0  0  0  0  0  0  0  0  0  0
   -2.4625    5.1042    0.0000 C   0  0  0  0  0  0  0  0  0  0  0  0
   -5.8708    0.4458    0.0000 C   0  0  0  0  0  0  0  0  0  0  0  0
   -6.6917    1.8708    0.0000 C   0  0  0  0  0  0  0  0  0  0  0  0
   -6.6792    0.4458    0.0000 C   0  0  0  0  0  0  0  0  0  0  0  0
   -7.1042    1.1458    0.0000 C   0  0  0  0  0  0  0  0  0  0  0  0
   -3.1333    2.1458    0.0000 C   0  0  0  0  0  0  0  0  0  0  0  0
   -7.9042    0.9750    0.0000 O   0  0  0  0  0  0  0  0  0  0  0  0
   -7.2292   -0.1792    0.0000 O   0  0  0  0  0  0  0  0  0  0  0  0
   -4.5625    3.8000    0.0000 O   0  0  0  0  0  0  0  0  0  0  0  0
   -7.9917    0.1583    0.0000 C   0  0  0  0  0  0  0  0  0  0  0  0
   -3.5458    5.8917    0.0000 C   0  0  0  0  0  0  0  0  0  0  0  0
   -2.7208    5.8917    0.0000 C   0  0  0  0  0  0  0  0  0  0  0  0
   -4.5833    4.8667    0.0000 O   0  0  0  0  0  0  0  0  0  0  0  0
   -1.6750    4.8417    0.0000 O   0  0  0  0  0  0  0  0  0  0  0  0
   -2.4208    0.0833    0.0000 N   0  0  0  0  0  0  0  0  0  0  0  0
   -3.1333    1.3208    0.0000 C   0  0  0  0  0  0  0  0  0  0  0  0
   -2.4208    0.9083    0.0000 C   0  0  0  0  0  0  0  0  0  0  0  0
   -3.1333   -0.3292    0.0000 C   0  0  0  0  0  0  0  0  0  0  0  0
   -3.8500    0.9083    0.0000 C   0  0  0  0  0  0  0  0  0  0  0  0
   -3.8500    0.0833    0.0000 C   0  0  0  0  0  0  0  0  0  0  0  0
  2  8  1  0  0  0  0
  3  1  1  0  0  0  0
  4  1  2  0  0  0  0
  5  1  1  0  0  0  0
  6  3  1  0  0  0  0
  7  4  1  0  0  0  0
  8  6  1  0  0  0  0
  9  5  1  0  0  0  0
 10  2  1  0  0  0  0
 11  2  1  0  0  0  0
 12  7  1  0  0  0  0
 13  9  1  0  0  0  0
 14 12  2  0  0  0  0
 15 13  2  0  0  0  0
 16  3  1  0  0  0  0
 17 15  1  0  0  0  0
 18 14  1  0  0  0  0
 19  6  2  0  0  0  0
 20 17  1  0  0  0  0
 21 10  1  0  0  0  0
 22 11  1  0  0  0  0
 23 10  2  0  0  0  0
 24 11  2  0  0  0  0
 25 27  2  0  0  0  0
 26 16  1  0  0  0  0
 27 26  1  0  0  0  0
 28 30  2  0  0  0  0
 29 26  2  0  0  0  0
 30 29  1  0  0  0  0
  9  7  2  0  0  0  0
 15 14  1  0  0  0  0
 18 20  1  0  0  0  0
 25 28  1  0  0  0  0
 21 22  1  0  0  0  0
M  END
> <IDNUMBER>
F2515-1622

> <Chemical_Name>
N-{4,6-dioxa-10-thia-12-azatricyclo[7.3.0.0^{3,7}]dodeca-1(9),2,7,11-tetraen-11-yl}-2-(2,5-dioxopyrrolidin-1-yl)-N-[(pyridin-3-yl)methyl]acetamide

> <CAS>
895021-09-7

> <PriceCoeff>
1.00

> <MW>
424.43

> <Description>
solid

> <FSP3>
0.25

> <clogP>
1.52

> <TPSA>
130.17

> <Acceptor>
7

> <Donor>
1

> <RotBonds>
6

> <HAC>
30

> <Collection>
General

$$$$
F0001-2524
  -ISIS-  06222321452D

 12 13  0  0  0  0  0  0  0  0999 V2000
    3.7375   -1.5792    0.0000 C   0  0  0  0  0  0  0  0  0  0  0  0
    3.7375   -0.7500    0.0000 C   0  0  0  0  0  0  0  0  0  0  0  0
    4.4500   -1.9917    0.0000 C   0  0  0  0  0  0  0  0  0  0  0  0
    5.8833    0.5000    0.0000 O   0  0  0  0  0  0  0  0  0  0  0  0
    3.0208   -1.9917    0.0000 C   0  0  3  0  0  0  0  0  0  0  0  0
    5.8875   -0.3292    0.0000 C   0  0  0  0  0  0  0  0  0  0  0  0
    5.1667   -0.7500    0.0000 C   0  0  0  0  0  0  0  0  0  0  0  0
    4.4500   -0.3375    0.0000 C   0  0  0  0  0  0  0  0  0  0  0  0
    5.1667   -1.5792    0.0000 C   0  0  0  0  0  0  0  0  0  0  0  0
    2.1917   -2.8167    0.0000 C   0  0  0  0  0  0  0  0  0  0  0  0
    3.0167   -2.8167    0.0000 C   0  0  0  0  0  0  0  0  0  0  0  0
    2.1917   -1.9917    0.0000 C   0  0  0  0  0  0  0  0  0  0  0  0
  2  1  2  0  0  0  0
  3  1  1  0  0  0  0
  4  6  2  0  0  0  0
  5  1  1  0  0  0  0
  6  7  1  0  0  0  0
  7  9  1  0  0  0  0
  8  2  1  0  0  0  0
  9  3  2  0  0  0  0
 10 11  1  0  0  0  0
 11  5  1  0  0  0  0
 12  5  1  0  0  0  0
 10 12  1  0  0  0  0
  8  7  2  0  0  0  0
M  END
> <IDNUMBER>
F0001-2524

> <Chemical_Name>
4-cyclobutylbenzaldehyde

> <CAS>
875306-94-8

> <PriceCoeff>
1.00

> <MW>
160.21

> <Description>
liquid

> <FSP3>
0.36

> <clogP>
3.00

> <TPSA>
17.07

> <Acceptor>
1

> <Donor>
0

> <RotBonds>
2

> <HAC>
12

> <Collection>
General

> <Reference_compound>
CHEMBL242748

> <Similarity>
0.8180

$$$$
F0200-0002
  -ISIS-  06222321142D

 22 24  0  0  0  0  0  0  0  0999 V2000
   -0.6208   -0.5500    0.0000 N   0  0  3  0  0  0  0  0  0  0  0  0
    0.0167   -0.4042    0.0000 C   0  0  0  0  0  0  0  0  0  0  0  0
   -0.6833   -1.2042    0.0000 C   0  0  0  0  0  0  0  0  0  0  0  0
    0.3542   -0.9667    0.0000 C   0  0  3  0  0  0  0  0  0  0  0  0
   -0.0625   -1.4667    0.0000 C   0  0  0  0  0  0  0  0  0  0  0  0
    1.0375   -1.0500    0.0000 N   0  0  0  0  0  0  0  0  0  0  0  0
   -1.1625   -0.1667    0.0000 C   0  0  0  0  0  0  0  0  0  0  0  0
    0.2792    0.2333    0.0000 O   0  0  0  0  0  0  0  0  0  0  0  0
   -1.2625   -1.5500    0.0000 O   0  0  0  0  0  0  0  0  0  0  0  0
    1.4167   -0.5042    0.0000 C   0  0  0  0  0  0  0  0  0  0  0  0
    2.1792    0.5708    0.0000 C   0  0  0  0  0  0  0  0  0  0  0  0
   -1.0833    0.5125    0.0000 C   0  0  0  0  0  0  0  0  0  0  0  0
    2.5792    1.1333    0.0000 F   0  0  0  0  0  0  0  0  0  0  0  0
    1.1375    0.0958    0.0000 C   0  0  0  0  0  0  0  0  0  0  0  0
    2.0792   -0.5667    0.0000 C   0  0  0  0  0  0  0  0  0  0  0  0
    1.5167    0.6333    0.0000 C   0  0  0  0  0  0  0  0  0  0  0  0
    2.4542   -0.0292    0.0000 C   0  0  0  0  0  0  0  0  0  0  0  0
   -0.4625    0.7500    0.0000 C   0  0  0  0  0  0  0  0  0  0  0  0
   -1.6000    0.9333    0.0000 C   0  0  0  0  0  0  0  0  0  0  0  0
   -1.5000    1.5708    0.0000 C   0  0  0  0  0  0  0  0  0  0  0  0
   -0.3625    1.3958    0.0000 C   0  0  0  0  0  0  0  0  0  0  0  0
   -0.8625    1.8125    0.0000 C   0  0  0  0  0  0  0  0  0  0  0  0
  2  1  1  0  0  0  0
  3  1  1  0  0  0  0
  4  2  1  0  0  0  0
  5  3  1  0  0  0  0
  6  4  1  0  0  0  0
  7  1  1  0  0  0  0
  8  2  2  0  0  0  0
  9  3  2  0  0  0  0
 10  6  1  0  0  0  0
 11 17  1  0  0  0  0
 12  7  1  0  0  0  0
 13 11  1  0  0  0  0
 14 10  2  0  0  0  0
 15 10  1  0  0  0  0
 16 14  1  0  0  0  0
 17 15  2  0  0  0  0
 18 12  1  0  0  0  0
 19 12  2  0  0  0  0
 20 19  1  0  0  0  0
 21 18  2  0  0  0  0
 22 20  2  0  0  0  0
  4  5  1  0  0  0  0
 22 21  1  0  0  0  0
 16 11  2  0  0  0  0
M  END
> <IDNUMBER>
F0200-0002

> <Chemical_Name>
1-benzyl-3-[(4-fluorophenyl)amino]pyrrolidine-2,5-dione

> <CAS>
306275-89-8

> <PriceCoeff>
1.00

> <MW>
298.31

> <Description>
solid

> <FSP3>
0.18

> <clogP>
3.68

> <TPSA>
49.41

> <Acceptor>
3

> <Donor>
1

> <RotBonds>
4

> <HAC>
22

> <Collection>
General

$$$$
F0327-0386
  -ISIS-  06222321142D

 27 29  0  0  0  0  0  0  0  0999 V2000
    4.4792   -0.8875    0.0000 N   0  0  3  0  0  0  0  0  0  0  0  0
   -1.8833   -0.2500    0.0000 N   0  3  0  0  0  0  0  0  0  0  0  0
    4.8375   -1.5292    0.0000 C   0  0  0  0  0  0  0  0  0  0  0  0
    4.9792   -0.3292    0.0000 C   0  0  0  0  0  0  0  0  0  0  0  0
    1.4792   -0.8875    0.0000 C   0  0  0  0  0  0  0  0  0  0  0  0
    1.1167   -0.2500    0.0000 N   0  0  0  0  0  0  0  0  0  0  0  0
   -1.1458   -0.2500    0.0000 C   0  0  0  0  0  0  0  0  0  0  0  0
   -0.7625   -0.8875    0.0000 C   0  0  0  0  0  0  0  0  0  0  0  0
    0.3542   -0.2500    0.0000 C   0  0  0  0  0  0  0  0  0  0  0  0
   -0.0208   -0.8875    0.0000 C   0  0  0  0  0  0  0  0  0  0  0  0
    3.7167   -0.8875    0.0000 C   0  0  0  0  0  0  0  0  0  0  0  0
   -2.3125    0.3625    0.0000 O   0  5  0  0  0  0  0  0  0  0  0  0
    2.2375   -0.8875    0.0000 C   0  0  0  0  0  0  0  0  0  0  0  0
   -2.2958   -0.8542    0.0000 O   0  0  0  0  0  0  0  0  0  0  0  0
    1.1167   -1.5292    0.0000 O   0  0  0  0  0  0  0  0  0  0  0  0
    5.5542   -1.3667    0.0000 C   0  0  0  0  0  0  0  0  0  0  0  0
    5.6542   -0.6292    0.0000 C   0  0  0  0  0  0  0  0  0  0  0  0
    4.5542   -2.2292    0.0000 O   0  0  0  0  0  0  0  0  0  0  0  0
    4.8167    0.4333    0.0000 O   0  0  0  0  0  0  0  0  0  0  0  0
   -0.7625    0.3958    0.0000 C   0  0  0  0  0  0  0  0  0  0  0  0
   -0.0208    0.3958    0.0000 C   0  0  0  0  0  0  0  0  0  0  0  0
    3.3542   -0.2500    0.0000 C   0  0  0  0  0  0  0  0  0  0  0  0
    3.3542   -1.5292    0.0000 C   0  0  0  0  0  0  0  0  0  0  0  0
    2.6000   -1.5292    0.0000 C   0  0  0  0  0  0  0  0  0  0  0  0
    2.6000   -0.2500    0.0000 C   0  0  0  0  0  0  0  0  0  0  0  0
    0.3375   -1.5292    0.0000 O   0  0  0  0  0  0  0  0  0  0  0  0
   -0.0458   -2.1667    0.0000 C   0  0  0  0  0  0  0  0  0  0  0  0
  2  7  1  0  0  0  0
  3  1  1  0  0  0  0
  4  1  1  0  0  0  0
  5 13  1  0  0  0  0
  6  5  1  0  0  0  0
  7 20  2  0  0  0  0
  8 10  2  0  0  0  0
  9  6  1  0  0  0  0
 10  9  1  0  0  0  0
 11  1  1  0  0  0  0
 12  2  1  0  0  0  0
 13 24  2  0  0  0  0
 14  2  2  0  0  0  0
 15  5  2  0  0  0  0
 16  3  1  0  0  0  0
 17  4  1  0  0  0  0
 18  3  2  0  0  0  0
 19  4  2  0  0  0  0
 20 21  1  0  0  0  0
 21  9  2  0  0  0  0
 22 11  1  0  0  0  0
 23 11  2  0  0  0  0
 24 23  1  0  0  0  0
 25 22  2  0  0  0  0
 26 10  1  0  0  0  0
 27 26  1  0  0  0  0
 17 16  1  0  0  0  0
 25 13  1  0  0  0  0
  8  7  1  0  0  0  0
M  CHG  2   2   1  12  -1
M  END
> <IDNUMBER>
F0327-0386

> <Chemical_Name>
4-(2,5-dioxopyrrolidin-1-yl)-N-(2-methoxy-4-nitrophenyl)benzamide

> <CAS>
330200-97-0

> <PriceCoeff>
1.00

> <MW>
369.33

> <Description>
solid

> <FSP3>
0.17

> <clogP>
0.56

> <TPSA>
118.85

> <Acceptor>
6

> <Donor>
1

> <RotBonds>
5

> <HAC>
27

> <Collection>
General

$$$$
F1533-0357
  -ISIS-  06222321142D

 22 23  0  0  0  0  0  0  0  0999 V2000
    0.5250   -2.3625    0.0000 C   0  0  0  0  0  0  0  0  0  0  0  0
    0.9167   -3.0875    0.0000 N   0  0  3  0  0  0  0  0  0  0  0  0
   -1.9583   -2.3000    0.0000 N   0  0  3  0  0  0  0  0  0  0  0  0
    0.9542   -1.6542    0.0000 S   0  0  0  0  0  0  0  0  0  0  0  0
    1.7500   -3.1000    0.0000 C   0  0  0  0  0  0  0  0  0  0  0  0
    2.1667   -2.3917    0.0000 C   0  0  0  0  0  0  0  0  0  0  0  0
   -0.3000   -2.3417    0.0000 N   0  0  3  0  0  0  0  0  0  0  0  0
   -2.7958   -3.7292    0.0000 O   0  0  0  0  0  0  0  0  0  0  0  0
    2.9917   -2.4042    0.0000 C   0  0  0  0  0  0  0  0  0  0  0  0
   -0.7000   -1.6125    0.0000 C   0  0  0  0  0  0  0  0  0  0  0  0
   -1.5208   -1.5917    0.0000 C   0  0  0  0  0  0  0  0  0  0  0  0
    3.4167   -1.7000    0.0000 O   0  0  0  0  0  0  0  0  0  0  0  0
   -1.5583   -3.0250    0.0000 C   0  0  0  0  0  0  0  0  0  0  0  0
   -2.7750   -2.2792    0.0000 C   0  0  0  0  0  0  0  0  0  0  0  0
    2.9667   -3.8417    0.0000 C   0  0  0  0  0  0  0  0  0  0  0  0
    2.1417   -3.8292    0.0000 C   0  0  0  0  0  0  0  0  0  0  0  0
   -1.9708   -3.7375    0.0000 C   0  0  0  0  0  0  0  0  0  0  0  0
   -3.1958   -2.9917    0.0000 C   0  0  0  0  0  0  0  0  0  0  0  0
    3.4000   -3.1292    0.0000 C   0  0  0  0  0  0  0  0  0  0  0  0
    3.0167   -0.9792    0.0000 C   0  0  0  0  0  0  0  0  0  0  0  0
   -0.7333   -3.0417    0.0000 H   0  0  0  0  0  0  0  0  0  0  0  0
    0.4917   -3.7875    0.0000 H   0  0  0  0  0  0  0  0  0  0  0  0
  2  1  1  0  0  0  0
  3 11  1  0  0  0  0
  4  1  2  0  0  0  0
  5  2  1  0  0  0  0
  6  5  1  0  0  0  0
  7  1  1  0  0  0  0
  8 18  1  0  0  0  0
  9  6  2  0  0  0  0
 10  7  1  0  0  0  0
 11 10  1  0  0  0  0
 12  9  1  0  0  0  0
 13  3  1  0  0  0  0
 14  3  1  0  0  0  0
 15 16  1  0  0  0  0
 16  5  2  0  0  0  0
 17 13  1  0  0  0  0
 18 14  1  0  0  0  0
 19 15  2  0  0  0  0
 20 12  1  0  0  0  0
 21  7  1  0  0  0  0
 22  2  1  0  0  0  0
  9 19  1  0  0  0  0
 17  8  1  0  0  0  0
M  END
> <IDNUMBER>
F1533-0357

> <Chemical_Name>
1-(3-methoxyphenyl)-3-[2-(morpholin-4-yl)ethyl]thiourea

> <CAS>
431881-90-2

> <PriceCoeff>
1.00

> <MW>
295.40

> <Description>
solid

> <FSP3>
0.50

> <clogP>
1.37

> <TPSA>
77.85

> <Acceptor>
3

> <Donor>
3

> <RotBonds>
5

> <HAC>
20

> <Collection>
General

> <Reference_compound>
CHEMBL4087841

> <Similarity>
0.8360

$$$$
F3139-0700
  -ISIS-  06222321442D

 22 24  0  0  0  0  0  0  0  0999 V2000
    1.1042   -2.6125    0.0000 C   0  0  0  0  0  0  0  0  0  0  0  0
    0.3917   -3.0250    0.0000 C   0  0  0  0  0  0  0  0  0  0  0  0
   -0.3208   -2.6125    0.0000 C   0  0  0  0  0  0  0  0  0  0  0  0
    1.1042   -1.7875    0.0000 C   0  0  0  0  0  0  0  0  0  0  0  0
   -0.3208   -1.7875    0.0000 C   0  0  0  0  0  0  0  0  0  0  0  0
    0.3917   -1.3750    0.0000 O   0  0  0  0  0  0  0  0  0  0  0  0
   -4.6208   -0.9500    0.0000 N   0  0  0  0  0  0  0  0  0  0  0  0
    1.8167   -3.0250    0.0000 C   0  0  0  0  0  0  0  0  0  0  0  0
   -1.0333   -3.0250    0.0000 C   0  0  0  0  0  0  0  0  0  0  0  0
   -1.0333   -1.3750    0.0000 C   0  0  0  0  0  0  0  0  0  0  0  0
   -3.9000   -1.3625    0.0000 C   0  0  0  0  0  0  0  0  0  0  0  0
    0.3917   -3.8500    0.0000 O   0  0  0  0  0  0  0  0  0  0  0  0
    2.5417   -2.6125    0.0000 C   0  0  0  0  0  0  0  0  0  0  0  0
    1.8167   -3.8542    0.0000 C   0  0  0  0  0  0  0  0  0  0  0  0
   -1.7500   -1.7875    0.0000 C   0  0  0  0  0  0  0  0  0  0  0  0
   -1.7500   -2.6125    0.0000 C   0  0  0  0  0  0  0  0  0  0  0  0
    3.2542   -3.8542    0.0000 C   0  0  0  0  0  0  0  0  0  0  0  0
    2.5292   -4.2667    0.0000 C   0  0  0  0  0  0  0  0  0  0  0  0
    3.2542   -3.0250    0.0000 C   0  0  0  0  0  0  0  0  0  0  0  0
    3.9667   -4.2667    0.0000 Cl  0  0  0  0  0  0  0  0  0  0  0  0
   -2.4708   -1.3750    0.0000 O   0  0  0  0  0  0  0  0  0  0  0  0
   -3.1875   -1.7792    0.0000 C   0  0  0  0  0  0  0  0  0  0  0  0
  2  1  1  0  0  0  0
  3  2  1  0  0  0  0
  4  1  2  0  0  0  0
  5  6  1  0  0  0  0
  6  4  1  0  0  0  0
  7 11  3  0  0  0  0
  8  1  1  0  0  0  0
  9  3  2  0  0  0  0
 10  5  2  0  0  0  0
 11 22  1  0  0  0  0
 12  2  2  0  0  0  0
 13  8  1  0  0  0  0
 14  8  2  0  0  0  0
 15 10  1  0  0  0  0
 16  9  1  0  0  0  0
 17 18  2  0  0  0  0
 18 14  1  0  0  0  0
 19 13  2  0  0  0  0
 20 17  1  0  0  0  0
 21 15  1  0  0  0  0
 22 21  1  0  0  0  0
 17 19  1  0  0  0  0
  3  5  1  0  0  0  0
 16 15  2  0  0  0  0
M  END
> <IDNUMBER>
F3139-0700

> <Chemical_Name>
2-{[3-(4-chlorophenyl)-4-oxo-4H-chromen-7-yl]oxy}acetonitrile

> <CAS>
637747-85-4

> <PriceCoeff>
1.00

> <MW>
311.72

> <Description>
solid

> <FSP3>
0.06

> <clogP>
2.78

> <TPSA>
59.32

> <Acceptor>
4

> <Donor>
0

> <RotBonds>
3

> <HAC>
22

> <Collection>
General

> <Reference_compound>
CHEMBL44

> <Similarity>
0.8290

$$$$
F3292-0445
  -ISIS-  06222321442D

 27 30  0  0  0  0  0  0  0  0999 V2000
    3.3750   -1.3375    0.0000 C   0  0  0  0  0  0  0  0  0  0  0  0
    2.6542   -1.7500    0.0000 C   0  0  3  0  0  0  0  0  0  0  0  0
    3.3667   -0.5042    0.0000 C   0  0  0  0  0  0  0  0  0  0  0  0
    4.0875   -0.0917    0.0000 C   0  0  0  0  0  0  0  0  0  0  0  0
    4.0875   -1.7542    0.0000 C   0  0  0  0  0  0  0  0  0  0  0  0
    1.9417   -1.3292    0.0000 C   0  0  0  0  0  0  0  0  0  0  0  0
    2.6542   -2.5750    0.0000 N   0  0  3  0  0  0  0  0  0  0  0  0
    4.8042   -0.5042    0.0000 C   0  0  0  0  0  0  0  0  0  0  0  0
    1.2250   -1.7417    0.0000 C   0  0  0  0  0  0  0  0  0  0  0  0
    4.8042   -1.3375    0.0000 C   0  0  0  0  0  0  0  0  0  0  0  0
    4.2542    0.7208    0.0000 O   0  0  0  0  0  0  0  0  0  0  0  0
    0.5042   -1.3250    0.0000 C   0  0  0  0  0  0  0  0  0  0  0  0
    5.4167    0.0458    0.0000 O   0  0  0  0  0  0  0  0  0  0  0  0
    4.0917   -2.5792    0.0000 C   0  0  0  0  0  0  0  0  0  0  0  0
    5.0792    0.8000    0.0000 C   0  0  0  0  0  0  0  0  0  0  0  0
    3.3667   -2.9875    0.0000 C   0  0  0  0  0  0  0  0  0  0  0  0
   -0.2083   -1.7417    0.0000 C   0  0  0  0  0  0  0  0  0  0  0  0
    1.2250   -2.5750    0.0000 O   0  0  0  0  0  0  0  0  0  0  0  0
    2.6500   -0.0917    0.0000 O   0  0  0  0  0  0  0  0  0  0  0  0
   -0.9250   -1.3250    0.0000 C   0  0  0  0  0  0  0  0  0  0  0  0
    1.9375   -2.9875    0.0000 C   0  0  0  0  0  0  0  0  0  0  0  0
   -1.7208   -1.5792    0.0000 O   0  0  0  0  0  0  0  0  0  0  0  0
    0.5125   -0.4917    0.0000 C   0  0  0  0  0  0  0  0  0  0  0  0
   -0.2083   -0.0792    0.0000 C   0  0  0  0  0  0  0  0  0  0  0  0
   -0.9208   -0.4917    0.0000 C   0  0  0  0  0  0  0  0  0  0  0  0
    2.6500    0.7333    0.0000 C   0  0  0  0  0  0  0  0  0  0  0  0
   -2.2083   -0.9042    0.0000 C   0  0  0  0  0  0  0  0  0  0  0  0
  2  1  1  0  0  0  0
  3  1  2  0  0  0  0
  4  3  1  0  0  0  0
  5  1  1  0  0  0  0
  6  2  1  0  0  0  0
  7  2  1  0  0  0  0
  8 10  1  0  0  0  0
  9  6  1  0  0  0  0
 10  5  2  0  0  0  0
 11  4  1  0  0  0  0
 12  9  1  0  0  0  0
 13  8  1  0  0  0  0
 14  5  1  0  0  0  0
 15 11  1  0  0  0  0
 16 14  1  0  0  0  0
 17 12  1  0  0  0  0
 18  9  2  0  0  0  0
 19  3  1  0  0  0  0
 20 17  2  0  0  0  0
 21  7  1  0  0  0  0
 22 20  1  0  0  0  0
 23 12  2  0  0  0  0
 24 23  1  0  0  0  0
 25 24  2  0  0  0  0
 26 19  1  0  0  0  0
 27 22  1  0  0  0  0
  7 16  1  0  0  0  0
  4  8  2  0  0  0  0
 13 15  1  0  0  0  0
 20 25  1  0  0  0  0
M  END
> <IDNUMBER>
F3292-0445

> <Chemical_Name>
2-{4-methoxy-6-methyl-2H,5H,6H,7H,8H-[1,3]dioxolo[4,5-g]isoquinolin-5-yl}-1-(3-methoxyphenyl)ethan-1-one

> <CAS>
376379-05-4

> <PriceCoeff>
1.00

> <MW>
369.41

> <Description>
solid

> <FSP3>
0.38

> <clogP>
3.85

> <TPSA>
57.23

> <Acceptor>
5

> <Donor>
1

> <RotBonds>
5

> <HAC>
27

> <Collection>
General

> <Reference_compound>
CHEMBL490533

> <Similarity>
0.8040

$$$$
F3139-0614
  -ISIS-  06222321462D

 22 24  0  0  0  0  0  0  0  0999 V2000
    5.2750   -0.4292    0.0000 C   0  0  0  0  0  0  0  0  0  0  0  0
    5.2750   -1.2667    0.0000 C   0  0  0  0  0  0  0  0  0  0  0  0
    3.8292   -1.2667    0.0000 C   0  0  0  0  0  0  0  0  0  0  0  0
    4.5500   -1.6792    0.0000 C   0  0  0  0  0  0  0  0  0  0  0  0
    4.5542   -0.0125    0.0000 O   0  0  0  0  0  0  0  0  0  0  0  0
    3.8375   -0.4292    0.0000 C   0  0  0  0  0  0  0  0  0  0  0  0
    5.9875   -0.0250    0.0000 C   0  0  0  0  0  0  0  0  0  0  0  0
    6.7042   -0.4417    0.0000 C   0  0  0  0  0  0  0  0  0  0  0  0
    7.4167   -0.0292    0.0000 C   0  0  0  0  0  0  0  0  0  0  0  0
    3.1167   -1.6750    0.0000 C   0  0  0  0  0  0  0  0  0  0  0  0
    4.5500   -2.5042    0.0000 O   0  0  0  0  0  0  0  0  0  0  0  0
    7.4167    0.7958    0.0000 C   0  0  0  0  0  0  0  0  0  0  0  0
    3.1167   -0.0167    0.0000 C   0  0  0  0  0  0  0  0  0  0  0  0
    5.9917    0.7958    0.0000 C   0  0  0  0  0  0  0  0  0  0  0  0
    6.7042    1.2083    0.0000 C   0  0  0  0  0  0  0  0  0  0  0  0
    2.4042   -1.2625    0.0000 C   0  0  0  0  0  0  0  0  0  0  0  0
    2.4042   -0.4375    0.0000 C   0  0  0  0  0  0  0  0  0  0  0  0
    8.1292   -0.4417    0.0000 O   0  0  0  0  0  0  0  0  0  0  0  0
    1.6917   -1.6750    0.0000 F   0  0  0  0  0  0  0  0  0  0  0  0
    8.1417    1.2083    0.0000 O   0  0  0  0  0  0  0  0  0  0  0  0
    8.8417   -0.0292    0.0000 C   0  0  0  0  0  0  0  0  0  0  0  0
    8.1417    2.0333    0.0000 C   0  0  0  0  0  0  0  0  0  0  0  0
  2  1  2  0  0  0  0
  3  6  1  0  0  0  0
  4  2  1  0  0  0  0
  5  1  1  0  0  0  0
  6  5  1  0  0  0  0
  7  1  1  0  0  0  0
  8  7  2  0  0  0  0
  9  8  1  0  0  0  0
 10  3  2  0  0  0  0
 11  4  2  0  0  0  0
 12 15  1  0  0  0  0
 13  6  2  0  0  0  0
 14  7  1  0  0  0  0
 15 14  2  0  0  0  0
 16 17  2  0  0  0  0
 17 13  1  0  0  0  0
 18  9  1  0  0  0  0
 19 16  1  0  0  0  0
 20 12  1  0  0  0  0
 21 18  1  0  0  0  0
 22 20  1  0  0  0  0
  3  4  1  0  0  0  0
  9 12  2  0  0  0  0
 16 10  1  0  0  0  0
M  END
> <IDNUMBER>
F3139-0614

> <Chemical_Name>
2-(3,4-dimethoxyphenyl)-6-fluoro-4H-chromen-4-one

> <CAS>
370583-45-2

> <PriceCoeff>
1.00

> <MW>
300.28

> <Description>
solid

> <FSP3>
0.12

> <clogP>
3.30

> <TPSA>
44.76

> <Acceptor>
4

> <Donor>
0

> <RotBonds>
3

> <HAC>
22

> <Collection>
General

> <Reference_compound>
CHEMBL275638

> <Similarity>
0.8110

$$$$
F3139-0622
  -ISIS-  06222321462D

 20 22  0  0  0  0  0  0  0  0999 V2000
    5.2750   -0.4292    0.0000 C   0  0  0  0  0  0  0  0  0  0  0  0
    5.2750   -1.2667    0.0000 C   0  0  0  0  0  0  0  0  0  0  0  0
    4.5542   -0.0125    0.0000 O   0  0  0  0  0  0  0  0  0  0  0  0
    3.8292   -1.2667    0.0000 C   0  0  0  0  0  0  0  0  0  0  0  0
    4.5500   -1.6792    0.0000 C   0  0  0  0  0  0  0  0  0  0  0  0
    3.8375   -0.4292    0.0000 C   0  0  0  0  0  0  0  0  0  0  0  0
    5.9875   -0.0250    0.0000 C   0  0  0  0  0  0  0  0  0  0  0  0
    3.1167   -1.6750    0.0000 C   0  0  0  0  0  0  0  0  0  0  0  0
    4.5500   -2.5042    0.0000 O   0  0  0  0  0  0  0  0  0  0  0  0
    6.7042   -0.4417    0.0000 C   0  0  0  0  0  0  0  0  0  0  0  0
    3.1167   -0.0167    0.0000 C   0  0  0  0  0  0  0  0  0  0  0  0
    2.4042   -1.2625    0.0000 C   0  0  0  0  0  0  0  0  0  0  0  0
    2.4042   -0.4375    0.0000 C   0  0  0  0  0  0  0  0  0  0  0  0
    6.7000   -1.2625    0.0000 O   0  0  0  0  0  0  0  0  0  0  0  0
    5.9917    0.7958    0.0000 C   0  0  0  0  0  0  0  0  0  0  0  0
    7.4167   -0.0292    0.0000 C   0  0  0  0  0  0  0  0  0  0  0  0
    1.6917   -1.6750    0.0000 C   0  0  0  0  0  0  0  0  0  0  0  0
    7.4125   -1.6792    0.0000 C   0  0  0  0  0  0  0  0  0  0  0  0
    6.7042    1.2083    0.0000 C   0  0  0  0  0  0  0  0  0  0  0  0
    7.4167    0.7958    0.0000 C   0  0  0  0  0  0  0  0  0  0  0  0
  2  1  2  0  0  0  0
  3  1  1  0  0  0  0
  4  6  1  0  0  0  0
  5  2  1  0  0  0  0
  6  3  1  0  0  0  0
  7  1  1  0  0  0  0
  8  4  2  0  0  0  0
  9  5  2  0  0  0  0
 10  7  2  0  0  0  0
 11  6  2  0  0  0  0
 12 13  2  0  0  0  0
 13 11  1  0  0  0  0
 14 10  1  0  0  0  0
 15  7  1  0  0  0  0
 16 10  1  0  0  0  0
 17 12  1  0  0  0  0
 18 14  1  0  0  0  0
 19 15  2  0  0  0  0
 20 19  1  0  0  0  0
  4  5  1  0  0  0  0
 16 20  2  0  0  0  0
 12  8  1  0  0  0  0
M  END
> <IDNUMBER>
F3139-0622

> <Chemical_Name>
2-(2-methoxyphenyl)-6-methyl-4H-chromen-4-one

> <CAS>
89112-85-6

> <PriceCoeff>
1.00

> <MW>
266.29

> <Description>
solid

> <FSP3>
0.12

> <clogP>
3.39

> <TPSA>
35.53

> <Acceptor>
3

> <Donor>
0

> <RotBonds>
2

> <HAC>
20

> <Collection>
General

> <Reference_compound>
CHEMBL275638

> <Similarity>
0.8880

$$$$
F0758-0028
  -ISIS-  06222321142D

 20 22  0  0  0  0  0  0  0  0999 V2000
   -0.0333    0.6500    0.0000 C   0  0  0  0  0  0  0  0  0  0  0  0
   -0.8708    0.1708    0.0000 C   0  0  0  0  0  0  0  0  0  0  0  0
   -0.0333    1.6125    0.0000 C   0  0  0  0  0  0  0  0  0  0  0  0
   -1.7125    0.6500    0.0000 C   0  0  0  0  0  0  0  0  0  0  0  0
   -1.7125    1.6125    0.0000 C   0  0  0  0  0  0  0  0  0  0  0  0
   -0.8708    2.0958    0.0000 O   0  0  0  0  0  0  0  0  0  0  0  0
   -2.5333    2.0958    0.0000 C   0  0  0  0  0  0  0  0  0  0  0  0
   -2.5333    0.1708    0.0000 C   0  0  0  0  0  0  0  0  0  0  0  0
   -0.8708   -0.7875    0.0000 O   0  0  0  0  0  0  0  0  0  0  0  0
    0.8042    0.1708    0.0000 C   0  0  0  0  0  0  0  0  0  0  0  0
   -3.3708    1.6125    0.0000 C   0  0  0  0  0  0  0  0  0  0  0  0
   -3.3708    0.6500    0.0000 C   0  0  0  0  0  0  0  0  0  0  0  0
    0.8292    2.1125    0.0000 C   0  0  0  0  0  0  0  0  0  0  0  0
   -4.2333    2.1125    0.0000 O   0  0  0  0  0  0  0  0  0  0  0  0
    0.8042   -0.7875    0.0000 C   0  0  0  0  0  0  0  0  0  0  0  0
    1.6292    0.6500    0.0000 C   0  0  0  0  0  0  0  0  0  0  0  0
   -5.0500    1.6333    0.0000 C   0  0  0  0  0  0  0  0  0  0  0  0
    1.6292   -1.2667    0.0000 C   0  0  0  0  0  0  0  0  0  0  0  0
    2.4667    0.1708    0.0000 C   0  0  0  0  0  0  0  0  0  0  0  0
    2.4667   -0.7875    0.0000 C   0  0  0  0  0  0  0  0  0  0  0  0
  2  1  1  0  0  0  0
  3  1  2  0  0  0  0
  4  2  1  0  0  0  0
  5  6  1  0  0  0  0
  6  3  1  0  0  0  0
  7  5  1  0  0  0  0
  8  4  1  0  0  0  0
  9  2  2  0  0  0  0
 10  1  1  0  0  0  0
 11  7  2  0  0  0  0
 12  8  2  0  0  0  0
 13  3  1  0  0  0  0
 14 11  1  0  0  0  0
 15 10  1  0  0  0  0
 16 10  2  0  0  0  0
 17 14  1  0  0  0  0
 18 15  2  0  0  0  0
 19 16  1  0  0  0  0
 20 19  2  0  0  0  0
  5  4  2  0  0  0  0
 20 18  1  0  0  0  0
 12 11  1  0  0  0  0
M  END
> <IDNUMBER>
F0758-0028

> <Chemical_Name>
7-methoxy-2-methyl-3-phenyl-4H-chromen-4-one

> <CAS>
19725-44-1

> <PriceCoeff>
1.00

> <MW>
266.29

> <Description>
solid

> <FSP3>
0.12

> <clogP>
3.29

> <TPSA>
35.53

> <Acceptor>
3

> <Donor>
0

> <RotBonds>
2

> <HAC>
20

> <Collection>
General

> <Reference_compound>
CHEMBL44

> <Similarity>
0.8180

$$$$
F2189-0168
  -ISIS-  06222321142D

  9  9  0  0  0  0  0  0  0  0999 V2000
   -0.1375    0.0583    0.0000 N   0  0  3  0  0  0  0  0  0  0  0  0
   -0.9458   -0.1125    0.0000 C   0  0  0  0  0  0  0  0  0  0  0  0
   -1.2833   -0.8667    0.0000 C   0  0  0  0  0  0  0  0  0  0  0  0
   -0.0500    0.8750    0.0000 C   0  0  0  0  0  0  0  0  0  0  0  0
   -0.8000    1.2083    0.0000 C   0  0  0  0  0  0  0  0  0  0  0  0
   -1.3500    0.5958    0.0000 C   0  0  0  0  0  0  0  0  0  0  0  0
   -2.1000   -0.9542    0.0000 N   0  0  0  0  0  0  0  0  0  0  0  0
   -2.4333   -1.7042    0.0000 O   0  0  0  0  0  0  0  0  0  0  0  0
    0.4750   -0.4917    0.0000 C   0  0  0  0  0  0  0  0  0  0  0  0
  2  1  1  0  0  0  0
  3  2  1  0  0  0  0
  4  1  1  0  0  0  0
  5  4  2  0  0  0  0
  6  2  2  0  0  0  0
  7  3  2  0  0  0  0
  8  7  1  0  0  0  0
  9  1  1  0  0  0  0
  5  6  1  0  0  0  0
M  END
> <IDNUMBER>
F2189-0168

> <Chemical_Name>
(E)-N-[(1-methyl-1H-pyrrol-2-yl)methylidene]hydroxylamine

> <CAS>
37110-15-9

> <PriceCoeff>
1.00

> <MW>
124.14

> <Description>
solid

> <FSP3>
0.17

> <clogP>
1.05

> <TPSA>
37.52

> <Acceptor>
2

> <Donor>
2

> <RotBonds>
1

> <HAC>
9

> <Collection>
General

> <Reference_compound>
CHEMBL748

> <Similarity>
0.8930

$$$$
F3205-0036
  -ISIS-  06222321152D

 28 31  0  0  0  0  0  0  0  0999 V2000
    4.2417   -6.4875    0.0000 N   0  0  3  0  0  0  0  0  0  0  0  0
    4.7375   -7.1542    0.0000 C   0  0  0  0  0  0  0  0  0  0  0  0
    4.7292   -5.8167    0.0000 C   0  0  0  0  0  0  0  0  0  0  0  0
    5.5167   -6.8917    0.0000 C   0  0  3  0  0  0  0  0  0  0  0  0
    5.5167   -6.0667    0.0000 C   0  0  0  0  0  0  0  0  0  0  0  0
    9.1792   -6.0125    0.0000 N   0  0  3  0  0  0  0  0  0  0  0  0
    6.1792   -7.3667    0.0000 N   0  0  0  0  0  0  0  0  0  0  0  0
    3.4250   -6.4917    0.0000 C   0  0  0  0  0  0  0  0  0  0  0  0
    8.4292   -6.3542    0.0000 C   0  0  0  0  0  0  0  0  0  0  0  0
    4.4792   -7.9375    0.0000 O   0  0  0  0  0  0  0  0  0  0  0  0
    4.4667   -5.0292    0.0000 O   0  0  0  0  0  0  0  0  0  0  0  0
   10.6792   -5.3292    0.0000 O   0  0  0  0  0  0  0  0  0  0  0  0
    8.3542   -7.1667    0.0000 C   0  0  0  0  0  0  0  0  0  0  0  0
    7.7542   -5.8750    0.0000 C   0  0  0  0  0  0  0  0  0  0  0  0
    6.9292   -7.0292    0.0000 C   0  0  0  0  0  0  0  0  0  0  0  0
    3.0042   -5.7792    0.0000 C   0  0  0  0  0  0  0  0  0  0  0  0
    7.6042   -7.5125    0.0000 C   0  0  0  0  0  0  0  0  0  0  0  0
    7.0125   -6.2167    0.0000 C   0  0  0  0  0  0  0  0  0  0  0  0
    2.1667   -4.3625    0.0000 C   0  0  0  0  0  0  0  0  0  0  0  0
    3.4167   -5.0667    0.0000 C   0  0  0  0  0  0  0  0  0  0  0  0
    2.1792   -5.7917    0.0000 C   0  0  0  0  0  0  0  0  0  0  0  0
    1.7667   -5.0792    0.0000 C   0  0  0  0  0  0  0  0  0  0  0  0
    3.0000   -4.3542    0.0000 C   0  0  0  0  0  0  0  0  0  0  0  0
    9.2542   -5.1917    0.0000 C   0  0  0  0  0  0  0  0  0  0  0  0
    9.8542   -6.4917    0.0000 C   0  0  0  0  0  0  0  0  0  0  0  0
   10.6000   -6.1542    0.0000 C   0  0  0  0  0  0  0  0  0  0  0  0
   10.0125   -4.8542    0.0000 C   0  0  0  0  0  0  0  0  0  0  0  0
    1.7542   -3.6500    0.0000 C   0  0  0  0  0  0  0  0  0  0  0  0
  2  1  1  0  0  0  0
  3  1  1  0  0  0  0
  4  2  1  0  0  0  0
  5  3  1  0  0  0  0
  6  9  1  0  0  0  0
  7  4  1  0  0  0  0
  8  1  1  0  0  0  0
  9 14  1  0  0  0  0
 10  2  2  0  0  0  0
 11  3  2  0  0  0  0
 12 26  1  0  0  0  0
 13 17  1  0  0  0  0
 14 18  2  0  0  0  0
 15  7  1  0  0  0  0
 16  8  1  0  0  0  0
 17 15  2  0  0  0  0
 18 15  1  0  0  0  0
 19 22  1  0  0  0  0
 20 16  2  0  0  0  0
 21 16  1  0  0  0  0
 22 21  2  0  0  0  0
 23 20  1  0  0  0  0
 24  6  1  0  0  0  0
 25  6  1  0  0  0  0
 26 25  1  0  0  0  0
 27 24  1  0  0  0  0
 28 19  1  0  0  0  0
  5  4  1  0  0  0  0
 19 23  2  0  0  0  0
  9 13  2  0  0  0  0
 12 27  1  0  0  0  0
M  END
> <IDNUMBER>
F3205-0036

> <Chemical_Name>
1-[(4-methylphenyl)methyl]-3-{[4-(morpholin-4-yl)phenyl]amino}pyrrolidine-2,5-dione

> <CAS>
1008668-63-0

> <PriceCoeff>
1.00

> <MW>
379.45

> <Description>
solid

> <FSP3>
0.36

> <clogP>
3.19

> <TPSA>
61.88

> <Acceptor>
5

> <Donor>
2

> <RotBonds>
5

> <HAC>
28

> <Collection>
General

$$$$
F3385-0893
  -ISIS-  06222321152D

 22 24  0  0  0  0  0  0  0  0999 V2000
    5.5792   -2.0167    0.0000 C   0  0  0  0  0  0  0  0  0  0  0  0
    4.8542   -2.4292    0.0000 C   0  0  0  0  0  0  0  0  0  0  0  0
    4.1417   -2.0167    0.0000 C   0  0  0  0  0  0  0  0  0  0  0  0
    5.5792   -1.1875    0.0000 C   0  0  0  0  0  0  0  0  0  0  0  0
    4.1417   -1.1875    0.0000 C   0  0  0  0  0  0  0  0  0  0  0  0
    4.8625   -0.7667    0.0000 O   0  0  0  0  0  0  0  0  0  0  0  0
    6.2917   -2.4375    0.0000 C   0  0  0  0  0  0  0  0  0  0  0  0
    3.4292   -2.4292    0.0000 C   0  0  0  0  0  0  0  0  0  0  0  0
    3.4292   -0.7750    0.0000 C   0  0  0  0  0  0  0  0  0  0  0  0
    4.8542   -3.2542    0.0000 O   0  0  0  0  0  0  0  0  0  0  0  0
    7.0042   -2.0250    0.0000 C   0  0  0  0  0  0  0  0  0  0  0  0
    6.2875   -3.2625    0.0000 C   0  0  0  0  0  0  0  0  0  0  0  0
    2.7167   -1.1875    0.0000 C   0  0  0  0  0  0  0  0  0  0  0  0
    2.7167   -2.0167    0.0000 C   0  0  0  0  0  0  0  0  0  0  0  0
    7.7167   -3.2667    0.0000 C   0  0  0  0  0  0  0  0  0  0  0  0
    7.0000   -3.6750    0.0000 C   0  0  0  0  0  0  0  0  0  0  0  0
    7.7167   -2.4375    0.0000 C   0  0  0  0  0  0  0  0  0  0  0  0
    2.0042   -0.7750    0.0000 O   0  0  0  0  0  0  0  0  0  0  0  0
    8.4292   -3.6792    0.0000 O   0  0  0  0  0  0  0  0  0  0  0  0
    1.2875   -1.1917    0.0000 C   0  0  0  0  0  0  0  0  0  0  0  0
    9.1417   -3.2667    0.0000 C   0  0  0  0  0  0  0  0  0  0  0  0
    0.5750   -0.7792    0.0000 C   0  0  0  0  0  0  0  0  0  0  0  0
  2  1  1  0  0  0  0
  3  2  1  0  0  0  0
  4  1  2  0  0  0  0
  5  6  1  0  0  0  0
  6  4  1  0  0  0  0
  7  1  1  0  0  0  0
  8  3  2  0  0  0  0
  9  5  2  0  0  0  0
 10  2  2  0  0  0  0
 11  7  1  0  0  0  0
 12  7  2  0  0  0  0
 13  9  1  0  0  0  0
 14  8  1  0  0  0  0
 15 16  2  0  0  0  0
 16 12  1  0  0  0  0
 17 11  2  0  0  0  0
 18 13  1  0  0  0  0
 19 15  1  0  0  0  0
 20 18  1  0  0  0  0
 21 19  1  0  0  0  0
 22 20  1  0  0  0  0
 17 15  1  0  0  0  0
  5  3  1  0  0  0  0
 13 14  2  0  0  0  0
M  END
> <IDNUMBER>
F3385-0893

> <Chemical_Name>
7-ethoxy-3-(4-methoxyphenyl)-4H-chromen-4-one

> <CAS>
76260-67-8

> <PriceCoeff>
1.00

> <MW>
296.32

> <Description>
solid

> <FSP3>
0.17

> <clogP>
3.55

> <TPSA>
44.76

> <Acceptor>
4

> <Donor>
0

> <RotBonds>
4

> <HAC>
22

> <Collection>
General

> <Reference_compound>
CHEMBL44

> <Similarity>
0.9200

$$$$
F9995-0076
  -ISIS-  06222304352D

 38 41  0  0  0  0  0  0  0  0999 V2000
    0.7375   -0.6417    0.0000 N   0  3  0  0  0  0  0  0  0  0  0  0
    5.0167   -0.6125    0.0000 N   0  0  3  0  0  0  0  0  0  0  0  0
    4.3042   -0.2042    0.0000 C   0  0  0  0  0  0  0  0  0  0  0  0
    5.7292   -0.1917    0.0000 C   0  0  0  0  0  0  0  0  0  0  0  0
    0.0167   -0.2292    0.0000 C   0  0  0  0  0  0  0  0  0  0  0  0
    4.2917    0.6208    0.0000 C   0  0  0  0  0  0  0  0  0  0  0  0
    1.4500   -0.2292    0.0000 C   0  0  0  0  0  0  0  0  0  0  0  0
    5.0042    1.0375    0.0000 C   0  0  0  0  0  0  0  0  0  0  0  0
    5.7250    0.6333    0.0000 C   0  0  0  0  0  0  0  0  0  0  0  0
    2.8792   -0.2167    0.0000 C   0  0  0  0  0  0  0  0  0  0  0  0
    3.5917   -0.6250    0.0000 C   0  0  0  0  0  0  0  0  0  0  0  0
    2.1667   -0.6375    0.0000 C   0  0  0  0  0  0  0  0  0  0  0  0
    0.0167    0.5958    0.0000 C   0  0  0  0  0  0  0  0  0  0  0  0
    1.4417    0.6000    0.0000 C   0  0  0  0  0  0  0  0  0  0  0  0
    0.7292    1.0083    0.0000 C   0  0  0  0  0  0  0  0  0  0  0  0
    0.7375   -1.4667    0.0000 C   0  0  0  0  0  0  0  0  0  0  0  0
    5.0292   -1.4375    0.0000 C   0  0  0  0  0  0  0  0  0  0  0  0
    6.4417   -0.5917    0.0000 C   0  0  0  0  0  0  0  0  0  0  0  0
   -0.6958   -0.6500    0.0000 C   0  0  0  0  0  0  0  0  0  0  0  0
    6.4292    1.0458    0.0000 C   0  0  0  0  0  0  0  0  0  0  0  0
   -0.6958    1.0083    0.0000 C   0  0  0  0  0  0  0  0  0  0  0  0
    0.0250   -1.8792    0.0000 C   0  0  0  0  0  0  0  0  0  0  0  0
    4.3167   -1.8542    0.0000 C   0  0  0  0  0  0  0  0  0  0  0  0
    7.1500   -0.1792    0.0000 C   0  0  0  0  0  0  0  0  0  0  0  0
   -1.4083   -0.2375    0.0000 C   0  0  0  0  0  0  0  0  0  0  0  0
    7.1417    0.6458    0.0000 C   0  0  0  0  0  0  0  0  0  0  0  0
   -1.4083    0.5875    0.0000 C   0  0  0  0  0  0  0  0  0  0  0  0
    9.9257    0.6567    0.0000 S   0  0  3  0  0  0  0  0  0  0  0  0
    9.5913   -0.0956    0.0000 C   0  0  0  0  0  0  0  0  0  0  0  0
   10.6781    0.3223    0.0000 O   0  5  0  0  0  0  0  0  0  0  0  0
   10.2577    1.4124    0.0000 O   0  0  0  0  0  0  0  0  0  0  0  0
    9.1710    0.9945    0.0000 O   0  0  0  0  0  0  0  0  0  0  0  0
   10.0807   -0.7701    0.0000 C   0  0  0  0  0  0  0  0  0  0  0  0
    8.7724   -0.1802    0.0000 C   0  0  0  0  0  0  0  0  0  0  0  0
    9.7463   -1.5224    0.0000 C   0  0  0  0  0  0  0  0  0  0  0  0
    8.4428   -0.9392    0.0000 C   0  0  0  0  0  0  0  0  0  0  0  0
    8.9274   -1.6069    0.0000 C   0  0  0  0  0  0  0  0  0  0  0  0
    8.5896   -2.3617    0.0000 C   0  0  0  0  0  0  0  0  0  0  0  0
 13  5  1  0  0  0  0
 14  7  1  0  0  0  0
 15 14  2  0  0  0  0
 16  1  1  0  0  0  0
 17  2  1  0  0  0  0
 18  4  1  0  0  0  0
 19  5  2  0  0  0  0
 20  9  1  0  0  0  0
 21 13  2  0  0  0  0
 22 16  1  0  0  0  0
 23 17  1  0  0  0  0
 24 18  2  0  0  0  0
 25 19  1  0  0  0  0
 26 20  2  0  0  0  0
 27 25  2  0  0  0  0
 13 15  1  0  0  0  0
 27 21  1  0  0  0  0
  4  9  2  0  0  0  0
 26 24  1  0  0  0  0
  2  3  1  0  0  0  0
  3 11  2  0  0  0  0
  4  2  1  0  0  0  0
  5  1  1  0  0  0  0
  6  3  1  0  0  0  0
  7  1  2  0  0  0  0
  8  6  2  0  0  0  0
  9  8  1  0  0  0  0
 10 12  2  0  0  0  0
 11 10  1  0  0  0  0
 12  7  1  0  0  0  0
 29 28  1  0  0  0  0
 30 28  1  0  0  0  0
 31 28  2  0  0  0  0
 32 28  2  0  0  0  0
 33 29  1  0  0  0  0
 34 29  2  0  0  0  0
 35 33  2  0  0  0  0
 36 34  1  0  0  0  0
 37 36  2  0  0  0  0
 38 37  1  0  0  0  0
 37 35  1  0  0  0  0
M  CHG  2   1   1  30  -1
M  END
> <IDNUMBER>
F9995-0076

> <Chemical_Name>
1-ethyl-2-[(1E)-3-[(2E)-1-ethyl-1,2-dihydroquinolin-2-ylidene]prop-1-en-1-yl]quinolin-1-ium 4-methylbenzene-1-sulfonate

> <CAS>
14124-47-1

> <PriceCoeff>
1.00

> <MW>
353.48

> <Description>
solid

> <FSP3>
0.16

> <clogP>
1.88

> <TPSA>
7.12

> <Acceptor>
1

> <Donor>
1

> <RotBonds>
4

> <HAC>
27

> <Collection>
General

> <Reference_compound>
PRI5741

> <Similarity>
0.8100

$$$$
F1800-0200
  -ISIS-  06222321452D

 27 29  0  0  0  0  0  0  0  0999 V2000
   -5.0708    0.1333    0.0000 C   0  0  0  0  0  0  0  0  0  0  0  0
   -4.7583   -0.5500    0.0000 C   0  0  0  0  0  0  0  0  0  0  0  0
   -5.0833    2.7500    0.0000 N   0  0  3  0  0  0  0  0  0  0  0  0
   -5.8083    0.0583    0.0000 S   0  0  0  0  0  0  0  0  0  0  0  0
   -5.8458    2.7458    0.0000 C   0  0  0  0  0  0  0  0  0  0  0  0
   -5.3208   -1.0542    0.0000 C   0  0  0  0  0  0  0  0  0  0  0  0
   -5.9708   -0.6792    0.0000 C   0  0  0  0  0  0  0  0  0  0  0  0
   -4.6958    0.7958    0.0000 N   0  0  0  0  0  0  0  0  0  0  0  0
   -4.7208    3.4083    0.0000 C   0  0  0  0  0  0  0  0  0  0  0  0
   -4.0208   -0.7000    0.0000 C   0  0  0  0  0  0  0  0  0  0  0  0
   -5.0833    1.4458    0.0000 C   0  0  0  0  0  0  0  0  0  0  0  0
   -5.8458    4.0417    0.0000 S   0  0  0  0  0  0  0  0  0  0  0  0
   -4.7083    2.1000    0.0000 C   0  0  0  0  0  0  0  0  0  0  0  0
   -6.2125    3.3958    0.0000 C   0  0  3  0  0  0  0  0  0  0  0  0
   -5.0958    4.0542    0.0000 C   0  0  0  0  0  0  0  0  0  0  0  0
   -6.2167    2.0875    0.0000 O   0  0  0  0  0  0  0  0  0  0  0  0
   -3.9625    3.4208    0.0000 O   0  0  0  0  0  0  0  0  0  0  0  0
   -3.7750   -1.4042    0.0000 O   0  0  0  0  0  0  0  0  0  0  0  0
   -5.8333    1.4375    0.0000 O   0  0  0  0  0  0  0  0  0  0  0  0
   -3.5208   -0.1375    0.0000 O   0  0  0  0  0  0  0  0  0  0  0  0
   -5.3208   -1.8042    0.0000 C   0  0  0  0  0  0  0  0  0  0  0  0
   -6.6042   -1.0542    0.0000 C   0  0  0  0  0  0  0  0  0  0  0  0
   -6.9625    3.3708    0.0000 C   0  0  0  0  0  0  0  0  0  0  0  0
   -3.7583    0.5708    0.0000 C   0  0  0  0  0  0  0  0  0  0  0  0
   -5.9708   -2.1792    0.0000 C   0  0  0  0  0  0  0  0  0  0  0  0
   -6.6042   -1.8042    0.0000 C   0  0  0  0  0  0  0  0  0  0  0  0
   -3.2583    1.1333    0.0000 C   0  0  0  0  0  0  0  0  0  0  0  0
  2  1  2  0  0  0  0
  3 13  1  0  0  0  0
  4  1  1  0  0  0  0
  5  3  1  0  0  0  0
  6  2  1  0  0  0  0
  7  4  1  0  0  0  0
  8  1  1  0  0  0  0
  9  3  1  0  0  0  0
 10  2  1  0  0  0  0
 11  8  1  0  0  0  0
 12 15  1  0  0  0  0
 13 11  1  0  0  0  0
 14  5  1  0  0  0  0
 15  9  1  0  0  0  0
 16  5  2  0  0  0  0
 17  9  2  0  0  0  0
 18 10  2  0  0  0  0
 19 11  2  0  0  0  0
 20 10  1  0  0  0  0
 21  6  1  0  0  0  0
 22  7  1  0  0  0  0
 23 14  1  0  0  0  0
 24 20  1  0  0  0  0
 25 21  1  0  0  0  0
 26 22  1  0  0  0  0
 27 24  1  0  0  0  0
  7  6  2  0  0  0  0
 25 26  1  0  0  0  0
 12 14  1  0  0  0  0
M  END
> <IDNUMBER>
F1800-0200

> <Chemical_Name>
ethyl 2-[2-(2-methyl-3,5-dioxothiomorpholin-4-yl)acetamido]-4,5,6,7-tetrahydro-1-benzothiophene-3-carboxylate

> <CAS>
868216-19-7

> <PriceCoeff>
1.00

> <MW>
410.51

> <Description>
solid

> <FSP3>
0.56

> <clogP>
4.24

> <TPSA>
146.32

> <Acceptor>
5

> <Donor>
1

> <RotBonds>
6

> <HAC>
27

> <Collection>
General

$$$$
F3205-0015
  -ISIS-  06222321152D

 24 26  0  0  0  0  0  0  0  0999 V2000
    4.0542   -2.8667    0.0000 N   0  0  3  0  0  0  0  0  0  0  0  0
    4.5500   -3.5292    0.0000 C   0  0  0  0  0  0  0  0  0  0  0  0
    4.5417   -2.1917    0.0000 C   0  0  0  0  0  0  0  0  0  0  0  0
    5.3292   -3.2667    0.0000 C   0  0  3  0  0  0  0  0  0  0  0  0
    5.3292   -2.4417    0.0000 C   0  0  0  0  0  0  0  0  0  0  0  0
    5.9917   -3.7500    0.0000 N   0  0  0  0  0  0  0  0  0  0  0  0
    3.2375   -2.8667    0.0000 C   0  0  0  0  0  0  0  0  0  0  0  0
    4.2917   -4.3167    0.0000 O   0  0  0  0  0  0  0  0  0  0  0  0
    4.2792   -1.4125    0.0000 O   0  0  0  0  0  0  0  0  0  0  0  0
    6.7417   -3.4125    0.0000 C   0  0  0  0  0  0  0  0  0  0  0  0
    2.8167   -2.1542    0.0000 C   0  0  0  0  0  0  0  0  0  0  0  0
    8.2417   -2.7292    0.0000 C   0  0  0  0  0  0  0  0  0  0  0  0
    1.9792   -0.7417    0.0000 C   0  0  0  0  0  0  0  0  0  0  0  0
    7.4167   -3.8917    0.0000 C   0  0  0  0  0  0  0  0  0  0  0  0
    6.8250   -2.5917    0.0000 C   0  0  0  0  0  0  0  0  0  0  0  0
    3.2292   -1.4417    0.0000 C   0  0  0  0  0  0  0  0  0  0  0  0
    1.9917   -2.1667    0.0000 C   0  0  0  0  0  0  0  0  0  0  0  0
    8.1667   -3.5500    0.0000 C   0  0  0  0  0  0  0  0  0  0  0  0
    7.5667   -2.2542    0.0000 C   0  0  0  0  0  0  0  0  0  0  0  0
    1.5792   -1.4625    0.0000 C   0  0  0  0  0  0  0  0  0  0  0  0
    2.8125   -0.7375    0.0000 C   0  0  0  0  0  0  0  0  0  0  0  0
    9.0500   -2.5542    0.0000 O   0  0  0  0  0  0  0  0  0  0  0  0
    1.5667   -0.0292    0.0000 C   0  0  0  0  0  0  0  0  0  0  0  0
    9.4667   -3.2625    0.0000 C   0  0  0  0  0  0  0  0  0  0  0  0
  2  1  1  0  0  0  0
  3  1  1  0  0  0  0
  4  2  1  0  0  0  0
  5  3  1  0  0  0  0
  6  4  1  0  0  0  0
  7  1  1  0  0  0  0
  8  2  2  0  0  0  0
  9  3  2  0  0  0  0
 10  6  1  0  0  0  0
 11  7  1  0  0  0  0
 12 19  1  0  0  0  0
 13 20  1  0  0  0  0
 14 10  2  0  0  0  0
 15 10  1  0  0  0  0
 16 11  2  0  0  0  0
 17 11  1  0  0  0  0
 18 14  1  0  0  0  0
 19 15  2  0  0  0  0
 20 17  2  0  0  0  0
 21 16  1  0  0  0  0
 22 12  1  0  0  0  0
 23 13  1  0  0  0  0
 24 22  1  0  0  0  0
  5  4  1  0  0  0  0
 13 21  2  0  0  0  0
 18 12  2  0  0  0  0
M  END
> <IDNUMBER>
F3205-0015

> <Chemical_Name>
3-[(4-methoxyphenyl)amino]-1-[(4-methylphenyl)methyl]pyrrolidine-2,5-dione

> <CAS>
1008080-67-8

> <PriceCoeff>
1.00

> <MW>
324.37

> <Description>
solid

> <FSP3>
0.26

> <clogP>
3.83

> <TPSA>
58.64

> <Acceptor>
4

> <Donor>
1

> <RotBonds>
5

> <HAC>
24

> <Collection>
General

$$$$
F3097-5834
  -ISIS-  06222321442D

 23 24  0  0  0  0  0  0  0  0999 V2000
    8.3417   -2.0250    0.0000 N   0  3  0  0  0  0  0  0  0  0  0  0
    5.4792   -3.6875    0.0000 C   0  0  0  0  0  0  0  0  0  0  0  0
    6.1917   -3.2750    0.0000 C   0  0  0  0  0  0  0  0  0  0  0  0
    4.7667   -3.2750    0.0000 N   0  0  0  0  0  0  0  0  0  0  0  0
    4.0542   -3.6917    0.0000 C   0  0  0  0  0  0  0  0  0  0  0  0
    6.1917   -2.4417    0.0000 C   0  0  0  0  0  0  0  0  0  0  0  0
    7.6292   -2.4417    0.0000 C   0  0  0  0  0  0  0  0  0  0  0  0
    6.9042   -2.0292    0.0000 C   0  0  0  0  0  0  0  0  0  0  0  0
    6.9125   -3.6875    0.0000 C   0  0  0  0  0  0  0  0  0  0  0  0
    9.0667   -2.4375    0.0000 O   0  5  0  0  0  0  0  0  0  0  0  0
    8.3417   -1.1917    0.0000 O   0  0  0  0  0  0  0  0  0  0  0  0
    5.4792   -4.5042    0.0000 O   0  0  0  0  0  0  0  0  0  0  0  0
    7.6292   -3.2667    0.0000 C   0  0  0  0  0  0  0  0  0  0  0  0
    4.0542   -4.5250    0.0000 C   0  0  0  0  0  0  0  0  0  0  0  0
    3.3375   -3.2792    0.0000 C   0  0  0  0  0  0  0  0  0  0  0  0
    5.4667   -2.0292    0.0000 Cl  0  0  0  0  0  0  0  0  0  0  0  0
    2.6250   -4.5250    0.0000 C   0  0  0  0  0  0  0  0  0  0  0  0
    3.3375   -4.9375    0.0000 C   0  0  0  0  0  0  0  0  0  0  0  0
    2.6250   -3.7000    0.0000 C   0  0  0  0  0  0  0  0  0  0  0  0
    3.3292   -2.4542    0.0000 C   0  0  0  0  0  0  0  0  0  0  0  0
    4.7667   -4.9375    0.0000 C   0  0  0  0  0  0  0  0  0  0  0  0
    4.0500   -2.0417    0.0000 C   0  0  0  0  0  0  0  0  0  0  0  0
    4.7667   -5.7625    0.0000 C   0  0  0  0  0  0  0  0  0  0  0  0
  2  3  1  0  0  0  0
  3  9  1  0  0  0  0
  4  2  1  0  0  0  0
  5  4  1  0  0  0  0
  6  8  1  0  0  0  0
  7  1  1  0  0  0  0
  8  7  2  0  0  0  0
  9 13  2  0  0  0  0
 10  1  1  0  0  0  0
 11  1  2  0  0  0  0
 12  2  2  0  0  0  0
 13  7  1  0  0  0  0
 14  5  1  0  0  0  0
 15  5  2  0  0  0  0
 16  6  1  0  0  0  0
 17 19  2  0  0  0  0
 18 14  2  0  0  0  0
 19 15  1  0  0  0  0
 20 15  1  0  0  0  0
 21 14  1  0  0  0  0
 22 20  1  0  0  0  0
 23 21  1  0  0  0  0
  3  6  2  0  0  0  0
 18 17  1  0  0  0  0
M  CHG  2   1   1  10  -1
M  END
> <IDNUMBER>
F3097-5834

> <Chemical_Name>
2-chloro-N-(2,6-diethylphenyl)-4-nitrobenzamide

> <CAS>
449154-59-0

> <PriceCoeff>
1.00

> <MW>
332.78

> <Description>
solid

> <FSP3>
0.24

> <clogP>
3.09

> <TPSA>
72.24

> <Acceptor>
3

> <Donor>
1

> <RotBonds>
5

> <HAC>
23

> <Collection>
General

$$$$
F0196-1328
  -ISIS-  06222321452D

 25 28  0  0  0  0  0  0  0  0999 V2000
   -0.9833    1.2458    0.0000 C   0  0  0  0  0  0  0  0  0  0  0  0
   -1.6833    0.8208    0.0000 C   0  0  0  0  0  0  0  0  0  0  0  0
   -2.3833    1.2458    0.0000 C   0  0  0  0  0  0  0  0  0  0  0  0
   -0.9833    2.0625    0.0000 C   0  0  0  0  0  0  0  0  0  0  0  0
   -2.3833    2.0625    0.0000 C   0  0  0  0  0  0  0  0  0  0  0  0
   -0.2625    0.8458    0.0000 C   0  0  0  0  0  0  0  0  0  0  0  0
   -1.6833    2.4625    0.0000 O   0  0  0  0  0  0  0  0  0  0  0  0
    1.1542    0.8458    0.0000 C   0  0  0  0  0  0  0  0  0  0  0  0
    0.4375    1.2458    0.0000 C   0  0  0  0  0  0  0  0  0  0  0  0
   -3.1000    2.4625    0.0000 C   0  0  0  0  0  0  0  0  0  0  0  0
   -3.1000    0.8208    0.0000 C   0  0  0  0  0  0  0  0  0  0  0  0
    1.1542   -0.0000    0.0000 C   0  0  0  0  0  0  0  0  0  0  0  0
   -5.2208    2.0833    0.0000 C   0  0  0  0  0  0  0  0  0  0  0  0
   -1.6625   -0.0000    0.0000 O   0  0  0  0  0  0  0  0  0  0  0  0
   -3.8000    2.0625    0.0000 C   0  0  0  0  0  0  0  0  0  0  0  0
    1.8542    1.2458    0.0000 O   0  0  0  0  0  0  0  0  0  0  0  0
   -4.5000    2.4833    0.0000 O   0  0  0  0  0  0  0  0  0  0  0  0
   -0.2625   -0.0000    0.0000 C   0  0  0  0  0  0  0  0  0  0  0  0
    1.8792   -0.4000    0.0000 O   0  0  0  0  0  0  0  0  0  0  0  0
   -5.2458    1.2625    0.0000 O   0  0  0  0  0  0  0  0  0  0  0  0
    0.4542   -0.4000    0.0000 C   0  0  0  0  0  0  0  0  0  0  0  0
   -3.8000    1.2458    0.0000 C   0  0  0  0  0  0  0  0  0  0  0  0
   -5.9208    2.5000    0.0000 C   0  0  0  0  0  0  0  0  0  0  0  0
    2.5542    0.8458    0.0000 C   0  0  0  0  0  0  0  0  0  0  0  0
    2.5792   -0.0000    0.0000 C   0  0  0  0  0  0  0  0  0  0  0  0
  2  1  1  0  0  0  0
  3  2  1  0  0  0  0
  4  1  2  0  0  0  0
  5  7  1  0  0  0  0
  6  1  1  0  0  0  0
  7  4  1  0  0  0  0
  8  9  1  0  0  0  0
  9  6  2  0  0  0  0
 10  5  1  0  0  0  0
 11  3  1  0  0  0  0
 12 21  1  0  0  0  0
 13 17  1  0  0  0  0
 14  2  2  0  0  0  0
 15 10  2  0  0  0  0
 16  8  1  0  0  0  0
 17 15  1  0  0  0  0
 18  6  1  0  0  0  0
 19 12  1  0  0  0  0
 20 13  2  0  0  0  0
 21 18  2  0  0  0  0
 22 11  2  0  0  0  0
 23 13  1  0  0  0  0
 24 16  1  0  0  0  0
 25 19  1  0  0  0  0
  5  3  2  0  0  0  0
  8 12  2  0  0  0  0
 15 22  1  0  0  0  0
 24 25  1  0  0  0  0
M  END
> <IDNUMBER>
F0196-1328

> <Chemical_Name>
3-(2,3-dihydro-1,4-benzodioxin-6-yl)-4-oxo-4H-chromen-7-yl acetate

> <CAS>
170511-24-7

> <PriceCoeff>
1.00

> <MW>
338.31

> <Description>
solid

> <FSP3>
0.16

> <clogP>
2.45

> <TPSA>
71.06

> <Acceptor>
6

> <Donor>
0

> <RotBonds>
3

> <HAC>
25

> <Collection>
General

> <Reference_compound>
CHEMBL455048

> <Similarity>
0.8670

$$$$
F1175-0183
  -ISIS-  06222321452D

 27 29  0  0  0  0  0  0  0  0999 V2000
    8.7750    2.4833    0.0000 C   0  0  0  0  0  0  0  0  0  0  0  0
    9.8625    3.3708    0.0000 C   0  0  0  0  0  0  0  0  0  0  0  0
   10.6250    1.2208    0.0000 N   0  0  3  0  0  0  0  0  0  0  0  0
   11.0125    2.6083    0.0000 N   0  0  3  0  0  0  0  0  0  0  0  0
    9.2792    1.1875    0.0000 C   0  0  0  0  0  0  0  0  0  0  0  0
    7.3375    2.7750    0.0000 N   0  0  0  0  0  0  0  0  0  0  0  0
    6.4167    1.7208    0.0000 C   0  0  0  0  0  0  0  0  0  0  0  0
    0.9167    2.8833    0.0000 N   0  3  0  0  0  0  0  0  0  0  0  0
    5.0750    1.9750    0.0000 C   0  0  0  0  0  0  0  0  0  0  0  0
    4.6000    3.3333    0.0000 C   0  0  0  0  0  0  0  0  0  0  0  0
    2.2875    2.5625    0.0000 C   0  0  0  0  0  0  0  0  0  0  0  0
    3.2250    3.5833    0.0000 C   0  0  0  0  0  0  0  0  0  0  0  0
    4.1417    0.9208    0.0000 C   0  0  0  0  0  0  0  0  0  0  0  0
    9.7792    4.7542    0.0000 O   0  0  0  0  0  0  0  0  0  0  0  0
    0.5667    4.2292    0.0000 O   0  5  0  0  0  0  0  0  0  0  0  0
   12.3542    2.9583    0.0000 C   0  0  0  0  0  0  0  0  0  0  0  0
    0.0000    1.8583    0.0000 O   0  0  0  0  0  0  0  0  0  0  0  0
    6.8375    0.3833    0.0000 O   0  0  0  0  0  0  0  0  0  0  0  0
    2.7542    1.2208    0.0000 C   0  0  0  0  0  0  0  0  0  0  0  0
   11.4667    0.0833    0.0000 C   0  0  0  0  0  0  0  0  0  0  0  0
    5.4917    4.3750    0.0000 Cl  0  0  0  0  0  0  0  0  0  0  0  0
    8.4875   -0.0000    0.0000 C   0  0  0  0  0  0  0  0  0  0  0  0
   12.7292    4.2792    0.0000 C   0  0  0  0  0  0  0  0  0  0  0  0
   13.3625    1.9583    0.0000 C   0  0  0  0  0  0  0  0  0  0  0  0
   14.6667    2.3208    0.0000 C   0  0  0  0  0  0  0  0  0  0  0  0
   14.0667    4.6542    0.0000 C   0  0  0  0  0  0  0  0  0  0  0  0
   15.0417    3.6583    0.0000 C   0  0  0  0  0  0  0  0  0  0  0  0
  2  1  1  0  0  0  0
  3  5  1  0  0  0  0
  4  2  1  0  0  0  0
  5  1  2  0  0  0  0
  6  1  1  0  0  0  0
  7  6  1  0  0  0  0
  8 11  1  0  0  0  0
  9  7  1  0  0  0  0
 10  9  2  0  0  0  0
 11 19  1  0  0  0  0
 12 10  1  0  0  0  0
 13  9  1  0  0  0  0
 14  2  2  0  0  0  0
 15  8  1  0  0  0  0
 16  4  1  0  0  0  0
 17  8  2  0  0  0  0
 18  7  2  0  0  0  0
 19 13  2  0  0  0  0
 20  3  1  0  0  0  0
 21 10  1  0  0  0  0
 22  5  1  0  0  0  0
 23 16  1  0  0  0  0
 24 16  2  0  0  0  0
 25 24  1  0  0  0  0
 26 23  2  0  0  0  0
 27 25  2  0  0  0  0
  3  4  1  0  0  0  0
 11 12  2  0  0  0  0
 27 26  1  0  0  0  0
M  CHG  2   8   1  15  -1
M  END
> <IDNUMBER>
F1175-0183

> <Chemical_Name>
2-chloro-N-(1,5-dimethyl-3-oxo-2-phenyl-2,3-dihydro-1H-pyrazol-4-yl)-4-nitrobenzamide

> <CAS>
176165-78-9

> <PriceCoeff>
1.00

> <MW>
386.79

> <Description>
solid

> <FSP3>
0.11

> <clogP>
1.14

> <TPSA>
95.79

> <Acceptor>
4

> <Donor>
2

> <RotBonds>
4

> <HAC>
27

> <Collection>
General

$$$$
F1799-0488
  -ISIS-  06222321452D

 27 30  0  0  0  0  0  0  0  0999 V2000
    3.5042    0.5208    0.0000 N   0  0  3  0  0  0  0  0  0  0  0  0
    3.1000   -0.1125    0.0000 C   0  0  0  0  0  0  0  0  0  0  0  0
    3.0500    1.0958    0.0000 C   0  0  0  0  0  0  0  0  0  0  0  0
    2.3792    0.0875    0.0000 C   0  0  3  0  0  0  0  0  0  0  0  0
    2.3417    0.8333    0.0000 C   0  0  0  0  0  0  0  0  0  0  0  0
    1.7667   -0.3542    0.0000 N   0  0  3  0  0  0  0  0  0  0  0  0
    0.5417   -1.2417    0.0000 N   0  0  3  0  0  0  0  0  0  0  0  0
    4.2542    0.5708    0.0000 C   0  0  0  0  0  0  0  0  0  0  0  0
    3.3667   -0.8167    0.0000 O   0  0  0  0  0  0  0  0  0  0  0  0
    3.2667    1.8208    0.0000 O   0  0  0  0  0  0  0  0  0  0  0  0
    1.8417   -1.1042    0.0000 C   0  0  0  0  0  0  0  0  0  0  0  0
    1.0792   -0.0500    0.0000 C   0  0  0  0  0  0  0  0  0  0  0  0
   -0.0708   -1.6917    0.0000 C   0  0  0  0  0  0  0  0  0  0  0  0
    1.2375   -1.5417    0.0000 C   0  0  0  0  0  0  0  0  0  0  0  0
    0.4667   -0.4917    0.0000 C   0  0  0  0  0  0  0  0  0  0  0  0
    4.6750   -0.0542    0.0000 C   0  0  0  0  0  0  0  0  0  0  0  0
   -0.7583   -1.3792    0.0000 C   0  0  0  0  0  0  0  0  0  0  0  0
    5.4292   -0.0042    0.0000 C   0  0  0  0  0  0  0  0  0  0  0  0
    4.3417   -0.7292    0.0000 C   0  0  0  0  0  0  0  0  0  0  0  0
   -1.3708   -1.8167    0.0000 C   0  0  0  0  0  0  0  0  0  0  0  0
   -0.8333   -0.6375    0.0000 C   0  0  0  0  0  0  0  0  0  0  0  0
   -1.5208   -0.3250    0.0000 C   0  0  0  0  0  0  0  0  0  0  0  0
   -2.0500   -1.5125    0.0000 C   0  0  0  0  0  0  0  0  0  0  0  0
    4.7625   -1.3542    0.0000 C   0  0  0  0  0  0  0  0  0  0  0  0
    5.8417   -0.6292    0.0000 C   0  0  0  0  0  0  0  0  0  0  0  0
   -2.1250   -0.7625    0.0000 C   0  0  0  0  0  0  0  0  0  0  0  0
    5.5042   -1.3042    0.0000 C   0  0  0  0  0  0  0  0  0  0  0  0
  2  1  1  0  0  0  0
  3  1  1  0  0  0  0
  4  2  1  0  0  0  0
  5  3  1  0  0  0  0
  6  4  1  0  0  0  0
  7 15  1  0  0  0  0
  8  1  1  0  0  0  0
  9  2  2  0  0  0  0
 10  3  2  0  0  0  0
 11  6  1  0  0  0  0
 12  6  1  0  0  0  0
 13  7  1  0  0  0  0
 14 11  1  0  0  0  0
 15 12  1  0  0  0  0
 16  8  1  0  0  0  0
 17 13  1  0  0  0  0
 18 16  2  0  0  0  0
 19 16  1  0  0  0  0
 20 17  2  0  0  0  0
 21 17  1  0  0  0  0
 22 21  2  0  0  0  0
 23 20  1  0  0  0  0
 24 19  2  0  0  0  0
 25 18  1  0  0  0  0
 26 22  1  0  0  0  0
 27 24  1  0  0  0  0
  4  5  1  0  0  0  0
 25 27  2  0  0  0  0
 14  7  1  0  0  0  0
 23 26  2  0  0  0  0
M  END
> <IDNUMBER>
F1799-0488

> <Chemical_Name>
1-benzyl-3-(4-benzylpiperazin-1-yl)pyrrolidine-2,5-dione

> <CAS>
491615-86-2

> <PriceCoeff>
1.00

> <MW>
363.45

> <Description>
solid

> <FSP3>
0.36

> <clogP>
4.22

> <TPSA>
43.86

> <Acceptor>
4

> <Donor>
2

> <RotBonds>
5

> <HAC>
27

> <Collection>
General

$$$$
F0327-0368
  -ISIS-  06222321142D

 27 29  0  0  0  0  0  0  0  0999 V2000
    4.9500   -0.9542    0.0000 N   0  0  3  0  0  0  0  0  0  0  0  0
    5.4500   -0.4000    0.0000 C   0  0  0  0  0  0  0  0  0  0  0  0
    5.3042   -1.6000    0.0000 C   0  0  0  0  0  0  0  0  0  0  0  0
    1.9500   -0.9542    0.0000 C   0  0  0  0  0  0  0  0  0  0  0  0
    1.5875   -0.3167    0.0000 N   0  0  0  0  0  0  0  0  0  0  0  0
   -1.4125   -0.3167    0.0000 C   0  0  0  0  0  0  0  0  0  0  0  0
    4.1875   -0.9542    0.0000 C   0  0  0  0  0  0  0  0  0  0  0  0
    2.7042   -0.9542    0.0000 C   0  0  0  0  0  0  0  0  0  0  0  0
   -0.6708   -0.3167    0.0000 C   0  0  0  0  0  0  0  0  0  0  0  0
    6.0292   -1.4375    0.0000 C   0  0  0  0  0  0  0  0  0  0  0  0
    6.1292   -0.7000    0.0000 C   0  0  0  0  0  0  0  0  0  0  0  0
    1.5875   -1.6000    0.0000 O   0  0  0  0  0  0  0  0  0  0  0  0
    5.2875    0.3625    0.0000 O   0  0  0  0  0  0  0  0  0  0  0  0
    5.0292   -2.2792    0.0000 O   0  0  0  0  0  0  0  0  0  0  0  0
   -1.7958    0.3458    0.0000 O   0  0  0  0  0  0  0  0  0  0  0  0
    3.8292   -0.3167    0.0000 C   0  0  0  0  0  0  0  0  0  0  0  0
    3.8292   -1.6000    0.0000 C   0  0  0  0  0  0  0  0  0  0  0  0
    3.0667   -1.6000    0.0000 C   0  0  0  0  0  0  0  0  0  0  0  0
    3.0667   -0.3167    0.0000 C   0  0  0  0  0  0  0  0  0  0  0  0
    0.8292   -0.3167    0.0000 C   0  0  0  0  0  0  0  0  0  0  0  0
   -0.2958    0.3458    0.0000 C   0  0  0  0  0  0  0  0  0  0  0  0
   -0.2958   -0.9542    0.0000 C   0  0  0  0  0  0  0  0  0  0  0  0
   -1.7958   -0.9542    0.0000 O   0  0  0  0  0  0  0  0  0  0  0  0
    0.4667   -0.9542    0.0000 C   0  0  0  0  0  0  0  0  0  0  0  0
    0.4667    0.3458    0.0000 C   0  0  0  0  0  0  0  0  0  0  0  0
   -2.5333   -0.9542    0.0000 C   0  0  0  0  0  0  0  0  0  0  0  0
   -2.9125   -1.6000    0.0000 C   0  0  0  0  0  0  0  0  0  0  0  0
  2  1  1  0  0  0  0
  3  1  1  0  0  0  0
  4  8  1  0  0  0  0
  5  4  1  0  0  0  0
  6  9  1  0  0  0  0
  7  1  1  0  0  0  0
  8 18  2  0  0  0  0
  9 21  2  0  0  0  0
 10  3  1  0  0  0  0
 11  2  1  0  0  0  0
 12  4  2  0  0  0  0
 13  2  2  0  0  0  0
 14  3  2  0  0  0  0
 15  6  2  0  0  0  0
 16  7  1  0  0  0  0
 17  7  2  0  0  0  0
 18 17  1  0  0  0  0
 19 16  2  0  0  0  0
 20  5  1  0  0  0  0
 21 25  1  0  0  0  0
 22 24  2  0  0  0  0
 23  6  1  0  0  0  0
 24 20  1  0  0  0  0
 25 20  2  0  0  0  0
 26 23  1  0  0  0  0
 27 26  1  0  0  0  0
 11 10  1  0  0  0  0
 19  8  1  0  0  0  0
 22  9  1  0  0  0  0
M  END
> <IDNUMBER>
F0327-0368

> <Chemical_Name>
ethyl 4-[4-(2,5-dioxopyrrolidin-1-yl)benzamido]benzoate

> <CAS>
330200-91-4

> <PriceCoeff>
1.00

> <MW>
366.37

> <Description>
solid

> <FSP3>
0.20

> <clogP>
1.76

> <TPSA>
92.78

> <Acceptor>
5

> <Donor>
1

> <RotBonds>
6

> <HAC>
27

> <Collection>
General

$$$$
F1533-0348
  -ISIS-  06222321142D

 18 19  0  0  0  0  0  0  0  0999 V2000
   10.0625  -17.1625    0.0000 C   0  0  0  0  0  0  0  0  0  0  0  0
    9.3500  -17.5792    0.0000 N   0  0  3  0  0  0  0  0  0  0  0  0
   10.7792  -17.5667    0.0000 N   0  0  3  0  0  0  0  0  0  0  0  0
   10.0542  -16.3375    0.0000 S   0  0  0  0  0  0  0  0  0  0  0  0
   11.4917  -17.1500    0.0000 C   0  0  0  0  0  0  0  0  0  0  0  0
   12.2042  -17.5625    0.0000 C   0  0  0  0  0  0  0  0  0  0  0  0
   12.9167  -17.1417    0.0000 C   0  0  0  0  0  0  0  0  0  0  0  0
    8.6292  -17.1667    0.0000 C   0  0  0  0  0  0  0  0  0  0  0  0
    9.3542  -18.4042    0.0000 C   0  0  0  0  0  0  0  0  0  0  0  0
   13.6292  -17.5500    0.0000 O   0  0  0  0  0  0  0  0  0  0  0  0
   12.1875  -15.9042    0.0000 C   0  0  0  0  0  0  0  0  0  0  0  0
   11.4792  -16.3292    0.0000 C   0  0  0  0  0  0  0  0  0  0  0  0
   12.9125  -16.3125    0.0000 C   0  0  0  0  0  0  0  0  0  0  0  0
   14.3417  -17.1292    0.0000 C   0  0  0  0  0  0  0  0  0  0  0  0
    7.9167  -17.5875    0.0000 C   0  0  0  0  0  0  0  0  0  0  0  0
    8.6417  -18.8167    0.0000 C   0  0  0  0  0  0  0  0  0  0  0  0
    7.9250  -18.4042    0.0000 C   0  0  0  0  0  0  0  0  0  0  0  0
   10.7792  -18.3917    0.0000 H   0  0  0  0  0  0  0  0  0  0  0  0
  2  1  1  0  0  0  0
  3  1  1  0  0  0  0
  4  1  2  0  0  0  0
  5  3  1  0  0  0  0
  6  5  2  0  0  0  0
  7  6  1  0  0  0  0
  8  2  1  0  0  0  0
  9  2  1  0  0  0  0
 10  7  1  0  0  0  0
 11 12  2  0  0  0  0
 12  5  1  0  0  0  0
 13 11  1  0  0  0  0
 14 10  1  0  0  0  0
 15  8  1  0  0  0  0
 16  9  1  0  0  0  0
 17 16  1  0  0  0  0
 18  3  1  0  0  0  0
 15 17  1  0  0  0  0
  7 13  2  0  0  0  0
M  END
> <IDNUMBER>
F1533-0348

> <Chemical_Name>
N-(3-methoxyphenyl)piperidine-1-carbothioamide

> <CAS>
501077-56-1

> <PriceCoeff>
1.00

> <MW>
250.36

> <Description>
solid

> <FSP3>
0.46

> <clogP>
2.91

> <TPSA>
56.59

> <Acceptor>
2

> <Donor>
2

> <RotBonds>
3

> <HAC>
17

> <Collection>
General

> <Reference_compound>
CHEMBL4099934

> <Similarity>
0.8560

$$$$
F1736-0003
  -ISIS-  06222321142D

 23 25  0  0  0  0  0  0  0  0999 V2000
    4.1042   -3.5042    0.0000 N   0  3  0  0  0  0  0  0  0  0  0  0
    2.6875   -0.1917    0.0000 C   0  0  3  0  0  0  0  0  0  0  0  0
    3.4042    0.2125    0.0000 C   0  0  0  0  0  0  0  0  0  0  0  0
    1.9667    0.2250    0.0000 O   0  0  0  0  0  0  0  0  0  0  0  0
    4.1167   -0.2000    0.0000 N   0  0  0  0  0  0  0  0  0  0  0  0
    4.1042   -2.6750    0.0000 C   0  0  0  0  0  0  0  0  0  0  0  0
    4.8250   -2.2542    0.0000 C   0  0  0  0  0  0  0  0  0  0  0  0
    1.9625   -1.4417    0.0000 O   0  0  0  0  0  0  0  0  0  0  0  0
    4.1125   -1.0292    0.0000 C   0  0  0  0  0  0  0  0  0  0  0  0
    4.8250   -1.4375    0.0000 C   0  0  0  0  0  0  0  0  0  0  0  0
    1.2500   -0.1917    0.0000 C   0  0  0  0  0  0  0  0  0  0  0  0
    3.3917   -3.9167    0.0000 O   0  5  0  0  0  0  0  0  0  0  0  0
    2.6875   -1.0292    0.0000 C   0  0  0  0  0  0  0  0  0  0  0  0
    1.2417   -1.0292    0.0000 C   0  0  0  0  0  0  0  0  0  0  0  0
    4.8167   -3.9167    0.0000 O   0  0  0  0  0  0  0  0  0  0  0  0
    3.4042    1.0375    0.0000 O   0  0  0  0  0  0  0  0  0  0  0  0
    3.3917   -2.2625    0.0000 C   0  0  0  0  0  0  0  0  0  0  0  0
    3.3917   -1.4292    0.0000 C   0  0  0  0  0  0  0  0  0  0  0  0
    5.5375   -1.0167    0.0000 Cl  0  0  0  0  0  0  0  0  0  0  0  0
    0.5292    0.2208    0.0000 C   0  0  0  0  0  0  0  0  0  0  0  0
    0.5292   -1.4375    0.0000 C   0  0  0  0  0  0  0  0  0  0  0  0
   -0.1833   -0.2000    0.0000 C   0  0  0  0  0  0  0  0  0  0  0  0
   -0.1833   -1.0250    0.0000 C   0  0  0  0  0  0  0  0  0  0  0  0
  2  3  1  0  0  0  0
  3  5  1  0  0  0  0
  4  2  1  0  0  0  0
  5  9  1  0  0  0  0
  6  1  1  0  0  0  0
  7  6  1  0  0  0  0
  8 13  1  0  0  0  0
  9 18  2  0  0  0  0
 10  7  2  0  0  0  0
 11  4  1  0  0  0  0
 12  1  1  0  0  0  0
 13  2  1  0  0  0  0
 14  8  1  0  0  0  0
 15  1  2  0  0  0  0
 16  3  2  0  0  0  0
 17  6  2  0  0  0  0
 18 17  1  0  0  0  0
 19 10  1  0  0  0  0
 20 11  2  0  0  0  0
 21 14  2  0  0  0  0
 22 20  1  0  0  0  0
 23 21  1  0  0  0  0
 10  9  1  0  0  0  0
 11 14  1  0  0  0  0
 22 23  2  0  0  0  0
M  CHG  2   1   1  12  -1
M  END
> <IDNUMBER>
F1736-0003

> <Chemical_Name>
N-(2-chloro-4-nitrophenyl)-2,3-dihydro-1,4-benzodioxine-2-carboxamide

> <CAS>
879577-18-1

> <PriceCoeff>
1.00

> <MW>
334.71

> <Description>
solid

> <FSP3>
0.13

> <clogP>
2.83

> <TPSA>
90.70

> <Acceptor>
5

> <Donor>
1

> <RotBonds>
3

> <HAC>
23

> <Collection>
General

$$$$
F3023-0301
  -ISIS-  06222321442D

 28 30  0  0  0  0  0  0  0  0999 V2000
    6.0375   -1.6500    0.0000 N   0  0  3  0  0  0  0  0  0  0  0  0
    6.4542   -1.0667    0.0000 C   0  0  0  0  0  0  0  0  0  0  0  0
    6.4625   -2.2292    0.0000 C   0  0  0  0  0  0  0  0  0  0  0  0
    7.1417   -2.0042    0.0000 C   0  0  3  0  0  0  0  0  0  0  0  0
    7.1417   -1.2875    0.0000 C   0  0  0  0  0  0  0  0  0  0  0  0
    8.3792   -2.1250    0.0000 C   0  0  0  0  0  0  0  0  0  0  0  0
    8.9542   -2.5417    0.0000 C   0  0  0  0  0  0  0  0  0  0  0  0
    7.7250   -2.4167    0.0000 S   0  0  0  0  0  0  0  0  0  0  0  0
    8.8875   -3.2625    0.0000 C   0  0  0  0  0  0  0  0  0  0  0  0
    5.3167   -1.6542    0.0000 C   0  0  0  0  0  0  0  0  0  0  0  0
    3.1750   -1.6667    0.0000 C   0  0  0  0  0  0  0  0  0  0  0  0
    8.4417   -1.4167    0.0000 N   0  0  0  0  0  0  0  0  0  0  0  0
    6.2292   -0.3875    0.0000 O   0  0  0  0  0  0  0  0  0  0  0  0
    6.2417   -2.9125    0.0000 O   0  0  0  0  0  0  0  0  0  0  0  0
    3.8917   -1.6625    0.0000 C   0  0  0  0  0  0  0  0  0  0  0  0
    9.4667   -3.6792    0.0000 O   0  0  0  0  0  0  0  0  0  0  0  0
    2.8125   -1.0500    0.0000 O   0  0  0  0  0  0  0  0  0  0  0  0
    4.9625   -1.0375    0.0000 C   0  0  0  0  0  0  0  0  0  0  0  0
    4.9667   -2.2750    0.0000 C   0  0  0  0  0  0  0  0  0  0  0  0
    4.2542   -2.2792    0.0000 C   0  0  0  0  0  0  0  0  0  0  0  0
    4.2417   -1.0417    0.0000 C   0  0  0  0  0  0  0  0  0  0  0  0
    8.2292   -3.5542    0.0000 O   0  0  0  0  0  0  0  0  0  0  0  0
    2.8167   -2.2917    0.0000 O   0  0  0  0  0  0  0  0  0  0  0  0
    9.6125   -2.2500    0.0000 C   0  0  0  0  0  0  0  0  0  0  0  0
    9.0917   -1.1167    0.0000 C   0  0  0  0  0  0  0  0  0  0  0  0
    2.1042   -2.2917    0.0000 C   0  0  0  0  0  0  0  0  0  0  0  0
    9.6792   -1.5375    0.0000 C   0  0  0  0  0  0  0  0  0  0  0  0
    1.7500   -2.9167    0.0000 C   0  0  0  0  0  0  0  0  0  0  0  0
  2  1  1  0  0  0  0
  3  1  1  0  0  0  0
  4  3  1  0  0  0  0
  5  2  1  0  0  0  0
  6  8  1  0  0  0  0
  7  6  2  0  0  0  0
  8  4  1  0  0  0  0
  9  7  1  0  0  0  0
 10  1  1  0  0  0  0
 11 15  1  0  0  0  0
 12  6  1  0  0  0  0
 13  2  2  0  0  0  0
 14  3  2  0  0  0  0
 15 20  1  0  0  0  0
 16  9  2  0  0  0  0
 17 11  2  0  0  0  0
 18 10  2  0  0  0  0
 19 10  1  0  0  0  0
 20 19  2  0  0  0  0
 21 18  1  0  0  0  0
 22  9  1  0  0  0  0
 23 11  1  0  0  0  0
 24  7  1  0  0  0  0
 25 12  2  0  0  0  0
 26 23  1  0  0  0  0
 27 25  1  0  0  0  0
 28 26  1  0  0  0  0
  5  4  1  0  0  0  0
 15 21  2  0  0  0  0
 27 24  2  0  0  0  0
M  END
> <IDNUMBER>
F3023-0301

> <Chemical_Name>
2-({1-[4-(ethoxycarbonyl)phenyl]-2,5-dioxopyrrolidin-3-yl}sulfanyl)pyridine-3-carboxylic acid

> <CAS>
831206-98-5

> <PriceCoeff>
1.00

> <MW>
400.41

> <Description>
solid

> <FSP3>
0.21

> <clogP>
2.52

> <TPSA>
139.17

> <Acceptor>
7

> <Donor>
1

> <RotBonds>
7

> <HAC>
28

> <Collection>
General

$$$$
F0758-0027
  -ISIS-  06222321442D

 21 23  0  0  0  0  0  0  0  0999 V2000
   -0.8708    0.1708    0.0000 C   0  0  0  0  0  0  0  0  0  0  0  0
   -1.7125    1.6125    0.0000 C   0  0  0  0  0  0  0  0  0  0  0  0
   -0.0333    0.6500    0.0000 C   0  0  0  0  0  0  0  0  0  0  0  0
   -1.7125    0.6500    0.0000 C   0  0  0  0  0  0  0  0  0  0  0  0
   -0.8708    2.0958    0.0000 O   0  0  0  0  0  0  0  0  0  0  0  0
   -0.0333    1.6125    0.0000 C   0  0  0  0  0  0  0  0  0  0  0  0
   -2.5333    2.0958    0.0000 C   0  0  0  0  0  0  0  0  0  0  0  0
   -2.5333    0.1708    0.0000 C   0  0  0  0  0  0  0  0  0  0  0  0
   -0.8708   -0.7875    0.0000 O   0  0  0  0  0  0  0  0  0  0  0  0
   -3.3708    1.6125    0.0000 C   0  0  0  0  0  0  0  0  0  0  0  0
    0.8042    0.1708    0.0000 C   0  0  0  0  0  0  0  0  0  0  0  0
   -3.3708    0.6500    0.0000 C   0  0  0  0  0  0  0  0  0  0  0  0
    0.8292    2.1125    0.0000 C   0  0  0  0  0  0  0  0  0  0  0  0
   -4.2333    2.1125    0.0000 O   0  0  0  0  0  0  0  0  0  0  0  0
   -2.5125    2.9708    0.0000 C   0  0  0  0  0  0  0  0  0  0  0  0
    0.8042   -0.7875    0.0000 C   0  0  0  0  0  0  0  0  0  0  0  0
    1.6292    0.6500    0.0000 C   0  0  0  0  0  0  0  0  0  0  0  0
   -5.0500    1.6333    0.0000 C   0  0  0  0  0  0  0  0  0  0  0  0
    1.6292   -1.2667    0.0000 C   0  0  0  0  0  0  0  0  0  0  0  0
    2.4667    0.1708    0.0000 C   0  0  0  0  0  0  0  0  0  0  0  0
    2.4667   -0.7875    0.0000 C   0  0  0  0  0  0  0  0  0  0  0  0
  2  4  2  0  0  0  0
  3  1  1  0  0  0  0
  4  1  1  0  0  0  0
  5  2  1  0  0  0  0
  6  3  2  0  0  0  0
  7  2  1  0  0  0  0
  8  4  1  0  0  0  0
  9  1  2  0  0  0  0
 10 12  1  0  0  0  0
 11  3  1  0  0  0  0
 12  8  2  0  0  0  0
 13  6  1  0  0  0  0
 14 10  1  0  0  0  0
 15  7  1  0  0  0  0
 16 11  1  0  0  0  0
 17 11  2  0  0  0  0
 18 14  1  0  0  0  0
 19 16  2  0  0  0  0
 20 17  1  0  0  0  0
 21 20  2  0  0  0  0
  5  6  1  0  0  0  0
  7 10  2  0  0  0  0
 19 21  1  0  0  0  0
M  END
> <IDNUMBER>
F0758-0027

> <Chemical_Name>
7-methoxy-2,8-dimethyl-3-phenyl-4H-chromen-4-one

> <CAS>
315233-57-9

> <PriceCoeff>
1.00

> <MW>
280.32

> <Description>
solid

> <FSP3>
0.17

> <clogP>
3.78

> <TPSA>
35.53

> <Acceptor>
3

> <Donor>
0

> <RotBonds>
2

> <HAC>
21

> <Collection>
General

> <Reference_compound>
CHEMBL463936

> <Similarity>
0.8280

$$$$
F2784-0320
  -ISIS-  06222321442D

 28 30  0  0  0  0  0  0  0  0999 V2000
   -3.0583    7.5292    0.0000 N   0  0  3  0  0  0  0  0  0  0  0  0
   -3.7708    0.4875    0.0000 N   0  3  0  0  0  0  0  0  0  0  0  0
   -3.7708    2.9833    0.0000 C   0  0  0  0  0  0  0  0  0  0  0  0
   -3.7583    3.8000    0.0000 C   0  0  0  0  0  0  0  0  0  0  0  0
   -3.0500    6.7000    0.0000 C   0  0  0  0  0  0  0  0  0  0  0  0
   -3.0375    2.5583    0.0000 C   0  0  0  0  0  0  0  0  0  0  0  0
   -2.3375    7.9417    0.0000 C   0  0  0  0  0  0  0  0  0  0  0  0
   -3.7625    1.3125    0.0000 C   0  0  0  0  0  0  0  0  0  0  0  0
   -3.7708    6.2792    0.0000 C   0  0  0  0  0  0  0  0  0  0  0  0
   -3.0375    1.7250    0.0000 C   0  0  0  0  0  0  0  0  0  0  0  0
   -3.0458    4.2125    0.0000 N   0  0  0  0  0  0  0  0  0  0  0  0
   -4.4833    2.5625    0.0000 C   0  0  0  0  0  0  0  0  0  0  0  0
   -3.7625    5.4500    0.0000 C   0  0  0  0  0  0  0  0  0  0  0  0
   -2.3333    6.2792    0.0000 C   0  0  0  0  0  0  0  0  0  0  0  0
   -4.4833    0.0833    0.0000 O   0  5  0  0  0  0  0  0  0  0  0  0
   -3.0458    5.0417    0.0000 C   0  0  0  0  0  0  0  0  0  0  0  0
   -3.0583    0.0750    0.0000 O   0  0  0  0  0  0  0  0  0  0  0  0
   -4.4750    4.2042    0.0000 O   0  0  0  0  0  0  0  0  0  0  0  0
   -4.4833    1.7333    0.0000 C   0  0  0  0  0  0  0  0  0  0  0  0
   -1.6208    7.5292    0.0000 O   0  0  0  0  0  0  0  0  0  0  0  0
   -2.3208    2.9625    0.0000 Cl  0  0  0  0  0  0  0  0  0  0  0  0
   -2.3333    5.4542    0.0000 C   0  0  0  0  0  0  0  0  0  0  0  0
   -3.7750    7.9375    0.0000 C   0  0  0  0  0  0  0  0  0  0  0  0
   -4.4875    6.6917    0.0000 O   0  0  0  0  0  0  0  0  0  0  0  0
   -2.3458    8.7750    0.0000 C   0  0  0  0  0  0  0  0  0  0  0  0
   -4.4958    7.5167    0.0000 C   0  0  0  0  0  0  0  0  0  0  0  0
   -3.7750    8.7667    0.0000 C   0  0  0  0  0  0  0  0  0  0  0  0
   -3.0625    9.1875    0.0000 C   0  0  0  0  0  0  0  0  0  0  0  0
  2  8  1  0  0  0  0
  3  4  1  0  0  0  0
  4 11  1  0  0  0  0
  5  1  1  0  0  0  0
  6  3  1  0  0  0  0
  7  1  1  0  0  0  0
  8 19  2  0  0  0  0
  9  5  2  0  0  0  0
 10  6  2  0  0  0  0
 11 16  1  0  0  0  0
 12  3  2  0  0  0  0
 13  9  1  0  0  0  0
 14  5  1  0  0  0  0
 15  2  1  0  0  0  0
 16 22  1  0  0  0  0
 17  2  2  0  0  0  0
 18  4  2  0  0  0  0
 19 12  1  0  0  0  0
 20  7  2  0  0  0  0
 21  6  1  0  0  0  0
 22 14  2  0  0  0  0
 23  1  1  0  0  0  0
 24  9  1  0  0  0  0
 25  7  1  0  0  0  0
 26 24  1  0  0  0  0
 27 23  1  0  0  0  0
 28 27  1  0  0  0  0
 28 25  1  0  0  0  0
 13 16  2  0  0  0  0
 10  8  1  0  0  0  0
M  CHG  2   2   1  15  -1
M  END
> <IDNUMBER>
F2784-0320

> <Chemical_Name>
2-chloro-N-[3-methoxy-4-(2-oxopiperidin-1-yl)phenyl]-4-nitrobenzamide

> <CAS>
941978-83-2

> <PriceCoeff>
1.00

> <MW>
403.82

> <Description>
solid

> <FSP3>
0.26

> <clogP>
3.24

> <TPSA>
101.78

> <Acceptor>
5

> <Donor>
1

> <RotBonds>
5

> <HAC>
28

> <Collection>
General

$$$$
F3205-0063
  -ISIS-  06222321442D

 28 30  0  0  0  0  0  0  0  0999 V2000
    2.7917    0.2458    0.0000 N   0  0  3  0  0  0  0  0  0  0  0  0
    3.2750    0.9083    0.0000 C   0  0  0  0  0  0  0  0  0  0  0  0
    3.2750   -0.4292    0.0000 C   0  0  0  0  0  0  0  0  0  0  0  0
    4.0542   -0.1792    0.0000 C   0  0  3  0  0  0  0  0  0  0  0  0
    4.0625    0.6500    0.0000 C   0  0  0  0  0  0  0  0  0  0  0  0
    5.4792   -0.1792    0.0000 C   0  0  0  0  0  0  0  0  0  0  0  0
    6.1917   -0.6000    0.0000 C   0  0  0  0  0  0  0  0  0  0  0  0
    4.7667   -0.5917    0.0000 S   0  0  0  0  0  0  0  0  0  0  0  0
   -0.9083    0.9708    0.0000 C   0  0  3  0  0  0  0  0  0  0  0  0
    6.1792   -1.4250    0.0000 C   0  0  0  0  0  0  0  0  0  0  0  0
    1.9667    0.2458    0.0000 C   0  0  0  0  0  0  0  0  0  0  0  0
    5.4917    0.6458    0.0000 N   0  0  0  0  0  0  0  0  0  0  0  0
    3.0250    1.6958    0.0000 O   0  0  0  0  0  0  0  0  0  0  0  0
    3.0167   -1.2125    0.0000 O   0  0  0  0  0  0  0  0  0  0  0  0
   -0.4958    0.2583    0.0000 O   0  0  0  0  0  0  0  0  0  0  0  0
    6.8917   -1.8417    0.0000 O   0  0  0  0  0  0  0  0  0  0  0  0
    1.5542    0.9583    0.0000 C   0  0  0  0  0  0  0  0  0  0  0  0
    1.5542   -0.4625    0.0000 C   0  0  0  0  0  0  0  0  0  0  0  0
   -0.5958    1.7708    0.0000 F   0  0  0  0  0  0  0  0  0  0  0  0
   -1.7500    1.1083    0.0000 F   0  0  0  0  0  0  0  0  0  0  0  0
   -1.2750    1.6208    0.0000 F   0  0  0  0  0  0  0  0  0  0  0  0
    0.3292    0.2500    0.0000 C   0  0  0  0  0  0  0  0  0  0  0  0
    5.4667   -1.8375    0.0000 O   0  0  0  0  0  0  0  0  0  0  0  0
    0.7417    0.9583    0.0000 C   0  0  0  0  0  0  0  0  0  0  0  0
    0.7375   -0.4625    0.0000 C   0  0  0  0  0  0  0  0  0  0  0  0
    6.9042   -0.1917    0.0000 C   0  0  0  0  0  0  0  0  0  0  0  0
    6.2042    1.0458    0.0000 C   0  0  0  0  0  0  0  0  0  0  0  0
    6.9125    0.6333    0.0000 C   0  0  0  0  0  0  0  0  0  0  0  0
  2  1  1  0  0  0  0
  3  1  1  0  0  0  0
  4  3  1  0  0  0  0
  5  2  1  0  0  0  0
  6  8  1  0  0  0  0
  7  6  1  0  0  0  0
  8  4  1  0  0  0  0
  9 15  1  0  0  0  0
 10  7  1  0  0  0  0
 11  1  1  0  0  0  0
 12  6  2  0  0  0  0
 13  2  2  0  0  0  0
 14  3  2  0  0  0  0
 15 22  1  0  0  0  0
 16 10  2  0  0  0  0
 17 11  1  0  0  0  0
 18 11  2  0  0  0  0
 19  9  1  0  0  0  0
 20  9  1  0  0  0  0
 21  9  1  0  0  0  0
 22 25  2  0  0  0  0
 23 10  1  0  0  0  0
 24 17  2  0  0  0  0
 25 18  1  0  0  0  0
 26  7  2  0  0  0  0
 27 12  1  0  0  0  0
 28 27  2  0  0  0  0
  4  5  1  0  0  0  0
 22 24  1  0  0  0  0
 28 26  1  0  0  0  0
M  END
> <IDNUMBER>
F3205-0063

> <Chemical_Name>
2-({2,5-dioxo-1-[4-(trifluoromethoxy)phenyl]pyrrolidin-3-yl}sulfanyl)pyridine-3-carboxylic acid

> <CAS>
280133-24-6

> <PriceCoeff>
1.00

> <MW>
412.34

> <Description>
solid

> <FSP3>
0.18

> <clogP>
2.71

> <TPSA>
122.10

> <Acceptor>
6

> <Donor>
1

> <RotBonds>
5

> <HAC>
28

> <Collection>
General

$$$$
F3385-1001
  -ISIS-  06222321442D

 22 24  0  0  0  0  0  0  0  0999 V2000
    5.2250    0.5833    0.0000 C   0  0  0  0  0  0  0  0  0  0  0  0
    4.5125    0.1708    0.0000 C   0  0  0  0  0  0  0  0  0  0  0  0
    3.8042    0.5833    0.0000 C   0  0  0  0  0  0  0  0  0  0  0  0
    5.2250    1.4083    0.0000 C   0  0  0  0  0  0  0  0  0  0  0  0
    3.8000    1.4000    0.0000 C   0  0  0  0  0  0  0  0  0  0  0  0
    4.5042    1.8208    0.0000 O   0  0  0  0  0  0  0  0  0  0  0  0
   -0.4833    2.2250    0.0000 N   0  0  0  0  0  0  0  0  0  0  0  0
    5.9375    0.1750    0.0000 C   0  0  0  0  0  0  0  0  0  0  0  0
    3.0875    0.1625    0.0000 C   0  0  0  0  0  0  0  0  0  0  0  0
    3.0875    1.8208    0.0000 C   0  0  0  0  0  0  0  0  0  0  0  0
    0.2292    1.8125    0.0000 C   0  0  0  0  0  0  0  0  0  0  0  0
    4.5125   -0.6542    0.0000 O   0  0  0  0  0  0  0  0  0  0  0  0
    6.6500    0.5833    0.0000 C   0  0  0  0  0  0  0  0  0  0  0  0
    5.9375   -0.6542    0.0000 C   0  0  0  0  0  0  0  0  0  0  0  0
    2.3750    1.4000    0.0000 C   0  0  0  0  0  0  0  0  0  0  0  0
    2.3750    0.5750    0.0000 C   0  0  0  0  0  0  0  0  0  0  0  0
    7.3625   -0.6542    0.0000 C   0  0  0  0  0  0  0  0  0  0  0  0
    6.6500   -1.0667    0.0000 C   0  0  0  0  0  0  0  0  0  0  0  0
    7.3625    0.1750    0.0000 C   0  0  0  0  0  0  0  0  0  0  0  0
    8.0792   -1.0667    0.0000 Br  0  0  0  0  0  0  0  0  0  0  0  0
    1.6625    1.8125    0.0000 O   0  0  0  0  0  0  0  0  0  0  0  0
    0.9417    1.4000    0.0000 C   0  0  0  0  0  0  0  0  0  0  0  0
  2  1  1  0  0  0  0
  3  2  1  0  0  0  0
  4  1  2  0  0  0  0
  5  6  1  0  0  0  0
  6  4  1  0  0  0  0
  7 11  3  0  0  0  0
  8  1  1  0  0  0  0
  9  3  2  0  0  0  0
 10  5  2  0  0  0  0
 11 22  1  0  0  0  0
 12  2  2  0  0  0  0
 13  8  1  0  0  0  0
 14  8  2  0  0  0  0
 15 10  1  0  0  0  0
 16  9  1  0  0  0  0
 17 18  2  0  0  0  0
 18 14  1  0  0  0  0
 19 13  2  0  0  0  0
 20 17  1  0  0  0  0
 21 15  1  0  0  0  0
 22 21  1  0  0  0  0
 17 19  1  0  0  0  0
  3  5  1  0  0  0  0
 16 15  2  0  0  0  0
M  END
> <IDNUMBER>
F3385-1001

> <Chemical_Name>
2-{[3-(4-bromophenyl)-4-oxo-4H-chromen-7-yl]oxy}acetonitrile

> <CAS>
610764-10-8

> <PriceCoeff>
1.00

> <MW>
356.17

> <Description>
solid

> <FSP3>
0.06

> <clogP>
2.93

> <TPSA>
59.32

> <Acceptor>
4

> <Donor>
0

> <RotBonds>
3

> <HAC>
22

> <Collection>
General

> <Reference_compound>
CHEMBL44

> <Similarity>
0.8250

$$$$
F0196-0909
  -ISIS-  06222321452D

 21 23  0  0  0  0  0  0  0  0999 V2000
   -0.4500    0.9500    0.0000 C   0  0  0  0  0  0  0  0  0  0  0  0
   -1.1708    0.5333    0.0000 C   0  0  0  0  0  0  0  0  0  0  0  0
   -1.8958    0.9500    0.0000 C   0  0  0  0  0  0  0  0  0  0  0  0
   -0.4500    1.7958    0.0000 C   0  0  0  0  0  0  0  0  0  0  0  0
   -1.8958    1.7958    0.0000 C   0  0  0  0  0  0  0  0  0  0  0  0
   -1.1708    2.2125    0.0000 O   0  0  0  0  0  0  0  0  0  0  0  0
   -2.6125    2.2125    0.0000 C   0  0  0  0  0  0  0  0  0  0  0  0
   -2.6125    0.5333    0.0000 C   0  0  0  0  0  0  0  0  0  0  0  0
    0.2875    0.5333    0.0000 C   0  0  0  0  0  0  0  0  0  0  0  0
   -1.1708   -0.3042    0.0000 O   0  0  0  0  0  0  0  0  0  0  0  0
   -3.3500    1.7958    0.0000 C   0  0  0  0  0  0  0  0  0  0  0  0
   -4.0958    2.2125    0.0000 O   0  0  0  0  0  0  0  0  0  0  0  0
   -3.3500    0.9500    0.0000 C   0  0  0  0  0  0  0  0  0  0  0  0
   -4.8125    1.7625    0.0000 C   0  0  3  0  0  0  0  0  0  0  0  0
    0.2875   -0.3042    0.0000 C   0  0  0  0  0  0  0  0  0  0  0  0
    1.0042    0.9500    0.0000 C   0  0  0  0  0  0  0  0  0  0  0  0
   -5.5333    2.1833    0.0000 C   0  0  0  0  0  0  0  0  0  0  0  0
   -4.8125    0.9208    0.0000 C   0  0  0  0  0  0  0  0  0  0  0  0
    1.7292    0.5333    0.0000 C   0  0  0  0  0  0  0  0  0  0  0  0
    1.0042   -0.7292    0.0000 C   0  0  0  0  0  0  0  0  0  0  0  0
    1.7292   -0.3042    0.0000 C   0  0  0  0  0  0  0  0  0  0  0  0
  2  1  1  0  0  0  0
  3  2  1  0  0  0  0
  4  1  2  0  0  0  0
  5  6  1  0  0  0  0
  6  4  1  0  0  0  0
  7  5  1  0  0  0  0
  8  3  1  0  0  0  0
  9  1  1  0  0  0  0
 10  2  2  0  0  0  0
 11  7  2  0  0  0  0
 12 11  1  0  0  0  0
 13  8  2  0  0  0  0
 14 12  1  0  0  0  0
 15  9  2  0  0  0  0
 16  9  1  0  0  0  0
 17 14  1  0  0  0  0
 18 14  1  0  0  0  0
 19 16  2  0  0  0  0
 20 15  1  0  0  0  0
 21 19  1  0  0  0  0
  3  5  2  0  0  0  0
 21 20  2  0  0  0  0
 13 11  1  0  0  0  0
M  END
> <IDNUMBER>
F0196-0909

> <Chemical_Name>
3-phenyl-7-(propan-2-yloxy)-4H-chromen-4-one

> <CAS>
35212-22-7

> <PriceCoeff>
1.00

> <MW>
280.32

> <Description>
solid

> <FSP3>
0.17

> <clogP>
3.92

> <TPSA>
35.53

> <Acceptor>
3

> <Donor>
0

> <RotBonds>
3

> <HAC>
21

> <Collection>
General

> <Reference_compound>
CHEMBL44

> <Similarity>
0.8980

$$$$
F1799-0249
  -ISIS-  06222321452D

 23 25  0  0  0  0  0  0  0  0999 V2000
    1.5667   -2.4042    0.0000 N   0  0  3  0  0  0  0  0  0  0  0  0
    1.1542   -2.8375    0.0000 C   0  0  0  0  0  0  0  0  0  0  0  0
    1.2792   -1.9375    0.0000 C   0  0  0  0  0  0  0  0  0  0  0  0
    0.7167   -2.0500    0.0000 C   0  0  3  0  0  0  0  0  0  0  0  0
    0.6542   -2.6000    0.0000 C   0  0  0  0  0  0  0  0  0  0  0  0
    0.2792   -1.6792    0.0000 N   0  0  0  0  0  0  0  0  0  0  0  0
    2.1292   -2.4042    0.0000 C   0  0  0  0  0  0  0  0  0  0  0  0
    1.2667   -3.4000    0.0000 O   0  0  0  0  0  0  0  0  0  0  0  0
    1.4875   -1.3875    0.0000 O   0  0  0  0  0  0  0  0  0  0  0  0
    2.4375   -2.9000    0.0000 C   0  0  0  0  0  0  0  0  0  0  0  0
    2.4292   -1.9292    0.0000 C   0  0  0  0  0  0  0  0  0  0  0  0
   -0.2833   -1.8792    0.0000 C   0  0  0  0  0  0  0  0  0  0  0  0
    3.2875   -2.4000    0.0000 C   0  0  0  0  0  0  0  0  0  0  0  0
   -1.3333   -2.2542    0.0000 C   0  0  0  0  0  0  0  0  0  0  0  0
    3.0000   -1.9042    0.0000 C   0  0  0  0  0  0  0  0  0  0  0  0
    3.0042   -2.9000    0.0000 C   0  0  0  0  0  0  0  0  0  0  0  0
    3.8792   -2.3875    0.0000 Br  0  0  0  0  0  0  0  0  0  0  0  0
   -0.3625   -2.4167    0.0000 C   0  0  0  0  0  0  0  0  0  0  0  0
   -0.7208   -1.5042    0.0000 C   0  0  0  0  0  0  0  0  0  0  0  0
   -0.9000   -2.6292    0.0000 C   0  0  0  0  0  0  0  0  0  0  0  0
   -1.2500   -1.7000    0.0000 C   0  0  0  0  0  0  0  0  0  0  0  0
   -1.8833   -2.4292    0.0000 O   0  0  0  0  0  0  0  0  0  0  0  0
   -2.3208   -2.0500    0.0000 C   0  0  0  0  0  0  0  0  0  0  0  0
  2  1  1  0  0  0  0
  3  1  1  0  0  0  0
  4  3  1  0  0  0  0
  5  2  1  0  0  0  0
  6  4  1  0  0  0  0
  7  1  1  0  0  0  0
  8  2  2  0  0  0  0
  9  3  2  0  0  0  0
 10  7  2  0  0  0  0
 11  7  1  0  0  0  0
 12  6  1  0  0  0  0
 13 15  1  0  0  0  0
 14 21  1  0  0  0  0
 15 11  2  0  0  0  0
 16 10  1  0  0  0  0
 17 13  1  0  0  0  0
 18 12  2  0  0  0  0
 19 12  1  0  0  0  0
 20 18  1  0  0  0  0
 21 19  2  0  0  0  0
 22 14  1  0  0  0  0
 23 22  1  0  0  0  0
  5  4  1  0  0  0  0
 13 16  2  0  0  0  0
 20 14  2  0  0  0  0
M  END
> <IDNUMBER>
F1799-0249

> <Chemical_Name>
1-(4-bromophenyl)-3-[(4-methoxyphenyl)amino]pyrrolidine-2,5-dione

> <CAS>
466684-73-1

> <PriceCoeff>
1.00

> <MW>
375.22

> <Description>
solid

> <FSP3>
0.18

> <clogP>
3.73

> <TPSA>
58.64

> <Acceptor>
4

> <Donor>
1

> <RotBonds>
4

> <HAC>
23

> <Collection>
General

$$$$
F6195-7343
  -ISIS-  06222321462D

 28 31  0  0  0  0  0  0  0  0999 V2000
   -1.4583    6.3292    0.0000 C   0  0  0  0  0  0  0  0  0  0  0  0
   -2.4458    5.4417    0.0000 C   0  0  0  0  0  0  0  0  0  0  0  0
   -1.1208    5.5792    0.0000 N   0  0  0  0  0  0  0  0  0  0  0  0
   -1.0500    7.0417    0.0000 N   0  0  0  0  0  0  0  0  0  0  0  0
   -3.8708    3.8000    0.0000 C   0  0  0  0  0  0  0  0  0  0  0  0
   -2.2750    6.2417    0.0000 S   0  0  0  0  0  0  0  0  0  0  0  0
   -1.7333    5.0292    0.0000 C   0  0  0  0  0  0  0  0  0  0  0  0
   -3.1583    4.2042    0.0000 N   0  0  3  0  0  0  0  0  0  0  0  0
   -0.2333    7.0500    0.0000 C   0  0  0  0  0  0  0  0  0  0  0  0
    0.1792    7.7625    0.0000 C   0  0  0  0  0  0  0  0  0  0  0  0
   -3.1583    5.0292    0.0000 C   0  0  0  0  0  0  0  0  0  0  0  0
   -3.8208    2.9833    0.0000 N   0  0  0  0  0  0  0  0  0  0  0  0
   -1.7250    4.2125    0.0000 C   0  0  0  0  0  0  0  0  0  0  0  0
   -5.9250    2.4542    0.0000 C   0  0  0  0  0  0  0  0  0  0  0  0
   -5.2458    2.9000    0.0000 C   0  0  0  0  0  0  0  0  0  0  0  0
   -0.1625    8.5042    0.0000 C   0  0  0  0  0  0  0  0  0  0  0  0
   -2.4375    3.8000    0.0000 C   0  0  0  0  0  0  0  0  0  0  0  0
   -4.5083    2.5333    0.0000 C   0  0  0  0  0  0  0  0  0  0  0  0
    0.9917    7.8542    0.0000 C   0  0  0  0  0  0  0  0  0  0  0  0
   -4.5583    4.2542    0.0000 O   0  0  0  0  0  0  0  0  0  0  0  0
    0.4417    9.0625    0.0000 O   0  0  0  0  0  0  0  0  0  0  0  0
   -5.8750    1.6208    0.0000 C   0  0  0  0  0  0  0  0  0  0  0  0
    0.1875    6.3417    0.0000 O   0  0  0  0  0  0  0  0  0  0  0  0
    1.1542    8.6542    0.0000 C   0  0  0  0  0  0  0  0  0  0  0  0
   -5.1458    1.2500    0.0000 C   0  0  0  0  0  0  0  0  0  0  0  0
   -6.6542    2.8083    0.0000 Cl  0  0  0  0  0  0  0  0  0  0  0  0
   -4.4583    1.7000    0.0000 C   0  0  0  0  0  0  0  0  0  0  0  0
   -6.5542    1.1708    0.0000 Cl  0  0  0  0  0  0  0  0  0  0  0  0
  2  6  1  0  0  0  0
  3  1  2  0  0  0  0
  4  1  1  0  0  0  0
  5  8  1  0  0  0  0
  6  1  1  0  0  0  0
  7  3  1  0  0  0  0
  8 11  1  0  0  0  0
  9  4  1  0  0  0  0
 10  9  1  0  0  0  0
 11  2  1  0  0  0  0
 12  5  1  0  0  0  0
 13  7  1  0  0  0  0
 14 15  1  0  0  0  0
 15 18  2  0  0  0  0
 16 10  2  0  0  0  0
 17 13  1  0  0  0  0
 18 12  1  0  0  0  0
 19 10  1  0  0  0  0
 20  5  2  0  0  0  0
 21 16  1  0  0  0  0
 22 25  1  0  0  0  0
 23  9  2  0  0  0  0
 24 19  2  0  0  0  0
 25 27  2  0  0  0  0
 26 14  1  0  0  0  0
 27 18  1  0  0  0  0
 28 22  1  0  0  0  0
  7  2  2  0  0  0  0
  8 17  1  0  0  0  0
 24 21  1  0  0  0  0
 22 14  2  0  0  0  0
M  END
> <IDNUMBER>
F6195-7343

> <Chemical_Name>
N-(3,4-dichlorophenyl)-2-(furan-3-amido)-4H,5H,6H,7H-[1,3]thiazolo[5,4-c]pyridine-5-carboxamide

> <CAS>
1428374-94-0

> <PriceCoeff>
1.00

> <MW>
437.30

> <Description>
solid

> <FSP3>
0.17

> <clogP>
3.14

> <TPSA>
115.71

> <Acceptor>
4

> <Donor>
2

> <RotBonds>
4

> <HAC>
28

> <Collection>
General

$$$$
F1638-0034
  -ISIS-  06222321142D

 18 19  0  0  0  0  0  0  0  0999 V2000
   -0.4750   -2.0417    0.0000 N   0  3  0  0  0  0  0  0  0  0  0  0
   -0.4833   -1.2125    0.0000 C   0  0  0  0  0  0  0  0  0  0  0  0
    1.6667    0.0333    0.0000 N   0  0  0  0  0  0  0  0  0  0  0  0
    0.9500    0.4458    0.0000 C   0  0  0  0  0  0  0  0  0  0  0  0
    2.3792    0.4458    0.0000 N   0  0  0  0  0  0  0  0  0  0  0  0
    0.2375   -0.8000    0.0000 C   0  0  0  0  0  0  0  0  0  0  0  0
    0.2375    0.0333    0.0000 C   0  0  0  0  0  0  0  0  0  0  0  0
    2.3792    1.2708    0.0000 C   0  0  0  0  0  0  0  0  0  0  0  0
    0.9417    1.2708    0.0000 C   0  0  3  0  0  0  0  0  0  0  0  0
   -1.1958   -0.8000    0.0000 C   0  0  0  0  0  0  0  0  0  0  0  0
   -1.1958   -2.4542    0.0000 O   0  5  0  0  0  0  0  0  0  0  0  0
    0.2375   -2.4542    0.0000 O   0  0  0  0  0  0  0  0  0  0  0  0
    1.6625    1.6833    0.0000 C   0  0  0  0  0  0  0  0  0  0  0  0
   -0.4833    0.4458    0.0000 C   0  0  0  0  0  0  0  0  0  0  0  0
    3.0917    1.6833    0.0000 O   0  0  0  0  0  0  0  0  0  0  0  0
   -1.1958    0.0250    0.0000 C   0  0  0  0  0  0  0  0  0  0  0  0
   -1.9083   -1.2125    0.0000 Cl  0  0  0  0  0  0  0  0  0  0  0  0
    0.2292    1.6833    0.0000 C   0  0  0  0  0  0  0  0  0  0  0  0
  2  1  1  0  0  0  0
  3  4  2  0  0  0  0
  4  7  1  0  0  0  0
  5  3  1  0  0  0  0
  6  2  2  0  0  0  0
  7  6  1  0  0  0  0
  8 13  1  0  0  0  0
  9  4  1  0  0  0  0
 10  2  1  0  0  0  0
 11  1  1  0  0  0  0
 12  1  2  0  0  0  0
 13  9  1  0  0  0  0
 14 16  1  0  0  0  0
 15  8  2  0  0  0  0
 16 10  2  0  0  0  0
 17 10  1  0  0  0  0
 18  9  1  0  0  0  0
 14  7  2  0  0  0  0
  8  5  1  0  0  0  0
M  CHG  2   1   1  11  -1
M  END
> <IDNUMBER>
F1638-0034

> <Chemical_Name>
6-(4-chloro-3-nitrophenyl)-5-methyl-2,3,4,5-tetrahydropyridazin-3-one

> <CAS>
117397-88-3

> <PriceCoeff>
1.00

> <MW>
267.67

> <Description>
solid

> <FSP3>
0.27

> <clogP>
1.67

> <TPSA>
84.60

> <Acceptor>
4

> <Donor>
2

> <RotBonds>
2

> <HAC>
18

> <Collection>
General

$$$$
F2106-0103
  -ISIS-  06222321142D

 22 24  0  0  0  0  0  0  0  0999 V2000
    7.0667   -2.4917    0.0000 C   0  0  0  0  0  0  0  0  0  0  0  0
    6.3417   -2.9042    0.0000 C   0  0  0  0  0  0  0  0  0  0  0  0
    5.6250   -2.4917    0.0000 C   0  0  0  0  0  0  0  0  0  0  0  0
    7.0667   -1.6542    0.0000 C   0  0  0  0  0  0  0  0  0  0  0  0
    5.6292   -1.6542    0.0000 C   0  0  0  0  0  0  0  0  0  0  0  0
    6.3417   -1.2375    0.0000 O   0  0  0  0  0  0  0  0  0  0  0  0
    4.9125   -2.9000    0.0000 C   0  0  0  0  0  0  0  0  0  0  0  0
    4.9125   -1.2417    0.0000 C   0  0  0  0  0  0  0  0  0  0  0  0
    7.7750   -2.9042    0.0000 C   0  0  0  0  0  0  0  0  0  0  0  0
    2.0542   -1.2500    0.0000 C   0  0  0  0  0  0  0  0  0  0  0  0
    6.3417   -3.7292    0.0000 O   0  0  0  0  0  0  0  0  0  0  0  0
    1.3417   -1.6625    0.0000 O   0  0  0  0  0  0  0  0  0  0  0  0
    4.2000   -1.6625    0.0000 C   0  0  0  0  0  0  0  0  0  0  0  0
    3.4875   -1.2500    0.0000 O   0  0  0  0  0  0  0  0  0  0  0  0
    2.7667   -1.6625    0.0000 C   0  0  0  0  0  0  0  0  0  0  0  0
    4.2000   -2.4875    0.0000 C   0  0  0  0  0  0  0  0  0  0  0  0
    2.0542   -0.4250    0.0000 O   0  0  0  0  0  0  0  0  0  0  0  0
    7.7667   -3.7292    0.0000 C   0  0  0  0  0  0  0  0  0  0  0  0
    8.4875   -2.4917    0.0000 C   0  0  0  0  0  0  0  0  0  0  0  0
    9.2000   -2.9042    0.0000 C   0  0  0  0  0  0  0  0  0  0  0  0
    8.4792   -4.1417    0.0000 C   0  0  0  0  0  0  0  0  0  0  0  0
    9.2000   -3.7375    0.0000 C   0  0  0  0  0  0  0  0  0  0  0  0
  2  1  1  0  0  0  0
  3  2  1  0  0  0  0
  4  1  2  0  0  0  0
  5  6  1  0  0  0  0
  6  4  1  0  0  0  0
  7  3  2  0  0  0  0
  8  5  2  0  0  0  0
  9  1  1  0  0  0  0
 10 15  1  0  0  0  0
 11  2  2  0  0  0  0
 12 10  2  0  0  0  0
 13  8  1  0  0  0  0
 14 13  1  0  0  0  0
 15 14  1  0  0  0  0
 16  7  1  0  0  0  0
 17 10  1  0  0  0  0
 18  9  2  0  0  0  0
 19  9  1  0  0  0  0
 20 19  2  0  0  0  0
 21 18  1  0  0  0  0
 22 20  1  0  0  0  0
  5  3  1  0  0  0  0
 21 22  2  0  0  0  0
 13 16  2  0  0  0  0
M  END
> <IDNUMBER>
F2106-0103

> <Chemical_Name>
2-[(4-oxo-3-phenyl-4H-chromen-7-yl)oxy]acetic acid

> <CAS>
32131-73-0

> <PriceCoeff>
1.00

> <MW>
296.27

> <Description>
solid

> <FSP3>
0.06

> <clogP>
2.38

> <TPSA>
72.83

> <Acceptor>
5

> <Donor>
0

> <RotBonds>
4

> <HAC>
22

> <Collection>
General

> <Reference_compound>
CHEMBL44

> <Similarity>
0.8670

$$$$
F3139-1115
  -ISIS-  06222321152D

 24 26  0  0  0  0  0  0  0  0999 V2000
    3.7042   -4.3000    0.0000 C   0  0  0  0  0  0  0  0  0  0  0  0
    2.9917   -4.7125    0.0000 C   0  0  0  0  0  0  0  0  0  0  0  0
    2.2792   -4.3000    0.0000 C   0  0  0  0  0  0  0  0  0  0  0  0
    3.7042   -3.4750    0.0000 C   0  0  0  0  0  0  0  0  0  0  0  0
    2.2792   -3.4750    0.0000 C   0  0  0  0  0  0  0  0  0  0  0  0
    2.9917   -3.0625    0.0000 O   0  0  0  0  0  0  0  0  0  0  0  0
   -0.5875   -3.4667    0.0000 C   0  0  0  0  0  0  0  0  0  0  0  0
    1.5667   -3.0625    0.0000 C   0  0  0  0  0  0  0  0  0  0  0  0
    0.1292   -3.0625    0.0000 O   0  0  0  0  0  0  0  0  0  0  0  0
    1.5667   -4.7125    0.0000 C   0  0  0  0  0  0  0  0  0  0  0  0
   -1.3000   -3.0542    0.0000 C   0  0  3  0  0  0  0  0  0  0  0  0
    4.4167   -4.7125    0.0000 C   0  0  0  0  0  0  0  0  0  0  0  0
    0.8500   -3.4750    0.0000 C   0  0  0  0  0  0  0  0  0  0  0  0
    2.9917   -5.5375    0.0000 O   0  0  0  0  0  0  0  0  0  0  0  0
   -0.5958   -4.2917    0.0000 O   0  0  0  0  0  0  0  0  0  0  0  0
    0.8500   -4.3000    0.0000 C   0  0  0  0  0  0  0  0  0  0  0  0
   -2.0208   -2.6417    0.0000 C   0  0  0  0  0  0  0  0  0  0  0  0
   -0.8875   -2.3375    0.0000 C   0  0  0  0  0  0  0  0  0  0  0  0
   -1.7083   -3.7667    0.0000 C   0  0  0  0  0  0  0  0  0  0  0  0
    5.1417   -4.3000    0.0000 C   0  0  0  0  0  0  0  0  0  0  0  0
    4.4167   -5.5417    0.0000 C   0  0  0  0  0  0  0  0  0  0  0  0
    5.1292   -5.9542    0.0000 C   0  0  0  0  0  0  0  0  0  0  0  0
    5.8542   -4.7125    0.0000 C   0  0  0  0  0  0  0  0  0  0  0  0
    5.8542   -5.5417    0.0000 C   0  0  0  0  0  0  0  0  0  0  0  0
  2  1  1  0  0  0  0
  3  2  1  0  0  0  0
  4  1  2  0  0  0  0
  5  6  1  0  0  0  0
  6  4  1  0  0  0  0
  7  9  1  0  0  0  0
  8  5  2  0  0  0  0
  9 13  1  0  0  0  0
 10  3  2  0  0  0  0
 11  7  1  0  0  0  0
 12  1  1  0  0  0  0
 13  8  1  0  0  0  0
 14  2  2  0  0  0  0
 15  7  2  0  0  0  0
 16 10  1  0  0  0  0
 17 11  1  0  0  0  0
 18 11  1  0  0  0  0
 19 11  1  0  0  0  0
 20 12  1  0  0  0  0
 21 12  2  0  0  0  0
 22 21  1  0  0  0  0
 23 20  2  0  0  0  0
 24 22  2  0  0  0  0
  3  5  1  0  0  0  0
 24 23  1  0  0  0  0
 16 13  2  0  0  0  0
M  END
> <IDNUMBER>
F3139-1115

> <Chemical_Name>
4-oxo-3-phenyl-4H-chromen-7-yl 2,2-dimethylpropanoate

> <CAS>
444643-75-8

> <PriceCoeff>
1.00

> <MW>
322.35

> <Description>
solid

> <FSP3>
0.20

> <clogP>
3.75

> <TPSA>
52.60

> <Acceptor>
4

> <Donor>
0

> <RotBonds>
3

> <HAC>
24

> <Collection>
General

> <Reference_compound>
CHEMBL44

> <Similarity>
0.8390

$$$$
F3215-0209
  -ISIS-  06222321152D

 23 25  0  0  0  0  0  0  0  0999 V2000
    8.2375   -3.7292    0.0000 C   0  0  0  0  0  0  0  0  0  0  0  0
    8.2292   -4.5625    0.0000 N   0  3  0  0  0  0  0  0  0  0  0  0
    5.3792   -3.7250    0.0000 C   0  0  3  0  0  0  0  0  0  0  0  0
    6.1000   -3.3167    0.0000 C   0  0  0  0  0  0  0  0  0  0  0  0
    4.6625   -3.3042    0.0000 O   0  0  0  0  0  0  0  0  0  0  0  0
    7.5292   -3.3167    0.0000 C   0  0  0  0  0  0  0  0  0  0  0  0
    6.8125   -3.7292    0.0000 N   0  0  0  0  0  0  0  0  0  0  0  0
    4.6542   -4.9667    0.0000 O   0  0  0  0  0  0  0  0  0  0  0  0
    8.9542   -3.3250    0.0000 C   0  0  0  0  0  0  0  0  0  0  0  0
    3.9417   -3.7250    0.0000 C   0  0  0  0  0  0  0  0  0  0  0  0
    7.5167   -4.9750    0.0000 O   0  5  0  0  0  0  0  0  0  0  0  0
    5.3792   -4.5542    0.0000 C   0  0  0  0  0  0  0  0  0  0  0  0
    3.9417   -4.5542    0.0000 C   0  0  0  0  0  0  0  0  0  0  0  0
    8.9417   -4.9792    0.0000 O   0  0  0  0  0  0  0  0  0  0  0  0
    6.1000   -2.4917    0.0000 O   0  0  0  0  0  0  0  0  0  0  0  0
    7.5250   -2.4917    0.0000 C   0  0  0  0  0  0  0  0  0  0  0  0
    8.9542   -2.5000    0.0000 C   0  0  0  0  0  0  0  0  0  0  0  0
    8.2375   -2.0792    0.0000 C   0  0  0  0  0  0  0  0  0  0  0  0
    9.6667   -2.0792    0.0000 Cl  0  0  0  0  0  0  0  0  0  0  0  0
    3.2292   -3.3125    0.0000 C   0  0  0  0  0  0  0  0  0  0  0  0
    3.2292   -4.9667    0.0000 C   0  0  0  0  0  0  0  0  0  0  0  0
    2.5167   -3.7250    0.0000 C   0  0  0  0  0  0  0  0  0  0  0  0
    2.5167   -4.5542    0.0000 C   0  0  0  0  0  0  0  0  0  0  0  0
  2  1  1  0  0  0  0
  3  4  1  0  0  0  0
  4  7  1  0  0  0  0
  5  3  1  0  0  0  0
  6  1  2  0  0  0  0
  7  6  1  0  0  0  0
  8 12  1  0  0  0  0
  9  1  1  0  0  0  0
 10  5  1  0  0  0  0
 11  2  1  0  0  0  0
 12  3  1  0  0  0  0
 13  8  1  0  0  0  0
 14  2  2  0  0  0  0
 15  4  2  0  0  0  0
 16  6  1  0  0  0  0
 17  9  2  0  0  0  0
 18 17  1  0  0  0  0
 19 17  1  0  0  0  0
 20 10  2  0  0  0  0
 21 13  2  0  0  0  0
 22 20  1  0  0  0  0
 23 21  1  0  0  0  0
 18 16  2  0  0  0  0
 10 13  1  0  0  0  0
 22 23  2  0  0  0  0
M  CHG  2   2   1  11  -1
M  END
> <IDNUMBER>
F3215-0209

> <Chemical_Name>
N-(4-chloro-2-nitrophenyl)-2,3-dihydro-1,4-benzodioxine-2-carboxamide

> <CAS>
838871-29-7

> <PriceCoeff>
1.00

> <MW>
334.71

> <Description>
solid

> <FSP3>
0.13

> <clogP>
3.22

> <TPSA>
90.70

> <Acceptor>
5

> <Donor>
1

> <RotBonds>
3

> <HAC>
23

> <Collection>
General

$$$$
F3385-4073
  -ISIS-  06222321152D

 28 31  0  0  0  0  0  0  0  0999 V2000
    6.6542   -8.9792    0.0000 C   0  0  0  0  0  0  0  0  0  0  0  0
    5.9417   -9.3917    0.0000 C   0  0  0  0  0  0  0  0  0  0  0  0
    5.2292   -8.9792    0.0000 C   0  0  0  0  0  0  0  0  0  0  0  0
    6.6542   -8.1542    0.0000 C   0  0  0  0  0  0  0  0  0  0  0  0
    5.2250   -8.1542    0.0000 C   0  0  0  0  0  0  0  0  0  0  0  0
    5.9375   -7.7375    0.0000 O   0  0  0  0  0  0  0  0  0  0  0  0
    7.3667   -9.3875    0.0000 C   0  0  0  0  0  0  0  0  0  0  0  0
    4.5125   -9.4000    0.0000 C   0  0  0  0  0  0  0  0  0  0  0  0
    4.5125   -7.7417    0.0000 C   0  0  0  0  0  0  0  0  0  0  0  0
    0.9417   -8.1625    0.0000 N   0  0  3  0  0  0  0  0  0  0  0  0
    5.9417  -10.2167    0.0000 O   0  0  0  0  0  0  0  0  0  0  0  0
   -0.4875   -8.9792    0.0000 O   0  0  0  0  0  0  0  0  0  0  0  0
    8.0792   -8.9792    0.0000 C   0  0  0  0  0  0  0  0  0  0  0  0
    7.3667  -10.2167    0.0000 C   0  0  0  0  0  0  0  0  0  0  0  0
    3.8000   -8.1625    0.0000 C   0  0  0  0  0  0  0  0  0  0  0  0
    3.8000   -8.9875    0.0000 C   0  0  0  0  0  0  0  0  0  0  0  0
    8.8000  -10.2167    0.0000 C   0  0  0  0  0  0  0  0  0  0  0  0
    8.0792  -10.6292    0.0000 C   0  0  0  0  0  0  0  0  0  0  0  0
    8.7917   -9.3875    0.0000 C   0  0  0  0  0  0  0  0  0  0  0  0
    3.0875   -7.7500    0.0000 O   0  0  0  0  0  0  0  0  0  0  0  0
    1.6542   -7.7500    0.0000 C   0  0  0  0  0  0  0  0  0  0  0  0
    2.3667   -8.1625    0.0000 C   0  0  0  0  0  0  0  0  0  0  0  0
    9.5042  -10.6250    0.0000 O   0  0  0  0  0  0  0  0  0  0  0  0
    0.2292   -7.7417    0.0000 C   0  0  0  0  0  0  0  0  0  0  0  0
    0.9417   -8.9792    0.0000 C   0  0  0  0  0  0  0  0  0  0  0  0
    0.2292   -9.3917    0.0000 C   0  0  0  0  0  0  0  0  0  0  0  0
   -0.4833   -8.1542    0.0000 C   0  0  0  0  0  0  0  0  0  0  0  0
   10.2167  -10.2125    0.0000 C   0  0  0  0  0  0  0  0  0  0  0  0
  2  1  1  0  0  0  0
  3  2  1  0  0  0  0
  4  1  2  0  0  0  0
  5  6  1  0  0  0  0
  6  4  1  0  0  0  0
  7  1  1  0  0  0  0
  8  3  2  0  0  0  0
  9  5  2  0  0  0  0
 10 21  1  0  0  0  0
 11  2  2  0  0  0  0
 12 26  1  0  0  0  0
 13  7  1  0  0  0  0
 14  7  2  0  0  0  0
 15  9  1  0  0  0  0
 16  8  1  0  0  0  0
 17 18  2  0  0  0  0
 18 14  1  0  0  0  0
 19 13  2  0  0  0  0
 20 15  1  0  0  0  0
 21 22  1  0  0  0  0
 22 20  1  0  0  0  0
 23 17  1  0  0  0  0
 24 10  1  0  0  0  0
 25 10  1  0  0  0  0
 26 25  1  0  0  0  0
 27 24  1  0  0  0  0
 28 23  1  0  0  0  0
 19 17  1  0  0  0  0
  3  5  1  0  0  0  0
 16 15  2  0  0  0  0
 12 27  1  0  0  0  0
M  END
> <IDNUMBER>
F3385-4073

> <Chemical_Name>
3-(4-methoxyphenyl)-7-[2-(morpholin-4-yl)ethoxy]-4H-chromen-4-one

> <CAS>
903851-24-1

> <PriceCoeff>
1.00

> <MW>
381.42

> <Description>
solid

> <FSP3>
0.32

> <clogP>
3.14

> <TPSA>
57.23

> <Acceptor>
5

> <Donor>
1

> <RotBonds>
6

> <HAC>
28

> <Collection>
General

> <Reference_compound>
CHEMBL44

> <Similarity>
0.8270

$$$$
F0850-4773
  -ISIS-  06222321442D

 24 26  0  0  0  0  0  0  0  0999 V2000
    3.5667   -2.2542    0.0000 C   0  0  0  0  0  0  0  0  0  0  0  0
    2.5375   -2.8375    0.0000 C   0  0  0  0  0  0  0  0  0  0  0  0
    1.5542   -2.2667    0.0000 C   0  0  0  0  0  0  0  0  0  0  0  0
    3.5667   -1.1542    0.0000 C   0  0  0  0  0  0  0  0  0  0  0  0
    1.5542   -1.1542    0.0000 C   0  0  0  0  0  0  0  0  0  0  0  0
    2.5375   -0.6000    0.0000 O   0  0  0  0  0  0  0  0  0  0  0  0
    4.2792   -2.6667    0.0000 C   0  0  0  0  0  0  0  0  0  0  0  0
    0.5375   -0.6000    0.0000 C   0  0  0  0  0  0  0  0  0  0  0  0
    0.5375   -2.8375    0.0000 C   0  0  0  0  0  0  0  0  0  0  0  0
   -2.5208   -1.1542    0.0000 C   0  0  0  0  0  0  0  0  0  0  0  0
    2.5375   -3.9667    0.0000 O   0  0  0  0  0  0  0  0  0  0  0  0
   -0.4833   -1.1542    0.0000 C   0  0  0  0  0  0  0  0  0  0  0  0
    4.2792   -3.5000    0.0000 C   0  0  0  0  0  0  0  0  0  0  0  0
   -1.5000   -0.6000    0.0000 O   0  0  0  0  0  0  0  0  0  0  0  0
   -2.5333   -2.3000    0.0000 O   0  0  0  0  0  0  0  0  0  0  0  0
   -0.4833   -2.2667    0.0000 C   0  0  0  0  0  0  0  0  0  0  0  0
    3.5542   -3.9042    0.0000 O   0  0  0  0  0  0  0  0  0  0  0  0
    5.0000   -2.2542    0.0000 C   0  0  0  0  0  0  0  0  0  0  0  0
   -3.5500   -0.5875    0.0000 C   0  0  0  0  0  0  0  0  0  0  0  0
    5.0000   -3.9042    0.0000 C   0  0  0  0  0  0  0  0  0  0  0  0
    3.5542   -4.7375    0.0000 C   0  0  0  0  0  0  0  0  0  0  0  0
   -4.5833   -1.1542    0.0000 C   0  0  0  0  0  0  0  0  0  0  0  0
    5.7042   -2.6667    0.0000 C   0  0  0  0  0  0  0  0  0  0  0  0
    5.7042   -3.5000    0.0000 C   0  0  0  0  0  0  0  0  0  0  0  0
  2  1  1  0  0  0  0
  3  2  1  0  0  0  0
  4  1  2  0  0  0  0
  5  6  1  0  0  0  0
  6  4  1  0  0  0  0
  7  1  1  0  0  0  0
  8  5  2  0  0  0  0
  9  3  2  0  0  0  0
 10 14  1  0  0  0  0
 11  2  2  0  0  0  0
 12  8  1  0  0  0  0
 13  7  2  0  0  0  0
 14 12  1  0  0  0  0
 15 10  2  0  0  0  0
 16  9  1  0  0  0  0
 17 13  1  0  0  0  0
 18  7  1  0  0  0  0
 19 10  1  0  0  0  0
 20 13  1  0  0  0  0
 21 17  1  0  0  0  0
 22 19  1  0  0  0  0
 23 18  2  0  0  0  0
 24 23  1  0  0  0  0
  5  3  1  0  0  0  0
 24 20  2  0  0  0  0
 12 16  2  0  0  0  0
M  END
> <IDNUMBER>
F0850-4773

> <Chemical_Name>
3-(2-methoxyphenyl)-4-oxo-4H-chromen-7-yl propanoate

> <CAS>
303121-45-1

> <PriceCoeff>
1.00

> <MW>
324.33

> <Description>
solid

> <FSP3>
0.16

> <clogP>
2.42

> <TPSA>
61.83

> <Acceptor>
5

> <Donor>
0

> <RotBonds>
5

> <HAC>
24

> <Collection>
General

> <Reference_compound>
CHEMBL44

> <Similarity>
0.8320

$$$$
F1533-0356
  -ISIS-  06222321442D

 19 19  0  0  0  0  0  0  0  0999 V2000
    9.1917    1.9250    0.0000 C   0  0  0  0  0  0  0  0  0  0  0  0
    9.5875    1.2000    0.0000 N   0  0  3  0  0  0  0  0  0  0  0  0
    9.6167    2.6333    0.0000 S   0  0  0  0  0  0  0  0  0  0  0  0
   10.4125    1.1875    0.0000 C   0  0  0  0  0  0  0  0  0  0  0  0
   10.8292    1.8958    0.0000 C   0  0  0  0  0  0  0  0  0  0  0  0
    8.3667    1.9458    0.0000 N   0  0  3  0  0  0  0  0  0  0  0  0
   11.6625    1.8833    0.0000 C   0  0  0  0  0  0  0  0  0  0  0  0
    6.7125    1.9875    0.0000 N   0  0  3  0  0  0  0  0  0  0  0  0
    7.9667    2.6750    0.0000 C   0  0  0  0  0  0  0  0  0  0  0  0
   12.0875    2.5875    0.0000 O   0  0  0  0  0  0  0  0  0  0  0  0
   11.6375    0.4458    0.0000 C   0  0  0  0  0  0  0  0  0  0  0  0
   10.8125    0.4583    0.0000 C   0  0  0  0  0  0  0  0  0  0  0  0
    7.1417    2.6958    0.0000 C   0  0  0  0  0  0  0  0  0  0  0  0
   12.0667    1.1583    0.0000 C   0  0  0  0  0  0  0  0  0  0  0  0
    7.1125    1.2625    0.0000 C   0  0  0  0  0  0  0  0  0  0  0  0
    5.8917    2.0083    0.0000 C   0  0  0  0  0  0  0  0  0  0  0  0
   11.6875    3.3083    0.0000 C   0  0  0  0  0  0  0  0  0  0  0  0
    7.9375    1.2458    0.0000 H   0  0  0  0  0  0  0  0  0  0  0  0
    9.1625    0.5000    0.0000 H   0  0  0  0  0  0  0  0  0  0  0  0
  2  1  1  0  0  0  0
  3  1  2  0  0  0  0
  4  2  1  0  0  0  0
  5  4  1  0  0  0  0
  6  1  1  0  0  0  0
  7  5  2  0  0  0  0
  8 13  1  0  0  0  0
  9  6  1  0  0  0  0
 10  7  1  0  0  0  0
 11 12  1  0  0  0  0
 12  4  2  0  0  0  0
 13  9  1  0  0  0  0
 14 11  2  0  0  0  0
 15  8  1  0  0  0  0
 16  8  1  0  0  0  0
 17 10  1  0  0  0  0
 18  6  1  0  0  0  0
 19  2  1  0  0  0  0
  7 14  1  0  0  0  0
M  END
> <IDNUMBER>
F1533-0356

> <Chemical_Name>
3-[2-(dimethylamino)ethyl]-1-(3-methoxyphenyl)thiourea

> <CAS>
502888-30-4

> <PriceCoeff>
1.00

> <MW>
253.36

> <Description>
solid

> <FSP3>
0.42

> <clogP>
1.39

> <TPSA>
68.62

> <Acceptor>
2

> <Donor>
3

> <RotBonds>
5

> <HAC>
17

> <Collection>
General

> <Reference_compound>
CHEMBL4087841

> <Similarity>
0.9910

$$$$
F2874-0131
  -ISIS-  06222321462D

 27 29  0  0  0  0  0  0  0  0999 V2000
    4.6167    0.7958    0.0000 N   0  0  0  0  0  0  0  0  0  0  0  0
    4.5917   -6.6417    0.0000 N   0  3  0  0  0  0  0  0  0  0  0  0
    4.6167    1.6250    0.0000 N   0  0  3  0  0  0  0  0  0  0  0  0
    4.6042   -4.1667    0.0000 C   0  0  0  0  0  0  0  0  0  0  0  0
    4.6042   -3.3417    0.0000 C   0  0  0  0  0  0  0  0  0  0  0  0
    3.9042    2.0375    0.0000 C   0  0  0  0  0  0  0  0  0  0  0  0
    3.9042    0.3833    0.0000 C   0  0  0  0  0  0  0  0  0  0  0  0
    3.8917   -4.5792    0.0000 C   0  0  0  0  0  0  0  0  0  0  0  0
    4.6042   -5.8167    0.0000 C   0  0  0  0  0  0  0  0  0  0  0  0
    3.8917   -5.4042    0.0000 C   0  0  0  0  0  0  0  0  0  0  0  0
    3.1875    1.6250    0.0000 C   0  0  0  0  0  0  0  0  0  0  0  0
    3.1875    0.7958    0.0000 C   0  0  0  0  0  0  0  0  0  0  0  0
    3.8917   -2.9250    0.0000 N   0  0  0  0  0  0  0  0  0  0  0  0
    5.3167   -4.5792    0.0000 C   0  0  0  0  0  0  0  0  0  0  0  0
    3.8792   -7.0542    0.0000 O   0  5  0  0  0  0  0  0  0  0  0  0
    5.3042   -7.0625    0.0000 O   0  0  0  0  0  0  0  0  0  0  0  0
    3.9042   -0.4417    0.0000 C   0  0  0  0  0  0  0  0  0  0  0  0
    5.3167   -2.9292    0.0000 O   0  0  0  0  0  0  0  0  0  0  0  0
    5.3167   -5.4042    0.0000 C   0  0  0  0  0  0  0  0  0  0  0  0
    3.9042    2.8625    0.0000 O   0  0  0  0  0  0  0  0  0  0  0  0
    3.9042   -2.1000    0.0000 C   0  0  0  0  0  0  0  0  0  0  0  0
    4.6167   -0.8542    0.0000 C   0  0  0  0  0  0  0  0  0  0  0  0
    3.1917   -0.8542    0.0000 C   0  0  0  0  0  0  0  0  0  0  0  0
    3.1667   -4.1542    0.0000 Cl  0  0  0  0  0  0  0  0  0  0  0  0
    4.6167   -1.6875    0.0000 C   0  0  0  0  0  0  0  0  0  0  0  0
    5.3375    2.0500    0.0000 C   0  0  0  0  0  0  0  0  0  0  0  0
    3.1917   -1.6875    0.0000 C   0  0  0  0  0  0  0  0  0  0  0  0
  2  9  1  0  0  0  0
  3  1  1  0  0  0  0
  4  5  1  0  0  0  0
  5 13  1  0  0  0  0
  6  3  1  0  0  0  0
  7  1  2  0  0  0  0
  8  4  2  0  0  0  0
  9 19  1  0  0  0  0
 10  8  1  0  0  0  0
 11 12  2  0  0  0  0
 12  7  1  0  0  0  0
 13 21  1  0  0  0  0
 14  4  1  0  0  0  0
 15  2  1  0  0  0  0
 16  2  2  0  0  0  0
 17  7  1  0  0  0  0
 18  5  2  0  0  0  0
 19 14  2  0  0  0  0
 20  6  2  0  0  0  0
 21 27  2  0  0  0  0
 22 17  1  0  0  0  0
 23 17  2  0  0  0  0
 24  8  1  0  0  0  0
 25 22  2  0  0  0  0
 26  3  1  0  0  0  0
 27 23  1  0  0  0  0
 11  6  1  0  0  0  0
 21 25  1  0  0  0  0
  9 10  2  0  0  0  0
M  CHG  2   2   1  15  -1
M  END
> <IDNUMBER>
F2874-0131

> <Chemical_Name>
2-chloro-N-[4-(1-methyl-6-oxo-1,6-dihydropyridazin-3-yl)phenyl]-4-nitrobenzamide

> <CAS>
899977-88-9

> <PriceCoeff>
1.00

> <MW>
384.77

> <Description>
solid

> <FSP3>
0.06

> <clogP>
1.98

> <TPSA>
104.91

> <Acceptor>
5

> <Donor>
2

> <RotBonds>
4

> <HAC>
27

> <Collection>
General

$$$$
F0466-0262
  -ISIS-  06222321142D

 24 26  0  0  0  0  0  0  0  0999 V2000
    1.5000    1.1000    0.0000 C   0  0  0  0  0  0  0  0  0  0  0  0
   -1.1708    0.2625    0.0000 N   0  0  3  0  0  0  0  0  0  0  0  0
    1.8042    0.8458    0.0000 N   0  3  0  0  0  0  0  0  0  0  0  0
    0.1667    1.1458    0.0000 N   0  0  0  0  0  0  0  0  0  0  0  0
    0.4500    1.4458    0.0000 C   0  0  0  0  0  0  0  0  0  0  0  0
   -0.2000    1.3458    0.0000 C   0  0  0  0  0  0  0  0  0  0  0  0
    1.0667    1.0000    0.0000 C   0  0  0  0  0  0  0  0  0  0  0  0
    0.8500    1.3625    0.0000 C   0  0  0  0  0  0  0  0  0  0  0  0
   -0.6000    1.2000    0.0000 N   0  0  0  0  0  0  0  0  0  0  0  0
   -0.9000   -0.0500    0.0000 C   0  0  0  0  0  0  0  0  0  0  0  0
   -1.5500    0.1208    0.0000 C   0  0  0  0  0  0  0  0  0  0  0  0
    1.1292    1.6833    0.0000 S   0  0  0  0  0  0  0  0  0  0  0  0
    1.5042    1.5000    0.0000 C   0  0  0  0  0  0  0  0  0  0  0  0
   -0.1208    1.7458    0.0000 S   0  0  0  0  0  0  0  0  0  0  0  0
    0.3000    1.8000    0.0000 C   0  0  0  0  0  0  0  0  0  0  0  0
   -0.6833    0.7833    0.0000 C   0  0  0  0  0  0  0  0  0  0  0  0
   -1.0833    0.6625    0.0000 C   0  0  0  0  0  0  0  0  0  0  0  0
    2.1875    0.9833    0.0000 O   0  5  0  0  0  0  0  0  0  0  0  0
    1.7500    0.4458    0.0000 O   0  0  0  0  0  0  0  0  0  0  0  0
   -1.1458   -0.4000    0.0000 C   0  0  0  0  0  0  0  0  0  0  0  0
   -1.5208   -0.2792    0.0000 C   0  0  0  0  0  0  0  0  0  0  0  0
   -0.4625   -0.0042    0.0000 O   0  0  0  0  0  0  0  0  0  0  0  0
   -1.8833    0.3625    0.0000 O   0  0  0  0  0  0  0  0  0  0  0  0
   -0.3625    0.5000    0.0000 O   0  0  0  0  0  0  0  0  0  0  0  0
  2 17  1  0  0  0  0
  3  1  1  0  0  0  0
  4  5  1  0  0  0  0
  5  8  1  0  0  0  0
  6  4  2  0  0  0  0
  7  1  1  0  0  0  0
  8  7  2  0  0  0  0
  9  6  1  0  0  0  0
 10  2  1  0  0  0  0
 11  2  1  0  0  0  0
 12 13  1  0  0  0  0
 13  1  2  0  0  0  0
 14 15  1  0  0  0  0
 15  5  2  0  0  0  0
 16  9  1  0  0  0  0
 17 16  1  0  0  0  0
 18  3  1  0  0  0  0
 19  3  2  0  0  0  0
 20 10  1  0  0  0  0
 21 11  1  0  0  0  0
 22 10  2  0  0  0  0
 23 11  2  0  0  0  0
 24 16  2  0  0  0  0
  8 12  1  0  0  0  0
  6 14  1  0  0  0  0
 20 21  1  0  0  0  0
M  CHG  2   3   1  18  -1
M  END
> <IDNUMBER>
F0466-0262

> <Chemical_Name>
2-(2,5-dioxopyrrolidin-1-yl)-N-[4-(4-nitrothiophen-2-yl)-1,3-thiazol-2-yl]acetamide

> <CAS>
476323-79-2

> <PriceCoeff>
1.00

> <MW>
366.37

> <Description>
solid

> <FSP3>
0.23

> <clogP>
1.60

> <TPSA>
178.99

> <Acceptor>
6

> <Donor>
1

> <RotBonds>
5

> <HAC>
24

> <Collection>
General

$$$$
F0911-3695
  -ISIS-  06222321142D

 26 28  0  0  0  0  0  0  0  0999 V2000
    3.5667   -2.4500    0.0000 C   0  0  0  0  0  0  0  0  0  0  0  0
    2.5375   -3.0167    0.0000 C   0  0  0  0  0  0  0  0  0  0  0  0
    1.5542   -2.4500    0.0000 C   0  0  0  0  0  0  0  0  0  0  0  0
    3.5667   -1.3500    0.0000 C   0  0  0  0  0  0  0  0  0  0  0  0
    1.5542   -1.3500    0.0000 C   0  0  0  0  0  0  0  0  0  0  0  0
    2.5375   -0.7667    0.0000 O   0  0  0  0  0  0  0  0  0  0  0  0
    4.2875   -2.8542    0.0000 C   0  0  0  0  0  0  0  0  0  0  0  0
   -2.5208   -1.3500    0.0000 C   0  0  0  0  0  0  0  0  0  0  0  0
    0.5375   -0.7667    0.0000 C   0  0  0  0  0  0  0  0  0  0  0  0
   -1.5000   -0.7667    0.0000 O   0  0  0  0  0  0  0  0  0  0  0  0
    0.5375   -3.0167    0.0000 C   0  0  0  0  0  0  0  0  0  0  0  0
   -3.5500   -0.7667    0.0000 C   0  0  3  0  0  0  0  0  0  0  0  0
   -0.4833   -1.3500    0.0000 C   0  0  0  0  0  0  0  0  0  0  0  0
    2.5375   -4.1542    0.0000 O   0  0  0  0  0  0  0  0  0  0  0  0
   -2.5333   -2.4875    0.0000 O   0  0  0  0  0  0  0  0  0  0  0  0
    4.2875   -3.6875    0.0000 C   0  0  0  0  0  0  0  0  0  0  0  0
   -0.4833   -2.4500    0.0000 C   0  0  0  0  0  0  0  0  0  0  0  0
    3.5667   -4.1000    0.0000 O   0  0  0  0  0  0  0  0  0  0  0  0
    5.0000   -2.4500    0.0000 C   0  0  0  0  0  0  0  0  0  0  0  0
   -4.5833   -0.2000    0.0000 C   0  0  0  0  0  0  0  0  0  0  0  0
   -2.9625    0.2208    0.0000 C   0  0  0  0  0  0  0  0  0  0  0  0
   -4.1583   -1.7542    0.0000 C   0  0  0  0  0  0  0  0  0  0  0  0
    5.0000   -4.1000    0.0000 C   0  0  0  0  0  0  0  0  0  0  0  0
    3.5667   -4.9167    0.0000 C   0  0  0  0  0  0  0  0  0  0  0  0
    5.7042   -2.8542    0.0000 C   0  0  0  0  0  0  0  0  0  0  0  0
    5.7042   -3.6875    0.0000 C   0  0  0  0  0  0  0  0  0  0  0  0
  2  1  1  0  0  0  0
  3  2  1  0  0  0  0
  4  1  2  0  0  0  0
  5  6  1  0  0  0  0
  6  4  1  0  0  0  0
  7  1  1  0  0  0  0
  8 10  1  0  0  0  0
  9  5  2  0  0  0  0
 10 13  1  0  0  0  0
 11  3  2  0  0  0  0
 12  8  1  0  0  0  0
 13  9  1  0  0  0  0
 14  2  2  0  0  0  0
 15  8  2  0  0  0  0
 16  7  2  0  0  0  0
 17 11  1  0  0  0  0
 18 16  1  0  0  0  0
 19  7  1  0  0  0  0
 20 12  1  0  0  0  0
 21 12  1  0  0  0  0
 22 12  1  0  0  0  0
 23 16  1  0  0  0  0
 24 18  1  0  0  0  0
 25 19  2  0  0  0  0
 26 25  1  0  0  0  0
  5  3  1  0  0  0  0
 26 23  2  0  0  0  0
 13 17  2  0  0  0  0
M  END
> <IDNUMBER>
F0911-3695

> <Chemical_Name>
3-(2-methoxyphenyl)-4-oxo-4H-chromen-7-yl 2,2-dimethylpropanoate

> <CAS>
303121-59-7

> <PriceCoeff>
1.00

> <MW>
352.38

> <Description>
solid

> <FSP3>
0.24

> <clogP>
3.13

> <TPSA>
61.83

> <Acceptor>
5

> <Donor>
0

> <RotBonds>
4

> <HAC>
26

> <Collection>
General

> <Reference_compound>
CHEMBL44

> <Similarity>
0.8190

$$$$
F2384-0386
  -ISIS-  06222321462D

 25 27  0  0  0  0  0  0  0  0999 V2000
   -3.0333    7.5250    0.0000 N   0  0  3  0  0  0  0  0  0  0  0  0
   -3.0375    6.6917    0.0000 C   0  0  0  0  0  0  0  0  0  0  0  0
   -2.3083    7.9250    0.0000 C   0  0  0  0  0  0  0  0  0  0  0  0
   -3.7500    3.8000    0.0000 C   0  0  0  0  0  0  0  0  0  0  0  0
   -2.3208    6.2667    0.0000 C   0  0  0  0  0  0  0  0  0  0  0  0
   -3.0375    4.2125    0.0000 N   0  0  0  0  0  0  0  0  0  0  0  0
   -3.7583    6.2792    0.0000 C   0  0  0  0  0  0  0  0  0  0  0  0
   -3.7458    7.9375    0.0000 C   0  0  0  0  0  0  0  0  0  0  0  0
   -3.7583    2.9833    0.0000 C   0  0  0  0  0  0  0  0  0  0  0  0
   -3.0375    5.0292    0.0000 C   0  0  0  0  0  0  0  0  0  0  0  0
   -2.3208    5.4500    0.0000 C   0  0  0  0  0  0  0  0  0  0  0  0
   -1.5958    7.5042    0.0000 C   0  0  0  0  0  0  0  0  0  0  0  0
   -4.4708    4.2042    0.0000 O   0  0  0  0  0  0  0  0  0  0  0  0
   -2.3083    8.7542    0.0000 O   0  0  0  0  0  0  0  0  0  0  0  0
   -1.6083    6.6792    0.0000 C   0  0  0  0  0  0  0  0  0  0  0  0
   -3.0458    2.5583    0.0000 C   0  0  0  0  0  0  0  0  0  0  0  0
   -4.4708    2.5708    0.0000 C   0  0  0  0  0  0  0  0  0  0  0  0
   -3.7583    5.4542    0.0000 C   0  0  0  0  0  0  0  0  0  0  0  0
   -3.7625    1.3208    0.0000 C   0  0  0  0  0  0  0  0  0  0  0  0
   -3.0458    1.7333    0.0000 C   0  0  0  0  0  0  0  0  0  0  0  0
   -4.4750    1.7375    0.0000 C   0  0  0  0  0  0  0  0  0  0  0  0
   -3.7708    0.4958    0.0000 Cl  0  0  0  0  0  0  0  0  0  0  0  0
   -3.7458    8.7542    0.0000 C   0  0  3  0  0  0  0  0  0  0  0  0
   -3.0250    9.1750    0.0000 C   0  0  0  0  0  0  0  0  0  0  0  0
   -4.4583    9.1792    0.0000 C   0  0  0  0  0  0  0  0  0  0  0  0
  2  1  1  0  0  0  0
  3  1  1  0  0  0  0
  4  6  1  0  0  0  0
  5  2  2  0  0  0  0
  6 10  1  0  0  0  0
  7  2  1  0  0  0  0
  8  1  1  0  0  0  0
  9  4  1  0  0  0  0
 10 18  1  0  0  0  0
 11  5  1  0  0  0  0
 12  3  1  0  0  0  0
 13  4  2  0  0  0  0
 14  3  2  0  0  0  0
 15 12  1  0  0  0  0
 16  9  1  0  0  0  0
 17  9  2  0  0  0  0
 18  7  2  0  0  0  0
 19 21  2  0  0  0  0
 20 16  2  0  0  0  0
 21 17  1  0  0  0  0
 22 19  1  0  0  0  0
 23  8  1  0  0  0  0
 24 23  1  0  0  0  0
 25 23  1  0  0  0  0
  5 15  1  0  0  0  0
 11 10  2  0  0  0  0
 20 19  1  0  0  0  0
M  END
> <IDNUMBER>
F2384-0386

> <Chemical_Name>
4-chloro-N-[1-(2-methylpropyl)-2-oxo-1,2,3,4-tetrahydroquinolin-6-yl]benzamide

> <CAS>
941953-78-2

> <PriceCoeff>
1.00

> <MW>
356.85

> <Description>
solid

> <FSP3>
0.30

> <clogP>
4.24

> <TPSA>
49.41

> <Acceptor>
2

> <Donor>
1

> <RotBonds>
4

> <HAC>
25

> <Collection>
General

> <Reference_compound>
CHEMBL2286415

> <Similarity>
0.8060

$$$$
F3323-0579
  -ISIS-  06222321462D

 25 27  0  0  0  0  0  0  0  0999 V2000
    6.5750   -6.4542    0.0000 N   0  0  3  0  0  0  0  0  0  0  0  0
    5.7750   -6.2750    0.0000 C   0  0  0  0  0  0  0  0  0  0  0  0
    5.1292   -6.7792    0.0000 C   0  0  0  0  0  0  0  0  0  0  0  0
    7.0875   -5.8125    0.0000 C   0  0  0  0  0  0  0  0  0  0  0  0
    6.9292   -7.1917    0.0000 C   0  0  0  0  0  0  0  0  0  0  0  0
    8.4167   -5.2917    0.0000 C   0  0  0  0  0  0  0  0  0  0  0  0
    7.9042   -5.9375    0.0000 C   0  0  0  0  0  0  0  0  0  0  0  0
    5.7667   -8.1250    0.0000 O   0  0  0  0  0  0  0  0  0  0  0  0
    5.1250   -7.6042    0.0000 C   0  0  0  0  0  0  0  0  0  0  0  0
    5.5917   -5.4667    0.0000 O   0  0  0  0  0  0  0  0  0  0  0  0
    6.5667   -7.9417    0.0000 C   0  0  0  0  0  0  0  0  0  0  0  0
    9.2292   -5.4167    0.0000 C   0  0  0  0  0  0  0  0  0  0  0  0
    8.1125   -4.5292    0.0000 C   0  0  0  0  0  0  0  0  0  0  0  0
    7.7542   -7.1917    0.0000 O   0  0  0  0  0  0  0  0  0  0  0  0
    8.2042   -6.7042    0.0000 O   0  0  0  0  0  0  0  0  0  0  0  0
    9.7417   -4.7750    0.0000 C   0  0  0  0  0  0  0  0  0  0  0  0
    8.6250   -3.8792    0.0000 C   0  0  0  0  0  0  0  0  0  0  0  0
    4.4125   -6.3667    0.0000 C   0  0  0  0  0  0  0  0  0  0  0  0
    9.4417   -4.0042    0.0000 C   0  0  0  0  0  0  0  0  0  0  0  0
    8.3250   -3.1125    0.0000 F   0  0  0  0  0  0  0  0  0  0  0  0
    9.5292   -6.1792    0.0000 O   0  0  0  0  0  0  0  0  0  0  0  0
    4.4125   -8.0250    0.0000 C   0  0  0  0  0  0  0  0  0  0  0  0
   10.3417   -6.3042    0.0000 C   0  0  0  0  0  0  0  0  0  0  0  0
    3.7000   -6.7875    0.0000 C   0  0  0  0  0  0  0  0  0  0  0  0
    3.7000   -7.6125    0.0000 C   0  0  0  0  0  0  0  0  0  0  0  0
  2  1  1  0  0  0  0
  3  2  1  0  0  0  0
  4  1  1  0  0  0  0
  5  1  1  0  0  0  0
  6  7  1  0  0  0  0
  7  4  1  0  0  0  0
  8 11  1  0  0  0  0
  9  3  1  0  0  0  0
 10  2  2  0  0  0  0
 11  5  1  0  0  0  0
 12  6  2  0  0  0  0
 13  6  1  0  0  0  0
 14  5  2  0  0  0  0
 15  7  2  0  0  0  0
 16 12  1  0  0  0  0
 17 13  2  0  0  0  0
 18  3  2  0  0  0  0
 19 17  1  0  0  0  0
 20 17  1  0  0  0  0
 21 12  1  0  0  0  0
 22  9  2  0  0  0  0
 23 21  1  0  0  0  0
 24 18  1  0  0  0  0
 25 24  2  0  0  0  0
  9  8  1  0  0  0  0
 22 25  1  0  0  0  0
 16 19  2  0  0  0  0
M  END
> <IDNUMBER>
F3323-0579

> <Chemical_Name>
4-[2-(5-fluoro-2-methoxyphenyl)-2-oxoethyl]-2,3,4,5-tetrahydro-1,4-benzoxazepine-3,5-dione

> <CAS>
905428-14-0

> <PriceCoeff>
1.00

> <MW>
343.31

> <Description>
solid

> <FSP3>
0.17

> <clogP>
2.95

> <TPSA>
72.91

> <Acceptor>
5

> <Donor>
0

> <RotBonds>
4

> <HAC>
25

> <Collection>
General

$$$$
F3325-0126
  -ISIS-  06222321462D

 28 31  0  0  0  0  0  0  0  0999 V2000
    4.8792   -1.3250    0.0000 N   0  0  3  0  0  0  0  0  0  0  0  0
    5.3667   -1.9917    0.0000 C   0  0  0  0  0  0  0  0  0  0  0  0
    5.3625   -0.6542    0.0000 C   0  0  0  0  0  0  0  0  0  0  0  0
    6.1542   -1.7292    0.0000 C   0  0  3  0  0  0  0  0  0  0  0  0
    6.1417   -0.9042    0.0000 C   0  0  0  0  0  0  0  0  0  0  0  0
    6.8167   -2.2125    0.0000 N   0  0  3  0  0  0  0  0  0  0  0  0
    4.0542   -1.3292    0.0000 C   0  0  0  0  0  0  0  0  0  0  0  0
    8.1542   -3.1750    0.0000 N   0  0  3  0  0  0  0  0  0  0  0  0
    5.1167   -2.7750    0.0000 O   0  0  0  0  0  0  0  0  0  0  0  0
    5.1042    0.1333    0.0000 O   0  0  0  0  0  0  0  0  0  0  0  0
    7.5667   -1.8667    0.0000 C   0  0  0  0  0  0  0  0  0  0  0  0
    6.7292   -3.0292    0.0000 C   0  0  0  0  0  0  0  0  0  0  0  0
    3.6417   -0.6167    0.0000 C   0  0  0  0  0  0  0  0  0  0  0  0
    8.8250   -3.6542    0.0000 C   0  0  0  0  0  0  0  0  0  0  0  0
    7.4000   -3.5125    0.0000 C   0  0  0  0  0  0  0  0  0  0  0  0
    8.2375   -2.3542    0.0000 C   0  0  0  0  0  0  0  0  0  0  0  0
    9.5750   -3.3250    0.0000 C   0  0  0  0  0  0  0  0  0  0  0  0
    3.6500   -2.0417    0.0000 C   0  0  0  0  0  0  0  0  0  0  0  0
    4.0500    0.0958    0.0000 C   0  0  0  0  0  0  0  0  0  0  0  0
    2.8167   -0.6250    0.0000 C   0  0  0  0  0  0  0  0  0  0  0  0
   10.2417   -3.8042    0.0000 C   0  0  0  0  0  0  0  0  0  0  0  0
    9.6542   -2.5042    0.0000 C   0  0  0  0  0  0  0  0  0  0  0  0
    3.6292    0.8125    0.0000 C   0  0  0  0  0  0  0  0  0  0  0  0
    2.8292   -2.0542    0.0000 C   0  0  0  0  0  0  0  0  0  0  0  0
    2.4042   -1.3417    0.0000 C   0  0  0  0  0  0  0  0  0  0  0  0
   10.9917   -3.4667    0.0000 C   0  0  0  0  0  0  0  0  0  0  0  0
   10.4042   -2.1667    0.0000 C   0  0  0  0  0  0  0  0  0  0  0  0
   11.0792   -2.6500    0.0000 C   0  0  0  0  0  0  0  0  0  0  0  0
  2  1  1  0  0  0  0
  3  1  1  0  0  0  0
  4  2  1  0  0  0  0
  5  3  1  0  0  0  0
  6  4  1  0  0  0  0
  7  1  1  0  0  0  0
  8 15  1  0  0  0  0
  9  2  2  0  0  0  0
 10  3  2  0  0  0  0
 11  6  1  0  0  0  0
 12  6  1  0  0  0  0
 13  7  2  0  0  0  0
 14  8  1  0  0  0  0
 15 12  1  0  0  0  0
 16 11  1  0  0  0  0
 17 14  1  0  0  0  0
 18  7  1  0  0  0  0
 19 13  1  0  0  0  0
 20 13  1  0  0  0  0
 21 17  2  0  0  0  0
 22 17  1  0  0  0  0
 23 19  1  0  0  0  0
 24 18  2  0  0  0  0
 25 24  1  0  0  0  0
 26 21  1  0  0  0  0
 27 22  2  0  0  0  0
 28 27  1  0  0  0  0
  4  5  1  0  0  0  0
 20 25  2  0  0  0  0
 16  8  1  0  0  0  0
 26 28  2  0  0  0  0
M  END
> <IDNUMBER>
F3325-0126

> <Chemical_Name>
3-(4-benzylpiperazin-1-yl)-1-(2-ethylphenyl)pyrrolidine-2,5-dione

> <CAS>
924873-72-3

> <PriceCoeff>
1.00

> <MW>
377.48

> <Description>
solid

> <FSP3>
0.39

> <clogP>
4.06

> <TPSA>
43.86

> <Acceptor>
4

> <Donor>
2

> <RotBonds>
5

> <HAC>
28

> <Collection>
General

$$$$
F3139-1062
  -ISIS-  06222321152D

 22 24  0  0  0  0  0  0  0  0999 V2000
    7.3417   -4.3542    0.0000 C   0  0  0  0  0  0  0  0  0  0  0  0
    6.6250   -4.7667    0.0000 C   0  0  0  0  0  0  0  0  0  0  0  0
    5.9125   -4.3542    0.0000 C   0  0  0  0  0  0  0  0  0  0  0  0
    7.3417   -3.5292    0.0000 C   0  0  0  0  0  0  0  0  0  0  0  0
    5.9125   -3.5292    0.0000 C   0  0  0  0  0  0  0  0  0  0  0  0
    6.6250   -3.1167    0.0000 O   0  0  0  0  0  0  0  0  0  0  0  0
    5.2000   -3.1167    0.0000 C   0  0  0  0  0  0  0  0  0  0  0  0
    5.2000   -4.7667    0.0000 C   0  0  0  0  0  0  0  0  0  0  0  0
    3.0417   -3.5250    0.0000 C   0  0  0  0  0  0  0  0  0  0  0  0
    8.0542   -4.7667    0.0000 C   0  0  0  0  0  0  0  0  0  0  0  0
    6.6250   -5.5917    0.0000 O   0  0  0  0  0  0  0  0  0  0  0  0
    4.4792   -3.5292    0.0000 C   0  0  0  0  0  0  0  0  0  0  0  0
    3.7625   -3.1167    0.0000 O   0  0  0  0  0  0  0  0  0  0  0  0
    3.0375   -4.3500    0.0000 O   0  0  0  0  0  0  0  0  0  0  0  0
    4.4792   -4.3542    0.0000 C   0  0  0  0  0  0  0  0  0  0  0  0
    2.3292   -3.1042    0.0000 C   0  0  0  0  0  0  0  0  0  0  0  0
    8.0542   -5.5917    0.0000 C   0  0  0  0  0  0  0  0  0  0  0  0
    8.7750   -4.3542    0.0000 C   0  0  0  0  0  0  0  0  0  0  0  0
    2.3375   -2.2792    0.0000 C   0  0  0  0  0  0  0  0  0  0  0  0
    9.4917   -4.7542    0.0000 C   0  0  0  0  0  0  0  0  0  0  0  0
    8.7667   -6.0042    0.0000 C   0  0  0  0  0  0  0  0  0  0  0  0
    9.4792   -5.5917    0.0000 C   0  0  0  0  0  0  0  0  0  0  0  0
  2  1  1  0  0  0  0
  3  2  1  0  0  0  0
  4  1  2  0  0  0  0
  5  6  1  0  0  0  0
  6  4  1  0  0  0  0
  7  5  2  0  0  0  0
  8  3  2  0  0  0  0
  9 13  1  0  0  0  0
 10  1  1  0  0  0  0
 11  2  2  0  0  0  0
 12  7  1  0  0  0  0
 13 12  1  0  0  0  0
 14  9  2  0  0  0  0
 15  8  1  0  0  0  0
 16  9  1  0  0  0  0
 17 10  2  0  0  0  0
 18 10  1  0  0  0  0
 19 16  1  0  0  0  0
 20 18  2  0  0  0  0
 21 17  1  0  0  0  0
 22 20  1  0  0  0  0
  3  5  1  0  0  0  0
 22 21  2  0  0  0  0
 15 12  2  0  0  0  0
M  END
> <IDNUMBER>
F3139-1062

> <Chemical_Name>
4-oxo-3-phenyl-4H-chromen-7-yl propanoate

> <CAS>
301691-64-5

> <PriceCoeff>
1.00

> <MW>
294.30

> <Description>
solid

> <FSP3>
0.11

> <clogP>
3.05

> <TPSA>
52.60

> <Acceptor>
4

> <Donor>
0

> <RotBonds>
4

> <HAC>
22

> <Collection>
General

> <Reference_compound>
CHEMBL44

> <Similarity>
0.8520

$$$$
F3385-1569
  -ISIS-  06222321152D

 23 25  0  0  0  0  0  0  0  0999 V2000
    1.3167   -1.2375    0.0000 C   0  0  0  0  0  0  0  0  0  0  0  0
    0.5917   -1.6542    0.0000 C   0  0  0  0  0  0  0  0  0  0  0  0
   -0.1208   -1.2417    0.0000 C   0  0  0  0  0  0  0  0  0  0  0  0
   -2.9833   -0.4125    0.0000 C   0  0  0  0  0  0  0  0  0  0  0  0
    1.3125   -0.4042    0.0000 C   0  0  0  0  0  0  0  0  0  0  0  0
   -0.1250   -0.4125    0.0000 C   0  0  0  0  0  0  0  0  0  0  0  0
    0.5875    0.0125    0.0000 O   0  0  0  0  0  0  0  0  0  0  0  0
   -2.2708   -0.0042    0.0000 O   0  0  0  0  0  0  0  0  0  0  0  0
   -0.8458   -0.0000    0.0000 C   0  0  0  0  0  0  0  0  0  0  0  0
   -0.8458   -1.6542    0.0000 C   0  0  0  0  0  0  0  0  0  0  0  0
   -3.6958    0.0083    0.0000 N   0  0  3  0  0  0  0  0  0  0  0  0
    2.0292   -1.6500    0.0000 C   0  0  0  0  0  0  0  0  0  0  0  0
   -1.5583   -0.4125    0.0000 C   0  0  0  0  0  0  0  0  0  0  0  0
    0.6000   -2.4792    0.0000 O   0  0  0  0  0  0  0  0  0  0  0  0
   -2.9958   -1.2375    0.0000 O   0  0  0  0  0  0  0  0  0  0  0  0
   -1.5583   -1.2417    0.0000 C   0  0  0  0  0  0  0  0  0  0  0  0
   -3.6958    0.8333    0.0000 C   0  0  0  0  0  0  0  0  0  0  0  0
   -4.4125   -0.4000    0.0000 C   0  0  0  0  0  0  0  0  0  0  0  0
    2.7417   -1.2292    0.0000 C   0  0  0  0  0  0  0  0  0  0  0  0
    2.0292   -2.4750    0.0000 C   0  0  0  0  0  0  0  0  0  0  0  0
    2.7417   -2.8792    0.0000 C   0  0  0  0  0  0  0  0  0  0  0  0
    3.4542   -1.6417    0.0000 C   0  0  0  0  0  0  0  0  0  0  0  0
    3.4542   -2.4667    0.0000 C   0  0  0  0  0  0  0  0  0  0  0  0
  2  1  1  0  0  0  0
  3  2  1  0  0  0  0
  4  8  1  0  0  0  0
  5  1  2  0  0  0  0
  6  7  1  0  0  0  0
  7  5  1  0  0  0  0
  8 13  1  0  0  0  0
  9  6  2  0  0  0  0
 10  3  2  0  0  0  0
 11  4  1  0  0  0  0
 12  1  1  0  0  0  0
 13  9  1  0  0  0  0
 14  2  2  0  0  0  0
 15  4  2  0  0  0  0
 16 10  1  0  0  0  0
 17 11  1  0  0  0  0
 18 11  1  0  0  0  0
 19 12  1  0  0  0  0
 20 12  2  0  0  0  0
 21 20  1  0  0  0  0
 22 19  2  0  0  0  0
 23 21  2  0  0  0  0
  6  3  1  0  0  0  0
 22 23  1  0  0  0  0
 13 16  2  0  0  0  0
M  END
> <IDNUMBER>
F3385-1569

> <Chemical_Name>
4-oxo-3-phenyl-4H-chromen-7-yl N,N-dimethylcarbamate

> <CAS>
858765-51-2

> <PriceCoeff>
1.00

> <MW>
309.32

> <Description>
solid

> <FSP3>
0.11

> <clogP>
2.45

> <TPSA>
55.84

> <Acceptor>
4

> <Donor>
0

> <RotBonds>
4

> <HAC>
23

> <Collection>
General

> <Reference_compound>
CHEMBL44

> <Similarity>
0.8310

$$$$
F3115-0070
  -ISIS-  06222321462D

 26 28  0  0  0  0  0  0  0  0999 V2000
    2.4542   -1.9125    0.0000 N   0  0  3  0  0  0  0  0  0  0  0  0
    2.9375   -1.2417    0.0000 C   0  0  0  0  0  0  0  0  0  0  0  0
    2.9417   -2.5792    0.0000 C   0  0  0  0  0  0  0  0  0  0  0  0
    1.6292   -1.9167    0.0000 C   0  0  0  0  0  0  0  0  0  0  0  0
   -0.0083   -3.3625    0.0000 N   0  3  0  0  0  0  0  0  0  0  0  0
    3.7292   -2.3167    0.0000 C   0  0  3  0  0  0  0  0  0  0  0  0
    3.7250   -1.4917    0.0000 C   0  0  0  0  0  0  0  0  0  0  0  0
    1.2250   -2.6292    0.0000 C   0  0  0  0  0  0  0  0  0  0  0  0
    0.4042   -2.6375    0.0000 C   0  0  0  0  0  0  0  0  0  0  0  0
    4.3917   -2.8000    0.0000 N   0  0  0  0  0  0  0  0  0  0  0  0
   -0.8333   -3.3667    0.0000 O   0  5  0  0  0  0  0  0  0  0  0  0
    1.2167   -1.2042    0.0000 C   0  0  0  0  0  0  0  0  0  0  0  0
    2.6792   -0.4542    0.0000 O   0  0  0  0  0  0  0  0  0  0  0  0
    0.4167   -4.0667    0.0000 O   0  0  0  0  0  0  0  0  0  0  0  0
    2.6917   -3.3625    0.0000 O   0  0  0  0  0  0  0  0  0  0  0  0
   -0.0208   -1.9250    0.0000 C   0  0  0  0  0  0  0  0  0  0  0  0
    0.3917   -1.2042    0.0000 C   0  0  0  0  0  0  0  0  0  0  0  0
    5.1500   -2.4625    0.0000 C   0  0  0  0  0  0  0  0  0  0  0  0
    6.6500   -1.7875    0.0000 C   0  0  0  0  0  0  0  0  0  0  0  0
    5.2292   -1.6417    0.0000 C   0  0  0  0  0  0  0  0  0  0  0  0
    5.8167   -2.9417    0.0000 C   0  0  0  0  0  0  0  0  0  0  0  0
    6.5667   -2.6042    0.0000 C   0  0  0  0  0  0  0  0  0  0  0  0
    5.9750   -1.3042    0.0000 C   0  0  0  0  0  0  0  0  0  0  0  0
    7.4042   -1.4417    0.0000 O   0  0  0  0  0  0  0  0  0  0  0  0
    1.6250   -0.4875    0.0000 C   0  0  0  0  0  0  0  0  0  0  0  0
    8.0750   -1.9250    0.0000 C   0  0  0  0  0  0  0  0  0  0  0  0
  2  1  1  0  0  0  0
  3  1  1  0  0  0  0
  4  1  1  0  0  0  0
  5  9  1  0  0  0  0
  6  3  1  0  0  0  0
  7  2  1  0  0  0  0
  8  4  1  0  0  0  0
  9  8  2  0  0  0  0
 10  6  1  0  0  0  0
 11  5  1  0  0  0  0
 12  4  2  0  0  0  0
 13  2  2  0  0  0  0
 14  5  2  0  0  0  0
 15  3  2  0  0  0  0
 16 17  2  0  0  0  0
 17 12  1  0  0  0  0
 18 10  1  0  0  0  0
 19 22  2  0  0  0  0
 20 18  1  0  0  0  0
 21 18  2  0  0  0  0
 22 21  1  0  0  0  0
 23 20  2  0  0  0  0
 24 19  1  0  0  0  0
 25 12  1  0  0  0  0
 26 24  1  0  0  0  0
  6  7  1  0  0  0  0
  9 16  1  0  0  0  0
 19 23  1  0  0  0  0
M  CHG  2   5   1  11  -1
M  END
> <IDNUMBER>
F3115-0070

> <Chemical_Name>
3-[(4-methoxyphenyl)amino]-1-(2-methyl-5-nitrophenyl)pyrrolidine-2,5-dione

> <CAS>
1008434-54-5

> <PriceCoeff>
1.00

> <MW>
355.34

> <Description>
solid

> <FSP3>
0.22

> <clogP>
3.03

> <TPSA>
101.78

> <Acceptor>
6

> <Donor>
1

> <RotBonds>
5

> <HAC>
26

> <Collection>
General

$$$$
F3139-0691
  -ISIS-  06222321462D

 23 25  0  0  0  0  0  0  0  0999 V2000
    1.8542   -1.7167    0.0000 C   0  0  0  0  0  0  0  0  0  0  0  0
    1.1417   -2.1375    0.0000 C   0  0  0  0  0  0  0  0  0  0  0  0
    1.8542   -0.8875    0.0000 C   0  0  0  0  0  0  0  0  0  0  0  0
    0.4250   -1.7292    0.0000 C   0  0  0  0  0  0  0  0  0  0  0  0
    0.4167   -0.8917    0.0000 C   0  0  0  0  0  0  0  0  0  0  0  0
    1.1292   -0.4750    0.0000 O   0  0  0  0  0  0  0  0  0  0  0  0
   -0.2958   -0.4875    0.0000 C   0  0  0  0  0  0  0  0  0  0  0  0
    2.5667   -2.1250    0.0000 C   0  0  0  0  0  0  0  0  0  0  0  0
   -0.2958   -2.1292    0.0000 C   0  0  0  0  0  0  0  0  0  0  0  0
    1.1417   -2.9625    0.0000 O   0  0  0  0  0  0  0  0  0  0  0  0
    2.5750   -2.9542    0.0000 C   0  0  0  0  0  0  0  0  0  0  0  0
    3.2917   -1.7042    0.0000 C   0  0  0  0  0  0  0  0  0  0  0  0
   -1.0000   -0.9000    0.0000 C   0  0  0  0  0  0  0  0  0  0  0  0
   -1.0083   -1.7167    0.0000 C   0  0  0  0  0  0  0  0  0  0  0  0
    2.5667   -0.4667    0.0000 C   0  0  0  0  0  0  0  0  0  0  0  0
    4.0042   -2.9417    0.0000 C   0  0  0  0  0  0  0  0  0  0  0  0
    3.2875   -3.3625    0.0000 C   0  0  0  0  0  0  0  0  0  0  0  0
    3.9917   -2.1167    0.0000 C   0  0  0  0  0  0  0  0  0  0  0  0
   -1.7125   -0.4875    0.0000 O   0  0  0  0  0  0  0  0  0  0  0  0
    4.7167   -3.3542    0.0000 O   0  0  0  0  0  0  0  0  0  0  0  0
   -2.4333   -0.8917    0.0000 C   0  0  0  0  0  0  0  0  0  0  0  0
    5.4292   -2.9375    0.0000 C   0  0  0  0  0  0  0  0  0  0  0  0
   -3.1500   -0.4792    0.0000 C   0  0  0  0  0  0  0  0  0  0  0  0
  2  1  1  0  0  0  0
  3  1  2  0  0  0  0
  4  2  1  0  0  0  0
  5  6  1  0  0  0  0
  6  3  1  0  0  0  0
  7  5  2  0  0  0  0
  8  1  1  0  0  0  0
  9  4  2  0  0  0  0
 10  2  2  0  0  0  0
 11  8  2  0  0  0  0
 12  8  1  0  0  0  0
 13  7  1  0  0  0  0
 14  9  1  0  0  0  0
 15  3  1  0  0  0  0
 16 18  1  0  0  0  0
 17 11  1  0  0  0  0
 18 12  2  0  0  0  0
 19 13  1  0  0  0  0
 20 16  1  0  0  0  0
 21 19  1  0  0  0  0
 22 20  1  0  0  0  0
 23 21  1  0  0  0  0
 16 17  2  0  0  0  0
  4  5  1  0  0  0  0
 14 13  2  0  0  0  0
M  END
> <IDNUMBER>
F3139-0691

> <Chemical_Name>
7-ethoxy-3-(4-methoxyphenyl)-2-methyl-4H-chromen-4-one

> <CAS>
303094-61-3

> <PriceCoeff>
1.00

> <MW>
310.34

> <Description>
solid

> <FSP3>
0.21

> <clogP>
3.75

> <TPSA>
44.76

> <Acceptor>
4

> <Donor>
0

> <RotBonds>
4

> <HAC>
23

> <Collection>
General

> <Reference_compound>
CHEMBL44

> <Similarity>
0.8200

$$$$
F8885-7819
  -ISIS-  06222321472D

 12 13  0  0  0  0  0  0  0  0999 V2000
    0.6500   -0.6917    0.0000 C   0  0  0  0  0  0  0  0  0  0  0  0
    1.1375   -0.0292    0.0000 N   0  0  0  0  0  0  0  0  0  0  0  0
    1.1375   -1.3625    0.0000 S   0  0  0  0  0  0  0  0  0  0  0  0
   -0.1750   -0.6917    0.0000 S   0  0  0  0  0  0  0  0  0  0  0  0
    1.9167   -0.2792    0.0000 C   0  0  0  0  0  0  0  0  0  0  0  0
    1.9167   -1.1042    0.0000 C   0  0  0  0  0  0  0  0  0  0  0  0
   -0.5875   -1.4042    0.0000 C   0  0  0  0  0  0  0  0  0  0  0  0
   -1.4125   -1.4042    0.0000 Cl  0  0  0  0  0  0  0  0  0  0  0  0
    2.6375    0.1333    0.0000 C   0  0  0  0  0  0  0  0  0  0  0  0
    2.6375   -1.5167    0.0000 C   0  0  0  0  0  0  0  0  0  0  0  0
    3.3500   -1.1042    0.0000 C   0  0  0  0  0  0  0  0  0  0  0  0
    3.3500   -0.2792    0.0000 C   0  0  0  0  0  0  0  0  0  0  0  0
  2  1  2  0  0  0  0
  3  1  1  0  0  0  0
  4  1  1  0  0  0  0
  5  2  1  0  0  0  0
  6  3  1  0  0  0  0
  7  4  1  0  0  0  0
  8  7  1  0  0  0  0
  9  5  1  0  0  0  0
 10  6  1  0  0  0  0
 11 10  2  0  0  0  0
 12  9  2  0  0  0  0
  6  5  2  0  0  0  0
 11 12  1  0  0  0  0
M  END
> <IDNUMBER>
F8885-7819

> <Chemical_Name>
2-[(chloromethyl)sulfanyl]-1,3-benzothiazole

> <CAS>
28908-00-1

> <PriceCoeff>
1.00

> <MW>
215.72

> <Description>
oil

> <FSP3>
0.12

> <clogP>
3.85

> <TPSA>
66.43

> <Acceptor>
1

> <Donor>
0

> <RotBonds>
2

> <HAC>
12

> <Collection>
General

> <Reference_compound>
PRI300

> <Similarity>
0.8140

$$$$
F3139-0931
  -ISIS-  06222321152D

 22 25  0  0  0  0  0  0  0  0999 V2000
    4.7167   -1.1792    0.0000 C   0  0  0  0  0  0  0  0  0  0  0  0
    5.4375   -0.7792    0.0000 C   0  0  0  0  0  0  0  0  0  0  0  0
    4.7125   -2.0042    0.0000 C   0  0  0  0  0  0  0  0  0  0  0  0
    4.0042   -0.7542    0.0000 O   0  0  0  0  0  0  0  0  0  0  0  0
    3.9875   -2.4042    0.0000 C   0  0  0  0  0  0  0  0  0  0  0  0
    6.1417   -1.2000    0.0000 C   0  0  0  0  0  0  0  0  0  0  0  0
    3.2792   -1.9792    0.0000 C   0  0  0  0  0  0  0  0  0  0  0  0
    6.8667   -0.7917    0.0000 C   0  0  0  0  0  0  0  0  0  0  0  0
    3.2917   -1.1625    0.0000 C   0  0  0  0  0  0  0  0  0  0  0  0
    5.4417    0.0458    0.0000 C   0  0  0  0  0  0  0  0  0  0  0  0
    6.1375   -2.0250    0.0000 O   0  0  0  0  0  0  0  0  0  0  0  0
    6.8750    0.0333    0.0000 C   0  0  0  0  0  0  0  0  0  0  0  0
    3.9792   -3.2292    0.0000 O   0  0  0  0  0  0  0  0  0  0  0  0
    6.1542    0.4500    0.0000 C   0  0  0  0  0  0  0  0  0  0  0  0
    7.5667   -2.0375    0.0000 O   0  0  0  0  0  0  0  0  0  0  0  0
    6.8417   -2.4417    0.0000 C   0  0  0  0  0  0  0  0  0  0  0  0
    7.5750   -1.2042    0.0000 C   0  0  0  0  0  0  0  0  0  0  0  0
    6.1667    1.2750    0.0000 Br  0  0  0  0  0  0  0  0  0  0  0  0
    2.5625   -2.3792    0.0000 C   0  0  0  0  0  0  0  0  0  0  0  0
    2.5917   -0.7375    0.0000 C   0  0  0  0  0  0  0  0  0  0  0  0
    1.8542   -1.9625    0.0000 C   0  0  0  0  0  0  0  0  0  0  0  0
    1.8667   -1.1375    0.0000 C   0  0  0  0  0  0  0  0  0  0  0  0
  2  1  1  0  0  0  0
  3  1  2  0  0  0  0
  4  1  1  0  0  0  0
  5  3  1  0  0  0  0
  6  2  2  0  0  0  0
  7  9  2  0  0  0  0
  8  6  1  0  0  0  0
  9  4  1  0  0  0  0
 10  2  1  0  0  0  0
 11  6  1  0  0  0  0
 12 14  1  0  0  0  0
 13  5  2  0  0  0  0
 14 10  2  0  0  0  0
 15 16  1  0  0  0  0
 16 11  1  0  0  0  0
 17  8  1  0  0  0  0
 18 14  1  0  0  0  0
 19  7  1  0  0  0  0
 20  9  1  0  0  0  0
 21 22  1  0  0  0  0
 22 20  2  0  0  0  0
  7  5  1  0  0  0  0
  8 12  2  0  0  0  0
 15 17  1  0  0  0  0
 19 21  2  0  0  0  0
M  END
> <IDNUMBER>
F3139-0931

> <Chemical_Name>
2-(6-bromo-2,4-dihydro-1,3-benzodioxin-8-yl)-4H-chromen-4-one

> <CAS>
147723-08-8

> <PriceCoeff>
1.00

> <MW>
359.17

> <Description>
solid

> <FSP3>
0.12

> <clogP>
3.47

> <TPSA>
44.76

> <Acceptor>
4

> <Donor>
0

> <RotBonds>
1

> <HAC>
22

> <Collection>
General

> <Reference_compound>
CHEMBL2229074

> <Similarity>
0.8020

$$$$
F0196-0180
  -ISIS-  06222321442D

 19 21  0  0  0  0  0  0  0  0999 V2000
    0.0542   -0.5375    0.0000 C   0  0  0  0  0  0  0  0  0  0  0  0
   -0.6458   -0.9542    0.0000 C   0  0  0  0  0  0  0  0  0  0  0  0
   -1.3458   -0.5542    0.0000 C   0  0  0  0  0  0  0  0  0  0  0  0
    0.0542    0.2625    0.0000 C   0  0  0  0  0  0  0  0  0  0  0  0
   -1.3458    0.2625    0.0000 C   0  0  0  0  0  0  0  0  0  0  0  0
   -0.6458    0.6625    0.0000 O   0  0  0  0  0  0  0  0  0  0  0  0
    0.7542   -0.9375    0.0000 C   0  0  0  0  0  0  0  0  0  0  0  0
   -2.0458   -0.9542    0.0000 C   0  0  0  0  0  0  0  0  0  0  0  0
   -2.0458    0.6625    0.0000 C   0  0  0  0  0  0  0  0  0  0  0  0
   -0.6458   -1.7542    0.0000 O   0  0  0  0  0  0  0  0  0  0  0  0
    1.4542   -0.5375    0.0000 C   0  0  0  0  0  0  0  0  0  0  0  0
    0.7542   -1.7542    0.0000 C   0  0  0  0  0  0  0  0  0  0  0  0
   -2.7458    0.2625    0.0000 C   0  0  0  0  0  0  0  0  0  0  0  0
   -2.7458   -0.5375    0.0000 C   0  0  0  0  0  0  0  0  0  0  0  0
    2.1542   -1.7375    0.0000 C   0  0  0  0  0  0  0  0  0  0  0  0
    2.1542   -0.9542    0.0000 C   0  0  0  0  0  0  0  0  0  0  0  0
    1.4542   -2.1542    0.0000 C   0  0  0  0  0  0  0  0  0  0  0  0
    2.8792   -2.1375    0.0000 Cl  0  0  0  0  0  0  0  0  0  0  0  0
   -3.4625    0.6458    0.0000 O   0  0  0  0  0  0  0  0  0  0  0  0
  2  1  1  0  0  0  0
  3  2  1  0  0  0  0
  4  1  2  0  0  0  0
  5  6  1  0  0  0  0
  6  4  1  0  0  0  0
  7  1  1  0  0  0  0
  8  3  1  0  0  0  0
  9  5  1  0  0  0  0
 10  2  2  0  0  0  0
 11  7  2  0  0  0  0
 12  7  1  0  0  0  0
 13  9  2  0  0  0  0
 14  8  2  0  0  0  0
 15 17  1  0  0  0  0
 16 11  1  0  0  0  0
 17 12  2  0  0  0  0
 18 15  1  0  0  0  0
 19 13  1  0  0  0  0
 15 16  2  0  0  0  0
  5  3  2  0  0  0  0
 13 14  1  0  0  0  0
M  END
> <IDNUMBER>
F0196-0180

> <Chemical_Name>
3-(4-chlorophenyl)-7-hydroxy-4H-chromen-4-one

> <CAS>
15485-81-1

> <PriceCoeff>
1.00

> <MW>
272.68

> <Description>
solid

> <FSP3>
0.00

> <clogP>
3.42

> <TPSA>
46.53

> <Acceptor>
3

> <Donor>
1

> <RotBonds>
1

> <HAC>
19

> <Collection>
General

> <Reference_compound>
CHEMBL44

> <Similarity>
0.9040

$$$$
F1105-0218
  -ISIS-  06222321442D

 23 25  0  0  0  0  0  0  0  0999 V2000
   -2.4875    7.4917    0.0000 N   0  0  0  0  0  0  0  0  0  0  0  0
   -2.1125    6.8417    0.0000 C   0  0  0  0  0  0  0  0  0  0  0  0
   -3.2208    7.3375    0.0000 C   0  0  0  0  0  0  0  0  0  0  0  0
   -0.9875    3.4375    0.0000 N   0  3  0  0  0  0  0  0  0  0  0  0
   -1.7708    4.4792    0.0000 C   0  0  0  0  0  0  0  0  0  0  0  0
   -2.3750    4.0417    0.0000 C   0  0  0  0  0  0  0  0  0  0  0  0
   -2.6208    6.2792    0.0000 C   0  0  0  0  0  0  0  0  0  0  0  0
   -3.3000    6.5917    0.0000 C   0  0  0  0  0  0  0  0  0  0  0  0
   -1.0833    4.1875    0.0000 C   0  0  0  0  0  0  0  0  0  0  0  0
   -3.0625    4.3417    0.0000 N   0  0  0  0  0  0  0  0  0  0  0  0
   -3.9125    6.1500    0.0000 C   0  0  0  0  0  0  0  0  0  0  0  0
   -1.5958    2.9958    0.0000 O   0  5  0  0  0  0  0  0  0  0  0  0
   -2.5375    5.5292    0.0000 C   0  0  0  0  0  0  0  0  0  0  0  0
   -0.2958    3.1458    0.0000 O   0  0  0  0  0  0  0  0  0  0  0  0
   -1.3625    6.7792    0.0000 O   0  0  0  0  0  0  0  0  0  0  0  0
   -3.7833    7.8375    0.0000 O   0  0  0  0  0  0  0  0  0  0  0  0
   -3.1458    5.0917    0.0000 C   0  0  0  0  0  0  0  0  0  0  0  0
   -2.2958    3.2958    0.0000 O   0  0  0  0  0  0  0  0  0  0  0  0
   -3.8375    5.4000    0.0000 C   0  0  0  0  0  0  0  0  0  0  0  0
   -1.8583    5.2292    0.0000 C   0  0  0  0  0  0  0  0  0  0  0  0
   -0.4750    4.6292    0.0000 C   0  0  0  0  0  0  0  0  0  0  0  0
   -1.2583    5.6792    0.0000 C   0  0  0  0  0  0  0  0  0  0  0  0
   -0.5583    5.3792    0.0000 C   0  0  0  0  0  0  0  0  0  0  0  0
  2  1  1  0  0  0  0
  3  1  1  0  0  0  0
  4  9  1  0  0  0  0
  5  6  1  0  0  0  0
  6 10  1  0  0  0  0
  7  2  1  0  0  0  0
  8  3  1  0  0  0  0
  9  5  2  0  0  0  0
 10 17  1  0  0  0  0
 11  8  1  0  0  0  0
 12  4  1  0  0  0  0
 13  7  1  0  0  0  0
 14  4  2  0  0  0  0
 15  2  2  0  0  0  0
 16  3  2  0  0  0  0
 17 13  2  0  0  0  0
 18  6  2  0  0  0  0
 19 11  2  0  0  0  0
 20  5  1  0  0  0  0
 21  9  1  0  0  0  0
 22 20  2  0  0  0  0
 23 22  1  0  0  0  0
  8  7  2  0  0  0  0
 19 17  1  0  0  0  0
 21 23  2  0  0  0  0
M  CHG  2   4   1  12  -1
M  END
> <IDNUMBER>
F1105-0218

> <Chemical_Name>
N-(1,3-dioxo-2,3-dihydro-1H-isoindol-5-yl)-2-nitrobenzamide

> <CAS>
683235-81-6

> <PriceCoeff>
1.00

> <MW>
311.25

> <Description>
solid

> <FSP3>
0.00

> <clogP>
1.04

> <TPSA>
118.41

> <Acceptor>
5

> <Donor>
2

> <RotBonds>
3

> <HAC>
23

> <Collection>
General

> <Reference_compound>
CHEMBL2287471

> <Similarity>
0.8030

$$$$
F2764-0083
  -ISIS-  06222321462D

 23 25  0  0  0  0  0  0  0  0999 V2000
    0.7167    5.1292    0.0000 N   0  3  0  0  0  0  0  0  0  0  0  0
    0.0625    5.5042    0.0000 C   0  0  0  0  0  0  0  0  0  0  0  0
   -0.5875    5.1292    0.0000 C   0  0  0  0  0  0  0  0  0  0  0  0
   -1.8750    5.1292    0.0000 C   0  0  0  0  0  0  0  0  0  0  0  0
   -4.6583    6.4375    0.0000 C   0  0  3  0  0  0  0  0  0  0  0  0
   -1.2333    5.5042    0.0000 C   0  0  0  0  0  0  0  0  0  0  0  0
   -3.9208    6.2792    0.0000 O   0  0  0  0  0  0  0  0  0  0  0  0
   -5.0333    5.7917    0.0000 O   0  0  0  0  0  0  0  0  0  0  0  0
    0.0625    6.2542    0.0000 C   0  0  0  0  0  0  0  0  0  0  0  0
   -2.5333    5.5167    0.0000 N   0  0  0  0  0  0  0  0  0  0  0  0
    1.3625    5.5042    0.0000 O   0  5  0  0  0  0  0  0  0  0  0  0
    0.7167    4.3792    0.0000 O   0  0  0  0  0  0  0  0  0  0  0  0
   -3.8458    5.5292    0.0000 C   0  0  3  0  0  0  0  0  0  0  0  0
   -1.8833    4.3792    0.0000 O   0  0  0  0  0  0  0  0  0  0  0  0
   -1.2333    6.2542    0.0000 C   0  0  0  0  0  0  0  0  0  0  0  0
   -0.5875    6.6292    0.0000 C   0  0  0  0  0  0  0  0  0  0  0  0
   -4.5333    5.2292    0.0000 C   0  0  0  0  0  0  0  0  0  0  0  0
   -3.1875    5.1417    0.0000 C   0  0  0  0  0  0  0  0  0  0  0  0
    0.7167    6.6375    0.0000 Cl  0  0  0  0  0  0  0  0  0  0  0  0
   -4.2833    7.0917    0.0000 C   0  0  0  0  0  0  0  0  0  0  0  0
   -5.3958    6.5917    0.0000 C   0  0  0  0  0  0  0  0  0  0  0  0
   -5.4708    7.3417    0.0000 C   0  0  0  0  0  0  0  0  0  0  0  0
   -4.7875    7.6417    0.0000 C   0  0  0  0  0  0  0  0  0  0  0  0
  2  1  1  0  0  0  0
  3  2  1  0  0  0  0
  4  6  1  0  0  0  0
  5  7  1  0  0  0  0
  6  3  2  0  0  0  0
  7 13  1  0  0  0  0
  8 17  1  0  0  0  0
  9  2  2  0  0  0  0
 10  4  1  0  0  0  0
 11  1  1  0  0  0  0
 12  1  2  0  0  0  0
 13 18  1  0  0  0  0
 14  4  2  0  0  0  0
 15 16  2  0  0  0  0
 16  9  1  0  0  0  0
 17 13  1  0  0  0  0
 18 10  1  0  0  0  0
 19  9  1  0  0  0  0
 20  5  1  0  0  0  0
 21  5  1  0  0  0  0
 22 21  1  0  0  0  0
 23 20  1  0  0  0  0
  6 15  1  0  0  0  0
  8  5  1  0  0  0  0
 23 22  1  0  0  0  0
M  CHG  2   1   1  11  -1
M  END
> <IDNUMBER>
F2764-0083

> <Chemical_Name>
4-chloro-N-({1,4-dioxaspiro[4.4]nonan-2-yl}methyl)-3-nitrobenzamide

> <CAS>
899962-85-7

> <PriceCoeff>
1.00

> <MW>
340.76

> <Description>
solid

> <FSP3>
0.53

> <clogP>
2.86

> <TPSA>
90.70

> <Acceptor>
5

> <Donor>
1

> <RotBonds>
4

> <HAC>
23

> <Collection>
General

$$$$
F0196-0030
  -ISIS-  06222321142D

 19 21  0  0  0  0  0  0  0  0999 V2000
    0.7875    1.7625    0.0000 C   0  0  0  0  0  0  0  0  0  0  0  0
    0.2500    1.4625    0.0000 C   0  0  0  0  0  0  0  0  0  0  0  0
   -0.2958    1.7625    0.0000 C   0  0  0  0  0  0  0  0  0  0  0  0
    0.7875    2.4000    0.0000 C   0  0  0  0  0  0  0  0  0  0  0  0
   -0.2958    2.3833    0.0000 C   0  0  0  0  0  0  0  0  0  0  0  0
    0.2500    2.7083    0.0000 O   0  0  0  0  0  0  0  0  0  0  0  0
   -0.8125    1.4625    0.0000 C   0  0  0  0  0  0  0  0  0  0  0  0
   -0.8125    2.7083    0.0000 C   0  0  0  0  0  0  0  0  0  0  0  0
    1.3042    1.4458    0.0000 C   0  0  0  0  0  0  0  0  0  0  0  0
    0.2500    0.8458    0.0000 O   0  0  0  0  0  0  0  0  0  0  0  0
   -1.3500    2.4000    0.0000 C   0  0  0  0  0  0  0  0  0  0  0  0
   -1.3500    1.7625    0.0000 C   0  0  0  0  0  0  0  0  0  0  0  0
   -1.8958    2.7458    0.0000 O   0  0  0  0  0  0  0  0  0  0  0  0
    1.2875    0.8125    0.0000 C   0  0  0  0  0  0  0  0  0  0  0  0
    1.8542    1.7333    0.0000 C   0  0  0  0  0  0  0  0  0  0  0  0
   -2.4333    2.4458    0.0000 C   0  0  0  0  0  0  0  0  0  0  0  0
    2.3792    1.4125    0.0000 C   0  0  0  0  0  0  0  0  0  0  0  0
    1.8042    0.4958    0.0000 C   0  0  0  0  0  0  0  0  0  0  0  0
    2.3542    0.7833    0.0000 C   0  0  0  0  0  0  0  0  0  0  0  0
  2  1  1  0  0  0  0
  3  2  1  0  0  0  0
  4  1  2  0  0  0  0
  5  6  1  0  0  0  0
  6  4  1  0  0  0  0
  7  3  1  0  0  0  0
  8  5  1  0  0  0  0
  9  1  1  0  0  0  0
 10  2  2  0  0  0  0
 11  8  2  0  0  0  0
 12  7  2  0  0  0  0
 13 11  1  0  0  0  0
 14  9  2  0  0  0  0
 15  9  1  0  0  0  0
 16 13  1  0  0  0  0
 17 15  2  0  0  0  0
 18 14  1  0  0  0  0
 19 17  1  0  0  0  0
  3  5  2  0  0  0  0
 18 19  2  0  0  0  0
 12 11  1  0  0  0  0
M  END
> <IDNUMBER>
F0196-0030

> <Chemical_Name>
7-methoxy-3-phenyl-4H-chromen-4-one

> <CAS>
1621-56-3

> <PriceCoeff>
1.00

> <MW>
252.26

> <Description>
solid

> <FSP3>
0.06

> <clogP>
3.09

> <TPSA>
35.53

> <Acceptor>
3

> <Donor>
0

> <RotBonds>
2

> <HAC>
19

> <Collection>
General

> <Reference_compound>
CHEMBL44

> <Similarity>
0.9580

$$$$
F1065-0364
  -ISIS-  06222321142D

 30 33  0  0  0  0  0  0  0  0999 V2000
   -1.4125    0.4000    0.0000 N   0  0  3  0  0  0  0  0  0  0  0  0
   -0.7333    0.8958    0.0000 C   0  0  0  0  0  0  0  0  0  0  0  0
   -1.1500   -0.4000    0.0000 C   0  0  0  0  0  0  0  0  0  0  0  0
   -0.2958   -0.4000    0.0000 C   0  0  3  0  0  0  0  0  0  0  0  0
   -0.0208    0.4000    0.0000 C   0  0  0  0  0  0  0  0  0  0  0  0
   -2.1958    0.6708    0.0000 C   0  0  0  0  0  0  0  0  0  0  0  0
   -4.2958   -0.1542    0.0000 C   0  0  3  0  0  0  0  0  0  0  0  0
    3.5167   -1.1292    0.0000 N   0  0  3  0  0  0  0  0  0  0  0  0
    0.1042   -1.1292    0.0000 N   0  0  0  0  0  0  0  0  0  0  0  0
   -3.6500    0.3958    0.0000 C   0  0  0  0  0  0  0  0  0  0  0  0
   -2.8333    0.1208    0.0000 C   0  0  0  0  0  0  0  0  0  0  0  0
   -0.7333    1.7458    0.0000 O   0  0  0  0  0  0  0  0  0  0  0  0
    2.6667   -1.1292    0.0000 C   0  0  0  0  0  0  0  0  0  0  0  0
   -1.6625   -1.1000    0.0000 O   0  0  0  0  0  0  0  0  0  0  0  0
   -4.0958   -0.9292    0.0000 F   0  0  0  0  0  0  0  0  0  0  0  0
   -4.8958   -0.7667    0.0000 F   0  0  0  0  0  0  0  0  0  0  0  0
   -5.1708    0.1000    0.0000 F   0  0  0  0  0  0  0  0  0  0  0  0
    5.2292   -1.1500    0.0000 O   0  0  0  0  0  0  0  0  0  0  0  0
    2.2500   -1.8542    0.0000 C   0  0  0  0  0  0  0  0  0  0  0  0
    2.2500   -0.4000    0.0000 C   0  0  0  0  0  0  0  0  0  0  0  0
    0.9542   -1.1292    0.0000 C   0  0  0  0  0  0  0  0  0  0  0  0
    1.4000   -0.4000    0.0000 C   0  0  0  0  0  0  0  0  0  0  0  0
    1.4000   -1.8542    0.0000 C   0  0  0  0  0  0  0  0  0  0  0  0
   -2.3625    1.5125    0.0000 C   0  0  0  0  0  0  0  0  0  0  0  0
    3.9500   -1.8542    0.0000 C   0  0  0  0  0  0  0  0  0  0  0  0
    3.9500   -0.4000    0.0000 C   0  0  0  0  0  0  0  0  0  0  0  0
   -3.8208    1.2208    0.0000 C   0  0  0  0  0  0  0  0  0  0  0  0
   -3.1708    1.7958    0.0000 C   0  0  0  0  0  0  0  0  0  0  0  0
    4.8000   -0.4000    0.0000 C   0  0  0  0  0  0  0  0  0  0  0  0
    4.8000   -1.8667    0.0000 C   0  0  0  0  0  0  0  0  0  0  0  0
  2  1  1  0  0  0  0
  3  1  1  0  0  0  0
  4  3  1  0  0  0  0
  5  2  1  0  0  0  0
  6  1  1  0  0  0  0
  7 10  1  0  0  0  0
  8 13  1  0  0  0  0
  9  4  1  0  0  0  0
 10 11  2  0  0  0  0
 11  6  1  0  0  0  0
 12  2  2  0  0  0  0
 13 19  1  0  0  0  0
 14  3  2  0  0  0  0
 15  7  1  0  0  0  0
 16  7  1  0  0  0  0
 17  7  1  0  0  0  0
 18 29  1  0  0  0  0
 19 23  2  0  0  0  0
 20 22  1  0  0  0  0
 21  9  1  0  0  0  0
 22 21  2  0  0  0  0
 23 21  1  0  0  0  0
 24  6  2  0  0  0  0
 25  8  1  0  0  0  0
 26  8  1  0  0  0  0
 27 28  2  0  0  0  0
 28 24  1  0  0  0  0
 29 26  1  0  0  0  0
 30 25  1  0  0  0  0
  5  4  1  0  0  0  0
 27 10  1  0  0  0  0
 20 13  2  0  0  0  0
 30 18  1  0  0  0  0
M  END
> <IDNUMBER>
F1065-0364

> <Chemical_Name>
3-{[4-(morpholin-4-yl)phenyl]amino}-1-[3-(trifluoromethyl)phenyl]pyrrolidine-2,5-dione

> <CAS>
355115-32-1

> <PriceCoeff>
1.00

> <MW>
419.40

> <Description>
solid

> <FSP3>
0.33

> <clogP>
3.32

> <TPSA>
61.88

> <Acceptor>
5

> <Donor>
2

> <RotBonds>
4

> <HAC>
30

> <Collection>
General

$$$$
F1065-0411
  -ISIS-  06222321142D

 29 32  0  0  0  0  0  0  0  0999 V2000
   -1.4333   -0.0000    0.0000 N   0  0  3  0  0  0  0  0  0  0  0  0
   -0.9833    0.7000    0.0000 C   0  0  0  0  0  0  0  0  0  0  0  0
   -0.9125   -0.6500    0.0000 C   0  0  0  0  0  0  0  0  0  0  0  0
   -0.1333   -0.3542    0.0000 C   0  0  3  0  0  0  0  0  0  0  0  0
   -0.1708    0.4958    0.0000 C   0  0  0  0  0  0  0  0  0  0  0  0
    3.6667    0.3708    0.0000 N   0  0  3  0  0  0  0  0  0  0  0  0
    0.5500   -0.9000    0.0000 N   0  0  0  0  0  0  0  0  0  0  0  0
   -2.2708   -0.0000    0.0000 C   0  0  0  0  0  0  0  0  0  0  0  0
   -1.3000    1.5000    0.0000 O   0  0  0  0  0  0  0  0  0  0  0  0
    2.9000    0.0500    0.0000 C   0  0  0  0  0  0  0  0  0  0  0  0
   -1.1208   -1.5000    0.0000 O   0  0  0  0  0  0  0  0  0  0  0  0
    5.2292    0.9958    0.0000 O   0  0  0  0  0  0  0  0  0  0  0  0
   -2.7000    0.7333    0.0000 C   0  0  0  0  0  0  0  0  0  0  0  0
   -2.7000   -0.7500    0.0000 C   0  0  0  0  0  0  0  0  0  0  0  0
    2.7792   -0.7667    0.0000 C   0  0  0  0  0  0  0  0  0  0  0  0
    2.2042    0.5708    0.0000 C   0  0  0  0  0  0  0  0  0  0  0  0
    1.3167   -0.5667    0.0000 C   0  0  0  0  0  0  0  0  0  0  0  0
   -4.0000   -0.0000    0.0000 C   0  0  0  0  0  0  0  0  0  0  0  0
    2.0000   -1.1000    0.0000 C   0  0  0  0  0  0  0  0  0  0  0  0
    1.4500    0.2500    0.0000 C   0  0  0  0  0  0  0  0  0  0  0  0
   -3.5625   -0.7500    0.0000 C   0  0  0  0  0  0  0  0  0  0  0  0
   -3.5625    0.7333    0.0000 C   0  0  0  0  0  0  0  0  0  0  0  0
    4.3292   -0.1500    0.0000 C   0  0  0  0  0  0  0  0  0  0  0  0
    3.7792    1.2000    0.0000 C   0  0  0  0  0  0  0  0  0  0  0  0
   -4.8458    0.0125    0.0000 O   0  0  0  0  0  0  0  0  0  0  0  0
    5.1292    0.1708    0.0000 C   0  0  0  0  0  0  0  0  0  0  0  0
    4.5542    1.5208    0.0000 C   0  0  0  0  0  0  0  0  0  0  0  0
   -5.2708   -0.7000    0.0000 C   0  0  0  0  0  0  0  0  0  0  0  0
   -4.8458   -1.4167    0.0000 C   0  0  0  0  0  0  0  0  0  0  0  0
  2  1  1  0  0  0  0
  3  1  1  0  0  0  0
  4  3  1  0  0  0  0
  5  2  1  0  0  0  0
  6 10  1  0  0  0  0
  7  4  1  0  0  0  0
  8  1  1  0  0  0  0
  9  2  2  0  0  0  0
 10 16  1  0  0  0  0
 11  3  2  0  0  0  0
 12 27  1  0  0  0  0
 13  8  2  0  0  0  0
 14  8  1  0  0  0  0
 15 19  1  0  0  0  0
 16 20  2  0  0  0  0
 17  7  1  0  0  0  0
 18 21  1  0  0  0  0
 19 17  2  0  0  0  0
 20 17  1  0  0  0  0
 21 14  2  0  0  0  0
 22 13  1  0  0  0  0
 23  6  1  0  0  0  0
 24  6  1  0  0  0  0
 25 18  1  0  0  0  0
 26 23  1  0  0  0  0
 27 24  1  0  0  0  0
 28 25  1  0  0  0  0
 29 28  1  0  0  0  0
  5  4  1  0  0  0  0
 22 18  2  0  0  0  0
 10 15  2  0  0  0  0
 26 12  1  0  0  0  0
M  END
> <IDNUMBER>
F1065-0411

> <Chemical_Name>
1-(4-ethoxyphenyl)-3-{[4-(morpholin-4-yl)phenyl]amino}pyrrolidine-2,5-dione

> <CAS>
355115-11-6

> <PriceCoeff>
1.00

> <MW>
395.45

> <Description>
solid

> <FSP3>
0.36

> <clogP>
2.56

> <TPSA>
71.11

> <Acceptor>
6

> <Donor>
2

> <RotBonds>
6

> <HAC>
29

> <Collection>
General

$$$$
F1065-0769
  -ISIS-  06222321142D

 30 33  0  0  0  0  0  0  0  0999 V2000
   -1.7500   -1.3875    0.0000 N   0  0  3  0  0  0  0  0  0  0  0  0
   -2.1500   -2.3042    0.0000 C   0  0  0  0  0  0  0  0  0  0  0  0
   -0.7333   -1.4667    0.0000 C   0  0  0  0  0  0  0  0  0  0  0  0
   -0.4958   -2.4500    0.0000 C   0  0  3  0  0  0  0  0  0  0  0  0
   -1.3708   -2.9875    0.0000 C   0  0  0  0  0  0  0  0  0  0  0  0
   -4.1125    1.9958    0.0000 C   0  0  3  0  0  0  0  0  0  0  0  0
    3.3875    0.1708    0.0000 N   0  0  3  0  0  0  0  0  0  0  0  0
    0.4875   -2.7292    0.0000 N   0  0  0  0  0  0  0  0  0  0  0  0
   -2.3500   -0.5500    0.0000 C   0  0  0  0  0  0  0  0  0  0  0  0
   -3.5125    1.1333    0.0000 C   0  0  0  0  0  0  0  0  0  0  0  0
   -3.1500   -2.5042    0.0000 O   0  0  0  0  0  0  0  0  0  0  0  0
    2.6667   -0.5667    0.0000 C   0  0  0  0  0  0  0  0  0  0  0  0
   -0.0708   -0.6500    0.0000 O   0  0  0  0  0  0  0  0  0  0  0  0
   -3.3708   -0.6292    0.0000 C   0  0  0  0  0  0  0  0  0  0  0  0
   -1.9125    0.3958    0.0000 C   0  0  0  0  0  0  0  0  0  0  0  0
   -2.4958    1.2333    0.0000 C   0  0  0  0  0  0  0  0  0  0  0  0
   -3.9583    0.2125    0.0000 C   0  0  0  0  0  0  0  0  0  0  0  0
   -4.7208    2.8500    0.0000 F   0  0  0  0  0  0  0  0  0  0  0  0
   -3.2708    2.5958    0.0000 F   0  0  0  0  0  0  0  0  0  0  0  0
   -4.9708    1.4125    0.0000 F   0  0  0  0  0  0  0  0  0  0  0  0
    4.8292    1.6125    0.0000 O   0  0  0  0  0  0  0  0  0  0  0  0
    1.6667   -0.3042    0.0000 C   0  0  0  0  0  0  0  0  0  0  0  0
    2.9500   -1.5667    0.0000 C   0  0  0  0  0  0  0  0  0  0  0  0
    1.2292   -2.0292    0.0000 C   0  0  0  0  0  0  0  0  0  0  0  0
    0.9500   -1.0292    0.0000 C   0  0  0  0  0  0  0  0  0  0  0  0
    2.2292   -2.2875    0.0000 C   0  0  0  0  0  0  0  0  0  0  0  0
    4.3667   -0.0875    0.0000 C   0  0  0  0  0  0  0  0  0  0  0  0
    3.1042    1.1500    0.0000 C   0  0  0  0  0  0  0  0  0  0  0  0
    5.0875    0.6333    0.0000 C   0  0  0  0  0  0  0  0  0  0  0  0
    3.8042    1.8958    0.0000 C   0  0  0  0  0  0  0  0  0  0  0  0
  2  1  1  0  0  0  0
  3  1  1  0  0  0  0
  4  3  1  0  0  0  0
  5  2  1  0  0  0  0
  6 10  1  0  0  0  0
  7 12  1  0  0  0  0
  8  4  1  0  0  0  0
  9  1  1  0  0  0  0
 10 16  2  0  0  0  0
 11  2  2  0  0  0  0
 12 23  2  0  0  0  0
 13  3  2  0  0  0  0
 14  9  1  0  0  0  0
 15  9  2  0  0  0  0
 16 15  1  0  0  0  0
 17 14  2  0  0  0  0
 18  6  1  0  0  0  0
 19  6  1  0  0  0  0
 20  6  1  0  0  0  0
 21 30  1  0  0  0  0
 22 25  2  0  0  0  0
 23 26  1  0  0  0  0
 24  8  1  0  0  0  0
 25 24  1  0  0  0  0
 26 24  2  0  0  0  0
 27  7  1  0  0  0  0
 28  7  1  0  0  0  0
 29 27  1  0  0  0  0
 30 28  1  0  0  0  0
  4  5  1  0  0  0  0
 10 17  1  0  0  0  0
 12 22  1  0  0  0  0
 21 29  1  0  0  0  0
M  END
> <IDNUMBER>
F1065-0769

> <Chemical_Name>
3-{[4-(morpholin-4-yl)phenyl]amino}-1-[4-(trifluoromethyl)phenyl]pyrrolidine-2,5-dione

> <CAS>
471915-80-7

> <PriceCoeff>
1.00

> <MW>
419.40

> <Description>
solid

> <FSP3>
0.33

> <clogP>
3.32

> <TPSA>
61.88

> <Acceptor>
5

> <Donor>
2

> <RotBonds>
4

> <HAC>
30

> <Collection>
General

$$$$
F1145-0006
  -ISIS-  06222321142D

 12 13  0  0  0  0  0  0  0  0999 V2000
    2.0250   -0.2417    0.0000 O   0  0  0  0  0  0  0  0  0  0  0  0
    1.7667    0.5458    0.0000 C   0  0  0  0  0  0  0  0  0  0  0  0
    2.4375    1.0250    0.0000 N   0  0  0  0  0  0  0  0  0  0  0  0
    2.8500   -0.2417    0.0000 C   0  0  0  0  0  0  0  0  0  0  0  0
    3.1042    0.5458    0.0000 N   0  0  0  0  0  0  0  0  0  0  0  0
    0.9875    0.7958    0.0000 C   0  0  0  0  0  0  0  0  0  0  0  0
    3.3292   -0.9125    0.0000 S   0  0  0  0  0  0  0  0  0  0  0  0
   -0.4125    0.5083    0.0000 N   0  0  0  0  0  0  0  0  0  0  0  0
    0.3750    0.2458    0.0000 C   0  0  0  0  0  0  0  0  0  0  0  0
    0.8167    1.6083    0.0000 C   0  0  0  0  0  0  0  0  0  0  0  0
   -0.5833    1.3125    0.0000 C   0  0  0  0  0  0  0  0  0  0  0  0
    0.0292    1.8583    0.0000 C   0  0  0  0  0  0  0  0  0  0  0  0
  2  1  1  0  0  0  0
  3  2  2  0  0  0  0
  4  1  1  0  0  0  0
  5  4  1  0  0  0  0
  6  2  1  0  0  0  0
  7  4  2  0  0  0  0
  8  9  2  0  0  0  0
  9  6  1  0  0  0  0
 10  6  2  0  0  0  0
 11 12  2  0  0  0  0
 12 10  1  0  0  0  0
  5  3  1  0  0  0  0
  8 11  1  0  0  0  0
M  END
> <IDNUMBER>
F1145-0006

> <Chemical_Name>
5-(pyridin-3-yl)-2,3-dihydro-1,3,4-oxadiazole-2-thione

> <CAS>
3690-46-8

> <PriceCoeff>
1.00

> <MW>
179.20

> <Description>
solid

> <FSP3>
0.00

> <clogP>
0.65

> <TPSA>
78.60

> <Acceptor>
4

> <Donor>
3

> <RotBonds>
1

> <HAC>
12

> <Collection>
General

> <Reference_compound>
CHEMBL571513

> <Similarity>
0.8270

$$$$
F3323-0624
  -ISIS-  06222321442D

 25 27  0  0  0  0  0  0  0  0999 V2000
    6.5750   -6.4542    0.0000 N   0  0  3  0  0  0  0  0  0  0  0  0
    5.7750   -6.2750    0.0000 C   0  0  0  0  0  0  0  0  0  0  0  0
    5.1292   -6.7792    0.0000 C   0  0  0  0  0  0  0  0  0  0  0  0
    7.0875   -5.8125    0.0000 C   0  0  0  0  0  0  0  0  0  0  0  0
    6.9292   -7.1917    0.0000 C   0  0  0  0  0  0  0  0  0  0  0  0
    8.4167   -5.2917    0.0000 C   0  0  0  0  0  0  0  0  0  0  0  0
    7.9042   -5.9375    0.0000 C   0  0  0  0  0  0  0  0  0  0  0  0
    5.7667   -8.1250    0.0000 O   0  0  0  0  0  0  0  0  0  0  0  0
    5.1250   -7.6042    0.0000 C   0  0  0  0  0  0  0  0  0  0  0  0
    5.5917   -5.4667    0.0000 O   0  0  0  0  0  0  0  0  0  0  0  0
    6.5667   -7.9417    0.0000 C   0  0  0  0  0  0  0  0  0  0  0  0
    9.2292   -5.4167    0.0000 C   0  0  0  0  0  0  0  0  0  0  0  0
    8.1125   -4.5292    0.0000 C   0  0  0  0  0  0  0  0  0  0  0  0
    7.7542   -7.1917    0.0000 O   0  0  0  0  0  0  0  0  0  0  0  0
    8.2042   -6.7042    0.0000 O   0  0  0  0  0  0  0  0  0  0  0  0
    9.7417   -4.7750    0.0000 C   0  0  0  0  0  0  0  0  0  0  0  0
    8.6250   -3.8792    0.0000 C   0  0  0  0  0  0  0  0  0  0  0  0
    4.4125   -6.3667    0.0000 C   0  0  0  0  0  0  0  0  0  0  0  0
    9.4417   -4.0042    0.0000 C   0  0  0  0  0  0  0  0  0  0  0  0
    9.5292   -6.1792    0.0000 O   0  0  0  0  0  0  0  0  0  0  0  0
    4.4125   -8.0250    0.0000 C   0  0  0  0  0  0  0  0  0  0  0  0
    8.3167   -3.1167    0.0000 C   0  0  0  0  0  0  0  0  0  0  0  0
   10.3417   -6.3042    0.0000 C   0  0  0  0  0  0  0  0  0  0  0  0
    3.7000   -6.7875    0.0000 C   0  0  0  0  0  0  0  0  0  0  0  0
    3.7000   -7.6125    0.0000 C   0  0  0  0  0  0  0  0  0  0  0  0
  2  1  1  0  0  0  0
  3  2  1  0  0  0  0
  4  1  1  0  0  0  0
  5  1  1  0  0  0  0
  6  7  1  0  0  0  0
  7  4  1  0  0  0  0
  8 11  1  0  0  0  0
  9  3  1  0  0  0  0
 10  2  2  0  0  0  0
 11  5  1  0  0  0  0
 12  6  2  0  0  0  0
 13  6  1  0  0  0  0
 14  5  2  0  0  0  0
 15  7  2  0  0  0  0
 16 12  1  0  0  0  0
 17 13  2  0  0  0  0
 18  3  2  0  0  0  0
 19 17  1  0  0  0  0
 20 12  1  0  0  0  0
 21  9  2  0  0  0  0
 22 17  1  0  0  0  0
 23 20  1  0  0  0  0
 24 18  1  0  0  0  0
 25 24  2  0  0  0  0
  9  8  1  0  0  0  0
 21 25  1  0  0  0  0
 16 19  2  0  0  0  0
M  END
> <IDNUMBER>
F3323-0624

> <Chemical_Name>
4-[2-(2-methoxy-5-methylphenyl)-2-oxoethyl]-2,3,4,5-tetrahydro-1,4-benzoxazepine-3,5-dione

> <CAS>
903186-56-1

> <PriceCoeff>
1.00

> <MW>
339.34

> <Description>
solid

> <FSP3>
0.21

> <clogP>
3.26

> <TPSA>
72.91

> <Acceptor>
5

> <Donor>
0

> <RotBonds>
4

> <HAC>
25

> <Collection>
General

$$$$
F5252-0296
  -ISIS-  06222321442D

 31 34  0  0  0  0  0  0  0  0999 V2000
   -2.1708    0.1083    0.0000 C   0  0  0  0  0  0  0  0  0  0  0  0
   -1.4458   -0.0875    0.0000 N   0  0  3  0  0  0  0  0  0  0  0  0
   -2.0833   -1.1042    0.0000 N   0  0  0  0  0  0  0  0  0  0  0  0
   -1.4000   -0.8292    0.0000 N   0  0  0  0  0  0  0  0  0  0  0  0
   -2.5708   -0.5250    0.0000 N   0  0  0  0  0  0  0  0  0  0  0  0
   -0.2458    2.9208    0.0000 C   0  0  0  0  0  0  0  0  0  0  0  0
   -0.7875    2.4000    0.0000 N   0  0  3  0  0  0  0  0  0  0  0  0
    0.4667    2.7083    0.0000 N   0  0  0  0  0  0  0  0  0  0  0  0
   -2.3625    0.8208    0.0000 C   0  0  0  0  0  0  0  0  0  0  0  0
   -1.8458    1.3458    0.0000 N   0  0  3  0  0  0  0  0  0  0  0  0
   -0.8458    0.3625    0.0000 C   0  0  0  0  0  0  0  0  0  0  0  0
    2.2542    3.5333    0.0000 C   0  0  0  0  0  0  0  0  0  0  0  0
    1.7250    3.0208    0.0000 C   0  0  0  0  0  0  0  0  0  0  0  0
    1.0042    3.2333    0.0000 C   0  0  0  0  0  0  0  0  0  0  0  0
   -0.4250    3.6458    0.0000 O   0  0  0  0  0  0  0  0  0  0  0  0
    2.0875    4.2542    0.0000 C   0  0  0  0  0  0  0  0  0  0  0  0
   -0.5958    1.6833    0.0000 C   0  0  0  0  0  0  0  0  0  0  0  0
   -1.5208    2.6000    0.0000 C   0  0  0  0  0  0  0  0  0  0  0  0
   -0.9458    1.1083    0.0000 C   0  0  0  0  0  0  0  0  0  0  0  0
   -0.1583    0.0708    0.0000 C   0  0  0  0  0  0  0  0  0  0  0  0
    1.3667    4.4625    0.0000 C   0  0  0  0  0  0  0  0  0  0  0  0
   -2.0458    2.0708    0.0000 C   0  0  0  0  0  0  0  0  0  0  0  0
   -1.1208    1.1583    0.0000 C   0  0  0  0  0  0  0  0  0  0  0  0
    2.9917    3.3333    0.0000 Cl  0  0  0  0  0  0  0  0  0  0  0  0
    0.8292    3.9458    0.0000 C   0  0  0  0  0  0  0  0  0  0  0  0
    2.6292    4.7667    0.0000 Cl  0  0  0  0  0  0  0  0  0  0  0  0
    0.3417    1.2708    0.0000 C   0  0  0  0  0  0  0  0  0  0  0  0
    0.4417    0.5250    0.0000 C   0  0  0  0  0  0  0  0  0  0  0  0
   -0.3458    1.5583    0.0000 C   0  0  0  0  0  0  0  0  0  0  0  0
    0.9417    1.7333    0.0000 O   0  0  0  0  0  0  0  0  0  0  0  0
    1.6375    1.4500    0.0000 C   0  0  0  0  0  0  0  0  0  0  0  0
  2  1  1  0  0  0  0
  3  5  1  0  0  0  0
  4  2  1  0  0  0  0
  5  1  2  0  0  0  0
  6  7  1  0  0  0  0
  7 17  1  0  0  0  0
  8  6  1  0  0  0  0
  9  1  1  0  0  0  0
 10  9  1  0  0  0  0
 11  2  1  0  0  0  0
 12 13  1  0  0  0  0
 13 14  2  0  0  0  0
 14  8  1  0  0  0  0
 15  6  2  0  0  0  0
 16 21  1  0  0  0  0
 17 23  1  0  0  0  0
 18 22  1  0  0  0  0
 19 11  2  0  0  0  0
 20 11  1  0  0  0  0
 21 25  2  0  0  0  0
 22 10  1  0  0  0  0
 23 10  1  0  0  0  0
 24 12  1  0  0  0  0
 25 14  1  0  0  0  0
 26 16  1  0  0  0  0
 27 28  1  0  0  0  0
 28 20  2  0  0  0  0
 29 19  1  0  0  0  0
 30 27  1  0  0  0  0
 31 30  1  0  0  0  0
  4  3  2  0  0  0  0
 18  7  1  0  0  0  0
 29 27  2  0  0  0  0
 16 12  2  0  0  0  0
M  END
> <IDNUMBER>
F5252-0296

> <Chemical_Name>
N-(3,4-dichlorophenyl)-4-{[1-(4-methoxyphenyl)-1H-1,2,3,4-tetrazol-5-yl]methyl}piperazine-1-carboxamide

> <CAS>
1049411-71-3

> <PriceCoeff>
1.00

> <MW>
462.33

> <Description>
solid

> <FSP3>
0.30

> <clogP>
3.82

> <TPSA>
88.41

> <Acceptor>
5

> <Donor>
2

> <RotBonds>
6

> <HAC>
31

> <Collection>
General

$$$$
F3023-0959
  -ISIS-  06222321462D

 28 31  0  0  0  0  0  0  0  0999 V2000
    3.5375   -6.4542    0.0000 N   0  0  3  0  0  0  0  0  0  0  0  0
    3.9542   -7.0250    0.0000 C   0  0  0  0  0  0  0  0  0  0  0  0
    3.9542   -5.8792    0.0000 C   0  0  0  0  0  0  0  0  0  0  0  0
    4.6292   -6.8042    0.0000 C   0  0  3  0  0  0  0  0  0  0  0  0
    4.6292   -6.0917    0.0000 C   0  0  0  0  0  0  0  0  0  0  0  0
    7.7917   -6.0625    0.0000 N   0  0  3  0  0  0  0  0  0  0  0  0
    2.8292   -6.4542    0.0000 C   0  0  0  0  0  0  0  0  0  0  0  0
    5.2042   -7.2167    0.0000 N   0  0  0  0  0  0  0  0  0  0  0  0
    7.1417   -6.3542    0.0000 C   0  0  0  0  0  0  0  0  0  0  0  0
    3.7417   -7.7000    0.0000 O   0  0  0  0  0  0  0  0  0  0  0  0
    3.7292   -5.2042    0.0000 O   0  0  0  0  0  0  0  0  0  0  0  0
    9.0917   -5.4875    0.0000 O   0  0  0  0  0  0  0  0  0  0  0  0
    7.0750   -7.0542    0.0000 C   0  0  0  0  0  0  0  0  0  0  0  0
    6.5667   -5.9375    0.0000 C   0  0  0  0  0  0  0  0  0  0  0  0
    5.8542   -6.9292    0.0000 C   0  0  0  0  0  0  0  0  0  0  0  0
    2.4792   -7.0750    0.0000 C   0  0  0  0  0  0  0  0  0  0  0  0
    5.9167   -6.2250    0.0000 C   0  0  0  0  0  0  0  0  0  0  0  0
    6.4250   -7.3417    0.0000 C   0  0  0  0  0  0  0  0  0  0  0  0
    1.7667   -7.0792    0.0000 C   0  0  0  0  0  0  0  0  0  0  0  0
    8.3667   -6.4792    0.0000 C   0  0  0  0  0  0  0  0  0  0  0  0
    7.8667   -5.3542    0.0000 C   0  0  0  0  0  0  0  0  0  0  0  0
    8.5167   -5.0667    0.0000 C   0  0  0  0  0  0  0  0  0  0  0  0
    9.0167   -6.1917    0.0000 C   0  0  0  0  0  0  0  0  0  0  0  0
    1.4167   -6.4667    0.0000 C   0  0  0  0  0  0  0  0  0  0  0  0
    1.4250   -7.6917    0.0000 C   0  0  0  0  0  0  0  0  0  0  0  0
    0.7167   -7.7000    0.0000 C   0  0  0  0  0  0  0  0  0  0  0  0
    0.7042   -6.4667    0.0000 C   0  0  0  0  0  0  0  0  0  0  0  0
    0.3542   -7.0875    0.0000 C   0  0  0  0  0  0  0  0  0  0  0  0
  2  1  1  0  0  0  0
  3  1  1  0  0  0  0
  4  2  1  0  0  0  0
  5  3  1  0  0  0  0
  6  9  1  0  0  0  0
  7  1  1  0  0  0  0
  8  4  1  0  0  0  0
  9 13  2  0  0  0  0
 10  2  2  0  0  0  0
 11  3  2  0  0  0  0
 12 22  1  0  0  0  0
 13 18  1  0  0  0  0
 14 17  2  0  0  0  0
 15  8  1  0  0  0  0
 16  7  1  0  0  0  0
 17 15  1  0  0  0  0
 18 15  2  0  0  0  0
 19 16  1  0  0  0  0
 20  6  1  0  0  0  0
 21  6  1  0  0  0  0
 22 21  1  0  0  0  0
 23 20  1  0  0  0  0
 24 19  2  0  0  0  0
 25 19  1  0  0  0  0
 26 25  2  0  0  0  0
 27 24  1  0  0  0  0
 28 26  1  0  0  0  0
  5  4  1  0  0  0  0
 28 27  2  0  0  0  0
 14  9  1  0  0  0  0
 12 23  1  0  0  0  0
M  END
> <IDNUMBER>
F3023-0959

> <Chemical_Name>
3-{[4-(morpholin-4-yl)phenyl]amino}-1-(2-phenylethyl)pyrrolidine-2,5-dione

> <CAS>
1008012-45-0

> <PriceCoeff>
1.00

> <MW>
379.45

> <Description>
solid

> <FSP3>
0.36

> <clogP>
3.21

> <TPSA>
61.88

> <Acceptor>
5

> <Donor>
2

> <RotBonds>
6

> <HAC>
28

> <Collection>
General

$$$$
F3325-0111
  -ISIS-  06222321462D

 27 30  0  0  0  0  0  0  0  0999 V2000
    4.8792   -1.3250    0.0000 N   0  0  3  0  0  0  0  0  0  0  0  0
    5.3667   -1.9917    0.0000 C   0  0  0  0  0  0  0  0  0  0  0  0
    5.3625   -0.6542    0.0000 C   0  0  0  0  0  0  0  0  0  0  0  0
    6.1542   -1.7292    0.0000 C   0  0  3  0  0  0  0  0  0  0  0  0
    6.1417   -0.9042    0.0000 C   0  0  0  0  0  0  0  0  0  0  0  0
    4.0542   -1.3292    0.0000 C   0  0  0  0  0  0  0  0  0  0  0  0
    6.8167   -2.2125    0.0000 N   0  0  3  0  0  0  0  0  0  0  0  0
    8.1542   -3.1750    0.0000 N   0  0  3  0  0  0  0  0  0  0  0  0
    3.6417   -0.6167    0.0000 C   0  0  0  0  0  0  0  0  0  0  0  0
    5.1167   -2.7750    0.0000 O   0  0  0  0  0  0  0  0  0  0  0  0
    8.8250   -3.6542    0.0000 C   0  0  0  0  0  0  0  0  0  0  0  0
    5.1042    0.1333    0.0000 O   0  0  0  0  0  0  0  0  0  0  0  0
    7.5667   -1.8667    0.0000 C   0  0  0  0  0  0  0  0  0  0  0  0
    6.7292   -3.0292    0.0000 C   0  0  0  0  0  0  0  0  0  0  0  0
    7.4000   -3.5125    0.0000 C   0  0  0  0  0  0  0  0  0  0  0  0
    8.2375   -2.3542    0.0000 C   0  0  0  0  0  0  0  0  0  0  0  0
    8.7375   -4.4792    0.0000 C   0  0  0  0  0  0  0  0  0  0  0  0
    9.5667   -3.3167    0.0000 C   0  0  0  0  0  0  0  0  0  0  0  0
    2.8167   -0.6250    0.0000 C   0  0  0  0  0  0  0  0  0  0  0  0
   10.1542   -4.6250    0.0000 C   0  0  0  0  0  0  0  0  0  0  0  0
    9.4042   -4.9625    0.0000 C   0  0  0  0  0  0  0  0  0  0  0  0
   10.2417   -3.8000    0.0000 C   0  0  0  0  0  0  0  0  0  0  0  0
    3.6500   -2.0417    0.0000 C   0  0  0  0  0  0  0  0  0  0  0  0
    2.4000    0.0875    0.0000 Cl  0  0  0  0  0  0  0  0  0  0  0  0
   10.8250   -5.1042    0.0000 F   0  0  0  0  0  0  0  0  0  0  0  0
    2.8292   -2.0542    0.0000 C   0  0  0  0  0  0  0  0  0  0  0  0
    2.4042   -1.3417    0.0000 C   0  0  0  0  0  0  0  0  0  0  0  0
  2  1  1  0  0  0  0
  3  1  1  0  0  0  0
  4  2  1  0  0  0  0
  5  3  1  0  0  0  0
  6  1  1  0  0  0  0
  7  4  1  0  0  0  0
  8 15  1  0  0  0  0
  9  6  2  0  0  0  0
 10  2  2  0  0  0  0
 11  8  1  0  0  0  0
 12  3  2  0  0  0  0
 13  7  1  0  0  0  0
 14  7  1  0  0  0  0
 15 14  1  0  0  0  0
 16 13  1  0  0  0  0
 17 11  2  0  0  0  0
 18 11  1  0  0  0  0
 19  9  1  0  0  0  0
 20 22  1  0  0  0  0
 21 17  1  0  0  0  0
 22 18  2  0  0  0  0
 23  6  1  0  0  0  0
 24 19  1  0  0  0  0
 25 20  1  0  0  0  0
 26 23  2  0  0  0  0
 27 26  1  0  0  0  0
  4  5  1  0  0  0  0
 19 27  2  0  0  0  0
 16  8  1  0  0  0  0
 21 20  2  0  0  0  0
M  END
> <IDNUMBER>
F3325-0111

> <Chemical_Name>
1-(3-chlorophenyl)-3-[4-(4-fluorophenyl)piperazin-1-yl]pyrrolidine-2,5-dione

> <CAS>
299408-56-3

> <PriceCoeff>
1.00

> <MW>
387.84

> <Description>
solid

> <FSP3>
0.30

> <clogP>
4.41

> <TPSA>
43.86

> <Acceptor>
3

> <Donor>
2

> <RotBonds>
3

> <HAC>
27

> <Collection>
General

$$$$
F0486-1748
  -ISIS-  06222321142D

 28 30  0  0  0  0  0  0  0  0999 V2000
    0.6875   -8.2667    0.0000 N   0  0  3  0  0  0  0  0  0  0  0  0
   -0.9500   -8.2542    0.0000 N   0  0  3  0  0  0  0  0  0  0  0  0
    1.6000   -6.9000    0.0000 N   0  0  0  0  0  0  0  0  0  0  0  0
   -2.1500   -9.6292    0.0000 N   0  0  0  0  0  0  0  0  0  0  0  0
   -1.7708   -8.2542    0.0000 C   0  0  3  0  0  0  0  0  0  0  0  0
    1.2042   -8.2792    0.0000 C   0  0  3  0  0  0  0  0  0  0  0  0
   -2.3625   -8.8375    0.0000 C   0  0  0  0  0  0  0  0  0  0  0  0
    1.8042   -7.7000    0.0000 C   0  0  0  0  0  0  0  0  0  0  0  0
   -2.0958   -7.4875    0.0000 C   0  0  0  0  0  0  0  0  0  0  0  0
    1.5167   -9.0375    0.0000 C   0  0  0  0  0  0  0  0  0  0  0  0
   -0.5458   -8.9667    0.0000 C   0  0  0  0  0  0  0  0  0  0  0  0
    0.2667   -8.9792    0.0000 C   0  0  0  0  0  0  0  0  0  0  0  0
    0.2792   -7.5500    0.0000 C   0  0  0  0  0  0  0  0  0  0  0  0
   -0.5333   -7.5500    0.0000 C   0  0  0  0  0  0  0  0  0  0  0  0
   -1.5833   -6.8375    0.0000 C   0  0  0  0  0  0  0  0  0  0  0  0
   -2.9125   -7.3792    0.0000 C   0  0  0  0  0  0  0  0  0  0  0  0
    1.0000   -9.6875    0.0000 C   0  0  0  0  0  0  0  0  0  0  0  0
    2.3292   -9.1542    0.0000 C   0  0  0  0  0  0  0  0  0  0  0  0
    2.1167  -10.5667    0.0000 C   0  0  0  0  0  0  0  0  0  0  0  0
   -2.7125   -5.9542    0.0000 C   0  0  0  0  0  0  0  0  0  0  0  0
   -3.2125   -6.6042    0.0000 C   0  0  0  0  0  0  0  0  0  0  0  0
    2.6375   -9.9292    0.0000 C   0  0  0  0  0  0  0  0  0  0  0  0
    1.3042  -10.4500    0.0000 C   0  0  0  0  0  0  0  0  0  0  0  0
   -1.8958   -6.0792    0.0000 C   0  0  0  0  0  0  0  0  0  0  0  0
   -3.0125   -5.2000    0.0000 O   0  0  0  0  0  0  0  0  0  0  0  0
    2.4167  -11.3375    0.0000 O   0  0  0  0  0  0  0  0  0  0  0  0
   -2.5000   -4.5500    0.0000 C   0  0  0  0  0  0  0  0  0  0  0  0
    3.2167  -11.1167    0.0000 C   0  0  0  0  0  0  0  0  0  0  0  0
  2 14  1  0  0  0  0
  3  8  3  0  0  0  0
  4  7  3  0  0  0  0
  5  2  1  0  0  0  0
  6  1  1  0  0  0  0
  7  5  1  0  0  0  0
  8  6  1  0  0  0  0
  9  5  1  0  0  0  0
 10  6  1  0  0  0  0
 11 12  1  0  0  0  0
 12  1  1  0  0  0  0
 13  1  1  0  0  0  0
 14 13  1  0  0  0  0
 15  9  2  0  0  0  0
 16  9  1  0  0  0  0
 17 10  2  0  0  0  0
 18 10  1  0  0  0  0
 19 22  1  0  0  0  0
 20 21  1  0  0  0  0
 21 16  2  0  0  0  0
 22 18  2  0  0  0  0
 23 17  1  0  0  0  0
 24 15  1  0  0  0  0
 25 20  1  0  0  0  0
 26 19  1  0  0  0  0
 27 25  1  0  0  0  0
 28 26  1  0  0  0  0
 11  2  1  0  0  0  0
 19 23  2  0  0  0  0
 20 24  2  0  0  0  0
M  END
> <IDNUMBER>
F0486-1748

> <Chemical_Name>
2-{4-[cyano(4-methoxyphenyl)methyl]piperazin-1-yl}-2-(4-methoxyphenyl)acetonitrile

> <CAS>
325473-60-7

> <PriceCoeff>
1.00

> <MW>
376.45

> <Description>
solid

> <FSP3>
0.36

> <clogP>
2.95

> <TPSA>
72.52

> <Acceptor>
6

> <Donor>
2

> <RotBonds>
6

> <HAC>
28

> <Collection>
General

> <Reference_compound>
CHEMBL3234003

> <Similarity>
0.8680

$$$$
F0758-0077
  -ISIS-  06222321452D

 20 22  0  0  0  0  0  0  0  0999 V2000
    0.9292    1.2458    0.0000 C   0  0  0  0  0  0  0  0  0  0  0  0
    0.4875    0.4625    0.0000 C   0  0  0  0  0  0  0  0  0  0  0  0
   -0.4125    0.4833    0.0000 C   0  0  0  0  0  0  0  0  0  0  0  0
    0.4875    2.0208    0.0000 C   0  0  0  0  0  0  0  0  0  0  0  0
   -0.8500    1.2458    0.0000 C   0  0  0  0  0  0  0  0  0  0  0  0
   -0.4125    2.0208    0.0000 O   0  0  0  0  0  0  0  0  0  0  0  0
   -0.8708   -0.3000    0.0000 C   0  0  0  0  0  0  0  0  0  0  0  0
   -1.7500    1.2625    0.0000 C   0  0  0  0  0  0  0  0  0  0  0  0
    1.8042    1.2208    0.0000 C   0  0  0  0  0  0  0  0  0  0  0  0
    0.9500   -0.3167    0.0000 O   0  0  0  0  0  0  0  0  0  0  0  0
   -2.1958    0.4833    0.0000 C   0  0  0  0  0  0  0  0  0  0  0  0
   -1.7500   -0.3000    0.0000 C   0  0  0  0  0  0  0  0  0  0  0  0
   -3.0708    0.5000    0.0000 O   0  0  0  0  0  0  0  0  0  0  0  0
    2.2500    0.4625    0.0000 C   0  0  0  0  0  0  0  0  0  0  0  0
    2.2667    2.0000    0.0000 C   0  0  0  0  0  0  0  0  0  0  0  0
   -3.5208   -0.2500    0.0000 C   0  0  0  0  0  0  0  0  0  0  0  0
   -4.4083   -0.2292    0.0000 C   0  0  0  0  0  0  0  0  0  0  0  0
    3.1500    2.0000    0.0000 C   0  0  0  0  0  0  0  0  0  0  0  0
    3.1500    0.4458    0.0000 C   0  0  0  0  0  0  0  0  0  0  0  0
    3.5875    1.2208    0.0000 C   0  0  0  0  0  0  0  0  0  0  0  0
  2  1  1  0  0  0  0
  3  2  1  0  0  0  0
  4  1  2  0  0  0  0
  5  6  1  0  0  0  0
  6  4  1  0  0  0  0
  7  3  1  0  0  0  0
  8  5  1  0  0  0  0
  9  1  1  0  0  0  0
 10  2  2  0  0  0  0
 11  8  2  0  0  0  0
 12  7  2  0  0  0  0
 13 11  1  0  0  0  0
 14  9  2  0  0  0  0
 15  9  1  0  0  0  0
 16 13  1  0  0  0  0
 17 16  1  0  0  0  0
 18 15  2  0  0  0  0
 19 14  1  0  0  0  0
 20 18  1  0  0  0  0
  3  5  2  0  0  0  0
 20 19  2  0  0  0  0
 12 11  1  0  0  0  0
M  END
> <IDNUMBER>
F0758-0077

> <Chemical_Name>
7-ethoxy-3-phenyl-4H-chromen-4-one

> <CAS>
13057-73-3

> <PriceCoeff>
1.00

> <MW>
266.29

> <Description>
solid

> <FSP3>
0.12

> <clogP>
3.62

> <TPSA>
35.53

> <Acceptor>
3

> <Donor>
0

> <RotBonds>
3

> <HAC>
20

> <Collection>
General

> <Reference_compound>
CHEMBL44

> <Similarity>
0.9090

$$$$
F3139-1444
  -ISIS-  06222321462D

 25 27  0  0  0  0  0  0  0  0999 V2000
    1.8917   -6.1125    0.0000 C   0  0  0  0  0  0  0  0  0  0  0  0
    1.1750   -6.5250    0.0000 C   0  0  0  0  0  0  0  0  0  0  0  0
    1.8917   -5.2875    0.0000 C   0  0  0  0  0  0  0  0  0  0  0  0
    0.4625   -6.1125    0.0000 C   0  0  0  0  0  0  0  0  0  0  0  0
    0.4625   -5.2875    0.0000 C   0  0  0  0  0  0  0  0  0  0  0  0
    1.1750   -4.8750    0.0000 O   0  0  0  0  0  0  0  0  0  0  0  0
    2.6042   -6.5250    0.0000 C   0  0  0  0  0  0  0  0  0  0  0  0
    3.3250   -6.1125    0.0000 C   0  0  0  0  0  0  0  0  0  0  0  0
   -0.2500   -4.8750    0.0000 C   0  0  0  0  0  0  0  0  0  0  0  0
   -0.2500   -6.5250    0.0000 C   0  0  0  0  0  0  0  0  0  0  0  0
    4.0375   -6.5250    0.0000 C   0  0  0  0  0  0  0  0  0  0  0  0
    1.1750   -7.3500    0.0000 O   0  0  0  0  0  0  0  0  0  0  0  0
    2.6042   -7.3542    0.0000 C   0  0  0  0  0  0  0  0  0  0  0  0
    4.0292   -7.3500    0.0000 C   0  0  0  0  0  0  0  0  0  0  0  0
    3.3167   -7.7667    0.0000 C   0  0  0  0  0  0  0  0  0  0  0  0
   -0.9708   -5.2875    0.0000 C   0  0  0  0  0  0  0  0  0  0  0  0
   -0.9708   -6.1125    0.0000 C   0  0  0  0  0  0  0  0  0  0  0  0
    2.6042   -4.8750    0.0000 C   0  0  0  0  0  0  0  0  0  0  0  0
    4.7500   -6.1125    0.0000 O   0  0  0  0  0  0  0  0  0  0  0  0
    4.7417   -7.7667    0.0000 O   0  0  0  0  0  0  0  0  0  0  0  0
   -1.6875   -4.8750    0.0000 O   0  0  0  0  0  0  0  0  0  0  0  0
   -2.4083   -5.2792    0.0000 C   0  0  0  0  0  0  0  0  0  0  0  0
    4.7500   -5.2875    0.0000 C   0  0  0  0  0  0  0  0  0  0  0  0
    5.4625   -7.3542    0.0000 C   0  0  0  0  0  0  0  0  0  0  0  0
   -3.1208   -4.8625    0.0000 C   0  0  0  0  0  0  0  0  0  0  0  0
  2  1  1  0  0  0  0
  3  1  2  0  0  0  0
  4  2  1  0  0  0  0
  5  6  1  0  0  0  0
  6  3  1  0  0  0  0
  7  1  1  0  0  0  0
  8  7  1  0  0  0  0
  9  5  2  0  0  0  0
 10  4  2  0  0  0  0
 11  8  2  0  0  0  0
 12  2  2  0  0  0  0
 13  7  2  0  0  0  0
 14 15  2  0  0  0  0
 15 13  1  0  0  0  0
 16  9  1  0  0  0  0
 17 10  1  0  0  0  0
 18  3  1  0  0  0  0
 19 11  1  0  0  0  0
 20 14  1  0  0  0  0
 21 16  1  0  0  0  0
 22 21  1  0  0  0  0
 23 19  1  0  0  0  0
 24 20  1  0  0  0  0
 25 22  1  0  0  0  0
  4  5  1  0  0  0  0
 14 11  1  0  0  0  0
 17 16  2  0  0  0  0
M  END
> <IDNUMBER>
F3139-1444

> <Chemical_Name>
3-(3,4-dimethoxyphenyl)-7-ethoxy-2-methyl-4H-chromen-4-one

> <CAS>
610762-09-9

> <PriceCoeff>
1.00

> <MW>
340.37

> <Description>
solid

> <FSP3>
0.25

> <clogP>
3.48

> <TPSA>
53.99

> <Acceptor>
5

> <Donor>
0

> <RotBonds>
5

> <HAC>
25

> <Collection>
General

> <Reference_compound>
CHEMBL455048

> <Similarity>
0.8190

$$$$
F3385-1337
  -ISIS-  06222321152D

 26 28  0  0  0  0  0  0  0  0999 V2000
    6.0292   -4.2292    0.0000 C   0  0  0  0  0  0  0  0  0  0  0  0
    5.3125   -4.6417    0.0000 C   0  0  0  0  0  0  0  0  0  0  0  0
    4.6000   -4.2292    0.0000 C   0  0  0  0  0  0  0  0  0  0  0  0
    6.0292   -3.4042    0.0000 C   0  0  0  0  0  0  0  0  0  0  0  0
    4.6000   -3.4042    0.0000 C   0  0  0  0  0  0  0  0  0  0  0  0
    5.3125   -2.9917    0.0000 O   0  0  0  0  0  0  0  0  0  0  0  0
    1.7292   -3.4042    0.0000 C   0  0  0  0  0  0  0  0  0  0  0  0
    3.8875   -2.9917    0.0000 C   0  0  0  0  0  0  0  0  0  0  0  0
    6.7417   -4.6417    0.0000 C   0  0  0  0  0  0  0  0  0  0  0  0
    2.4417   -2.9917    0.0000 O   0  0  0  0  0  0  0  0  0  0  0  0
    3.8875   -4.6417    0.0000 C   0  0  0  0  0  0  0  0  0  0  0  0
    1.0167   -2.9917    0.0000 C   0  0  3  0  0  0  0  0  0  0  0  0
    3.1667   -3.4042    0.0000 C   0  0  0  0  0  0  0  0  0  0  0  0
    5.3125   -5.4667    0.0000 O   0  0  0  0  0  0  0  0  0  0  0  0
    1.7292   -4.2292    0.0000 O   0  0  0  0  0  0  0  0  0  0  0  0
    7.4542   -4.2292    0.0000 C   0  0  0  0  0  0  0  0  0  0  0  0
    6.7417   -5.4750    0.0000 C   0  0  0  0  0  0  0  0  0  0  0  0
    3.1667   -4.2292    0.0000 C   0  0  0  0  0  0  0  0  0  0  0  0
    8.1750   -5.4750    0.0000 C   0  0  0  0  0  0  0  0  0  0  0  0
    8.1750   -4.6417    0.0000 C   0  0  0  0  0  0  0  0  0  0  0  0
    7.4542   -5.8875    0.0000 C   0  0  0  0  0  0  0  0  0  0  0  0
    8.9000   -5.8917    0.0000 O   0  0  0  0  0  0  0  0  0  0  0  0
    0.3042   -2.5792    0.0000 C   0  0  0  0  0  0  0  0  0  0  0  0
    1.4292   -2.2792    0.0000 C   0  0  0  0  0  0  0  0  0  0  0  0
    0.6042   -3.7042    0.0000 C   0  0  0  0  0  0  0  0  0  0  0  0
    8.9042   -6.7250    0.0000 C   0  0  0  0  0  0  0  0  0  0  0  0
  2  1  1  0  0  0  0
  3  2  1  0  0  0  0
  4  1  2  0  0  0  0
  5  6  1  0  0  0  0
  6  4  1  0  0  0  0
  7 10  1  0  0  0  0
  8  5  2  0  0  0  0
  9  1  1  0  0  0  0
 10 13  1  0  0  0  0
 11  3  2  0  0  0  0
 12  7  1  0  0  0  0
 13  8  1  0  0  0  0
 14  2  2  0  0  0  0
 15  7  2  0  0  0  0
 16  9  1  0  0  0  0
 17  9  2  0  0  0  0
 18 11  1  0  0  0  0
 19 21  2  0  0  0  0
 20 16  2  0  0  0  0
 21 17  1  0  0  0  0
 22 19  1  0  0  0  0
 23 12  1  0  0  0  0
 24 12  1  0  0  0  0
 25 12  1  0  0  0  0
 26 22  1  0  0  0  0
 20 19  1  0  0  0  0
  3  5  1  0  0  0  0
 18 13  2  0  0  0  0
M  END
> <IDNUMBER>
F3385-1337

> <Chemical_Name>
3-(4-methoxyphenyl)-4-oxo-4H-chromen-7-yl 2,2-dimethylpropanoate

> <CAS>
444643-83-8

> <PriceCoeff>
1.00

> <MW>
352.38

> <Description>
solid

> <FSP3>
0.24

> <clogP>
3.69

> <TPSA>
61.83

> <Acceptor>
5

> <Donor>
0

> <RotBonds>
4

> <HAC>
26

> <Collection>
General

> <Reference_compound>
CHEMBL44

> <Similarity>
0.8450

$$$$
F3325-0133
  -ISIS-  06222321442D

 25 27  0  0  0  0  0  0  0  0999 V2000
    3.0375   -3.0417    0.0000 N   0  0  3  0  0  0  0  0  0  0  0  0
    3.5542   -3.6917    0.0000 C   0  0  0  0  0  0  0  0  0  0  0  0
    3.4875   -2.3500    0.0000 C   0  0  0  0  0  0  0  0  0  0  0  0
    4.3250   -3.4000    0.0000 C   0  0  3  0  0  0  0  0  0  0  0  0
    4.2875   -2.5667    0.0000 C   0  0  0  0  0  0  0  0  0  0  0  0
    2.2125   -3.0875    0.0000 C   0  0  0  0  0  0  0  0  0  0  0  0
    5.0625   -3.7792    0.0000 N   0  0  0  0  0  0  0  0  0  0  0  0
    3.3375   -4.4875    0.0000 O   0  0  0  0  0  0  0  0  0  0  0  0
    3.1917   -1.5792    0.0000 O   0  0  0  0  0  0  0  0  0  0  0  0
    7.1500   -2.4292    0.0000 C   0  0  0  0  0  0  0  0  0  0  0  0
    7.8417   -1.9875    0.0000 N   0  0  3  0  0  0  0  0  0  0  0  0
    5.7625   -3.3292    0.0000 C   0  0  0  0  0  0  0  0  0  0  0  0
    7.1917   -3.2625    0.0000 C   0  0  0  0  0  0  0  0  0  0  0  0
    6.4167   -2.0542    0.0000 C   0  0  0  0  0  0  0  0  0  0  0  0
    1.7667   -2.3917    0.0000 C   0  0  0  0  0  0  0  0  0  0  0  0
    5.7250   -2.5042    0.0000 C   0  0  0  0  0  0  0  0  0  0  0  0
    6.4917   -3.7042    0.0000 C   0  0  0  0  0  0  0  0  0  0  0  0
    0.9417   -2.4292    0.0000 C   0  0  0  0  0  0  0  0  0  0  0  0
    8.5792   -2.3625    0.0000 C   0  0  0  0  0  0  0  0  0  0  0  0
    7.8042   -1.1625    0.0000 C   0  0  0  0  0  0  0  0  0  0  0  0
    0.4917   -1.7375    0.0000 C   0  0  0  0  0  0  0  0  0  0  0  0
    0.5667   -3.1667    0.0000 C   0  0  0  0  0  0  0  0  0  0  0  0
   -0.2500   -3.2042    0.0000 C   0  0  0  0  0  0  0  0  0  0  0  0
   -0.3250   -1.7792    0.0000 C   0  0  0  0  0  0  0  0  0  0  0  0
   -0.7083   -2.5125    0.0000 C   0  0  0  0  0  0  0  0  0  0  0  0
  2  1  1  0  0  0  0
  3  1  1  0  0  0  0
  4  2  1  0  0  0  0
  5  3  1  0  0  0  0
  6  1  1  0  0  0  0
  7  4  1  0  0  0  0
  8  2  2  0  0  0  0
  9  3  2  0  0  0  0
 10 13  1  0  0  0  0
 11 10  1  0  0  0  0
 12  7  1  0  0  0  0
 13 17  2  0  0  0  0
 14 16  1  0  0  0  0
 15  6  1  0  0  0  0
 16 12  2  0  0  0  0
 17 12  1  0  0  0  0
 18 15  1  0  0  0  0
 19 11  1  0  0  0  0
 20 11  1  0  0  0  0
 21 18  2  0  0  0  0
 22 18  1  0  0  0  0
 23 22  2  0  0  0  0
 24 21  1  0  0  0  0
 25 23  1  0  0  0  0
  5  4  1  0  0  0  0
 24 25  2  0  0  0  0
 10 14  2  0  0  0  0
M  END
> <IDNUMBER>
F3325-0133

> <Chemical_Name>
3-{[4-(dimethylamino)phenyl]amino}-1-(2-phenylethyl)pyrrolidine-2,5-dione

> <CAS>
1025395-93-0

> <PriceCoeff>
1.00

> <MW>
337.42

> <Description>
solid

> <FSP3>
0.30

> <clogP>
3.92

> <TPSA>
52.65

> <Acceptor>
4

> <Donor>
2

> <RotBonds>
6

> <HAC>
25

> <Collection>
General

$$$$
F3385-0858
  -ISIS-  06222321152D

 22 24  0  0  0  0  0  0  0  0999 V2000
    4.9250   -1.5750    0.0000 C   0  0  0  0  0  0  0  0  0  0  0  0
    4.2042   -1.9875    0.0000 C   0  0  0  0  0  0  0  0  0  0  0  0
    3.4875   -1.5750    0.0000 C   0  0  0  0  0  0  0  0  0  0  0  0
    4.9250   -0.7417    0.0000 C   0  0  0  0  0  0  0  0  0  0  0  0
    3.4917   -0.7417    0.0000 C   0  0  0  0  0  0  0  0  0  0  0  0
    4.2042   -0.3292    0.0000 O   0  0  0  0  0  0  0  0  0  0  0  0
    2.7792   -0.3292    0.0000 C   0  0  0  0  0  0  0  0  0  0  0  0
    5.6292   -1.9875    0.0000 C   0  0  0  0  0  0  0  0  0  0  0  0
    2.7750   -1.9792    0.0000 C   0  0  0  0  0  0  0  0  0  0  0  0
    0.6417   -0.7292    0.0000 C   0  0  0  0  0  0  0  0  0  0  0  0
    4.2000   -2.8125    0.0000 O   0  0  0  0  0  0  0  0  0  0  0  0
    2.0667   -0.7375    0.0000 C   0  0  0  0  0  0  0  0  0  0  0  0
    1.3542   -0.3250    0.0000 O   0  0  0  0  0  0  0  0  0  0  0  0
    0.6375   -1.5542    0.0000 O   0  0  0  0  0  0  0  0  0  0  0  0
    5.6292   -2.8167    0.0000 C   0  0  0  0  0  0  0  0  0  0  0  0
    6.3417   -1.5792    0.0000 C   0  0  0  0  0  0  0  0  0  0  0  0
    2.0667   -1.5625    0.0000 C   0  0  0  0  0  0  0  0  0  0  0  0
    7.0542   -2.8167    0.0000 C   0  0  0  0  0  0  0  0  0  0  0  0
    7.0542   -1.9917    0.0000 C   0  0  0  0  0  0  0  0  0  0  0  0
    6.3417   -3.2292    0.0000 C   0  0  0  0  0  0  0  0  0  0  0  0
    7.7667   -3.2417    0.0000 Cl  0  0  0  0  0  0  0  0  0  0  0  0
   -0.0708   -0.3167    0.0000 C   0  0  0  0  0  0  0  0  0  0  0  0
  2  1  1  0  0  0  0
  3  2  1  0  0  0  0
  4  1  2  0  0  0  0
  5  6  1  0  0  0  0
  6  4  1  0  0  0  0
  7  5  2  0  0  0  0
  8  1  1  0  0  0  0
  9  3  2  0  0  0  0
 10 13  1  0  0  0  0
 11  2  2  0  0  0  0
 12  7  1  0  0  0  0
 13 12  1  0  0  0  0
 14 10  2  0  0  0  0
 15  8  2  0  0  0  0
 16  8  1  0  0  0  0
 17  9  1  0  0  0  0
 18 19  1  0  0  0  0
 19 16  2  0  0  0  0
 20 15  1  0  0  0  0
 21 18  1  0  0  0  0
 22 10  1  0  0  0  0
 20 18  2  0  0  0  0
  5  3  1  0  0  0  0
 12 17  2  0  0  0  0
M  END
> <IDNUMBER>
F3385-0858

> <Chemical_Name>
3-(4-chlorophenyl)-4-oxo-4H-chromen-7-yl acetate

> <CAS>
109601-38-9

> <PriceCoeff>
1.00

> <MW>
314.72

> <Description>
solid

> <FSP3>
0.06

> <clogP>
3.23

> <TPSA>
52.60

> <Acceptor>
4

> <Donor>
0

> <RotBonds>
3

> <HAC>
22

> <Collection>
General

> <Reference_compound>
CHEMBL44

> <Similarity>
0.8340

$$$$
F2147-1739
  -ISIS-  06222321142D

  9  8  0  0  0  0  0  0  0  0999 V2000
   -0.1000   -2.6542    0.0000 C   0  0  0  0  0  0  0  0  0  0  0  0
   -0.1000   -3.4792    0.0000 O   0  0  0  0  0  0  0  0  0  0  0  0
    2.7542   -2.6542    0.0000 O   0  0  0  0  0  0  0  0  0  0  0  0
    2.0417   -2.2417    0.0000 C   0  0  0  0  0  0  0  0  0  0  0  0
   -0.8167   -2.2417    0.0000 O   0  0  0  0  0  0  0  0  0  0  0  0
    0.6125   -2.2417    0.0000 C   0  0  0  0  0  0  0  0  0  0  0  0
    1.3250   -2.6542    0.0000 C   0  0  0  0  0  0  0  0  0  0  0  0
   -0.8167   -1.4167    0.0000 C   0  0  0  0  0  0  0  0  0  0  0  0
   -1.5292   -1.0042    0.0000 C   0  0  0  0  0  0  0  0  0  0  0  0
  2  1  2  0  0  0  0
  3  4  2  0  0  0  0
  4  7  1  0  0  0  0
  5  1  1  0  0  0  0
  6  1  1  0  0  0  0
  7  6  1  0  0  0  0
  8  5  1  0  0  0  0
  9  8  1  0  0  0  0
M  END
> <IDNUMBER>
F2147-1739

> <Chemical_Name>
ethyl 4-oxobutanoate

> <CAS>
10138-10-0

> <PriceCoeff>
1.00

> <MW>
130.14

> <Description>
liquid

> <FSP3>
0.67

> <clogP>
0.46

> <TPSA>
43.37

> <Acceptor>
3

> <Donor>
0

> <RotBonds>
5

> <HAC>
9

> <Collection>
General

> <Reference_compound>
PRI3810

> <Similarity>
0.8180

$$$$
F3115-0096
  -ISIS-  06222321152D

 28 31  0  0  0  0  0  0  0  0999 V2000
    4.6917   -5.7417    0.0000 N   0  0  3  0  0  0  0  0  0  0  0  0
    5.1875   -6.4042    0.0000 C   0  0  0  0  0  0  0  0  0  0  0  0
    5.1792   -5.0667    0.0000 C   0  0  0  0  0  0  0  0  0  0  0  0
    5.9667   -6.1500    0.0000 C   0  0  3  0  0  0  0  0  0  0  0  0
    5.9667   -5.3167    0.0000 C   0  0  0  0  0  0  0  0  0  0  0  0
    3.8667   -5.7417    0.0000 C   0  0  0  0  0  0  0  0  0  0  0  0
    6.6375   -6.6250    0.0000 N   0  0  3  0  0  0  0  0  0  0  0  0
    7.9667   -7.5792    0.0000 N   0  0  3  0  0  0  0  0  0  0  0  0
    8.6292   -8.0667    0.0000 C   0  0  0  0  0  0  0  0  0  0  0  0
    3.4542   -5.0292    0.0000 C   0  0  0  0  0  0  0  0  0  0  0  0
    4.9292   -7.1917    0.0000 O   0  0  0  0  0  0  0  0  0  0  0  0
    4.9167   -4.2875    0.0000 O   0  0  0  0  0  0  0  0  0  0  0  0
    7.2167   -7.9167    0.0000 C   0  0  0  0  0  0  0  0  0  0  0  0
    8.0500   -6.7667    0.0000 C   0  0  0  0  0  0  0  0  0  0  0  0
    6.5542   -7.4417    0.0000 C   0  0  0  0  0  0  0  0  0  0  0  0
    7.3792   -6.2792    0.0000 C   0  0  0  0  0  0  0  0  0  0  0  0
    9.3875   -7.7292    0.0000 O   0  0  0  0  0  0  0  0  0  0  0  0
    2.6417   -5.0292    0.0000 C   0  0  0  0  0  0  0  0  0  0  0  0
    8.5500   -8.8875    0.0000 O   0  0  0  0  0  0  0  0  0  0  0  0
    3.4667   -6.4625    0.0000 C   0  0  0  0  0  0  0  0  0  0  0  0
    3.8667   -4.3167    0.0000 C   0  0  0  0  0  0  0  0  0  0  0  0
    2.6417   -6.4625    0.0000 C   0  0  0  0  0  0  0  0  0  0  0  0
    2.2292   -5.7500    0.0000 C   0  0  0  0  0  0  0  0  0  0  0  0
    2.2292   -4.3292    0.0000 C   0  0  0  0  0  0  0  0  0  0  0  0
    7.7917   -9.2250    0.0000 C   0  0  0  0  0  0  0  0  0  0  0  0
    3.4542   -3.6167    0.0000 C   0  0  0  0  0  0  0  0  0  0  0  0
    7.7125  -10.0417    0.0000 C   0  0  0  0  0  0  0  0  0  0  0  0
    2.6375   -3.6167    0.0000 C   0  0  0  0  0  0  0  0  0  0  0  0
  2  1  1  0  0  0  0
  3  1  1  0  0  0  0
  4  2  1  0  0  0  0
  5  3  1  0  0  0  0
  6  1  1  0  0  0  0
  7  4  1  0  0  0  0
  8 14  1  0  0  0  0
  9  8  1  0  0  0  0
 10  6  2  0  0  0  0
 11  2  2  0  0  0  0
 12  3  2  0  0  0  0
 13 15  1  0  0  0  0
 14 16  1  0  0  0  0
 15  7  1  0  0  0  0
 16  7  1  0  0  0  0
 17  9  2  0  0  0  0
 18 10  1  0  0  0  0
 19  9  1  0  0  0  0
 20  6  1  0  0  0  0
 21 10  1  0  0  0  0
 22 20  2  0  0  0  0
 23 22  1  0  0  0  0
 24 18  1  0  0  0  0
 25 19  1  0  0  0  0
 26 21  2  0  0  0  0
 27 25  1  0  0  0  0
 28 26  1  0  0  0  0
  4  5  1  0  0  0  0
 23 18  2  0  0  0  0
 24 28  2  0  0  0  0
  8 13  1  0  0  0  0
M  END
> <IDNUMBER>
F3115-0096

> <Chemical_Name>
ethyl 4-[1-(naphthalen-1-yl)-2,5-dioxopyrrolidin-3-yl]piperazine-1-carboxylate

> <CAS>
838889-15-9

> <PriceCoeff>
1.00

> <MW>
381.43

> <Description>
solid

> <FSP3>
0.38

> <clogP>
3.55

> <TPSA>
73.32

> <Acceptor>
4

> <Donor>
1

> <RotBonds>
5

> <HAC>
28

> <Collection>
General

$$$$
F2271-0010
  -ISIS-  06222321462D

 23 25  0  0  0  0  0  0  0  0999 V2000
   -2.3458    7.9417    0.0000 C   0  0  0  0  0  0  0  0  0  0  0  0
   -2.3625    8.7750    0.0000 N   0  0  3  0  0  0  0  0  0  0  0  0
   -1.6333    7.5292    0.0000 C   0  0  0  0  0  0  0  0  0  0  0  0
   -3.7500    3.8000    0.0000 C   0  0  0  0  0  0  0  0  0  0  0  0
   -3.0625    7.5292    0.0000 C   0  0  0  0  0  0  0  0  0  0  0  0
   -3.7583    2.9833    0.0000 C   0  0  0  0  0  0  0  0  0  0  0  0
   -1.6250    6.7042    0.0000 C   0  0  0  0  0  0  0  0  0  0  0  0
   -4.4708    4.2042    0.0000 O   0  0  0  0  0  0  0  0  0  0  0  0
   -3.0375    4.2125    0.0000 N   0  0  0  0  0  0  0  0  0  0  0  0
   -3.0458    2.5583    0.0000 C   0  0  0  0  0  0  0  0  0  0  0  0
   -4.4708    2.5708    0.0000 C   0  0  0  0  0  0  0  0  0  0  0  0
   -3.0625    6.6917    0.0000 C   0  0  0  0  0  0  0  0  0  0  0  0
   -2.3375    6.2792    0.0000 C   0  0  0  0  0  0  0  0  0  0  0  0
   -3.7625    1.3208    0.0000 C   0  0  0  0  0  0  0  0  0  0  0  0
   -3.0458    1.7333    0.0000 C   0  0  0  0  0  0  0  0  0  0  0  0
   -4.4750    1.7375    0.0000 C   0  0  0  0  0  0  0  0  0  0  0  0
   -3.7708    0.4958    0.0000 Cl  0  0  0  0  0  0  0  0  0  0  0  0
   -1.6375    9.1917    0.0000 C   0  0  0  0  0  0  0  0  0  0  0  0
   -3.0375    5.0292    0.0000 C   0  0  0  0  0  0  0  0  0  0  0  0
   -3.0833    9.1792    0.0000 C   0  0  0  0  0  0  0  0  0  0  0  0
   -0.9208    7.9542    0.0000 C   0  0  0  0  0  0  0  0  0  0  0  0
   -0.9208    8.7792    0.0000 C   0  0  0  0  0  0  0  0  0  0  0  0
   -2.3333    5.4542    0.0000 C   0  0  0  0  0  0  0  0  0  0  0  0
  2  1  1  0  0  0  0
  3  1  2  0  0  0  0
  4  9  1  0  0  0  0
  5  1  1  0  0  0  0
  6  4  1  0  0  0  0
  7  3  1  0  0  0  0
  8  4  2  0  0  0  0
  9 19  1  0  0  0  0
 10  6  1  0  0  0  0
 11  6  2  0  0  0  0
 12  5  2  0  0  0  0
 13 12  1  0  0  0  0
 14 16  2  0  0  0  0
 15 10  2  0  0  0  0
 16 11  1  0  0  0  0
 17 14  1  0  0  0  0
 18  2  1  0  0  0  0
 19 23  1  0  0  0  0
 20  2  1  0  0  0  0
 21  3  1  0  0  0  0
 22 21  1  0  0  0  0
 23 13  1  0  0  0  0
  7 13  2  0  0  0  0
 22 18  1  0  0  0  0
 15 14  1  0  0  0  0
M  END
> <IDNUMBER>
F2271-0010

> <Chemical_Name>
4-chloro-N-[2-(1-methyl-1,2,3,4-tetrahydroquinolin-6-yl)ethyl]benzamide

> <CAS>
946280-65-5

> <PriceCoeff>
1.00

> <MW>
328.84

> <Description>
solid

> <FSP3>
0.32

> <clogP>
4.70

> <TPSA>
32.34

> <Acceptor>
2

> <Donor>
2

> <RotBonds>
4

> <HAC>
23

> <Collection>
General

> <Reference_compound>
CHEMBL2286415

> <Similarity>
0.8060

$$$$
F3188-0123
  -ISIS-  06222321152D

 25 28  0  0  0  0  0  0  0  0999 V2000
    4.3542   -6.4125    0.0000 N   0  0  3  0  0  0  0  0  0  0  0  0
    4.8417   -7.0792    0.0000 C   0  0  0  0  0  0  0  0  0  0  0  0
    4.8375   -5.7417    0.0000 C   0  0  0  0  0  0  0  0  0  0  0  0
    5.6292   -6.8167    0.0000 C   0  0  3  0  0  0  0  0  0  0  0  0
    5.6250   -5.9917    0.0000 C   0  0  0  0  0  0  0  0  0  0  0  0
    6.2917   -7.2917    0.0000 N   0  0  0  0  0  0  0  0  0  0  0  0
    3.5292   -6.4167    0.0000 C   0  0  0  0  0  0  0  0  0  0  0  0
    8.4625   -7.0917    0.0000 C   0  0  0  0  0  0  0  0  0  0  0  0
    7.7125   -7.4375    0.0000 C   0  0  0  0  0  0  0  0  0  0  0  0
    8.5417   -6.2792    0.0000 C   0  0  0  0  0  0  0  0  0  0  0  0
    9.2167   -7.4250    0.0000 O   0  0  0  0  0  0  0  0  0  0  0  0
    7.0417   -6.9542    0.0000 C   0  0  0  0  0  0  0  0  0  0  0  0
    4.5917   -7.8625    0.0000 O   0  0  0  0  0  0  0  0  0  0  0  0
    4.5792   -4.9542    0.0000 O   0  0  0  0  0  0  0  0  0  0  0  0
    9.3417   -6.1000    0.0000 O   0  0  0  0  0  0  0  0  0  0  0  0
    9.7625   -6.8042    0.0000 C   0  0  0  0  0  0  0  0  0  0  0  0
    7.8667   -5.8000    0.0000 C   0  0  0  0  0  0  0  0  0  0  0  0
    3.1125   -5.7042    0.0000 C   0  0  0  0  0  0  0  0  0  0  0  0
    7.1167   -6.1417    0.0000 C   0  0  0  0  0  0  0  0  0  0  0  0
    2.2875   -5.7042    0.0000 C   0  0  0  0  0  0  0  0  0  0  0  0
    1.8750   -4.9917    0.0000 C   0  0  0  0  0  0  0  0  0  0  0  0
    1.8792   -6.4250    0.0000 C   0  0  0  0  0  0  0  0  0  0  0  0
    1.0625   -6.4292    0.0000 C   0  0  0  0  0  0  0  0  0  0  0  0
    1.0500   -5.0000    0.0000 C   0  0  0  0  0  0  0  0  0  0  0  0
    0.6417   -5.7167    0.0000 C   0  0  0  0  0  0  0  0  0  0  0  0
  2  1  1  0  0  0  0
  3  1  1  0  0  0  0
  4  2  1  0  0  0  0
  5  3  1  0  0  0  0
  6  4  1  0  0  0  0
  7  1  1  0  0  0  0
  8  9  1  0  0  0  0
  9 12  2  0  0  0  0
 10 17  1  0  0  0  0
 11  8  1  0  0  0  0
 12  6  1  0  0  0  0
 13  2  2  0  0  0  0
 14  3  2  0  0  0  0
 15 10  1  0  0  0  0
 16 11  1  0  0  0  0
 17 19  2  0  0  0  0
 18  7  1  0  0  0  0
 19 12  1  0  0  0  0
 20 18  1  0  0  0  0
 21 20  2  0  0  0  0
 22 20  1  0  0  0  0
 23 22  2  0  0  0  0
 24 21  1  0  0  0  0
 25 23  1  0  0  0  0
  5  4  1  0  0  0  0
 25 24  2  0  0  0  0
 10  8  2  0  0  0  0
 15 16  1  0  0  0  0
M  END
> <IDNUMBER>
F3188-0123

> <Chemical_Name>
3-[(2H-1,3-benzodioxol-5-yl)amino]-1-(2-phenylethyl)pyrrolidine-2,5-dione

> <CAS>
1008051-75-9

> <PriceCoeff>
1.00

> <MW>
338.36

> <Description>
solid

> <FSP3>
0.26

> <clogP>
3.85

> <TPSA>
67.87

> <Acceptor>
5

> <Donor>
1

> <RotBonds>
5

> <HAC>
25

> <Collection>
General

$$$$
F3385-6145
  -ISIS-  06222321152D

 19 21  0  0  0  0  0  0  0  0999 V2000
    6.4917   -0.6542    0.0000 C   0  0  0  0  0  0  0  0  0  0  0  0
    6.4917   -1.4875    0.0000 C   0  0  0  0  0  0  0  0  0  0  0  0
    5.0542   -0.6542    0.0000 C   0  0  0  0  0  0  0  0  0  0  0  0
    5.7667   -0.2292    0.0000 O   0  0  0  0  0  0  0  0  0  0  0  0
    5.7667   -1.9000    0.0000 C   0  0  0  0  0  0  0  0  0  0  0  0
    5.0500   -1.4875    0.0000 C   0  0  0  0  0  0  0  0  0  0  0  0
    4.3375   -0.2417    0.0000 C   0  0  0  0  0  0  0  0  0  0  0  0
    4.3375   -1.8917    0.0000 C   0  0  0  0  0  0  0  0  0  0  0  0
    7.2042   -0.2417    0.0000 C   0  0  0  0  0  0  0  0  0  0  0  0
    5.7667   -2.7250    0.0000 O   0  0  0  0  0  0  0  0  0  0  0  0
    3.6250   -0.6542    0.0000 C   0  0  0  0  0  0  0  0  0  0  0  0
    3.6250   -1.4792    0.0000 C   0  0  0  0  0  0  0  0  0  0  0  0
    2.9125   -0.2417    0.0000 O   0  0  0  0  0  0  0  0  0  0  0  0
    7.9167   -0.6625    0.0000 C   0  0  0  0  0  0  0  0  0  0  0  0
    7.2042    0.5750    0.0000 C   0  0  0  0  0  0  0  0  0  0  0  0
    2.1917   -0.6542    0.0000 C   0  0  0  0  0  0  0  0  0  0  0  0
    8.6292   -0.2542    0.0000 C   0  0  0  0  0  0  0  0  0  0  0  0
    7.9167    0.9875    0.0000 C   0  0  0  0  0  0  0  0  0  0  0  0
    8.6375    0.5750    0.0000 C   0  0  0  0  0  0  0  0  0  0  0  0
  2  1  2  0  0  0  0
  3  4  1  0  0  0  0
  4  1  1  0  0  0  0
  5  2  1  0  0  0  0
  6  3  1  0  0  0  0
  7  3  2  0  0  0  0
  8  6  2  0  0  0  0
  9  1  1  0  0  0  0
 10  5  2  0  0  0  0
 11  7  1  0  0  0  0
 12 11  2  0  0  0  0
 13 11  1  0  0  0  0
 14  9  2  0  0  0  0
 15  9  1  0  0  0  0
 16 13  1  0  0  0  0
 17 14  1  0  0  0  0
 18 15  2  0  0  0  0
 19 18  1  0  0  0  0
  5  6  1  0  0  0  0
 19 17  2  0  0  0  0
  8 12  1  0  0  0  0
M  END
> <IDNUMBER>
F3385-6145

> <Chemical_Name>
7-methoxy-2-phenyl-4H-chromen-4-one

> <CAS>
22395-22-8

> <PriceCoeff>
1.00

> <MW>
252.26

> <Description>
solid

> <FSP3>
0.06

> <clogP>
3.59

> <TPSA>
35.53

> <Acceptor>
3

> <Donor>
0

> <RotBonds>
2

> <HAC>
19

> <Collection>
General

> <Reference_compound>
CHEMBL275638

> <Similarity>
0.9520

$$$$
F3139-0612
  -ISIS-  06222321462D

 22 24  0  0  0  0  0  0  0  0999 V2000
    5.2750   -0.4292    0.0000 C   0  0  0  0  0  0  0  0  0  0  0  0
    5.2750   -1.2667    0.0000 C   0  0  0  0  0  0  0  0  0  0  0  0
    3.8292   -1.2667    0.0000 C   0  0  0  0  0  0  0  0  0  0  0  0
    4.5500   -1.6792    0.0000 C   0  0  0  0  0  0  0  0  0  0  0  0
    4.5542   -0.0125    0.0000 O   0  0  0  0  0  0  0  0  0  0  0  0
    3.8375   -0.4292    0.0000 C   0  0  0  0  0  0  0  0  0  0  0  0
    5.9875   -0.0250    0.0000 C   0  0  0  0  0  0  0  0  0  0  0  0
    6.7042   -0.4417    0.0000 C   0  0  0  0  0  0  0  0  0  0  0  0
    7.4167   -0.0292    0.0000 C   0  0  0  0  0  0  0  0  0  0  0  0
    3.1167   -1.6750    0.0000 C   0  0  0  0  0  0  0  0  0  0  0  0
    4.5500   -2.5042    0.0000 O   0  0  0  0  0  0  0  0  0  0  0  0
    7.4167    0.7958    0.0000 C   0  0  0  0  0  0  0  0  0  0  0  0
    3.1167   -0.0167    0.0000 C   0  0  0  0  0  0  0  0  0  0  0  0
    5.9917    0.7958    0.0000 C   0  0  0  0  0  0  0  0  0  0  0  0
    6.7042    1.2083    0.0000 C   0  0  0  0  0  0  0  0  0  0  0  0
    2.4042   -1.2625    0.0000 C   0  0  0  0  0  0  0  0  0  0  0  0
    2.4042   -0.4375    0.0000 C   0  0  0  0  0  0  0  0  0  0  0  0
    8.1292   -0.4417    0.0000 O   0  0  0  0  0  0  0  0  0  0  0  0
    1.6917   -1.6750    0.0000 Cl  0  0  0  0  0  0  0  0  0  0  0  0
    8.1417    1.2083    0.0000 O   0  0  0  0  0  0  0  0  0  0  0  0
    8.8417   -0.0292    0.0000 C   0  0  0  0  0  0  0  0  0  0  0  0
    8.1417    2.0333    0.0000 C   0  0  0  0  0  0  0  0  0  0  0  0
  2  1  2  0  0  0  0
  3  6  1  0  0  0  0
  4  2  1  0  0  0  0
  5  1  1  0  0  0  0
  6  5  1  0  0  0  0
  7  1  1  0  0  0  0
  8  7  2  0  0  0  0
  9  8  1  0  0  0  0
 10  3  2  0  0  0  0
 11  4  2  0  0  0  0
 12 15  1  0  0  0  0
 13  6  2  0  0  0  0
 14  7  1  0  0  0  0
 15 14  2  0  0  0  0
 16 17  2  0  0  0  0
 17 13  1  0  0  0  0
 18  9  1  0  0  0  0
 19 16  1  0  0  0  0
 20 12  1  0  0  0  0
 21 18  1  0  0  0  0
 22 20  1  0  0  0  0
  3  4  1  0  0  0  0
  9 12  2  0  0  0  0
 16 10  1  0  0  0  0
M  END
> <IDNUMBER>
F3139-0612

> <Chemical_Name>
6-chloro-2-(3,4-dimethoxyphenyl)-4H-chromen-4-one

> <CAS>
36768-52-2

> <PriceCoeff>
1.00

> <MW>
316.74

> <Description>
solid

> <FSP3>
0.12

> <clogP>
3.87

> <TPSA>
44.76

> <Acceptor>
4

> <Donor>
0

> <RotBonds>
3

> <HAC>
22

> <Collection>
General

> <Reference_compound>
CHEMBL275638

> <Similarity>
0.8070

$$$$
F8889-1386
  -ISIS-  06222304352D

 13 12  0  0  0  0  0  0  0  0999 V2000
    7.8042   -2.6542    0.0000 C   0  0  0  0  0  0  0  0  0  0  0  0
    6.3792   -3.4875    0.0000 C   0  0  0  0  0  0  0  0  0  0  0  0
    5.6417   -3.8917    0.0000 C   0  0  0  0  0  0  0  0  0  0  0  0
    7.0917   -2.2417    0.0000 C   0  0  0  0  0  0  0  0  0  0  0  0
    7.8042   -3.4875    0.0000 C   0  0  0  0  0  0  0  0  0  0  0  0
    6.3792   -2.6542    0.0000 C   0  0  0  0  0  0  0  0  0  0  0  0
    7.0917   -3.8917    0.0000 C   0  0  0  0  0  0  0  0  0  0  0  0
    4.9375   -3.4875    0.0000 O   0  5  0  0  0  0  0  0  0  0  0  0
    5.6417   -4.7375    0.0000 O   0  0  0  0  0  0  0  0  0  0  0  0
    8.5375   -2.2375    0.0000 O   0  0  0  0  0  0  0  0  0  0  0  0
    7.0875   -1.4042    0.0000 O   0  0  0  0  0  0  0  0  0  0  0  0
    8.5375   -3.8917    0.0000 O   0  0  0  0  0  0  0  0  0  0  0  0
   10.0542   -3.2667    0.0000 Na  0  3  0  0  0  0  0  0  0  0  0  0
  3  2  1  0  0  0  0
  4  1  2  0  0  0  0
  5  1  1  0  0  0  0
  6  4  1  0  0  0  0
  7  5  2  0  0  0  0
  8  3  1  0  0  0  0
  9  3  2  0  0  0  0
 10  1  1  0  0  0  0
 11  4  1  0  0  0  0
 12  5  1  0  0  0  0
  6  2  2  0  0  0  0
  2  7  1  0  0  0  0
M  CHG  2   8  -1  13   1
M  END
> <IDNUMBER>
F8889-1386

> <Chemical_Name>
sodium 3,4,5-trihydroxybenzoate

> <CAS>
2053-21-6

> <PriceCoeff>
1.00

> <MW>
169.11

> <Description>
solid

> <FSP3>
0.00

> <clogP>
-4.05

> <TPSA>
100.82

> <Acceptor>
5

> <Donor>
3

> <RotBonds>
1

> <HAC>
12

> <Collection>
General

> <Reference_compound>
CHEMBL88700

> <Similarity>
0.8020

$$$$
F3023-0884
  -ISIS-  06222321462D

 29 32  0  0  0  0  0  0  0  0999 V2000
    4.1417   -6.4042    0.0000 N   0  0  3  0  0  0  0  0  0  0  0  0
    4.5625   -5.8292    0.0000 C   0  0  0  0  0  0  0  0  0  0  0  0
    4.5667   -6.9750    0.0000 C   0  0  0  0  0  0  0  0  0  0  0  0
    5.2417   -6.7542    0.0000 C   0  0  3  0  0  0  0  0  0  0  0  0
    5.2375   -6.0417    0.0000 C   0  0  0  0  0  0  0  0  0  0  0  0
    1.3167   -6.4250    0.0000 N   0  0  3  0  0  0  0  0  0  0  0  0
    5.8125   -7.1667    0.0000 N   0  0  0  0  0  0  0  0  0  0  0  0
    3.4375   -6.4042    0.0000 C   0  0  0  0  0  0  0  0  0  0  0  0
    2.0250   -6.4167    0.0000 C   0  0  0  0  0  0  0  0  0  0  0  0
    4.3375   -5.1542    0.0000 O   0  0  0  0  0  0  0  0  0  0  0  0
    4.3542   -7.6500    0.0000 O   0  0  0  0  0  0  0  0  0  0  0  0
    3.0917   -7.0250    0.0000 C   0  0  0  0  0  0  0  0  0  0  0  0
    3.0792   -5.7917    0.0000 C   0  0  0  0  0  0  0  0  0  0  0  0
    2.3750   -5.8000    0.0000 C   0  0  0  0  0  0  0  0  0  0  0  0
    2.3792   -7.0292    0.0000 C   0  0  0  0  0  0  0  0  0  0  0  0
   -0.1000   -6.4292    0.0000 O   0  0  0  0  0  0  0  0  0  0  0  0
    6.4625   -6.8792    0.0000 C   0  0  0  0  0  0  0  0  0  0  0  0
    7.7542   -6.3042    0.0000 C   0  0  0  0  0  0  0  0  0  0  0  0
    6.5292   -6.1750    0.0000 C   0  0  0  0  0  0  0  0  0  0  0  0
    7.0292   -7.2917    0.0000 C   0  0  0  0  0  0  0  0  0  0  0  0
    7.6792   -7.0042    0.0000 C   0  0  0  0  0  0  0  0  0  0  0  0
    7.1750   -5.8875    0.0000 C   0  0  0  0  0  0  0  0  0  0  0  0
    0.9542   -5.8125    0.0000 C   0  0  0  0  0  0  0  0  0  0  0  0
    0.9667   -7.0417    0.0000 C   0  0  0  0  0  0  0  0  0  0  0  0
    8.4042   -6.0125    0.0000 O   0  0  0  0  0  0  0  0  0  0  0  0
    0.2542   -7.0417    0.0000 C   0  0  0  0  0  0  0  0  0  0  0  0
    0.2542   -5.8167    0.0000 C   0  0  0  0  0  0  0  0  0  0  0  0
    8.9792   -6.4292    0.0000 C   0  0  0  0  0  0  0  0  0  0  0  0
    9.6250   -6.1375    0.0000 C   0  0  0  0  0  0  0  0  0  0  0  0
  2  1  1  0  0  0  0
  3  1  1  0  0  0  0
  4  3  1  0  0  0  0
  5  2  1  0  0  0  0
  6  9  1  0  0  0  0
  7  4  1  0  0  0  0
  8  1  1  0  0  0  0
  9 14  2  0  0  0  0
 10  2  2  0  0  0  0
 11  3  2  0  0  0  0
 12  8  1  0  0  0  0
 13  8  2  0  0  0  0
 14 13  1  0  0  0  0
 15 12  2  0  0  0  0
 16 26  1  0  0  0  0
 17  7  1  0  0  0  0
 18 21  2  0  0  0  0
 19 17  1  0  0  0  0
 20 17  2  0  0  0  0
 21 20  1  0  0  0  0
 22 19  2  0  0  0  0
 23  6  1  0  0  0  0
 24  6  1  0  0  0  0
 25 18  1  0  0  0  0
 26 24  1  0  0  0  0
 27 23  1  0  0  0  0
 28 25  1  0  0  0  0
 29 28  1  0  0  0  0
  5  4  1  0  0  0  0
  9 15  1  0  0  0  0
 22 18  1  0  0  0  0
 16 27  1  0  0  0  0
M  END
> <IDNUMBER>
F3023-0884

> <Chemical_Name>
3-[(4-ethoxyphenyl)amino]-1-[4-(morpholin-4-yl)phenyl]pyrrolidine-2,5-dione

> <CAS>
1008695-29-1

> <PriceCoeff>
1.00

> <MW>
395.45

> <Description>
solid

> <FSP3>
0.36

> <clogP>
2.57

> <TPSA>
71.11

> <Acceptor>
6

> <Donor>
2

> <RotBonds>
6

> <HAC>
29

> <Collection>
General

$$$$
F0425-0019
  -ISIS-  06222321142D

 25 27  0  0  0  0  0  0  0  0999 V2000
    3.1292   -2.1042    0.0000 N   0  0  3  0  0  0  0  0  0  0  0  0
    3.6042   -1.4375    0.0000 C   0  0  0  0  0  0  0  0  0  0  0  0
    3.6042   -2.7792    0.0000 C   0  0  0  0  0  0  0  0  0  0  0  0
    0.6542   -0.6667    0.0000 N   0  3  0  0  0  0  0  0  0  0  0  0
    4.3875   -2.5167    0.0000 C   0  0  3  0  0  0  0  0  0  0  0  0
    4.3875   -1.7000    0.0000 C   0  0  0  0  0  0  0  0  0  0  0  0
    2.3000   -2.1042    0.0000 C   0  0  0  0  0  0  0  0  0  0  0  0
    1.9000   -1.4000    0.0000 C   0  0  0  0  0  0  0  0  0  0  0  0
    1.0667   -1.3875    0.0000 C   0  0  0  0  0  0  0  0  0  0  0  0
    5.0542   -3.0042    0.0000 N   0  0  0  0  0  0  0  0  0  0  0  0
    1.0792    0.0333    0.0000 O   0  5  0  0  0  0  0  0  0  0  0  0
    3.3500   -0.6542    0.0000 O   0  0  0  0  0  0  0  0  0  0  0  0
   -0.1500   -0.6667    0.0000 O   0  0  0  0  0  0  0  0  0  0  0  0
    3.3500   -3.5542    0.0000 O   0  0  0  0  0  0  0  0  0  0  0  0
    5.8042   -2.6792    0.0000 C   0  0  0  0  0  0  0  0  0  0  0  0
    7.3167   -2.0042    0.0000 C   0  0  0  0  0  0  0  0  0  0  0  0
    1.8875   -2.8167    0.0000 C   0  0  0  0  0  0  0  0  0  0  0  0
    6.4792   -3.1667    0.0000 C   0  0  0  0  0  0  0  0  0  0  0  0
    5.9000   -1.8542    0.0000 C   0  0  0  0  0  0  0  0  0  0  0  0
    6.6500   -1.5167    0.0000 C   0  0  0  0  0  0  0  0  0  0  0  0
    7.2292   -2.8292    0.0000 C   0  0  0  0  0  0  0  0  0  0  0  0
    8.0667   -1.6792    0.0000 O   0  0  0  0  0  0  0  0  0  0  0  0
    0.6542   -2.1000    0.0000 C   0  0  0  0  0  0  0  0  0  0  0  0
    1.0667   -2.8167    0.0000 C   0  0  0  0  0  0  0  0  0  0  0  0
    8.7375   -2.1542    0.0000 C   0  0  0  0  0  0  0  0  0  0  0  0
  2  1  1  0  0  0  0
  3  1  1  0  0  0  0
  4  9  1  0  0  0  0
  5  3  1  0  0  0  0
  6  2  1  0  0  0  0
  7  1  1  0  0  0  0
  8  7  1  0  0  0  0
  9  8  2  0  0  0  0
 10  5  1  0  0  0  0
 11  4  1  0  0  0  0
 12  2  2  0  0  0  0
 13  4  2  0  0  0  0
 14  3  2  0  0  0  0
 15 10  1  0  0  0  0
 16 20  1  0  0  0  0
 17  7  2  0  0  0  0
 18 15  2  0  0  0  0
 19 15  1  0  0  0  0
 20 19  2  0  0  0  0
 21 18  1  0  0  0  0
 22 16  1  0  0  0  0
 23 24  2  0  0  0  0
 24 17  1  0  0  0  0
 25 22  1  0  0  0  0
  5  6  1  0  0  0  0
  9 23  1  0  0  0  0
 21 16  2  0  0  0  0
M  CHG  2   4   1  11  -1
M  END
> <IDNUMBER>
F0425-0019

> <Chemical_Name>
3-[(4-methoxyphenyl)amino]-1-(3-nitrophenyl)pyrrolidine-2,5-dione

> <CAS>
476410-24-9

> <PriceCoeff>
1.00

> <MW>
341.32

> <Description>
solid

> <FSP3>
0.18

> <clogP>
2.93

> <TPSA>
101.78

> <Acceptor>
6

> <Donor>
1

> <RotBonds>
5

> <HAC>
25

> <Collection>
General

$$$$
F5460-0026
  -ISIS-  06222321152D

 31 35  0  0  0  0  0  0  0  0999 V2000
   -4.0208    5.3875    0.0000 N   0  0  3  0  0  0  0  0  0  0  0  0
   -4.7583    5.2292    0.0000 C   0  0  0  0  0  0  0  0  0  0  0  0
   -3.4458    4.9042    0.0000 C   0  0  0  0  0  0  0  0  0  0  0  0
   -0.2708    3.6583    0.0000 N   0  0  3  0  0  0  0  0  0  0  0  0
   -5.2833    5.7625    0.0000 N   0  0  0  0  0  0  0  0  0  0  0  0
   -3.7458    6.0792    0.0000 N   0  0  0  0  0  0  0  0  0  0  0  0
   -5.0833    4.5750    0.0000 S   0  0  0  0  0  0  0  0  0  0  0  0
   -2.8208    5.3167    0.0000 C   0  0  0  0  0  0  0  0  0  0  0  0
   -3.4875    4.1542    0.0000 N   0  0  0  0  0  0  0  0  0  0  0  0
   -0.9000    4.0417    0.0000 C   0  0  0  0  0  0  0  0  0  0  0  0
   -2.8625    3.7583    0.0000 C   0  0  0  0  0  0  0  0  0  0  0  0
   -0.2458    2.9083    0.0000 C   0  0  0  0  0  0  0  0  0  0  0  0
    0.4417    3.9083    0.0000 C   0  0  0  0  0  0  0  0  0  0  0  0
   -2.9958    6.0292    0.0000 C   0  0  0  0  0  0  0  0  0  0  0  0
   -5.9583    5.4167    0.0000 C   0  0  0  0  0  0  0  0  0  0  0  0
   -5.8208    4.6792    0.0000 C   0  0  0  0  0  0  0  0  0  0  0  0
   -1.5708    3.7083    0.0000 C   0  0  0  0  0  0  0  0  0  0  0  0
   -2.2000    4.1042    0.0000 C   0  0  0  0  0  0  0  0  0  0  0  0
   -2.9000    3.0083    0.0000 O   0  0  0  0  0  0  0  0  0  0  0  0
    0.4750    2.6958    0.0000 C   0  0  0  0  0  0  0  0  0  0  0  0
    0.9042    3.3083    0.0000 C   0  0  0  0  0  0  0  0  0  0  0  0
   -0.8375    2.4375    0.0000 O   0  0  0  0  0  0  0  0  0  0  0  0
    0.6625    4.6292    0.0000 O   0  0  0  0  0  0  0  0  0  0  0  0
   -0.8708    4.8042    0.0000 C   0  0  0  0  0  0  0  0  0  0  0  0
   -2.1708    4.8542    0.0000 C   0  0  0  0  0  0  0  0  0  0  0  0
   -1.5083    5.2042    0.0000 C   0  0  0  0  0  0  0  0  0  0  0  0
   -2.5083    6.6042    0.0000 C   0  0  0  0  0  0  0  0  0  0  0  0
   -6.6500    5.6667    0.0000 C   0  0  0  0  0  0  0  0  0  0  0  0
   -6.3917    4.2042    0.0000 C   0  0  0  0  0  0  0  0  0  0  0  0
   -7.2292    5.1917    0.0000 C   0  0  0  0  0  0  0  0  0  0  0  0
   -7.0917    4.4667    0.0000 C   0  0  0  0  0  0  0  0  0  0  0  0
  2  1  1  0  0  0  0
  3  1  1  0  0  0  0
  4 10  1  0  0  0  0
  5  2  2  0  0  0  0
  6  1  1  0  0  0  0
  7  2  1  0  0  0  0
  8  3  2  0  0  0  0
  9  3  1  0  0  0  0
 10 17  1  0  0  0  0
 11  9  1  0  0  0  0
 12  4  1  0  0  0  0
 13  4  1  0  0  0  0
 14  6  2  0  0  0  0
 15  5  1  0  0  0  0
 16  7  1  0  0  0  0
 17 18  2  0  0  0  0
 18 11  1  0  0  0  0
 19 11  2  0  0  0  0
 20 12  1  0  0  0  0
 21 13  1  0  0  0  0
 22 12  2  0  0  0  0
 23 13  2  0  0  0  0
 24 26  1  0  0  0  0
 25 18  1  0  0  0  0
 26 25  2  0  0  0  0
 27 14  1  0  0  0  0
 28 15  1  0  0  0  0
 29 16  1  0  0  0  0
 30 28  2  0  0  0  0
 31 29  2  0  0  0  0
 14  8  1  0  0  0  0
 15 16  2  0  0  0  0
 31 30  1  0  0  0  0
 10 24  2  0  0  0  0
 20 21  1  0  0  0  0
M  END
> <IDNUMBER>
F5460-0026

> <Chemical_Name>
N-[1-(1,3-benzothiazol-2-yl)-3-methyl-1H-pyrazol-5-yl]-3-(2,5-dioxopyrrolidin-1-yl)benzamide

> <CAS>
1172262-91-7

> <PriceCoeff>
1.00

> <MW>
431.47

> <Description>
solid

> <FSP3>
0.14

> <clogP>
1.98

> <TPSA>
125.43

> <Acceptor>
5

> <Donor>
1

> <RotBonds>
4

> <HAC>
31

> <Collection>
General

$$$$
F0196-0669
  -ISIS-  06222321452D

 19 21  0  0  0  0  0  0  0  0999 V2000
   -0.1208    1.1458    0.0000 C   0  0  0  0  0  0  0  0  0  0  0  0
   -0.6833    0.8000    0.0000 C   0  0  0  0  0  0  0  0  0  0  0  0
   -1.2625    1.1458    0.0000 C   0  0  0  0  0  0  0  0  0  0  0  0
   -0.1208    1.8000    0.0000 C   0  0  0  0  0  0  0  0  0  0  0  0
   -1.2625    1.8000    0.0000 C   0  0  0  0  0  0  0  0  0  0  0  0
   -0.6833    2.1208    0.0000 O   0  0  0  0  0  0  0  0  0  0  0  0
    0.4542    0.8000    0.0000 C   0  0  0  0  0  0  0  0  0  0  0  0
   -1.8208    0.8000    0.0000 C   0  0  0  0  0  0  0  0  0  0  0  0
   -1.8208    2.1208    0.0000 C   0  0  0  0  0  0  0  0  0  0  0  0
   -0.6625    0.1458    0.0000 O   0  0  0  0  0  0  0  0  0  0  0  0
    0.4542    0.1458    0.0000 C   0  0  0  0  0  0  0  0  0  0  0  0
    1.0167    1.1458    0.0000 C   0  0  0  0  0  0  0  0  0  0  0  0
   -2.3833    1.8000    0.0000 C   0  0  0  0  0  0  0  0  0  0  0  0
   -2.3833    1.1458    0.0000 C   0  0  0  0  0  0  0  0  0  0  0  0
    1.6000    0.1625    0.0000 C   0  0  0  0  0  0  0  0  0  0  0  0
    1.0375   -0.2000    0.0000 C   0  0  0  0  0  0  0  0  0  0  0  0
    1.5792    0.8208    0.0000 C   0  0  0  0  0  0  0  0  0  0  0  0
    2.1792   -0.0792    0.0000 Br  0  0  0  0  0  0  0  0  0  0  0  0
   -2.9625    2.1458    0.0000 O   0  0  0  0  0  0  0  0  0  0  0  0
  2  1  1  0  0  0  0
  3  2  1  0  0  0  0
  4  1  2  0  0  0  0
  5  6  1  0  0  0  0
  6  4  1  0  0  0  0
  7  1  1  0  0  0  0
  8  3  1  0  0  0  0
  9  5  1  0  0  0  0
 10  2  2  0  0  0  0
 11  7  1  0  0  0  0
 12  7  2  0  0  0  0
 13  9  2  0  0  0  0
 14  8  2  0  0  0  0
 15 17  2  0  0  0  0
 16 11  2  0  0  0  0
 17 12  1  0  0  0  0
 18 15  1  0  0  0  0
 19 13  1  0  0  0  0
 15 16  1  0  0  0  0
  5  3  2  0  0  0  0
 13 14  1  0  0  0  0
M  END
> <IDNUMBER>
F0196-0669

> <Chemical_Name>
3-(4-bromophenyl)-7-hydroxy-4H-chromen-4-one

> <CAS>
96644-05-2

> <PriceCoeff>
1.00

> <MW>
317.13

> <Description>
solid

> <FSP3>
0.00

> <clogP>
3.57

> <TPSA>
46.53

> <Acceptor>
3

> <Donor>
1

> <RotBonds>
1

> <HAC>
19

> <Collection>
General

> <Reference_compound>
CHEMBL44

> <Similarity>
0.8990

$$$$
F0715-0381
  -ISIS-  06222321452D

 23 24  0  0  0  0  0  0  0  0999 V2000
   -1.1125   -1.0667    0.0000 C   0  0  0  0  0  0  0  0  0  0  0  0
   -0.1208   -1.1000    0.0000 C   0  0  0  0  0  0  0  0  0  0  0  0
   -0.6000   -0.7167    0.0000 S   0  0  0  0  0  0  0  0  0  0  0  0
   -0.9000   -1.6792    0.0000 N   0  0  3  0  0  0  0  0  0  0  0  0
   -2.8833   -0.4500    0.0000 N   0  0  3  0  0  0  0  0  0  0  0  0
   -0.2958   -1.6542    0.0000 C   0  0  0  0  0  0  0  0  0  0  0  0
   -1.6833   -0.8875    0.0000 N   0  0  0  0  0  0  0  0  0  0  0  0
   -3.4625   -0.2792    0.0000 C   0  0  0  0  0  0  0  0  0  0  0  0
   -2.8625   -1.0792    0.0000 C   0  0  0  0  0  0  0  0  0  0  0  0
    0.4875   -0.9167    0.0000 C   0  0  0  0  0  0  0  0  0  0  0  0
   -1.8125   -0.2875    0.0000 C   0  0  0  0  0  0  0  0  0  0  0  0
   -2.4125   -0.0667    0.0000 C   0  0  0  0  0  0  0  0  0  0  0  0
   -3.4458   -1.2542    0.0000 C   0  0  0  0  0  0  0  0  0  0  0  0
   -3.8125   -0.7667    0.0000 C   0  0  0  0  0  0  0  0  0  0  0  0
   -2.3208   -1.4375    0.0000 O   0  0  0  0  0  0  0  0  0  0  0  0
   -3.6458    0.3333    0.0000 O   0  0  0  0  0  0  0  0  0  0  0  0
    0.6292   -0.3167    0.0000 O   0  0  0  0  0  0  0  0  0  0  0  0
   -1.3500    0.1125    0.0000 O   0  0  0  0  0  0  0  0  0  0  0  0
   -1.2625   -2.1667    0.0000 C   0  0  0  0  0  0  0  0  0  0  0  0
    0.9375   -1.3500    0.0000 O   0  0  0  0  0  0  0  0  0  0  0  0
    0.0792   -2.1667    0.0000 C   0  0  0  0  0  0  0  0  0  0  0  0
    0.8042   -1.9542    0.0000 C   0  0  0  0  0  0  0  0  0  0  0  0
    1.2542   -2.3667    0.0000 C   0  0  0  0  0  0  0  0  0  0  0  0
  2  3  1  0  0  0  0
  3  1  1  0  0  0  0
  4  1  1  0  0  0  0
  5 12  1  0  0  0  0
  6  4  1  0  0  0  0
  7  1  2  0  0  0  0
  8  5  1  0  0  0  0
  9  5  1  0  0  0  0
 10  2  1  0  0  0  0
 11  7  1  0  0  0  0
 12 11  1  0  0  0  0
 13  9  1  0  0  0  0
 14  8  1  0  0  0  0
 15  9  2  0  0  0  0
 16  8  2  0  0  0  0
 17 10  2  0  0  0  0
 18 11  2  0  0  0  0
 19  4  1  0  0  0  0
 20 10  1  0  0  0  0
 21  6  1  0  0  0  0
 22 20  1  0  0  0  0
 23 22  1  0  0  0  0
  2  6  2  0  0  0  0
 14 13  1  0  0  0  0
M  END
> <IDNUMBER>
F0715-0381

> <Chemical_Name>
ethyl (2Z)-2-{[2-(2,5-dioxopyrrolidin-1-yl)acetyl]imino}-3,4-dimethyl-2,3-dihydro-1,3-thiazole-5-carboxylate

> <CAS>
393839-00-4

> <PriceCoeff>
1.00

> <MW>
339.37

> <Description>
solid

> <FSP3>
0.50

> <clogP>
2.18

> <TPSA>
121.65

> <Acceptor>
5

> <Donor>
0

> <RotBonds>
6

> <HAC>
23

> <Collection>
General

$$$$
F3023-0394
  -ISIS-  06222321462D

 26 28  0  0  0  0  0  0  0  0999 V2000
   10.2500   -6.1542    0.0000 N   0  0  3  0  0  0  0  0  0  0  0  0
    9.8292   -5.5750    0.0000 C   0  0  0  0  0  0  0  0  0  0  0  0
    9.8250   -6.7375    0.0000 C   0  0  0  0  0  0  0  0  0  0  0  0
    9.1417   -6.5042    0.0000 C   0  0  3  0  0  0  0  0  0  0  0  0
    9.1417   -5.7917    0.0000 C   0  0  0  0  0  0  0  0  0  0  0  0
   10.9667   -6.1625    0.0000 C   0  0  0  0  0  0  0  0  0  0  0  0
   11.3167   -6.7875    0.0000 C   0  0  0  0  0  0  0  0  0  0  0  0
    8.5625   -6.9292    0.0000 N   0  0  0  0  0  0  0  0  0  0  0  0
   12.0292   -6.7917    0.0000 C   0  0  0  0  0  0  0  0  0  0  0  0
   11.3167   -5.5417    0.0000 C   0  0  0  0  0  0  0  0  0  0  0  0
   10.0542   -4.8917    0.0000 O   0  0  0  0  0  0  0  0  0  0  0  0
   10.0417   -7.4167    0.0000 O   0  0  0  0  0  0  0  0  0  0  0  0
    7.9042   -6.6292    0.0000 C   0  0  0  0  0  0  0  0  0  0  0  0
   12.3917   -6.1667    0.0000 C   0  0  0  0  0  0  0  0  0  0  0  0
   12.0375   -5.5417    0.0000 C   0  0  0  0  0  0  0  0  0  0  0  0
   10.9542   -7.4042    0.0000 O   0  0  0  0  0  0  0  0  0  0  0  0
    6.6042   -6.0417    0.0000 C   0  0  0  0  0  0  0  0  0  0  0  0
    7.8417   -5.9167    0.0000 C   0  0  0  0  0  0  0  0  0  0  0  0
    7.3292   -7.0500    0.0000 C   0  0  0  0  0  0  0  0  0  0  0  0
    6.6792   -6.7542    0.0000 C   0  0  0  0  0  0  0  0  0  0  0  0
    7.1917   -5.6250    0.0000 C   0  0  0  0  0  0  0  0  0  0  0  0
   13.1125   -6.1750    0.0000 O   0  0  0  0  0  0  0  0  0  0  0  0
    5.9542   -5.7417    0.0000 C   0  0  0  0  0  0  0  0  0  0  0  0
   11.3042   -8.0292    0.0000 C   0  0  0  0  0  0  0  0  0  0  0  0
   13.4667   -6.7917    0.0000 C   0  0  0  0  0  0  0  0  0  0  0  0
    5.3667   -6.1667    0.0000 C   0  0  0  0  0  0  0  0  0  0  0  0
  2  1  1  0  0  0  0
  3  1  1  0  0  0  0
  4  3  1  0  0  0  0
  5  2  1  0  0  0  0
  6  1  1  0  0  0  0
  7  6  2  0  0  0  0
  8  4  1  0  0  0  0
  9  7  1  0  0  0  0
 10  6  1  0  0  0  0
 11  2  2  0  0  0  0
 12  3  2  0  0  0  0
 13  8  1  0  0  0  0
 14 15  1  0  0  0  0
 15 10  2  0  0  0  0
 16  7  1  0  0  0  0
 17 20  1  0  0  0  0
 18 13  2  0  0  0  0
 19 13  1  0  0  0  0
 20 19  2  0  0  0  0
 21 18  1  0  0  0  0
 22 14  1  0  0  0  0
 23 17  1  0  0  0  0
 24 16  1  0  0  0  0
 25 22  1  0  0  0  0
 26 23  1  0  0  0  0
  4  5  1  0  0  0  0
 14  9  2  0  0  0  0
 17 21  2  0  0  0  0
M  END
> <IDNUMBER>
F3023-0394

> <Chemical_Name>
1-(2,4-dimethoxyphenyl)-3-[(4-ethylphenyl)amino]pyrrolidine-2,5-dione

> <CAS>
1008061-26-4

> <PriceCoeff>
1.00

> <MW>
354.40

> <Description>
solid

> <FSP3>
0.30

> <clogP>
3.63

> <TPSA>
67.87

> <Acceptor>
5

> <Donor>
1

> <RotBonds>
6

> <HAC>
26

> <Collection>
General

$$$$
F3139-0847
  -ISIS-  06222321152D

 23 25  0  0  0  0  0  0  0  0999 V2000
    3.5042   -0.5625    0.0000 C   0  0  0  0  0  0  0  0  0  0  0  0
    2.7917   -0.9750    0.0000 C   0  0  0  0  0  0  0  0  0  0  0  0
    2.0792   -0.5625    0.0000 C   0  0  0  0  0  0  0  0  0  0  0  0
    3.5042    0.2625    0.0000 C   0  0  0  0  0  0  0  0  0  0  0  0
    2.0792    0.2625    0.0000 C   0  0  0  0  0  0  0  0  0  0  0  0
    2.7917    0.6750    0.0000 O   0  0  0  0  0  0  0  0  0  0  0  0
    1.3667   -0.9750    0.0000 C   0  0  0  0  0  0  0  0  0  0  0  0
    1.3667    0.6750    0.0000 C   0  0  0  0  0  0  0  0  0  0  0  0
    4.2167   -0.9750    0.0000 C   0  0  0  0  0  0  0  0  0  0  0  0
   -1.5000    0.6750    0.0000 C   0  0  0  0  0  0  0  0  0  0  0  0
    2.7917   -1.8000    0.0000 O   0  0  0  0  0  0  0  0  0  0  0  0
   -1.5000    1.5000    0.0000 O   0  0  0  0  0  0  0  0  0  0  0  0
    0.6500    0.2625    0.0000 C   0  0  0  0  0  0  0  0  0  0  0  0
   -0.0708    0.6750    0.0000 O   0  0  0  0  0  0  0  0  0  0  0  0
   -0.7875    0.2625    0.0000 C   0  0  0  0  0  0  0  0  0  0  0  0
    0.6500   -0.5625    0.0000 C   0  0  0  0  0  0  0  0  0  0  0  0
   -2.2208    0.2625    0.0000 O   0  0  0  0  0  0  0  0  0  0  0  0
    4.9417   -0.5625    0.0000 C   0  0  0  0  0  0  0  0  0  0  0  0
    4.2167   -1.8042    0.0000 C   0  0  0  0  0  0  0  0  0  0  0  0
   -2.9250    0.6750    0.0000 C   0  0  0  0  0  0  0  0  0  0  0  0
    5.6542   -0.9750    0.0000 C   0  0  0  0  0  0  0  0  0  0  0  0
    4.9292   -2.2167    0.0000 C   0  0  0  0  0  0  0  0  0  0  0  0
    5.6542   -1.8042    0.0000 C   0  0  0  0  0  0  0  0  0  0  0  0
  2  1  1  0  0  0  0
  3  2  1  0  0  0  0
  4  1  2  0  0  0  0
  5  6  1  0  0  0  0
  6  4  1  0  0  0  0
  7  3  2  0  0  0  0
  8  5  2  0  0  0  0
  9  1  1  0  0  0  0
 10 15  1  0  0  0  0
 11  2  2  0  0  0  0
 12 10  2  0  0  0  0
 13  8  1  0  0  0  0
 14 13  1  0  0  0  0
 15 14  1  0  0  0  0
 16  7  1  0  0  0  0
 17 10  1  0  0  0  0
 18  9  1  0  0  0  0
 19  9  2  0  0  0  0
 20 17  1  0  0  0  0
 21 18  2  0  0  0  0
 22 19  1  0  0  0  0
 23 22  2  0  0  0  0
  5  3  1  0  0  0  0
 21 23  1  0  0  0  0
 13 16  2  0  0  0  0
M  END
> <IDNUMBER>
F3139-0847

> <Chemical_Name>
methyl 2-[(4-oxo-3-phenyl-4H-chromen-7-yl)oxy]acetate

> <CAS>
449737-90-0

> <PriceCoeff>
1.00

> <MW>
310.30

> <Description>
solid

> <FSP3>
0.11

> <clogP>
2.70

> <TPSA>
61.83

> <Acceptor>
5

> <Donor>
0

> <RotBonds>
5

> <HAC>
23

> <Collection>
General

> <Reference_compound>
CHEMBL44

> <Similarity>
0.8530

$$$$
F3023-0974
  -ISIS-  06222321152D

 28 31  0  0  0  0  0  0  0  0999 V2000
    4.2417   -6.4542    0.0000 N   0  0  3  0  0  0  0  0  0  0  0  0
    4.6625   -5.8792    0.0000 C   0  0  0  0  0  0  0  0  0  0  0  0
    4.6667   -7.0250    0.0000 C   0  0  0  0  0  0  0  0  0  0  0  0
    3.5375   -6.4542    0.0000 C   0  0  0  0  0  0  0  0  0  0  0  0
    5.3417   -6.8042    0.0000 C   0  0  3  0  0  0  0  0  0  0  0  0
    5.3375   -6.0917    0.0000 C   0  0  0  0  0  0  0  0  0  0  0  0
    3.1917   -7.0750    0.0000 C   0  0  0  0  0  0  0  0  0  0  0  0
    8.5042   -6.0625    0.0000 N   0  0  3  0  0  0  0  0  0  0  0  0
    5.9125   -7.2167    0.0000 N   0  0  0  0  0  0  0  0  0  0  0  0
    4.4375   -5.2042    0.0000 O   0  0  0  0  0  0  0  0  0  0  0  0
    7.8542   -6.3542    0.0000 C   0  0  0  0  0  0  0  0  0  0  0  0
    4.4542   -7.7000    0.0000 O   0  0  0  0  0  0  0  0  0  0  0  0
    2.4875   -7.0792    0.0000 C   0  0  0  0  0  0  0  0  0  0  0  0
    3.5542   -7.6792    0.0000 Cl  0  0  0  0  0  0  0  0  0  0  0  0
    9.8042   -5.4875    0.0000 O   0  0  0  0  0  0  0  0  0  0  0  0
    7.2750   -5.9375    0.0000 C   0  0  0  0  0  0  0  0  0  0  0  0
    7.7792   -7.0542    0.0000 C   0  0  0  0  0  0  0  0  0  0  0  0
    6.5625   -6.9292    0.0000 C   0  0  0  0  0  0  0  0  0  0  0  0
    3.1792   -5.8417    0.0000 C   0  0  0  0  0  0  0  0  0  0  0  0
    2.1292   -7.7000    0.0000 Cl  0  0  0  0  0  0  0  0  0  0  0  0
    6.6292   -6.2250    0.0000 C   0  0  0  0  0  0  0  0  0  0  0  0
    7.1292   -7.3417    0.0000 C   0  0  0  0  0  0  0  0  0  0  0  0
    8.5750   -5.3542    0.0000 C   0  0  0  0  0  0  0  0  0  0  0  0
    9.0792   -6.4792    0.0000 C   0  0  0  0  0  0  0  0  0  0  0  0
    2.4750   -5.8500    0.0000 C   0  0  0  0  0  0  0  0  0  0  0  0
    2.1250   -6.4667    0.0000 C   0  0  0  0  0  0  0  0  0  0  0  0
    9.7250   -6.1917    0.0000 C   0  0  0  0  0  0  0  0  0  0  0  0
    9.2250   -5.0667    0.0000 C   0  0  0  0  0  0  0  0  0  0  0  0
  2  1  1  0  0  0  0
  3  1  1  0  0  0  0
  4  1  1  0  0  0  0
  5  3  1  0  0  0  0
  6  2  1  0  0  0  0
  7  4  1  0  0  0  0
  8 11  1  0  0  0  0
  9  5  1  0  0  0  0
 10  2  2  0  0  0  0
 11 17  2  0  0  0  0
 12  3  2  0  0  0  0
 13  7  2  0  0  0  0
 14  7  1  0  0  0  0
 15 27  1  0  0  0  0
 16 21  2  0  0  0  0
 17 22  1  0  0  0  0
 18  9  1  0  0  0  0
 19  4  2  0  0  0  0
 20 13  1  0  0  0  0
 21 18  1  0  0  0  0
 22 18  2  0  0  0  0
 23  8  1  0  0  0  0
 24  8  1  0  0  0  0
 25 19  1  0  0  0  0
 26 25  2  0  0  0  0
 27 24  1  0  0  0  0
 28 23  1  0  0  0  0
  6  5  1  0  0  0  0
 26 13  1  0  0  0  0
 16 11  1  0  0  0  0
 15 28  1  0  0  0  0
M  END
> <IDNUMBER>
F3023-0974

> <Chemical_Name>
1-(2,3-dichlorophenyl)-3-{[4-(morpholin-4-yl)phenyl]amino}pyrrolidine-2,5-dione

> <CAS>
1022924-08-8

> <PriceCoeff>
1.00

> <MW>
420.29

> <Description>
solid

> <FSP3>
0.30

> <clogP>
3.23

> <TPSA>
61.88

> <Acceptor>
5

> <Donor>
2

> <RotBonds>
4

> <HAC>
28

> <Collection>
General

$$$$
F3325-0121
  -ISIS-  06222321152D

 30 34  0  0  0  0  0  0  0  0999 V2000
    4.8792   -1.3250    0.0000 N   0  0  3  0  0  0  0  0  0  0  0  0
    5.3667   -1.9917    0.0000 C   0  0  0  0  0  0  0  0  0  0  0  0
    5.3625   -0.6542    0.0000 C   0  0  0  0  0  0  0  0  0  0  0  0
    6.1542   -1.7292    0.0000 C   0  0  3  0  0  0  0  0  0  0  0  0
    6.1417   -0.9042    0.0000 C   0  0  0  0  0  0  0  0  0  0  0  0
    6.8167   -2.2125    0.0000 N   0  0  3  0  0  0  0  0  0  0  0  0
    4.0542   -1.3292    0.0000 C   0  0  0  0  0  0  0  0  0  0  0  0
    8.1542   -3.1750    0.0000 N   0  0  3  0  0  0  0  0  0  0  0  0
    2.4000    0.0833    0.0000 C   0  0  0  0  0  0  0  0  0  0  0  0
    5.1167   -2.7750    0.0000 O   0  0  0  0  0  0  0  0  0  0  0  0
    2.8042    0.8083    0.0000 C   0  0  0  0  0  0  0  0  0  0  0  0
    1.5875    0.2458    0.0000 O   0  0  0  0  0  0  0  0  0  0  0  0
    5.1042    0.1333    0.0000 O   0  0  0  0  0  0  0  0  0  0  0  0
    2.2417    1.4125    0.0000 O   0  0  0  0  0  0  0  0  0  0  0  0
    1.4917    1.0708    0.0000 C   0  0  0  0  0  0  0  0  0  0  0  0
    2.8167   -0.6292    0.0000 C   0  0  0  0  0  0  0  0  0  0  0  0
    3.6375   -0.6167    0.0000 C   0  0  0  0  0  0  0  0  0  0  0  0
    6.7292   -3.0292    0.0000 C   0  0  0  0  0  0  0  0  0  0  0  0
    7.5667   -1.8667    0.0000 C   0  0  0  0  0  0  0  0  0  0  0  0
    8.8250   -3.6542    0.0000 C   0  0  0  0  0  0  0  0  0  0  0  0
    3.6292    0.8083    0.0000 C   0  0  0  0  0  0  0  0  0  0  0  0
    8.2375   -2.3542    0.0000 C   0  0  0  0  0  0  0  0  0  0  0  0
    7.4000   -3.5125    0.0000 C   0  0  0  0  0  0  0  0  0  0  0  0
    4.0500    0.0958    0.0000 C   0  0  0  0  0  0  0  0  0  0  0  0
    9.5750   -3.3250    0.0000 C   0  0  0  0  0  0  0  0  0  0  0  0
    9.6542   -2.5042    0.0000 C   0  0  0  0  0  0  0  0  0  0  0  0
   10.2417   -3.8042    0.0000 C   0  0  0  0  0  0  0  0  0  0  0  0
   10.9917   -3.4667    0.0000 C   0  0  0  0  0  0  0  0  0  0  0  0
   10.4042   -2.1667    0.0000 C   0  0  0  0  0  0  0  0  0  0  0  0
   11.0792   -2.6500    0.0000 C   0  0  0  0  0  0  0  0  0  0  0  0
  2  1  1  0  0  0  0
  3  1  1  0  0  0  0
  4  2  1  0  0  0  0
  5  3  1  0  0  0  0
  6  4  1  0  0  0  0
  7  1  1  0  0  0  0
  8 22  1  0  0  0  0
  9 16  2  0  0  0  0
 10  2  2  0  0  0  0
 11 21  2  0  0  0  0
 12  9  1  0  0  0  0
 13  3  2  0  0  0  0
 14 11  1  0  0  0  0
 15 12  1  0  0  0  0
 16 17  1  0  0  0  0
 17  7  1  0  0  0  0
 18  6  1  0  0  0  0
 19  6  1  0  0  0  0
 20  8  1  0  0  0  0
 21 24  1  0  0  0  0
 22 19  1  0  0  0  0
 23 18  1  0  0  0  0
 24 17  2  0  0  0  0
 25 20  1  0  0  0  0
 26 25  1  0  0  0  0
 27 25  2  0  0  0  0
 28 27  1  0  0  0  0
 29 26  2  0  0  0  0
 30 28  2  0  0  0  0
  4  5  1  0  0  0  0
  9 11  1  0  0  0  0
 23  8  1  0  0  0  0
 14 15  1  0  0  0  0
 29 30  1  0  0  0  0
M  END
> <IDNUMBER>
F3325-0121

> <Chemical_Name>
1-[(2H-1,3-benzodioxol-5-yl)methyl]-3-(4-benzylpiperazin-1-yl)pyrrolidine-2,5-dione

> <CAS>
924861-19-8

> <PriceCoeff>
1.00

> <MW>
407.46

> <Description>
solid

> <FSP3>
0.39

> <clogP>
4.18

> <TPSA>
62.32

> <Acceptor>
6

> <Donor>
2

> <RotBonds>
5

> <HAC>
30

> <Collection>
General

$$$$
F0440-0365
  -ISIS-  06222321442D

 26 28  0  0  0  0  0  0  0  0999 V2000
   -0.6500    1.3000    0.0000 N   0  0  3  0  0  0  0  0  0  0  0  0
    2.0792    0.8208    0.0000 C   0  0  0  0  0  0  0  0  0  0  0  0
   -0.9708    0.7458    0.0000 C   0  0  0  0  0  0  0  0  0  0  0  0
   -1.0958    1.7625    0.0000 C   0  0  0  0  0  0  0  0  0  0  0  0
    2.2542    1.4458    0.0000 C   0  0  0  0  0  0  0  0  0  0  0  0
    1.4542    0.6625    0.0000 C   0  0  0  0  0  0  0  0  0  0  0  0
    0.4000    0.9833    0.0000 C   0  0  0  0  0  0  0  0  0  0  0  0
    1.0167    1.1208    0.0000 N   0  0  0  0  0  0  0  0  0  0  0  0
   -0.0333    1.4458    0.0000 C   0  0  0  0  0  0  0  0  0  0  0  0
    2.5167    0.3625    0.0000 C   0  0  0  0  0  0  0  0  0  0  0  0
   -1.6125    0.8833    0.0000 C   0  0  0  0  0  0  0  0  0  0  0  0
   -1.6708    1.5000    0.0000 C   0  0  0  0  0  0  0  0  0  0  0  0
    1.8167    1.9000    0.0000 O   0  0  0  0  0  0  0  0  0  0  0  0
   -0.7125    0.1458    0.0000 O   0  0  0  0  0  0  0  0  0  0  0  0
   -0.9708    2.4208    0.0000 O   0  0  0  0  0  0  0  0  0  0  0  0
    2.8542    1.6000    0.0000 C   0  0  0  0  0  0  0  0  0  0  0  0
    0.2000    0.3625    0.0000 O   0  0  0  0  0  0  0  0  0  0  0  0
    1.2792    0.0458    0.0000 C   0  0  0  0  0  0  0  0  0  0  0  0
    2.3500   -0.2500    0.0000 C   0  0  0  0  0  0  0  0  0  0  0  0
    1.7167   -0.4042    0.0000 C   0  0  0  0  0  0  0  0  0  0  0  0
    2.8000   -0.7000    0.0000 Cl  0  0  0  0  0  0  0  0  0  0  0  0
    3.0542    2.2083    0.0000 C   0  0  0  0  0  0  0  0  0  0  0  0
    3.3000    1.1208    0.0000 C   0  0  0  0  0  0  0  0  0  0  0  0
    3.9167    1.2833    0.0000 C   0  0  0  0  0  0  0  0  0  0  0  0
    3.6792    2.3625    0.0000 C   0  0  0  0  0  0  0  0  0  0  0  0
    4.1000    1.8833    0.0000 C   0  0  0  0  0  0  0  0  0  0  0  0
  2  6  2  0  0  0  0
  3  1  1  0  0  0  0
  4  1  1  0  0  0  0
  5  2  1  0  0  0  0
  6  8  1  0  0  0  0
  7  9  1  0  0  0  0
  8  7  1  0  0  0  0
  9  1  1  0  0  0  0
 10  2  1  0  0  0  0
 11  3  1  0  0  0  0
 12  4  1  0  0  0  0
 13  5  2  0  0  0  0
 14  3  2  0  0  0  0
 15  4  2  0  0  0  0
 16  5  1  0  0  0  0
 17  7  2  0  0  0  0
 18  6  1  0  0  0  0
 19 20  1  0  0  0  0
 20 18  2  0  0  0  0
 21 19  1  0  0  0  0
 22 16  2  0  0  0  0
 23 16  1  0  0  0  0
 24 23  2  0  0  0  0
 25 22  1  0  0  0  0
 26 24  1  0  0  0  0
 12 11  1  0  0  0  0
 19 10  2  0  0  0  0
 26 25  2  0  0  0  0
M  END
> <IDNUMBER>
F0440-0365

> <Chemical_Name>
N-(2-benzoyl-4-chlorophenyl)-2-(2,5-dioxopyrrolidin-1-yl)acetamide

> <CAS>
58142-33-9

> <PriceCoeff>
1.00

> <MW>
370.79

> <Description>
solid

> <FSP3>
0.16

> <clogP>
3.37

> <TPSA>
83.55

> <Acceptor>
4

> <Donor>
1

> <RotBonds>
5

> <HAC>
26

> <Collection>
General

$$$$
F0191-5659
  -ISIS-  06222321452D

 21 22  0  0  0  0  0  0  0  0999 V2000
    1.4667    1.2125    0.0000 N   0  3  0  0  0  0  0  0  0  0  0  0
   -1.5125    0.0458    0.0000 C   0  0  0  0  0  0  0  0  0  0  0  0
   -2.1125   -0.3042    0.0000 C   0  0  0  0  0  0  0  0  0  0  0  0
   -0.8833   -0.2792    0.0000 N   0  0  0  0  0  0  0  0  0  0  0  0
    0.8792    0.8458    0.0000 C   0  0  0  0  0  0  0  0  0  0  0  0
    0.9167    0.1458    0.0000 C   0  0  0  0  0  0  0  0  0  0  0  0
   -0.3000    0.0958    0.0000 C   0  0  0  0  0  0  0  0  0  0  0  0
    0.3167   -0.2292    0.0000 C   0  0  0  0  0  0  0  0  0  0  0  0
    2.1167    0.9458    0.0000 O   0  5  0  0  0  0  0  0  0  0  0  0
    1.4875    1.9125    0.0000 O   0  0  0  0  0  0  0  0  0  0  0  0
   -1.5000    0.7458    0.0000 O   0  0  0  0  0  0  0  0  0  0  0  0
   -2.1125   -1.0042    0.0000 C   0  0  0  0  0  0  0  0  0  0  0  0
    0.2500    1.1708    0.0000 C   0  0  0  0  0  0  0  0  0  0  0  0
   -0.3333    0.7958    0.0000 C   0  0  0  0  0  0  0  0  0  0  0  0
    0.3375   -0.9167    0.0000 Cl  0  0  0  0  0  0  0  0  0  0  0  0
   -2.7125    0.0458    0.0000 C   0  0  0  0  0  0  0  0  0  0  0  0
   -1.5125   -1.3542    0.0000 O   0  0  0  0  0  0  0  0  0  0  0  0
   -2.7125   -1.3542    0.0000 C   0  0  0  0  0  0  0  0  0  0  0  0
   -1.5125   -2.0500    0.0000 C   0  0  0  0  0  0  0  0  0  0  0  0
   -3.3208   -0.3042    0.0000 C   0  0  0  0  0  0  0  0  0  0  0  0
   -3.3208   -1.0042    0.0000 C   0  0  0  0  0  0  0  0  0  0  0  0
  2  4  1  0  0  0  0
  3  2  1  0  0  0  0
  4  7  1  0  0  0  0
  5  1  1  0  0  0  0
  6  5  1  0  0  0  0
  7 14  2  0  0  0  0
  8  6  2  0  0  0  0
  9  1  1  0  0  0  0
 10  1  2  0  0  0  0
 11  2  2  0  0  0  0
 12  3  2  0  0  0  0
 13  5  2  0  0  0  0
 14 13  1  0  0  0  0
 15  8  1  0  0  0  0
 16  3  1  0  0  0  0
 17 12  1  0  0  0  0
 18 12  1  0  0  0  0
 19 17  1  0  0  0  0
 20 16  2  0  0  0  0
 21 20  1  0  0  0  0
  7  8  1  0  0  0  0
 18 21  2  0  0  0  0
M  CHG  2   1   1   9  -1
M  END
> <IDNUMBER>
F0191-5659

> <Chemical_Name>
N-(2-chloro-4-nitrophenyl)-2-methoxybenzamide

> <CAS>
133687-89-5

> <PriceCoeff>
1.00

> <MW>
306.70

> <Description>
solid

> <FSP3>
0.07

> <clogP>
2.92

> <TPSA>
81.47

> <Acceptor>
4

> <Donor>
1

> <RotBonds>
4

> <HAC>
21

> <Collection>
General

$$$$
F0327-0387
  -ISIS-  06222321452D

 27 29  0  0  0  0  0  0  0  0999 V2000
    4.4792   -0.8875    0.0000 N   0  0  3  0  0  0  0  0  0  0  0  0
   -1.1208    1.0333    0.0000 N   0  3  0  0  0  0  0  0  0  0  0  0
    4.9792   -0.3292    0.0000 C   0  0  0  0  0  0  0  0  0  0  0  0
    4.8375   -1.5292    0.0000 C   0  0  0  0  0  0  0  0  0  0  0  0
    1.4792   -0.8875    0.0000 C   0  0  0  0  0  0  0  0  0  0  0  0
    1.1167   -0.2500    0.0000 N   0  0  0  0  0  0  0  0  0  0  0  0
    0.3542   -0.2500    0.0000 C   0  0  0  0  0  0  0  0  0  0  0  0
   -0.7625    0.3958    0.0000 C   0  0  0  0  0  0  0  0  0  0  0  0
   -0.0208    0.3958    0.0000 C   0  0  0  0  0  0  0  0  0  0  0  0
    3.7167   -0.8875    0.0000 C   0  0  0  0  0  0  0  0  0  0  0  0
   -0.8000    1.7125    0.0000 O   0  5  0  0  0  0  0  0  0  0  0  0
    2.2375   -0.8875    0.0000 C   0  0  0  0  0  0  0  0  0  0  0  0
   -1.8958    1.0333    0.0000 O   0  0  0  0  0  0  0  0  0  0  0  0
   -0.0208   -0.8875    0.0000 C   0  0  0  0  0  0  0  0  0  0  0  0
    1.1167   -1.5292    0.0000 O   0  0  0  0  0  0  0  0  0  0  0  0
    5.6542   -0.6292    0.0000 C   0  0  0  0  0  0  0  0  0  0  0  0
    5.5542   -1.3667    0.0000 C   0  0  0  0  0  0  0  0  0  0  0  0
    4.8167    0.4333    0.0000 O   0  0  0  0  0  0  0  0  0  0  0  0
    4.5542   -2.2292    0.0000 O   0  0  0  0  0  0  0  0  0  0  0  0
   -1.1458   -0.2500    0.0000 C   0  0  0  0  0  0  0  0  0  0  0  0
    3.3542   -1.5292    0.0000 C   0  0  0  0  0  0  0  0  0  0  0  0
    3.3542   -0.2500    0.0000 C   0  0  0  0  0  0  0  0  0  0  0  0
    2.6000   -0.2500    0.0000 C   0  0  0  0  0  0  0  0  0  0  0  0
    2.6000   -1.5292    0.0000 C   0  0  0  0  0  0  0  0  0  0  0  0
   -0.7625   -0.8875    0.0000 C   0  0  0  0  0  0  0  0  0  0  0  0
    0.3375   -1.5292    0.0000 O   0  0  0  0  0  0  0  0  0  0  0  0
   -0.0458   -2.1667    0.0000 C   0  0  0  0  0  0  0  0  0  0  0  0
  2  8  1  0  0  0  0
  3  1  1  0  0  0  0
  4  1  1  0  0  0  0
  5 12  1  0  0  0  0
  6  5  1  0  0  0  0
  7  6  1  0  0  0  0
  8  9  1  0  0  0  0
  9  7  2  0  0  0  0
 10  1  1  0  0  0  0
 11  2  1  0  0  0  0
 12 23  1  0  0  0  0
 13  2  2  0  0  0  0
 14  7  1  0  0  0  0
 15  5  2  0  0  0  0
 16  3  1  0  0  0  0
 17  4  1  0  0  0  0
 18  3  2  0  0  0  0
 19  4  2  0  0  0  0
 20 25  1  0  0  0  0
 21 10  2  0  0  0  0
 22 10  1  0  0  0  0
 23 22  2  0  0  0  0
 24 21  1  0  0  0  0
 25 14  2  0  0  0  0
 26 14  1  0  0  0  0
 27 26  1  0  0  0  0
 17 16  1  0  0  0  0
 24 12  2  0  0  0  0
  8 20  2  0  0  0  0
M  CHG  2   2   1  11  -1
M  END
> <IDNUMBER>
F0327-0387

> <Chemical_Name>
4-(2,5-dioxopyrrolidin-1-yl)-N-(2-methoxy-5-nitrophenyl)benzamide

> <CAS>
313405-97-9

> <PriceCoeff>
1.00

> <MW>
369.33

> <Description>
solid

> <FSP3>
0.17

> <clogP>
0.56

> <TPSA>
118.85

> <Acceptor>
6

> <Donor>
1

> <RotBonds>
5

> <HAC>
27

> <Collection>
General

$$$$
F0196-0181
  -ISIS-  06222321142D

 20 22  0  0  0  0  0  0  0  0999 V2000
   -0.6458   -0.9542    0.0000 C   0  0  0  0  0  0  0  0  0  0  0  0
   -1.3458   -0.5542    0.0000 C   0  0  0  0  0  0  0  0  0  0  0  0
    0.0542   -0.5542    0.0000 C   0  0  0  0  0  0  0  0  0  0  0  0
   -1.3458    0.2625    0.0000 C   0  0  0  0  0  0  0  0  0  0  0  0
    0.0542    0.2458    0.0000 C   0  0  0  0  0  0  0  0  0  0  0  0
   -2.0458   -0.9542    0.0000 C   0  0  0  0  0  0  0  0  0  0  0  0
   -0.6458    0.6625    0.0000 O   0  0  0  0  0  0  0  0  0  0  0  0
   -2.0458    0.6625    0.0000 C   0  0  0  0  0  0  0  0  0  0  0  0
   -2.7458   -0.5542    0.0000 C   0  0  0  0  0  0  0  0  0  0  0  0
    0.7542   -0.9542    0.0000 C   0  0  0  0  0  0  0  0  0  0  0  0
   -0.6458   -1.7792    0.0000 O   0  0  0  0  0  0  0  0  0  0  0  0
   -2.7458    0.2458    0.0000 C   0  0  0  0  0  0  0  0  0  0  0  0
    1.4542   -0.5542    0.0000 C   0  0  0  0  0  0  0  0  0  0  0  0
    0.7542   -1.7542    0.0000 C   0  0  0  0  0  0  0  0  0  0  0  0
   -2.0458   -1.7792    0.0000 O   0  0  0  0  0  0  0  0  0  0  0  0
    2.1542   -1.7542    0.0000 C   0  0  0  0  0  0  0  0  0  0  0  0
    1.4542   -2.1542    0.0000 C   0  0  0  0  0  0  0  0  0  0  0  0
    2.1542   -0.9542    0.0000 C   0  0  0  0  0  0  0  0  0  0  0  0
    2.8792   -2.1375    0.0000 Cl  0  0  0  0  0  0  0  0  0  0  0  0
   -3.4625    0.6458    0.0000 O   0  0  0  0  0  0  0  0  0  0  0  0
  2  1  1  0  0  0  0
  3  1  1  0  0  0  0
  4  2  2  0  0  0  0
  5  3  2  0  0  0  0
  6  2  1  0  0  0  0
  7  5  1  0  0  0  0
  8  4  1  0  0  0  0
  9  6  2  0  0  0  0
 10  3  1  0  0  0  0
 11  1  2  0  0  0  0
 12  9  1  0  0  0  0
 13 10  2  0  0  0  0
 14 10  1  0  0  0  0
 15  6  1  0  0  0  0
 16 17  1  0  0  0  0
 17 14  2  0  0  0  0
 18 13  1  0  0  0  0
 19 16  1  0  0  0  0
 20 12  1  0  0  0  0
  4  7  1  0  0  0  0
 18 16  2  0  0  0  0
  8 12  2  0  0  0  0
M  END
> <IDNUMBER>
F0196-0181

> <Chemical_Name>
3-(4-chlorophenyl)-5,7-dihydroxy-4H-chromen-4-one

> <CAS>
15584-08-4

> <PriceCoeff>
1.00

> <MW>
288.68

> <Description>
solid

> <FSP3>
0.00

> <clogP>
3.78

> <TPSA>
66.76

> <Acceptor>
4

> <Donor>
2

> <RotBonds>
1

> <HAC>
20

> <Collection>
General

> <Reference_compound>
CHEMBL44

> <Similarity>
0.9210

$$$$
F3325-0119
  -ISIS-  06222321152D

 28 31  0  0  0  0  0  0  0  0999 V2000
    4.8792   -1.3250    0.0000 N   0  0  3  0  0  0  0  0  0  0  0  0
    5.3667   -1.9917    0.0000 C   0  0  0  0  0  0  0  0  0  0  0  0
    5.3625   -0.6542    0.0000 C   0  0  0  0  0  0  0  0  0  0  0  0
    6.1542   -1.7292    0.0000 C   0  0  3  0  0  0  0  0  0  0  0  0
    6.1417   -0.9042    0.0000 C   0  0  0  0  0  0  0  0  0  0  0  0
    6.8167   -2.2125    0.0000 N   0  0  3  0  0  0  0  0  0  0  0  0
    4.0542   -1.3292    0.0000 C   0  0  0  0  0  0  0  0  0  0  0  0
    8.1542   -3.1750    0.0000 N   0  0  3  0  0  0  0  0  0  0  0  0
    5.1167   -2.7750    0.0000 O   0  0  0  0  0  0  0  0  0  0  0  0
    5.1042    0.1333    0.0000 O   0  0  0  0  0  0  0  0  0  0  0  0
    7.5667   -1.8667    0.0000 C   0  0  0  0  0  0  0  0  0  0  0  0
    6.7292   -3.0292    0.0000 C   0  0  0  0  0  0  0  0  0  0  0  0
    3.6417   -0.6167    0.0000 C   0  0  0  0  0  0  0  0  0  0  0  0
    3.6500   -2.0417    0.0000 C   0  0  0  0  0  0  0  0  0  0  0  0
    8.8250   -3.6542    0.0000 C   0  0  0  0  0  0  0  0  0  0  0  0
    8.2375   -2.3542    0.0000 C   0  0  0  0  0  0  0  0  0  0  0  0
    7.4000   -3.5125    0.0000 C   0  0  0  0  0  0  0  0  0  0  0  0
    2.8292   -2.0542    0.0000 C   0  0  0  0  0  0  0  0  0  0  0  0
    2.8167   -0.6250    0.0000 C   0  0  0  0  0  0  0  0  0  0  0  0
    2.4042   -1.3417    0.0000 C   0  0  0  0  0  0  0  0  0  0  0  0
    9.5750   -3.3250    0.0000 C   0  0  0  0  0  0  0  0  0  0  0  0
    1.5792   -1.3417    0.0000 C   0  0  0  0  0  0  0  0  0  0  0  0
   10.2417   -3.8042    0.0000 C   0  0  0  0  0  0  0  0  0  0  0  0
    9.6542   -2.5042    0.0000 C   0  0  0  0  0  0  0  0  0  0  0  0
    1.1667   -0.6292    0.0000 C   0  0  0  0  0  0  0  0  0  0  0  0
   10.9917   -3.4667    0.0000 C   0  0  0  0  0  0  0  0  0  0  0  0
   10.4042   -2.1667    0.0000 C   0  0  0  0  0  0  0  0  0  0  0  0
   11.0792   -2.6500    0.0000 C   0  0  0  0  0  0  0  0  0  0  0  0
  2  1  1  0  0  0  0
  3  1  1  0  0  0  0
  4  2  1  0  0  0  0
  5  3  1  0  0  0  0
  6  4  1  0  0  0  0
  7  1  1  0  0  0  0
  8 17  1  0  0  0  0
  9  2  2  0  0  0  0
 10  3  2  0  0  0  0
 11  6  1  0  0  0  0
 12  6  1  0  0  0  0
 13  7  2  0  0  0  0
 14  7  1  0  0  0  0
 15  8  1  0  0  0  0
 16 11  1  0  0  0  0
 17 12  1  0  0  0  0
 18 14  2  0  0  0  0
 19 13  1  0  0  0  0
 20 18  1  0  0  0  0
 21 15  1  0  0  0  0
 22 20  1  0  0  0  0
 23 21  2  0  0  0  0
 24 21  1  0  0  0  0
 25 22  1  0  0  0  0
 26 23  1  0  0  0  0
 27 24  2  0  0  0  0
 28 27  1  0  0  0  0
  4  5  1  0  0  0  0
 19 20  2  0  0  0  0
 16  8  1  0  0  0  0
 26 28  2  0  0  0  0
M  END
> <IDNUMBER>
F3325-0119

> <Chemical_Name>
3-(4-benzylpiperazin-1-yl)-1-(4-ethylphenyl)pyrrolidine-2,5-dione

> <CAS>
924873-70-1

> <PriceCoeff>
1.00

> <MW>
377.48

> <Description>
solid

> <FSP3>
0.39

> <clogP>
4.46

> <TPSA>
43.86

> <Acceptor>
4

> <Donor>
2

> <RotBonds>
5

> <HAC>
28

> <Collection>
General

$$$$
F1199-0131
  -ISIS-  06222321442D

 29 32  0  0  0  0  0  0  0  0999 V2000
   -1.3583   -0.5917    0.0000 N   0  0  3  0  0  0  0  0  0  0  0  0
   -0.6875   -0.1042    0.0000 C   0  0  0  0  0  0  0  0  0  0  0  0
   -1.1000   -1.3875    0.0000 C   0  0  0  0  0  0  0  0  0  0  0  0
   -0.2750   -1.3875    0.0000 C   0  0  3  0  0  0  0  0  0  0  0  0
   -0.0208   -0.5917    0.0000 C   0  0  0  0  0  0  0  0  0  0  0  0
   -2.1458   -0.3375    0.0000 C   0  0  0  0  0  0  0  0  0  0  0  0
    3.5042   -1.7125    0.0000 N   0  0  3  0  0  0  0  0  0  0  0  0
    0.2167   -2.0542    0.0000 N   0  0  0  0  0  0  0  0  0  0  0  0
   -0.6875    0.7208    0.0000 O   0  0  0  0  0  0  0  0  0  0  0  0
    2.6875   -1.7917    0.0000 C   0  0  0  0  0  0  0  0  0  0  0  0
   -1.5958   -2.0542    0.0000 O   0  0  0  0  0  0  0  0  0  0  0  0
   -2.7583   -0.8917    0.0000 C   0  0  0  0  0  0  0  0  0  0  0  0
    5.1542   -1.5417    0.0000 O   0  0  0  0  0  0  0  0  0  0  0  0
    2.1917   -1.1250    0.0000 C   0  0  0  0  0  0  0  0  0  0  0  0
    2.3417   -2.5542    0.0000 C   0  0  0  0  0  0  0  0  0  0  0  0
    1.0417   -1.9667    0.0000 C   0  0  0  0  0  0  0  0  0  0  0  0
    1.3667   -1.2125    0.0000 C   0  0  0  0  0  0  0  0  0  0  0  0
    1.5167   -2.6417    0.0000 C   0  0  0  0  0  0  0  0  0  0  0  0
   -2.5833   -1.7042    0.0000 O   0  0  0  0  0  0  0  0  0  0  0  0
    3.8375   -0.9542    0.0000 C   0  0  0  0  0  0  0  0  0  0  0  0
    3.9917   -2.3875    0.0000 C   0  0  0  0  0  0  0  0  0  0  0  0
   -2.3125    0.4708    0.0000 C   0  0  0  0  0  0  0  0  0  0  0  0
    4.8125   -2.3042    0.0000 C   0  0  0  0  0  0  0  0  0  0  0  0
    4.6667   -0.8667    0.0000 C   0  0  0  0  0  0  0  0  0  0  0  0
   -3.5458   -0.6417    0.0000 C   0  0  0  0  0  0  0  0  0  0  0  0
   -3.1875   -2.2542    0.0000 C   0  0  0  0  0  0  0  0  0  0  0  0
   -3.1000    0.7250    0.0000 C   0  0  0  0  0  0  0  0  0  0  0  0
   -3.0125   -3.0625    0.0000 C   0  0  0  0  0  0  0  0  0  0  0  0
   -3.7208    0.1708    0.0000 C   0  0  0  0  0  0  0  0  0  0  0  0
  2  1  1  0  0  0  0
  3  1  1  0  0  0  0
  4  3  1  0  0  0  0
  5  2  1  0  0  0  0
  6  1  1  0  0  0  0
  7 10  1  0  0  0  0
  8  4  1  0  0  0  0
  9  2  2  0  0  0  0
 10 15  2  0  0  0  0
 11  3  2  0  0  0  0
 12  6  1  0  0  0  0
 13 23  1  0  0  0  0
 14 17  2  0  0  0  0
 15 18  1  0  0  0  0
 16  8  1  0  0  0  0
 17 16  1  0  0  0  0
 18 16  2  0  0  0  0
 19 12  1  0  0  0  0
 20  7  1  0  0  0  0
 21  7  1  0  0  0  0
 22  6  2  0  0  0  0
 23 21  1  0  0  0  0
 24 20  1  0  0  0  0
 25 12  2  0  0  0  0
 26 19  1  0  0  0  0
 27 22  1  0  0  0  0
 28 26  1  0  0  0  0
 29 27  2  0  0  0  0
  5  4  1  0  0  0  0
 29 25  1  0  0  0  0
 14 10  1  0  0  0  0
 13 24  1  0  0  0  0
M  END
> <IDNUMBER>
F1199-0131

> <Chemical_Name>
1-(2-ethoxyphenyl)-3-{[4-(morpholin-4-yl)phenyl]amino}pyrrolidine-2,5-dione

> <CAS>
474009-71-7

> <PriceCoeff>
1.00

> <MW>
395.45

> <Description>
solid

> <FSP3>
0.36

> <clogP>
2.56

> <TPSA>
71.11

> <Acceptor>
6

> <Donor>
2

> <RotBonds>
6

> <HAC>
29

> <Collection>
General

$$$$
F1190-0477
  -ISIS-  06222321452D

 26 28  0  0  0  0  0  0  0  0999 V2000
    0.5167    1.6125    0.0000 C   0  0  0  0  0  0  0  0  0  0  0  0
   -0.2000    1.2083    0.0000 C   0  0  0  0  0  0  0  0  0  0  0  0
    0.5167    2.4458    0.0000 C   0  0  0  0  0  0  0  0  0  0  0  0
   -0.9125    1.6208    0.0000 C   0  0  0  0  0  0  0  0  0  0  0  0
   -0.9083    2.4458    0.0000 C   0  0  0  0  0  0  0  0  0  0  0  0
   -0.1958    2.8625    0.0000 O   0  0  0  0  0  0  0  0  0  0  0  0
    1.2292    1.2000    0.0000 C   0  0  0  0  0  0  0  0  0  0  0  0
   -1.6333    2.8625    0.0000 C   0  0  0  0  0  0  0  0  0  0  0  0
    1.9417    1.6125    0.0000 C   0  0  0  0  0  0  0  0  0  0  0  0
   -1.6333    1.2083    0.0000 C   0  0  0  0  0  0  0  0  0  0  0  0
    2.6542    1.1958    0.0000 C   0  0  0  0  0  0  0  0  0  0  0  0
   -0.2083    0.3833    0.0000 O   0  0  0  0  0  0  0  0  0  0  0  0
   -3.7708    2.4583    0.0000 C   0  0  0  0  0  0  0  0  0  0  0  0
   -2.3458    2.4583    0.0000 C   0  0  0  0  0  0  0  0  0  0  0  0
    1.2167    0.3833    0.0000 C   0  0  0  0  0  0  0  0  0  0  0  0
    2.6542    0.3708    0.0000 C   0  0  0  0  0  0  0  0  0  0  0  0
   -3.0583    2.8625    0.0000 O   0  0  0  0  0  0  0  0  0  0  0  0
   -3.7708    1.6250    0.0000 O   0  0  0  0  0  0  0  0  0  0  0  0
    1.9292   -0.0292    0.0000 C   0  0  0  0  0  0  0  0  0  0  0  0
   -2.3458    1.6208    0.0000 C   0  0  0  0  0  0  0  0  0  0  0  0
    1.2375    2.8500    0.0000 C   0  0  0  0  0  0  0  0  0  0  0  0
    3.3667    1.6083    0.0000 O   0  0  0  0  0  0  0  0  0  0  0  0
    3.3625   -0.0417    0.0000 O   0  0  0  0  0  0  0  0  0  0  0  0
   -4.4875    2.8625    0.0000 C   0  0  0  0  0  0  0  0  0  0  0  0
    3.3750    2.4333    0.0000 C   0  0  0  0  0  0  0  0  0  0  0  0
    4.0792    0.3708    0.0000 C   0  0  0  0  0  0  0  0  0  0  0  0
  2  1  1  0  0  0  0
  3  1  2  0  0  0  0
  4  2  1  0  0  0  0
  5  6  1  0  0  0  0
  6  3  1  0  0  0  0
  7  1  1  0  0  0  0
  8  5  2  0  0  0  0
  9  7  2  0  0  0  0
 10  4  2  0  0  0  0
 11  9  1  0  0  0  0
 12  2  2  0  0  0  0
 13 17  1  0  0  0  0
 14  8  1  0  0  0  0
 15  7  1  0  0  0  0
 16 19  1  0  0  0  0
 17 14  1  0  0  0  0
 18 13  2  0  0  0  0
 19 15  2  0  0  0  0
 20 10  1  0  0  0  0
 21  3  1  0  0  0  0
 22 11  1  0  0  0  0
 23 16  1  0  0  0  0
 24 13  1  0  0  0  0
 25 22  1  0  0  0  0
 26 23  1  0  0  0  0
  4  5  1  0  0  0  0
 16 11  2  0  0  0  0
 14 20  2  0  0  0  0
M  END
> <IDNUMBER>
F1190-0477

> <Chemical_Name>
3-(3,4-dimethoxyphenyl)-2-methyl-4-oxo-4H-chromen-7-yl acetate

> <CAS>
100064-10-6

> <PriceCoeff>
1.00

> <MW>
354.35

> <Description>
solid

> <FSP3>
0.20

> <clogP>
2.38

> <TPSA>
71.06

> <Acceptor>
6

> <Donor>
0

> <RotBonds>
5

> <HAC>
26

> <Collection>
General

> <Reference_compound>
CHEMBL455048

> <Similarity>
0.8020

$$$$
F1457-0030
  -ISIS-  06222321452D

 28 30  0  0  0  0  0  0  0  0999 V2000
    3.6542   -1.8167    0.0000 N   0  0  3  0  0  0  0  0  0  0  0  0
    4.2125    0.3625    0.0000 C   0  0  0  0  0  0  0  0  0  0  0  0
    5.5542   -3.0292    0.0000 C   0  0  0  0  0  0  0  0  0  0  0  0
    7.3000   -1.5917    0.0000 C   0  0  3  0  0  0  0  0  0  0  0  0
    6.4750    0.5000    0.0000 C   0  0  0  0  0  0  0  0  0  0  0  0
   10.0750   -4.3292    0.0000 C   0  0  0  0  0  0  0  0  0  0  0  0
   12.2375   -4.8875    0.0000 C   0  0  0  0  0  0  0  0  0  0  0  0
    9.4625   -2.1625    0.0000 S   0  0  0  0  0  0  0  0  0  0  0  0
    1.5792   -2.6417    0.0000 C   0  0  0  0  0  0  0  0  0  0  0  0
   13.8125   -3.2792    0.0000 C   0  0  0  0  0  0  0  0  0  0  0  0
    8.4792   -5.9292    0.0000 N   0  0  0  0  0  0  0  0  0  0  0  0
    2.7667    2.0958    0.0000 O   0  0  0  0  0  0  0  0  0  0  0  0
    5.6792   -5.2750    0.0000 O   0  0  0  0  0  0  0  0  0  0  0  0
   -0.1625   -1.2667    0.0000 C   0  0  0  0  0  0  0  0  0  0  0  0
   13.2000   -1.1042    0.0000 O   0  0  0  0  0  0  0  0  0  0  0  0
   16.0000   -3.8375    0.0000 O   0  0  0  0  0  0  0  0  0  0  0  0
   12.8500   -7.0542    0.0000 C   0  0  0  0  0  0  0  0  0  0  0  0
    0.1667    0.9583    0.0000 O   0  0  0  0  0  0  0  0  0  0  0  0
    1.2792   -4.8542    0.0000 C   0  0  0  0  0  0  0  0  0  0  0  0
    9.0792   -8.1042    0.0000 C   0  0  0  0  0  0  0  0  0  0  0  0
   -2.2333   -2.0917    0.0000 C   0  0  0  0  0  0  0  0  0  0  0  0
   -1.7958    2.0833    0.0000 C   0  0  0  0  0  0  0  0  0  0  0  0
   11.2625   -8.6667    0.0000 C   0  0  0  0  0  0  0  0  0  0  0  0
   -1.7958    4.3125    0.0000 C   0  0  0  0  0  0  0  0  0  0  0  0
   -3.7333    5.4292    0.0000 C   0  0  0  0  0  0  0  0  0  0  0  0
   -0.7833   -5.6917    0.0000 C   0  0  0  0  0  0  0  0  0  0  0  0
   -3.7333    7.6750    0.0000 C   0  0  0  0  0  0  0  0  0  0  0  0
   -2.5625   -4.3000    0.0000 C   0  0  0  0  0  0  0  0  0  0  0  0
  2  1  1  0  0  0  0
  3  1  1  0  0  0  0
  4  3  1  0  0  0  0
  5  2  1  0  0  0  0
  6  8  1  0  0  0  0
  7  6  1  0  0  0  0
  8  4  1  0  0  0  0
  9  1  1  0  0  0  0
 10  7  1  0  0  0  0
 11  6  2  0  0  0  0
 12  2  2  0  0  0  0
 13  3  2  0  0  0  0
 14  9  2  0  0  0  0
 15 10  2  0  0  0  0
 16 10  1  0  0  0  0
 17  7  2  0  0  0  0
 18 14  1  0  0  0  0
 19  9  1  0  0  0  0
 20 11  1  0  0  0  0
 21 14  1  0  0  0  0
 22 18  1  0  0  0  0
 23 20  2  0  0  0  0
 24 22  1  0  0  0  0
 25 24  1  0  0  0  0
 26 19  2  0  0  0  0
 27 25  1  0  0  0  0
 28 26  1  0  0  0  0
  4  5  1  0  0  0  0
 21 28  2  0  0  0  0
 17 23  1  0  0  0  0
M  END
> <IDNUMBER>
F1457-0030

> <Chemical_Name>
2-{[1-(2-butoxyphenyl)-2,5-dioxopyrrolidin-3-yl]sulfanyl}pyridine-3-carboxylic acid

> <CAS>
643746-43-4

> <PriceCoeff>
1.00

> <MW>
400.45

> <Description>
solid

> <FSP3>
0.30

> <clogP>
3.18

> <TPSA>
122.10

> <Acceptor>
6

> <Donor>
1

> <RotBonds>
8

> <HAC>
28

> <Collection>
General

$$$$
F2545-0219
  -ISIS-  06222321462D

 21 22  0  0  0  0  0  0  0  0999 V2000
   -3.9125    1.2625    0.0000 S   0  0  3  0  0  0  0  0  0  0  0  0
    0.9292    3.0625    0.0000 N   0  3  0  0  0  0  0  0  0  0  0  0
    0.1625    3.3708    0.0000 C   0  0  0  0  0  0  0  0  0  0  0  0
   -1.9125    2.6625    0.0000 C   0  0  0  0  0  0  0  0  0  0  0  0
   -0.4958    2.8625    0.0000 C   0  0  0  0  0  0  0  0  0  0  0  0
   -3.2625    1.6375    0.0000 C   0  0  0  0  0  0  0  0  0  0  0  0
   -1.2583    3.1708    0.0000 C   0  0  0  0  0  0  0  0  0  0  0  0
   -2.6833    2.9833    0.0000 N   0  0  3  0  0  0  0  0  0  0  0  0
    0.0375    4.1917    0.0000 C   0  0  0  0  0  0  0  0  0  0  0  0
   -3.3833    0.7333    0.0000 O   0  0  0  0  0  0  0  0  0  0  0  0
   -4.5625    0.8958    0.0000 O   0  0  0  0  0  0  0  0  0  0  0  0
    1.0500    2.2500    0.0000 O   0  5  0  0  0  0  0  0  0  0  0  0
    1.5792    3.5833    0.0000 O   0  0  0  0  0  0  0  0  0  0  0  0
   -3.2625    2.3958    0.0000 C   0  0  3  0  0  0  0  0  0  0  0  0
   -4.5583    1.6375    0.0000 C   0  0  0  0  0  0  0  0  0  0  0  0
   -1.8083    1.8458    0.0000 O   0  0  0  0  0  0  0  0  0  0  0  0
   -1.3833    3.9875    0.0000 C   0  0  0  0  0  0  0  0  0  0  0  0
   -0.7333    4.5000    0.0000 C   0  0  0  0  0  0  0  0  0  0  0  0
   -4.5583    2.3958    0.0000 C   0  0  0  0  0  0  0  0  0  0  0  0
    0.6792    4.7000    0.0000 Cl  0  0  0  0  0  0  0  0  0  0  0  0
   -2.8458    3.7833    0.0000 H   0  0  0  0  0  0  0  0  0  0  0  0
  2  3  1  0  0  0  0
  3  5  2  0  0  0  0
  4  8  1  0  0  0  0
  5  7  1  0  0  0  0
  6  1  1  0  0  0  0
  7  4  1  0  0  0  0
  8 14  1  0  0  0  0
  9 18  2  0  0  0  0
 10  1  2  0  0  0  0
 11  1  2  0  0  0  0
 12  2  1  0  0  0  0
 13  2  2  0  0  0  0
 14  6  1  0  0  0  0
 15  1  1  0  0  0  0
 16  4  2  0  0  0  0
 17  7  2  0  0  0  0
 18 17  1  0  0  0  0
 19 15  1  0  0  0  0
 20  9  1  0  0  0  0
 21  8  1  0  0  0  0
 14 19  1  0  0  0  0
  3  9  1  0  0  0  0
M  CHG  2   2   1  12  -1
M  END
> <IDNUMBER>
F2545-0219

> <Chemical_Name>
4-chloro-N-(1,1-dioxo-1lambda6-thiolan-3-yl)-3-nitrobenzamide

> <CAS>
303018-90-8

> <PriceCoeff>
1.00

> <MW>
318.73

> <Description>
solid

> <FSP3>
0.36

> <clogP>
0.50

> <TPSA>
114.76

> <Acceptor>
5

> <Donor>
1

> <RotBonds>
3

> <HAC>
20

> <Collection>
General

$$$$
F3139-0449
  -ISIS-  06222321462D

 24 26  0  0  0  0  0  0  0  0999 V2000
    4.4417   -2.1417    0.0000 C   0  0  0  0  0  0  0  0  0  0  0  0
    3.7292   -2.5542    0.0000 C   0  0  0  0  0  0  0  0  0  0  0  0
    3.0167   -2.1417    0.0000 C   0  0  0  0  0  0  0  0  0  0  0  0
    4.4417   -1.3167    0.0000 C   0  0  0  0  0  0  0  0  0  0  0  0
    3.0167   -1.3167    0.0000 C   0  0  0  0  0  0  0  0  0  0  0  0
    3.7292   -0.9042    0.0000 O   0  0  0  0  0  0  0  0  0  0  0  0
    5.1542   -2.5542    0.0000 C   0  0  0  0  0  0  0  0  0  0  0  0
    2.3042   -2.5542    0.0000 C   0  0  0  0  0  0  0  0  0  0  0  0
    2.3042   -0.9042    0.0000 C   0  0  0  0  0  0  0  0  0  0  0  0
    3.7292   -3.3792    0.0000 O   0  0  0  0  0  0  0  0  0  0  0  0
    5.1542   -3.3792    0.0000 C   0  0  0  0  0  0  0  0  0  0  0  0
   -0.5625   -0.9125    0.0000 C   0  0  0  0  0  0  0  0  0  0  0  0
    1.5875   -1.3167    0.0000 C   0  0  0  0  0  0  0  0  0  0  0  0
   -0.5708   -0.0875    0.0000 C   0  0  0  0  0  0  0  0  0  0  0  0
    0.8667   -0.9042    0.0000 O   0  0  0  0  0  0  0  0  0  0  0  0
    1.5875   -2.1417    0.0000 C   0  0  0  0  0  0  0  0  0  0  0  0
    0.1542   -1.3167    0.0000 C   0  0  0  0  0  0  0  0  0  0  0  0
    4.4500   -3.7917    0.0000 O   0  0  0  0  0  0  0  0  0  0  0  0
    5.8792   -2.1417    0.0000 C   0  0  0  0  0  0  0  0  0  0  0  0
   -1.2750   -1.3292    0.0000 C   0  0  0  0  0  0  0  0  0  0  0  0
    5.8667   -3.7917    0.0000 C   0  0  0  0  0  0  0  0  0  0  0  0
    4.4417   -4.6167    0.0000 C   0  0  0  0  0  0  0  0  0  0  0  0
    6.5917   -2.5542    0.0000 C   0  0  0  0  0  0  0  0  0  0  0  0
    6.5917   -3.3792    0.0000 C   0  0  0  0  0  0  0  0  0  0  0  0
  2  1  1  0  0  0  0
  3  2  1  0  0  0  0
  4  1  2  0  0  0  0
  5  6  1  0  0  0  0
  6  4  1  0  0  0  0
  7  1  1  0  0  0  0
  8  3  2  0  0  0  0
  9  5  2  0  0  0  0
 10  2  2  0  0  0  0
 11  7  2  0  0  0  0
 12 17  1  0  0  0  0
 13  9  1  0  0  0  0
 14 12  2  0  0  0  0
 15 13  1  0  0  0  0
 16  8  1  0  0  0  0
 17 15  1  0  0  0  0
 18 11  1  0  0  0  0
 19  7  1  0  0  0  0
 20 12  1  0  0  0  0
 21 11  1  0  0  0  0
 22 18  1  0  0  0  0
 23 19  2  0  0  0  0
 24 23  1  0  0  0  0
  5  3  1  0  0  0  0
 21 24  2  0  0  0  0
 13 16  2  0  0  0  0
M  END
> <IDNUMBER>
F3139-0449

> <Chemical_Name>
3-(2-methoxyphenyl)-7-[(2-methylprop-2-en-1-yl)oxy]-4H-chromen-4-one

> <CAS>
610762-25-9

> <PriceCoeff>
1.00

> <MW>
322.35

> <Description>
solid

> <FSP3>
0.15

> <clogP>
3.63

> <TPSA>
44.76

> <Acceptor>
4

> <Donor>
0

> <RotBonds>
5

> <HAC>
24

> <Collection>
General

> <Reference_compound>
CHEMBL44

> <Similarity>
0.8390

$$$$
F3139-0860
  -ISIS-  06222321462D

 20 22  0  0  0  0  0  0  0  0999 V2000
    2.1542   -1.7250    0.0000 C   0  0  0  0  0  0  0  0  0  0  0  0
    1.4375   -2.1375    0.0000 C   0  0  0  0  0  0  0  0  0  0  0  0
    0.7250   -1.7292    0.0000 C   0  0  0  0  0  0  0  0  0  0  0  0
    2.1500   -0.8875    0.0000 C   0  0  0  0  0  0  0  0  0  0  0  0
    0.7125   -0.9000    0.0000 C   0  0  0  0  0  0  0  0  0  0  0  0
    1.4292   -0.4750    0.0000 O   0  0  0  0  0  0  0  0  0  0  0  0
    2.8667   -2.1250    0.0000 C   0  0  0  0  0  0  0  0  0  0  0  0
    0.0000   -2.1375    0.0000 C   0  0  0  0  0  0  0  0  0  0  0  0
    0.0042   -0.4875    0.0000 C   0  0  0  0  0  0  0  0  0  0  0  0
    1.4417   -2.9625    0.0000 O   0  0  0  0  0  0  0  0  0  0  0  0
    2.8750   -2.9542    0.0000 C   0  0  0  0  0  0  0  0  0  0  0  0
    3.5750   -1.7125    0.0000 C   0  0  0  0  0  0  0  0  0  0  0  0
   -0.7083   -0.9000    0.0000 C   0  0  0  0  0  0  0  0  0  0  0  0
   -0.7083   -1.7250    0.0000 C   0  0  0  0  0  0  0  0  0  0  0  0
    4.3000   -2.9500    0.0000 C   0  0  0  0  0  0  0  0  0  0  0  0
    3.5875   -3.3625    0.0000 C   0  0  0  0  0  0  0  0  0  0  0  0
    4.2917   -2.1167    0.0000 C   0  0  0  0  0  0  0  0  0  0  0  0
    5.0167   -3.3542    0.0000 Cl  0  0  0  0  0  0  0  0  0  0  0  0
   -1.4208   -0.4875    0.0000 O   0  0  0  0  0  0  0  0  0  0  0  0
   -2.1333   -0.8917    0.0000 C   0  0  0  0  0  0  0  0  0  0  0  0
  2  1  1  0  0  0  0
  3  2  1  0  0  0  0
  4  1  2  0  0  0  0
  5  6  1  0  0  0  0
  6  4  1  0  0  0  0
  7  1  1  0  0  0  0
  8  3  2  0  0  0  0
  9  5  2  0  0  0  0
 10  2  2  0  0  0  0
 11  7  2  0  0  0  0
 12  7  1  0  0  0  0
 13  9  1  0  0  0  0
 14  8  1  0  0  0  0
 15 17  1  0  0  0  0
 16 11  1  0  0  0  0
 17 12  2  0  0  0  0
 18 15  1  0  0  0  0
 19 13  1  0  0  0  0
 20 19  1  0  0  0  0
 16 15  2  0  0  0  0
  5  3  1  0  0  0  0
 13 14  2  0  0  0  0
M  END
> <IDNUMBER>
F3139-0860

> <Chemical_Name>
3-(4-chlorophenyl)-7-methoxy-4H-chromen-4-one

> <CAS>
109697-82-7

> <PriceCoeff>
1.00

> <MW>
286.71

> <Description>
solid

> <FSP3>
0.06

> <clogP>
3.80

> <TPSA>
35.53

> <Acceptor>
3

> <Donor>
0

> <RotBonds>
2

> <HAC>
20

> <Collection>
General

> <Reference_compound>
CHEMBL44

> <Similarity>
0.8930

$$$$
F0081-0015
  -ISIS-  06222321142D

 13 13  0  0  0  0  0  0  0  0999 V2000
   -0.6958   -1.6000    0.0000 C   0  0  0  0  0  0  0  0  0  0  0  0
   -1.6958   -1.6000    0.0000 N   0  0  0  0  0  0  0  0  0  0  0  0
   -0.1708   -2.4542    0.0000 S   0  0  0  0  0  0  0  0  0  0  0  0
   -0.1958   -0.7042    0.0000 N   0  0  0  0  0  0  0  0  0  0  0  0
   -2.2125   -0.7292    0.0000 C   0  0  0  0  0  0  0  0  0  0  0  0
   -0.6958    1.8833    0.0000 O   0  0  0  0  0  0  0  0  0  0  0  0
   -0.7125    0.1500    0.0000 C   0  0  0  0  0  0  0  0  0  0  0  0
   -0.2000    0.9958    0.0000 C   0  0  0  0  0  0  0  0  0  0  0  0
   -1.7333    0.1000    0.0000 C   0  0  0  0  0  0  0  0  0  0  0  0
   -3.2125   -0.7500    0.0000 C   0  0  0  0  0  0  0  0  0  0  0  0
   -3.7000    0.0958    0.0000 C   0  0  0  0  0  0  0  0  0  0  0  0
   -2.2458    0.9958    0.0000 C   0  0  0  0  0  0  0  0  0  0  0  0
   -3.2333    0.9708    0.0000 C   0  0  0  0  0  0  0  0  0  0  0  0
  2  1  1  0  0  0  0
  3  1  2  0  0  0  0
  4  1  1  0  0  0  0
  5  2  1  0  0  0  0
  6  8  1  0  0  0  0
  7  4  1  0  0  0  0
  8  7  1  0  0  0  0
  9  5  1  0  0  0  0
 10  5  2  0  0  0  0
 11 10  1  0  0  0  0
 12  9  2  0  0  0  0
 13 11  2  0  0  0  0
 13 12  1  0  0  0  0
M  END
> <IDNUMBER>
F0081-0015

> <Chemical_Name>
3-(2-hydroxyethyl)-1-phenylthiourea

> <CAS>
102-12-5

> <PriceCoeff>
1.00

> <MW>
196.27

> <Description>
solid

> <FSP3>
0.22

> <clogP>
0.31

> <TPSA>
76.38

> <Acceptor>
2

> <Donor>
3

> <RotBonds>
3

> <HAC>
13

> <Collection>
General

> <Reference_compound>
CHEMBL311337

> <Similarity>
0.8160

$$$$
F1716-0347
  -ISIS-  06222321452D

 10 10  0  0  0  0  0  0  0  0999 V2000
    2.9542   -2.7917    0.0000 C   0  0  0  0  0  0  0  0  0  0  0  0
    3.6667   -3.2042    0.0000 C   0  0  0  0  0  0  0  0  0  0  0  0
    2.9542   -1.9667    0.0000 C   0  0  0  0  0  0  0  0  0  0  0  0
    2.2375   -1.5542    0.0000 N   0  0  0  0  0  0  0  0  0  0  0  0
    4.3875   -2.7917    0.0000 O   0  0  0  0  0  0  0  0  0  0  0  0
    3.6667   -1.5500    0.0000 S   0  0  0  0  0  0  0  0  0  0  0  0
    3.6750   -4.0292    0.0000 O   0  0  0  0  0  0  0  0  0  0  0  0
    2.2375   -3.2042    0.0000 C   0  0  0  0  0  0  0  0  0  0  0  0
    1.5250   -1.9667    0.0000 C   0  0  0  0  0  0  0  0  0  0  0  0
    1.5250   -2.7917    0.0000 C   0  0  0  0  0  0  0  0  0  0  0  0
  2  1  1  0  0  0  0
  3  1  1  0  0  0  0
  4  3  2  0  0  0  0
  5  2  2  0  0  0  0
  6  3  1  0  0  0  0
  7  2  1  0  0  0  0
  8  1  2  0  0  0  0
  9 10  2  0  0  0  0
 10  8  1  0  0  0  0
  4  9  1  0  0  0  0
M  END
> <IDNUMBER>
F1716-0347

> <Chemical_Name>
2-sulfanylpyridine-3-carboxylic acid

> <CAS>
38521-46-9

> <PriceCoeff>
1.00

> <MW>
155.17

> <Description>
solid

> <FSP3>
0.00

> <clogP>
1.63

> <TPSA>
88.99

> <Acceptor>
3

> <Donor>
2

> <RotBonds>
1

> <HAC>
10

> <Collection>
General

> <Reference_compound>
CHEMBL1521174

> <Similarity>
1.0000

$$$$
F6374-0900
  -ISIS-  06222321462D

 27 29  0  0  0  0  0  0  0  0999 V2000
   -3.8708    3.8000    0.0000 S   0  0  3  0  0  0  0  0  0  0  0  0
   -6.0042    3.4458    0.0000 N   0  0  3  0  0  0  0  0  0  0  0  0
   -3.1583    4.2042    0.0000 N   0  0  3  0  0  0  0  0  0  0  0  0
   -0.2958    6.6667    0.0000 C   0  0  0  0  0  0  0  0  0  0  0  0
    0.4917    6.4042    0.0000 N   0  0  0  0  0  0  0  0  0  0  0  0
   -4.5917    3.4083    0.0000 C   0  0  0  0  0  0  0  0  0  0  0  0
   -6.0250    2.6208    0.0000 C   0  0  0  0  0  0  0  0  0  0  0  0
   -6.7042    3.8750    0.0000 C   0  0  0  0  0  0  0  0  0  0  0  0
   -0.2750    7.4917    0.0000 S   0  0  0  0  0  0  0  0  0  0  0  0
   -5.2833    3.8333    0.0000 C   0  0  0  0  0  0  0  0  0  0  0  0
    0.9750    7.0750    0.0000 C   0  0  0  0  0  0  0  0  0  0  0  0
    0.5125    7.7375    0.0000 C   0  0  0  0  0  0  0  0  0  0  0  0
   -3.4750    3.0833    0.0000 O   0  0  0  0  0  0  0  0  0  0  0  0
   -4.0708    4.6042    0.0000 O   0  0  0  0  0  0  0  0  0  0  0  0
   -1.0083    6.2667    0.0000 S   0  0  0  0  0  0  0  0  0  0  0  0
   -2.4500    3.8083    0.0000 C   0  0  0  0  0  0  0  0  0  0  0  0
   -3.1583    5.0292    0.0000 C   0  0  0  0  0  0  0  0  0  0  0  0
   -5.3208    2.1875    0.0000 O   0  0  0  0  0  0  0  0  0  0  0  0
   -6.6875    4.6917    0.0000 O   0  0  0  0  0  0  0  0  0  0  0  0
   -1.0125    5.4417    0.0000 C   0  0  0  0  0  0  0  0  0  0  0  0
   -1.7333    4.2167    0.0000 C   0  0  0  0  0  0  0  0  0  0  0  0
   -2.4458    5.4417    0.0000 C   0  0  0  0  0  0  0  0  0  0  0  0
   -1.7333    5.0333    0.0000 C   0  0  3  0  0  0  0  0  0  0  0  0
   -6.7417    2.2250    0.0000 C   0  0  0  0  0  0  0  0  0  0  0  0
   -7.4167    3.4792    0.0000 C   0  0  0  0  0  0  0  0  0  0  0  0
   -7.4417    2.6583    0.0000 C   0  0  0  0  0  0  0  0  0  0  0  0
    1.8042    7.0542    0.0000 C   0  0  0  0  0  0  0  0  0  0  0  0
  2 10  1  0  0  0  0
  3  1  1  0  0  0  0
  4 15  1  0  0  0  0
  5  4  2  0  0  0  0
  6  1  1  0  0  0  0
  7  2  1  0  0  0  0
  8  2  1  0  0  0  0
  9  4  1  0  0  0  0
 10  6  1  0  0  0  0
 11  5  1  0  0  0  0
 12  9  1  0  0  0  0
 13  1  2  0  0  0  0
 14  1  2  0  0  0  0
 15 20  1  0  0  0  0
 16  3  1  0  0  0  0
 17  3  1  0  0  0  0
 18  7  2  0  0  0  0
 19  8  2  0  0  0  0
 20 23  1  0  0  0  0
 21 16  1  0  0  0  0
 22 17  1  0  0  0  0
 23 22  1  0  0  0  0
 24  7  1  0  0  0  0
 25  8  1  0  0  0  0
 26 25  1  0  0  0  0
 27 11  1  0  0  0  0
 21 23  1  0  0  0  0
 24 26  1  0  0  0  0
 12 11  2  0  0  0  0
M  END
> <IDNUMBER>
F6374-0900

> <Chemical_Name>
1-{2-[(4-{[(4-methyl-1,3-thiazol-2-yl)sulfanyl]methyl}piperidin-1-yl)sulfonyl]ethyl}piperidine-2,6-dione

> <CAS>
1428372-13-7

> <PriceCoeff>
1.00

> <MW>
431.59

> <Description>
oil

> <FSP3>
0.71

> <clogP>
2.53

> <TPSA>
149.57

> <Acceptor>
5

> <Donor>
0

> <RotBonds>
7

> <HAC>
27

> <Collection>
General

$$$$
F0196-1335
  -ISIS-  06222321142D

 27 30  0  0  0  0  0  0  0  0999 V2000
    1.3042    0.1625    0.0000 C   0  0  0  0  0  0  0  0  0  0  0  0
   -0.3125    0.1625    0.0000 C   0  0  0  0  0  0  0  0  0  0  0  0
    0.4792   -0.3167    0.0000 C   0  0  0  0  0  0  0  0  0  0  0  0
    1.3042    1.1208    0.0000 C   0  0  0  0  0  0  0  0  0  0  0  0
   -0.3125    1.1208    0.0000 C   0  0  0  0  0  0  0  0  0  0  0  0
    2.1167   -0.3000    0.0000 C   0  0  0  0  0  0  0  0  0  0  0  0
    0.4792    1.6000    0.0000 O   0  0  0  0  0  0  0  0  0  0  0  0
   -1.1458   -0.3167    0.0000 C   0  0  0  0  0  0  0  0  0  0  0  0
   -1.9708    1.1208    0.0000 C   0  0  0  0  0  0  0  0  0  0  0  0
   -1.1458    1.6000    0.0000 C   0  0  0  0  0  0  0  0  0  0  0  0
   -1.9708    0.1625    0.0000 C   0  0  0  0  0  0  0  0  0  0  0  0
    3.7792   -0.3667    0.0000 C   0  0  0  0  0  0  0  0  0  0  0  0
    2.9542    0.1708    0.0000 C   0  0  0  0  0  0  0  0  0  0  0  0
   -2.8000    1.6000    0.0000 O   0  0  0  0  0  0  0  0  0  0  0  0
   -2.7958    2.5458    0.0000 C   0  0  0  0  0  0  0  0  0  0  0  0
    3.7375   -1.3042    0.0000 C   0  0  0  0  0  0  0  0  0  0  0  0
    0.4792   -1.3042    0.0000 O   0  0  0  0  0  0  0  0  0  0  0  0
    4.6292    0.1000    0.0000 O   0  0  0  0  0  0  0  0  0  0  0  0
    2.0792   -1.2375    0.0000 C   0  0  0  0  0  0  0  0  0  0  0  0
    4.5375   -1.8292    0.0000 O   0  0  0  0  0  0  0  0  0  0  0  0
   -2.2000    2.9208    0.0000 O   0  0  0  0  0  0  0  0  0  0  0  0
    2.8667   -1.7542    0.0000 C   0  0  0  0  0  0  0  0  0  0  0  0
   -2.8000   -0.3500    0.0000 C   0  0  0  0  0  0  0  0  0  0  0  0
   -3.6208    3.0208    0.0000 C   0  0  0  0  0  0  0  0  0  0  0  0
    5.4500   -0.4500    0.0000 C   0  0  0  0  0  0  0  0  0  0  0  0
    5.4042   -1.3875    0.0000 C   0  0  0  0  0  0  0  0  0  0  0  0
   -3.6333    0.1333    0.0000 C   0  0  0  0  0  0  0  0  0  0  0  0
  2  3  1  0  0  0  0
  3  1  1  0  0  0  0
  4  1  2  0  0  0  0
  5  7  1  0  0  0  0
  6  1  1  0  0  0  0
  7  4  1  0  0  0  0
  8  2  1  0  0  0  0
  9 10  2  0  0  0  0
 10  5  1  0  0  0  0
 11  8  2  0  0  0  0
 12 13  1  0  0  0  0
 13  6  2  0  0  0  0
 14  9  1  0  0  0  0
 15 14  1  0  0  0  0
 16 22  1  0  0  0  0
 17  3  2  0  0  0  0
 18 12  1  0  0  0  0
 19  6  1  0  0  0  0
 20 16  1  0  0  0  0
 21 15  2  0  0  0  0
 22 19  2  0  0  0  0
 23 11  1  0  0  0  0
 24 15  1  0  0  0  0
 25 18  1  0  0  0  0
 26 20  1  0  0  0  0
 27 23  1  0  0  0  0
  5  2  2  0  0  0  0
 12 16  2  0  0  0  0
  9 11  1  0  0  0  0
 25 26  1  0  0  0  0
M  END
> <IDNUMBER>
F0196-1335

> <Chemical_Name>
3-(2,3-dihydro-1,4-benzodioxin-6-yl)-6-ethyl-4-oxo-4H-chromen-7-yl acetate

> <CAS>
170511-25-8

> <PriceCoeff>
1.00

> <MW>
366.36

> <Description>
solid

> <FSP3>
0.24

> <clogP>
3.48

> <TPSA>
71.06

> <Acceptor>
6

> <Donor>
0

> <RotBonds>
4

> <HAC>
27

> <Collection>
General

> <Reference_compound>
CHEMBL455048

> <Similarity>
0.8390

$$$$
F3099-7561
  -ISIS-  06222321152D

 21 22  0  0  0  0  0  0  0  0999 V2000
    0.8000   -3.1000    0.0000 N   0  3  0  0  0  0  0  0  0  0  0  0
    0.1167   -4.2167    0.0000 C   0  0  0  0  0  0  0  0  0  0  0  0
    0.1167   -3.4542    0.0000 C   0  0  0  0  0  0  0  0  0  0  0  0
    0.7667   -4.6000    0.0000 C   0  0  0  0  0  0  0  0  0  0  0  0
   -0.5000   -3.1000    0.0000 C   0  0  0  0  0  0  0  0  0  0  0  0
   -0.5000   -4.6000    0.0000 C   0  0  0  0  0  0  0  0  0  0  0  0
    0.7667   -2.3500    0.0000 O   0  5  0  0  0  0  0  0  0  0  0  0
    1.4500   -3.4542    0.0000 O   0  0  0  0  0  0  0  0  0  0  0  0
    1.4167   -4.2167    0.0000 O   0  0  0  0  0  0  0  0  0  0  0  0
    0.7667   -5.3500    0.0000 N   0  0  0  0  0  0  0  0  0  0  0  0
   -1.1500   -3.4542    0.0000 C   0  0  0  0  0  0  0  0  0  0  0  0
   -1.1500   -4.2167    0.0000 C   0  0  0  0  0  0  0  0  0  0  0  0
   -1.8000   -3.1000    0.0000 Cl  0  0  0  0  0  0  0  0  0  0  0  0
    1.4167   -5.7167    0.0000 C   0  0  0  0  0  0  0  0  0  0  0  0
    2.0667   -6.8500    0.0000 C   0  0  0  0  0  0  0  0  0  0  0  0
    1.4167   -6.4667    0.0000 C   0  0  0  0  0  0  0  0  0  0  0  0
    2.7167   -6.4667    0.0000 C   0  0  0  0  0  0  0  0  0  0  0  0
    2.0667   -7.6000    0.0000 C   0  0  0  0  0  0  0  0  0  0  0  0
    3.3667   -6.8500    0.0000 C   0  0  0  0  0  0  0  0  0  0  0  0
    2.7167   -7.9667    0.0000 C   0  0  0  0  0  0  0  0  0  0  0  0
    3.3667   -7.6000    0.0000 C   0  0  0  0  0  0  0  0  0  0  0  0
  2  3  1  0  0  0  0
  3  1  1  0  0  0  0
  4  2  1  0  0  0  0
  5  3  2  0  0  0  0
  6  2  2  0  0  0  0
  7  1  1  0  0  0  0
  8  1  2  0  0  0  0
  9  4  2  0  0  0  0
 10  4  1  0  0  0  0
 11  5  1  0  0  0  0
 12 11  2  0  0  0  0
 13 11  1  0  0  0  0
 14 10  1  0  0  0  0
 15 16  1  0  0  0  0
 16 14  1  0  0  0  0
 17 15  1  0  0  0  0
 18 15  2  0  0  0  0
 19 17  2  0  0  0  0
 20 18  1  0  0  0  0
 21 20  2  0  0  0  0
  6 12  1  0  0  0  0
 19 21  1  0  0  0  0
M  CHG  2   1   1   7  -1
M  END
> <IDNUMBER>
F3099-7561

> <Chemical_Name>
4-chloro-2-nitro-N-(2-phenylethyl)benzamide

> <CAS>
284487-93-0

> <PriceCoeff>
1.00

> <MW>
304.73

> <Description>
solid

> <FSP3>
0.13

> <clogP>
3.02

> <TPSA>
72.24

> <Acceptor>
3

> <Donor>
1

> <RotBonds>
5

> <HAC>
21

> <Collection>
General

$$$$
F3139-0620
  -ISIS-  06222321152D

 20 22  0  0  0  0  0  0  0  0999 V2000
    5.2750   -0.4292    0.0000 C   0  0  0  0  0  0  0  0  0  0  0  0
    5.2750   -1.2667    0.0000 C   0  0  0  0  0  0  0  0  0  0  0  0
    4.5542   -0.0125    0.0000 O   0  0  0  0  0  0  0  0  0  0  0  0
    3.8292   -1.2667    0.0000 C   0  0  0  0  0  0  0  0  0  0  0  0
    4.5500   -1.6792    0.0000 C   0  0  0  0  0  0  0  0  0  0  0  0
    3.8375   -0.4292    0.0000 C   0  0  0  0  0  0  0  0  0  0  0  0
    5.9875   -0.0250    0.0000 C   0  0  0  0  0  0  0  0  0  0  0  0
    3.1167   -1.6750    0.0000 C   0  0  0  0  0  0  0  0  0  0  0  0
    4.5500   -2.5042    0.0000 O   0  0  0  0  0  0  0  0  0  0  0  0
    6.7000   -0.4417    0.0000 C   0  0  0  0  0  0  0  0  0  0  0  0
    3.1167   -0.0167    0.0000 C   0  0  0  0  0  0  0  0  0  0  0  0
    2.4042   -1.2625    0.0000 C   0  0  0  0  0  0  0  0  0  0  0  0
    2.4042   -0.4375    0.0000 C   0  0  0  0  0  0  0  0  0  0  0  0
    1.6917   -1.6750    0.0000 Cl  0  0  0  0  0  0  0  0  0  0  0  0
    6.6917   -1.2625    0.0000 O   0  0  0  0  0  0  0  0  0  0  0  0
    5.9917    0.7958    0.0000 C   0  0  0  0  0  0  0  0  0  0  0  0
    7.4167   -0.0292    0.0000 C   0  0  0  0  0  0  0  0  0  0  0  0
    7.4042   -1.6792    0.0000 C   0  0  0  0  0  0  0  0  0  0  0  0
    6.7042    1.2083    0.0000 C   0  0  0  0  0  0  0  0  0  0  0  0
    7.4167    0.7958    0.0000 C   0  0  0  0  0  0  0  0  0  0  0  0
  2  1  2  0  0  0  0
  3  1  1  0  0  0  0
  4  6  1  0  0  0  0
  5  2  1  0  0  0  0
  6  3  1  0  0  0  0
  7  1  1  0  0  0  0
  8  4  2  0  0  0  0
  9  5  2  0  0  0  0
 10  7  2  0  0  0  0
 11  6  2  0  0  0  0
 12 13  2  0  0  0  0
 13 11  1  0  0  0  0
 14 12  1  0  0  0  0
 15 10  1  0  0  0  0
 16  7  1  0  0  0  0
 17 10  1  0  0  0  0
 18 15  1  0  0  0  0
 19 16  2  0  0  0  0
 20 19  1  0  0  0  0
  4  5  1  0  0  0  0
 17 20  2  0  0  0  0
 12  8  1  0  0  0  0
M  END
> <IDNUMBER>
F3139-0620

> <Chemical_Name>
6-chloro-2-(2-methoxyphenyl)-4H-chromen-4-one

> <CAS>
57048-96-1

> <PriceCoeff>
1.00

> <MW>
286.71

> <Description>
solid

> <FSP3>
0.06

> <clogP>
3.60

> <TPSA>
35.53

> <Acceptor>
3

> <Donor>
0

> <RotBonds>
2

> <HAC>
20

> <Collection>
General

> <Reference_compound>
CHEMBL275638

> <Similarity>
0.8410

$$$$
F0902-0905
  -ISIS-  06222321442D

 30 33  0  0  0  0  0  0  0  0999 V2000
   -0.9958    0.3625    0.0000 N   0  0  3  0  0  0  0  0  0  0  0  0
   -0.3625    0.8208    0.0000 C   0  0  0  0  0  0  0  0  0  0  0  0
   -0.7500   -0.3542    0.0000 C   0  0  0  0  0  0  0  0  0  0  0  0
    0.0500   -0.3542    0.0000 C   0  0  3  0  0  0  0  0  0  0  0  0
    0.2792    0.3625    0.0000 C   0  0  0  0  0  0  0  0  0  0  0  0
    3.5542   -1.0500    0.0000 N   0  0  3  0  0  0  0  0  0  0  0  0
    0.4042   -1.0500    0.0000 N   0  0  0  0  0  0  0  0  0  0  0  0
   -1.7125    0.6125    0.0000 C   0  0  0  0  0  0  0  0  0  0  0  0
   -0.3625    1.6000    0.0000 O   0  0  0  0  0  0  0  0  0  0  0  0
    2.7792   -1.0500    0.0000 C   0  0  0  0  0  0  0  0  0  0  0  0
   -1.2208   -1.0042    0.0000 O   0  0  0  0  0  0  0  0  0  0  0  0
   -4.5208    0.8333    0.0000 C   0  0  0  0  0  0  0  0  0  0  0  0
   -3.9583    1.3500    0.0000 O   0  0  0  0  0  0  0  0  0  0  0  0
   -4.3625    0.0708    0.0000 O   0  0  0  0  0  0  0  0  0  0  0  0
    5.1500   -1.0667    0.0000 O   0  0  0  0  0  0  0  0  0  0  0  0
   -1.8625    1.3958    0.0000 C   0  0  0  0  0  0  0  0  0  0  0  0
   -2.3000    0.1125    0.0000 C   0  0  0  0  0  0  0  0  0  0  0  0
    2.3792   -1.7167    0.0000 C   0  0  0  0  0  0  0  0  0  0  0  0
    2.3792   -0.3542    0.0000 C   0  0  0  0  0  0  0  0  0  0  0  0
    1.2000   -1.0500    0.0000 C   0  0  0  0  0  0  0  0  0  0  0  0
   -3.2125    1.1208    0.0000 C   0  0  0  0  0  0  0  0  0  0  0  0
    1.6000   -1.7167    0.0000 C   0  0  0  0  0  0  0  0  0  0  0  0
    1.6000   -0.3542    0.0000 C   0  0  0  0  0  0  0  0  0  0  0  0
   -2.6125    1.6500    0.0000 C   0  0  0  0  0  0  0  0  0  0  0  0
   -3.0500    0.3625    0.0000 C   0  0  0  0  0  0  0  0  0  0  0  0
    3.9542   -0.3542    0.0000 C   0  0  0  0  0  0  0  0  0  0  0  0
    3.9500   -1.7167    0.0000 C   0  0  0  0  0  0  0  0  0  0  0  0
   -5.2708    1.0625    0.0000 C   0  0  0  0  0  0  0  0  0  0  0  0
    4.7500   -0.3667    0.0000 C   0  0  0  0  0  0  0  0  0  0  0  0
    4.7292   -1.7292    0.0000 C   0  0  0  0  0  0  0  0  0  0  0  0
  2  1  1  0  0  0  0
  3  1  1  0  0  0  0
  4  3  1  0  0  0  0
  5  2  1  0  0  0  0
  6 10  1  0  0  0  0
  7  4  1  0  0  0  0
  8  1  1  0  0  0  0
  9  2  2  0  0  0  0
 10 19  2  0  0  0  0
 11  3  2  0  0  0  0
 12 13  1  0  0  0  0
 13 21  1  0  0  0  0
 14 12  2  0  0  0  0
 15 30  1  0  0  0  0
 16  8  2  0  0  0  0
 17  8  1  0  0  0  0
 18 22  2  0  0  0  0
 19 23  1  0  0  0  0
 20  7  1  0  0  0  0
 21 25  1  0  0  0  0
 22 20  1  0  0  0  0
 23 20  2  0  0  0  0
 24 16  1  0  0  0  0
 25 17  2  0  0  0  0
 26  6  1  0  0  0  0
 27  6  1  0  0  0  0
 28 12  1  0  0  0  0
 29 26  1  0  0  0  0
 30 27  1  0  0  0  0
  4  5  1  0  0  0  0
 24 21  2  0  0  0  0
 18 10  1  0  0  0  0
 29 15  1  0  0  0  0
M  END
> <IDNUMBER>
F0902-0905

> <Chemical_Name>
4-(3-{[4-(morpholin-4-yl)phenyl]amino}-2,5-dioxopyrrolidin-1-yl)phenyl acetate

> <CAS>
355115-33-2

> <PriceCoeff>
1.00

> <MW>
409.44

> <Description>
solid

> <FSP3>
0.32

> <clogP>
1.46

> <TPSA>
88.18

> <Acceptor>
7

> <Donor>
2

> <RotBonds>
6

> <HAC>
30

> <Collection>
General

$$$$
F0327-0389
  -ISIS-  06222321142D

 27 29  0  0  0  0  0  0  0  0999 V2000
    4.4792   -0.8875    0.0000 N   0  0  3  0  0  0  0  0  0  0  0  0
   -0.0208    0.3958    0.0000 C   0  0  0  0  0  0  0  0  0  0  0  0
    0.3375    1.0333    0.0000 N   0  3  0  0  0  0  0  0  0  0  0  0
    4.9792   -0.3292    0.0000 C   0  0  0  0  0  0  0  0  0  0  0  0
    4.8375   -1.5292    0.0000 C   0  0  0  0  0  0  0  0  0  0  0  0
    0.3542   -0.2500    0.0000 C   0  0  0  0  0  0  0  0  0  0  0  0
    1.4792   -0.8875    0.0000 C   0  0  0  0  0  0  0  0  0  0  0  0
    1.1167   -0.2500    0.0000 N   0  0  0  0  0  0  0  0  0  0  0  0
   -0.7625    0.3958    0.0000 C   0  0  0  0  0  0  0  0  0  0  0  0
    3.7167   -0.8875    0.0000 C   0  0  0  0  0  0  0  0  0  0  0  0
    1.0875    1.0333    0.0000 O   0  5  0  0  0  0  0  0  0  0  0  0
    2.2375   -0.8875    0.0000 C   0  0  0  0  0  0  0  0  0  0  0  0
    0.0042    1.6958    0.0000 O   0  0  0  0  0  0  0  0  0  0  0  0
    1.1167   -1.5292    0.0000 O   0  0  0  0  0  0  0  0  0  0  0  0
    5.5542   -1.3667    0.0000 C   0  0  0  0  0  0  0  0  0  0  0  0
    5.6542   -0.6292    0.0000 C   0  0  0  0  0  0  0  0  0  0  0  0
    4.5542   -2.2292    0.0000 O   0  0  0  0  0  0  0  0  0  0  0  0
    4.8167    0.4333    0.0000 O   0  0  0  0  0  0  0  0  0  0  0  0
   -0.0208   -0.8875    0.0000 C   0  0  0  0  0  0  0  0  0  0  0  0
    3.3542   -0.2500    0.0000 C   0  0  0  0  0  0  0  0  0  0  0  0
    3.3542   -1.5292    0.0000 C   0  0  0  0  0  0  0  0  0  0  0  0
    2.6000   -1.5292    0.0000 C   0  0  0  0  0  0  0  0  0  0  0  0
    2.6000   -0.2500    0.0000 C   0  0  0  0  0  0  0  0  0  0  0  0
   -1.1458   -0.2500    0.0000 C   0  0  0  0  0  0  0  0  0  0  0  0
   -0.7625   -0.8875    0.0000 C   0  0  0  0  0  0  0  0  0  0  0  0
   -1.8833   -0.2500    0.0000 O   0  0  0  0  0  0  0  0  0  0  0  0
   -2.2500    0.3958    0.0000 C   0  0  0  0  0  0  0  0  0  0  0  0
  2  6  2  0  0  0  0
  3  2  1  0  0  0  0
  4  1  1  0  0  0  0
  5  1  1  0  0  0  0
  6  8  1  0  0  0  0
  7 12  1  0  0  0  0
  8  7  1  0  0  0  0
  9  2  1  0  0  0  0
 10  1  1  0  0  0  0
 11  3  1  0  0  0  0
 12 22  2  0  0  0  0
 13  3  2  0  0  0  0
 14  7  2  0  0  0  0
 15  5  1  0  0  0  0
 16  4  1  0  0  0  0
 17  5  2  0  0  0  0
 18  4  2  0  0  0  0
 19  6  1  0  0  0  0
 20 10  1  0  0  0  0
 21 10  2  0  0  0  0
 22 21  1  0  0  0  0
 23 20  2  0  0  0  0
 24 25  1  0  0  0  0
 25 19  2  0  0  0  0
 26 24  1  0  0  0  0
 27 26  1  0  0  0  0
 16 15  1  0  0  0  0
 23 12  1  0  0  0  0
 24  9  2  0  0  0  0
M  CHG  2   3   1  11  -1
M  END
> <IDNUMBER>
F0327-0389

> <Chemical_Name>
4-(2,5-dioxopyrrolidin-1-yl)-N-(4-methoxy-2-nitrophenyl)benzamide

> <CAS>
330200-99-2

> <PriceCoeff>
1.00

> <MW>
369.33

> <Description>
solid

> <FSP3>
0.17

> <clogP>
0.69

> <TPSA>
118.85

> <Acceptor>
6

> <Donor>
1

> <RotBonds>
5

> <HAC>
27

> <Collection>
General

$$$$
F1199-0083
  -ISIS-  06222321442D

 29 32  0  0  0  0  0  0  0  0999 V2000
    1.1917   -0.7625    0.0000 N   0  0  3  0  0  0  0  0  0  0  0  0
    1.8625   -0.2792    0.0000 C   0  0  0  0  0  0  0  0  0  0  0  0
    1.4500   -1.5500    0.0000 C   0  0  0  0  0  0  0  0  0  0  0  0
   -0.7125    1.3583    0.0000 N   0  3  0  0  0  0  0  0  0  0  0  0
    2.2750   -1.5500    0.0000 C   0  0  3  0  0  0  0  0  0  0  0  0
    2.5292   -0.7625    0.0000 C   0  0  0  0  0  0  0  0  0  0  0  0
    0.4125   -0.5042    0.0000 C   0  0  0  0  0  0  0  0  0  0  0  0
    0.2417    0.2958    0.0000 C   0  0  0  0  0  0  0  0  0  0  0  0
   -0.5458    0.5500    0.0000 C   0  0  0  0  0  0  0  0  0  0  0  0
    6.0292   -1.8750    0.0000 N   0  0  3  0  0  0  0  0  0  0  0  0
    2.7542   -2.2167    0.0000 N   0  0  0  0  0  0  0  0  0  0  0  0
   -0.1000    1.9083    0.0000 O   0  5  0  0  0  0  0  0  0  0  0  0
    1.8542    0.5458    0.0000 O   0  0  0  0  0  0  0  0  0  0  0  0
    5.2167   -1.9542    0.0000 C   0  0  0  0  0  0  0  0  0  0  0  0
   -1.5000    1.6125    0.0000 O   0  0  0  0  0  0  0  0  0  0  0  0
    0.9625   -2.2167    0.0000 O   0  0  0  0  0  0  0  0  0  0  0  0
    7.6667   -1.7042    0.0000 O   0  0  0  0  0  0  0  0  0  0  0  0
    4.7250   -1.2917    0.0000 C   0  0  0  0  0  0  0  0  0  0  0  0
    4.8792   -2.7125    0.0000 C   0  0  0  0  0  0  0  0  0  0  0  0
    3.5792   -2.1292    0.0000 C   0  0  0  0  0  0  0  0  0  0  0  0
    3.9042   -1.3792    0.0000 C   0  0  0  0  0  0  0  0  0  0  0  0
    4.0542   -2.8000    0.0000 C   0  0  0  0  0  0  0  0  0  0  0  0
   -0.1958   -1.0625    0.0000 C   0  0  0  0  0  0  0  0  0  0  0  0
    6.3625   -1.1167    0.0000 C   0  0  0  0  0  0  0  0  0  0  0  0
    6.5167   -2.5417    0.0000 C   0  0  0  0  0  0  0  0  0  0  0  0
   -1.1583   -0.0000    0.0000 C   0  0  0  0  0  0  0  0  0  0  0  0
   -0.9833   -0.8125    0.0000 C   0  0  0  0  0  0  0  0  0  0  0  0
    7.3292   -2.4625    0.0000 C   0  0  0  0  0  0  0  0  0  0  0  0
    7.1875   -1.0375    0.0000 C   0  0  0  0  0  0  0  0  0  0  0  0
  2  1  1  0  0  0  0
  3  1  1  0  0  0  0
  4  9  1  0  0  0  0
  5  3  1  0  0  0  0
  6  2  1  0  0  0  0
  7  1  1  0  0  0  0
  8  7  2  0  0  0  0
  9  8  1  0  0  0  0
 10 14  1  0  0  0  0
 11  5  1  0  0  0  0
 12  4  1  0  0  0  0
 13  2  2  0  0  0  0
 14 19  2  0  0  0  0
 15  4  2  0  0  0  0
 16  3  2  0  0  0  0
 17 28  1  0  0  0  0
 18 21  2  0  0  0  0
 19 22  1  0  0  0  0
 20 11  1  0  0  0  0
 21 20  1  0  0  0  0
 22 20  2  0  0  0  0
 23  7  1  0  0  0  0
 24 10  1  0  0  0  0
 25 10  1  0  0  0  0
 26 27  1  0  0  0  0
 27 23  2  0  0  0  0
 28 25  1  0  0  0  0
 29 24  1  0  0  0  0
  6  5  1  0  0  0  0
 26  9  2  0  0  0  0
 18 14  1  0  0  0  0
 17 29  1  0  0  0  0
M  CHG  2   4   1  12  -1
M  END
> <IDNUMBER>
F1199-0083

> <Chemical_Name>
3-{[4-(morpholin-4-yl)phenyl]amino}-1-(3-nitrophenyl)pyrrolidine-2,5-dione

> <CAS>
474005-04-4

> <PriceCoeff>
1.00

> <MW>
396.40

> <Description>
solid

> <FSP3>
0.30

> <clogP>
2.29

> <TPSA>
105.02

> <Acceptor>
7

> <Donor>
2

> <RotBonds>
5

> <HAC>
29

> <Collection>
General

$$$$
F3323-0587
  -ISIS-  06222321462D

 25 27  0  0  0  0  0  0  0  0999 V2000
    6.5750   -6.4542    0.0000 N   0  0  3  0  0  0  0  0  0  0  0  0
    5.7750   -6.2750    0.0000 C   0  0  0  0  0  0  0  0  0  0  0  0
    5.1292   -6.7792    0.0000 C   0  0  0  0  0  0  0  0  0  0  0  0
    6.9292   -7.1917    0.0000 C   0  0  0  0  0  0  0  0  0  0  0  0
    7.0875   -5.8125    0.0000 C   0  0  0  0  0  0  0  0  0  0  0  0
    7.9042   -5.9375    0.0000 C   0  0  0  0  0  0  0  0  0  0  0  0
    5.7667   -8.1250    0.0000 O   0  0  0  0  0  0  0  0  0  0  0  0
    5.1250   -7.6042    0.0000 C   0  0  0  0  0  0  0  0  0  0  0  0
    5.5917   -5.4667    0.0000 O   0  0  0  0  0  0  0  0  0  0  0  0
    6.5667   -7.9417    0.0000 C   0  0  0  0  0  0  0  0  0  0  0  0
    8.4167   -5.2917    0.0000 C   0  0  0  0  0  0  0  0  0  0  0  0
    7.7542   -7.1917    0.0000 O   0  0  0  0  0  0  0  0  0  0  0  0
    8.2042   -6.7042    0.0000 O   0  0  0  0  0  0  0  0  0  0  0  0
    9.2292   -5.4167    0.0000 C   0  0  0  0  0  0  0  0  0  0  0  0
    8.1125   -4.5292    0.0000 C   0  0  0  0  0  0  0  0  0  0  0  0
    9.4417   -4.0042    0.0000 C   0  0  0  0  0  0  0  0  0  0  0  0
    4.4125   -6.3667    0.0000 C   0  0  0  0  0  0  0  0  0  0  0  0
    8.6250   -3.8792    0.0000 C   0  0  0  0  0  0  0  0  0  0  0  0
    9.7417   -4.7750    0.0000 C   0  0  0  0  0  0  0  0  0  0  0  0
    9.9542   -3.3667    0.0000 O   0  0  0  0  0  0  0  0  0  0  0  0
    4.4125   -8.0250    0.0000 C   0  0  0  0  0  0  0  0  0  0  0  0
    9.6542   -2.5917    0.0000 C   0  0  0  0  0  0  0  0  0  0  0  0
    3.7000   -6.7875    0.0000 C   0  0  0  0  0  0  0  0  0  0  0  0
    8.8375   -2.4750    0.0000 C   0  0  0  0  0  0  0  0  0  0  0  0
    3.7000   -7.6125    0.0000 C   0  0  0  0  0  0  0  0  0  0  0  0
  2  1  1  0  0  0  0
  3  2  1  0  0  0  0
  4  1  1  0  0  0  0
  5  1  1  0  0  0  0
  6  5  1  0  0  0  0
  7 10  1  0  0  0  0
  8  3  1  0  0  0  0
  9  2  2  0  0  0  0
 10  4  1  0  0  0  0
 11  6  1  0  0  0  0
 12  4  2  0  0  0  0
 13  6  2  0  0  0  0
 14 11  2  0  0  0  0
 15 11  1  0  0  0  0
 16 18  1  0  0  0  0
 17  3  2  0  0  0  0
 18 15  2  0  0  0  0
 19 14  1  0  0  0  0
 20 16  1  0  0  0  0
 21  8  2  0  0  0  0
 22 20  1  0  0  0  0
 23 17  1  0  0  0  0
 24 22  1  0  0  0  0
 25 23  2  0  0  0  0
  8  7  1  0  0  0  0
 19 16  2  0  0  0  0
 21 25  1  0  0  0  0
M  END
> <IDNUMBER>
F3323-0587

> <Chemical_Name>
4-[2-(4-ethoxyphenyl)-2-oxoethyl]-2,3,4,5-tetrahydro-1,4-benzoxazepine-3,5-dione

> <CAS>
903585-29-5

> <PriceCoeff>
1.00

> <MW>
339.34

> <Description>
solid

> <FSP3>
0.21

> <clogP>
3.29

> <TPSA>
72.91

> <Acceptor>
5

> <Donor>
0

> <RotBonds>
5

> <HAC>
25

> <Collection>
General

$$$$
F3023-0948
  -ISIS-  06222321152D

 27 29  0  0  0  0  0  0  0  0999 V2000
    4.8167   -6.4042    0.0000 N   0  0  3  0  0  0  0  0  0  0  0  0
    5.2375   -5.8292    0.0000 C   0  0  0  0  0  0  0  0  0  0  0  0
    5.2417   -6.9750    0.0000 C   0  0  0  0  0  0  0  0  0  0  0  0
    5.9167   -6.7542    0.0000 C   0  0  3  0  0  0  0  0  0  0  0  0
    5.9125   -6.0417    0.0000 C   0  0  0  0  0  0  0  0  0  0  0  0
    6.4875   -7.1667    0.0000 N   0  0  0  0  0  0  0  0  0  0  0  0
    4.1125   -6.4042    0.0000 C   0  0  0  0  0  0  0  0  0  0  0  0
    1.6292   -5.8125    0.0000 C   0  0  3  0  0  0  0  0  0  0  0  0
    5.0125   -5.1542    0.0000 O   0  0  0  0  0  0  0  0  0  0  0  0
    5.0292   -7.6500    0.0000 O   0  0  0  0  0  0  0  0  0  0  0  0
    1.9917   -6.4167    0.0000 S   0  0  0  0  0  0  0  0  0  0  0  0
    8.4292   -6.3042    0.0000 C   0  0  0  0  0  0  0  0  0  0  0  0
    9.0792   -6.0125    0.0000 N   0  0  3  0  0  0  0  0  0  0  0  0
    3.7542   -5.7917    0.0000 C   0  0  0  0  0  0  0  0  0  0  0  0
    3.7667   -7.0250    0.0000 C   0  0  0  0  0  0  0  0  0  0  0  0
    7.1375   -6.8792    0.0000 C   0  0  0  0  0  0  0  0  0  0  0  0
    7.8500   -5.8875    0.0000 C   0  0  0  0  0  0  0  0  0  0  0  0
    8.3542   -7.0042    0.0000 C   0  0  0  0  0  0  0  0  0  0  0  0
    2.7000   -6.4167    0.0000 C   0  0  0  0  0  0  0  0  0  0  0  0
    0.9167   -5.8167    0.0000 F   0  0  0  0  0  0  0  0  0  0  0  0
    1.9792   -5.1917    0.0000 F   0  0  0  0  0  0  0  0  0  0  0  0
    7.7042   -7.2917    0.0000 C   0  0  0  0  0  0  0  0  0  0  0  0
    7.2042   -6.1750    0.0000 C   0  0  0  0  0  0  0  0  0  0  0  0
    3.0625   -7.0292    0.0000 C   0  0  0  0  0  0  0  0  0  0  0  0
    3.0500   -5.8000    0.0000 C   0  0  0  0  0  0  0  0  0  0  0  0
    9.1500   -5.3042    0.0000 C   0  0  0  0  0  0  0  0  0  0  0  0
    9.6542   -6.4292    0.0000 C   0  0  0  0  0  0  0  0  0  0  0  0
  2  1  1  0  0  0  0
  3  1  1  0  0  0  0
  4  3  1  0  0  0  0
  5  2  1  0  0  0  0
  6  4  1  0  0  0  0
  7  1  1  0  0  0  0
  8 11  1  0  0  0  0
  9  2  2  0  0  0  0
 10  3  2  0  0  0  0
 11 19  1  0  0  0  0
 12 17  1  0  0  0  0
 13 12  1  0  0  0  0
 14  7  2  0  0  0  0
 15  7  1  0  0  0  0
 16  6  1  0  0  0  0
 17 23  2  0  0  0  0
 18 22  1  0  0  0  0
 19 24  1  0  0  0  0
 20  8  1  0  0  0  0
 21  8  1  0  0  0  0
 22 16  2  0  0  0  0
 23 16  1  0  0  0  0
 24 15  2  0  0  0  0
 25 14  1  0  0  0  0
 26 13  1  0  0  0  0
 27 13  1  0  0  0  0
  5  4  1  0  0  0  0
 19 25  2  0  0  0  0
 12 18  2  0  0  0  0
M  END
> <IDNUMBER>
F3023-0948

> <Chemical_Name>
1-{4-[(difluoromethyl)sulfanyl]phenyl}-3-{[4-(dimethylamino)phenyl]amino}pyrrolidine-2,5-dione

> <CAS>
1008211-79-7

> <PriceCoeff>
1.00

> <MW>
391.43

> <Description>
solid

> <FSP3>
0.26

> <clogP>
3.66

> <TPSA>
77.95

> <Acceptor>
4

> <Donor>
2

> <RotBonds>
6

> <HAC>
27

> <Collection>
General

$$$$
F3139-0636
  -ISIS-  06222321152D

 20 22  0  0  0  0  0  0  0  0999 V2000
    5.2750   -0.4292    0.0000 C   0  0  0  0  0  0  0  0  0  0  0  0
    5.2750   -1.2667    0.0000 C   0  0  0  0  0  0  0  0  0  0  0  0
    4.5542   -0.0125    0.0000 O   0  0  0  0  0  0  0  0  0  0  0  0
    3.8375   -0.4292    0.0000 C   0  0  0  0  0  0  0  0  0  0  0  0
    4.5500   -1.6792    0.0000 C   0  0  0  0  0  0  0  0  0  0  0  0
    3.8292   -1.2667    0.0000 C   0  0  0  0  0  0  0  0  0  0  0  0
    5.9875   -0.0250    0.0000 C   0  0  0  0  0  0  0  0  0  0  0  0
    3.1167   -0.0167    0.0000 C   0  0  0  0  0  0  0  0  0  0  0  0
    3.1167   -1.6750    0.0000 C   0  0  0  0  0  0  0  0  0  0  0  0
    6.7042   -0.4417    0.0000 C   0  0  0  0  0  0  0  0  0  0  0  0
    4.5500   -2.5042    0.0000 O   0  0  0  0  0  0  0  0  0  0  0  0
    2.4042   -0.4375    0.0000 C   0  0  0  0  0  0  0  0  0  0  0  0
    2.4042   -1.2625    0.0000 C   0  0  0  0  0  0  0  0  0  0  0  0
    6.6917   -1.2667    0.0000 F   0  0  0  0  0  0  0  0  0  0  0  0
    5.9917    0.7958    0.0000 C   0  0  0  0  0  0  0  0  0  0  0  0
    1.6917   -0.0167    0.0000 O   0  0  0  0  0  0  0  0  0  0  0  0
    7.4167   -0.0292    0.0000 C   0  0  0  0  0  0  0  0  0  0  0  0
    0.9792   -0.4375    0.0000 C   0  0  0  0  0  0  0  0  0  0  0  0
    6.7042    1.2083    0.0000 C   0  0  0  0  0  0  0  0  0  0  0  0
    7.4167    0.7958    0.0000 C   0  0  0  0  0  0  0  0  0  0  0  0
  2  1  2  0  0  0  0
  3  1  1  0  0  0  0
  4  3  1  0  0  0  0
  5  2  1  0  0  0  0
  6  4  1  0  0  0  0
  7  1  1  0  0  0  0
  8  4  2  0  0  0  0
  9  6  2  0  0  0  0
 10  7  2  0  0  0  0
 11  5  2  0  0  0  0
 12  8  1  0  0  0  0
 13 12  2  0  0  0  0
 14 10  1  0  0  0  0
 15  7  1  0  0  0  0
 16 12  1  0  0  0  0
 17 10  1  0  0  0  0
 18 16  1  0  0  0  0
 19 15  2  0  0  0  0
 20 19  1  0  0  0  0
  6  5  1  0  0  0  0
 17 20  2  0  0  0  0
 13  9  1  0  0  0  0
M  END
> <IDNUMBER>
F3139-0636

> <Chemical_Name>
2-(2-fluorophenyl)-7-methoxy-4H-chromen-4-one

> <CAS>
637747-70-7

> <PriceCoeff>
1.00

> <MW>
270.26

> <Description>
solid

> <FSP3>
0.06

> <clogP>
3.73

> <TPSA>
35.53

> <Acceptor>
3

> <Donor>
0

> <RotBonds>
2

> <HAC>
20

> <Collection>
General

> <Reference_compound>
CHEMBL275638

> <Similarity>
0.8240

$$$$
F3230-0028
  -ISIS-  06222321442D

 30 32  0  0  0  0  0  0  0  0999 V2000
   10.6042   -4.4667    0.0000 S   0  0  3  0  0  0  0  0  0  0  0  0
    6.1375   -3.0542    0.0000 N   0  0  3  0  0  0  0  0  0  0  0  0
    5.3125   -3.0542    0.0000 N   0  0  0  0  0  0  0  0  0  0  0  0
    6.3917   -2.2667    0.0000 C   0  0  0  0  0  0  0  0  0  0  0  0
    5.7250   -1.7875    0.0000 C   0  0  0  0  0  0  0  0  0  0  0  0
    5.0542   -2.2667    0.0000 C   0  0  0  0  0  0  0  0  0  0  0  0
    9.7792   -4.4667    0.0000 N   0  0  3  0  0  0  0  0  0  0  0  0
   11.4292   -4.4667    0.0000 C   0  0  0  0  0  0  0  0  0  0  0  0
    7.4292   -4.8792    0.0000 C   0  0  0  0  0  0  0  0  0  0  0  0
    6.7167   -4.4667    0.0000 C   0  0  0  0  0  0  0  0  0  0  0  0
    8.1417   -4.4625    0.0000 N   0  0  3  0  0  0  0  0  0  0  0  0
    6.7167   -3.6417    0.0000 C   0  0  3  0  0  0  0  0  0  0  0  0
   11.8375   -3.7625    0.0000 C   0  0  0  0  0  0  0  0  0  0  0  0
   10.6000   -3.6417    0.0000 O   0  0  0  0  0  0  0  0  0  0  0  0
   10.6000   -5.2917    0.0000 O   0  0  0  0  0  0  0  0  0  0  0  0
    9.3667   -3.7542    0.0000 C   0  0  0  0  0  0  0  0  0  0  0  0
    9.3667   -5.1750    0.0000 C   0  0  0  0  0  0  0  0  0  0  0  0
   11.8292   -5.1792    0.0000 C   0  0  0  0  0  0  0  0  0  0  0  0
    8.5500   -3.7500    0.0000 C   0  0  0  0  0  0  0  0  0  0  0  0
    8.5500   -5.1750    0.0000 C   0  0  0  0  0  0  0  0  0  0  0  0
    7.4250   -5.7042    0.0000 O   0  0  0  0  0  0  0  0  0  0  0  0
   12.6500   -3.7625    0.0000 C   0  0  0  0  0  0  0  0  0  0  0  0
    5.7167   -0.9625    0.0000 Br  0  0  0  0  0  0  0  0  0  0  0  0
    7.1042   -1.8542    0.0000 C   0  0  0  0  0  0  0  0  0  0  0  0
   12.6500   -5.1792    0.0000 C   0  0  0  0  0  0  0  0  0  0  0  0
   13.0625   -4.4750    0.0000 C   0  0  0  0  0  0  0  0  0  0  0  0
    4.2542   -2.0542    0.0000 C   0  0  0  0  0  0  0  0  0  0  0  0
   11.4167   -3.0417    0.0000 C   0  0  0  0  0  0  0  0  0  0  0  0
    7.4292   -3.2250    0.0000 C   0  0  0  0  0  0  0  0  0  0  0  0
   13.8875   -4.4750    0.0000 C   0  0  0  0  0  0  0  0  0  0  0  0
  2 12  1  0  0  0  0
  3  2  1  0  0  0  0
  4  2  1  0  0  0  0
  5  4  2  0  0  0  0
  6  3  2  0  0  0  0
  7  1  1  0  0  0  0
  8  1  1  0  0  0  0
  9 11  1  0  0  0  0
 10  9  1  0  0  0  0
 11 20  1  0  0  0  0
 12 10  1  0  0  0  0
 13  8  1  0  0  0  0
 14  1  2  0  0  0  0
 15  1  2  0  0  0  0
 16  7  1  0  0  0  0
 17  7  1  0  0  0  0
 18  8  2  0  0  0  0
 19 16  1  0  0  0  0
 20 17  1  0  0  0  0
 21  9  2  0  0  0  0
 22 13  2  0  0  0  0
 23  5  1  0  0  0  0
 24  4  1  0  0  0  0
 25 18  1  0  0  0  0
 26 25  2  0  0  0  0
 27  6  1  0  0  0  0
 28 13  1  0  0  0  0
 29 12  1  0  0  0  0
 30 26  1  0  0  0  0
 11 19  1  0  0  0  0
 22 26  1  0  0  0  0
  6  5  1  0  0  0  0
M  END
> <IDNUMBER>
F3230-0028

> <Chemical_Name>
3-(4-bromo-3,5-dimethyl-1H-pyrazol-1-yl)-1-[4-(2,4-dimethylbenzenesulfonyl)piperazin-1-yl]butan-1-one

> <CAS>
890597-46-3

> <PriceCoeff>
1.00

> <MW>
497.45

> <Description>
solid

> <FSP3>
0.52

> <clogP>
4.44

> <TPSA>
83.89

> <Acceptor>
4

> <Donor>
0

> <RotBonds>
6

> <HAC>
30

> <Collection>
General

$$$$
F1537-0041
  -ISIS-  06222321142D

 30 33  0  0  0  0  0  0  0  0999 V2000
    1.2917   -0.8292    0.0000 N   0  0  3  0  0  0  0  0  0  0  0  0
    1.9000   -0.4000    0.0000 C   0  0  0  0  0  0  0  0  0  0  0  0
    1.5250   -1.5417    0.0000 C   0  0  0  0  0  0  0  0  0  0  0  0
    2.2667   -1.5417    0.0000 C   0  0  3  0  0  0  0  0  0  0  0  0
    2.5000   -0.8292    0.0000 C   0  0  0  0  0  0  0  0  0  0  0  0
    0.6167   -0.6167    0.0000 C   0  0  0  0  0  0  0  0  0  0  0  0
    0.4667    0.0833    0.0000 C   0  0  0  0  0  0  0  0  0  0  0  0
    5.5167   -1.8292    0.0000 N   0  0  3  0  0  0  0  0  0  0  0  0
    2.6917   -2.1167    0.0000 N   0  0  0  0  0  0  0  0  0  0  0  0
   -0.2083    0.3000    0.0000 C   0  0  0  0  0  0  0  0  0  0  0  0
    0.0875   -1.0917    0.0000 C   0  0  0  0  0  0  0  0  0  0  0  0
    1.8917    0.3125    0.0000 O   0  0  0  0  0  0  0  0  0  0  0  0
    4.8125   -1.9000    0.0000 C   0  0  0  0  0  0  0  0  0  0  0  0
    1.1042   -2.1167    0.0000 O   0  0  0  0  0  0  0  0  0  0  0  0
    6.9375   -1.6792    0.0000 O   0  0  0  0  0  0  0  0  0  0  0  0
    4.5167   -2.5500    0.0000 C   0  0  0  0  0  0  0  0  0  0  0  0
    4.3875   -1.3167    0.0000 C   0  0  0  0  0  0  0  0  0  0  0  0
    3.4000   -2.0417    0.0000 C   0  0  0  0  0  0  0  0  0  0  0  0
   -0.7333   -0.1750    0.0000 C   0  0  0  0  0  0  0  0  0  0  0  0
   -0.5875   -0.8750    0.0000 C   0  0  0  0  0  0  0  0  0  0  0  0
    1.0042    0.5625    0.0000 O   0  0  0  0  0  0  0  0  0  0  0  0
    3.6792   -1.3917    0.0000 C   0  0  0  0  0  0  0  0  0  0  0  0
    3.8125   -2.6250    0.0000 C   0  0  0  0  0  0  0  0  0  0  0  0
    5.8042   -1.1792    0.0000 C   0  0  0  0  0  0  0  0  0  0  0  0
    5.9375   -2.4042    0.0000 C   0  0  0  0  0  0  0  0  0  0  0  0
   -1.4208    0.0458    0.0000 O   0  0  0  0  0  0  0  0  0  0  0  0
    6.5167   -1.1042    0.0000 C   0  0  0  0  0  0  0  0  0  0  0  0
    6.6417   -2.3292    0.0000 C   0  0  0  0  0  0  0  0  0  0  0  0
    0.8542    1.2625    0.0000 C   0  0  0  0  0  0  0  0  0  0  0  0
   -1.9458   -0.4375    0.0000 C   0  0  0  0  0  0  0  0  0  0  0  0
  2  1  1  0  0  0  0
  3  1  1  0  0  0  0
  4  3  1  0  0  0  0
  5  2  1  0  0  0  0
  6  1  1  0  0  0  0
  7  6  2  0  0  0  0
  8 13  1  0  0  0  0
  9  4  1  0  0  0  0
 10  7  1  0  0  0  0
 11  6  1  0  0  0  0
 12  2  2  0  0  0  0
 13 16  2  0  0  0  0
 14  3  2  0  0  0  0
 15 28  1  0  0  0  0
 16 23  1  0  0  0  0
 17 22  2  0  0  0  0
 18  9  1  0  0  0  0
 19 20  1  0  0  0  0
 20 11  2  0  0  0  0
 21  7  1  0  0  0  0
 22 18  1  0  0  0  0
 23 18  2  0  0  0  0
 24  8  1  0  0  0  0
 25  8  1  0  0  0  0
 26 19  1  0  0  0  0
 27 24  1  0  0  0  0
 28 25  1  0  0  0  0
 29 21  1  0  0  0  0
 30 26  1  0  0  0  0
  5  4  1  0  0  0  0
 19 10  2  0  0  0  0
 13 17  1  0  0  0  0
 15 27  1  0  0  0  0
M  END
> <IDNUMBER>
F1537-0041

> <Chemical_Name>
1-(2,4-dimethoxyphenyl)-3-{[4-(morpholin-4-yl)phenyl]amino}pyrrolidine-2,5-dione

> <CAS>
1008935-48-5

> <PriceCoeff>
1.00

> <MW>
411.45

> <Description>
solid

> <FSP3>
0.36

> <clogP>
2.06

> <TPSA>
80.34

> <Acceptor>
7

> <Donor>
2

> <RotBonds>
6

> <HAC>
30

> <Collection>
General

$$$$
F3385-4501
  -ISIS-  06222304352D

 33 34  0  0  0  0  0  0  0  0999 V2000
    7.2125   -2.2667    0.0000 C   0  0  0  0  0  0  0  0  0  0  0  0
    6.4917   -2.6875    0.0000 C   0  0  0  0  0  0  0  0  0  0  0  0
    5.7792   -2.2667    0.0000 C   0  0  0  0  0  0  0  0  0  0  0  0
    7.2125   -1.4417    0.0000 C   0  0  0  0  0  0  0  0  0  0  0  0
    5.7792   -1.4417    0.0000 C   0  0  0  0  0  0  0  0  0  0  0  0
    7.9250   -2.6875    0.0000 C   0  0  0  0  0  0  0  0  0  0  0  0
    6.4917   -1.0292    0.0000 O   0  0  0  0  0  0  0  0  0  0  0  0
    8.6375   -2.2667    0.0000 C   0  0  0  0  0  0  0  0  0  0  0  0
    5.0667   -2.6875    0.0000 C   0  0  0  0  0  0  0  0  0  0  0  0
    1.4917   -1.4500    0.0000 N   0  0  3  0  0  0  0  0  0  0  0  0
    0.0667   -2.2667    0.0000 N   0  0  3  0  0  0  0  0  0  0  0  0
    5.0667   -1.0292    0.0000 C   0  0  0  0  0  0  0  0  0  0  0  0
    9.3500   -2.6875    0.0000 C   0  0  0  0  0  0  0  0  0  0  0  0
    6.4917   -3.5125    0.0000 O   0  0  0  0  0  0  0  0  0  0  0  0
    9.3500   -3.5167    0.0000 C   0  0  0  0  0  0  0  0  0  0  0  0
    7.9167   -3.5125    0.0000 C   0  0  0  0  0  0  0  0  0  0  0  0
    8.6292   -3.9250    0.0000 C   0  0  0  0  0  0  0  0  0  0  0  0
    4.3542   -1.4500    0.0000 C   0  0  0  0  0  0  0  0  0  0  0  0
    0.0667   -1.4417    0.0000 C   0  0  0  0  0  0  0  0  0  0  0  0
    0.7792   -2.6792    0.0000 C   0  0  0  0  0  0  0  0  0  0  0  0
    0.7792   -1.0292    0.0000 C   0  0  0  0  0  0  0  0  0  0  0  0
    1.5000   -2.2667    0.0000 C   0  0  0  0  0  0  0  0  0  0  0  0
    4.3542   -2.2667    0.0000 C   0  0  0  0  0  0  0  0  0  0  0  0
   10.0667   -2.2667    0.0000 O   0  0  0  0  0  0  0  0  0  0  0  0
   10.0625   -3.9292    0.0000 O   0  0  0  0  0  0  0  0  0  0  0  0
    3.6417   -1.0375    0.0000 O   0  0  0  0  0  0  0  0  0  0  0  0
    2.2125   -1.0375    0.0000 C   0  0  0  0  0  0  0  0  0  0  0  0
    2.9250   -1.4500    0.0000 C   0  0  0  0  0  0  0  0  0  0  0  0
   -0.6500   -2.6792    0.0000 C   0  0  0  0  0  0  0  0  0  0  0  0
   10.0625   -1.4500    0.0000 C   0  0  0  0  0  0  0  0  0  0  0  0
   10.7792   -3.5167    0.0000 C   0  0  0  0  0  0  0  0  0  0  0  0
   12.1667   -3.2458    0.0000 Cl  0  0  0  0  0  0  0  0  0  0  0  0
   12.1667   -1.7125    0.0000 Cl  0  0  0  0  0  0  0  0  0  0  0  0
  4  1  2  0  0  0  0
  5  7  1  0  0  0  0
  6  1  1  0  0  0  0
  7  4  1  0  0  0  0
  8  6  1  0  0  0  0
  9  3  2  0  0  0  0
 10 27  1  0  0  0  0
 11 20  1  0  0  0  0
 12  5  2  0  0  0  0
 13  8  2  0  0  0  0
 14  2  2  0  0  0  0
 15 17  2  0  0  0  0
 16  6  2  0  0  0  0
 17 16  1  0  0  0  0
 18 12  1  0  0  0  0
 19 21  1  0  0  0  0
 20 22  1  0  0  0  0
 21 10  1  0  0  0  0
 22 10  1  0  0  0  0
 23  9  1  0  0  0  0
 24 13  1  0  0  0  0
 25 15  1  0  0  0  0
 26 18  1  0  0  0  0
 27 28  1  0  0  0  0
 28 26  1  0  0  0  0
 29 11  1  0  0  0  0
 30 24  1  0  0  0  0
 31 25  1  0  0  0  0
  3  5  1  0  0  0  0
 13 15  1  0  0  0  0
 23 18  2  0  0  0  0
 11 19  1  0  0  0  0
  2  1  1  0  0  0  0
  3  2  1  0  0  0  0
M  END
> <IDNUMBER>
F3385-4501

> <Chemical_Name>
3-(3,4-dimethoxyphenyl)-7-[2-(4-methylpiperazin-1-yl)ethoxy]-4H-chromen-4-one dihydrochloride

> <CAS>
1215332-34-5

> <PriceCoeff>
1.00

> <MW>
424.49

> <Description>
solid

> <FSP3>
0.38

> <clogP>
1.94

> <TPSA>
60.47

> <Acceptor>
7

> <Donor>
2

> <RotBonds>
7

> <HAC>
31

> <Collection>
General

> <Reference_compound>
CHEMBL455048

> <Similarity>
0.8060

$$$$
F1593-0038
  -ISIS-  06222321452D

 30 33  0  0  0  0  0  0  0  0999 V2000
   -0.3458   -1.1625    0.0000 N   0  0  3  0  0  0  0  0  0  0  0  0
    1.6542   -0.2667    0.0000 C   0  0  0  0  0  0  0  0  0  0  0  0
   -0.1083   -3.3417    0.0000 C   0  0  0  0  0  0  0  0  0  0  0  0
    2.0375   -3.7875    0.0000 C   0  0  3  0  0  0  0  0  0  0  0  0
    3.1292   -1.8917    0.0000 C   0  0  0  0  0  0  0  0  0  0  0  0
   -2.2458   -0.0792    0.0000 C   0  0  0  0  0  0  0  0  0  0  0  0
   11.6375   -6.6500    0.0000 N   0  0  3  0  0  0  0  0  0  0  0  0
    2.9292   -5.7792    0.0000 N   0  0  0  0  0  0  0  0  0  0  0  0
   -2.2458    2.1125    0.0000 C   0  0  0  0  0  0  0  0  0  0  0  0
    2.1000    1.8833    0.0000 O   0  0  0  0  0  0  0  0  0  0  0  0
    9.4667   -6.4417    0.0000 C   0  0  0  0  0  0  0  0  0  0  0  0
   -1.7375   -4.8167    0.0000 O   0  0  0  0  0  0  0  0  0  0  0  0
   -2.2708    6.4792    0.0000 C   0  0  0  0  0  0  0  0  0  0  0  0
   -4.1583    3.2083    0.0000 C   0  0  0  0  0  0  0  0  0  0  0  0
   -4.1583    5.3792    0.0000 O   0  0  0  0  0  0  0  0  0  0  0  0
   -2.2833    8.6667    0.0000 O   0  0  0  0  0  0  0  0  0  0  0  0
   16.0000   -7.0875    0.0000 O   0  0  0  0  0  0  0  0  0  0  0  0
    8.5542   -4.4375    0.0000 C   0  0  0  0  0  0  0  0  0  0  0  0
    8.1917   -8.2125    0.0000 C   0  0  0  0  0  0  0  0  0  0  0  0
    5.1125   -5.9917    0.0000 C   0  0  0  0  0  0  0  0  0  0  0  0
    6.3792   -4.2292    0.0000 C   0  0  0  0  0  0  0  0  0  0  0  0
    6.0167   -7.9917    0.0000 C   0  0  0  0  0  0  0  0  0  0  0  0
   -4.1333   -1.1792    0.0000 C   0  0  0  0  0  0  0  0  0  0  0  0
   12.5417   -8.6542    0.0000 C   0  0  0  0  0  0  0  0  0  0  0  0
   12.9042   -4.8625    0.0000 C   0  0  0  0  0  0  0  0  0  0  0  0
   -6.0292   -0.1042    0.0000 C   0  0  0  0  0  0  0  0  0  0  0  0
   -0.3750    5.4000    0.0000 C   0  0  0  0  0  0  0  0  0  0  0  0
   -6.0417    2.0958    0.0000 C   0  0  0  0  0  0  0  0  0  0  0  0
   14.7167   -8.8667    0.0000 C   0  0  0  0  0  0  0  0  0  0  0  0
   15.1000   -5.0875    0.0000 C   0  0  0  0  0  0  0  0  0  0  0  0
  2  1  1  0  0  0  0
  3  1  1  0  0  0  0
  4  3  1  0  0  0  0
  5  2  1  0  0  0  0
  6  1  1  0  0  0  0
  7 11  1  0  0  0  0
  8  4  1  0  0  0  0
  9  6  2  0  0  0  0
 10  2  2  0  0  0  0
 11 19  2  0  0  0  0
 12  3  2  0  0  0  0
 13 15  1  0  0  0  0
 14  9  1  0  0  0  0
 15 14  1  0  0  0  0
 16 13  2  0  0  0  0
 17 30  1  0  0  0  0
 18 21  2  0  0  0  0
 19 22  1  0  0  0  0
 20  8  1  0  0  0  0
 21 20  1  0  0  0  0
 22 20  2  0  0  0  0
 23  6  1  0  0  0  0
 24  7  1  0  0  0  0
 25  7  1  0  0  0  0
 26 23  2  0  0  0  0
 27 13  1  0  0  0  0
 28 26  1  0  0  0  0
 29 24  1  0  0  0  0
 30 25  1  0  0  0  0
  5  4  1  0  0  0  0
 28 14  2  0  0  0  0
 18 11  1  0  0  0  0
 17 29  1  0  0  0  0
M  END
> <IDNUMBER>
F1593-0038

> <Chemical_Name>
3-(3-{[4-(morpholin-4-yl)phenyl]amino}-2,5-dioxopyrrolidin-1-yl)phenyl acetate

> <CAS>
1008185-55-4

> <PriceCoeff>
1.00

> <MW>
409.44

> <Description>
solid

> <FSP3>
0.32

> <clogP>
1.46

> <TPSA>
88.18

> <Acceptor>
7

> <Donor>
2

> <RotBonds>
6

> <HAC>
30

> <Collection>
General

$$$$
F3323-0630
  -ISIS-  06222321462D

 26 28  0  0  0  0  0  0  0  0999 V2000
    6.5750   -6.4542    0.0000 N   0  0  3  0  0  0  0  0  0  0  0  0
    5.7750   -6.2750    0.0000 C   0  0  0  0  0  0  0  0  0  0  0  0
    5.1292   -6.7792    0.0000 C   0  0  0  0  0  0  0  0  0  0  0  0
    6.9292   -7.1917    0.0000 C   0  0  0  0  0  0  0  0  0  0  0  0
    7.0875   -5.8125    0.0000 C   0  0  0  0  0  0  0  0  0  0  0  0
    7.9042   -5.9375    0.0000 C   0  0  0  0  0  0  0  0  0  0  0  0
    5.7667   -8.1250    0.0000 O   0  0  0  0  0  0  0  0  0  0  0  0
    8.4167   -5.2917    0.0000 C   0  0  0  0  0  0  0  0  0  0  0  0
    5.1250   -7.6042    0.0000 C   0  0  0  0  0  0  0  0  0  0  0  0
    9.7417   -4.7750    0.0000 C   0  0  0  0  0  0  0  0  0  0  0  0
    9.2292   -5.4167    0.0000 C   0  0  0  0  0  0  0  0  0  0  0  0
    5.5917   -5.4667    0.0000 O   0  0  0  0  0  0  0  0  0  0  0  0
    6.5667   -7.9417    0.0000 C   0  0  0  0  0  0  0  0  0  0  0  0
    9.4417   -4.0042    0.0000 C   0  0  0  0  0  0  0  0  0  0  0  0
    7.7542   -7.1917    0.0000 O   0  0  0  0  0  0  0  0  0  0  0  0
    8.2042   -6.7042    0.0000 O   0  0  0  0  0  0  0  0  0  0  0  0
    8.1125   -4.5292    0.0000 C   0  0  0  0  0  0  0  0  0  0  0  0
    8.6250   -3.8792    0.0000 C   0  0  0  0  0  0  0  0  0  0  0  0
   10.5625   -4.9000    0.0000 F   0  0  0  0  0  0  0  0  0  0  0  0
    4.4125   -6.3667    0.0000 C   0  0  0  0  0  0  0  0  0  0  0  0
    9.9542   -3.3667    0.0000 O   0  0  0  0  0  0  0  0  0  0  0  0
    4.4125   -8.0250    0.0000 C   0  0  0  0  0  0  0  0  0  0  0  0
    9.6542   -2.5917    0.0000 C   0  0  0  0  0  0  0  0  0  0  0  0
    3.7000   -6.7875    0.0000 C   0  0  0  0  0  0  0  0  0  0  0  0
    8.8375   -2.4750    0.0000 C   0  0  0  0  0  0  0  0  0  0  0  0
    3.7000   -7.6125    0.0000 C   0  0  0  0  0  0  0  0  0  0  0  0
  2  1  1  0  0  0  0
  3  2  1  0  0  0  0
  4  1  1  0  0  0  0
  5  1  1  0  0  0  0
  6  5  1  0  0  0  0
  7 13  1  0  0  0  0
  8  6  1  0  0  0  0
  9  3  1  0  0  0  0
 10 11  1  0  0  0  0
 11  8  2  0  0  0  0
 12  2  2  0  0  0  0
 13  4  1  0  0  0  0
 14 18  1  0  0  0  0
 15  4  2  0  0  0  0
 16  6  2  0  0  0  0
 17  8  1  0  0  0  0
 18 17  2  0  0  0  0
 19 10  1  0  0  0  0
 20  3  2  0  0  0  0
 21 14  1  0  0  0  0
 22  9  2  0  0  0  0
 23 21  1  0  0  0  0
 24 20  1  0  0  0  0
 25 23  1  0  0  0  0
 26 24  2  0  0  0  0
  9  7  1  0  0  0  0
 22 26  1  0  0  0  0
 10 14  2  0  0  0  0
M  END
> <IDNUMBER>
F3323-0630

> <Chemical_Name>
4-[2-(4-ethoxy-3-fluorophenyl)-2-oxoethyl]-2,3,4,5-tetrahydro-1,4-benzoxazepine-3,5-dione

> <CAS>
903196-83-8

> <PriceCoeff>
1.00

> <MW>
357.33

> <Description>
solid

> <FSP3>
0.21

> <clogP>
3.28

> <TPSA>
72.91

> <Acceptor>
5

> <Donor>
0

> <RotBonds>
5

> <HAC>
26

> <Collection>
General

$$$$
F1199-0084
  -ISIS-  06222321142D

 28 31  0  0  0  0  0  0  0  0999 V2000
   -0.4458   -1.9375    0.0000 N   0  0  3  0  0  0  0  0  0  0  0  0
    0.2250   -1.4500    0.0000 C   0  0  0  0  0  0  0  0  0  0  0  0
   -0.1875   -2.7292    0.0000 C   0  0  0  0  0  0  0  0  0  0  0  0
    0.6375   -2.7292    0.0000 C   0  0  3  0  0  0  0  0  0  0  0  0
    0.8917   -1.9375    0.0000 C   0  0  0  0  0  0  0  0  0  0  0  0
   -1.2333   -1.6792    0.0000 C   0  0  0  0  0  0  0  0  0  0  0  0
   -1.8458   -2.2375    0.0000 C   0  0  0  0  0  0  0  0  0  0  0  0
    4.4167   -3.0542    0.0000 N   0  0  3  0  0  0  0  0  0  0  0  0
    1.1292   -3.3917    0.0000 N   0  0  0  0  0  0  0  0  0  0  0  0
   -1.4000   -0.8667    0.0000 C   0  0  0  0  0  0  0  0  0  0  0  0
    0.2250   -0.6167    0.0000 O   0  0  0  0  0  0  0  0  0  0  0  0
    3.6000   -3.1375    0.0000 C   0  0  0  0  0  0  0  0  0  0  0  0
   -0.6833   -3.3917    0.0000 O   0  0  0  0  0  0  0  0  0  0  0  0
   -2.6333   -1.9875    0.0000 C   0  0  0  0  0  0  0  0  0  0  0  0
    6.0667   -2.8875    0.0000 O   0  0  0  0  0  0  0  0  0  0  0  0
    3.1042   -2.4667    0.0000 C   0  0  0  0  0  0  0  0  0  0  0  0
    3.2542   -3.8917    0.0000 C   0  0  0  0  0  0  0  0  0  0  0  0
    1.9542   -3.3042    0.0000 C   0  0  0  0  0  0  0  0  0  0  0  0
   -1.6708   -3.0417    0.0000 Br  0  0  0  0  0  0  0  0  0  0  0  0
   -2.1875   -0.6167    0.0000 C   0  0  0  0  0  0  0  0  0  0  0  0
   -2.8083   -1.1667    0.0000 C   0  0  0  0  0  0  0  0  0  0  0  0
    2.4292   -3.9792    0.0000 C   0  0  0  0  0  0  0  0  0  0  0  0
    2.2792   -2.5542    0.0000 C   0  0  0  0  0  0  0  0  0  0  0  0
    4.7500   -2.2917    0.0000 C   0  0  0  0  0  0  0  0  0  0  0  0
    4.9042   -3.7292    0.0000 C   0  0  0  0  0  0  0  0  0  0  0  0
    5.7250   -3.6417    0.0000 C   0  0  0  0  0  0  0  0  0  0  0  0
    5.5792   -2.2125    0.0000 C   0  0  0  0  0  0  0  0  0  0  0  0
   -3.5958   -0.9167    0.0000 C   0  0  0  0  0  0  0  0  0  0  0  0
  2  1  1  0  0  0  0
  3  1  1  0  0  0  0
  4  3  1  0  0  0  0
  5  2  1  0  0  0  0
  6  1  1  0  0  0  0
  7  6  1  0  0  0  0
  8 12  1  0  0  0  0
  9  4  1  0  0  0  0
 10  6  2  0  0  0  0
 11  2  2  0  0  0  0
 12 16  1  0  0  0  0
 13  3  2  0  0  0  0
 14  7  2  0  0  0  0
 15 26  1  0  0  0  0
 16 23  2  0  0  0  0
 17 22  1  0  0  0  0
 18  9  1  0  0  0  0
 19  7  1  0  0  0  0
 20 10  1  0  0  0  0
 21 20  2  0  0  0  0
 22 18  2  0  0  0  0
 23 18  1  0  0  0  0
 24  8  1  0  0  0  0
 25  8  1  0  0  0  0
 26 25  1  0  0  0  0
 27 24  1  0  0  0  0
 28 21  1  0  0  0  0
  5  4  1  0  0  0  0
 21 14  1  0  0  0  0
 12 17  2  0  0  0  0
 15 27  1  0  0  0  0
M  END
> <IDNUMBER>
F1199-0084

> <Chemical_Name>
1-(2-bromo-4-methylphenyl)-3-{[4-(morpholin-4-yl)phenyl]amino}pyrrolidine-2,5-dione

> <CAS>
474006-08-1

> <PriceCoeff>
1.00

> <MW>
444.32

> <Description>
solid

> <FSP3>
0.33

> <clogP>
3.12

> <TPSA>
61.88

> <Acceptor>
5

> <Donor>
2

> <RotBonds>
4

> <HAC>
28

> <Collection>
General

$$$$
F3323-0591
  -ISIS-  06222321152D

 25 27  0  0  0  0  0  0  0  0999 V2000
    6.5750   -6.4542    0.0000 N   0  0  3  0  0  0  0  0  0  0  0  0
    5.7750   -6.2750    0.0000 C   0  0  0  0  0  0  0  0  0  0  0  0
    5.1292   -6.7792    0.0000 C   0  0  0  0  0  0  0  0  0  0  0  0
   10.5625   -4.8917    0.0000 N   0  3  0  0  0  0  0  0  0  0  0  0
    6.9292   -7.1917    0.0000 C   0  0  0  0  0  0  0  0  0  0  0  0
    7.0875   -5.8125    0.0000 C   0  0  0  0  0  0  0  0  0  0  0  0
    7.9042   -5.9375    0.0000 C   0  0  0  0  0  0  0  0  0  0  0  0
    9.7417   -4.7750    0.0000 C   0  0  0  0  0  0  0  0  0  0  0  0
    5.7667   -8.1250    0.0000 O   0  0  0  0  0  0  0  0  0  0  0  0
    5.1250   -7.6042    0.0000 C   0  0  0  0  0  0  0  0  0  0  0  0
    8.4167   -5.2917    0.0000 C   0  0  0  0  0  0  0  0  0  0  0  0
    9.2292   -5.4167    0.0000 C   0  0  0  0  0  0  0  0  0  0  0  0
   10.8625   -5.6667    0.0000 O   0  5  0  0  0  0  0  0  0  0  0  0
    5.5917   -5.4667    0.0000 O   0  0  0  0  0  0  0  0  0  0  0  0
    6.5667   -7.9417    0.0000 C   0  0  0  0  0  0  0  0  0  0  0  0
   11.0792   -4.2542    0.0000 O   0  0  0  0  0  0  0  0  0  0  0  0
    7.7542   -7.1917    0.0000 O   0  0  0  0  0  0  0  0  0  0  0  0
    8.2042   -6.7042    0.0000 O   0  0  0  0  0  0  0  0  0  0  0  0
    4.4125   -6.3667    0.0000 C   0  0  0  0  0  0  0  0  0  0  0  0
    9.4417   -4.0042    0.0000 C   0  0  0  0  0  0  0  0  0  0  0  0
    8.1125   -4.5292    0.0000 C   0  0  0  0  0  0  0  0  0  0  0  0
    8.6250   -3.8792    0.0000 C   0  0  0  0  0  0  0  0  0  0  0  0
    4.4125   -8.0250    0.0000 C   0  0  0  0  0  0  0  0  0  0  0  0
    3.7000   -6.7875    0.0000 C   0  0  0  0  0  0  0  0  0  0  0  0
    3.7000   -7.6125    0.0000 C   0  0  0  0  0  0  0  0  0  0  0  0
  2  1  1  0  0  0  0
  3  2  1  0  0  0  0
  4  8  1  0  0  0  0
  5  1  1  0  0  0  0
  6  1  1  0  0  0  0
  7  6  1  0  0  0  0
  8 12  1  0  0  0  0
  9 15  1  0  0  0  0
 10  3  1  0  0  0  0
 11  7  1  0  0  0  0
 12 11  2  0  0  0  0
 13  4  1  0  0  0  0
 14  2  2  0  0  0  0
 15  5  1  0  0  0  0
 16  4  2  0  0  0  0
 17  5  2  0  0  0  0
 18  7  2  0  0  0  0
 19  3  2  0  0  0  0
 20 22  1  0  0  0  0
 21 11  1  0  0  0  0
 22 21  2  0  0  0  0
 23 10  2  0  0  0  0
 24 19  1  0  0  0  0
 25 24  2  0  0  0  0
 10  9  1  0  0  0  0
 23 25  1  0  0  0  0
  8 20  2  0  0  0  0
M  CHG  2   4   1  13  -1
M  END
> <IDNUMBER>
F3323-0591

> <Chemical_Name>
4-[2-(3-nitrophenyl)-2-oxoethyl]-2,3,4,5-tetrahydro-1,4-benzoxazepine-3,5-dione

> <CAS>
904510-66-3

> <PriceCoeff>
1.00

> <MW>
340.29

> <Description>
solid

> <FSP3>
0.12

> <clogP>
2.45

> <TPSA>
106.82

> <Acceptor>
6

> <Donor>
0

> <RotBonds>
4

> <HAC>
25

> <Collection>
General

$$$$
F1383-0023
  -ISIS-  06222321142D

 29 31  0  0  0  0  0  0  0  0999 V2000
    2.5500   -0.6417    0.0000 N   0  0  3  0  0  0  0  0  0  0  0  0
    2.8000   -1.4292    0.0000 C   0  0  0  0  0  0  0  0  0  0  0  0
    3.2167   -0.1542    0.0000 C   0  0  0  0  0  0  0  0  0  0  0  0
    3.6292   -1.4292    0.0000 C   0  0  3  0  0  0  0  0  0  0  0  0
    4.9417   -2.0167    0.0000 C   0  0  0  0  0  0  0  0  0  0  0  0
    3.8917   -0.6417    0.0000 C   0  0  0  0  0  0  0  0  0  0  0  0
    5.4292   -2.6917    0.0000 C   0  0  0  0  0  0  0  0  0  0  0  0
    4.1167   -2.1042    0.0000 S   0  0  0  0  0  0  0  0  0  0  0  0
    5.0875   -3.4417    0.0000 C   0  0  0  0  0  0  0  0  0  0  0  0
    1.7625   -0.3917    0.0000 C   0  0  0  0  0  0  0  0  0  0  0  0
    5.2750   -1.2625    0.0000 N   0  0  0  0  0  0  0  0  0  0  0  0
   -1.0250   -0.9792    0.0000 C   0  0  0  0  0  0  0  0  0  0  0  0
    2.3167   -2.1042    0.0000 O   0  0  0  0  0  0  0  0  0  0  0  0
    3.2167    0.6750    0.0000 O   0  0  0  0  0  0  0  0  0  0  0  0
   -1.2000   -0.1750    0.0000 C   0  0  0  0  0  0  0  0  0  0  0  0
    5.5667   -4.1167    0.0000 O   0  0  0  0  0  0  0  0  0  0  0  0
   -0.2458   -1.2375    0.0000 C   0  0  0  0  0  0  0  0  0  0  0  0
   -0.5875    0.3833    0.0000 C   0  0  0  0  0  0  0  0  0  0  0  0
    0.3667   -0.6875    0.0000 C   0  0  0  0  0  0  0  0  0  0  0  0
    1.1500   -0.9417    0.0000 C   0  0  0  0  0  0  0  0  0  0  0  0
    4.2625   -3.5292    0.0000 O   0  0  0  0  0  0  0  0  0  0  0  0
    0.1917    0.1208    0.0000 C   0  0  0  0  0  0  0  0  0  0  0  0
   -1.6375   -1.5375    0.0000 O   0  0  0  0  0  0  0  0  0  0  0  0
    6.2542   -2.6000    0.0000 C   0  0  0  0  0  0  0  0  0  0  0  0
   -1.9833    0.0833    0.0000 O   0  0  0  0  0  0  0  0  0  0  0  0
    6.0917   -1.1750    0.0000 C   0  0  0  0  0  0  0  0  0  0  0  0
   -2.4250   -1.2792    0.0000 C   0  0  0  0  0  0  0  0  0  0  0  0
   -2.1583    0.8875    0.0000 C   0  0  0  0  0  0  0  0  0  0  0  0
    6.5917   -1.8417    0.0000 C   0  0  0  0  0  0  0  0  0  0  0  0
  2  1  1  0  0  0  0
  3  1  1  0  0  0  0
  4  2  1  0  0  0  0
  5  8  1  0  0  0  0
  6  3  1  0  0  0  0
  7  5  2  0  0  0  0
  8  4  1  0  0  0  0
  9  7  1  0  0  0  0
 10  1  1  0  0  0  0
 11  5  1  0  0  0  0
 12 17  2  0  0  0  0
 13  2  2  0  0  0  0
 14  3  2  0  0  0  0
 15 18  2  0  0  0  0
 16  9  2  0  0  0  0
 17 19  1  0  0  0  0
 18 22  1  0  0  0  0
 19 20  1  0  0  0  0
 20 10  1  0  0  0  0
 21  9  1  0  0  0  0
 22 19  2  0  0  0  0
 23 12  1  0  0  0  0
 24  7  1  0  0  0  0
 25 15  1  0  0  0  0
 26 11  2  0  0  0  0
 27 23  1  0  0  0  0
 28 25  1  0  0  0  0
 29 26  1  0  0  0  0
  6  4  1  0  0  0  0
 15 12  1  0  0  0  0
 29 24  2  0  0  0  0
M  END
> <IDNUMBER>
F1383-0023

> <Chemical_Name>
2-({1-[2-(3,4-dimethoxyphenyl)ethyl]-2,5-dioxopyrrolidin-3-yl}sulfanyl)pyridine-3-carboxylic acid

> <CAS>
685130-30-7

> <PriceCoeff>
1.00

> <MW>
416.45

> <Description>
solid

> <FSP3>
0.30

> <clogP>
2.43

> <TPSA>
131.33

> <Acceptor>
7

> <Donor>
1

> <RotBonds>
8

> <HAC>
29

> <Collection>
General

$$$$
F0182-0152
  -ISIS-  06222304342D

 26 27  0  0  0  0  0  0  0  0999 V2000
    3.1875   -1.3167    0.0000 C   0  0  0  0  0  0  0  0  0  0  0  0
    3.1875   -2.1542    0.0000 C   0  0  0  0  0  0  0  0  0  0  0  0
    2.4667   -0.9042    0.0000 C   0  0  3  0  0  0  0  0  0  0  0  0
    2.4667   -2.5667    0.0000 N   0  0  0  0  0  0  0  0  0  0  0  0
    1.0417   -0.0667    0.0000 N   0  3  0  0  0  0  0  0  0  0  0  0
    2.4667   -0.0792    0.0000 C   0  0  0  0  0  0  0  0  0  0  0  0
    1.7500    0.3333    0.0000 C   0  0  0  0  0  0  0  0  0  0  0  0
    1.7500   -2.1542    0.0000 C   0  0  0  0  0  0  0  0  0  0  0  0
    3.9000   -0.9042    0.0000 C   0  0  0  0  0  0  0  0  0  0  0  0
    4.6125   -0.4917    0.0000 N   0  0  0  0  0  0  0  0  0  0  0  0
    1.7500   -1.3167    0.0000 C   0  0  0  0  0  0  0  0  0  0  0  0
    0.2917    0.2708    0.0000 O   0  5  0  0  0  0  0  0  0  0  0  0
    0.9875   -0.8917    0.0000 O   0  0  0  0  0  0  0  0  0  0  0  0
    3.8917   -2.5542    0.0000 S   0  0  0  0  0  0  0  0  0  0  0  0
    1.0417   -2.5542    0.0000 O   0  0  0  0  0  0  0  0  0  0  0  0
    3.1875    0.3333    0.0000 C   0  0  0  0  0  0  0  0  0  0  0  0
    1.7500    1.1708    0.0000 C   0  0  0  0  0  0  0  0  0  0  0  0
    3.1875    1.1708    0.0000 C   0  0  0  0  0  0  0  0  0  0  0  0
    2.4667    1.5833    0.0000 C   0  0  0  0  0  0  0  0  0  0  0  0
    6.7167   -1.1166    0.0000 N   0  0  3  0  0  0  0  0  0  0  0  0
    6.7167    0.5375    0.0000 O   0  0  0  0  0  0  0  0  0  0  0  0
    7.4334   -0.7041    0.0000 C   0  0  0  0  0  0  0  0  0  0  0  0
    6.0042   -0.7041    0.0000 C   0  0  0  0  0  0  0  0  0  0  0  0
    6.7167   -1.9416    0.0000 C   0  0  0  0  0  0  0  0  0  0  0  0
    6.0042    0.1250    0.0000 C   0  0  0  0  0  0  0  0  0  0  0  0
    7.4334    0.1250    0.0000 C   0  0  0  0  0  0  0  0  0  0  0  0
  9  1  1  0  0  0  0
 10  9  3  0  0  0  0
 11  3  1  0  0  0  0
 12  5  1  0  0  0  0
 13  5  2  0  0  0  0
 14  2  1  0  0  0  0
 15  8  2  0  0  0  0
 16  6  1  0  0  0  0
 17  7  1  0  0  0  0
 18 16  2  0  0  0  0
 19 18  1  0  0  0  0
  4  8  1  0  0  0  0
 19 17  2  0  0  0  0
  2  1  2  0  0  0  0
  3  1  1  0  0  0  0
  4  2  1  0  0  0  0
  5  7  1  0  0  0  0
  6  3  1  0  0  0  0
  7  6  2  0  0  0  0
  8 11  1  0  0  0  0
 21 25  1  0  0  0  0
 22 20  1  0  0  0  0
 23 20  1  0  0  0  0
 24 20  1  0  0  0  0
 25 23  1  0  0  0  0
 26 22  1  0  0  0  0
 26 21  1  0  0  0  0
M  CHG  2   5   1  12  -1
M  END
> <IDNUMBER>
F0182-0152

> <Chemical_Name>
4-(2-nitrophenyl)-6-oxo-2-sulfanyl-1,4,5,6-tetrahydropyridine-3-carbonitrile; 4-methylmorpholine

> <CAS>
1330296-44-0

> <PriceCoeff>
1.00

> <MW>
275.28

> <Description>
solid

> <FSP3>
0.17

> <clogP>
0.65

> <TPSA>
134.83

> <Acceptor>
4

> <Donor>
2

> <RotBonds>
2

> <HAC>
19

> <Collection>
General

> <Reference_compound>
PRI4279

> <Similarity>
0.8180

$$$$
F1199-0099
  -ISIS-  06222321452D

 30 33  0  0  0  0  0  0  0  0999 V2000
   -0.6333   -0.8042    0.0000 N   0  0  3  0  0  0  0  0  0  0  0  0
    0.0375   -0.3167    0.0000 C   0  0  0  0  0  0  0  0  0  0  0  0
   -0.3833   -1.5917    0.0000 C   0  0  0  0  0  0  0  0  0  0  0  0
   -1.4208   -0.5417    0.0000 C   0  0  0  0  0  0  0  0  0  0  0  0
   -3.4333   -1.4042    0.0000 N   0  3  0  0  0  0  0  0  0  0  0  0
    0.4500   -1.5917    0.0000 C   0  0  3  0  0  0  0  0  0  0  0  0
    0.7042   -0.8042    0.0000 C   0  0  0  0  0  0  0  0  0  0  0  0
   -2.0333   -1.1042    0.0000 C   0  0  0  0  0  0  0  0  0  0  0  0
   -2.8208   -0.8542    0.0000 C   0  0  0  0  0  0  0  0  0  0  0  0
    4.2292   -1.9167    0.0000 N   0  0  3  0  0  0  0  0  0  0  0  0
    0.9375   -2.2625    0.0000 N   0  0  0  0  0  0  0  0  0  0  0  0
   -4.2208   -1.1542    0.0000 O   0  5  0  0  0  0  0  0  0  0  0  0
   -1.5958    0.2625    0.0000 C   0  0  0  0  0  0  0  0  0  0  0  0
    0.0292    0.5125    0.0000 O   0  0  0  0  0  0  0  0  0  0  0  0
    3.4042   -2.0042    0.0000 C   0  0  0  0  0  0  0  0  0  0  0  0
   -3.2583   -2.2167    0.0000 O   0  0  0  0  0  0  0  0  0  0  0  0
   -0.8708   -2.2625    0.0000 O   0  0  0  0  0  0  0  0  0  0  0  0
   -2.9958   -0.0292    0.0000 C   0  0  0  0  0  0  0  0  0  0  0  0
   -2.3833    0.5208    0.0000 C   0  0  0  0  0  0  0  0  0  0  0  0
    5.8750   -1.7542    0.0000 O   0  0  0  0  0  0  0  0  0  0  0  0
    3.0667   -2.7625    0.0000 C   0  0  0  0  0  0  0  0  0  0  0  0
    2.9125   -1.3292    0.0000 C   0  0  0  0  0  0  0  0  0  0  0  0
    1.7625   -2.1750    0.0000 C   0  0  0  0  0  0  0  0  0  0  0  0
    2.2417   -2.8500    0.0000 C   0  0  0  0  0  0  0  0  0  0  0  0
    2.0917   -1.4167    0.0000 C   0  0  0  0  0  0  0  0  0  0  0  0
    4.5542   -1.1625    0.0000 C   0  0  0  0  0  0  0  0  0  0  0  0
    4.7125   -2.5917    0.0000 C   0  0  0  0  0  0  0  0  0  0  0  0
    5.5292   -2.5125    0.0000 C   0  0  0  0  0  0  0  0  0  0  0  0
    5.3875   -1.0792    0.0000 C   0  0  0  0  0  0  0  0  0  0  0  0
   -0.9833    0.8125    0.0000 C   0  0  0  0  0  0  0  0  0  0  0  0
  2  1  1  0  0  0  0
  3  1  1  0  0  0  0
  4  1  1  0  0  0  0
  5  9  1  0  0  0  0
  6  3  1  0  0  0  0
  7  2  1  0  0  0  0
  8  4  1  0  0  0  0
  9  8  2  0  0  0  0
 10 15  1  0  0  0  0
 11  6  1  0  0  0  0
 12  5  1  0  0  0  0
 13  4  2  0  0  0  0
 14  2  2  0  0  0  0
 15 22  1  0  0  0  0
 16  5  2  0  0  0  0
 17  3  2  0  0  0  0
 18 19  2  0  0  0  0
 19 13  1  0  0  0  0
 20 28  1  0  0  0  0
 21 24  1  0  0  0  0
 22 25  2  0  0  0  0
 23 11  1  0  0  0  0
 24 23  2  0  0  0  0
 25 23  1  0  0  0  0
 26 10  1  0  0  0  0
 27 10  1  0  0  0  0
 28 27  1  0  0  0  0
 29 26  1  0  0  0  0
 30 13  1  0  0  0  0
  7  6  1  0  0  0  0
 18  9  1  0  0  0  0
 15 21  2  0  0  0  0
 20 29  1  0  0  0  0
M  CHG  2   5   1  12  -1
M  END
> <IDNUMBER>
F1199-0099

> <Chemical_Name>
1-(2-methyl-5-nitrophenyl)-3-{[4-(morpholin-4-yl)phenyl]amino}pyrrolidine-2,5-dione

> <CAS>
474006-25-2

> <PriceCoeff>
1.00

> <MW>
410.42

> <Description>
solid

> <FSP3>
0.33

> <clogP>
2.38

> <TPSA>
105.02

> <Acceptor>
7

> <Donor>
2

> <RotBonds>
5

> <HAC>
30

> <Collection>
General

$$$$
F0381-3715
  -ISIS-  06222321142D

 13 14  0  0  0  0  0  0  0  0999 V2000
    0.0542   -0.6500    0.0000 C   0  0  0  0  0  0  0  0  0  0  0  0
    0.0542    0.9125    0.0000 C   0  0  0  0  0  0  0  0  0  0  0  0
   -1.2958   -1.4500    0.0000 N   0  0  3  0  0  0  0  0  0  0  0  0
    1.5500   -1.1500    0.0000 N   0  0  0  0  0  0  0  0  0  0  0  0
   -2.6625   -0.6500    0.0000 C   0  0  0  0  0  0  0  0  0  0  0  0
   -2.6625    0.9125    0.0000 N   0  0  0  0  0  0  0  0  0  0  0  0
   -1.2958    1.7000    0.0000 C   0  0  0  0  0  0  0  0  0  0  0  0
    2.4417    0.1333    0.0000 C   0  0  0  0  0  0  0  0  0  0  0  0
    1.5500    1.4000    0.0000 N   0  0  0  0  0  0  0  0  0  0  0  0
   -4.0500   -1.4500    0.0000 O   0  0  0  0  0  0  0  0  0  0  0  0
   -1.2958    3.2708    0.0000 O   0  0  0  0  0  0  0  0  0  0  0  0
    4.0167    0.1333    0.0000 Br  0  0  0  0  0  0  0  0  0  0  0  0
   -1.2958   -3.0042    0.0000 C   0  0  0  0  0  0  0  0  0  0  0  0
  2  1  2  0  0  0  0
  3  1  1  0  0  0  0
  4  1  1  0  0  0  0
  5  3  1  0  0  0  0
  6  5  1  0  0  0  0
  7  2  1  0  0  0  0
  8  4  2  0  0  0  0
  9  2  1  0  0  0  0
 10  5  2  0  0  0  0
 11  7  2  0  0  0  0
 12  8  1  0  0  0  0
 13  3  1  0  0  0  0
  9  8  1  0  0  0  0
  6  7  1  0  0  0  0
M  END
> <IDNUMBER>
F0381-3715

> <Chemical_Name>
8-bromo-3-methyl-2,3,6,7-tetrahydro-1H-purine-2,6-dione

> <CAS>
93703-24-3

> <PriceCoeff>
1.00

> <MW>
245.03

> <Description>
solid

> <FSP3>
0.17

> <clogP>
0.30

> <TPSA>
78.09

> <Acceptor>
4

> <Donor>
3

> <RotBonds>
0

> <HAC>
13

> <Collection>
General

> <Reference_compound>
CHEMBL190

> <Similarity>
0.8710

$$$$
F3139-1630
  -ISIS-  06222321152D

 22 24  0  0  0  0  0  0  0  0999 V2000
    4.8792    0.9625    0.0000 C   0  0  0  0  0  0  0  0  0  0  0  0
    4.1667    0.5500    0.0000 C   0  0  0  0  0  0  0  0  0  0  0  0
    3.4542    0.9583    0.0000 C   0  0  0  0  0  0  0  0  0  0  0  0
    4.8750    1.7833    0.0000 C   0  0  0  0  0  0  0  0  0  0  0  0
    3.4542    1.7750    0.0000 C   0  0  0  0  0  0  0  0  0  0  0  0
    4.1625    2.1958    0.0000 O   0  0  0  0  0  0  0  0  0  0  0  0
    2.7417    2.1958    0.0000 C   0  0  0  0  0  0  0  0  0  0  0  0
    5.6000    0.5458    0.0000 C   0  0  0  0  0  0  0  0  0  0  0  0
    2.7417    0.5458    0.0000 C   0  0  0  0  0  0  0  0  0  0  0  0
    1.3042    3.0208    0.0000 C   0  0  0  0  0  0  0  0  0  0  0  0
    4.1667   -0.2792    0.0000 O   0  0  0  0  0  0  0  0  0  0  0  0
    2.0292    1.7750    0.0000 C   0  0  0  0  0  0  0  0  0  0  0  0
    1.3042    2.1958    0.0000 O   0  0  0  0  0  0  0  0  0  0  0  0
    2.0167    3.4333    0.0000 O   0  0  0  0  0  0  0  0  0  0  0  0
    5.6000   -0.2792    0.0000 C   0  0  0  0  0  0  0  0  0  0  0  0
    6.3125    0.9583    0.0000 C   0  0  0  0  0  0  0  0  0  0  0  0
    2.0292    0.9583    0.0000 C   0  0  0  0  0  0  0  0  0  0  0  0
    7.0292   -0.2792    0.0000 C   0  0  0  0  0  0  0  0  0  0  0  0
    7.0250    0.5500    0.0000 C   0  0  0  0  0  0  0  0  0  0  0  0
    6.3125   -0.6917    0.0000 C   0  0  0  0  0  0  0  0  0  0  0  0
    7.7417   -0.6917    0.0000 Br  0  0  0  0  0  0  0  0  0  0  0  0
    0.5917    3.4333    0.0000 C   0  0  0  0  0  0  0  0  0  0  0  0
  2  1  1  0  0  0  0
  3  2  1  0  0  0  0
  4  1  2  0  0  0  0
  5  6  1  0  0  0  0
  6  4  1  0  0  0  0
  7  5  2  0  0  0  0
  8  1  1  0  0  0  0
  9  3  2  0  0  0  0
 10 13  1  0  0  0  0
 11  2  2  0  0  0  0
 12  7  1  0  0  0  0
 13 12  1  0  0  0  0
 14 10  2  0  0  0  0
 15  8  2  0  0  0  0
 16  8  1  0  0  0  0
 17  9  1  0  0  0  0
 18 19  1  0  0  0  0
 19 16  2  0  0  0  0
 20 15  1  0  0  0  0
 21 18  1  0  0  0  0
 22 10  1  0  0  0  0
 18 20  2  0  0  0  0
  3  5  1  0  0  0  0
 17 12  2  0  0  0  0
M  END
> <IDNUMBER>
F3139-1630

> <Chemical_Name>
3-(4-bromophenyl)-4-oxo-4H-chromen-7-yl acetate

> <CAS>
610752-08-4

> <PriceCoeff>
1.00

> <MW>
359.17

> <Description>
solid

> <FSP3>
0.06

> <clogP>
3.38

> <TPSA>
52.60

> <Acceptor>
4

> <Donor>
0

> <RotBonds>
3

> <HAC>
22

> <Collection>
General

> <Reference_compound>
CHEMBL44

> <Similarity>
0.8300

$$$$
F0391-0007
  -ISIS-  06222321442D

 10 10  0  0  0  0  0  0  0  0999 V2000
   -3.1458    2.5625    0.0000 C   0  0  0  0  0  0  0  0  0  0  0  0
   -3.8500    2.9958    0.0000 O   0  0  0  0  0  0  0  0  0  0  0  0
   -3.0625    0.1708    0.0000 N   0  0  0  0  0  0  0  0  0  0  0  0
   -3.0625    2.0500    0.0000 C   0  0  0  0  0  0  0  0  0  0  0  0
   -2.4708    3.1083    0.0000 N   0  0  0  0  0  0  0  0  0  0  0  0
   -2.0208    2.6958    0.0000 N   0  0  0  0  0  0  0  0  0  0  0  0
   -3.8708    0.6458    0.0000 C   0  0  0  0  0  0  0  0  0  0  0  0
   -2.2500    0.6458    0.0000 C   0  0  0  0  0  0  0  0  0  0  0  0
   -2.2500    1.5833    0.0000 C   0  0  0  0  0  0  0  0  0  0  0  0
   -3.8708    1.5833    0.0000 C   0  0  0  0  0  0  0  0  0  0  0  0
  2  1  2  0  0  0  0
  3  7  2  0  0  0  0
  4  1  1  0  0  0  0
  5  1  1  0  0  0  0
  6  5  1  0  0  0  0
  7 10  1  0  0  0  0
  8  9  2  0  0  0  0
  9  4  1  0  0  0  0
 10  4  2  0  0  0  0
  3  8  1  0  0  0  0
M  END
> <IDNUMBER>
F0391-0007

> <Chemical_Name>
pyridine-4-carbohydrazide

> <CAS>
54-85-3

> <PriceCoeff>
1.00

> <MW>
137.14

> <Description>
solid

> <FSP3>
0.00

> <clogP>
-0.67

> <TPSA>
68.01

> <Acceptor>
2

> <Donor>
3

> <RotBonds>
1

> <HAC>
10

> <Collection>
General

> <Reference_compound>
CHEMBL64

> <Similarity>
1.0000

$$$$
F3139-0633
  -ISIS-  06222321442D

 20 22  0  0  0  0  0  0  0  0999 V2000
    5.2750   -0.4292    0.0000 C   0  0  0  0  0  0  0  0  0  0  0  0
    5.2750   -1.2667    0.0000 C   0  0  0  0  0  0  0  0  0  0  0  0
    4.5542   -0.0125    0.0000 O   0  0  0  0  0  0  0  0  0  0  0  0
    3.8292   -1.2667    0.0000 C   0  0  0  0  0  0  0  0  0  0  0  0
    4.5500   -1.6792    0.0000 C   0  0  0  0  0  0  0  0  0  0  0  0
    3.8375   -0.4292    0.0000 C   0  0  0  0  0  0  0  0  0  0  0  0
    5.9875   -0.0250    0.0000 C   0  0  0  0  0  0  0  0  0  0  0  0
    3.1167   -1.6750    0.0000 C   0  0  0  0  0  0  0  0  0  0  0  0
    4.5500   -2.5042    0.0000 O   0  0  0  0  0  0  0  0  0  0  0  0
    6.7042   -0.4417    0.0000 C   0  0  0  0  0  0  0  0  0  0  0  0
    3.1167   -0.0167    0.0000 C   0  0  0  0  0  0  0  0  0  0  0  0
    2.4042   -1.2625    0.0000 C   0  0  0  0  0  0  0  0  0  0  0  0
    2.4042   -0.4375    0.0000 C   0  0  0  0  0  0  0  0  0  0  0  0
    1.6917   -1.6750    0.0000 Br  0  0  0  0  0  0  0  0  0  0  0  0
    6.7000   -1.2625    0.0000 O   0  0  0  0  0  0  0  0  0  0  0  0
    5.9917    0.7958    0.0000 C   0  0  0  0  0  0  0  0  0  0  0  0
    7.4167   -0.0292    0.0000 C   0  0  0  0  0  0  0  0  0  0  0  0
    7.4125   -1.6792    0.0000 C   0  0  0  0  0  0  0  0  0  0  0  0
    6.7042    1.2083    0.0000 C   0  0  0  0  0  0  0  0  0  0  0  0
    7.4167    0.7958    0.0000 C   0  0  0  0  0  0  0  0  0  0  0  0
  2  1  2  0  0  0  0
  3  1  1  0  0  0  0
  4  6  1  0  0  0  0
  5  2  1  0  0  0  0
  6  3  1  0  0  0  0
  7  1  1  0  0  0  0
  8  4  2  0  0  0  0
  9  5  2  0  0  0  0
 10  7  2  0  0  0  0
 11  6  2  0  0  0  0
 12 13  2  0  0  0  0
 13 11  1  0  0  0  0
 14 12  1  0  0  0  0
 15 10  1  0  0  0  0
 16  7  1  0  0  0  0
 17 10  1  0  0  0  0
 18 15  1  0  0  0  0
 19 16  2  0  0  0  0
 20 19  1  0  0  0  0
  4  5  1  0  0  0  0
 17 20  2  0  0  0  0
 12  8  1  0  0  0  0
M  END
> <IDNUMBER>
F3139-0633

> <Chemical_Name>
6-bromo-2-(2-methoxyphenyl)-4H-chromen-4-one

> <CAS>
88952-77-6

> <PriceCoeff>
1.00

> <MW>
331.16

> <Description>
solid

> <FSP3>
0.06

> <clogP>
3.75

> <TPSA>
35.53

> <Acceptor>
3

> <Donor>
0

> <RotBonds>
2

> <HAC>
20

> <Collection>
General

> <Reference_compound>
CHEMBL275638

> <Similarity>
0.8280

$$$$
F3385-1172
  -ISIS-  06222321152D

 29 32  0  0  0  0  0  0  0  0999 V2000
    1.8792   -0.8125    0.0000 C   0  0  0  0  0  0  0  0  0  0  0  0
    0.4417    0.0125    0.0000 C   0  0  0  0  0  0  0  0  0  0  0  0
    0.4417   -0.8167    0.0000 C   0  0  0  0  0  0  0  0  0  0  0  0
    1.1625   -1.2292    0.0000 C   0  0  0  0  0  0  0  0  0  0  0  0
   -0.2750    0.4250    0.0000 C   0  0  0  0  0  0  0  0  0  0  0  0
    1.1542    0.4375    0.0000 O   0  0  0  0  0  0  0  0  0  0  0  0
    1.8792    0.0208    0.0000 C   0  0  0  0  0  0  0  0  0  0  0  0
   -0.9958    1.6583    0.0000 N   0  0  3  0  0  0  0  0  0  0  0  0
   -0.2833    1.2500    0.0000 C   0  0  0  0  0  0  0  0  0  0  0  0
   -0.2750   -1.2292    0.0000 C   0  0  0  0  0  0  0  0  0  0  0  0
    2.5917   -1.2250    0.0000 C   0  0  0  0  0  0  0  0  0  0  0  0
   -0.9875    0.0125    0.0000 C   0  0  0  0  0  0  0  0  0  0  0  0
   -2.4208    2.4833    0.0000 N   0  0  3  0  0  0  0  0  0  0  0  0
    1.1667   -2.0542    0.0000 O   0  0  0  0  0  0  0  0  0  0  0  0
   -0.9875   -0.8167    0.0000 C   0  0  0  0  0  0  0  0  0  0  0  0
    2.5917   -2.0500    0.0000 C   0  0  0  0  0  0  0  0  0  0  0  0
    3.3042   -0.8042    0.0000 C   0  0  0  0  0  0  0  0  0  0  0  0
   -0.9958    2.4833    0.0000 C   0  0  0  0  0  0  0  0  0  0  0  0
   -1.7083    1.2458    0.0000 C   0  0  0  0  0  0  0  0  0  0  0  0
   -2.4208    1.6583    0.0000 C   0  0  0  0  0  0  0  0  0  0  0  0
   -1.7083    2.8958    0.0000 C   0  0  0  0  0  0  0  0  0  0  0  0
    4.0250   -2.0417    0.0000 C   0  0  0  0  0  0  0  0  0  0  0  0
    4.0167   -1.2167    0.0000 C   0  0  0  0  0  0  0  0  0  0  0  0
    3.3125   -2.4542    0.0000 C   0  0  0  0  0  0  0  0  0  0  0  0
   -1.7000    0.4208    0.0000 O   0  0  0  0  0  0  0  0  0  0  0  0
    4.7375   -2.4542    0.0000 O   0  0  0  0  0  0  0  0  0  0  0  0
   -3.1333    2.8958    0.0000 C   0  0  0  0  0  0  0  0  0  0  0  0
    5.4500   -2.0375    0.0000 C   0  0  0  0  0  0  0  0  0  0  0  0
   -3.8500    2.4875    0.0000 C   0  0  0  0  0  0  0  0  0  0  0  0
  2  6  1  0  0  0  0
  3  4  1  0  0  0  0
  4  1  1  0  0  0  0
  5  2  2  0  0  0  0
  6  7  1  0  0  0  0
  7  1  2  0  0  0  0
  8  9  1  0  0  0  0
  9  5  1  0  0  0  0
 10  3  2  0  0  0  0
 11  1  1  0  0  0  0
 12  5  1  0  0  0  0
 13 20  1  0  0  0  0
 14  4  2  0  0  0  0
 15 10  1  0  0  0  0
 16 11  2  0  0  0  0
 17 11  1  0  0  0  0
 18  8  1  0  0  0  0
 19  8  1  0  0  0  0
 20 19  1  0  0  0  0
 21 18  1  0  0  0  0
 22 23  1  0  0  0  0
 23 17  2  0  0  0  0
 24 16  1  0  0  0  0
 25 12  1  0  0  0  0
 26 22  1  0  0  0  0
 27 13  1  0  0  0  0
 28 26  1  0  0  0  0
 29 27  1  0  0  0  0
  2  3  1  0  0  0  0
 24 22  2  0  0  0  0
 12 15  2  0  0  0  0
 21 13  1  0  0  0  0
M  END
> <IDNUMBER>
F3385-1172

> <Chemical_Name>
8-[(4-ethylpiperazin-1-yl)methyl]-7-hydroxy-3-(4-methoxyphenyl)-4H-chromen-4-one

> <CAS>
847181-00-4

> <PriceCoeff>
1.00

> <MW>
394.46

> <Description>
solid

> <FSP3>
0.35

> <clogP>
3.43

> <TPSA>
62.24

> <Acceptor>
6

> <Donor>
3

> <RotBonds>
5

> <HAC>
29

> <Collection>
General

> <Reference_compound>
CHEMBL463936

> <Similarity>
0.8000

$$$$
F0196-0664
  -ISIS-  06222321142D

 20 22  0  0  0  0  0  0  0  0999 V2000
   -0.5125    1.1708    0.0000 C   0  0  0  0  0  0  0  0  0  0  0  0
   -1.0708    0.8500    0.0000 C   0  0  0  0  0  0  0  0  0  0  0  0
   -1.6500    1.1708    0.0000 C   0  0  0  0  0  0  0  0  0  0  0  0
   -0.5125    1.8333    0.0000 C   0  0  0  0  0  0  0  0  0  0  0  0
   -1.6500    1.8333    0.0000 C   0  0  0  0  0  0  0  0  0  0  0  0
   -1.0708    2.1708    0.0000 O   0  0  0  0  0  0  0  0  0  0  0  0
    0.0500    0.8500    0.0000 C   0  0  0  0  0  0  0  0  0  0  0  0
   -2.2125    0.8500    0.0000 C   0  0  0  0  0  0  0  0  0  0  0  0
   -2.2125    2.1708    0.0000 C   0  0  0  0  0  0  0  0  0  0  0  0
   -1.0500    0.1958    0.0000 O   0  0  0  0  0  0  0  0  0  0  0  0
    0.0667    0.1958    0.0000 C   0  0  0  0  0  0  0  0  0  0  0  0
    0.6292    1.1958    0.0000 C   0  0  0  0  0  0  0  0  0  0  0  0
   -2.7708    1.8333    0.0000 C   0  0  0  0  0  0  0  0  0  0  0  0
   -2.7708    1.1708    0.0000 C   0  0  0  0  0  0  0  0  0  0  0  0
    1.2042    0.1958    0.0000 C   0  0  0  0  0  0  0  0  0  0  0  0
    1.1875    0.8500    0.0000 C   0  0  0  0  0  0  0  0  0  0  0  0
    0.6500   -0.1500    0.0000 C   0  0  0  0  0  0  0  0  0  0  0  0
    1.7875   -0.1500    0.0000 Br  0  0  0  0  0  0  0  0  0  0  0  0
   -3.3500    2.1958    0.0000 O   0  0  0  0  0  0  0  0  0  0  0  0
   -3.9333    1.8708    0.0000 C   0  0  0  0  0  0  0  0  0  0  0  0
  2  1  1  0  0  0  0
  3  2  1  0  0  0  0
  4  1  2  0  0  0  0
  5  6  1  0  0  0  0
  6  4  1  0  0  0  0
  7  1  1  0  0  0  0
  8  3  1  0  0  0  0
  9  5  1  0  0  0  0
 10  2  2  0  0  0  0
 11  7  1  0  0  0  0
 12  7  2  0  0  0  0
 13  9  2  0  0  0  0
 14  8  2  0  0  0  0
 15 16  2  0  0  0  0
 16 12  1  0  0  0  0
 17 11  2  0  0  0  0
 18 15  1  0  0  0  0
 19 13  1  0  0  0  0
 20 19  1  0  0  0  0
 17 15  1  0  0  0  0
  3  5  2  0  0  0  0
 14 13  1  0  0  0  0
M  END
> <IDNUMBER>
F0196-0664

> <Chemical_Name>
3-(4-bromophenyl)-7-methoxy-4H-chromen-4-one

> <CAS>
105258-03-5

> <PriceCoeff>
1.00

> <MW>
331.16

> <Description>
solid

> <FSP3>
0.06

> <clogP>
3.95

> <TPSA>
35.53

> <Acceptor>
3

> <Donor>
0

> <RotBonds>
2

> <HAC>
20

> <Collection>
General

> <Reference_compound>
CHEMBL44

> <Similarity>
0.8880

$$$$
F3205-0003
  -ISIS-  06222321152D

 28 30  0  0  0  0  0  0  0  0999 V2000
    4.3417   -6.1292    0.0000 N   0  0  3  0  0  0  0  0  0  0  0  0
    4.8375   -6.8000    0.0000 C   0  0  0  0  0  0  0  0  0  0  0  0
    4.8292   -5.4625    0.0000 C   0  0  0  0  0  0  0  0  0  0  0  0
    5.6167   -6.5375    0.0000 C   0  0  3  0  0  0  0  0  0  0  0  0
    5.6167   -5.7125    0.0000 C   0  0  0  0  0  0  0  0  0  0  0  0
    8.2792   -8.4625    0.0000 C   0  0  0  0  0  0  0  0  0  0  0  0
    7.6125   -7.9750    0.0000 N   0  0  3  0  0  0  0  0  0  0  0  0
    6.2792   -7.0167    0.0000 N   0  0  3  0  0  0  0  0  0  0  0  0
    3.5250   -6.1375    0.0000 C   0  0  0  0  0  0  0  0  0  0  0  0
    8.1917   -9.2792    0.0000 O   0  0  0  0  0  0  0  0  0  0  0  0
    4.5792   -7.5792    0.0000 O   0  0  0  0  0  0  0  0  0  0  0  0
    4.5667   -4.6792    0.0000 O   0  0  0  0  0  0  0  0  0  0  0  0
    9.0292   -8.1250    0.0000 O   0  0  0  0  0  0  0  0  0  0  0  0
    7.6917   -7.1542    0.0000 C   0  0  0  0  0  0  0  0  0  0  0  0
    6.8542   -8.3042    0.0000 C   0  0  0  0  0  0  0  0  0  0  0  0
    7.0292   -6.6750    0.0000 C   0  0  0  0  0  0  0  0  0  0  0  0
    6.1917   -7.8292    0.0000 C   0  0  0  0  0  0  0  0  0  0  0  0
    8.8625   -9.7667    0.0000 C   0  0  3  0  0  0  0  0  0  0  0  0
    3.1042   -5.4250    0.0000 C   0  0  0  0  0  0  0  0  0  0  0  0
    2.2792   -5.4292    0.0000 C   0  0  0  0  0  0  0  0  0  0  0  0
    8.7792  -10.5875    0.0000 C   0  0  0  0  0  0  0  0  0  0  0  0
    9.6167   -9.4292    0.0000 C   0  0  0  0  0  0  0  0  0  0  0  0
    8.2167  -10.2875    0.0000 C   0  0  0  0  0  0  0  0  0  0  0  0
    1.8667   -4.7167    0.0000 C   0  0  0  0  0  0  0  0  0  0  0  0
    1.8792   -6.1500    0.0000 C   0  0  0  0  0  0  0  0  0  0  0  0
    1.0542   -6.1542    0.0000 C   0  0  0  0  0  0  0  0  0  0  0  0
    1.0417   -4.7250    0.0000 C   0  0  0  0  0  0  0  0  0  0  0  0
    0.6292   -5.4417    0.0000 C   0  0  0  0  0  0  0  0  0  0  0  0
  2  1  1  0  0  0  0
  3  1  1  0  0  0  0
  4  2  1  0  0  0  0
  5  3  1  0  0  0  0
  6  7  1  0  0  0  0
  7 15  1  0  0  0  0
  8  4  1  0  0  0  0
  9  1  1  0  0  0  0
 10  6  1  0  0  0  0
 11  2  2  0  0  0  0
 12  3  2  0  0  0  0
 13  6  2  0  0  0  0
 14 16  1  0  0  0  0
 15 17  1  0  0  0  0
 16  8  1  0  0  0  0
 17  8  1  0  0  0  0
 18 10  1  0  0  0  0
 19  9  1  0  0  0  0
 20 19  1  0  0  0  0
 21 18  1  0  0  0  0
 22 18  1  0  0  0  0
 23 18  1  0  0  0  0
 24 20  2  0  0  0  0
 25 20  1  0  0  0  0
 26 25  2  0  0  0  0
 27 24  1  0  0  0  0
 28 26  1  0  0  0  0
  5  4  1  0  0  0  0
  7 14  1  0  0  0  0
 28 27  2  0  0  0  0
M  END
> <IDNUMBER>
F3205-0003

> <Chemical_Name>
tert-butyl 4-[2,5-dioxo-1-(2-phenylethyl)pyrrolidin-3-yl]piperazine-1-carboxylate

> <CAS>
881484-41-9

> <PriceCoeff>
1.00

> <MW>
387.47

> <Description>
solid

> <FSP3>
0.57

> <clogP>
4.39

> <TPSA>
70.16

> <Acceptor>
4

> <Donor>
1

> <RotBonds>
6

> <HAC>
28

> <Collection>
General

$$$$
F1065-0214
  -ISIS-  06222321442D

 29 32  0  0  0  0  0  0  0  0999 V2000
   -2.3000    1.1458    0.0000 N   0  0  3  0  0  0  0  0  0  0  0  0
   -3.0208    1.7125    0.0000 C   0  0  0  0  0  0  0  0  0  0  0  0
   -1.5458    1.6333    0.0000 C   0  0  0  0  0  0  0  0  0  0  0  0
   -1.7500    2.5000    0.0000 C   0  0  3  0  0  0  0  0  0  0  0  0
   -2.6708    2.5625    0.0000 C   0  0  0  0  0  0  0  0  0  0  0  0
    2.4417    2.2125    0.0000 N   0  0  3  0  0  0  0  0  0  0  0  0
   -1.1125    3.1708    0.0000 N   0  0  0  0  0  0  0  0  0  0  0  0
   -2.5458    0.2500    0.0000 C   0  0  0  0  0  0  0  0  0  0  0  0
   -3.9208    1.4500    0.0000 O   0  0  0  0  0  0  0  0  0  0  0  0
    1.5792    2.4458    0.0000 C   0  0  0  0  0  0  0  0  0  0  0  0
   -0.6708    1.2708    0.0000 O   0  0  0  0  0  0  0  0  0  0  0  0
   -1.8625   -0.3667    0.0000 C   0  0  0  0  0  0  0  0  0  0  0  0
   -3.4125   -0.0000    0.0000 C   0  0  0  0  0  0  0  0  0  0  0  0
    1.3500    3.3333    0.0000 C   0  0  0  0  0  0  0  0  0  0  0  0
    0.9292    1.7833    0.0000 C   0  0  0  0  0  0  0  0  0  0  0  0
   -0.2000    2.9125    0.0000 C   0  0  0  0  0  0  0  0  0  0  0  0
   -2.9833   -1.5500    0.0000 C   0  0  0  0  0  0  0  0  0  0  0  0
    0.4500    3.5708    0.0000 C   0  0  0  0  0  0  0  0  0  0  0  0
    0.0292    2.0208    0.0000 C   0  0  0  0  0  0  0  0  0  0  0  0
   -3.6625   -0.9042    0.0000 C   0  0  0  0  0  0  0  0  0  0  0  0
   -2.0958   -1.2667    0.0000 C   0  0  0  0  0  0  0  0  0  0  0  0
    2.7042    1.3208    0.0000 C   0  0  0  0  0  0  0  0  0  0  0  0
    3.1042    2.8708    0.0000 C   0  0  0  0  0  0  0  0  0  0  0  0
   -3.1958   -2.4167    0.0000 O   0  0  0  0  0  0  0  0  0  0  0  0
   -4.0625   -2.6792    0.0000 C   0  0  0  0  0  0  0  0  0  0  0  0
    3.6042    1.0708    0.0000 C   0  0  0  0  0  0  0  0  0  0  0  0
    4.0000    2.6500    0.0000 C   0  0  0  0  0  0  0  0  0  0  0  0
   -4.2708   -3.5542    0.0000 C   0  0  0  0  0  0  0  0  0  0  0  0
    4.2500    1.7625    0.0000 C   0  0  0  0  0  0  0  0  0  0  0  0
  2  1  1  0  0  0  0
  3  1  1  0  0  0  0
  4  3  1  0  0  0  0
  5  2  1  0  0  0  0
  6 10  1  0  0  0  0
  7  4  1  0  0  0  0
  8  1  1  0  0  0  0
  9  2  2  0  0  0  0
 10 15  2  0  0  0  0
 11  3  2  0  0  0  0
 12  8  1  0  0  0  0
 13  8  2  0  0  0  0
 14 18  2  0  0  0  0
 15 19  1  0  0  0  0
 16  7  1  0  0  0  0
 17 20  2  0  0  0  0
 18 16  1  0  0  0  0
 19 16  2  0  0  0  0
 20 13  1  0  0  0  0
 21 12  2  0  0  0  0
 22  6  1  0  0  0  0
 23  6  1  0  0  0  0
 24 17  1  0  0  0  0
 25 24  1  0  0  0  0
 26 22  1  0  0  0  0
 27 23  1  0  0  0  0
 28 25  1  0  0  0  0
 29 27  1  0  0  0  0
  4  5  1  0  0  0  0
 21 17  1  0  0  0  0
 14 10  1  0  0  0  0
 26 29  1  0  0  0  0
M  END
> <IDNUMBER>
F1065-0214

> <Chemical_Name>
1-(4-ethoxyphenyl)-3-{[4-(piperidin-1-yl)phenyl]amino}pyrrolidine-2,5-dione

> <CAS>
353744-92-0

> <PriceCoeff>
1.00

> <MW>
393.48

> <Description>
solid

> <FSP3>
0.39

> <clogP>
3.94

> <TPSA>
61.88

> <Acceptor>
5

> <Donor>
2

> <RotBonds>
6

> <HAC>
29

> <Collection>
General

$$$$
F3023-1007
  -ISIS-  06222321152D

 30 33  0  0  0  0  0  0  0  0999 V2000
    4.2542   -6.4542    0.0000 N   0  0  3  0  0  0  0  0  0  0  0  0
    4.6667   -5.8792    0.0000 C   0  0  0  0  0  0  0  0  0  0  0  0
    4.6750   -7.0250    0.0000 C   0  0  0  0  0  0  0  0  0  0  0  0
    5.3500   -6.8042    0.0000 C   0  0  3  0  0  0  0  0  0  0  0  0
    5.3417   -6.0917    0.0000 C   0  0  0  0  0  0  0  0  0  0  0  0
    8.5125   -6.0625    0.0000 N   0  0  3  0  0  0  0  0  0  0  0  0
    5.9167   -7.2167    0.0000 N   0  0  0  0  0  0  0  0  0  0  0  0
    3.5417   -6.4542    0.0000 C   0  0  0  0  0  0  0  0  0  0  0  0
    4.4417   -5.2042    0.0000 O   0  0  0  0  0  0  0  0  0  0  0  0
    7.8625   -6.3542    0.0000 C   0  0  0  0  0  0  0  0  0  0  0  0
    1.0667   -5.8625    0.0000 C   0  0  3  0  0  0  0  0  0  0  0  0
    4.4625   -7.7000    0.0000 O   0  0  0  0  0  0  0  0  0  0  0  0
    1.4250   -6.4667    0.0000 O   0  0  0  0  0  0  0  0  0  0  0  0
    3.1917   -5.8417    0.0000 C   0  0  0  0  0  0  0  0  0  0  0  0
    3.2000   -7.0750    0.0000 C   0  0  0  0  0  0  0  0  0  0  0  0
    7.2792   -5.9375    0.0000 C   0  0  0  0  0  0  0  0  0  0  0  0
    7.7917   -7.0542    0.0000 C   0  0  0  0  0  0  0  0  0  0  0  0
    6.5667   -6.9292    0.0000 C   0  0  0  0  0  0  0  0  0  0  0  0
    2.1292   -6.4667    0.0000 C   0  0  0  0  0  0  0  0  0  0  0  0
    0.3542   -5.8667    0.0000 F   0  0  0  0  0  0  0  0  0  0  0  0
    1.4167   -5.2417    0.0000 F   0  0  0  0  0  0  0  0  0  0  0  0
    7.1417   -7.3417    0.0000 C   0  0  0  0  0  0  0  0  0  0  0  0
    6.6375   -6.2250    0.0000 C   0  0  0  0  0  0  0  0  0  0  0  0
    2.4917   -7.0792    0.0000 C   0  0  0  0  0  0  0  0  0  0  0  0
    2.4792   -5.8500    0.0000 C   0  0  0  0  0  0  0  0  0  0  0  0
    8.5792   -5.3542    0.0000 C   0  0  0  0  0  0  0  0  0  0  0  0
    9.0875   -6.4792    0.0000 C   0  0  0  0  0  0  0  0  0  0  0  0
    9.7292   -6.1917    0.0000 C   0  0  0  0  0  0  0  0  0  0  0  0
    9.2292   -5.0667    0.0000 C   0  0  0  0  0  0  0  0  0  0  0  0
    9.8125   -5.4875    0.0000 C   0  0  0  0  0  0  0  0  0  0  0  0
  2  1  1  0  0  0  0
  3  1  1  0  0  0  0
  4  3  1  0  0  0  0
  5  2  1  0  0  0  0
  6 10  1  0  0  0  0
  7  4  1  0  0  0  0
  8  1  1  0  0  0  0
  9  2  2  0  0  0  0
 10 16  1  0  0  0  0
 11 13  1  0  0  0  0
 12  3  2  0  0  0  0
 13 19  1  0  0  0  0
 14  8  2  0  0  0  0
 15  8  1  0  0  0  0
 16 23  2  0  0  0  0
 17 22  1  0  0  0  0
 18  7  1  0  0  0  0
 19 24  1  0  0  0  0
 20 11  1  0  0  0  0
 21 11  1  0  0  0  0
 22 18  2  0  0  0  0
 23 18  1  0  0  0  0
 24 15  2  0  0  0  0
 25 14  1  0  0  0  0
 26  6  1  0  0  0  0
 27  6  1  0  0  0  0
 28 27  1  0  0  0  0
 29 26  1  0  0  0  0
 30 28  1  0  0  0  0
  5  4  1  0  0  0  0
 19 25  2  0  0  0  0
 10 17  2  0  0  0  0
 30 29  1  0  0  0  0
M  END
> <IDNUMBER>
F3023-1007

> <Chemical_Name>
1-[4-(difluoromethoxy)phenyl]-3-{[4-(piperidin-1-yl)phenyl]amino}pyrrolidine-2,5-dione

> <CAS>
1009417-20-2

> <PriceCoeff>
1.00

> <MW>
415.43

> <Description>
solid

> <FSP3>
0.36

> <clogP>
3.86

> <TPSA>
61.88

> <Acceptor>
5

> <Donor>
2

> <RotBonds>
6

> <HAC>
30

> <Collection>
General

$$$$
F0196-0860
  -ISIS-  06222321452D

 24 27  0  0  0  0  0  0  0  0999 V2000
   -1.3458    0.1208    0.0000 C   0  0  0  0  0  0  0  0  0  0  0  0
   -0.7208    0.4833    0.0000 C   0  0  0  0  0  0  0  0  0  0  0  0
   -1.3458   -0.6000    0.0000 C   0  0  0  0  0  0  0  0  0  0  0  0
   -1.9833    0.5125    0.0000 O   0  0  0  0  0  0  0  0  0  0  0  0
   -2.6208    0.1208    0.0000 C   0  0  0  0  0  0  0  0  0  0  0  0
   -1.9833   -0.9542    0.0000 C   0  0  0  0  0  0  0  0  0  0  0  0
   -2.6208   -0.6000    0.0000 C   0  0  0  0  0  0  0  0  0  0  0  0
   -0.0625    0.1208    0.0000 C   0  0  0  0  0  0  0  0  0  0  0  0
    0.5542    0.4833    0.0000 C   0  0  0  0  0  0  0  0  0  0  0  0
   -3.2625    0.4833    0.0000 C   0  0  0  0  0  0  0  0  0  0  0  0
   -3.2625   -0.9542    0.0000 C   0  0  0  0  0  0  0  0  0  0  0  0
   -0.7208    1.2333    0.0000 C   0  0  0  0  0  0  0  0  0  0  0  0
   -0.0625   -0.6000    0.0000 O   0  0  0  0  0  0  0  0  0  0  0  0
    0.5542    1.2000    0.0000 C   0  0  0  0  0  0  0  0  0  0  0  0
   -1.9708   -1.6792    0.0000 O   0  0  0  0  0  0  0  0  0  0  0  0
   -0.0625    1.5625    0.0000 C   0  0  0  0  0  0  0  0  0  0  0  0
    1.2000   -0.6292    0.0000 O   0  0  0  0  0  0  0  0  0  0  0  0
    0.5542   -0.9542    0.0000 C   0  0  0  0  0  0  0  0  0  0  0  0
   -3.9000    0.1208    0.0000 C   0  0  0  0  0  0  0  0  0  0  0  0
   -3.9000   -0.6000    0.0000 C   0  0  0  0  0  0  0  0  0  0  0  0
    1.2000    0.1208    0.0000 C   0  0  0  0  0  0  0  0  0  0  0  0
   -0.0625    2.3125    0.0000 Br  0  0  0  0  0  0  0  0  0  0  0  0
   -4.5625    0.4833    0.0000 O   0  0  0  0  0  0  0  0  0  0  0  0
   -4.5833    1.2000    0.0000 C   0  0  0  0  0  0  0  0  0  0  0  0
  2  1  1  0  0  0  0
  3  1  2  0  0  0  0
  4  1  1  0  0  0  0
  5  4  1  0  0  0  0
  6  3  1  0  0  0  0
  7  5  2  0  0  0  0
  8  2  2  0  0  0  0
  9  8  1  0  0  0  0
 10  5  1  0  0  0  0
 11  7  1  0  0  0  0
 12  2  1  0  0  0  0
 13  8  1  0  0  0  0
 14 16  1  0  0  0  0
 15  6  2  0  0  0  0
 16 12  2  0  0  0  0
 17 18  1  0  0  0  0
 18 13  1  0  0  0  0
 19 10  2  0  0  0  0
 20 19  1  0  0  0  0
 21  9  1  0  0  0  0
 22 16  1  0  0  0  0
 23 19  1  0  0  0  0
 24 23  1  0  0  0  0
  7  6  1  0  0  0  0
 14  9  2  0  0  0  0
 21 17  1  0  0  0  0
 11 20  2  0  0  0  0
M  END
> <IDNUMBER>
F0196-0860

> <Chemical_Name>
2-(6-bromo-2,4-dihydro-1,3-benzodioxin-8-yl)-7-methoxy-4H-chromen-4-one

> <CAS>
147723-12-4

> <PriceCoeff>
1.00

> <MW>
389.20

> <Description>
solid

> <FSP3>
0.17

> <clogP>
3.56

> <TPSA>
53.99

> <Acceptor>
5

> <Donor>
0

> <RotBonds>
2

> <HAC>
24

> <Collection>
General

> <Reference_compound>
CHEMBL52825

> <Similarity>
0.8010

$$$$
F3385-2700
  -ISIS-  06222321462D

 25 27  0  0  0  0  0  0  0  0999 V2000
    6.0292   -4.2292    0.0000 C   0  0  0  0  0  0  0  0  0  0  0  0
    5.3125   -4.6417    0.0000 C   0  0  0  0  0  0  0  0  0  0  0  0
    4.6000   -4.2292    0.0000 C   0  0  0  0  0  0  0  0  0  0  0  0
    6.0292   -3.4042    0.0000 C   0  0  0  0  0  0  0  0  0  0  0  0
    4.6000   -3.4042    0.0000 C   0  0  0  0  0  0  0  0  0  0  0  0
    5.3125   -2.9917    0.0000 O   0  0  0  0  0  0  0  0  0  0  0  0
    1.7292   -3.4042    0.0000 C   0  0  0  0  0  0  0  0  0  0  0  0
    3.8875   -2.9917    0.0000 C   0  0  0  0  0  0  0  0  0  0  0  0
    6.7417   -4.6417    0.0000 C   0  0  0  0  0  0  0  0  0  0  0  0
    2.4417   -2.9917    0.0000 O   0  0  0  0  0  0  0  0  0  0  0  0
    3.8875   -4.6417    0.0000 C   0  0  0  0  0  0  0  0  0  0  0  0
    3.1667   -3.4042    0.0000 C   0  0  0  0  0  0  0  0  0  0  0  0
    5.3125   -5.4667    0.0000 O   0  0  0  0  0  0  0  0  0  0  0  0
    1.7292   -4.2292    0.0000 O   0  0  0  0  0  0  0  0  0  0  0  0
    6.7417   -5.4750    0.0000 C   0  0  0  0  0  0  0  0  0  0  0  0
    7.4542   -4.2292    0.0000 C   0  0  0  0  0  0  0  0  0  0  0  0
    1.0167   -2.9917    0.0000 C   0  0  3  0  0  0  0  0  0  0  0  0
    3.1667   -4.2292    0.0000 C   0  0  0  0  0  0  0  0  0  0  0  0
    8.1750   -5.4750    0.0000 C   0  0  0  0  0  0  0  0  0  0  0  0
    8.1750   -4.6417    0.0000 C   0  0  0  0  0  0  0  0  0  0  0  0
    7.4542   -5.8875    0.0000 C   0  0  0  0  0  0  0  0  0  0  0  0
    8.9000   -5.8917    0.0000 O   0  0  0  0  0  0  0  0  0  0  0  0
    0.3042   -3.4042    0.0000 C   0  0  0  0  0  0  0  0  0  0  0  0
    1.0167   -2.1667    0.0000 C   0  0  0  0  0  0  0  0  0  0  0  0
    8.9042   -6.7250    0.0000 C   0  0  0  0  0  0  0  0  0  0  0  0
  2  1  1  0  0  0  0
  3  2  1  0  0  0  0
  4  1  2  0  0  0  0
  5  6  1  0  0  0  0
  6  4  1  0  0  0  0
  7 10  1  0  0  0  0
  8  5  2  0  0  0  0
  9  1  1  0  0  0  0
 10 12  1  0  0  0  0
 11  3  2  0  0  0  0
 12  8  1  0  0  0  0
 13  2  2  0  0  0  0
 14  7  2  0  0  0  0
 15  9  2  0  0  0  0
 16  9  1  0  0  0  0
 17  7  1  0  0  0  0
 18 11  1  0  0  0  0
 19 20  1  0  0  0  0
 20 16  2  0  0  0  0
 21 15  1  0  0  0  0
 22 19  1  0  0  0  0
 23 17  1  0  0  0  0
 24 17  1  0  0  0  0
 25 22  1  0  0  0  0
 21 19  2  0  0  0  0
  5  3  1  0  0  0  0
 12 18  2  0  0  0  0
M  END
> <IDNUMBER>
F3385-2700

> <Chemical_Name>
3-(4-methoxyphenyl)-4-oxo-4H-chromen-7-yl 2-methylpropanoate

> <CAS>
858769-64-9

> <PriceCoeff>
1.00

> <MW>
338.35

> <Description>
solid

> <FSP3>
0.20

> <clogP>
3.29

> <TPSA>
61.83

> <Acceptor>
5

> <Donor>
0

> <RotBonds>
5

> <HAC>
25

> <Collection>
General

> <Reference_compound>
CHEMBL44

> <Similarity>
0.8360

$$$$
F1065-0021
  -ISIS-  06222321142D

 30 33  0  0  0  0  0  0  0  0999 V2000
   -0.7500   -0.6875    0.0000 N   0  0  3  0  0  0  0  0  0  0  0  0
   -0.4833    0.0958    0.0000 C   0  0  0  0  0  0  0  0  0  0  0  0
   -0.0833   -1.1875    0.0000 C   0  0  0  0  0  0  0  0  0  0  0  0
    0.6000   -0.7042    0.0000 C   0  0  3  0  0  0  0  0  0  0  0  0
    0.3292    0.0958    0.0000 C   0  0  0  0  0  0  0  0  0  0  0  0
    3.8375    1.3000    0.0000 N   0  0  3  0  0  0  0  0  0  0  0  0
    1.4042   -0.9375    0.0000 N   0  0  0  0  0  0  0  0  0  0  0  0
   -1.5625   -0.7875    0.0000 C   0  0  0  0  0  0  0  0  0  0  0  0
   -4.3500   -1.8667    0.0000 C   0  0  3  0  0  0  0  0  0  0  0  0
   -0.9500    0.8000    0.0000 O   0  0  0  0  0  0  0  0  0  0  0  0
    3.2167    0.7458    0.0000 C   0  0  0  0  0  0  0  0  0  0  0  0
   -0.0833   -2.0042    0.0000 O   0  0  0  0  0  0  0  0  0  0  0  0
   -4.0208   -1.1167    0.0000 S   0  0  0  0  0  0  0  0  0  0  0  0
    5.0667    2.3958    0.0000 O   0  0  0  0  0  0  0  0  0  0  0  0
   -2.0708   -0.1375    0.0000 C   0  0  0  0  0  0  0  0  0  0  0  0
   -1.8500   -1.5667    0.0000 C   0  0  0  0  0  0  0  0  0  0  0  0
    3.4000   -0.0667    0.0000 C   0  0  0  0  0  0  0  0  0  0  0  0
    2.4375    1.0000    0.0000 C   0  0  0  0  0  0  0  0  0  0  0  0
    2.0042   -0.3792    0.0000 C   0  0  0  0  0  0  0  0  0  0  0  0
   -3.2000   -1.0292    0.0000 C   0  0  0  0  0  0  0  0  0  0  0  0
   -3.8708   -2.5167    0.0000 F   0  0  0  0  0  0  0  0  0  0  0  0
   -5.1708   -1.9542    0.0000 F   0  0  0  0  0  0  0  0  0  0  0  0
    2.7792   -0.6292    0.0000 C   0  0  0  0  0  0  0  0  0  0  0  0
    1.8167    0.4208    0.0000 C   0  0  0  0  0  0  0  0  0  0  0  0
   -2.6625   -1.7000    0.0000 C   0  0  0  0  0  0  0  0  0  0  0  0
   -2.8833   -0.2792    0.0000 C   0  0  0  0  0  0  0  0  0  0  0  0
    3.6667    2.1125    0.0000 C   0  0  0  0  0  0  0  0  0  0  0  0
    4.6292    1.0333    0.0000 C   0  0  0  0  0  0  0  0  0  0  0  0
    5.2375    1.5708    0.0000 C   0  0  0  0  0  0  0  0  0  0  0  0
    4.3000    2.6625    0.0000 C   0  0  0  0  0  0  0  0  0  0  0  0
  2  1  1  0  0  0  0
  3  1  1  0  0  0  0
  4  3  1  0  0  0  0
  5  2  1  0  0  0  0
  6 11  1  0  0  0  0
  7  4  1  0  0  0  0
  8  1  1  0  0  0  0
  9 13  1  0  0  0  0
 10  2  2  0  0  0  0
 11 18  1  0  0  0  0
 12  3  2  0  0  0  0
 13 20  1  0  0  0  0
 14 29  1  0  0  0  0
 15  8  2  0  0  0  0
 16  8  1  0  0  0  0
 17 23  1  0  0  0  0
 18 24  2  0  0  0  0
 19  7  1  0  0  0  0
 20 25  1  0  0  0  0
 21  9  1  0  0  0  0
 22  9  1  0  0  0  0
 23 19  2  0  0  0  0
 24 19  1  0  0  0  0
 25 16  2  0  0  0  0
 26 15  1  0  0  0  0
 27  6  1  0  0  0  0
 28  6  1  0  0  0  0
 29 28  1  0  0  0  0
 30 27  1  0  0  0  0
  5  4  1  0  0  0  0
 26 20  2  0  0  0  0
 17 11  2  0  0  0  0
 30 14  1  0  0  0  0
M  END
> <IDNUMBER>
F1065-0021

> <Chemical_Name>
1-{4-[(difluoromethyl)sulfanyl]phenyl}-3-{[4-(morpholin-4-yl)phenyl]amino}pyrrolidine-2,5-dione

> <CAS>
473705-02-1

> <PriceCoeff>
1.00

> <MW>
433.47

> <Description>
solid

> <FSP3>
0.33

> <clogP>
2.95

> <TPSA>
87.18

> <Acceptor>
5

> <Donor>
2

> <RotBonds>
6

> <HAC>
30

> <Collection>
General

$$$$
F2823-0077
  -ISIS-  06222321152D

 27 29  0  0  0  0  0  0  0  0999 V2000
   -3.1583    1.7333    0.0000 C   0  0  0  0  0  0  0  0  0  0  0  0
   -3.1583    2.5583    0.0000 C   0  0  0  0  0  0  0  0  0  0  0  0
   -3.8708    1.3208    0.0000 N   0  0  3  0  0  0  0  0  0  0  0  0
   -1.7333    2.5583    0.0000 N   0  0  3  0  0  0  0  0  0  0  0  0
   -2.4458    1.3250    0.0000 N   0  0  0  0  0  0  0  0  0  0  0  0
   -2.4458    2.9833    0.0000 C   0  0  0  0  0  0  0  0  0  0  0  0
   -4.5833    1.7333    0.0000 N   0  0  0  0  0  0  0  0  0  0  0  0
    2.7125    0.7625    0.0000 N   0  3  0  0  0  0  0  0  0  0  0  0
    2.1417    1.4833    0.0000 C   0  0  0  0  0  0  0  0  0  0  0  0
   -1.7333    1.7333    0.0000 C   0  0  0  0  0  0  0  0  0  0  0  0
   -4.5833    2.5583    0.0000 C   0  0  0  0  0  0  0  0  0  0  0  0
   -0.8458    2.6833    0.0000 N   0  0  0  0  0  0  0  0  0  0  0  0
   -0.2833    1.9583    0.0000 C   0  0  0  0  0  0  0  0  0  0  0  0
    1.2125    1.3583    0.0000 C   0  0  0  0  0  0  0  0  0  0  0  0
    0.6417    2.0833    0.0000 C   0  0  0  0  0  0  0  0  0  0  0  0
   -3.8708    0.3958    0.0000 C   0  0  3  0  0  0  0  0  0  0  0  0
    2.4792    2.3625    0.0000 C   0  0  0  0  0  0  0  0  0  0  0  0
    2.3792   -0.0917    0.0000 O   0  5  0  0  0  0  0  0  0  0  0  0
    3.6292    0.8958    0.0000 O   0  0  0  0  0  0  0  0  0  0  0  0
   -2.4458    3.8000    0.0000 O   0  0  0  0  0  0  0  0  0  0  0  0
   -0.6250    1.0958    0.0000 O   0  0  0  0  0  0  0  0  0  0  0  0
    0.9792    2.9458    0.0000 C   0  0  0  0  0  0  0  0  0  0  0  0
    1.9000    3.0958    0.0000 C   0  0  0  0  0  0  0  0  0  0  0  0
    3.3875    2.4958    0.0000 Cl  0  0  0  0  0  0  0  0  0  0  0  0
   -3.8708   -0.5292    0.0000 C   0  0  0  0  0  0  0  0  0  0  0  0
   -4.7958    0.3958    0.0000 C   0  0  0  0  0  0  0  0  0  0  0  0
   -2.9375    0.3958    0.0000 C   0  0  0  0  0  0  0  0  0  0  0  0
  2  1  2  0  0  0  0
  3  1  1  0  0  0  0
  4 10  1  0  0  0  0
  5  1  1  0  0  0  0
  6  2  1  0  0  0  0
  7  3  1  0  0  0  0
  8  9  1  0  0  0  0
  9 14  2  0  0  0  0
 10  5  2  0  0  0  0
 11  2  1  0  0  0  0
 12  4  1  0  0  0  0
 13 12  1  0  0  0  0
 14 15  1  0  0  0  0
 15 13  1  0  0  0  0
 16  3  1  0  0  0  0
 17 23  2  0  0  0  0
 18  8  1  0  0  0  0
 19  8  2  0  0  0  0
 20  6  2  0  0  0  0
 21 13  2  0  0  0  0
 22 15  2  0  0  0  0
 23 22  1  0  0  0  0
 24 17  1  0  0  0  0
 25 16  1  0  0  0  0
 26 16  1  0  0  0  0
 27 16  1  0  0  0  0
 11  7  2  0  0  0  0
  4  6  1  0  0  0  0
 17  9  1  0  0  0  0
M  CHG  2   8   1  18  -1
M  END
> <IDNUMBER>
F2823-0077

> <Chemical_Name>
N-{1-tert-butyl-4-oxo-1H,4H,5H-pyrazolo[3,4-d]pyrimidin-5-yl}-4-chloro-3-nitrobenzamide

> <CAS>
899945-34-7

> <PriceCoeff>
1.00

> <MW>
390.78

> <Description>
solid

> <FSP3>
0.25

> <clogP>
0.97

> <TPSA>
122.73

> <Acceptor>
6

> <Donor>
1

> <RotBonds>
3

> <HAC>
27

> <Collection>
General

$$$$
F0902-0375
  -ISIS-  06222321442D

 26 28  0  0  0  0  0  0  0  0999 V2000
   -1.6333    0.0708    0.0000 N   0  0  3  0  0  0  0  0  0  0  0  0
   -1.2500    0.8958    0.0000 C   0  0  0  0  0  0  0  0  0  0  0  0
   -0.9833   -0.5292    0.0000 C   0  0  0  0  0  0  0  0  0  0  0  0
   -0.2000   -0.0667    0.0000 C   0  0  3  0  0  0  0  0  0  0  0  0
   -0.3708    0.7708    0.0000 C   0  0  0  0  0  0  0  0  0  0  0  0
   -2.5125   -0.0500    0.0000 C   0  0  0  0  0  0  0  0  0  0  0  0
    0.6042   -0.4292    0.0000 N   0  0  0  0  0  0  0  0  0  0  0  0
   -1.6708    1.7125    0.0000 O   0  0  0  0  0  0  0  0  0  0  0  0
   -1.0625   -1.4167    0.0000 O   0  0  0  0  0  0  0  0  0  0  0  0
   -3.0833    0.6458    0.0000 C   0  0  0  0  0  0  0  0  0  0  0  0
    1.3500    0.0833    0.0000 C   0  0  0  0  0  0  0  0  0  0  0  0
    2.8167    1.1208    0.0000 C   0  0  0  0  0  0  0  0  0  0  0  0
    1.2667    0.9625    0.0000 C   0  0  0  0  0  0  0  0  0  0  0  0
    2.1542   -0.3000    0.0000 C   0  0  0  0  0  0  0  0  0  0  0  0
    2.0000    1.4833    0.0000 C   0  0  0  0  0  0  0  0  0  0  0  0
    2.9042    0.2333    0.0000 C   0  0  0  0  0  0  0  0  0  0  0  0
   -2.7458    1.5000    0.0000 O   0  0  0  0  0  0  0  0  0  0  0  0
   -2.8500   -0.8542    0.0000 C   0  0  0  0  0  0  0  0  0  0  0  0
    3.5167    1.6458    0.0000 O   0  0  0  0  0  0  0  0  0  0  0  0
   -3.9833    0.5208    0.0000 C   0  0  0  0  0  0  0  0  0  0  0  0
   -3.3125    2.1625    0.0000 C   0  0  0  0  0  0  0  0  0  0  0  0
    4.3542    1.2958    0.0000 C   0  0  0  0  0  0  0  0  0  0  0  0
   -2.9833    2.9958    0.0000 C   0  0  0  0  0  0  0  0  0  0  0  0
   -3.7458   -1.0000    0.0000 C   0  0  0  0  0  0  0  0  0  0  0  0
   -3.5000    3.7083    0.0000 C   0  0  0  0  0  0  0  0  0  0  0  0
   -4.3125   -0.3042    0.0000 C   0  0  0  0  0  0  0  0  0  0  0  0
  2  1  1  0  0  0  0
  3  1  1  0  0  0  0
  4  3  1  0  0  0  0
  5  2  1  0  0  0  0
  6  1  1  0  0  0  0
  7  4  1  0  0  0  0
  8  2  2  0  0  0  0
  9  3  2  0  0  0  0
 10  6  1  0  0  0  0
 11  7  1  0  0  0  0
 12 16  1  0  0  0  0
 13 11  2  0  0  0  0
 14 11  1  0  0  0  0
 15 13  1  0  0  0  0
 16 14  2  0  0  0  0
 17 10  1  0  0  0  0
 18  6  2  0  0  0  0
 19 12  1  0  0  0  0
 20 10  2  0  0  0  0
 21 17  1  0  0  0  0
 22 19  1  0  0  0  0
 23 21  1  0  0  0  0
 24 18  1  0  0  0  0
 25 23  1  0  0  0  0
 26 24  2  0  0  0  0
  4  5  1  0  0  0  0
 26 20  1  0  0  0  0
 15 12  2  0  0  0  0
M  END
> <IDNUMBER>
F0902-0375

> <Chemical_Name>
3-[(4-methoxyphenyl)amino]-1-(2-propoxyphenyl)pyrrolidine-2,5-dione

> <CAS>
352666-08-1

> <PriceCoeff>
1.00

> <MW>
354.40

> <Description>
solid

> <FSP3>
0.30

> <clogP>
3.74

> <TPSA>
67.87

> <Acceptor>
5

> <Donor>
1

> <RotBonds>
7

> <HAC>
26

> <Collection>
General

$$$$
F1219-1682
  -ISIS-  06222321142D

 16 17  0  0  0  0  0  0  0  0999 V2000
    6.9750   -1.9042    0.0000 O   0  0  0  0  0  0  0  0  0  0  0  0
    6.3042   -2.3875    0.0000 C   0  0  0  0  0  0  0  0  0  0  0  0
    6.5625   -3.1750    0.0000 N   0  0  0  0  0  0  0  0  0  0  0  0
    7.6417   -2.3875    0.0000 C   0  0  0  0  0  0  0  0  0  0  0  0
    7.3875   -3.1750    0.0000 N   0  0  0  0  0  0  0  0  0  0  0  0
    5.5250   -2.1292    0.0000 C   0  0  0  0  0  0  0  0  0  0  0  0
    5.3542   -1.3292    0.0000 C   0  0  0  0  0  0  0  0  0  0  0  0
    4.5667   -1.0750    0.0000 C   0  0  0  0  0  0  0  0  0  0  0  0
    8.4292   -2.1292    0.0000 S   0  0  0  0  0  0  0  0  0  0  0  0
    3.9542   -1.6250    0.0000 C   0  0  0  0  0  0  0  0  0  0  0  0
    4.9167   -2.6875    0.0000 C   0  0  0  0  0  0  0  0  0  0  0  0
    4.1292   -2.4375    0.0000 C   0  0  0  0  0  0  0  0  0  0  0  0
    4.4000   -0.2667    0.0000 O   0  0  0  0  0  0  0  0  0  0  0  0
    3.1667   -1.3750    0.0000 O   0  0  0  0  0  0  0  0  0  0  0  0
    5.0125    0.2833    0.0000 C   0  0  0  0  0  0  0  0  0  0  0  0
    3.0000   -0.5667    0.0000 C   0  0  0  0  0  0  0  0  0  0  0  0
  2  1  1  0  0  0  0
  3  2  2  0  0  0  0
  4  1  1  0  0  0  0
  5  4  1  0  0  0  0
  6  2  1  0  0  0  0
  7  6  2  0  0  0  0
  8  7  1  0  0  0  0
  9  4  2  0  0  0  0
 10 12  1  0  0  0  0
 11  6  1  0  0  0  0
 12 11  2  0  0  0  0
 13  8  1  0  0  0  0
 14 10  1  0  0  0  0
 15 13  1  0  0  0  0
 16 14  1  0  0  0  0
  5  3  1  0  0  0  0
 10  8  2  0  0  0  0
M  END
> <IDNUMBER>
F1219-1682

> <Chemical_Name>
5-(3,4-dimethoxyphenyl)-2,3-dihydro-1,3,4-oxadiazole-2-thione

> <CAS>
23269-91-2

> <PriceCoeff>
1.00

> <MW>
238.26

> <Description>
solid

> <FSP3>
0.20

> <clogP>
1.81

> <TPSA>
84.17

> <Acceptor>
5

> <Donor>
2

> <RotBonds>
3

> <HAC>
16

> <Collection>
General

> <Reference_compound>
CHEMBL397836

> <Similarity>
0.8550

$$$$
F1593-0044
  -ISIS-  06222321142D

 30 33  0  0  0  0  0  0  0  0999 V2000
    3.3875   -2.3792    0.0000 N   0  0  3  0  0  0  0  0  0  0  0  0
    4.9292   -1.6875    0.0000 C   0  0  0  0  0  0  0  0  0  0  0  0
    3.5667   -4.0667    0.0000 C   0  0  0  0  0  0  0  0  0  0  0  0
    5.2250   -4.4125    0.0000 C   0  0  3  0  0  0  0  0  0  0  0  0
    6.0667   -2.9500    0.0000 C   0  0  0  0  0  0  0  0  0  0  0  0
   12.6292   -6.6125    0.0000 N   0  0  3  0  0  0  0  0  0  0  0  0
    5.9125   -5.9500    0.0000 N   0  0  0  0  0  0  0  0  0  0  0  0
    1.9167   -1.5417    0.0000 C   0  0  0  0  0  0  0  0  0  0  0  0
    5.2750   -0.0292    0.0000 O   0  0  0  0  0  0  0  0  0  0  0  0
   10.9542   -6.4542    0.0000 C   0  0  0  0  0  0  0  0  0  0  0  0
   -2.4958    2.6708    0.0000 C   0  0  3  0  0  0  0  0  0  0  0  0
    2.3042   -5.2042    0.0000 O   0  0  0  0  0  0  0  0  0  0  0  0
   -2.4875    0.9833    0.0000 O   0  0  0  0  0  0  0  0  0  0  0  0
   16.0000   -6.9542    0.0000 O   0  0  0  0  0  0  0  0  0  0  0  0
    1.9167    0.1500    0.0000 C   0  0  0  0  0  0  0  0  0  0  0  0
    0.4667   -2.3917    0.0000 C   0  0  0  0  0  0  0  0  0  0  0  0
    9.9750   -7.8250    0.0000 C   0  0  0  0  0  0  0  0  0  0  0  0
   10.2542   -4.9125    0.0000 C   0  0  0  0  0  0  0  0  0  0  0  0
    7.5917   -6.1167    0.0000 C   0  0  0  0  0  0  0  0  0  0  0  0
   -1.0208    0.1375    0.0000 C   0  0  0  0  0  0  0  0  0  0  0  0
   -3.9708    3.5208    0.0000 F   0  0  0  0  0  0  0  0  0  0  0  0
   -1.0333    3.5250    0.0000 F   0  0  0  0  0  0  0  0  0  0  0  0
    8.5792   -4.7542    0.0000 C   0  0  0  0  0  0  0  0  0  0  0  0
    8.2917   -7.6542    0.0000 C   0  0  0  0  0  0  0  0  0  0  0  0
   -1.0083   -1.5625    0.0000 C   0  0  0  0  0  0  0  0  0  0  0  0
    0.4500    0.9958    0.0000 C   0  0  0  0  0  0  0  0  0  0  0  0
   13.6167   -5.2375    0.0000 C   0  0  0  0  0  0  0  0  0  0  0  0
   13.3375   -8.1667    0.0000 C   0  0  0  0  0  0  0  0  0  0  0  0
   15.0125   -8.3250    0.0000 C   0  0  0  0  0  0  0  0  0  0  0  0
   15.3042   -5.4042    0.0000 C   0  0  0  0  0  0  0  0  0  0  0  0
  2  1  1  0  0  0  0
  3  1  1  0  0  0  0
  4  3  1  0  0  0  0
  5  2  1  0  0  0  0
  6 10  1  0  0  0  0
  7  4  1  0  0  0  0
  8  1  1  0  0  0  0
  9  2  2  0  0  0  0
 10 17  2  0  0  0  0
 11 13  1  0  0  0  0
 12  3  2  0  0  0  0
 13 20  1  0  0  0  0
 14 29  1  0  0  0  0
 15  8  2  0  0  0  0
 16  8  1  0  0  0  0
 17 24  1  0  0  0  0
 18 23  2  0  0  0  0
 19  7  1  0  0  0  0
 20 25  1  0  0  0  0
 21 11  1  0  0  0  0
 22 11  1  0  0  0  0
 23 19  1  0  0  0  0
 24 19  2  0  0  0  0
 25 16  2  0  0  0  0
 26 15  1  0  0  0  0
 27  6  1  0  0  0  0
 28  6  1  0  0  0  0
 29 28  1  0  0  0  0
 30 27  1  0  0  0  0
  5  4  1  0  0  0  0
 20 26  2  0  0  0  0
 18 10  1  0  0  0  0
 14 30  1  0  0  0  0
M  END
> <IDNUMBER>
F1593-0044

> <Chemical_Name>
1-[4-(difluoromethoxy)phenyl]-3-{[4-(morpholin-4-yl)phenyl]amino}pyrrolidine-2,5-dione

> <CAS>
1008678-07-6

> <PriceCoeff>
1.00

> <MW>
417.41

> <Description>
solid

> <FSP3>
0.33

> <clogP>
2.48

> <TPSA>
71.11

> <Acceptor>
6

> <Donor>
2

> <RotBonds>
6

> <HAC>
30

> <Collection>
General

$$$$
F3139-0846
  -ISIS-  06222321152D

 24 26  0  0  0  0  0  0  0  0999 V2000
    3.5042   -0.5625    0.0000 C   0  0  0  0  0  0  0  0  0  0  0  0
    2.7917   -0.9750    0.0000 C   0  0  0  0  0  0  0  0  0  0  0  0
    2.0792   -0.5625    0.0000 C   0  0  0  0  0  0  0  0  0  0  0  0
    3.5042    0.2625    0.0000 C   0  0  0  0  0  0  0  0  0  0  0  0
    2.0792    0.2625    0.0000 C   0  0  0  0  0  0  0  0  0  0  0  0
    2.7917    0.6750    0.0000 O   0  0  0  0  0  0  0  0  0  0  0  0
    1.3667   -0.9750    0.0000 C   0  0  0  0  0  0  0  0  0  0  0  0
    1.3667    0.6750    0.0000 C   0  0  0  0  0  0  0  0  0  0  0  0
    4.2167   -0.9750    0.0000 C   0  0  0  0  0  0  0  0  0  0  0  0
   -1.5000    0.6750    0.0000 C   0  0  0  0  0  0  0  0  0  0  0  0
    2.7917   -1.8000    0.0000 O   0  0  0  0  0  0  0  0  0  0  0  0
   -1.5000    1.5000    0.0000 O   0  0  0  0  0  0  0  0  0  0  0  0
    0.6500    0.2625    0.0000 C   0  0  0  0  0  0  0  0  0  0  0  0
   -0.0708    0.6750    0.0000 O   0  0  0  0  0  0  0  0  0  0  0  0
   -0.7875    0.2625    0.0000 C   0  0  0  0  0  0  0  0  0  0  0  0
    0.6500   -0.5625    0.0000 C   0  0  0  0  0  0  0  0  0  0  0  0
   -2.2208    0.2625    0.0000 O   0  0  0  0  0  0  0  0  0  0  0  0
    4.9417   -0.5625    0.0000 C   0  0  0  0  0  0  0  0  0  0  0  0
    4.2167   -1.8042    0.0000 C   0  0  0  0  0  0  0  0  0  0  0  0
   -2.9250    0.6750    0.0000 C   0  0  0  0  0  0  0  0  0  0  0  0
   -3.6458    0.2625    0.0000 C   0  0  0  0  0  0  0  0  0  0  0  0
    4.9292   -2.2167    0.0000 C   0  0  0  0  0  0  0  0  0  0  0  0
    5.6542   -0.9750    0.0000 C   0  0  0  0  0  0  0  0  0  0  0  0
    5.6542   -1.8042    0.0000 C   0  0  0  0  0  0  0  0  0  0  0  0
  2  1  1  0  0  0  0
  3  2  1  0  0  0  0
  4  1  2  0  0  0  0
  5  6  1  0  0  0  0
  6  4  1  0  0  0  0
  7  3  2  0  0  0  0
  8  5  2  0  0  0  0
  9  1  1  0  0  0  0
 10 15  1  0  0  0  0
 11  2  2  0  0  0  0
 12 10  2  0  0  0  0
 13  8  1  0  0  0  0
 14 13  1  0  0  0  0
 15 14  1  0  0  0  0
 16  7  1  0  0  0  0
 17 10  1  0  0  0  0
 18  9  1  0  0  0  0
 19  9  2  0  0  0  0
 20 17  1  0  0  0  0
 21 20  1  0  0  0  0
 22 19  1  0  0  0  0
 23 18  2  0  0  0  0
 24 22  2  0  0  0  0
  5  3  1  0  0  0  0
 23 24  1  0  0  0  0
 13 16  2  0  0  0  0
M  END
> <IDNUMBER>
F3139-0846

> <Chemical_Name>
ethyl 2-[(4-oxo-3-phenyl-4H-chromen-7-yl)oxy]acetate

> <CAS>
5897-05-2

> <PriceCoeff>
1.00

> <MW>
324.33

> <Description>
solid

> <FSP3>
0.16

> <clogP>
3.23

> <TPSA>
61.83

> <Acceptor>
5

> <Donor>
0

> <RotBonds>
6

> <HAC>
24

> <Collection>
General

> <Reference_compound>
CHEMBL44

> <Similarity>
0.8360

$$$$
F6660-2140
  -ISIS-  06222321162D

 14 16  0  0  0  0  0  0  0  0999 V2000
    7.2125  -11.5417    0.0000 N   0  0  0  0  0  0  0  0  0  0  0  0
    7.7792  -10.9417    0.0000 C   0  0  0  0  0  0  0  0  0  0  0  0
    6.4667  -11.1792    0.0000 C   0  0  0  0  0  0  0  0  0  0  0  0
    7.4000  -10.2250    0.0000 N   0  0  0  0  0  0  0  0  0  0  0  0
    6.5875  -10.3625    0.0000 O   0  0  0  0  0  0  0  0  0  0  0  0
    8.6000  -11.0625    0.0000 C   0  0  3  0  0  0  0  0  0  0  0  0
    5.7500  -11.5917    0.0000 C   0  0  3  0  0  0  0  0  0  0  0  0
    9.3625  -10.7500    0.0000 C   0  0  0  0  0  0  0  0  0  0  0  0
    9.2500  -11.5667    0.0000 C   0  0  0  0  0  0  0  0  0  0  0  0
    5.0292  -12.8292    0.0000 N   0  0  0  0  0  0  0  0  0  0  0  0
    5.7500  -12.4167    0.0000 C   0  0  0  0  0  0  0  0  0  0  0  0
    5.0292  -11.1792    0.0000 C   0  0  0  0  0  0  0  0  0  0  0  0
    4.3167  -12.4167    0.0000 C   0  0  0  0  0  0  0  0  0  0  0  0
    4.3167  -11.5917    0.0000 C   0  0  0  0  0  0  0  0  0  0  0  0
  2  1  1  0  0  0  0
  3  1  2  0  0  0  0
  4  2  2  0  0  0  0
  5  3  1  0  0  0  0
  6  2  1  0  0  0  0
  7  3  1  0  0  0  0
  8  6  1  0  0  0  0
  9  6  1  0  0  0  0
 10 11  1  0  0  0  0
 11  7  1  0  0  0  0
 12  7  1  0  0  0  0
 13 14  1  0  0  0  0
 14 12  1  0  0  0  0
  5  4  1  0  0  0  0
  8  9  1  0  0  0  0
 10 13  1  0  0  0  0
M  END
> <IDNUMBER>
F6660-2140

> <Chemical_Name>
3-(3-cyclopropyl-1,2,4-oxadiazol-5-yl)piperidine

> <CAS>
1042499-41-1

> <PriceCoeff>
1.00

> <MW>
193.25

> <Description>
oil

> <FSP3>
0.80

> <clogP>
0.33

> <TPSA>
50.95

> <Acceptor>
3

> <Donor>
1

> <RotBonds>
2

> <HAC>
14

> <Collection>
General

> <Reference_compound>
CHEMBL279356

> <Similarity>
0.8250

$$$$
F3385-3642
  -ISIS-  06222321462D

 28 30  0  0  0  0  0  0  0  0999 V2000
    3.2625   -7.6667    0.0000 C   0  0  0  0  0  0  0  0  0  0  0  0
    1.8292   -6.8417    0.0000 C   0  0  0  0  0  0  0  0  0  0  0  0
    1.8292   -7.6667    0.0000 C   0  0  0  0  0  0  0  0  0  0  0  0
    2.5417   -8.0792    0.0000 C   0  0  0  0  0  0  0  0  0  0  0  0
    1.1167   -6.4292    0.0000 C   0  0  0  0  0  0  0  0  0  0  0  0
    2.5417   -6.4292    0.0000 O   0  0  0  0  0  0  0  0  0  0  0  0
    3.2625   -6.8417    0.0000 C   0  0  0  0  0  0  0  0  0  0  0  0
    3.9750   -8.0875    0.0000 C   0  0  0  0  0  0  0  0  0  0  0  0
    1.1167   -8.0792    0.0000 C   0  0  0  0  0  0  0  0  0  0  0  0
    4.6875   -7.6667    0.0000 C   0  0  0  0  0  0  0  0  0  0  0  0
    0.4042   -6.8500    0.0000 C   0  0  0  0  0  0  0  0  0  0  0  0
    1.1167   -5.6042    0.0000 C   0  0  0  0  0  0  0  0  0  0  0  0
    5.4042   -8.0792    0.0000 C   0  0  0  0  0  0  0  0  0  0  0  0
    2.5417   -8.9042    0.0000 O   0  0  0  0  0  0  0  0  0  0  0  0
    5.4042   -8.9125    0.0000 C   0  0  0  0  0  0  0  0  0  0  0  0
    3.9750   -8.9125    0.0000 C   0  0  0  0  0  0  0  0  0  0  0  0
    0.4042   -7.6667    0.0000 C   0  0  0  0  0  0  0  0  0  0  0  0
    4.6875   -9.3250    0.0000 C   0  0  0  0  0  0  0  0  0  0  0  0
    0.4042   -5.2000    0.0000 N   0  0  3  0  0  0  0  0  0  0  0  0
    6.1167   -7.6667    0.0000 O   0  0  0  0  0  0  0  0  0  0  0  0
   -0.3208   -6.4292    0.0000 O   0  0  0  0  0  0  0  0  0  0  0  0
    6.1250   -9.3292    0.0000 O   0  0  0  0  0  0  0  0  0  0  0  0
    0.4042   -4.3750    0.0000 C   0  0  0  0  0  0  0  0  0  0  0  0
   -0.3083   -5.6125    0.0000 C   0  0  0  0  0  0  0  0  0  0  0  0
    6.1125   -6.8417    0.0000 C   0  0  0  0  0  0  0  0  0  0  0  0
    6.1167  -10.1625    0.0000 C   0  0  0  0  0  0  0  0  0  0  0  0
    1.1167   -3.9542    0.0000 C   0  0  0  0  0  0  0  0  0  0  0  0
   -1.0208   -5.2000    0.0000 C   0  0  0  0  0  0  0  0  0  0  0  0
  2  6  1  0  0  0  0
  3  4  1  0  0  0  0
  4  1  1  0  0  0  0
  5  2  2  0  0  0  0
  6  7  1  0  0  0  0
  7  1  2  0  0  0  0
  8  1  1  0  0  0  0
  9  3  2  0  0  0  0
 10  8  1  0  0  0  0
 11  5  1  0  0  0  0
 12  5  1  0  0  0  0
 13 10  2  0  0  0  0
 14  4  2  0  0  0  0
 15 18  2  0  0  0  0
 16  8  2  0  0  0  0
 17  9  1  0  0  0  0
 18 16  1  0  0  0  0
 19 12  1  0  0  0  0
 20 13  1  0  0  0  0
 21 11  1  0  0  0  0
 22 15  1  0  0  0  0
 23 19  1  0  0  0  0
 24 19  1  0  0  0  0
 25 20  1  0  0  0  0
 26 22  1  0  0  0  0
 27 23  1  0  0  0  0
 28 24  1  0  0  0  0
  3  2  1  0  0  0  0
 13 15  1  0  0  0  0
 17 11  2  0  0  0  0
M  END
> <IDNUMBER>
F3385-3642

> <Chemical_Name>
8-[(diethylamino)methyl]-3-(3,4-dimethoxyphenyl)-7-hydroxy-4H-chromen-4-one

> <CAS>
859139-39-2

> <PriceCoeff>
1.00

> <MW>
383.44

> <Description>
solid

> <FSP3>
0.32

> <clogP>
3.22

> <TPSA>
68.23

> <Acceptor>
5

> <Donor>
2

> <RotBonds>
7

> <HAC>
28

> <Collection>
General

> <Reference_compound>
CHEMBL455048

> <Similarity>
0.8260

$$$$
F2763-0082
  -ISIS-  06222321462D

 24 26  0  0  0  0  0  0  0  0999 V2000
    0.8167    5.7542    0.0000 N   0  3  0  0  0  0  0  0  0  0  0  0
    0.1250    6.0667    0.0000 C   0  0  0  0  0  0  0  0  0  0  0  0
   -0.4833    5.6167    0.0000 C   0  0  0  0  0  0  0  0  0  0  0  0
   -1.7708    5.4792    0.0000 C   0  0  0  0  0  0  0  0  0  0  0  0
   -4.6708    6.4500    0.0000 C   0  0  3  0  0  0  0  0  0  0  0  0
   -1.1708    5.9167    0.0000 C   0  0  0  0  0  0  0  0  0  0  0  0
   -3.9208    6.3750    0.0000 O   0  0  0  0  0  0  0  0  0  0  0  0
   -4.9708    5.7625    0.0000 O   0  0  0  0  0  0  0  0  0  0  0  0
    0.0417    6.8167    0.0000 C   0  0  0  0  0  0  0  0  0  0  0  0
   -2.4625    5.7792    0.0000 N   0  0  0  0  0  0  0  0  0  0  0  0
    1.4250    6.2000    0.0000 O   0  5  0  0  0  0  0  0  0  0  0  0
    0.8917    5.0042    0.0000 O   0  0  0  0  0  0  0  0  0  0  0  0
   -3.7625    5.6417    0.0000 C   0  0  3  0  0  0  0  0  0  0  0  0
   -1.6958    4.7292    0.0000 O   0  0  0  0  0  0  0  0  0  0  0  0
   -1.2583    6.6750    0.0000 C   0  0  0  0  0  0  0  0  0  0  0  0
   -0.6500    7.1167    0.0000 C   0  0  0  0  0  0  0  0  0  0  0  0
   -4.4083    5.2625    0.0000 C   0  0  0  0  0  0  0  0  0  0  0  0
   -3.0708    5.3375    0.0000 C   0  0  0  0  0  0  0  0  0  0  0  0
    0.6500    7.2792    0.0000 Cl  0  0  0  0  0  0  0  0  0  0  0  0
   -5.4083    6.5625    0.0000 C   0  0  0  0  0  0  0  0  0  0  0  0
   -4.2083    7.0292    0.0000 C   0  0  0  0  0  0  0  0  0  0  0  0
   -5.6833    7.2542    0.0000 C   0  0  0  0  0  0  0  0  0  0  0  0
   -4.4750    7.7292    0.0000 C   0  0  0  0  0  0  0  0  0  0  0  0
   -5.2208    7.8417    0.0000 C   0  0  0  0  0  0  0  0  0  0  0  0
  2  1  1  0  0  0  0
  3  2  1  0  0  0  0
  4  6  1  0  0  0  0
  5  7  1  0  0  0  0
  6  3  2  0  0  0  0
  7 13  1  0  0  0  0
  8 17  1  0  0  0  0
  9  2  2  0  0  0  0
 10  4  1  0  0  0  0
 11  1  1  0  0  0  0
 12  1  2  0  0  0  0
 13 18  1  0  0  0  0
 14  4  2  0  0  0  0
 15 16  2  0  0  0  0
 16  9  1  0  0  0  0
 17 13  1  0  0  0  0
 18 10  1  0  0  0  0
 19  9  1  0  0  0  0
 20  5  1  0  0  0  0
 21  5  1  0  0  0  0
 22 20  1  0  0  0  0
 23 21  1  0  0  0  0
 24 23  1  0  0  0  0
  6 15  1  0  0  0  0
  8  5  1  0  0  0  0
 24 22  1  0  0  0  0
M  CHG  2   1   1  11  -1
M  END
> <IDNUMBER>
F2763-0082

> <Chemical_Name>
4-chloro-N-({1,4-dioxaspiro[4.5]decan-2-yl}methyl)-3-nitrobenzamide

> <CAS>
900006-53-3

> <PriceCoeff>
1.00

> <MW>
354.79

> <Description>
solid

> <FSP3>
0.56

> <clogP>
3.68

> <TPSA>
90.70

> <Acceptor>
5

> <Donor>
1

> <RotBonds>
4

> <HAC>
24

> <Collection>
General

$$$$
F3325-0131
  -ISIS-  06222321462D

 27 29  0  0  0  0  0  0  0  0999 V2000
    3.0375   -3.0417    0.0000 N   0  0  3  0  0  0  0  0  0  0  0  0
    3.4875   -2.3500    0.0000 C   0  0  0  0  0  0  0  0  0  0  0  0
    3.5542   -3.6917    0.0000 C   0  0  0  0  0  0  0  0  0  0  0  0
    4.3250   -3.4000    0.0000 C   0  0  3  0  0  0  0  0  0  0  0  0
    4.2875   -2.5667    0.0000 C   0  0  0  0  0  0  0  0  0  0  0  0
    5.0625   -3.7792    0.0000 N   0  0  0  0  0  0  0  0  0  0  0  0
    2.2125   -3.0875    0.0000 C   0  0  0  0  0  0  0  0  0  0  0  0
   -0.2583   -3.2042    0.0000 C   0  0  0  0  0  0  0  0  0  0  0  0
    3.1917   -1.5792    0.0000 O   0  0  0  0  0  0  0  0  0  0  0  0
    3.3375   -4.4875    0.0000 O   0  0  0  0  0  0  0  0  0  0  0  0
    0.5667   -3.1667    0.0000 C   0  0  0  0  0  0  0  0  0  0  0  0
    7.1500   -2.4292    0.0000 C   0  0  0  0  0  0  0  0  0  0  0  0
    7.8417   -1.9875    0.0000 N   0  0  3  0  0  0  0  0  0  0  0  0
   -0.7083   -2.5125    0.0000 O   0  0  0  0  0  0  0  0  0  0  0  0
    1.7667   -2.3875    0.0000 C   0  0  0  0  0  0  0  0  0  0  0  0
    1.8417   -3.8167    0.0000 C   0  0  0  0  0  0  0  0  0  0  0  0
    1.0167   -3.8542    0.0000 C   0  0  0  0  0  0  0  0  0  0  0  0
    0.9417   -2.4292    0.0000 C   0  0  0  0  0  0  0  0  0  0  0  0
    5.7625   -3.3292    0.0000 C   0  0  0  0  0  0  0  0  0  0  0  0
    6.4167   -2.0542    0.0000 C   0  0  0  0  0  0  0  0  0  0  0  0
    7.1917   -3.2625    0.0000 C   0  0  0  0  0  0  0  0  0  0  0  0
   -0.6333   -3.9417    0.0000 O   0  0  0  0  0  0  0  0  0  0  0  0
    6.4917   -3.7042    0.0000 C   0  0  0  0  0  0  0  0  0  0  0  0
    5.7250   -2.5042    0.0000 C   0  0  0  0  0  0  0  0  0  0  0  0
    8.5792   -2.3625    0.0000 C   0  0  0  0  0  0  0  0  0  0  0  0
    7.8042   -1.1625    0.0000 C   0  0  0  0  0  0  0  0  0  0  0  0
   -1.4583   -3.9792    0.0000 C   0  0  0  0  0  0  0  0  0  0  0  0
  2  1  1  0  0  0  0
  3  1  1  0  0  0  0
  4  3  1  0  0  0  0
  5  2  1  0  0  0  0
  6  4  1  0  0  0  0
  7  1  1  0  0  0  0
  8 11  1  0  0  0  0
  9  2  2  0  0  0  0
 10  3  2  0  0  0  0
 11 17  1  0  0  0  0
 12 20  2  0  0  0  0
 13 12  1  0  0  0  0
 14  8  2  0  0  0  0
 15  7  2  0  0  0  0
 16  7  1  0  0  0  0
 17 16  2  0  0  0  0
 18 15  1  0  0  0  0
 19  6  1  0  0  0  0
 20 24  1  0  0  0  0
 21 23  2  0  0  0  0
 22  8  1  0  0  0  0
 23 19  1  0  0  0  0
 24 19  2  0  0  0  0
 25 13  1  0  0  0  0
 26 13  1  0  0  0  0
 27 22  1  0  0  0  0
  5  4  1  0  0  0  0
 18 11  2  0  0  0  0
 21 12  1  0  0  0  0
M  END
> <IDNUMBER>
F3325-0131

> <Chemical_Name>
methyl 4-(3-{[4-(dimethylamino)phenyl]amino}-2,5-dioxopyrrolidin-1-yl)benzoate

> <CAS>
1025395-90-7

> <PriceCoeff>
1.00

> <MW>
367.40

> <Description>
solid

> <FSP3>
0.25

> <clogP>
3.13

> <TPSA>
78.95

> <Acceptor>
6

> <Donor>
2

> <RotBonds>
6

> <HAC>
27

> <Collection>
General

$$$$
F3139-0832
  -ISIS-  06222321442D

 25 27  0  0  0  0  0  0  0  0999 V2000
    4.6667   -1.1417    0.0000 C   0  0  0  0  0  0  0  0  0  0  0  0
    3.9500   -1.5542    0.0000 C   0  0  0  0  0  0  0  0  0  0  0  0
    3.2375   -1.1417    0.0000 C   0  0  0  0  0  0  0  0  0  0  0  0
    4.6667   -0.3167    0.0000 C   0  0  0  0  0  0  0  0  0  0  0  0
    3.2375   -0.3167    0.0000 C   0  0  0  0  0  0  0  0  0  0  0  0
    3.9500    0.0958    0.0000 O   0  0  0  0  0  0  0  0  0  0  0  0
    2.5250   -1.5542    0.0000 C   0  0  0  0  0  0  0  0  0  0  0  0
    2.5250    0.0958    0.0000 C   0  0  0  0  0  0  0  0  0  0  0  0
   -0.3458    0.0958    0.0000 C   0  0  0  0  0  0  0  0  0  0  0  0
    5.3792   -1.5625    0.0000 C   0  0  0  0  0  0  0  0  0  0  0  0
    3.9500   -2.3792    0.0000 O   0  0  0  0  0  0  0  0  0  0  0  0
   -0.3458    0.9208    0.0000 O   0  0  0  0  0  0  0  0  0  0  0  0
   -1.0583   -0.3167    0.0000 O   0  0  0  0  0  0  0  0  0  0  0  0
    1.8042   -0.3250    0.0000 C   0  0  0  0  0  0  0  0  0  0  0  0
    1.0875    0.0958    0.0000 O   0  0  0  0  0  0  0  0  0  0  0  0
    0.3667   -0.3167    0.0000 C   0  0  0  0  0  0  0  0  0  0  0  0
    1.8042   -1.1417    0.0000 C   0  0  0  0  0  0  0  0  0  0  0  0
   -1.7708    0.0958    0.0000 C   0  0  3  0  0  0  0  0  0  0  0  0
    5.3792   -2.3875    0.0000 C   0  0  0  0  0  0  0  0  0  0  0  0
    6.1000   -1.1417    0.0000 C   0  0  0  0  0  0  0  0  0  0  0  0
   -2.4875   -0.3167    0.0000 C   0  0  0  0  0  0  0  0  0  0  0  0
   -1.7708    0.9208    0.0000 C   0  0  0  0  0  0  0  0  0  0  0  0
    6.0917   -2.8000    0.0000 C   0  0  0  0  0  0  0  0  0  0  0  0
    6.8125   -1.5542    0.0000 C   0  0  0  0  0  0  0  0  0  0  0  0
    6.8042   -2.3917    0.0000 C   0  0  0  0  0  0  0  0  0  0  0  0
  2  1  1  0  0  0  0
  3  2  1  0  0  0  0
  4  1  2  0  0  0  0
  5  6  1  0  0  0  0
  6  4  1  0  0  0  0
  7  3  2  0  0  0  0
  8  5  2  0  0  0  0
  9 16  1  0  0  0  0
 10  1  1  0  0  0  0
 11  2  2  0  0  0  0
 12  9  2  0  0  0  0
 13  9  1  0  0  0  0
 14  8  1  0  0  0  0
 15 14  1  0  0  0  0
 16 15  1  0  0  0  0
 17  7  1  0  0  0  0
 18 13  1  0  0  0  0
 19 10  2  0  0  0  0
 20 10  1  0  0  0  0
 21 18  1  0  0  0  0
 22 18  1  0  0  0  0
 23 19  1  0  0  0  0
 24 20  2  0  0  0  0
 25 24  1  0  0  0  0
  3  5  1  0  0  0  0
 25 23  2  0  0  0  0
 17 14  2  0  0  0  0
M  END
> <IDNUMBER>
F3139-0832

> <Chemical_Name>
propan-2-yl 2-[(4-oxo-3-phenyl-4H-chromen-7-yl)oxy]acetate

> <CAS>
449738-71-0

> <PriceCoeff>
1.00

> <MW>
338.35

> <Description>
solid

> <FSP3>
0.20

> <clogP>
3.54

> <TPSA>
61.83

> <Acceptor>
5

> <Donor>
0

> <RotBonds>
6

> <HAC>
25

> <Collection>
General

> <Reference_compound>
CHEMBL44

> <Similarity>
0.8150

$$$$
F3385-0024
  -ISIS-  06222321442D

 21 23  0  0  0  0  0  0  0  0999 V2000
    2.1292   -1.7167    0.0000 C   0  0  0  0  0  0  0  0  0  0  0  0
    1.4167   -2.1375    0.0000 C   0  0  0  0  0  0  0  0  0  0  0  0
    0.7000   -1.7292    0.0000 C   0  0  0  0  0  0  0  0  0  0  0  0
    2.1292   -0.8875    0.0000 C   0  0  0  0  0  0  0  0  0  0  0  0
    0.6917   -0.8917    0.0000 C   0  0  0  0  0  0  0  0  0  0  0  0
    1.4042   -0.4750    0.0000 O   0  0  0  0  0  0  0  0  0  0  0  0
    2.8417   -2.1250    0.0000 C   0  0  0  0  0  0  0  0  0  0  0  0
   -0.0208   -2.1292    0.0000 C   0  0  0  0  0  0  0  0  0  0  0  0
   -0.0208   -0.4875    0.0000 C   0  0  0  0  0  0  0  0  0  0  0  0
    1.4167   -2.9625    0.0000 O   0  0  0  0  0  0  0  0  0  0  0  0
    2.8500   -2.9542    0.0000 C   0  0  0  0  0  0  0  0  0  0  0  0
    3.5542   -1.7125    0.0000 C   0  0  0  0  0  0  0  0  0  0  0  0
   -0.7250   -0.9000    0.0000 C   0  0  0  0  0  0  0  0  0  0  0  0
   -0.7333   -1.7167    0.0000 C   0  0  0  0  0  0  0  0  0  0  0  0
    4.2792   -2.9417    0.0000 C   0  0  0  0  0  0  0  0  0  0  0  0
    4.2667   -2.1167    0.0000 C   0  0  0  0  0  0  0  0  0  0  0  0
    3.5625   -3.3625    0.0000 C   0  0  0  0  0  0  0  0  0  0  0  0
    4.9917   -3.3542    0.0000 Br  0  0  0  0  0  0  0  0  0  0  0  0
   -1.4375   -0.4875    0.0000 O   0  0  0  0  0  0  0  0  0  0  0  0
   -2.1583   -0.8917    0.0000 C   0  0  0  0  0  0  0  0  0  0  0  0
   -2.8750   -0.4792    0.0000 C   0  0  0  0  0  0  0  0  0  0  0  0
  2  1  1  0  0  0  0
  3  2  1  0  0  0  0
  4  1  2  0  0  0  0
  5  6  1  0  0  0  0
  6  4  1  0  0  0  0
  7  1  1  0  0  0  0
  8  3  2  0  0  0  0
  9  5  2  0  0  0  0
 10  2  2  0  0  0  0
 11  7  2  0  0  0  0
 12  7  1  0  0  0  0
 13  9  1  0  0  0  0
 14  8  1  0  0  0  0
 15 16  1  0  0  0  0
 16 12  2  0  0  0  0
 17 11  1  0  0  0  0
 18 15  1  0  0  0  0
 19 13  1  0  0  0  0
 20 19  1  0  0  0  0
 21 20  1  0  0  0  0
 17 15  2  0  0  0  0
  5  3  1  0  0  0  0
 13 14  2  0  0  0  0
M  END
> <IDNUMBER>
F3385-0024

> <Chemical_Name>
3-(4-bromophenyl)-7-ethoxy-4H-chromen-4-one

> <CAS>
610754-43-3

> <PriceCoeff>
1.00

> <MW>
345.19

> <Description>
solid

> <FSP3>
0.12

> <clogP>
4.48

> <TPSA>
35.53

> <Acceptor>
3

> <Donor>
0

> <RotBonds>
3

> <HAC>
21

> <Collection>
General

> <Reference_compound>
CHEMBL44

> <Similarity>
0.8460

$$$$
F2261-0203
  -ISIS-  06222321442D

 29 31  0  0  0  0  0  0  0  0999 V2000
   -2.9208    7.5000    0.0000 N   0  0  3  0  0  0  0  0  0  0  0  0
   -3.4833    8.1042    0.0000 C   0  0  0  0  0  0  0  0  0  0  0  0
   -3.7583    0.4958    0.0000 N   0  3  0  0  0  0  0  0  0  0  0  0
   -3.7500    2.9833    0.0000 C   0  0  0  0  0  0  0  0  0  0  0  0
   -3.7500    3.8000    0.0000 C   0  0  0  0  0  0  0  0  0  0  0  0
   -3.0458    6.6917    0.0000 C   0  0  0  0  0  0  0  0  0  0  0  0
   -4.3083    8.0417    0.0000 C   0  0  3  0  0  0  0  0  0  0  0  0
   -3.7583    6.2792    0.0000 C   0  0  0  0  0  0  0  0  0  0  0  0
   -4.4833    2.5708    0.0000 C   0  0  0  0  0  0  0  0  0  0  0  0
   -3.7583    1.3083    0.0000 C   0  0  0  0  0  0  0  0  0  0  0  0
   -4.5208    6.5667    0.0000 O   0  0  0  0  0  0  0  0  0  0  0  0
   -4.4833    1.7333    0.0000 C   0  0  0  0  0  0  0  0  0  0  0  0
   -3.0375    4.2125    0.0000 N   0  0  0  0  0  0  0  0  0  0  0  0
   -3.0333    2.5625    0.0000 C   0  0  0  0  0  0  0  0  0  0  0  0
   -3.7583    5.4542    0.0000 C   0  0  0  0  0  0  0  0  0  0  0  0
   -4.7708    7.3542    0.0000 C   0  0  0  0  0  0  0  0  0  0  0  0
   -2.3333    6.2792    0.0000 C   0  0  0  0  0  0  0  0  0  0  0  0
   -3.0375    0.0833    0.0000 O   0  5  0  0  0  0  0  0  0  0  0  0
   -3.0375    5.0292    0.0000 C   0  0  0  0  0  0  0  0  0  0  0  0
   -4.4708    0.0833    0.0000 O   0  0  0  0  0  0  0  0  0  0  0  0
   -3.1750    8.8750    0.0000 O   0  0  0  0  0  0  0  0  0  0  0  0
   -4.4708    4.2042    0.0000 O   0  0  0  0  0  0  0  0  0  0  0  0
   -3.0375    1.7375    0.0000 C   0  0  0  0  0  0  0  0  0  0  0  0
   -5.1875    2.9833    0.0000 Cl  0  0  0  0  0  0  0  0  0  0  0  0
   -2.3250    5.4542    0.0000 C   0  0  0  0  0  0  0  0  0  0  0  0
   -2.1333    7.7500    0.0000 C   0  0  0  0  0  0  0  0  0  0  0  0
   -5.1083    8.2542    0.0000 C   0  0  0  0  0  0  0  0  0  0  0  0
   -4.3125    8.8667    0.0000 C   0  0  0  0  0  0  0  0  0  0  0  0
   -1.9500    8.5542    0.0000 C   0  0  0  0  0  0  0  0  0  0  0  0
  2  1  1  0  0  0  0
  3 10  1  0  0  0  0
  4  5  1  0  0  0  0
  5 13  1  0  0  0  0
  6  1  1  0  0  0  0
  7  2  1  0  0  0  0
  8  6  2  0  0  0  0
  9  4  1  0  0  0  0
 10 23  2  0  0  0  0
 11  8  1  0  0  0  0
 12  9  2  0  0  0  0
 13 19  1  0  0  0  0
 14  4  2  0  0  0  0
 15  8  1  0  0  0  0
 16  7  1  0  0  0  0
 17  6  1  0  0  0  0
 18  3  1  0  0  0  0
 19 25  1  0  0  0  0
 20  3  2  0  0  0  0
 21  2  2  0  0  0  0
 22  5  2  0  0  0  0
 23 14  1  0  0  0  0
 24  9  1  0  0  0  0
 25 17  2  0  0  0  0
 26  1  1  0  0  0  0
 27  7  1  0  0  0  0
 28  7  1  0  0  0  0
 29 26  1  0  0  0  0
 11 16  1  0  0  0  0
 15 19  2  0  0  0  0
 10 12  1  0  0  0  0
M  CHG  2   3   1  18  -1
M  END
> <IDNUMBER>
F2261-0203

> <Chemical_Name>
2-chloro-N-(5-ethyl-3,3-dimethyl-4-oxo-2,3,4,5-tetrahydro-1,5-benzoxazepin-8-yl)-4-nitrobenzamide

> <CAS>
921793-88-6

> <PriceCoeff>
1.00

> <MW>
417.84

> <Description>
solid

> <FSP3>
0.30

> <clogP>
3.32

> <TPSA>
101.78

> <Acceptor>
5

> <Donor>
1

> <RotBonds>
4

> <HAC>
29

> <Collection>
General

$$$$
F3385-5409
  -ISIS-  06222321462D

 26 28  0  0  0  0  0  0  0  0999 V2000
    5.2917    1.2708    0.0000 C   0  0  0  0  0  0  0  0  0  0  0  0
    4.5750    1.6875    0.0000 C   0  0  0  0  0  0  0  0  0  0  0  0
    3.8542    1.2750    0.0000 C   0  0  0  0  0  0  0  0  0  0  0  0
    5.2917    0.4458    0.0000 C   0  0  0  0  0  0  0  0  0  0  0  0
    3.8542    0.4458    0.0000 C   0  0  0  0  0  0  0  0  0  0  0  0
    6.0042    1.6833    0.0000 C   0  0  0  0  0  0  0  0  0  0  0  0
    4.5667    0.0333    0.0000 O   0  0  0  0  0  0  0  0  0  0  0  0
    6.7167    1.2625    0.0000 C   0  0  0  0  0  0  0  0  0  0  0  0
    3.1500    1.6833    0.0000 C   0  0  0  0  0  0  0  0  0  0  0  0
    3.1417    0.0375    0.0000 C   0  0  0  0  0  0  0  0  0  0  0  0
    7.4292    1.6708    0.0000 C   0  0  0  0  0  0  0  0  0  0  0  0
    0.2875    0.0583    0.0000 C   0  0  0  0  0  0  0  0  0  0  0  0
    4.5750    2.5208    0.0000 O   0  0  0  0  0  0  0  0  0  0  0  0
    7.4375    2.4958    0.0000 C   0  0  0  0  0  0  0  0  0  0  0  0
    6.0042    2.5000    0.0000 C   0  0  0  0  0  0  0  0  0  0  0  0
   -0.4250    0.4708    0.0000 O   0  0  0  0  0  0  0  0  0  0  0  0
    6.7167    2.9125    0.0000 C   0  0  0  0  0  0  0  0  0  0  0  0
    2.4292    0.4583    0.0000 C   0  0  0  0  0  0  0  0  0  0  0  0
    1.7167    0.0458    0.0000 O   0  0  0  0  0  0  0  0  0  0  0  0
    1.0042    0.4625    0.0000 C   0  0  0  0  0  0  0  0  0  0  0  0
    2.4375    1.2750    0.0000 C   0  0  0  0  0  0  0  0  0  0  0  0
    0.2792   -0.7667    0.0000 O   0  0  0  0  0  0  0  0  0  0  0  0
    8.1417    1.2500    0.0000 O   0  0  0  0  0  0  0  0  0  0  0  0
    8.1542    2.9083    0.0000 O   0  0  0  0  0  0  0  0  0  0  0  0
    8.8625    1.6583    0.0000 C   0  0  0  0  0  0  0  0  0  0  0  0
    8.8667    2.4958    0.0000 C   0  0  0  0  0  0  0  0  0  0  0  0
  2  1  1  0  0  0  0
  3  2  1  0  0  0  0
  4  1  2  0  0  0  0
  5  7  1  0  0  0  0
  6  1  1  0  0  0  0
  7  4  1  0  0  0  0
  8  6  2  0  0  0  0
  9  3  2  0  0  0  0
 10  5  2  0  0  0  0
 11  8  1  0  0  0  0
 12 20  1  0  0  0  0
 13  2  2  0  0  0  0
 14 17  1  0  0  0  0
 15  6  1  0  0  0  0
 16 12  2  0  0  0  0
 17 15  2  0  0  0  0
 18 10  1  0  0  0  0
 19 18  1  0  0  0  0
 20 19  1  0  0  0  0
 21  9  1  0  0  0  0
 22 12  1  0  0  0  0
 23 11  1  0  0  0  0
 24 14  1  0  0  0  0
 25 23  1  0  0  0  0
 26 24  1  0  0  0  0
  5  3  1  0  0  0  0
 14 11  2  0  0  0  0
 18 21  2  0  0  0  0
M  END
> <IDNUMBER>
F3385-5409

> <Chemical_Name>
2-{[3-(3,4-dimethoxyphenyl)-4-oxo-4H-chromen-7-yl]oxy}acetic acid

> <CAS>
858764-48-4

> <PriceCoeff>
1.00

> <MW>
356.33

> <Description>
solid

> <FSP3>
0.16

> <clogP>
2.04

> <TPSA>
91.29

> <Acceptor>
7

> <Donor>
0

> <RotBonds>
6

> <HAC>
26

> <Collection>
General

> <Reference_compound>
CHEMBL455048

> <Similarity>
0.8660

$$$$
F1175-0173
  -ISIS-  06222321442D

 22 23  0  0  0  0  0  0  0  0999 V2000
    0.7125    2.4208    0.0000 N   0  3  0  0  0  0  0  0  0  0  0  0
    4.9125    2.4208    0.0000 C   0  0  0  0  0  0  0  0  0  0  0  0
    6.3125    2.4333    0.0000 C   0  0  0  0  0  0  0  0  0  0  0  0
    4.2125    1.2083    0.0000 C   0  0  0  0  0  0  0  0  0  0  0  0
    2.1125    2.4208    0.0000 C   0  0  0  0  0  0  0  0  0  0  0  0
    2.8125    1.2083    0.0000 C   0  0  0  0  0  0  0  0  0  0  0  0
    7.0167    1.2208    0.0000 N   0  0  0  0  0  0  0  0  0  0  0  0
   12.6167    1.2333    0.0000 C   0  0  0  0  0  0  0  0  0  0  0  0
    4.2125    3.6333    0.0000 C   0  0  0  0  0  0  0  0  0  0  0  0
    0.0000    3.6333    0.0000 O   0  5  0  0  0  0  0  0  0  0  0  0
    0.0125    1.2083    0.0000 O   0  0  0  0  0  0  0  0  0  0  0  0
   11.2167    1.2333    0.0000 C   0  0  0  0  0  0  0  0  0  0  0  0
    7.0125    3.6458    0.0000 O   0  0  0  0  0  0  0  0  0  0  0  0
    2.7917    3.6333    0.0000 C   0  0  0  0  0  0  0  0  0  0  0  0
   13.3125    2.4458    0.0000 O   0  0  0  0  0  0  0  0  0  0  0  0
    8.4167    1.2333    0.0000 C   0  0  0  0  0  0  0  0  0  0  0  0
   10.5167    0.0208    0.0000 C   0  0  0  0  0  0  0  0  0  0  0  0
   10.5125    2.4458    0.0000 C   0  0  0  0  0  0  0  0  0  0  0  0
    4.9167   -0.0000    0.0000 Cl  0  0  0  0  0  0  0  0  0  0  0  0
   13.3167    0.0250    0.0000 O   0  0  0  0  0  0  0  0  0  0  0  0
    9.1125    2.4458    0.0000 C   0  0  0  0  0  0  0  0  0  0  0  0
    9.1167    0.0208    0.0000 C   0  0  0  0  0  0  0  0  0  0  0  0
  2  9  2  0  0  0  0
  3  2  1  0  0  0  0
  4  6  2  0  0  0  0
  5  1  1  0  0  0  0
  6  5  1  0  0  0  0
  7  3  1  0  0  0  0
  8 12  1  0  0  0  0
  9 14  1  0  0  0  0
 10  1  1  0  0  0  0
 11  1  2  0  0  0  0
 12 17  1  0  0  0  0
 13  3  2  0  0  0  0
 14  5  2  0  0  0  0
 15  8  2  0  0  0  0
 16  7  1  0  0  0  0
 17 22  2  0  0  0  0
 18 21  1  0  0  0  0
 19  4  1  0  0  0  0
 20  8  1  0  0  0  0
 21 16  2  0  0  0  0
 22 16  1  0  0  0  0
  4  2  1  0  0  0  0
 12 18  2  0  0  0  0
M  CHG  2   1   1  10  -1
M  END
> <IDNUMBER>
F1175-0173

> <Chemical_Name>
4-(2-chloro-4-nitrobenzamido)benzoic acid

> <CAS>
312944-39-1

> <PriceCoeff>
1.00

> <MW>
320.68

> <Description>
solid

> <FSP3>
0.00

> <clogP>
2.58

> <TPSA>
109.54

> <Acceptor>
5

> <Donor>
1

> <RotBonds>
4

> <HAC>
22

> <Collection>
General

$$$$
F2769-0191
  -ISIS-  06222321152D

 25 27  0  0  0  0  0  0  0  0999 V2000
   -3.0208    7.5167    0.0000 N   0  0  3  0  0  0  0  0  0  0  0  0
   -3.7333    7.9417    0.0000 C   0  0  0  0  0  0  0  0  0  0  0  0
   -3.0333    6.6917    0.0000 C   0  0  0  0  0  0  0  0  0  0  0  0
   -3.7583    3.8000    0.0000 C   0  0  0  0  0  0  0  0  0  0  0  0
   -2.3208    6.2667    0.0000 C   0  0  0  0  0  0  0  0  0  0  0  0
   -3.0458    4.2125    0.0000 N   0  0  0  0  0  0  0  0  0  0  0  0
   -3.7458    6.2792    0.0000 C   0  0  0  0  0  0  0  0  0  0  0  0
   -3.7500    2.9625    0.0000 C   0  0  0  0  0  0  0  0  0  0  0  0
   -4.4458    7.5292    0.0000 O   0  0  0  0  0  0  0  0  0  0  0  0
   -3.0458    5.0292    0.0000 C   0  0  0  0  0  0  0  0  0  0  0  0
   -2.3208    5.4417    0.0000 C   0  0  0  0  0  0  0  0  0  0  0  0
   -4.4708    4.2042    0.0000 O   0  0  0  0  0  0  0  0  0  0  0  0
   -3.7208    8.7542    0.0000 C   0  0  3  0  0  0  0  0  0  0  0  0
   -3.0208    2.5625    0.0000 C   0  0  0  0  0  0  0  0  0  0  0  0
   -4.4583    2.5583    0.0000 C   0  0  0  0  0  0  0  0  0  0  0  0
   -2.2875    7.9167    0.0000 C   0  0  0  0  0  0  0  0  0  0  0  0
   -3.7583    5.4542    0.0000 C   0  0  0  0  0  0  0  0  0  0  0  0
   -3.7500    1.3208    0.0000 C   0  0  0  0  0  0  0  0  0  0  0  0
   -4.4583    1.7375    0.0000 C   0  0  0  0  0  0  0  0  0  0  0  0
   -3.0208    1.7458    0.0000 C   0  0  0  0  0  0  0  0  0  0  0  0
   -3.7458    0.4833    0.0000 Cl  0  0  0  0  0  0  0  0  0  0  0  0
   -1.6000    6.6667    0.0000 C   0  0  0  0  0  0  0  0  0  0  0  0
   -1.5833    7.4917    0.0000 C   0  0  0  0  0  0  0  0  0  0  0  0
   -4.4250    9.1792    0.0000 C   0  0  0  0  0  0  0  0  0  0  0  0
   -3.0000    9.1667    0.0000 C   0  0  0  0  0  0  0  0  0  0  0  0
  2  1  1  0  0  0  0
  3  1  1  0  0  0  0
  4  6  1  0  0  0  0
  5  3  2  0  0  0  0
  6 10  1  0  0  0  0
  7  3  1  0  0  0  0
  8  4  1  0  0  0  0
  9  2  2  0  0  0  0
 10 17  1  0  0  0  0
 11  5  1  0  0  0  0
 12  4  2  0  0  0  0
 13  2  1  0  0  0  0
 14  8  1  0  0  0  0
 15  8  2  0  0  0  0
 16  1  1  0  0  0  0
 17  7  2  0  0  0  0
 18 19  2  0  0  0  0
 19 15  1  0  0  0  0
 20 14  2  0  0  0  0
 21 18  1  0  0  0  0
 22 23  1  0  0  0  0
 23 16  1  0  0  0  0
 24 13  1  0  0  0  0
 25 13  1  0  0  0  0
  5 22  1  0  0  0  0
 10 11  2  0  0  0  0
 18 20  1  0  0  0  0
M  END
> <IDNUMBER>
F2769-0191

> <Chemical_Name>
4-chloro-N-[1-(2-methylpropanoyl)-1,2,3,4-tetrahydroquinolin-6-yl]benzamide

> <CAS>
942005-91-6

> <PriceCoeff>
1.00

> <MW>
356.85

> <Description>
solid

> <FSP3>
0.30

> <clogP>
4.03

> <TPSA>
49.41

> <Acceptor>
2

> <Donor>
1

> <RotBonds>
4

> <HAC>
25

> <Collection>
General

> <Reference_compound>
CHEMBL2286415

> <Similarity>
0.8060

$$$$
F2271-0197
  -ISIS-  06222321442D

 24 26  0  0  0  0  0  0  0  0999 V2000
   -2.3333    7.9500    0.0000 C   0  0  0  0  0  0  0  0  0  0  0  0
   -2.3375    8.7750    0.0000 N   0  0  3  0  0  0  0  0  0  0  0  0
   -1.6125    7.5292    0.0000 C   0  0  0  0  0  0  0  0  0  0  0  0
   -3.7500    3.8000    0.0000 C   0  0  0  0  0  0  0  0  0  0  0  0
   -3.0500    7.5250    0.0000 C   0  0  0  0  0  0  0  0  0  0  0  0
   -3.7583    2.9833    0.0000 C   0  0  0  0  0  0  0  0  0  0  0  0
   -1.6125    6.6917    0.0000 C   0  0  0  0  0  0  0  0  0  0  0  0
   -4.4708    4.2042    0.0000 O   0  0  0  0  0  0  0  0  0  0  0  0
   -3.0375    4.2125    0.0000 N   0  0  0  0  0  0  0  0  0  0  0  0
   -3.0458    2.5583    0.0000 C   0  0  0  0  0  0  0  0  0  0  0  0
   -4.4708    2.5708    0.0000 C   0  0  0  0  0  0  0  0  0  0  0  0
   -3.0500    6.6917    0.0000 C   0  0  0  0  0  0  0  0  0  0  0  0
   -2.3333    6.2792    0.0000 C   0  0  0  0  0  0  0  0  0  0  0  0
   -3.7625    1.3208    0.0000 C   0  0  0  0  0  0  0  0  0  0  0  0
   -3.0458    1.7333    0.0000 C   0  0  0  0  0  0  0  0  0  0  0  0
   -4.4750    1.7375    0.0000 C   0  0  0  0  0  0  0  0  0  0  0  0
   -3.7708    0.4958    0.0000 Cl  0  0  0  0  0  0  0  0  0  0  0  0
   -1.6208    9.1875    0.0000 C   0  0  0  0  0  0  0  0  0  0  0  0
   -3.0625    9.1792    0.0000 C   0  0  0  0  0  0  0  0  0  0  0  0
   -3.0375    5.0292    0.0000 C   0  0  0  0  0  0  0  0  0  0  0  0
   -0.9083    7.9500    0.0000 C   0  0  0  0  0  0  0  0  0  0  0  0
   -0.9000    8.7750    0.0000 C   0  0  0  0  0  0  0  0  0  0  0  0
   -2.3333    5.4500    0.0000 C   0  0  0  0  0  0  0  0  0  0  0  0
   -3.0625   10.0042    0.0000 C   0  0  0  0  0  0  0  0  0  0  0  0
  2  1  1  0  0  0  0
  3  1  2  0  0  0  0
  4  9  1  0  0  0  0
  5  1  1  0  0  0  0
  6  4  1  0  0  0  0
  7  3  1  0  0  0  0
  8  4  2  0  0  0  0
  9 20  1  0  0  0  0
 10  6  1  0  0  0  0
 11  6  2  0  0  0  0
 12  5  2  0  0  0  0
 13 12  1  0  0  0  0
 14 16  2  0  0  0  0
 15 10  2  0  0  0  0
 16 11  1  0  0  0  0
 17 14  1  0  0  0  0
 18  2  1  0  0  0  0
 19  2  1  0  0  0  0
 20 23  1  0  0  0  0
 21  3  1  0  0  0  0
 22 21  1  0  0  0  0
 23 13  1  0  0  0  0
 24 19  1  0  0  0  0
  7 13  2  0  0  0  0
 22 18  1  0  0  0  0
 15 14  1  0  0  0  0
M  END
> <IDNUMBER>
F2271-0197

> <Chemical_Name>
4-chloro-N-[2-(1-ethyl-1,2,3,4-tetrahydroquinolin-6-yl)ethyl]benzamide

> <CAS>
955791-52-3

> <PriceCoeff>
1.00

> <MW>
342.86

> <Description>
solid

> <FSP3>
0.35

> <clogP>
5.23

> <TPSA>
32.34

> <Acceptor>
2

> <Donor>
2

> <RotBonds>
5

> <HAC>
24

> <Collection>
General

> <Reference_compound>
CHEMBL2286415

> <Similarity>
0.8110

$$$$
F3205-0077
  -ISIS-  06222321152D

 29 32  0  0  0  0  0  0  0  0999 V2000
   -0.1208    0.6833    0.0000 N   0  0  3  0  0  0  0  0  0  0  0  0
    0.3667    0.0083    0.0000 C   0  0  0  0  0  0  0  0  0  0  0  0
    0.3667    1.3458    0.0000 C   0  0  0  0  0  0  0  0  0  0  0  0
    1.1500    0.2625    0.0000 C   0  0  3  0  0  0  0  0  0  0  0  0
    1.1500    1.0875    0.0000 C   0  0  0  0  0  0  0  0  0  0  0  0
    1.8167   -0.2167    0.0000 N   0  0  3  0  0  0  0  0  0  0  0  0
    3.1417   -1.2000    0.0000 N   0  0  3  0  0  0  0  0  0  0  0  0
   -0.9458    0.6833    0.0000 C   0  0  0  0  0  0  0  0  0  0  0  0
    0.1042   -0.7750    0.0000 O   0  0  0  0  0  0  0  0  0  0  0  0
   -3.8250    1.3958    0.0000 C   0  0  3  0  0  0  0  0  0  0  0  0
    0.1125    2.1250    0.0000 O   0  0  0  0  0  0  0  0  0  0  0  0
   -3.4125    0.6833    0.0000 S   0  0  0  0  0  0  0  0  0  0  0  0
    1.7250   -1.0417    0.0000 C   0  0  0  0  0  0  0  0  0  0  0  0
    2.5625    0.1083    0.0000 C   0  0  0  0  0  0  0  0  0  0  0  0
    3.2292   -0.3792    0.0000 C   0  0  0  0  0  0  0  0  0  0  0  0
    2.3792   -1.5292    0.0000 C   0  0  0  0  0  0  0  0  0  0  0  0
    3.8042   -1.6875    0.0000 C   0  0  0  0  0  0  0  0  0  0  0  0
   -1.3500   -0.0292    0.0000 C   0  0  0  0  0  0  0  0  0  0  0  0
   -1.3500    1.3958    0.0000 C   0  0  0  0  0  0  0  0  0  0  0  0
   -2.5875    0.6833    0.0000 C   0  0  0  0  0  0  0  0  0  0  0  0
   -3.4125    2.1125    0.0000 F   0  0  0  0  0  0  0  0  0  0  0  0
   -4.6583    1.3958    0.0000 F   0  0  0  0  0  0  0  0  0  0  0  0
   -2.1750    1.3958    0.0000 C   0  0  0  0  0  0  0  0  0  0  0  0
   -2.1750   -0.0292    0.0000 C   0  0  0  0  0  0  0  0  0  0  0  0
    3.7125   -2.5042    0.0000 C   0  0  0  0  0  0  0  0  0  0  0  0
    4.5542   -1.3542    0.0000 C   0  0  0  0  0  0  0  0  0  0  0  0
    5.2167   -1.8375    0.0000 C   0  0  0  0  0  0  0  0  0  0  0  0
    4.3792   -2.9917    0.0000 C   0  0  0  0  0  0  0  0  0  0  0  0
    5.1292   -2.6625    0.0000 C   0  0  0  0  0  0  0  0  0  0  0  0
  2  1  1  0  0  0  0
  3  1  1  0  0  0  0
  4  2  1  0  0  0  0
  5  3  1  0  0  0  0
  6  4  1  0  0  0  0
  7 15  1  0  0  0  0
  8  1  1  0  0  0  0
  9  2  2  0  0  0  0
 10 12  1  0  0  0  0
 11  3  2  0  0  0  0
 12 20  1  0  0  0  0
 13  6  1  0  0  0  0
 14  6  1  0  0  0  0
 15 14  1  0  0  0  0
 16 13  1  0  0  0  0
 17  7  1  0  0  0  0
 18  8  1  0  0  0  0
 19  8  2  0  0  0  0
 20 23  2  0  0  0  0
 21 10  1  0  0  0  0
 22 10  1  0  0  0  0
 23 19  1  0  0  0  0
 24 18  2  0  0  0  0
 25 17  2  0  0  0  0
 26 17  1  0  0  0  0
 27 26  2  0  0  0  0
 28 25  1  0  0  0  0
 29 27  1  0  0  0  0
  5  4  1  0  0  0  0
 20 24  1  0  0  0  0
  7 16  1  0  0  0  0
 29 28  2  0  0  0  0
M  END
> <IDNUMBER>
F3205-0077

> <Chemical_Name>
1-{4-[(difluoromethyl)sulfanyl]phenyl}-3-(4-phenylpiperazin-1-yl)pyrrolidine-2,5-dione

> <CAS>
881484-81-7

> <PriceCoeff>
1.00

> <MW>
417.47

> <Description>
solid

> <FSP3>
0.33

> <clogP>
4.15

> <TPSA>
69.16

> <Acceptor>
3

> <Donor>
2

> <RotBonds>
5

> <HAC>
29

> <Collection>
General

$$$$
F5526-0149
  -ISIS-  06222321152D

 23 24  0  0  0  0  0  0  0  0999 V2000
   -1.3833    3.4208    0.0000 N   0  3  0  0  0  0  0  0  0  0  0  0
   -1.3833    5.6542    0.0000 C   0  0  0  0  0  0  0  0  0  0  0  0
   -2.0333    5.2792    0.0000 C   0  0  0  0  0  0  0  0  0  0  0  0
   -1.3833    4.1542    0.0000 C   0  0  0  0  0  0  0  0  0  0  0  0
   -1.3833    6.4042    0.0000 C   0  0  0  0  0  0  0  0  0  0  0  0
   -2.0333    4.5292    0.0000 C   0  0  0  0  0  0  0  0  0  0  0  0
   -0.7333    5.2792    0.0000 C   0  0  0  0  0  0  0  0  0  0  0  0
   -2.0333    3.0458    0.0000 O   0  5  0  0  0  0  0  0  0  0  0  0
   -0.7333    3.0458    0.0000 O   0  0  0  0  0  0  0  0  0  0  0  0
   -0.7333    4.5292    0.0000 C   0  0  0  0  0  0  0  0  0  0  0  0
   -0.7375    6.7792    0.0000 O   0  0  0  0  0  0  0  0  0  0  0  0
   -2.0333    6.7792    0.0000 N   0  0  0  0  0  0  0  0  0  0  0  0
   -2.6833    5.6667    0.0000 Cl  0  0  0  0  0  0  0  0  0  0  0  0
   -5.9333    7.5417    0.0000 C   0  0  0  0  0  0  0  0  0  0  0  0
   -4.6458    6.7917    0.0000 C   0  0  0  0  0  0  0  0  0  0  0  0
   -6.5875    7.9167    0.0000 F   0  0  0  0  0  0  0  0  0  0  0  0
   -5.9333    6.7917    0.0000 C   0  0  0  0  0  0  0  0  0  0  0  0
   -5.2875    7.9167    0.0000 C   0  0  0  0  0  0  0  0  0  0  0  0
   -5.2875    6.4167    0.0000 C   0  0  0  0  0  0  0  0  0  0  0  0
   -4.6458    7.5417    0.0000 C   0  0  0  0  0  0  0  0  0  0  0  0
   -3.9833    6.4042    0.0000 O   0  0  0  0  0  0  0  0  0  0  0  0
   -2.6833    6.4042    0.0000 C   0  0  0  0  0  0  0  0  0  0  0  0
   -3.3333    6.7792    0.0000 C   0  0  0  0  0  0  0  0  0  0  0  0
  2  7  1  0  0  0  0
  3  6  1  0  0  0  0
  4  1  1  0  0  0  0
  5  2  1  0  0  0  0
  6  4  2  0  0  0  0
  7 10  2  0  0  0  0
  8  1  1  0  0  0  0
  9  1  2  0  0  0  0
 10  4  1  0  0  0  0
 11  5  2  0  0  0  0
 12  5  1  0  0  0  0
 13  3  1  0  0  0  0
 14 18  2  0  0  0  0
 15 21  1  0  0  0  0
 16 14  1  0  0  0  0
 17 19  2  0  0  0  0
 18 20  1  0  0  0  0
 19 15  1  0  0  0  0
 20 15  2  0  0  0  0
 21 23  1  0  0  0  0
 22 12  1  0  0  0  0
 23 22  1  0  0  0  0
  2  3  2  0  0  0  0
 17 14  1  0  0  0  0
M  CHG  2   1   1   8  -1
M  END
> <IDNUMBER>
F5526-0149

> <Chemical_Name>
2-chloro-N-[2-(4-fluorophenoxy)ethyl]-4-nitrobenzamide

> <CAS>
1105209-81-1

> <PriceCoeff>
1.00

> <MW>
338.72

> <Description>
solid

> <FSP3>
0.13

> <clogP>
3.27

> <TPSA>
81.47

> <Acceptor>
4

> <Donor>
1

> <RotBonds>
6

> <HAC>
23

> <Collection>
General

$$$$
F1199-0132
  -ISIS-  06222321442D

 29 33  0  0  0  0  0  0  0  0999 V2000
    0.3375   -0.4875    0.0000 N   0  0  3  0  0  0  0  0  0  0  0  0
    1.0042   -0.0000    0.0000 C   0  0  0  0  0  0  0  0  0  0  0  0
    0.5875   -1.2792    0.0000 C   0  0  0  0  0  0  0  0  0  0  0  0
   -0.4500   -0.2292    0.0000 C   0  0  0  0  0  0  0  0  0  0  0  0
    1.4167   -1.2792    0.0000 C   0  0  3  0  0  0  0  0  0  0  0  0
    1.6750   -0.4875    0.0000 C   0  0  0  0  0  0  0  0  0  0  0  0
   -0.6208    0.5833    0.0000 C   0  0  0  0  0  0  0  0  0  0  0  0
    5.2000   -1.6042    0.0000 N   0  0  3  0  0  0  0  0  0  0  0  0
   -1.4083    0.8333    0.0000 C   0  0  0  0  0  0  0  0  0  0  0  0
    1.9042   -1.9417    0.0000 N   0  0  0  0  0  0  0  0  0  0  0  0
    1.0042    0.8333    0.0000 O   0  0  0  0  0  0  0  0  0  0  0  0
    4.3792   -1.6875    0.0000 C   0  0  0  0  0  0  0  0  0  0  0  0
   -2.0250    0.2833    0.0000 C   0  0  0  0  0  0  0  0  0  0  0  0
   -1.7458    1.5958    0.0000 O   0  0  0  0  0  0  0  0  0  0  0  0
    0.1000   -1.9417    0.0000 O   0  0  0  0  0  0  0  0  0  0  0  0
   -2.7458    0.6958    0.0000 O   0  0  0  0  0  0  0  0  0  0  0  0
   -1.0625   -0.7875    0.0000 C   0  0  0  0  0  0  0  0  0  0  0  0
   -2.5708    1.5125    0.0000 C   0  0  0  0  0  0  0  0  0  0  0  0
   -1.8500   -0.5375    0.0000 C   0  0  0  0  0  0  0  0  0  0  0  0
    6.8417   -1.4375    0.0000 O   0  0  0  0  0  0  0  0  0  0  0  0
    4.0375   -2.4417    0.0000 C   0  0  0  0  0  0  0  0  0  0  0  0
    3.8792   -1.0167    0.0000 C   0  0  0  0  0  0  0  0  0  0  0  0
    2.7292   -1.8542    0.0000 C   0  0  0  0  0  0  0  0  0  0  0  0
    3.2125   -2.5292    0.0000 C   0  0  0  0  0  0  0  0  0  0  0  0
    3.0625   -1.1042    0.0000 C   0  0  0  0  0  0  0  0  0  0  0  0
    5.5292   -0.8417    0.0000 C   0  0  0  0  0  0  0  0  0  0  0  0
    5.6792   -2.2792    0.0000 C   0  0  0  0  0  0  0  0  0  0  0  0
    6.5042   -2.1917    0.0000 C   0  0  0  0  0  0  0  0  0  0  0  0
    6.3542   -0.7625    0.0000 C   0  0  0  0  0  0  0  0  0  0  0  0
  2  1  1  0  0  0  0
  3  1  1  0  0  0  0
  4  1  1  0  0  0  0
  5  3  1  0  0  0  0
  6  2  1  0  0  0  0
  7  4  2  0  0  0  0
  8 12  1  0  0  0  0
  9  7  1  0  0  0  0
 10  5  1  0  0  0  0
 11  2  2  0  0  0  0
 12 22  1  0  0  0  0
 13 19  1  0  0  0  0
 14  9  1  0  0  0  0
 15  3  2  0  0  0  0
 16 13  1  0  0  0  0
 17  4  1  0  0  0  0
 18 14  1  0  0  0  0
 19 17  2  0  0  0  0
 20 28  1  0  0  0  0
 21 24  1  0  0  0  0
 22 25  2  0  0  0  0
 23 10  1  0  0  0  0
 24 23  2  0  0  0  0
 25 23  1  0  0  0  0
 26  8  1  0  0  0  0
 27  8  1  0  0  0  0
 28 27  1  0  0  0  0
 29 26  1  0  0  0  0
  6  5  1  0  0  0  0
  9 13  2  0  0  0  0
 16 18  1  0  0  0  0
 12 21  2  0  0  0  0
 20 29  1  0  0  0  0
M  END
> <IDNUMBER>
F1199-0132

> <Chemical_Name>
1-(2H-1,3-benzodioxol-5-yl)-3-{[4-(morpholin-4-yl)phenyl]amino}pyrrolidine-2,5-dione

> <CAS>
474008-04-3

> <PriceCoeff>
1.00

> <MW>
395.41

> <Description>
solid

> <FSP3>
0.33

> <clogP>
2.02

> <TPSA>
80.34

> <Acceptor>
7

> <Donor>
2

> <RotBonds>
4

> <HAC>
29

> <Collection>
General

$$$$
F3139-0615
  -ISIS-  06222321152D

 19 21  0  0  0  0  0  0  0  0999 V2000
    5.2750   -0.4292    0.0000 C   0  0  0  0  0  0  0  0  0  0  0  0
    5.2750   -1.2667    0.0000 C   0  0  0  0  0  0  0  0  0  0  0  0
    4.5542   -0.0125    0.0000 O   0  0  0  0  0  0  0  0  0  0  0  0
    3.8292   -1.2667    0.0000 C   0  0  0  0  0  0  0  0  0  0  0  0
    4.5500   -1.6792    0.0000 C   0  0  0  0  0  0  0  0  0  0  0  0
    3.8375   -0.4292    0.0000 C   0  0  0  0  0  0  0  0  0  0  0  0
    5.9875   -0.0250    0.0000 C   0  0  0  0  0  0  0  0  0  0  0  0
    3.1167   -1.6750    0.0000 C   0  0  0  0  0  0  0  0  0  0  0  0
    6.7042   -0.4417    0.0000 C   0  0  0  0  0  0  0  0  0  0  0  0
    4.5500   -2.5042    0.0000 O   0  0  0  0  0  0  0  0  0  0  0  0
    3.1167   -0.0167    0.0000 C   0  0  0  0  0  0  0  0  0  0  0  0
    2.4042   -1.2625    0.0000 C   0  0  0  0  0  0  0  0  0  0  0  0
    6.6917   -1.2667    0.0000 F   0  0  0  0  0  0  0  0  0  0  0  0
    2.4042   -0.4375    0.0000 C   0  0  0  0  0  0  0  0  0  0  0  0
    1.6917   -1.6750    0.0000 F   0  0  0  0  0  0  0  0  0  0  0  0
    5.9917    0.7958    0.0000 C   0  0  0  0  0  0  0  0  0  0  0  0
    7.4167   -0.0292    0.0000 C   0  0  0  0  0  0  0  0  0  0  0  0
    6.7042    1.2083    0.0000 C   0  0  0  0  0  0  0  0  0  0  0  0
    7.4167    0.7958    0.0000 C   0  0  0  0  0  0  0  0  0  0  0  0
  2  1  2  0  0  0  0
  3  1  1  0  0  0  0
  4  6  1  0  0  0  0
  5  2  1  0  0  0  0
  6  3  1  0  0  0  0
  7  1  1  0  0  0  0
  8  4  2  0  0  0  0
  9  7  2  0  0  0  0
 10  5  2  0  0  0  0
 11  6  2  0  0  0  0
 12 14  2  0  0  0  0
 13  9  1  0  0  0  0
 14 11  1  0  0  0  0
 15 12  1  0  0  0  0
 16  7  1  0  0  0  0
 17  9  1  0  0  0  0
 18 16  2  0  0  0  0
 19 18  1  0  0  0  0
  4  5  1  0  0  0  0
 17 19  2  0  0  0  0
 12  8  1  0  0  0  0
M  END
> <IDNUMBER>
F3139-0615

> <Chemical_Name>
6-fluoro-2-(2-fluorophenyl)-4H-chromen-4-one

> <CAS>
213894-65-6

> <PriceCoeff>
1.00

> <MW>
258.22

> <Description>
solid

> <FSP3>
0.00

> <clogP>
3.77

> <TPSA>
26.30

> <Acceptor>
2

> <Donor>
0

> <RotBonds>
1

> <HAC>
19

> <Collection>
General

> <Reference_compound>
CHEMBL275638

> <Similarity>
0.8320

$$$$
F3228-0186
  -ISIS-  06222321152D

 24 26  0  0  0  0  0  0  0  0999 V2000
    0.5375   -0.8667    0.0000 C   0  0  0  0  0  0  0  0  0  0  0  0
    1.1500   -1.2292    0.0000 C   0  0  0  0  0  0  0  0  0  0  0  0
    1.7750   -0.8750    0.0000 C   0  0  0  0  0  0  0  0  0  0  0  0
    1.7750   -0.1542    0.0000 C   0  0  0  0  0  0  0  0  0  0  0  0
    0.5375   -0.1542    0.0000 C   0  0  0  0  0  0  0  0  0  0  0  0
    1.1542    0.2083    0.0000 O   0  0  0  0  0  0  0  0  0  0  0  0
   -1.9125   -0.1542    0.0000 C   0  0  0  0  0  0  0  0  0  0  0  0
   -0.0750   -1.2250    0.0000 C   0  0  0  0  0  0  0  0  0  0  0  0
   -0.6875   -0.1542    0.0000 C   0  0  0  0  0  0  0  0  0  0  0  0
   -0.0750    0.1958    0.0000 C   0  0  0  0  0  0  0  0  0  0  0  0
   -1.3000    0.1958    0.0000 O   0  0  0  0  0  0  0  0  0  0  0  0
   -0.6875   -0.8667    0.0000 C   0  0  0  0  0  0  0  0  0  0  0  0
   -2.5250    0.1958    0.0000 N   0  0  3  0  0  0  0  0  0  0  0  0
    1.1500   -1.9375    0.0000 O   0  0  0  0  0  0  0  0  0  0  0  0
   -1.9125   -0.8667    0.0000 O   0  0  0  0  0  0  0  0  0  0  0  0
    2.3792    0.1958    0.0000 C   0  0  0  0  0  0  0  0  0  0  0  0
   -0.0708   -1.9292    0.0000 O   0  0  0  0  0  0  0  0  0  0  0  0
   -2.5250    0.9083    0.0000 C   0  0  0  0  0  0  0  0  0  0  0  0
   -3.1458   -0.1542    0.0000 C   0  0  0  0  0  0  0  0  0  0  0  0
    2.9917   -0.1542    0.0000 C   0  0  0  0  0  0  0  0  0  0  0  0
    2.3792    0.9000    0.0000 C   0  0  0  0  0  0  0  0  0  0  0  0
    2.9917    1.2583    0.0000 C   0  0  0  0  0  0  0  0  0  0  0  0
    3.6125    0.1875    0.0000 C   0  0  0  0  0  0  0  0  0  0  0  0
    3.6125    0.9000    0.0000 C   0  0  0  0  0  0  0  0  0  0  0  0
  2  1  1  0  0  0  0
  3  2  1  0  0  0  0
  4  6  1  0  0  0  0
  5  1  1  0  0  0  0
  6  5  1  0  0  0  0
  7 11  1  0  0  0  0
  8  1  2  0  0  0  0
  9 12  2  0  0  0  0
 10  5  2  0  0  0  0
 11  9  1  0  0  0  0
 12  8  1  0  0  0  0
 13  7  1  0  0  0  0
 14  2  2  0  0  0  0
 15  7  2  0  0  0  0
 16  4  1  0  0  0  0
 17  8  1  0  0  0  0
 18 13  1  0  0  0  0
 19 13  1  0  0  0  0
 20 16  2  0  0  0  0
 21 16  1  0  0  0  0
 22 21  2  0  0  0  0
 23 20  1  0  0  0  0
 24 22  1  0  0  0  0
  9 10  1  0  0  0  0
  4  3  2  0  0  0  0
 24 23  2  0  0  0  0
M  END
> <IDNUMBER>
F3228-0186

> <Chemical_Name>
5-hydroxy-4-oxo-2-phenyl-4H-chromen-7-yl N,N-dimethylcarbamate

> <CAS>
890635-37-7

> <PriceCoeff>
1.00

> <MW>
325.32

> <Description>
solid

> <FSP3>
0.11

> <clogP>
3.51

> <TPSA>
76.07

> <Acceptor>
5

> <Donor>
1

> <RotBonds>
4

> <HAC>
24

> <Collection>
General

> <Reference_compound>
CHEMBL276915

> <Similarity>
0.8260

$$$$
F0440-0362
  -ISIS-  06222321142D

 21 23  0  0  0  0  0  0  0  0999 V2000
   -1.4500   -0.3042    0.0000 C   0  0  0  0  0  0  0  0  0  0  0  0
    0.4167   -1.3500    0.0000 N   0  0  3  0  0  0  0  0  0  0  0  0
   -1.8125   -0.8042    0.0000 N   0  0  3  0  0  0  0  0  0  0  0  0
   -0.8125   -0.3000    0.0000 N   0  0  0  0  0  0  0  0  0  0  0  0
   -1.8125    0.1833    0.0000 S   0  0  0  0  0  0  0  0  0  0  0  0
    1.0167   -1.4667    0.0000 C   0  0  0  0  0  0  0  0  0  0  0  0
    0.1167   -1.9000    0.0000 C   0  0  0  0  0  0  0  0  0  0  0  0
   -2.3958   -0.6292    0.0000 C   0  0  0  0  0  0  0  0  0  0  0  0
   -0.5125   -0.8292    0.0000 C   0  0  0  0  0  0  0  0  0  0  0  0
   -2.3958   -0.0000    0.0000 C   0  0  0  0  0  0  0  0  0  0  0  0
    0.1000   -0.8292    0.0000 C   0  0  0  0  0  0  0  0  0  0  0  0
    1.0792   -2.0667    0.0000 C   0  0  0  0  0  0  0  0  0  0  0  0
    0.5500   -2.3292    0.0000 C   0  0  0  0  0  0  0  0  0  0  0  0
    1.4792   -1.0667    0.0000 O   0  0  0  0  0  0  0  0  0  0  0  0
   -0.4958   -1.9667    0.0000 O   0  0  0  0  0  0  0  0  0  0  0  0
   -0.8125   -1.3500    0.0000 O   0  0  0  0  0  0  0  0  0  0  0  0
   -1.6333   -1.4042    0.0000 C   0  0  0  0  0  0  0  0  0  0  0  0
   -2.9125   -0.9292    0.0000 C   0  0  0  0  0  0  0  0  0  0  0  0
   -2.9125    0.3000    0.0000 C   0  0  0  0  0  0  0  0  0  0  0  0
   -3.4500   -0.6292    0.0000 C   0  0  0  0  0  0  0  0  0  0  0  0
   -3.4500   -0.0000    0.0000 C   0  0  0  0  0  0  0  0  0  0  0  0
  2 11  1  0  0  0  0
  3  1  1  0  0  0  0
  4  1  2  0  0  0  0
  5  1  1  0  0  0  0
  6  2  1  0  0  0  0
  7  2  1  0  0  0  0
  8  3  1  0  0  0  0
  9  4  1  0  0  0  0
 10  5  1  0  0  0  0
 11  9  1  0  0  0  0
 12  6  1  0  0  0  0
 13  7  1  0  0  0  0
 14  6  2  0  0  0  0
 15  7  2  0  0  0  0
 16  9  2  0  0  0  0
 17  3  1  0  0  0  0
 18  8  1  0  0  0  0
 19 10  1  0  0  0  0
 20 18  2  0  0  0  0
 21 19  2  0  0  0  0
 10  8  2  0  0  0  0
 21 20  1  0  0  0  0
 13 12  1  0  0  0  0
M  END
> <IDNUMBER>
F0440-0362

> <Chemical_Name>
2-(2,5-dioxopyrrolidin-1-yl)-N-[(2E)-3-methyl-2,3-dihydro-1,3-benzothiazol-2-ylidene]acetamide

> <CAS>
329903-06-2

> <PriceCoeff>
1.00

> <MW>
303.34

> <Description>
solid

> <FSP3>
0.29

> <clogP>
2.78

> <TPSA>
95.35

> <Acceptor>
3

> <Donor>
0

> <RotBonds>
3

> <HAC>
21

> <Collection>
General

$$$$
F3385-4502
  -ISIS-  06222321152D

 30 33  0  0  0  0  0  0  0  0999 V2000
    5.5750   -4.4417    0.0000 C   0  0  0  0  0  0  0  0  0  0  0  0
    4.8542   -4.8625    0.0000 C   0  0  0  0  0  0  0  0  0  0  0  0
    4.1417   -4.4417    0.0000 C   0  0  0  0  0  0  0  0  0  0  0  0
    5.5750   -3.6167    0.0000 C   0  0  0  0  0  0  0  0  0  0  0  0
    4.1417   -3.6167    0.0000 C   0  0  0  0  0  0  0  0  0  0  0  0
    6.2875   -4.8625    0.0000 C   0  0  0  0  0  0  0  0  0  0  0  0
    4.8542   -3.2042    0.0000 O   0  0  0  0  0  0  0  0  0  0  0  0
    7.0000   -4.4417    0.0000 C   0  0  0  0  0  0  0  0  0  0  0  0
    3.4292   -4.8625    0.0000 C   0  0  0  0  0  0  0  0  0  0  0  0
    3.4292   -3.2042    0.0000 C   0  0  0  0  0  0  0  0  0  0  0  0
    7.7125   -4.8625    0.0000 C   0  0  0  0  0  0  0  0  0  0  0  0
   -0.1458   -3.6250    0.0000 N   0  0  3  0  0  0  0  0  0  0  0  0
    4.8542   -5.6875    0.0000 O   0  0  0  0  0  0  0  0  0  0  0  0
    7.7125   -5.6917    0.0000 C   0  0  0  0  0  0  0  0  0  0  0  0
    6.2792   -5.6875    0.0000 C   0  0  0  0  0  0  0  0  0  0  0  0
    6.9917   -6.1000    0.0000 C   0  0  0  0  0  0  0  0  0  0  0  0
   -1.5708   -4.4417    0.0000 O   0  0  0  0  0  0  0  0  0  0  0  0
    2.7167   -3.6250    0.0000 C   0  0  0  0  0  0  0  0  0  0  0  0
    2.7167   -4.4417    0.0000 C   0  0  0  0  0  0  0  0  0  0  0  0
    8.4292   -4.4417    0.0000 O   0  0  0  0  0  0  0  0  0  0  0  0
    8.4250   -6.1042    0.0000 O   0  0  0  0  0  0  0  0  0  0  0  0
    2.0042   -3.2125    0.0000 O   0  0  0  0  0  0  0  0  0  0  0  0
    0.5750   -3.2125    0.0000 C   0  0  0  0  0  0  0  0  0  0  0  0
    1.2875   -3.6250    0.0000 C   0  0  0  0  0  0  0  0  0  0  0  0
   -0.8583   -3.2042    0.0000 C   0  0  0  0  0  0  0  0  0  0  0  0
   -0.1375   -4.4417    0.0000 C   0  0  0  0  0  0  0  0  0  0  0  0
   -0.8583   -4.8542    0.0000 C   0  0  0  0  0  0  0  0  0  0  0  0
   -1.5708   -3.6167    0.0000 C   0  0  0  0  0  0  0  0  0  0  0  0
    8.4250   -3.6250    0.0000 C   0  0  0  0  0  0  0  0  0  0  0  0
    9.1417   -5.6917    0.0000 C   0  0  0  0  0  0  0  0  0  0  0  0
  2  1  1  0  0  0  0
  3  2  1  0  0  0  0
  4  1  2  0  0  0  0
  5  7  1  0  0  0  0
  6  1  1  0  0  0  0
  7  4  1  0  0  0  0
  8  6  1  0  0  0  0
  9  3  2  0  0  0  0
 10  5  2  0  0  0  0
 11  8  2  0  0  0  0
 12 23  1  0  0  0  0
 13  2  2  0  0  0  0
 14 16  2  0  0  0  0
 15  6  2  0  0  0  0
 16 15  1  0  0  0  0
 17 27  1  0  0  0  0
 18 10  1  0  0  0  0
 19  9  1  0  0  0  0
 20 11  1  0  0  0  0
 21 14  1  0  0  0  0
 22 18  1  0  0  0  0
 23 24  1  0  0  0  0
 24 22  1  0  0  0  0
 25 12  1  0  0  0  0
 26 12  1  0  0  0  0
 27 26  1  0  0  0  0
 28 25  1  0  0  0  0
 29 20  1  0  0  0  0
 30 21  1  0  0  0  0
  3  5  1  0  0  0  0
 11 14  1  0  0  0  0
 19 18  2  0  0  0  0
 17 28  1  0  0  0  0
M  END
> <IDNUMBER>
F3385-4502

> <Chemical_Name>
3-(3,4-dimethoxyphenyl)-7-[2-(morpholin-4-yl)ethoxy]-4H-chromen-4-one

> <CAS>
921136-07-4

> <PriceCoeff>
1.00

> <MW>
411.45

> <Description>
solid

> <FSP3>
0.35

> <clogP>
2.87

> <TPSA>
66.46

> <Acceptor>
6

> <Donor>
1

> <RotBonds>
7

> <HAC>
30

> <Collection>
General

> <Reference_compound>
CHEMBL455048

> <Similarity>
0.8260

$$$$
F1199-0088
  -ISIS-  06222321452D

 30 33  0  0  0  0  0  0  0  0999 V2000
    1.3542   -0.0500    0.0000 N   0  0  3  0  0  0  0  0  0  0  0  0
    2.0250    0.4375    0.0000 C   0  0  0  0  0  0  0  0  0  0  0  0
    1.6125   -0.8417    0.0000 C   0  0  0  0  0  0  0  0  0  0  0  0
    2.4375   -0.8417    0.0000 C   0  0  3  0  0  0  0  0  0  0  0  0
    2.6917   -0.0500    0.0000 C   0  0  0  0  0  0  0  0  0  0  0  0
    6.2167   -1.1667    0.0000 N   0  0  3  0  0  0  0  0  0  0  0  0
    2.9292   -1.5042    0.0000 N   0  0  0  0  0  0  0  0  0  0  0  0
    0.5667    0.2083    0.0000 C   0  0  0  0  0  0  0  0  0  0  0  0
   -1.7958    0.9708    0.0000 C   0  0  0  0  0  0  0  0  0  0  0  0
    2.0250    1.2708    0.0000 O   0  0  0  0  0  0  0  0  0  0  0  0
    5.4000   -1.2500    0.0000 C   0  0  0  0  0  0  0  0  0  0  0  0
    1.1167   -1.5042    0.0000 O   0  0  0  0  0  0  0  0  0  0  0  0
   -1.0083    0.7208    0.0000 C   0  0  0  0  0  0  0  0  0  0  0  0
   -1.9708    1.7833    0.0000 O   0  0  0  0  0  0  0  0  0  0  0  0
   -0.0458   -0.3500    0.0000 C   0  0  0  0  0  0  0  0  0  0  0  0
    0.4000    1.0208    0.0000 C   0  0  0  0  0  0  0  0  0  0  0  0
   -0.3875    1.2708    0.0000 C   0  0  0  0  0  0  0  0  0  0  0  0
   -0.8333   -0.0917    0.0000 C   0  0  0  0  0  0  0  0  0  0  0  0
    7.8667   -1.0000    0.0000 O   0  0  0  0  0  0  0  0  0  0  0  0
    4.9042   -0.5792    0.0000 C   0  0  0  0  0  0  0  0  0  0  0  0
    5.0542   -2.0042    0.0000 C   0  0  0  0  0  0  0  0  0  0  0  0
    3.7542   -1.4167    0.0000 C   0  0  0  0  0  0  0  0  0  0  0  0
   -2.4000    0.4208    0.0000 O   0  0  0  0  0  0  0  0  0  0  0  0
    4.2292   -2.0917    0.0000 C   0  0  0  0  0  0  0  0  0  0  0  0
    4.0792   -0.6667    0.0000 C   0  0  0  0  0  0  0  0  0  0  0  0
    6.5500   -0.4042    0.0000 C   0  0  0  0  0  0  0  0  0  0  0  0
    6.7042   -1.8417    0.0000 C   0  0  0  0  0  0  0  0  0  0  0  0
    7.5250   -1.7542    0.0000 C   0  0  0  0  0  0  0  0  0  0  0  0
    7.3792   -0.3250    0.0000 C   0  0  0  0  0  0  0  0  0  0  0  0
   -2.2333   -0.3875    0.0000 C   0  0  0  0  0  0  0  0  0  0  0  0
  2  1  1  0  0  0  0
  3  1  1  0  0  0  0
  4  3  1  0  0  0  0
  5  2  1  0  0  0  0
  6 11  1  0  0  0  0
  7  4  1  0  0  0  0
  8  1  1  0  0  0  0
  9 13  1  0  0  0  0
 10  2  2  0  0  0  0
 11 20  1  0  0  0  0
 12  3  2  0  0  0  0
 13 17  2  0  0  0  0
 14  9  2  0  0  0  0
 15  8  1  0  0  0  0
 16  8  2  0  0  0  0
 17 16  1  0  0  0  0
 18 15  2  0  0  0  0
 19 28  1  0  0  0  0
 20 25  2  0  0  0  0
 21 24  1  0  0  0  0
 22  7  1  0  0  0  0
 23  9  1  0  0  0  0
 24 22  2  0  0  0  0
 25 22  1  0  0  0  0
 26  6  1  0  0  0  0
 27  6  1  0  0  0  0
 28 27  1  0  0  0  0
 29 26  1  0  0  0  0
 30 23  1  0  0  0  0
  5  4  1  0  0  0  0
 13 18  1  0  0  0  0
 11 21  2  0  0  0  0
 19 29  1  0  0  0  0
M  END
> <IDNUMBER>
F1199-0088

> <Chemical_Name>
methyl 4-(3-{[4-(morpholin-4-yl)phenyl]amino}-2,5-dioxopyrrolidin-1-yl)benzoate

> <CAS>
474005-27-1

> <PriceCoeff>
1.00

> <MW>
409.44

> <Description>
solid

> <FSP3>
0.32

> <clogP>
2.42

> <TPSA>
88.18

> <Acceptor>
7

> <Donor>
2

> <RotBonds>
6

> <HAC>
30

> <Collection>
General

$$$$
F2545-0216
  -ISIS-  06222321462D

 22 23  0  0  0  0  0  0  0  0999 V2000
   -3.9125    1.2625    0.0000 S   0  0  3  0  0  0  0  0  0  0  0  0
    0.9292    3.0625    0.0000 N   0  3  0  0  0  0  0  0  0  0  0  0
    0.1625    3.3708    0.0000 C   0  0  0  0  0  0  0  0  0  0  0  0
   -1.9125    2.6625    0.0000 C   0  0  0  0  0  0  0  0  0  0  0  0
   -3.2625    1.6375    0.0000 C   0  0  0  0  0  0  0  0  0  0  0  0
   -2.6833    2.9833    0.0000 N   0  0  3  0  0  0  0  0  0  0  0  0
   -0.4958    2.8625    0.0000 C   0  0  0  0  0  0  0  0  0  0  0  0
   -1.2583    3.1708    0.0000 C   0  0  0  0  0  0  0  0  0  0  0  0
   -3.2625    2.3958    0.0000 C   0  0  3  0  0  0  0  0  0  0  0  0
    0.0375    4.1917    0.0000 C   0  0  0  0  0  0  0  0  0  0  0  0
   -3.3833    0.7333    0.0000 O   0  0  0  0  0  0  0  0  0  0  0  0
   -4.5625    0.8958    0.0000 O   0  0  0  0  0  0  0  0  0  0  0  0
    1.0500    2.2500    0.0000 O   0  5  0  0  0  0  0  0  0  0  0  0
   -4.5583    2.3958    0.0000 C   0  0  0  0  0  0  0  0  0  0  0  0
    1.5792    3.5833    0.0000 O   0  0  0  0  0  0  0  0  0  0  0  0
   -4.5583    1.6375    0.0000 C   0  0  0  0  0  0  0  0  0  0  0  0
   -1.8083    1.8458    0.0000 O   0  0  0  0  0  0  0  0  0  0  0  0
   -1.3833    3.9875    0.0000 C   0  0  0  0  0  0  0  0  0  0  0  0
   -0.7333    4.5000    0.0000 C   0  0  0  0  0  0  0  0  0  0  0  0
    0.6792    4.7000    0.0000 Cl  0  0  0  0  0  0  0  0  0  0  0  0
   -2.8458    3.7833    0.0000 C   0  0  0  0  0  0  0  0  0  0  0  0
   -3.6250    4.0417    0.0000 C   0  0  0  0  0  0  0  0  0  0  0  0
  2  3  1  0  0  0  0
  3  7  2  0  0  0  0
  4  6  1  0  0  0  0
  5  1  1  0  0  0  0
  6  9  1  0  0  0  0
  7  8  1  0  0  0  0
  8  4  1  0  0  0  0
  9  5  1  0  0  0  0
 10 19  2  0  0  0  0
 11  1  2  0  0  0  0
 12  1  2  0  0  0  0
 13  2  1  0  0  0  0
 14 16  1  0  0  0  0
 15  2  2  0  0  0  0
 16  1  1  0  0  0  0
 17  4  2  0  0  0  0
 18  8  2  0  0  0  0
 19 18  1  0  0  0  0
 20 10  1  0  0  0  0
 21  6  1  0  0  0  0
 22 21  1  0  0  0  0
  9 14  1  0  0  0  0
  3 10  1  0  0  0  0
M  CHG  2   2   1  13  -1
M  END
> <IDNUMBER>
F2545-0216

> <Chemical_Name>
4-chloro-N-(1,1-dioxo-1lambda6-thiolan-3-yl)-N-ethyl-3-nitrobenzamide

> <CAS>
898425-62-2

> <PriceCoeff>
1.00

> <MW>
346.79

> <Description>
solid

> <FSP3>
0.46

> <clogP>
0.69

> <TPSA>
105.97

> <Acceptor>
5

> <Donor>
0

> <RotBonds>
5

> <HAC>
22

> <Collection>
General

$$$$
F2545-0439
  -ISIS-  06222321462D

 22 23  0  0  0  0  0  0  0  0999 V2000
   -3.9375    1.7750    0.0000 S   0  0  3  0  0  0  0  0  0  0  0  0
    0.2875    4.2167    0.0000 N   0  3  0  0  0  0  0  0  0  0  0  0
   -0.0333    3.4583    0.0000 C   0  0  0  0  0  0  0  0  0  0  0  0
   -1.9875    2.4708    0.0000 C   0  0  0  0  0  0  0  0  0  0  0  0
   -3.2875    2.9000    0.0000 C   0  0  3  0  0  0  0  0  0  0  0  0
   -3.2875    2.1500    0.0000 C   0  0  0  0  0  0  0  0  0  0  0  0
   -2.4958    3.1208    0.0000 N   0  0  3  0  0  0  0  0  0  0  0  0
   -0.8500    3.3458    0.0000 C   0  0  0  0  0  0  0  0  0  0  0  0
   -1.1708    2.5833    0.0000 C   0  0  0  0  0  0  0  0  0  0  0  0
   -4.5833    2.9000    0.0000 C   0  0  0  0  0  0  0  0  0  0  0  0
    0.4792    2.8000    0.0000 C   0  0  0  0  0  0  0  0  0  0  0  0
   -3.2958    1.4083    0.0000 O   0  0  0  0  0  0  0  0  0  0  0  0
   -4.4708    1.2458    0.0000 O   0  0  0  0  0  0  0  0  0  0  0  0
    1.1042    4.3292    0.0000 O   0  5  0  0  0  0  0  0  0  0  0  0
   -0.2208    4.8667    0.0000 O   0  0  0  0  0  0  0  0  0  0  0  0
   -4.5833    2.1500    0.0000 C   0  0  0  0  0  0  0  0  0  0  0  0
   -2.3083    1.7000    0.0000 O   0  0  0  0  0  0  0  0  0  0  0  0
   -0.6625    1.9250    0.0000 C   0  0  0  0  0  0  0  0  0  0  0  0
    0.1542    2.0333    0.0000 C   0  0  0  0  0  0  0  0  0  0  0  0
    1.2917    2.9083    0.0000 Cl  0  0  0  0  0  0  0  0  0  0  0  0
   -3.7083    3.6208    0.0000 C   0  0  0  0  0  0  0  0  0  0  0  0
   -2.0833    3.8333    0.0000 C   0  0  0  0  0  0  0  0  0  0  0  0
  2  3  1  0  0  0  0
  3  8  1  0  0  0  0
  4  7  1  0  0  0  0
  5  6  1  0  0  0  0
  6  1  1  0  0  0  0
  7  5  1  0  0  0  0
  8  9  2  0  0  0  0
  9  4  1  0  0  0  0
 10 16  1  0  0  0  0
 11 19  1  0  0  0  0
 12  1  2  0  0  0  0
 13  1  2  0  0  0  0
 14  2  1  0  0  0  0
 15  2  2  0  0  0  0
 16  1  1  0  0  0  0
 17  4  2  0  0  0  0
 18  9  1  0  0  0  0
 19 18  2  0  0  0  0
 20 11  1  0  0  0  0
 21  5  1  0  0  0  0
 22  7  1  0  0  0  0
  5 10  1  0  0  0  0
  3 11  2  0  0  0  0
M  CHG  2   2   1  14  -1
M  END
> <IDNUMBER>
F2545-0439

> <Chemical_Name>
4-chloro-N-methyl-N-(3-methyl-1,1-dioxo-1lambda6-thiolan-3-yl)-3-nitrobenzamide

> <CAS>
874788-67-7

> <PriceCoeff>
1.00

> <MW>
346.79

> <Description>
solid

> <FSP3>
0.46

> <clogP>
0.68

> <TPSA>
105.97

> <Acceptor>
5

> <Donor>
0

> <RotBonds>
4

> <HAC>
22

> <Collection>
General

$$$$
F0196-1334
  -ISIS-  06222321142D

 26 29  0  0  0  0  0  0  0  0999 V2000
    1.3042    0.1625    0.0000 C   0  0  0  0  0  0  0  0  0  0  0  0
   -0.3125    0.1625    0.0000 C   0  0  0  0  0  0  0  0  0  0  0  0
    0.4792   -0.3167    0.0000 C   0  0  0  0  0  0  0  0  0  0  0  0
    1.3042    1.1208    0.0000 C   0  0  0  0  0  0  0  0  0  0  0  0
   -0.3125    1.1208    0.0000 C   0  0  0  0  0  0  0  0  0  0  0  0
    2.1292   -0.3167    0.0000 C   0  0  0  0  0  0  0  0  0  0  0  0
    0.4792    1.6000    0.0000 O   0  0  0  0  0  0  0  0  0  0  0  0
   -1.1458   -0.3167    0.0000 C   0  0  0  0  0  0  0  0  0  0  0  0
   -1.9708    1.1208    0.0000 C   0  0  0  0  0  0  0  0  0  0  0  0
   -1.1458    1.6000    0.0000 C   0  0  0  0  0  0  0  0  0  0  0  0
    3.8000   -0.3167    0.0000 C   0  0  0  0  0  0  0  0  0  0  0  0
   -1.9708    0.1625    0.0000 C   0  0  0  0  0  0  0  0  0  0  0  0
    2.9667    0.1625    0.0000 C   0  0  0  0  0  0  0  0  0  0  0  0
   -2.8000    1.6000    0.0000 O   0  0  0  0  0  0  0  0  0  0  0  0
   -2.7958    2.5458    0.0000 C   0  0  0  0  0  0  0  0  0  0  0  0
    3.8000   -1.3042    0.0000 C   0  0  0  0  0  0  0  0  0  0  0  0
    4.7000   -0.0292    0.0000 O   0  0  0  0  0  0  0  0  0  0  0  0
    0.4792   -1.3042    0.0000 O   0  0  0  0  0  0  0  0  0  0  0  0
    4.7000   -1.6000    0.0000 O   0  0  0  0  0  0  0  0  0  0  0  0
    5.2375   -0.8292    0.0000 C   0  0  0  0  0  0  0  0  0  0  0  0
    2.1292   -1.3042    0.0000 C   0  0  0  0  0  0  0  0  0  0  0  0
   -2.2000    2.9208    0.0000 O   0  0  0  0  0  0  0  0  0  0  0  0
    2.9667   -1.7875    0.0000 C   0  0  0  0  0  0  0  0  0  0  0  0
   -2.8000   -0.3500    0.0000 C   0  0  0  0  0  0  0  0  0  0  0  0
   -3.6208    3.0208    0.0000 C   0  0  0  0  0  0  0  0  0  0  0  0
   -3.6333    0.1333    0.0000 C   0  0  0  0  0  0  0  0  0  0  0  0
  2  3  1  0  0  0  0
  3  1  1  0  0  0  0
  4  1  2  0  0  0  0
  5  7  1  0  0  0  0
  6  1  1  0  0  0  0
  7  4  1  0  0  0  0
  8  2  1  0  0  0  0
  9 10  2  0  0  0  0
 10  5  1  0  0  0  0
 11 13  1  0  0  0  0
 12  8  2  0  0  0  0
 13  6  2  0  0  0  0
 14  9  1  0  0  0  0
 15 14  1  0  0  0  0
 16 23  1  0  0  0  0
 17 11  1  0  0  0  0
 18  3  2  0  0  0  0
 19 16  1  0  0  0  0
 20 17  1  0  0  0  0
 21  6  1  0  0  0  0
 22 15  2  0  0  0  0
 23 21  2  0  0  0  0
 24 12  1  0  0  0  0
 25 15  1  0  0  0  0
 26 24  1  0  0  0  0
  2  5  2  0  0  0  0
 16 11  2  0  0  0  0
 12  9  1  0  0  0  0
 19 20  1  0  0  0  0
M  END
> <IDNUMBER>
F0196-1334

> <Chemical_Name>
3-(2H-1,3-benzodioxol-5-yl)-6-ethyl-4-oxo-4H-chromen-7-yl acetate

> <CAS>
170241-45-9

> <PriceCoeff>
1.00

> <MW>
352.34

> <Description>
solid

> <FSP3>
0.20

> <clogP>
3.52

> <TPSA>
71.06

> <Acceptor>
6

> <Donor>
0

> <RotBonds>
4

> <HAC>
26

> <Collection>
General

> <Reference_compound>
CHEMBL455048

> <Similarity>
0.8060

$$$$
F1298-0076
  -ISIS-  06222321142D

 28 30  0  0  0  0  0  0  0  0999 V2000
    3.5917   -0.2542    0.0000 C   0  0  0  0  0  0  0  0  0  0  0  0
    3.1042    0.4083    0.0000 C   0  0  0  0  0  0  0  0  0  0  0  0
    4.8417   -2.4167    0.0000 N   0  0  3  0  0  0  0  0  0  0  0  0
    2.3292   -0.6750    0.0000 C   0  0  0  0  0  0  0  0  0  0  0  0
    2.3167    0.1458    0.0000 C   0  0  0  0  0  0  0  0  0  0  0  0
    3.1125   -0.9292    0.0000 S   0  0  0  0  0  0  0  0  0  0  0  0
    0.8917   -0.6875    0.0000 N   0  0  3  0  0  0  0  0  0  0  0  0
    4.4250   -0.2542    0.0000 N   0  0  0  0  0  0  0  0  0  0  0  0
    0.1750   -1.0917    0.0000 C   0  0  0  0  0  0  0  0  0  0  0  0
    4.5042   -3.1625    0.0000 C   0  0  0  0  0  0  0  0  0  0  0  0
    5.6625   -2.4792    0.0000 C   0  0  0  0  0  0  0  0  0  0  0  0
    3.3625    1.1875    0.0000 C   0  0  0  0  0  0  0  0  0  0  0  0
    1.6042   -1.0917    0.0000 C   0  0  0  0  0  0  0  0  0  0  0  0
    4.8292   -0.9750    0.0000 C   0  0  0  0  0  0  0  0  0  0  0  0
    4.4167   -1.7042    0.0000 C   0  0  0  0  0  0  0  0  0  0  0  0
    1.6042    0.5625    0.0000 C   0  0  0  0  0  0  0  0  0  0  0  0
    0.8917    0.1458    0.0000 C   0  0  0  0  0  0  0  0  0  0  0  0
    0.1750   -1.9250    0.0000 O   0  0  0  0  0  0  0  0  0  0  0  0
    5.8375   -3.2917    0.0000 C   0  0  0  0  0  0  0  0  0  0  0  0
    5.1292   -3.7125    0.0000 C   0  0  0  0  0  0  0  0  0  0  0  0
    6.2000   -1.8792    0.0000 O   0  0  0  0  0  0  0  0  0  0  0  0
    3.7042   -3.3375    0.0000 O   0  0  0  0  0  0  0  0  0  0  0  0
    2.8042    1.7958    0.0000 O   0  0  0  0  0  0  0  0  0  0  0  0
    5.6542   -0.9750    0.0000 O   0  0  0  0  0  0  0  0  0  0  0  0
    4.1667    1.3625    0.0000 N   0  0  0  0  0  0  0  0  0  0  0  0
   -0.5375   -0.6875    0.0000 O   0  0  0  0  0  0  0  0  0  0  0  0
   -0.5458    0.1458    0.0000 C   0  0  0  0  0  0  0  0  0  0  0  0
   -1.2583    0.5583    0.0000 C   0  0  0  0  0  0  0  0  0  0  0  0
  2  1  2  0  0  0  0
  3 15  1  0  0  0  0
  4  6  1  0  0  0  0
  5  2  1  0  0  0  0
  6  1  1  0  0  0  0
  7 13  1  0  0  0  0
  8  1  1  0  0  0  0
  9  7  1  0  0  0  0
 10  3  1  0  0  0  0
 11  3  1  0  0  0  0
 12  2  1  0  0  0  0
 13  4  1  0  0  0  0
 14  8  1  0  0  0  0
 15 14  1  0  0  0  0
 16  5  1  0  0  0  0
 17 16  1  0  0  0  0
 18  9  2  0  0  0  0
 19 11  1  0  0  0  0
 20 10  1  0  0  0  0
 21 11  2  0  0  0  0
 22 10  2  0  0  0  0
 23 12  2  0  0  0  0
 24 14  2  0  0  0  0
 25 12  1  0  0  0  0
 26  9  1  0  0  0  0
 27 26  1  0  0  0  0
 28 27  1  0  0  0  0
  4  5  2  0  0  0  0
  7 17  1  0  0  0  0
 20 19  1  0  0  0  0
M  END
> <IDNUMBER>
F1298-0076

> <Chemical_Name>
ethyl 3-carbamoyl-2-[2-(2,5-dioxopyrrolidin-1-yl)acetamido]-4H,5H,6H,7H-thieno[2,3-c]pyridine-6-carboxylate

> <CAS>
864925-96-2

> <PriceCoeff>
1.00

> <MW>
408.43

> <Description>
solid

> <FSP3>
0.47

> <clogP>
0.44

> <TPSA>
167.35

> <Acceptor>
6

> <Donor>
2

> <RotBonds>
7

> <HAC>
28

> <Collection>
General

$$$$
F0777-2196
  -ISIS-  06222321452D

 18 19  0  0  0  0  0  0  0  0999 V2000
    3.7792   -1.4542    0.0000 C   0  0  0  0  0  0  0  0  0  0  0  0
    0.9292   -0.9250    0.0000 C   0  0  0  0  0  0  0  0  0  0  0  0
    2.3792   -1.1542    0.0000 N   0  0  0  0  0  0  0  0  0  0  0  0
    1.6000   -1.4042    0.0000 C   0  0  0  0  0  0  0  0  0  0  0  0
    4.7417   -0.4000    0.0000 C   0  0  0  0  0  0  0  0  0  0  0  0
    3.9542   -0.6500    0.0000 C   0  0  0  0  0  0  0  0  0  0  0  0
    2.9917   -1.7042    0.0000 C   0  0  0  0  0  0  0  0  0  0  0  0
    0.9292   -0.0917    0.0000 C   0  0  0  0  0  0  0  0  0  0  0  0
    0.9292    0.7250    0.0000 N   0  0  0  0  0  0  0  0  0  0  0  0
    5.3542   -0.9542    0.0000 C   0  0  0  0  0  0  0  0  0  0  0  0
    4.3917   -2.0125    0.0000 C   0  0  0  0  0  0  0  0  0  0  0  0
    5.1750   -1.7625    0.0000 C   0  0  0  0  0  0  0  0  0  0  0  0
    4.9167    0.4083    0.0000 Cl  0  0  0  0  0  0  0  0  0  0  0  0
    3.3417   -0.0917    0.0000 O   0  0  0  0  0  0  0  0  0  0  0  0
    5.7875   -2.3167    0.0000 Cl  0  0  0  0  0  0  0  0  0  0  0  0
    0.2667   -1.4042    0.0000 C   0  0  0  0  0  0  0  0  0  0  0  0
    1.3417   -2.1917    0.0000 C   0  0  0  0  0  0  0  0  0  0  0  0
    0.5167   -2.1917    0.0000 C   0  0  0  0  0  0  0  0  0  0  0  0
  2  4  2  0  0  0  0
  3  7  2  0  0  0  0
  4  3  1  0  0  0  0
  5  6  2  0  0  0  0
  6  1  1  0  0  0  0
  7  1  1  0  0  0  0
  8  2  1  0  0  0  0
  9  8  3  0  0  0  0
 10 12  2  0  0  0  0
 11  1  2  0  0  0  0
 12 11  1  0  0  0  0
 13  5  1  0  0  0  0
 14  6  1  0  0  0  0
 15 12  1  0  0  0  0
 16  2  1  0  0  0  0
 17  4  1  0  0  0  0
 18 17  1  0  0  0  0
 10  5  1  0  0  0  0
 18 16  1  0  0  0  0
M  END
> <IDNUMBER>
F0777-2196

> <Chemical_Name>
2-[(E)-[(3,5-dichloro-2-hydroxyphenyl)methylidene]amino]cyclopent-1-ene-1-carbonitrile

> <CAS>
325804-62-4

> <PriceCoeff>
1.00

> <MW>
281.14

> <Description>
solid

> <FSP3>
0.23

> <clogP>
3.10

> <TPSA>
56.38

> <Acceptor>
3

> <Donor>
2

> <RotBonds>
2

> <HAC>
18

> <Collection>
General

$$$$
F3139-0638
  -ISIS-  06222321462D

 19 21  0  0  0  0  0  0  0  0999 V2000
    5.2750   -0.4292    0.0000 C   0  0  0  0  0  0  0  0  0  0  0  0
    5.2750   -1.2667    0.0000 C   0  0  0  0  0  0  0  0  0  0  0  0
    3.8292   -1.2667    0.0000 C   0  0  0  0  0  0  0  0  0  0  0  0
    4.5500   -1.6792    0.0000 C   0  0  0  0  0  0  0  0  0  0  0  0
    4.5542   -0.0125    0.0000 O   0  0  0  0  0  0  0  0  0  0  0  0
    3.8375   -0.4292    0.0000 C   0  0  0  0  0  0  0  0  0  0  0  0
    5.9875   -0.0250    0.0000 C   0  0  0  0  0  0  0  0  0  0  0  0
    3.1167   -1.6750    0.0000 C   0  0  0  0  0  0  0  0  0  0  0  0
    4.5500   -2.5042    0.0000 O   0  0  0  0  0  0  0  0  0  0  0  0
    3.1167   -0.0167    0.0000 C   0  0  0  0  0  0  0  0  0  0  0  0
    6.7042   -0.4417    0.0000 C   0  0  0  0  0  0  0  0  0  0  0  0
    5.9917    0.7958    0.0000 C   0  0  0  0  0  0  0  0  0  0  0  0
    2.4042   -1.2625    0.0000 C   0  0  0  0  0  0  0  0  0  0  0  0
    7.4167    0.7958    0.0000 C   0  0  0  0  0  0  0  0  0  0  0  0
    2.4042   -0.4375    0.0000 C   0  0  0  0  0  0  0  0  0  0  0  0
    6.7042    1.2083    0.0000 C   0  0  0  0  0  0  0  0  0  0  0  0
    7.4167   -0.0292    0.0000 C   0  0  0  0  0  0  0  0  0  0  0  0
    1.6917   -1.6750    0.0000 F   0  0  0  0  0  0  0  0  0  0  0  0
    8.1375    1.2083    0.0000 F   0  0  0  0  0  0  0  0  0  0  0  0
  2  1  2  0  0  0  0
  3  6  1  0  0  0  0
  4  2  1  0  0  0  0
  5  1  1  0  0  0  0
  6  5  1  0  0  0  0
  7  1  1  0  0  0  0
  8  3  2  0  0  0  0
  9  4  2  0  0  0  0
 10  6  2  0  0  0  0
 11  7  2  0  0  0  0
 12  7  1  0  0  0  0
 13 15  2  0  0  0  0
 14 16  1  0  0  0  0
 15 10  1  0  0  0  0
 16 12  2  0  0  0  0
 17 11  1  0  0  0  0
 18 13  1  0  0  0  0
 19 14  1  0  0  0  0
  3  4  1  0  0  0  0
 17 14  2  0  0  0  0
 13  8  1  0  0  0  0
M  END
> <IDNUMBER>
F3139-0638

> <Chemical_Name>
6-fluoro-2-(4-fluorophenyl)-4H-chromen-4-one

> <CAS>
213894-74-7

> <PriceCoeff>
1.00

> <MW>
258.22

> <Description>
solid

> <FSP3>
0.00

> <clogP>
3.77

> <TPSA>
26.30

> <Acceptor>
2

> <Donor>
0

> <RotBonds>
1

> <HAC>
19

> <Collection>
General

> <Reference_compound>
CHEMBL275638

> <Similarity>
0.8930

$$$$
F6617-8455
  -ISIS-  06222304352D

 28 29  0  0  0  0  0  0  0  0999 V2000
    4.7000   -8.6292    0.0000 C   0  0  0  0  0  0  0  0  0  0  0  0
    4.7000   -9.4625    0.0000 C   0  0  0  0  0  0  0  0  0  0  0  0
    6.1167   -6.9750    0.0000 N   0  0  3  0  0  0  0  0  0  0  0  0
    7.0042   -5.9750    0.0000 N   0  0  0  0  0  0  0  0  0  0  0  0
    5.4125   -8.2167    0.0000 C   0  0  3  0  0  0  0  0  0  0  0  0
    6.2042   -6.1500    0.0000 C   0  0  0  0  0  0  0  0  0  0  0  0
    3.9792   -9.8750    0.0000 C   0  0  0  0  0  0  0  0  0  0  0  0
    3.9792   -8.2167    0.0000 C   0  0  0  0  0  0  0  0  0  0  0  0
    5.4042   -7.3917    0.0000 C   0  0  0  0  0  0  0  0  0  0  0  0
    6.1292   -8.6250    0.0000 O   0  0  0  0  0  0  0  0  0  0  0  0
    7.4250   -6.6875    0.0000 C   0  0  0  0  0  0  0  0  0  0  0  0
    6.8750   -7.3042    0.0000 C   0  0  0  0  0  0  0  0  0  0  0  0
    3.2667   -9.4625    0.0000 C   0  0  0  0  0  0  0  0  0  0  0  0
    5.4167   -9.8750    0.0000 Cl  0  0  0  0  0  0  0  0  0  0  0  0
    3.2667   -8.6292    0.0000 C   0  0  0  0  0  0  0  0  0  0  0  0
    6.8417   -8.2125    0.0000 C   0  0  0  0  0  0  0  0  0  0  0  0
    8.9875   -9.4375    0.0000 C   0  0  0  0  0  0  0  0  0  0  0  0
    7.5542   -8.6167    0.0000 C   0  0  0  0  0  0  0  0  0  0  0  0
    2.5542   -9.8750    0.0000 Cl  0  0  0  0  0  0  0  0  0  0  0  0
    9.7042   -9.8500    0.0000 Cl  0  0  0  0  0  0  0  0  0  0  0  0
    8.9792   -8.6042    0.0000 C   0  0  0  0  0  0  0  0  0  0  0  0
    8.2667   -9.8542    0.0000 C   0  0  0  0  0  0  0  0  0  0  0  0
    8.2625   -8.2042    0.0000 C   0  0  0  0  0  0  0  0  0  0  0  0
    7.5542   -9.4417    0.0000 C   0  0  0  0  0  0  0  0  0  0  0  0
   11.8333   -8.1167    0.0000 N   0  3  0  0  0  0  0  0  0  0  0  0
   11.4125   -7.4042    0.0000 O   0  5  0  0  0  0  0  0  0  0  0  0
   12.6583   -8.1167    0.0000 O   0  0  0  0  0  0  0  0  0  0  0  0
   11.4208   -8.8292    0.0000 O   0  0  0  0  0  0  0  0  0  0  0  0
  6  3  1  0  0  0  0
  7  2  2  0  0  0  0
  8  1  2  0  0  0  0
  9  5  1  0  0  0  0
 10  5  1  0  0  0  0
 11 12  2  0  0  0  0
 12  3  1  0  0  0  0
 13 15  2  0  0  0  0
 14  2  1  0  0  0  0
 15  8  1  0  0  0  0
 16 10  1  0  0  0  0
 17 22  2  0  0  0  0
 18 16  1  0  0  0  0
 19 13  1  0  0  0  0
 20 17  1  0  0  0  0
 21 23  2  0  0  0  0
 22 24  1  0  0  0  0
 23 18  1  0  0  0  0
 24 18  2  0  0  0  0
  7 13  1  0  0  0  0
  4 11  1  0  0  0  0
 17 21  1  0  0  0  0
  2  1  1  0  0  0  0
  3  9  1  0  0  0  0
  4  6  2  0  0  0  0
  5  1  1  0  0  0  0
 26 25  1  0  0  0  0
 27 25  2  0  0  0  0
 28 25  1  0  0  0  0
M  CHG  2  25   1  26  -1
M  END
> <IDNUMBER>
F6617-8455

> <Chemical_Name>
1-{2-[(4-chlorophenyl)methoxy]-2-(2,4-dichlorophenyl)ethyl}-1H-imidazole; nitric acid

> <CAS>
24169-02-6

> <PriceCoeff>
1.00

> <MW>
381.68

> <Description>
solid

> <FSP3>
0.17

> <clogP>
5.10

> <TPSA>
27.05

> <Acceptor>
2

> <Donor>
1

> <RotBonds>
6

> <HAC>
24

> <Collection>
General

> <Reference_compound>
CHEMBL91

> <Similarity>
0.9940

$$$$
F0834-1059
  -ISIS-  06222321452D

 22 24  0  0  0  0  0  0  0  0999 V2000
   -3.8708    2.9833    0.0000 C   0  0  0  0  0  0  0  0  0  0  0  0
   -3.8583    5.4500    0.0000 N   0  0  3  0  0  0  0  0  0  0  0  0
   -3.1833    2.5208    0.0000 N   0  0  3  0  0  0  0  0  0  0  0  0
   -3.8708    3.8000    0.0000 N   0  0  0  0  0  0  0  0  0  0  0  0
   -4.5333    2.5208    0.0000 S   0  0  0  0  0  0  0  0  0  0  0  0
   -4.2708    1.7333    0.0000 C   0  0  0  0  0  0  0  0  0  0  0  0
   -3.4333    1.7333    0.0000 C   0  0  0  0  0  0  0  0  0  0  0  0
   -4.6125    5.1417    0.0000 C   0  0  0  0  0  0  0  0  0  0  0  0
   -3.9458    6.2417    0.0000 C   0  0  0  0  0  0  0  0  0  0  0  0
   -3.1583    4.2042    0.0000 C   0  0  0  0  0  0  0  0  0  0  0  0
   -3.1583    5.0292    0.0000 C   0  0  0  0  0  0  0  0  0  0  0  0
   -4.6875    1.0250    0.0000 C   0  0  0  0  0  0  0  0  0  0  0  0
   -3.0333    1.0250    0.0000 C   0  0  0  0  0  0  0  0  0  0  0  0
   -5.1458    5.7542    0.0000 C   0  0  0  0  0  0  0  0  0  0  0  0
   -4.7375    6.4167    0.0000 C   0  0  0  0  0  0  0  0  0  0  0  0
   -4.8208    4.2917    0.0000 O   0  0  0  0  0  0  0  0  0  0  0  0
   -3.3000    6.8417    0.0000 O   0  0  0  0  0  0  0  0  0  0  0  0
   -2.4375    3.8000    0.0000 O   0  0  0  0  0  0  0  0  0  0  0  0
   -4.2708    0.3208    0.0000 C   0  0  0  0  0  0  0  0  0  0  0  0
   -3.4333    0.3208    0.0000 C   0  0  0  0  0  0  0  0  0  0  0  0
   -2.3958    2.7708    0.0000 C   0  0  0  0  0  0  0  0  0  0  0  0
   -4.7083   -0.4042    0.0000 F   0  0  0  0  0  0  0  0  0  0  0  0
  2 11  1  0  0  0  0
  3  1  1  0  0  0  0
  4  1  2  0  0  0  0
  5  1  1  0  0  0  0
  6  5  1  0  0  0  0
  7  3  1  0  0  0  0
  8  2  1  0  0  0  0
  9  2  1  0  0  0  0
 10  4  1  0  0  0  0
 11 10  1  0  0  0  0
 12  6  1  0  0  0  0
 13  7  1  0  0  0  0
 14  8  1  0  0  0  0
 15  9  1  0  0  0  0
 16  8  2  0  0  0  0
 17  9  2  0  0  0  0
 18 10  2  0  0  0  0
 19 12  2  0  0  0  0
 20 13  2  0  0  0  0
 21  3  1  0  0  0  0
 22 19  1  0  0  0  0
  6  7  2  0  0  0  0
 19 20  1  0  0  0  0
 14 15  1  0  0  0  0
M  END
> <IDNUMBER>
F0834-1059

> <Chemical_Name>
2-(2,5-dioxopyrrolidin-1-yl)-N-[(2E)-6-fluoro-3-methyl-2,3-dihydro-1,3-benzothiazol-2-ylidene]acetamide

> <CAS>
477294-98-7

> <PriceCoeff>
1.00

> <MW>
321.33

> <Description>
solid

> <FSP3>
0.29

> <clogP>
2.92

> <TPSA>
95.35

> <Acceptor>
3

> <Donor>
0

> <RotBonds>
3

> <HAC>
22

> <Collection>
General

$$$$
F1567-0169
  -ISIS-  06222321142D

 18 19  0  0  0  0  0  0  0  0999 V2000
    3.1792   -7.2125    0.0000 N   0  0  3  0  0  0  0  0  0  0  0  0
    2.4375   -9.5542    0.0000 C   0  0  0  0  0  0  0  0  0  0  0  0
    5.4042   -6.5042    0.0000 N   0  0  0  0  0  0  0  0  0  0  0  0
    7.1292   -8.0667    0.0000 C   0  0  0  0  0  0  0  0  0  0  0  0
    1.2167   -5.7875    0.0000 C   0  0  0  0  0  0  0  0  0  0  0  0
    9.3542   -7.3292    0.0000 C   0  0  0  0  0  0  0  0  0  0  0  0
    0.0000   -9.5542    0.0000 S   0  0  0  0  0  0  0  0  0  0  0  0
   11.0750   -8.9167    0.0000 C   0  0  0  0  0  0  0  0  0  0  0  0
    9.8167   -5.0792    0.0000 C   0  0  0  0  0  0  0  0  0  0  0  0
   -0.7625   -7.2125    0.0000 C   0  0  0  0  0  0  0  0  0  0  0  0
   13.2667   -8.1875    0.0000 C   0  0  0  0  0  0  0  0  0  0  0  0
    3.7917  -11.4417    0.0000 S   0  0  0  0  0  0  0  0  0  0  0  0
    6.6417  -10.3417    0.0000 O   0  0  0  0  0  0  0  0  0  0  0  0
    1.1917   -3.4667    0.0000 O   0  0  0  0  0  0  0  0  0  0  0  0
   13.7625   -5.9042    0.0000 C   0  0  0  0  0  0  0  0  0  0  0  0
   10.5792  -11.2000    0.0000 Cl  0  0  0  0  0  0  0  0  0  0  0  0
   12.0125   -4.3500    0.0000 C   0  0  0  0  0  0  0  0  0  0  0  0
   16.0000   -5.1792    0.0000 Cl  0  0  0  0  0  0  0  0  0  0  0  0
  2  1  1  0  0  0  0
  3  1  1  0  0  0  0
  4  3  1  0  0  0  0
  5  1  1  0  0  0  0
  6  4  1  0  0  0  0
  7  2  1  0  0  0  0
  8  6  2  0  0  0  0
  9  6  1  0  0  0  0
 10  5  1  0  0  0  0
 11  8  1  0  0  0  0
 12  2  2  0  0  0  0
 13  4  2  0  0  0  0
 14  5  2  0  0  0  0
 15 17  1  0  0  0  0
 16  8  1  0  0  0  0
 17  9  2  0  0  0  0
 18 15  1  0  0  0  0
 10  7  1  0  0  0  0
 11 15  2  0  0  0  0
M  END
> <IDNUMBER>
F1567-0169

> <Chemical_Name>
2,4-dichloro-N-(4-oxo-2-sulfanylidene-1,3-thiazolidin-3-yl)benzamide

> <CAS>
638138-43-9

> <PriceCoeff>
1.00

> <MW>
321.20

> <Description>
solid

> <FSP3>
0.10

> <clogP>
2.23

> <TPSA>
106.80

> <Acceptor>
3

> <Donor>
1

> <RotBonds>
2

> <HAC>
18

> <Collection>
General

> <Reference_compound>
CHEMBL2268839

> <Similarity>
0.8660

$$$$
F1814-1807
  -ISIS-  06222321142D

 22 24  0  0  0  0  0  0  0  0999 V2000
   -4.5500    2.6083    0.0000 C   0  0  0  0  0  0  0  0  0  0  0  0
   -3.1583    5.0292    0.0000 N   0  0  3  0  0  0  0  0  0  0  0  0
   -4.6333    1.7833    0.0000 N   0  0  3  0  0  0  0  0  0  0  0  0
   -3.8625    3.0083    0.0000 N   0  0  0  0  0  0  0  0  0  0  0  0
   -5.3125    2.9458    0.0000 S   0  0  0  0  0  0  0  0  0  0  0  0
   -5.4583    1.6083    0.0000 C   0  0  0  0  0  0  0  0  0  0  0  0
   -5.8708    2.3333    0.0000 C   0  0  0  0  0  0  0  0  0  0  0  0
   -2.4875    5.5042    0.0000 C   0  0  0  0  0  0  0  0  0  0  0  0
   -3.8208    5.5125    0.0000 C   0  0  0  0  0  0  0  0  0  0  0  0
   -3.8708    3.8000    0.0000 C   0  0  0  0  0  0  0  0  0  0  0  0
   -3.1583    4.2042    0.0000 C   0  0  0  0  0  0  0  0  0  0  0  0
   -5.8708    0.8833    0.0000 C   0  0  0  0  0  0  0  0  0  0  0  0
   -3.5625    6.2917    0.0000 C   0  0  0  0  0  0  0  0  0  0  0  0
   -2.7375    6.3000    0.0000 C   0  0  0  0  0  0  0  0  0  0  0  0
   -4.6000    5.2667    0.0000 O   0  0  0  0  0  0  0  0  0  0  0  0
   -1.7083    5.2500    0.0000 O   0  0  0  0  0  0  0  0  0  0  0  0
   -4.5583    4.1917    0.0000 O   0  0  0  0  0  0  0  0  0  0  0  0
   -4.0500    1.2458    0.0000 C   0  0  0  0  0  0  0  0  0  0  0  0
   -5.4583    0.1833    0.0000 F   0  0  0  0  0  0  0  0  0  0  0  0
   -6.6917    2.3333    0.0000 C   0  0  0  0  0  0  0  0  0  0  0  0
   -7.1042    1.6083    0.0000 C   0  0  0  0  0  0  0  0  0  0  0  0
   -6.6875    0.8833    0.0000 C   0  0  0  0  0  0  0  0  0  0  0  0
  2 11  1  0  0  0  0
  3  1  1  0  0  0  0
  4  1  2  0  0  0  0
  5  1  1  0  0  0  0
  6  3  1  0  0  0  0
  7  5  1  0  0  0  0
  8  2  1  0  0  0  0
  9  2  1  0  0  0  0
 10  4  1  0  0  0  0
 11 10  1  0  0  0  0
 12  6  1  0  0  0  0
 13  9  1  0  0  0  0
 14  8  1  0  0  0  0
 15  9  2  0  0  0  0
 16  8  2  0  0  0  0
 17 10  2  0  0  0  0
 18  3  1  0  0  0  0
 19 12  1  0  0  0  0
 20  7  1  0  0  0  0
 21 20  2  0  0  0  0
 22 12  2  0  0  0  0
  7  6  2  0  0  0  0
 22 21  1  0  0  0  0
 14 13  1  0  0  0  0
M  END
> <IDNUMBER>
F1814-1807

> <Chemical_Name>
2-(2,5-dioxopyrrolidin-1-yl)-N-[(2Z)-4-fluoro-3-methyl-2,3-dihydro-1,3-benzothiazol-2-ylidene]acetamide

> <CAS>
868375-76-2

> <PriceCoeff>
1.00

> <MW>
321.33

> <Description>
solid

> <FSP3>
0.29

> <clogP>
2.92

> <TPSA>
95.35

> <Acceptor>
3

> <Donor>
0

> <RotBonds>
3

> <HAC>
22

> <Collection>
General

$$$$
F2384-0515
  -ISIS-  06222321142D

 26 28  0  0  0  0  0  0  0  0999 V2000
   -3.0375    7.5167    0.0000 N   0  0  3  0  0  0  0  0  0  0  0  0
   -3.0375    6.6875    0.0000 C   0  0  0  0  0  0  0  0  0  0  0  0
   -2.3125    7.9250    0.0000 C   0  0  0  0  0  0  0  0  0  0  0  0
   -3.7500    3.8000    0.0000 C   0  0  0  0  0  0  0  0  0  0  0  0
   -2.3250    6.2667    0.0000 C   0  0  0  0  0  0  0  0  0  0  0  0
   -3.0375    4.2125    0.0000 N   0  0  0  0  0  0  0  0  0  0  0  0
   -3.7500    7.9292    0.0000 C   0  0  0  0  0  0  0  0  0  0  0  0
   -3.7583    6.2792    0.0000 C   0  0  0  0  0  0  0  0  0  0  0  0
   -3.7583    2.9833    0.0000 C   0  0  0  0  0  0  0  0  0  0  0  0
   -3.0375    5.0292    0.0000 C   0  0  0  0  0  0  0  0  0  0  0  0
   -2.3250    5.4417    0.0000 C   0  0  0  0  0  0  0  0  0  0  0  0
   -1.6000    7.5042    0.0000 C   0  0  0  0  0  0  0  0  0  0  0  0
   -4.4708    4.2042    0.0000 O   0  0  0  0  0  0  0  0  0  0  0  0
   -2.3083    8.7500    0.0000 O   0  0  0  0  0  0  0  0  0  0  0  0
   -1.6083    6.6750    0.0000 C   0  0  0  0  0  0  0  0  0  0  0  0
   -3.0458    2.5583    0.0000 C   0  0  0  0  0  0  0  0  0  0  0  0
   -4.4708    2.5708    0.0000 C   0  0  0  0  0  0  0  0  0  0  0  0
   -3.7583    5.4542    0.0000 C   0  0  0  0  0  0  0  0  0  0  0  0
   -3.7625    1.3208    0.0000 C   0  0  0  0  0  0  0  0  0  0  0  0
   -3.7458    8.7542    0.0000 C   0  0  0  0  0  0  0  0  0  0  0  0
   -3.0458    1.7333    0.0000 C   0  0  0  0  0  0  0  0  0  0  0  0
   -4.4750    1.7375    0.0000 C   0  0  0  0  0  0  0  0  0  0  0  0
   -3.7708    0.4958    0.0000 Cl  0  0  0  0  0  0  0  0  0  0  0  0
   -4.4583    9.1792    0.0000 C   0  0  3  0  0  0  0  0  0  0  0  0
   -5.1750    8.7750    0.0000 C   0  0  0  0  0  0  0  0  0  0  0  0
   -4.4583   10.0042    0.0000 C   0  0  0  0  0  0  0  0  0  0  0  0
  2  1  1  0  0  0  0
  3  1  1  0  0  0  0
  4  6  1  0  0  0  0
  5  2  2  0  0  0  0
  6 10  1  0  0  0  0
  7  1  1  0  0  0  0
  8  2  1  0  0  0  0
  9  4  1  0  0  0  0
 10 18  1  0  0  0  0
 11  5  1  0  0  0  0
 12  3  1  0  0  0  0
 13  4  2  0  0  0  0
 14  3  2  0  0  0  0
 15 12  1  0  0  0  0
 16  9  1  0  0  0  0
 17  9  2  0  0  0  0
 18  8  2  0  0  0  0
 19 22  2  0  0  0  0
 20  7  1  0  0  0  0
 21 16  2  0  0  0  0
 22 17  1  0  0  0  0
 23 19  1  0  0  0  0
 24 20  1  0  0  0  0
 25 24  1  0  0  0  0
 26 24  1  0  0  0  0
  5 15  1  0  0  0  0
 11 10  2  0  0  0  0
 21 19  1  0  0  0  0
M  END
> <IDNUMBER>
F2384-0515

> <Chemical_Name>
4-chloro-N-[1-(3-methylbutyl)-2-oxo-1,2,3,4-tetrahydroquinolin-6-yl]benzamide

> <CAS>
941954-21-8

> <PriceCoeff>
1.00

> <MW>
370.87

> <Description>
solid

> <FSP3>
0.33

> <clogP>
4.77

> <TPSA>
49.41

> <Acceptor>
2

> <Donor>
1

> <RotBonds>
5

> <HAC>
26

> <Collection>
General

> <Reference_compound>
CHEMBL2286415

> <Similarity>
0.8060

$$$$
F3385-3769
  -ISIS-  06222321462D

 25 27  0  0  0  0  0  0  0  0999 V2000
    3.3000    0.2958    0.0000 C   0  0  0  0  0  0  0  0  0  0  0  0
    4.0167   -0.1167    0.0000 C   0  0  0  0  0  0  0  0  0  0  0  0
    4.7417    0.2958    0.0000 C   0  0  0  0  0  0  0  0  0  0  0  0
    4.7417    1.1250    0.0000 C   0  0  0  0  0  0  0  0  0  0  0  0
    3.3042    1.1250    0.0000 C   0  0  0  0  0  0  0  0  0  0  0  0
    4.0167    1.5458    0.0000 O   0  0  0  0  0  0  0  0  0  0  0  0
    0.4417    1.1250    0.0000 C   0  0  0  0  0  0  0  0  0  0  0  0
    2.5875   -0.1167    0.0000 C   0  0  0  0  0  0  0  0  0  0  0  0
    1.8750    1.1250    0.0000 C   0  0  0  0  0  0  0  0  0  0  0  0
    2.5875    1.5375    0.0000 C   0  0  0  0  0  0  0  0  0  0  0  0
    1.1625    1.5333    0.0000 O   0  0  0  0  0  0  0  0  0  0  0  0
    1.8750    0.2958    0.0000 C   0  0  0  0  0  0  0  0  0  0  0  0
   -0.2708    1.5458    0.0000 N   0  0  3  0  0  0  0  0  0  0  0  0
    4.0167   -0.9417    0.0000 O   0  0  0  0  0  0  0  0  0  0  0  0
    0.4375    0.3000    0.0000 O   0  0  0  0  0  0  0  0  0  0  0  0
    5.4542    1.5333    0.0000 C   0  0  0  0  0  0  0  0  0  0  0  0
    2.5875   -0.9375    0.0000 O   0  0  0  0  0  0  0  0  0  0  0  0
   -0.9833    1.1375    0.0000 C   0  0  0  0  0  0  0  0  0  0  0  0
   -0.2625    2.3708    0.0000 C   0  0  0  0  0  0  0  0  0  0  0  0
    6.1667    1.1208    0.0000 C   0  0  0  0  0  0  0  0  0  0  0  0
    5.4542    2.3583    0.0000 C   0  0  0  0  0  0  0  0  0  0  0  0
    3.3000   -1.3500    0.0000 C   0  0  0  0  0  0  0  0  0  0  0  0
    6.1667    2.7708    0.0000 C   0  0  0  0  0  0  0  0  0  0  0  0
    6.8792    1.5250    0.0000 C   0  0  0  0  0  0  0  0  0  0  0  0
    6.8875    2.3583    0.0000 C   0  0  0  0  0  0  0  0  0  0  0  0
  2  1  1  0  0  0  0
  3  2  1  0  0  0  0
  4  6  1  0  0  0  0
  5  1  1  0  0  0  0
  6  5  1  0  0  0  0
  7 11  1  0  0  0  0
  8  1  2  0  0  0  0
  9 12  2  0  0  0  0
 10  5  2  0  0  0  0
 11  9  1  0  0  0  0
 12  8  1  0  0  0  0
 13  7  1  0  0  0  0
 14  2  2  0  0  0  0
 15  7  2  0  0  0  0
 16  4  1  0  0  0  0
 17  8  1  0  0  0  0
 18 13  1  0  0  0  0
 19 13  1  0  0  0  0
 20 16  2  0  0  0  0
 21 16  1  0  0  0  0
 22 17  1  0  0  0  0
 23 21  2  0  0  0  0
 24 20  1  0  0  0  0
 25 23  1  0  0  0  0
  9 10  1  0  0  0  0
  4  3  2  0  0  0  0
 25 24  2  0  0  0  0
M  END
> <IDNUMBER>
F3385-3769

> <Chemical_Name>
5-methoxy-4-oxo-2-phenyl-4H-chromen-7-yl N,N-dimethylcarbamate

> <CAS>
919735-65-2

> <PriceCoeff>
1.00

> <MW>
339.34

> <Description>
solid

> <FSP3>
0.16

> <clogP>
2.99

> <TPSA>
65.07

> <Acceptor>
5

> <Donor>
0

> <RotBonds>
5

> <HAC>
25

> <Collection>
General

> <Reference_compound>
CHEMBL276915

> <Similarity>
0.8130

$$$$
F0777-1948
  -ISIS-  06222321142D

 15 15  0  0  0  0  0  0  0  0999 V2000
    1.2167   -0.1292    0.0000 C   0  0  0  0  0  0  0  0  0  0  0  0
   -0.2125   -0.1292    0.0000 N   0  0  0  0  0  0  0  0  0  0  0  0
    1.2167   -0.9542    0.0000 S   0  0  0  0  0  0  0  0  0  0  0  0
    0.5042    0.2833    0.0000 N   0  0  0  0  0  0  0  0  0  0  0  0
    1.9292    0.2833    0.0000 N   0  0  0  0  0  0  0  0  0  0  0  0
   -0.9250    0.2875    0.0000 C   0  0  0  0  0  0  0  0  0  0  0  0
   -1.6458   -0.1250    0.0000 C   0  0  0  0  0  0  0  0  0  0  0  0
   -3.0625   -0.9500    0.0000 C   0  0  0  0  0  0  0  0  0  0  0  0
   -1.6458   -0.9500    0.0000 C   0  0  0  0  0  0  0  0  0  0  0  0
   -2.3583    0.2958    0.0000 C   0  0  0  0  0  0  0  0  0  0  0  0
   -3.0625   -0.1250    0.0000 C   0  0  0  0  0  0  0  0  0  0  0  0
   -2.3583   -1.3542    0.0000 C   0  0  0  0  0  0  0  0  0  0  0  0
   -3.7833   -1.3625    0.0000 O   0  0  0  0  0  0  0  0  0  0  0  0
   -4.4958   -0.9500    0.0000 C   0  0  0  0  0  0  0  0  0  0  0  0
   -5.2083   -1.3625    0.0000 C   0  0  0  0  0  0  0  0  0  0  0  0
  2  4  1  0  0  0  0
  3  1  2  0  0  0  0
  4  1  1  0  0  0  0
  5  1  1  0  0  0  0
  6  2  2  0  0  0  0
  7  6  1  0  0  0  0
  8 11  2  0  0  0  0
  9  7  1  0  0  0  0
 10  7  2  0  0  0  0
 11 10  1  0  0  0  0
 12  9  2  0  0  0  0
 13  8  1  0  0  0  0
 14 13  1  0  0  0  0
 15 14  1  0  0  0  0
  8 12  1  0  0  0  0
M  END
> <IDNUMBER>
F0777-1948

> <Chemical_Name>
[(E)-[(4-ethoxyphenyl)methylidene]amino]thiourea

> <CAS>
1548686-57-2

> <PriceCoeff>
1.00

> <MW>
223.29

> <Description>
solid

> <FSP3>
0.20

> <clogP>
2.45

> <TPSA>
91.73

> <Acceptor>
3

> <Donor>
3

> <RotBonds>
4

> <HAC>
15

> <Collection>
General

> <Reference_compound>
CHEMBL242113

> <Similarity>
0.8150

$$$$
F0834-1057
  -ISIS-  06222321142D

 23 25  0  0  0  0  0  0  0  0999 V2000
   -3.8708    2.9833    0.0000 C   0  0  0  0  0  0  0  0  0  0  0  0
   -3.8583    5.4500    0.0000 N   0  0  3  0  0  0  0  0  0  0  0  0
   -3.1875    2.5208    0.0000 N   0  0  3  0  0  0  0  0  0  0  0  0
   -3.8708    3.8000    0.0000 N   0  0  0  0  0  0  0  0  0  0  0  0
   -4.5208    2.5208    0.0000 S   0  0  0  0  0  0  0  0  0  0  0  0
   -3.4333    1.7250    0.0000 C   0  0  0  0  0  0  0  0  0  0  0  0
   -4.2833    1.7250    0.0000 C   0  0  0  0  0  0  0  0  0  0  0  0
   -4.6125    5.1417    0.0000 C   0  0  0  0  0  0  0  0  0  0  0  0
   -3.9458    6.2417    0.0000 C   0  0  0  0  0  0  0  0  0  0  0  0
   -3.1583    4.2042    0.0000 C   0  0  0  0  0  0  0  0  0  0  0  0
   -3.1583    5.0292    0.0000 C   0  0  0  0  0  0  0  0  0  0  0  0
   -3.0208    1.0250    0.0000 C   0  0  0  0  0  0  0  0  0  0  0  0
   -4.7375    6.4167    0.0000 C   0  0  0  0  0  0  0  0  0  0  0  0
   -5.1458    5.7542    0.0000 C   0  0  0  0  0  0  0  0  0  0  0  0
   -3.3000    6.8417    0.0000 O   0  0  0  0  0  0  0  0  0  0  0  0
   -4.8208    4.2917    0.0000 O   0  0  0  0  0  0  0  0  0  0  0  0
   -2.4375    3.8000    0.0000 O   0  0  0  0  0  0  0  0  0  0  0  0
   -2.3958    2.7750    0.0000 C   0  0  0  0  0  0  0  0  0  0  0  0
   -4.6833    1.0250    0.0000 C   0  0  0  0  0  0  0  0  0  0  0  0
   -2.1958    1.0250    0.0000 O   0  0  0  0  0  0  0  0  0  0  0  0
   -4.2833    0.3083    0.0000 C   0  0  0  0  0  0  0  0  0  0  0  0
   -3.4333    0.3083    0.0000 C   0  0  0  0  0  0  0  0  0  0  0  0
   -1.7708    1.7250    0.0000 C   0  0  0  0  0  0  0  0  0  0  0  0
  2 11  1  0  0  0  0
  3  1  1  0  0  0  0
  4  1  2  0  0  0  0
  5  1  1  0  0  0  0
  6  3  1  0  0  0  0
  7  5  1  0  0  0  0
  8  2  1  0  0  0  0
  9  2  1  0  0  0  0
 10  4  1  0  0  0  0
 11 10  1  0  0  0  0
 12  6  1  0  0  0  0
 13  9  1  0  0  0  0
 14  8  1  0  0  0  0
 15  9  2  0  0  0  0
 16  8  2  0  0  0  0
 17 10  2  0  0  0  0
 18  3  1  0  0  0  0
 19  7  1  0  0  0  0
 20 12  1  0  0  0  0
 21 19  2  0  0  0  0
 22 12  2  0  0  0  0
 23 20  1  0  0  0  0
  7  6  2  0  0  0  0
 21 22  1  0  0  0  0
 14 13  1  0  0  0  0
M  END
> <IDNUMBER>
F0834-1057

> <Chemical_Name>
2-(2,5-dioxopyrrolidin-1-yl)-N-[(2E)-4-methoxy-3-methyl-2,3-dihydro-1,3-benzothiazol-2-ylidene]acetamide

> <CAS>
477294-97-6

> <PriceCoeff>
1.00

> <MW>
333.36

> <Description>
solid

> <FSP3>
0.33

> <clogP>
2.70

> <TPSA>
104.58

> <Acceptor>
4

> <Donor>
0

> <RotBonds>
4

> <HAC>
23

> <Collection>
General

$$$$
F1691-2965
  -ISIS-  06222321142D

 24 26  0  0  0  0  0  0  0  0999 V2000
   -4.0208    0.6583    0.0000 C   0  0  0  0  0  0  0  0  0  0  0  0
   -3.5250    1.3250    0.0000 C   0  0  0  0  0  0  0  0  0  0  0  0
   -3.7583   -0.1167    0.0000 C   0  0  0  0  0  0  0  0  0  0  0  0
   -4.4250   -0.6042    0.0000 N   0  0  3  0  0  0  0  0  0  0  0  0
   -3.1125    2.5958    0.0000 N   0  0  3  0  0  0  0  0  0  0  0  0
   -2.4458    2.1125    0.0000 C   0  0  0  0  0  0  0  0  0  0  0  0
   -3.7833    2.1125    0.0000 C   0  0  0  0  0  0  0  0  0  0  0  0
   -2.7000    1.3250    0.0000 S   0  0  0  0  0  0  0  0  0  0  0  0
   -4.8458    0.6625    0.0000 C   0  0  0  0  0  0  0  0  0  0  0  0
   -5.0958   -0.1167    0.0000 C   0  0  0  0  0  0  0  0  0  0  0  0
   -4.4208   -1.4292    0.0000 C   0  0  0  0  0  0  0  0  0  0  0  0
   -1.6583    2.3708    0.0000 N   0  0  0  0  0  0  0  0  0  0  0  0
   -2.9458   -0.3875    0.0000 O   0  0  0  0  0  0  0  0  0  0  0  0
   -4.5625    2.3708    0.0000 O   0  0  0  0  0  0  0  0  0  0  0  0
   -3.7083   -1.8500    0.0000 O   0  0  0  0  0  0  0  0  0  0  0  0
   -3.1208    3.4208    0.0000 C   0  0  0  0  0  0  0  0  0  0  0  0
   -5.3833    1.2708    0.0000 C   0  0  0  0  0  0  0  0  0  0  0  0
   -5.8958   -0.3000    0.0000 C   0  0  0  0  0  0  0  0  0  0  0  0
   -5.1458   -1.8417    0.0000 C   0  0  0  0  0  0  0  0  0  0  0  0
   -1.0500    1.8125    0.0000 C   0  0  0  0  0  0  0  0  0  0  0  0
   -3.8333    3.8333    0.0000 C   0  0  0  0  0  0  0  0  0  0  0  0
   -6.4375    0.3125    0.0000 C   0  0  0  0  0  0  0  0  0  0  0  0
   -6.1875    1.0958    0.0000 C   0  0  0  0  0  0  0  0  0  0  0  0
   -0.2625    2.0708    0.0000 C   0  0  0  0  0  0  0  0  0  0  0  0
  2  1  2  0  0  0  0
  3  1  1  0  0  0  0
  4  3  1  0  0  0  0
  5  7  1  0  0  0  0
  6  8  1  0  0  0  0
  7  2  1  0  0  0  0
  8  2  1  0  0  0  0
  9  1  1  0  0  0  0
 10  9  2  0  0  0  0
 11  4  1  0  0  0  0
 12  6  2  0  0  0  0
 13  3  2  0  0  0  0
 14  7  2  0  0  0  0
 15 11  2  0  0  0  0
 16  5  1  0  0  0  0
 17  9  1  0  0  0  0
 18 10  1  0  0  0  0
 19 11  1  0  0  0  0
 20 12  1  0  0  0  0
 21 16  1  0  0  0  0
 22 23  1  0  0  0  0
 23 17  2  0  0  0  0
 24 20  1  0  0  0  0
 10  4  1  0  0  0  0
  6  5  1  0  0  0  0
 22 18  2  0  0  0  0
M  END
> <IDNUMBER>
F1691-2965

> <Chemical_Name>
1-acetyl-3-[(2Z,5Z)-3-ethyl-2-(ethylimino)-4-oxo-1,3-thiazolidin-5-ylidene]-2,3-dihydro-1H-indol-2-one

> <CAS>
868142-86-3

> <PriceCoeff>
1.00

> <MW>
343.40

> <Description>
solid

> <FSP3>
0.29

> <clogP>
1.97

> <TPSA>
95.35

> <Acceptor>
4

> <Donor>
0

> <RotBonds>
3

> <HAC>
24

> <Collection>
General

$$$$
F3095-1899
  -ISIS-  06222321152D

 23 25  0  0  0  0  0  0  0  0999 V2000
    6.8500   -1.8417    0.0000 N   0  0  3  0  0  0  0  0  0  0  0  0
    6.1292   -1.4375    0.0000 C   0  0  0  0  0  0  0  0  0  0  0  0
    2.5667   -2.6875    0.0000 C   0  0  0  0  0  0  0  0  0  0  0  0
    6.8500   -2.6750    0.0000 C   0  0  0  0  0  0  0  0  0  0  0  0
    7.5542   -1.4292    0.0000 C   0  0  0  0  0  0  0  0  0  0  0  0
    5.4167   -1.8542    0.0000 C   0  0  0  0  0  0  0  0  0  0  0  0
    6.1292   -0.6125    0.0000 O   0  0  0  0  0  0  0  0  0  0  0  0
    1.8542   -3.1042    0.0000 C   0  0  0  0  0  0  0  0  0  0  0  0
    3.2792   -3.1000    0.0000 C   0  0  0  0  0  0  0  0  0  0  0  0
    2.5625   -1.8667    0.0000 C   0  0  0  0  0  0  0  0  0  0  0  0
    4.7042   -1.4417    0.0000 O   0  0  0  0  0  0  0  0  0  0  0  0
    3.9917   -1.8542    0.0000 C   0  0  0  0  0  0  0  0  0  0  0  0
    3.9917   -2.6875    0.0000 C   0  0  0  0  0  0  0  0  0  0  0  0
    3.2667   -1.4500    0.0000 C   0  0  0  0  0  0  0  0  0  0  0  0
    8.2750   -1.8417    0.0000 C   0  0  0  0  0  0  0  0  0  0  0  0
    7.5625   -3.0792    0.0000 C   0  0  0  0  0  0  0  0  0  0  0  0
    8.2750   -2.6667    0.0000 C   0  0  3  0  0  0  0  0  0  0  0  0
    1.8542   -3.9292    0.0000 C   0  0  0  0  0  0  0  0  0  0  0  0
    1.1417   -2.6917    0.0000 C   0  0  0  0  0  0  0  0  0  0  0  0
    8.9917   -3.0792    0.0000 C   0  0  0  0  0  0  0  0  0  0  0  0
    0.4292   -3.1042    0.0000 C   0  0  0  0  0  0  0  0  0  0  0  0
    1.1417   -4.3417    0.0000 C   0  0  0  0  0  0  0  0  0  0  0  0
    0.4292   -3.9292    0.0000 C   0  0  0  0  0  0  0  0  0  0  0  0
  2  1  1  0  0  0  0
  3 10  1  0  0  0  0
  4  1  1  0  0  0  0
  5  1  1  0  0  0  0
  6  2  1  0  0  0  0
  7  2  2  0  0  0  0
  8  3  1  0  0  0  0
  9 13  1  0  0  0  0
 10 14  2  0  0  0  0
 11  6  1  0  0  0  0
 12 11  1  0  0  0  0
 13 12  2  0  0  0  0
 14 12  1  0  0  0  0
 15  5  1  0  0  0  0
 16  4  1  0  0  0  0
 17 15  1  0  0  0  0
 18  8  1  0  0  0  0
 19  8  2  0  0  0  0
 20 17  1  0  0  0  0
 21 19  1  0  0  0  0
 22 18  2  0  0  0  0
 23 21  2  0  0  0  0
 16 17  1  0  0  0  0
  3  9  2  0  0  0  0
 23 22  1  0  0  0  0
M  END
> <IDNUMBER>
F3095-1899

> <Chemical_Name>
2-{[1,1'-biphenyl]-4-yloxy}-1-(4-methylpiperidin-1-yl)ethan-1-one

> <CAS>
302550-63-6

> <PriceCoeff>
1.00

> <MW>
309.40

> <Description>
solid

> <FSP3>
0.35

> <clogP>
4.57

> <TPSA>
29.54

> <Acceptor>
2

> <Donor>
0

> <RotBonds>
5

> <HAC>
23

> <Collection>
General

> <Reference_compound>
CHEMBL4277357

> <Similarity>
0.8810

$$$$
F3139-0414
  -ISIS-  06222321462D

 27 29  0  0  0  0  0  0  0  0999 V2000
    1.3625   -1.2042    0.0000 C   0  0  0  0  0  0  0  0  0  0  0  0
    0.6417   -0.8000    0.0000 C   0  0  0  0  0  0  0  0  0  0  0  0
    2.0667   -0.7917    0.0000 C   0  0  0  0  0  0  0  0  0  0  0  0
    0.6417    0.0250    0.0000 C   0  0  0  0  0  0  0  0  0  0  0  0
   -0.0708   -1.2042    0.0000 C   0  0  0  0  0  0  0  0  0  0  0  0
    2.0667    0.0333    0.0000 C   0  0  0  0  0  0  0  0  0  0  0  0
    1.3542    0.4458    0.0000 O   0  0  0  0  0  0  0  0  0  0  0  0
   -0.0708    0.4375    0.0000 C   0  0  0  0  0  0  0  0  0  0  0  0
   -0.7750   -0.8000    0.0000 C   0  0  0  0  0  0  0  0  0  0  0  0
   -0.7750    0.0250    0.0000 C   0  0  0  0  0  0  0  0  0  0  0  0
   -0.0708   -2.0292    0.0000 O   0  0  0  0  0  0  0  0  0  0  0  0
    2.7875   -1.2042    0.0000 C   0  0  0  0  0  0  0  0  0  0  0  0
   -0.7833   -2.4417    0.0000 C   0  0  0  0  0  0  0  0  0  0  0  0
    1.3625   -2.0292    0.0000 O   0  0  0  0  0  0  0  0  0  0  0  0
   -1.4958    1.2625    0.0000 C   0  0  0  0  0  0  0  0  0  0  0  0
   -1.4958    0.4375    0.0000 O   0  0  0  0  0  0  0  0  0  0  0  0
   -0.7833   -3.2667    0.0000 O   0  0  0  0  0  0  0  0  0  0  0  0
   -0.7833    1.6750    0.0000 O   0  0  0  0  0  0  0  0  0  0  0  0
    3.5000   -0.7917    0.0000 C   0  0  0  0  0  0  0  0  0  0  0  0
    2.7875   -2.0292    0.0000 C   0  0  0  0  0  0  0  0  0  0  0  0
    4.2125   -2.0292    0.0000 C   0  0  0  0  0  0  0  0  0  0  0  0
    3.5042   -2.4417    0.0000 C   0  0  0  0  0  0  0  0  0  0  0  0
    4.2125   -1.2000    0.0000 C   0  0  0  0  0  0  0  0  0  0  0  0
    4.9292   -2.4417    0.0000 O   0  0  0  0  0  0  0  0  0  0  0  0
   -1.4958   -2.0292    0.0000 C   0  0  0  0  0  0  0  0  0  0  0  0
   -2.2083    1.6833    0.0000 C   0  0  0  0  0  0  0  0  0  0  0  0
    5.6500   -2.0292    0.0000 C   0  0  0  0  0  0  0  0  0  0  0  0
  2  1  1  0  0  0  0
  3  1  1  0  0  0  0
  4  2  1  0  0  0  0
  5  2  2  0  0  0  0
  6  3  2  0  0  0  0
  7  6  1  0  0  0  0
  8  4  2  0  0  0  0
  9  5  1  0  0  0  0
 10  9  2  0  0  0  0
 11  5  1  0  0  0  0
 12  3  1  0  0  0  0
 13 11  1  0  0  0  0
 14  1  2  0  0  0  0
 15 16  1  0  0  0  0
 16 10  1  0  0  0  0
 17 13  2  0  0  0  0
 18 15  2  0  0  0  0
 19 12  1  0  0  0  0
 20 12  2  0  0  0  0
 21 22  2  0  0  0  0
 22 20  1  0  0  0  0
 23 19  2  0  0  0  0
 24 21  1  0  0  0  0
 25 13  1  0  0  0  0
 26 15  1  0  0  0  0
 27 24  1  0  0  0  0
  4  7  1  0  0  0  0
 23 21  1  0  0  0  0
  8 10  1  0  0  0  0
M  END
> <IDNUMBER>
F3139-0414

> <Chemical_Name>
7-(acetyloxy)-3-(4-methoxyphenyl)-4-oxo-4H-chromen-5-yl acetate

> <CAS>
54443-59-3

> <PriceCoeff>
1.00

> <MW>
368.34

> <Description>
solid

> <FSP3>
0.15

> <clogP>
1.90

> <TPSA>
88.13

> <Acceptor>
7

> <Donor>
0

> <RotBonds>
6

> <HAC>
27

> <Collection>
General

> <Reference_compound>
CHEMBL44

> <Similarity>
0.8820

$$$$
F3139-1025
  -ISIS-  06222321462D

 27 29  0  0  0  0  0  0  0  0999 V2000
    5.5125   -1.1167    0.0000 C   0  0  0  0  0  0  0  0  0  0  0  0
    4.7875   -1.5292    0.0000 C   0  0  0  0  0  0  0  0  0  0  0  0
    4.0667   -1.1167    0.0000 C   0  0  0  0  0  0  0  0  0  0  0  0
    4.0750   -0.2792    0.0000 C   0  0  0  0  0  0  0  0  0  0  0  0
    3.3542   -1.5250    0.0000 C   0  0  0  0  0  0  0  0  0  0  0  0
    5.5125   -0.2792    0.0000 C   0  0  0  0  0  0  0  0  0  0  0  0
    4.7917    0.1375    0.0000 O   0  0  0  0  0  0  0  0  0  0  0  0
    6.2167   -1.5292    0.0000 C   0  0  0  0  0  0  0  0  0  0  0  0
    3.3542    0.1333    0.0000 C   0  0  0  0  0  0  0  0  0  0  0  0
    2.6417   -1.1125    0.0000 C   0  0  0  0  0  0  0  0  0  0  0  0
    2.6417   -0.2875    0.0000 C   0  0  0  0  0  0  0  0  0  0  0  0
    3.3542   -2.3500    0.0000 O   0  0  0  0  0  0  0  0  0  0  0  0
    2.6417   -2.7625    0.0000 C   0  0  0  0  0  0  0  0  0  0  0  0
    4.7875   -2.3542    0.0000 O   0  0  0  0  0  0  0  0  0  0  0  0
    1.9292    0.9500    0.0000 C   0  0  0  0  0  0  0  0  0  0  0  0
    1.9292    0.1250    0.0000 O   0  0  0  0  0  0  0  0  0  0  0  0
    6.2167   -2.3542    0.0000 C   0  0  0  0  0  0  0  0  0  0  0  0
    2.6417   -3.5875    0.0000 O   0  0  0  0  0  0  0  0  0  0  0  0
    2.6417    1.3625    0.0000 O   0  0  0  0  0  0  0  0  0  0  0  0
    5.5042   -2.7625    0.0000 O   0  0  0  0  0  0  0  0  0  0  0  0
    6.9292   -1.1167    0.0000 C   0  0  0  0  0  0  0  0  0  0  0  0
    1.9292   -2.3500    0.0000 C   0  0  0  0  0  0  0  0  0  0  0  0
    1.2167    1.3625    0.0000 C   0  0  0  0  0  0  0  0  0  0  0  0
    6.9292   -2.7667    0.0000 C   0  0  0  0  0  0  0  0  0  0  0  0
    5.5000   -3.5875    0.0000 C   0  0  0  0  0  0  0  0  0  0  0  0
    7.6417   -1.5292    0.0000 C   0  0  0  0  0  0  0  0  0  0  0  0
    7.6417   -2.3625    0.0000 C   0  0  0  0  0  0  0  0  0  0  0  0
  2  1  1  0  0  0  0
  3  2  1  0  0  0  0
  4  7  1  0  0  0  0
  5  3  2  0  0  0  0
  6  1  2  0  0  0  0
  7  6  1  0  0  0  0
  8  1  1  0  0  0  0
  9  4  2  0  0  0  0
 10  5  1  0  0  0  0
 11  9  1  0  0  0  0
 12  5  1  0  0  0  0
 13 12  1  0  0  0  0
 14  2  2  0  0  0  0
 15 16  1  0  0  0  0
 16 11  1  0  0  0  0
 17  8  2  0  0  0  0
 18 13  2  0  0  0  0
 19 15  2  0  0  0  0
 20 17  1  0  0  0  0
 21  8  1  0  0  0  0
 22 13  1  0  0  0  0
 23 15  1  0  0  0  0
 24 17  1  0  0  0  0
 25 20  1  0  0  0  0
 26 21  2  0  0  0  0
 27 26  1  0  0  0  0
  4  3  1  0  0  0  0
 24 27  2  0  0  0  0
 11 10  2  0  0  0  0
M  END
> <IDNUMBER>
F3139-1025

> <Chemical_Name>
5-(acetyloxy)-3-(2-methoxyphenyl)-4-oxo-4H-chromen-7-yl acetate

> <CAS>
610760-61-7

> <PriceCoeff>
1.00

> <MW>
368.34

> <Description>
solid

> <FSP3>
0.15

> <clogP>
1.34

> <TPSA>
88.13

> <Acceptor>
7

> <Donor>
0

> <RotBonds>
6

> <HAC>
27

> <Collection>
General

> <Reference_compound>
CHEMBL44

> <Similarity>
0.8540

$$$$
F2895-0387
  -ISIS-  06222321152D

 34 38  0  0  0  0  0  0  0  0999 V2000
   -1.0583    2.0583    0.0000 C   0  0  0  0  0  0  0  0  0  0  0  0
   -0.2708    2.3125    0.0000 N   0  0  3  0  0  0  0  0  0  0  0  0
   -1.3125    1.2750    0.0000 N   0  0  0  0  0  0  0  0  0  0  0  0
   -0.3833   -1.2292    0.0000 N   0  0  3  0  0  0  0  0  0  0  0  0
   -1.7125    2.5458    0.0000 S   0  0  0  0  0  0  0  0  0  0  0  0
    1.1292    1.3958    0.0000 C   0  0  0  0  0  0  0  0  0  0  0  0
   -2.1333    1.2750    0.0000 C   0  0  0  0  0  0  0  0  0  0  0  0
   -2.3875    2.0583    0.0000 C   0  0  0  0  0  0  0  0  0  0  0  0
    0.3792   -0.7917    0.0000 C   0  0  0  0  0  0  0  0  0  0  0  0
   -0.5083   -2.0917    0.0000 C   0  0  0  0  0  0  0  0  0  0  0  0
   -1.1583   -0.8292    0.0000 C   0  0  0  0  0  0  0  0  0  0  0  0
    1.1292    0.5208    0.0000 C   0  0  0  0  0  0  0  0  0  0  0  0
   -2.6875    0.6708    0.0000 C   0  0  0  0  0  0  0  0  0  0  0  0
    0.3792    0.0833    0.0000 C   0  0  0  0  0  0  0  0  0  0  0  0
   -3.1958    2.2333    0.0000 C   0  0  0  0  0  0  0  0  0  0  0  0
   -0.0958    3.1125    0.0000 C   0  0  0  0  0  0  0  0  0  0  0  0
    1.7542    1.8000    0.0000 O   0  0  0  0  0  0  0  0  0  0  0  0
   -3.7458    1.6208    0.0000 C   0  0  0  0  0  0  0  0  0  0  0  0
   -3.4875    0.8458    0.0000 C   0  0  0  0  0  0  0  0  0  0  0  0
   -1.3625   -2.2417    0.0000 C   0  0  0  0  0  0  0  0  0  0  0  0
   -1.7833   -1.4750    0.0000 C   0  0  0  0  0  0  0  0  0  0  0  0
    0.1042   -2.7042    0.0000 O   0  0  0  0  0  0  0  0  0  0  0  0
   -1.3000    0.0250    0.0000 O   0  0  0  0  0  0  0  0  0  0  0  0
    2.2042    3.0583    0.0000 N   0  0  0  0  0  0  0  0  0  0  0  0
    0.7292    3.3750    0.0000 C   0  0  0  0  0  0  0  0  0  0  0  0
   -4.5625    1.7875    0.0000 Cl  0  0  0  0  0  0  0  0  0  0  0  0
    1.1292   -1.2292    0.0000 C   0  0  0  0  0  0  0  0  0  0  0  0
    1.3750    2.7958    0.0000 C   0  0  0  0  0  0  0  0  0  0  0  0
    1.8917    0.0833    0.0000 C   0  0  0  0  0  0  0  0  0  0  0  0
   -2.4458   -0.1292    0.0000 C   0  0  0  0  0  0  0  0  0  0  0  0
    1.8917   -0.7917    0.0000 C   0  0  0  0  0  0  0  0  0  0  0  0
    2.3917    3.9083    0.0000 C   0  0  0  0  0  0  0  0  0  0  0  0
    0.9167    4.2167    0.0000 C   0  0  0  0  0  0  0  0  0  0  0  0
    1.7500    4.4792    0.0000 C   0  0  0  0  0  0  0  0  0  0  0  0
  2  1  1  0  0  0  0
  3  1  2  0  0  0  0
  4  9  1  0  0  0  0
  5  1  1  0  0  0  0
  6  2  1  0  0  0  0
  7  3  1  0  0  0  0
  8  5  1  0  0  0  0
  9 14  1  0  0  0  0
 10  4  1  0  0  0  0
 11  4  1  0  0  0  0
 12  6  1  0  0  0  0
 13  7  1  0  0  0  0
 14 12  2  0  0  0  0
 15  8  1  0  0  0  0
 16  2  1  0  0  0  0
 17  6  2  0  0  0  0
 18 15  2  0  0  0  0
 19 13  2  0  0  0  0
 20 10  1  0  0  0  0
 21 11  1  0  0  0  0
 22 10  2  0  0  0  0
 23 11  2  0  0  0  0
 24 28  2  0  0  0  0
 25 16  1  0  0  0  0
 26 18  1  0  0  0  0
 27 31  1  0  0  0  0
 28 25  1  0  0  0  0
 29 12  1  0  0  0  0
 30 13  1  0  0  0  0
 31 29  2  0  0  0  0
 32 34  2  0  0  0  0
 33 25  2  0  0  0  0
 34 33  1  0  0  0  0
  7  8  2  0  0  0  0
 18 19  1  0  0  0  0
 24 32  1  0  0  0  0
 27  9  2  0  0  0  0
 20 21  1  0  0  0  0
M  END
> <IDNUMBER>
F2895-0387

> <Chemical_Name>
N-(6-chloro-4-methyl-1,3-benzothiazol-2-yl)-3-(2,5-dioxopyrrolidin-1-yl)-N-[(pyridin-3-yl)methyl]benzamide

> <CAS>
920214-71-7

> <PriceCoeff>
1.00

> <MW>
490.96

> <Description>
solid

> <FSP3>
0.16

> <clogP>
3.05

> <TPSA>
111.71

> <Acceptor>
5

> <Donor>
1

> <RotBonds>
6

> <HAC>
34

> <Collection>
General

$$$$
F3385-2854
  -ISIS-  06222321152D

 24 26  0  0  0  0  0  0  0  0999 V2000
    1.7542    0.9125    0.0000 C   0  0  0  0  0  0  0  0  0  0  0  0
    1.1875    0.5958    0.0000 C   0  0  0  0  0  0  0  0  0  0  0  0
    1.7542    1.5708    0.0000 C   0  0  0  0  0  0  0  0  0  0  0  0
    0.6250    0.9208    0.0000 C   0  0  0  0  0  0  0  0  0  0  0  0
    0.6250    1.5708    0.0000 C   0  0  0  0  0  0  0  0  0  0  0  0
    1.1875    1.8958    0.0000 O   0  0  0  0  0  0  0  0  0  0  0  0
    0.0625    1.8958    0.0000 C   0  0  0  0  0  0  0  0  0  0  0  0
    0.0625    0.5958    0.0000 C   0  0  0  0  0  0  0  0  0  0  0  0
    1.1792   -0.0542    0.0000 O   0  0  0  0  0  0  0  0  0  0  0  0
    2.3042    0.5958    0.0000 C   0  0  0  0  0  0  0  0  0  0  0  0
   -2.7333    1.5708    0.0000 C   0  0  0  0  0  0  0  0  0  0  0  0
   -2.1708    1.8958    0.0000 C   0  0  0  0  0  0  0  0  0  0  0  0
   -0.4958    1.5625    0.0000 C   0  0  0  0  0  0  0  0  0  0  0  0
   -0.4958    0.9208    0.0000 C   0  0  0  0  0  0  0  0  0  0  0  0
    2.3125    1.8958    0.0000 C   0  0  0  0  0  0  0  0  0  0  0  0
   -1.6125    1.5708    0.0000 C   0  0  0  0  0  0  0  0  0  0  0  0
   -1.0583    1.8958    0.0000 O   0  0  0  0  0  0  0  0  0  0  0  0
   -3.2875    1.8958    0.0000 C   0  0  0  0  0  0  0  0  0  0  0  0
   -2.7250    0.9208    0.0000 C   0  0  0  0  0  0  0  0  0  0  0  0
    2.3042   -0.0542    0.0000 C   0  0  0  0  0  0  0  0  0  0  0  0
    2.8667    0.9125    0.0000 C   0  0  0  0  0  0  0  0  0  0  0  0
    3.4250    0.5958    0.0000 C   0  0  0  0  0  0  0  0  0  0  0  0
    2.8667   -0.3792    0.0000 C   0  0  0  0  0  0  0  0  0  0  0  0
    3.4250   -0.0542    0.0000 C   0  0  0  0  0  0  0  0  0  0  0  0
  2  1  1  0  0  0  0
  3  1  2  0  0  0  0
  4  2  1  0  0  0  0
  5  6  1  0  0  0  0
  6  3  1  0  0  0  0
  7  5  2  0  0  0  0
  8  4  2  0  0  0  0
  9  2  2  0  0  0  0
 10  1  1  0  0  0  0
 11 12  2  0  0  0  0
 12 16  1  0  0  0  0
 13  7  1  0  0  0  0
 14  8  1  0  0  0  0
 15  3  1  0  0  0  0
 16 17  1  0  0  0  0
 17 13  1  0  0  0  0
 18 11  1  0  0  0  0
 19 11  1  0  0  0  0
 20 10  2  0  0  0  0
 21 10  1  0  0  0  0
 22 21  2  0  0  0  0
 23 20  1  0  0  0  0
 24 22  1  0  0  0  0
  4  5  1  0  0  0  0
 24 23  2  0  0  0  0
 14 13  2  0  0  0  0
M  END
> <IDNUMBER>
F3385-2854

> <Chemical_Name>
2-methyl-7-[(3-methylbut-2-en-1-yl)oxy]-3-phenyl-4H-chromen-4-one

> <CAS>
70894-39-2

> <PriceCoeff>
1.00

> <MW>
320.38

> <Description>
solid

> <FSP3>
0.19

> <clogP>
4.99

> <TPSA>
35.53

> <Acceptor>
3

> <Donor>
0

> <RotBonds>
4

> <HAC>
24

> <Collection>
General

> <Reference_compound>
CHEMBL2227760

> <Similarity>
0.8030

$$$$
F2146-0719
  -ISIS-  06222304352D

 23 24  0  0  0  0  0  0  0  0999 V2000
    3.1625   -3.7792    0.0000 C   0  0  0  0  0  0  0  0  0  0  0  0
    2.9000   -4.5625    0.0000 N   0  0  3  0  0  0  0  0  0  0  0  0
    2.5000   -3.2917    0.0000 S   0  0  0  0  0  0  0  0  0  0  0  0
    2.0750   -4.5625    0.0000 C   0  0  0  0  0  0  0  0  0  0  0  0
    1.8250   -3.7792    0.0000 C   0  0  0  0  0  0  0  0  0  0  0  0
    3.9542   -3.5208    0.0000 N   0  0  0  0  0  0  0  0  0  0  0  0
    3.3958   -5.2333    0.0000 C   0  0  0  0  0  0  0  0  0  0  0  0
    1.5250   -5.1750    0.0000 C   0  0  0  0  0  0  0  0  0  0  0  0
    1.0167   -3.5958    0.0000 C   0  0  0  0  0  0  0  0  0  0  0  0
    3.0583   -5.9958    0.0000 C   0  0  0  0  0  0  0  0  0  0  0  0
    0.7208   -5.0000    0.0000 C   0  0  0  0  0  0  0  0  0  0  0  0
    0.4583   -4.2167    0.0000 C   0  0  0  0  0  0  0  0  0  0  0  0
    6.9890   -3.5746    0.0000 S   0  0  3  0  0  0  0  0  0  0  0  0
    6.5862   -4.2844    0.0000 C   0  0  0  0  0  0  0  0  0  0  0  0
    6.2781   -3.1533    0.0000 O   0  0  0  0  0  0  0  0  0  0  0  0
    7.3948   -2.8535    0.0000 O   0  0  0  0  0  0  0  0  0  0  0  0
    7.7102   -3.9804    0.0000 O   0  0  0  0  0  0  0  0  0  0  0  0
    7.0016   -5.0020    0.0000 C   0  0  0  0  0  0  0  0  0  0  0  0
    5.7557   -4.2886    0.0000 C   0  0  0  0  0  0  0  0  0  0  0  0
    6.5845   -5.7202    0.0000 C   0  0  0  0  0  0  0  0  0  0  0  0
    5.3478   -5.0061    0.0000 C   0  0  0  0  0  0  0  0  0  0  0  0
    5.7612   -5.7201    0.0000 C   0  0  0  0  0  0  0  0  0  0  0  0
    5.3476   -6.4362    0.0000 C   0  0  0  0  0  0  0  0  0  0  0  0
  5  4  2  0  0  0  0
 11 12  1  0  0  0  0
  2  1  1  0  0  0  0
  3  1  1  0  0  0  0
  4  2  1  0  0  0  0
  5  3  1  0  0  0  0
  6  1  2  0  0  0  0
  7  2  1  0  0  0  0
  8  4  1  0  0  0  0
  9  5  1  0  0  0  0
 10  7  1  0  0  0  0
 11  8  2  0  0  0  0
 12  9  2  0  0  0  0
 14 13  1  0  0  0  0
 15 13  2  0  0  0  0
 16 13  2  0  0  0  0
 17 13  1  0  0  0  0
 18 14  1  0  0  0  0
 19 14  2  0  0  0  0
 20 18  2  0  0  0  0
 21 19  1  0  0  0  0
 22 21  2  0  0  0  0
 23 22  1  0  0  0  0
 20 22  1  0  0  0  0
M  END
> <IDNUMBER>
F2146-0719

> <Chemical_Name>
3-ethyl-2,3-dihydro-1,3-benzothiazol-2-imine; 4-methylbenzene-1-sulfonic acid

> <CAS>
202192-95-8

> <PriceCoeff>
1.00

> <MW>
178.25

> <Description>
solid

> <FSP3>
0.22

> <clogP>
3.78

> <TPSA>
52.39

> <Acceptor>
0

> <Donor>
1

> <RotBonds>
1

> <HAC>
12

> <Collection>
General

> <Reference_compound>
PRI5904

> <Similarity>
0.8060

$$$$
F1799-0504
  -ISIS-  06222321142D

 25 29  0  0  0  0  0  0  0  0999 V2000
    1.7917   -2.1750    0.0000 N   0  0  3  0  0  0  0  0  0  0  0  0
    1.3375   -1.6000    0.0000 C   0  0  0  0  0  0  0  0  0  0  0  0
    1.3875   -2.8042    0.0000 C   0  0  0  0  0  0  0  0  0  0  0  0
    0.6292   -1.8542    0.0000 C   0  0  3  0  0  0  0  0  0  0  0  0
    0.6667   -2.6042    0.0000 C   0  0  0  0  0  0  0  0  0  0  0  0
   -0.7375   -1.7000    0.0000 C   0  0  3  0  0  0  0  0  0  0  0  0
    0.0042   -1.4417    0.0000 N   0  0  0  0  0  0  0  0  0  0  0  0
    2.7042   -2.6542    0.0000 C   0  0  0  0  0  0  0  0  0  0  0  0
    1.5542   -0.8750    0.0000 O   0  0  0  0  0  0  0  0  0  0  0  0
   -1.8958   -2.2667    0.0000 C   0  0  3  0  0  0  0  0  0  0  0  0
   -2.2000   -1.7000    0.0000 C   0  0  3  0  0  0  0  0  0  0  0  0
   -1.4750   -0.3500    0.0000 C   0  0  3  0  0  0  0  0  0  0  0  0
    1.6542   -3.5042    0.0000 O   0  0  0  0  0  0  0  0  0  0  0  0
   -1.4750   -2.1417    0.0000 C   0  0  0  0  0  0  0  0  0  0  0  0
   -0.7375   -0.8000    0.0000 C   0  0  0  0  0  0  0  0  0  0  0  0
   -1.2958   -2.5542    0.0000 C   0  0  0  0  0  0  0  0  0  0  0  0
   -2.2000   -0.8000    0.0000 C   0  0  0  0  0  0  0  0  0  0  0  0
   -2.6750   -2.4042    0.0000 C   0  0  0  0  0  0  0  0  0  0  0  0
   -1.9208   -1.0000    0.0000 C   0  0  0  0  0  0  0  0  0  0  0  0
    3.2250   -2.1042    0.0000 C   0  0  0  0  0  0  0  0  0  0  0  0
    3.6292   -2.7417    0.0000 C   0  0  0  0  0  0  0  0  0  0  0  0
    3.5667   -1.4417    0.0000 C   0  0  0  0  0  0  0  0  0  0  0  0
    4.3167   -1.4042    0.0000 C   0  0  0  0  0  0  0  0  0  0  0  0
    4.3792   -2.7042    0.0000 C   0  0  0  0  0  0  0  0  0  0  0  0
    4.7250   -2.0375    0.0000 C   0  0  0  0  0  0  0  0  0  0  0  0
  2  1  1  0  0  0  0
  3  1  1  0  0  0  0
  4  2  1  0  0  0  0
  5  3  1  0  0  0  0
  6  7  1  0  0  0  0
  7  4  1  0  0  0  0
  8  1  1  0  0  0  0
  9  2  2  0  0  0  0
 10 16  1  0  0  0  0
 11 14  1  0  0  0  0
 12 15  1  0  0  0  0
 13  3  2  0  0  0  0
 14  6  1  0  0  0  0
 15  6  1  0  0  0  0
 16  6  1  0  0  0  0
 17 12  1  0  0  0  0
 18 10  1  0  0  0  0
 19 10  1  0  0  0  0
 20  8  1  0  0  0  0
 21 20  1  0  0  0  0
 22 20  2  0  0  0  0
 23 22  1  0  0  0  0
 24 21  2  0  0  0  0
 25 23  2  0  0  0  0
  5  4  1  0  0  0  0
 25 24  1  0  0  0  0
 19 12  1  0  0  0  0
 11 18  1  0  0  0  0
 11 17  1  0  0  0  0
M  END
> <IDNUMBER>
F1799-0504

> <Chemical_Name>
3-[(adamantan-1-yl)amino]-1-benzylpyrrolidine-2,5-dione

> <CAS>
1007974-49-3

> <PriceCoeff>
1.00

> <MW>
338.44

> <Description>
solid

> <FSP3>
0.62

> <clogP>
4.35

> <TPSA>
49.41

> <Acceptor>
2

> <Donor>
1

> <RotBonds>
4

> <HAC>
25

> <Collection>
General

$$$$
F1814-1805
  -ISIS-  06222321142D

 23 25  0  0  0  0  0  0  0  0999 V2000
   -1.0583    3.7958    0.0000 C   0  0  0  0  0  0  0  0  0  0  0  0
   -3.1583    5.0292    0.0000 N   0  0  3  0  0  0  0  0  0  0  0  0
   -0.2958    4.1375    0.0000 N   0  0  3  0  0  0  0  0  0  0  0  0
   -1.7583    4.2000    0.0000 N   0  0  0  0  0  0  0  0  0  0  0  0
   -0.9625    2.9625    0.0000 S   0  0  0  0  0  0  0  0  0  0  0  0
    0.2667    3.5083    0.0000 C   0  0  0  0  0  0  0  0  0  0  0  0
   -0.1583    2.7875    0.0000 C   0  0  0  0  0  0  0  0  0  0  0  0
    1.1042    3.5083    0.0000 C   0  0  0  0  0  0  0  0  0  0  0  0
   -3.8208    5.5125    0.0000 C   0  0  0  0  0  0  0  0  0  0  0  0
   -2.4875    5.5042    0.0000 C   0  0  0  0  0  0  0  0  0  0  0  0
   -2.4458    3.8000    0.0000 C   0  0  0  0  0  0  0  0  0  0  0  0
   -3.1583    4.2042    0.0000 C   0  0  0  0  0  0  0  0  0  0  0  0
    0.2625    2.0583    0.0000 C   0  0  0  0  0  0  0  0  0  0  0  0
    1.5167    2.7833    0.0000 C   0  0  0  0  0  0  0  0  0  0  0  0
    1.1000    2.0583    0.0000 C   0  0  0  0  0  0  0  0  0  0  0  0
   -2.7375    6.3000    0.0000 C   0  0  0  0  0  0  0  0  0  0  0  0
   -3.5625    6.2917    0.0000 C   0  0  0  0  0  0  0  0  0  0  0  0
   -1.7083    5.2500    0.0000 O   0  0  0  0  0  0  0  0  0  0  0  0
   -4.6000    5.2667    0.0000 O   0  0  0  0  0  0  0  0  0  0  0  0
   -2.4500    3.0083    0.0000 O   0  0  0  0  0  0  0  0  0  0  0  0
    1.5167    4.2042    0.0000 F   0  0  0  0  0  0  0  0  0  0  0  0
   -0.1208    4.9167    0.0000 C   0  0  0  0  0  0  0  0  0  0  0  0
    1.5000    1.3625    0.0000 F   0  0  0  0  0  0  0  0  0  0  0  0
  2 12  1  0  0  0  0
  3  1  1  0  0  0  0
  4  1  2  0  0  0  0
  5  1  1  0  0  0  0
  6  3  1  0  0  0  0
  7  5  1  0  0  0  0
  8  6  1  0  0  0  0
  9  2  1  0  0  0  0
 10  2  1  0  0  0  0
 11  4  1  0  0  0  0
 12 11  1  0  0  0  0
 13  7  1  0  0  0  0
 14  8  2  0  0  0  0
 15 13  2  0  0  0  0
 16 10  1  0  0  0  0
 17  9  1  0  0  0  0
 18 10  2  0  0  0  0
 19  9  2  0  0  0  0
 20 11  2  0  0  0  0
 21  8  1  0  0  0  0
 22  3  1  0  0  0  0
 23 15  1  0  0  0  0
  7  6  2  0  0  0  0
 14 15  1  0  0  0  0
 16 17  1  0  0  0  0
M  END
> <IDNUMBER>
F1814-1805

> <Chemical_Name>
N-[(2Z)-4,6-difluoro-3-methyl-2,3-dihydro-1,3-benzothiazol-2-ylidene]-2-(2,5-dioxopyrrolidin-1-yl)acetamide

> <CAS>
868375-74-0

> <PriceCoeff>
1.00

> <MW>
339.32

> <Description>
solid

> <FSP3>
0.29

> <clogP>
3.06

> <TPSA>
95.35

> <Acceptor>
3

> <Donor>
0

> <RotBonds>
3

> <HAC>
23

> <Collection>
General

$$$$
F1175-0231
  -ISIS-  06222321442D

 19 20  0  0  0  0  0  0  0  0999 V2000
    1.4042    1.2083    0.0000 N   0  3  0  0  0  0  0  0  0  0  0  0
    2.0917    2.4333    0.0000 C   0  0  0  0  0  0  0  0  0  0  0  0
    5.5917    3.6583    0.0000 C   0  0  0  0  0  0  0  0  0  0  0  0
    6.2917    4.8542    0.0000 N   0  0  3  0  0  0  0  0  0  0  0  0
    3.4917    2.4333    0.0000 C   0  0  0  0  0  0  0  0  0  0  0  0
    4.1917    3.6458    0.0000 C   0  0  0  0  0  0  0  0  0  0  0  0
    1.3917    3.6333    0.0000 C   0  0  0  0  0  0  0  0  0  0  0  0
    0.0042    1.2083    0.0000 O   0  5  0  0  0  0  0  0  0  0  0  0
    2.1042   -0.0000    0.0000 O   0  0  0  0  0  0  0  0  0  0  0  0
    6.3042    2.4458    0.0000 O   0  0  0  0  0  0  0  0  0  0  0  0
    7.7000    4.8542    0.0000 C   0  0  0  0  0  0  0  0  0  0  0  0
    5.5792    6.0750    0.0000 C   0  0  0  0  0  0  0  0  0  0  0  0
    3.4917    4.8417    0.0000 C   0  0  0  0  0  0  0  0  0  0  0  0
    2.0792    4.8417    0.0000 C   0  0  0  0  0  0  0  0  0  0  0  0
    0.0000    3.6333    0.0000 Cl  0  0  0  0  0  0  0  0  0  0  0  0
    6.2792    7.3125    0.0000 C   0  0  0  0  0  0  0  0  0  0  0  0
    8.4000    6.0792    0.0000 C   0  0  0  0  0  0  0  0  0  0  0  0
    7.6917    7.3125    0.0000 C   0  0  3  0  0  0  0  0  0  0  0  0
    8.3917    8.5250    0.0000 C   0  0  0  0  0  0  0  0  0  0  0  0
  2  1  1  0  0  0  0
  3  6  1  0  0  0  0
  4  3  1  0  0  0  0
  5  2  2  0  0  0  0
  6  5  1  0  0  0  0
  7  2  1  0  0  0  0
  8  1  1  0  0  0  0
  9  1  2  0  0  0  0
 10  3  2  0  0  0  0
 11  4  1  0  0  0  0
 12  4  1  0  0  0  0
 13 14  1  0  0  0  0
 14  7  2  0  0  0  0
 15  7  1  0  0  0  0
 16 12  1  0  0  0  0
 17 11  1  0  0  0  0
 18 16  1  0  0  0  0
 19 18  1  0  0  0  0
 13  6  2  0  0  0  0
 18 17  1  0  0  0  0
M  CHG  2   1   1   8  -1
M  END
> <IDNUMBER>
F1175-0231

> <Chemical_Name>
1-(4-chloro-3-nitrobenzoyl)-4-methylpiperidine

> <CAS>
321531-38-8

> <PriceCoeff>
1.00

> <MW>
282.72

> <Description>
solid

> <FSP3>
0.46

> <clogP>
2.81

> <TPSA>
63.45

> <Acceptor>
3

> <Donor>
0

> <RotBonds>
3

> <HAC>
19

> <Collection>
General

$$$$
F0440-0364
  -ISIS-  06222321142D

 22 24  0  0  0  0  0  0  0  0999 V2000
   -0.8000   -0.7042    0.0000 C   0  0  0  0  0  0  0  0  0  0  0  0
    0.9292   -1.7292    0.0000 N   0  0  3  0  0  0  0  0  0  0  0  0
   -1.1208   -1.1667    0.0000 N   0  0  3  0  0  0  0  0  0  0  0  0
   -0.2208   -0.7292    0.0000 N   0  0  0  0  0  0  0  0  0  0  0  0
   -1.1208   -0.2500    0.0000 S   0  0  0  0  0  0  0  0  0  0  0  0
   -1.6833   -0.4042    0.0000 C   0  0  0  0  0  0  0  0  0  0  0  0
   -1.6833   -1.0000    0.0000 C   0  0  0  0  0  0  0  0  0  0  0  0
    1.4667   -1.8500    0.0000 C   0  0  0  0  0  0  0  0  0  0  0  0
    0.6292   -2.2292    0.0000 C   0  0  0  0  0  0  0  0  0  0  0  0
    0.0667   -1.2292    0.0000 C   0  0  0  0  0  0  0  0  0  0  0  0
    0.6292   -1.2292    0.0000 C   0  0  0  0  0  0  0  0  0  0  0  0
   -2.1833   -1.3000    0.0000 C   0  0  0  0  0  0  0  0  0  0  0  0
   -2.1833   -0.1042    0.0000 C   0  0  0  0  0  0  0  0  0  0  0  0
    1.5292   -2.4042    0.0000 C   0  0  0  0  0  0  0  0  0  0  0  0
    1.0292   -2.6500    0.0000 C   0  0  0  0  0  0  0  0  0  0  0  0
    1.9042   -1.4667    0.0000 O   0  0  0  0  0  0  0  0  0  0  0  0
    0.0500   -2.3000    0.0000 O   0  0  0  0  0  0  0  0  0  0  0  0
   -0.2208   -1.7292    0.0000 O   0  0  0  0  0  0  0  0  0  0  0  0
   -0.9000   -1.7292    0.0000 C   0  0  0  0  0  0  0  0  0  0  0  0
   -2.6833   -1.0000    0.0000 C   0  0  0  0  0  0  0  0  0  0  0  0
   -2.6833   -0.4042    0.0000 C   0  0  0  0  0  0  0  0  0  0  0  0
   -3.1833   -0.1042    0.0000 C   0  0  0  0  0  0  0  0  0  0  0  0
  2 11  1  0  0  0  0
  3  1  1  0  0  0  0
  4  1  2  0  0  0  0
  5  1  1  0  0  0  0
  6  5  1  0  0  0  0
  7  3  1  0  0  0  0
  8  2  1  0  0  0  0
  9  2  1  0  0  0  0
 10  4  1  0  0  0  0
 11 10  1  0  0  0  0
 12  7  1  0  0  0  0
 13  6  1  0  0  0  0
 14  8  1  0  0  0  0
 15  9  1  0  0  0  0
 16  8  2  0  0  0  0
 17  9  2  0  0  0  0
 18 10  2  0  0  0  0
 19  3  1  0  0  0  0
 20 12  2  0  0  0  0
 21 13  2  0  0  0  0
 22 21  1  0  0  0  0
  6  7  2  0  0  0  0
 21 20  1  0  0  0  0
 15 14  1  0  0  0  0
M  END
> <IDNUMBER>
F0440-0364

> <Chemical_Name>
N-[(2E)-3,6-dimethyl-2,3-dihydro-1,3-benzothiazol-2-ylidene]-2-(2,5-dioxopyrrolidin-1-yl)acetamide

> <CAS>
392324-92-4

> <PriceCoeff>
1.00

> <MW>
317.36

> <Description>
solid

> <FSP3>
0.33

> <clogP>
3.28

> <TPSA>
95.35

> <Acceptor>
3

> <Donor>
0

> <RotBonds>
3

> <HAC>
22

> <Collection>
General

$$$$
F3385-0984
  -ISIS-  06222321152D

 26 28  0  0  0  0  0  0  0  0999 V2000
    1.4792   -0.5167    0.0000 C   0  0  0  0  0  0  0  0  0  0  0  0
    0.7667   -0.9292    0.0000 C   0  0  0  0  0  0  0  0  0  0  0  0
    1.4750    0.3125    0.0000 C   0  0  0  0  0  0  0  0  0  0  0  0
    0.0542   -0.5292    0.0000 C   0  0  0  0  0  0  0  0  0  0  0  0
    0.0417    0.3000    0.0000 C   0  0  0  0  0  0  0  0  0  0  0  0
    0.7542    0.7208    0.0000 O   0  0  0  0  0  0  0  0  0  0  0  0
   -0.6708    0.7083    0.0000 C   0  0  0  0  0  0  0  0  0  0  0  0
    2.1917   -0.9250    0.0000 C   0  0  0  0  0  0  0  0  0  0  0  0
   -0.6583   -0.9375    0.0000 C   0  0  0  0  0  0  0  0  0  0  0  0
    0.7750   -1.7542    0.0000 O   0  0  0  0  0  0  0  0  0  0  0  0
   -4.2333    0.2708    0.0000 C   0  0  0  0  0  0  0  0  0  0  0  0
   -3.5250    0.6958    0.0000 C   0  0  0  0  0  0  0  0  0  0  0  0
    2.9042   -0.5042    0.0000 C   0  0  0  0  0  0  0  0  0  0  0  0
    2.1917   -1.7500    0.0000 C   0  0  0  0  0  0  0  0  0  0  0  0
   -1.3833    0.2958    0.0000 C   0  0  0  0  0  0  0  0  0  0  0  0
   -1.3708   -0.5292    0.0000 C   0  0  0  0  0  0  0  0  0  0  0  0
    2.1875    0.7333    0.0000 C   0  0  0  0  0  0  0  0  0  0  0  0
    3.6250   -1.7417    0.0000 C   0  0  0  0  0  0  0  0  0  0  0  0
   -2.8083    0.2833    0.0000 C   0  0  0  0  0  0  0  0  0  0  0  0
    2.9167   -2.1542    0.0000 C   0  0  0  0  0  0  0  0  0  0  0  0
    3.6167   -0.9125    0.0000 C   0  0  0  0  0  0  0  0  0  0  0  0
   -2.0958    0.7000    0.0000 O   0  0  0  0  0  0  0  0  0  0  0  0
    4.3417   -2.1542    0.0000 O   0  0  0  0  0  0  0  0  0  0  0  0
   -4.9583    0.6750    0.0000 C   0  0  0  0  0  0  0  0  0  0  0  0
   -4.2208   -0.5542    0.0000 C   0  0  0  0  0  0  0  0  0  0  0  0
    5.0667   -1.7292    0.0000 C   0  0  0  0  0  0  0  0  0  0  0  0
  2  1  1  0  0  0  0
  3  1  2  0  0  0  0
  4  2  1  0  0  0  0
  5  6  1  0  0  0  0
  6  3  1  0  0  0  0
  7  5  1  0  0  0  0
  8  1  1  0  0  0  0
  9  4  1  0  0  0  0
 10  2  2  0  0  0  0
 11 12  2  0  0  0  0
 12 19  1  0  0  0  0
 13  8  1  0  0  0  0
 14  8  2  0  0  0  0
 15  7  2  0  0  0  0
 16  9  2  0  0  0  0
 17  3  1  0  0  0  0
 18 20  2  0  0  0  0
 19 22  1  0  0  0  0
 20 14  1  0  0  0  0
 21 13  2  0  0  0  0
 22 15  1  0  0  0  0
 23 18  1  0  0  0  0
 24 11  1  0  0  0  0
 25 11  1  0  0  0  0
 26 23  1  0  0  0  0
 18 21  1  0  0  0  0
  4  5  2  0  0  0  0
 16 15  1  0  0  0  0
M  END
> <IDNUMBER>
F3385-0984

> <Chemical_Name>
3-(4-methoxyphenyl)-2-methyl-7-[(3-methylbut-2-en-1-yl)oxy]-4H-chromen-4-one

> <CAS>
100434-11-5

> <PriceCoeff>
1.00

> <MW>
350.41

> <Description>
solid

> <FSP3>
0.23

> <clogP>
4.92

> <TPSA>
44.76

> <Acceptor>
4

> <Donor>
0

> <RotBonds>
5

> <HAC>
26

> <Collection>
General

> <Reference_compound>
CHEMBL458134

> <Similarity>
0.8070

$$$$
F5460-0486
  -ISIS-  06222321462D

 32 36  0  0  0  0  0  0  0  0999 V2000
   -4.0208    5.3917    0.0000 N   0  0  3  0  0  0  0  0  0  0  0  0
   -4.7458    5.2292    0.0000 C   0  0  0  0  0  0  0  0  0  0  0  0
   -3.4375    4.9167    0.0000 C   0  0  0  0  0  0  0  0  0  0  0  0
   -0.2583    3.6708    0.0000 N   0  0  3  0  0  0  0  0  0  0  0  0
   -5.2833    5.7667    0.0000 N   0  0  0  0  0  0  0  0  0  0  0  0
   -3.7333    6.0917    0.0000 N   0  0  0  0  0  0  0  0  0  0  0  0
   -5.0833    4.5792    0.0000 S   0  0  0  0  0  0  0  0  0  0  0  0
   -2.8083    5.3250    0.0000 C   0  0  0  0  0  0  0  0  0  0  0  0
   -3.4833    4.1667    0.0000 N   0  0  0  0  0  0  0  0  0  0  0  0
   -0.8958    4.0542    0.0000 C   0  0  0  0  0  0  0  0  0  0  0  0
   -2.8583    3.7708    0.0000 C   0  0  0  0  0  0  0  0  0  0  0  0
   -5.8125    4.6875    0.0000 C   0  0  0  0  0  0  0  0  0  0  0  0
   -0.2333    2.9125    0.0000 C   0  0  0  0  0  0  0  0  0  0  0  0
    0.4542    3.9208    0.0000 C   0  0  0  0  0  0  0  0  0  0  0  0
   -5.9458    5.4167    0.0000 C   0  0  0  0  0  0  0  0  0  0  0  0
   -2.9875    6.0417    0.0000 C   0  0  0  0  0  0  0  0  0  0  0  0
   -1.5583    3.7083    0.0000 C   0  0  0  0  0  0  0  0  0  0  0  0
   -2.1958    4.1042    0.0000 C   0  0  0  0  0  0  0  0  0  0  0  0
   -6.3875    4.2125    0.0000 C   0  0  0  0  0  0  0  0  0  0  0  0
   -2.8958    3.0208    0.0000 O   0  0  0  0  0  0  0  0  0  0  0  0
    0.4792    2.7083    0.0000 C   0  0  0  0  0  0  0  0  0  0  0  0
    0.9125    3.3208    0.0000 C   0  0  0  0  0  0  0  0  0  0  0  0
   -0.8333    2.4458    0.0000 O   0  0  0  0  0  0  0  0  0  0  0  0
    0.6750    4.6375    0.0000 O   0  0  0  0  0  0  0  0  0  0  0  0
   -6.6417    5.6792    0.0000 C   0  0  0  0  0  0  0  0  0  0  0  0
   -7.0875    4.4667    0.0000 C   0  0  0  0  0  0  0  0  0  0  0  0
   -7.2167    5.2000    0.0000 C   0  0  0  0  0  0  0  0  0  0  0  0
   -7.6667    3.9958    0.0000 F   0  0  0  0  0  0  0  0  0  0  0  0
   -0.8625    4.8167    0.0000 C   0  0  0  0  0  0  0  0  0  0  0  0
   -2.1583    4.8542    0.0000 C   0  0  0  0  0  0  0  0  0  0  0  0
   -1.5000    5.2125    0.0000 C   0  0  0  0  0  0  0  0  0  0  0  0
   -2.5000    6.6167    0.0000 C   0  0  0  0  0  0  0  0  0  0  0  0
  2  1  1  0  0  0  0
  3  1  1  0  0  0  0
  4 10  1  0  0  0  0
  5  2  2  0  0  0  0
  6  1  1  0  0  0  0
  7  2  1  0  0  0  0
  8  3  2  0  0  0  0
  9  3  1  0  0  0  0
 10 17  1  0  0  0  0
 11  9  1  0  0  0  0
 12  7  1  0  0  0  0
 13  4  1  0  0  0  0
 14  4  1  0  0  0  0
 15  5  1  0  0  0  0
 16  6  2  0  0  0  0
 17 18  2  0  0  0  0
 18 11  1  0  0  0  0
 19 12  1  0  0  0  0
 20 11  2  0  0  0  0
 21 13  1  0  0  0  0
 22 14  1  0  0  0  0
 23 13  2  0  0  0  0
 24 14  2  0  0  0  0
 25 15  1  0  0  0  0
 26 19  2  0  0  0  0
 27 25  2  0  0  0  0
 28 26  1  0  0  0  0
 29 31  1  0  0  0  0
 30 18  1  0  0  0  0
 31 30  2  0  0  0  0
 32 16  1  0  0  0  0
 16  8  1  0  0  0  0
 15 12  2  0  0  0  0
 26 27  1  0  0  0  0
 10 29  2  0  0  0  0
 21 22  1  0  0  0  0
M  END
> <IDNUMBER>
F5460-0486

> <Chemical_Name>
3-(2,5-dioxopyrrolidin-1-yl)-N-[1-(6-fluoro-1,3-benzothiazol-2-yl)-3-methyl-1H-pyrazol-5-yl]benzamide

> <CAS>
1171008-68-6

> <PriceCoeff>
1.00

> <MW>
449.46

> <Description>
solid

> <FSP3>
0.14

> <clogP>
2.12

> <TPSA>
125.43

> <Acceptor>
5

> <Donor>
1

> <RotBonds>
4

> <HAC>
32

> <Collection>
General

$$$$
F3023-0930
  -ISIS-  06222321152D

 29 31  0  0  0  0  0  0  0  0999 V2000
    3.7625   -6.4042    0.0000 N   0  0  3  0  0  0  0  0  0  0  0  0
    4.1792   -6.9750    0.0000 C   0  0  0  0  0  0  0  0  0  0  0  0
    4.1792   -5.8292    0.0000 C   0  0  0  0  0  0  0  0  0  0  0  0
    4.8542   -6.7542    0.0000 C   0  0  3  0  0  0  0  0  0  0  0  0
    4.8542   -6.0417    0.0000 C   0  0  0  0  0  0  0  0  0  0  0  0
    3.0542   -6.4042    0.0000 C   0  0  0  0  0  0  0  0  0  0  0  0
    5.4292   -7.1667    0.0000 N   0  0  0  0  0  0  0  0  0  0  0  0
    0.9250   -5.1917    0.0000 C   0  0  0  0  0  0  0  0  0  0  0  0
    3.9667   -7.6500    0.0000 O   0  0  0  0  0  0  0  0  0  0  0  0
    3.9542   -5.1542    0.0000 O   0  0  0  0  0  0  0  0  0  0  0  0
    7.3667   -6.3042    0.0000 C   0  0  0  0  0  0  0  0  0  0  0  0
    0.5750   -5.8125    0.0000 C   0  0  0  0  0  0  0  0  0  0  0  0
    8.0167   -6.0125    0.0000 N   0  0  3  0  0  0  0  0  0  0  0  0
    1.6292   -5.1917    0.0000 C   0  0  0  0  0  0  0  0  0  0  0  0
    6.0792   -6.8792    0.0000 C   0  0  0  0  0  0  0  0  0  0  0  0
    7.3000   -7.0042    0.0000 C   0  0  0  0  0  0  0  0  0  0  0  0
    6.7917   -5.8875    0.0000 C   0  0  0  0  0  0  0  0  0  0  0  0
    0.9375   -6.4250    0.0000 C   0  0  0  0  0  0  0  0  0  0  0  0
    1.9875   -5.8000    0.0000 C   0  0  0  0  0  0  0  0  0  0  0  0
    2.7000   -5.7917    0.0000 C   0  0  0  0  0  0  0  0  0  0  0  0
    6.1417   -6.1750    0.0000 C   0  0  0  0  0  0  0  0  0  0  0  0
    6.6500   -7.2917    0.0000 C   0  0  0  0  0  0  0  0  0  0  0  0
    1.6417   -6.4167    0.0000 C   0  0  0  0  0  0  0  0  0  0  0  0
    0.5667   -4.5792    0.0000 O   0  0  0  0  0  0  0  0  0  0  0  0
   -0.1333   -5.8167    0.0000 O   0  0  0  0  0  0  0  0  0  0  0  0
    8.0917   -5.3042    0.0000 C   0  0  0  0  0  0  0  0  0  0  0  0
    8.5917   -6.4292    0.0000 C   0  0  0  0  0  0  0  0  0  0  0  0
    0.9167   -3.9667    0.0000 C   0  0  0  0  0  0  0  0  0  0  0  0
   -0.4958   -5.2042    0.0000 C   0  0  0  0  0  0  0  0  0  0  0  0
  2  1  1  0  0  0  0
  3  1  1  0  0  0  0
  4  2  1  0  0  0  0
  5  3  1  0  0  0  0
  6  1  1  0  0  0  0
  7  4  1  0  0  0  0
  8 14  1  0  0  0  0
  9  2  2  0  0  0  0
 10  3  2  0  0  0  0
 11 16  2  0  0  0  0
 12 18  1  0  0  0  0
 13 11  1  0  0  0  0
 14 19  2  0  0  0  0
 15  7  1  0  0  0  0
 16 22  1  0  0  0  0
 17 21  2  0  0  0  0
 18 23  2  0  0  0  0
 19 20  1  0  0  0  0
 20  6  1  0  0  0  0
 21 15  1  0  0  0  0
 22 15  2  0  0  0  0
 23 19  1  0  0  0  0
 24  8  1  0  0  0  0
 25 12  1  0  0  0  0
 26 13  1  0  0  0  0
 27 13  1  0  0  0  0
 28 24  1  0  0  0  0
 29 25  1  0  0  0  0
  5  4  1  0  0  0  0
 12  8  2  0  0  0  0
 17 11  1  0  0  0  0
M  END
> <IDNUMBER>
F3023-0930

> <Chemical_Name>
1-[2-(3,4-dimethoxyphenyl)ethyl]-3-{[4-(dimethylamino)phenyl]amino}pyrrolidine-2,5-dione

> <CAS>
1008211-38-8

> <PriceCoeff>
1.00

> <MW>
397.47

> <Description>
solid

> <FSP3>
0.36

> <clogP>
3.57

> <TPSA>
71.11

> <Acceptor>
6

> <Donor>
2

> <RotBonds>
8

> <HAC>
29

> <Collection>
General

$$$$
F3023-0969
  -ISIS-  06222321152D

 31 34  0  0  0  0  0  0  0  0999 V2000
    4.2417   -6.4542    0.0000 N   0  0  3  0  0  0  0  0  0  0  0  0
    4.6625   -5.8792    0.0000 C   0  0  0  0  0  0  0  0  0  0  0  0
    4.6667   -7.0250    0.0000 C   0  0  0  0  0  0  0  0  0  0  0  0
    5.3417   -6.8042    0.0000 C   0  0  3  0  0  0  0  0  0  0  0  0
    5.3375   -6.0917    0.0000 C   0  0  0  0  0  0  0  0  0  0  0  0
    8.5042   -6.0625    0.0000 N   0  0  3  0  0  0  0  0  0  0  0  0
    5.9125   -7.2167    0.0000 N   0  0  0  0  0  0  0  0  0  0  0  0
    3.5375   -6.4542    0.0000 C   0  0  0  0  0  0  0  0  0  0  0  0
    1.4125   -6.4750    0.0000 C   0  0  0  0  0  0  0  0  0  0  0  0
    4.4375   -5.2042    0.0000 O   0  0  0  0  0  0  0  0  0  0  0  0
    7.8542   -6.3542    0.0000 C   0  0  0  0  0  0  0  0  0  0  0  0
    4.4542   -7.7000    0.0000 O   0  0  0  0  0  0  0  0  0  0  0  0
    2.1250   -6.4667    0.0000 C   0  0  0  0  0  0  0  0  0  0  0  0
    1.0625   -7.0917    0.0000 O   0  0  0  0  0  0  0  0  0  0  0  0
    3.1792   -5.8417    0.0000 C   0  0  0  0  0  0  0  0  0  0  0  0
    3.1917   -7.0750    0.0000 C   0  0  0  0  0  0  0  0  0  0  0  0
    2.4875   -7.0792    0.0000 C   0  0  0  0  0  0  0  0  0  0  0  0
    2.4750   -5.8500    0.0000 C   0  0  0  0  0  0  0  0  0  0  0  0
    9.8042   -5.4875    0.0000 O   0  0  0  0  0  0  0  0  0  0  0  0
    7.2750   -5.9375    0.0000 C   0  0  0  0  0  0  0  0  0  0  0  0
    7.7792   -7.0542    0.0000 C   0  0  0  0  0  0  0  0  0  0  0  0
    6.5625   -6.9292    0.0000 C   0  0  0  0  0  0  0  0  0  0  0  0
    1.0542   -5.8625    0.0000 O   0  0  0  0  0  0  0  0  0  0  0  0
    7.1292   -7.3417    0.0000 C   0  0  0  0  0  0  0  0  0  0  0  0
    6.6292   -6.2250    0.0000 C   0  0  0  0  0  0  0  0  0  0  0  0
    9.0792   -6.4792    0.0000 C   0  0  0  0  0  0  0  0  0  0  0  0
    8.5750   -5.3542    0.0000 C   0  0  0  0  0  0  0  0  0  0  0  0
    9.2250   -5.0667    0.0000 C   0  0  0  0  0  0  0  0  0  0  0  0
    9.7250   -6.1917    0.0000 C   0  0  0  0  0  0  0  0  0  0  0  0
    1.4042   -5.2417    0.0000 C   0  0  0  0  0  0  0  0  0  0  0  0
    1.0417   -4.6292    0.0000 C   0  0  0  0  0  0  0  0  0  0  0  0
  2  1  1  0  0  0  0
  3  1  1  0  0  0  0
  4  3  1  0  0  0  0
  5  2  1  0  0  0  0
  6 11  1  0  0  0  0
  7  4  1  0  0  0  0
  8  1  1  0  0  0  0
  9 13  1  0  0  0  0
 10  2  2  0  0  0  0
 11 20  1  0  0  0  0
 12  3  2  0  0  0  0
 13 17  1  0  0  0  0
 14  9  2  0  0  0  0
 15  8  2  0  0  0  0
 16  8  1  0  0  0  0
 17 16  2  0  0  0  0
 18 15  1  0  0  0  0
 19 28  1  0  0  0  0
 20 25  2  0  0  0  0
 21 24  1  0  0  0  0
 22  7  1  0  0  0  0
 23  9  1  0  0  0  0
 24 22  2  0  0  0  0
 25 22  1  0  0  0  0
 26  6  1  0  0  0  0
 27  6  1  0  0  0  0
 28 27  1  0  0  0  0
 29 26  1  0  0  0  0
 30 23  1  0  0  0  0
 31 30  1  0  0  0  0
  5  4  1  0  0  0  0
 13 18  2  0  0  0  0
 11 21  2  0  0  0  0
 19 29  1  0  0  0  0
M  END
> <IDNUMBER>
F3023-0969

> <Chemical_Name>
ethyl 4-(3-{[4-(morpholin-4-yl)phenyl]amino}-2,5-dioxopyrrolidin-1-yl)benzoate

> <CAS>
1008712-51-3

> <PriceCoeff>
1.00

> <MW>
423.46

> <Description>
solid

> <FSP3>
0.35

> <clogP>
2.95

> <TPSA>
88.18

> <Acceptor>
7

> <Donor>
2

> <RotBonds>
7

> <HAC>
31

> <Collection>
General

$$$$
F3350-0591
  -ISIS-  06222321152D

 24 26  0  0  0  0  0  0  0  0999 V2000
    4.6417   -2.1292    0.0000 S   0  0  3  0  0  0  0  0  0  0  0  0
    7.4875   -3.7792    0.0000 N   0  0  3  0  0  0  0  0  0  0  0  0
    7.5667   -4.6000    0.0000 C   0  0  0  0  0  0  0  0  0  0  0  0
    8.2417   -3.4500    0.0000 C   0  0  0  0  0  0  0  0  0  0  0  0
    3.9375   -1.7250    0.0000 N   0  0  0  0  0  0  0  0  0  0  0  0
    5.3542   -2.5417    0.0000 C   0  0  0  0  0  0  0  0  0  0  0  0
    6.7750   -3.3625    0.0000 C   0  0  0  0  0  0  0  0  0  0  0  0
    5.0625   -1.4250    0.0000 O   0  0  0  0  0  0  0  0  0  0  0  0
    4.2375   -2.8417    0.0000 O   0  0  0  0  0  0  0  0  0  0  0  0
    8.7917   -4.0625    0.0000 C   0  0  0  0  0  0  0  0  0  0  0  0
    8.3750   -4.7750    0.0000 C   0  0  0  0  0  0  0  0  0  0  0  0
    6.9542   -5.1500    0.0000 O   0  0  0  0  0  0  0  0  0  0  0  0
    8.4167   -2.6417    0.0000 O   0  0  0  0  0  0  0  0  0  0  0  0
    5.3542   -3.3625    0.0000 C   0  0  0  0  0  0  0  0  0  0  0  0
    6.0667   -2.1375    0.0000 C   0  0  0  0  0  0  0  0  0  0  0  0
    6.0667   -3.7667    0.0000 C   0  0  0  0  0  0  0  0  0  0  0  0
    6.7750   -2.5417    0.0000 C   0  0  0  0  0  0  0  0  0  0  0  0
    3.2250   -1.3167    0.0000 C   0  0  0  0  0  0  0  0  0  0  0  0
    1.7917   -0.5042    0.0000 C   0  0  0  0  0  0  0  0  0  0  0  0
    1.0792   -0.0917    0.0000 F   0  0  0  0  0  0  0  0  0  0  0  0
    2.5042   -1.7375    0.0000 C   0  0  0  0  0  0  0  0  0  0  0  0
    3.2167   -0.4917    0.0000 C   0  0  0  0  0  0  0  0  0  0  0  0
    1.7917   -1.3250    0.0000 C   0  0  0  0  0  0  0  0  0  0  0  0
    2.5042   -0.0875    0.0000 C   0  0  0  0  0  0  0  0  0  0  0  0
  2  7  1  0  0  0  0
  3  2  1  0  0  0  0
  4  2  1  0  0  0  0
  5  1  1  0  0  0  0
  6  1  1  0  0  0  0
  7 17  1  0  0  0  0
  8  1  2  0  0  0  0
  9  1  2  0  0  0  0
 10  4  1  0  0  0  0
 11  3  1  0  0  0  0
 12  3  2  0  0  0  0
 13  4  2  0  0  0  0
 14  6  2  0  0  0  0
 15  6  1  0  0  0  0
 16 14  1  0  0  0  0
 17 15  2  0  0  0  0
 18  5  1  0  0  0  0
 19 24  2  0  0  0  0
 20 19  1  0  0  0  0
 21 18  1  0  0  0  0
 22 18  2  0  0  0  0
 23 21  2  0  0  0  0
 24 22  1  0  0  0  0
  7 16  2  0  0  0  0
 19 23  1  0  0  0  0
 10 11  1  0  0  0  0
M  END
> <IDNUMBER>
F3350-0591

> <Chemical_Name>
4-(2,5-dioxopyrrolidin-1-yl)-N-(4-fluorophenyl)benzene-1-sulfonamide

> <CAS>
387-28-0

> <PriceCoeff>
1.00

> <MW>
348.35

> <Description>
solid

> <FSP3>
0.12

> <clogP>
1.09

> <TPSA>
91.93

> <Acceptor>
5

> <Donor>
1

> <RotBonds>
4

> <HAC>
24

> <Collection>
General

$$$$
F3385-0042
  -ISIS-  06222321442D

 25 27  0  0  0  0  0  0  0  0999 V2000
    5.3875   -1.6417    0.0000 C   0  0  0  0  0  0  0  0  0  0  0  0
    4.6625   -2.0542    0.0000 C   0  0  0  0  0  0  0  0  0  0  0  0
    3.9417   -1.6417    0.0000 C   0  0  0  0  0  0  0  0  0  0  0  0
    5.3875   -0.8125    0.0000 C   0  0  0  0  0  0  0  0  0  0  0  0
    3.9500   -0.8125    0.0000 C   0  0  0  0  0  0  0  0  0  0  0  0
    4.6667   -0.3917    0.0000 O   0  0  0  0  0  0  0  0  0  0  0  0
    1.0917   -0.8167    0.0000 C   0  0  0  0  0  0  0  0  0  0  0  0
    3.2292   -0.4000    0.0000 C   0  0  0  0  0  0  0  0  0  0  0  0
    6.0917   -2.0625    0.0000 C   0  0  0  0  0  0  0  0  0  0  0  0
    3.2292   -2.0542    0.0000 C   0  0  0  0  0  0  0  0  0  0  0  0
    4.6625   -2.8792    0.0000 O   0  0  0  0  0  0  0  0  0  0  0  0
    1.8042   -0.4042    0.0000 O   0  0  0  0  0  0  0  0  0  0  0  0
    2.5167   -0.8125    0.0000 C   0  0  0  0  0  0  0  0  0  0  0  0
    1.0917   -1.6417    0.0000 O   0  0  0  0  0  0  0  0  0  0  0  0
    6.0917   -2.8875    0.0000 C   0  0  0  0  0  0  0  0  0  0  0  0
    6.8042   -1.6500    0.0000 C   0  0  0  0  0  0  0  0  0  0  0  0
    2.5167   -1.6417    0.0000 C   0  0  0  0  0  0  0  0  0  0  0  0
    0.3792   -0.4042    0.0000 O   0  0  0  0  0  0  0  0  0  0  0  0
    7.5167   -2.8917    0.0000 C   0  0  0  0  0  0  0  0  0  0  0  0
    6.8042   -3.3000    0.0000 C   0  0  0  0  0  0  0  0  0  0  0  0
    7.5167   -2.0625    0.0000 C   0  0  0  0  0  0  0  0  0  0  0  0
    8.2292   -3.3042    0.0000 O   0  0  0  0  0  0  0  0  0  0  0  0
   -0.3375   -0.8167    0.0000 C   0  0  0  0  0  0  0  0  0  0  0  0
    8.9500   -2.8917    0.0000 C   0  0  0  0  0  0  0  0  0  0  0  0
   -1.0500   -0.4042    0.0000 C   0  0  0  0  0  0  0  0  0  0  0  0
  2  1  1  0  0  0  0
  3  2  1  0  0  0  0
  4  1  2  0  0  0  0
  5  6  1  0  0  0  0
  6  4  1  0  0  0  0
  7 12  1  0  0  0  0
  8  5  2  0  0  0  0
  9  1  1  0  0  0  0
 10  3  2  0  0  0  0
 11  2  2  0  0  0  0
 12 13  1  0  0  0  0
 13  8  1  0  0  0  0
 14  7  2  0  0  0  0
 15  9  2  0  0  0  0
 16  9  1  0  0  0  0
 17 10  1  0  0  0  0
 18  7  1  0  0  0  0
 19 21  1  0  0  0  0
 20 15  1  0  0  0  0
 21 16  2  0  0  0  0
 22 19  1  0  0  0  0
 23 18  1  0  0  0  0
 24 22  1  0  0  0  0
 25 23  1  0  0  0  0
 19 20  2  0  0  0  0
  3  5  1  0  0  0  0
 17 13  2  0  0  0  0
M  END
> <IDNUMBER>
F3385-0042

> <Chemical_Name>
ethyl 3-(4-methoxyphenyl)-4-oxo-4H-chromen-7-yl carbonate

> <CAS>
637750-99-3

> <PriceCoeff>
1.00

> <MW>
340.33

> <Description>
solid

> <FSP3>
0.16

> <clogP>
2.76

> <TPSA>
71.06

> <Acceptor>
6

> <Donor>
0

> <RotBonds>
6

> <HAC>
25

> <Collection>
General

> <Reference_compound>
CHEMBL44

> <Similarity>
0.8320

$$$$
F2049-0479
  -ISIS-  06222321142D

 27 30  0  0  0  0  0  0  0  0999 V2000
   -4.4833    6.6875    0.0000 N   0  0  3  0  0  0  0  0  0  0  0  0
   -5.2083    6.2667    0.0000 C   0  0  0  0  0  0  0  0  0  0  0  0
   -3.7583    6.2792    0.0000 C   0  0  0  0  0  0  0  0  0  0  0  0
   -3.7500    3.8000    0.0000 C   0  0  0  0  0  0  0  0  0  0  0  0
   -3.0375    4.2125    0.0000 N   0  0  0  0  0  0  0  0  0  0  0  0
   -3.7583    5.4500    0.0000 C   0  0  0  0  0  0  0  0  0  0  0  0
   -3.0458    6.6917    0.0000 C   0  0  0  0  0  0  0  0  0  0  0  0
   -3.0375    5.0292    0.0000 C   0  0  0  0  0  0  0  0  0  0  0  0
   -5.1958    5.4375    0.0000 O   0  0  0  0  0  0  0  0  0  0  0  0
   -5.9208    6.6792    0.0000 C   0  0  0  0  0  0  0  0  0  0  0  0
   -4.4583    4.2042    0.0000 O   0  0  0  0  0  0  0  0  0  0  0  0
   -3.7500    2.9583    0.0000 C   0  0  0  0  0  0  0  0  0  0  0  0
   -2.3250    6.2792    0.0000 C   0  0  0  0  0  0  0  0  0  0  0  0
   -4.4833    7.5167    0.0000 C   0  0  0  0  0  0  0  0  0  0  0  0
   -2.3250    5.4542    0.0000 C   0  0  0  0  0  0  0  0  0  0  0  0
   -3.7708    7.9292    0.0000 C   0  0  0  0  0  0  0  0  0  0  0  0
   -3.0500    7.5167    0.0000 C   0  0  0  0  0  0  0  0  0  0  0  0
   -5.9208    7.5042    0.0000 C   0  0  0  0  0  0  0  0  0  0  0  0
   -6.6167    6.2542    0.0000 C   0  0  0  0  0  0  0  0  0  0  0  0
   -4.4458    2.5583    0.0000 C   0  0  0  0  0  0  0  0  0  0  0  0
   -3.0125    2.5583    0.0000 C   0  0  0  0  0  0  0  0  0  0  0  0
   -7.3417    6.6667    0.0000 C   0  0  0  0  0  0  0  0  0  0  0  0
   -6.6292    7.9167    0.0000 C   0  0  0  0  0  0  0  0  0  0  0  0
   -3.0125    1.7333    0.0000 C   0  0  0  0  0  0  0  0  0  0  0  0
   -4.4458    1.7208    0.0000 C   0  0  0  0  0  0  0  0  0  0  0  0
   -7.3417    7.5042    0.0000 C   0  0  0  0  0  0  0  0  0  0  0  0
   -3.7375    1.3083    0.0000 C   0  0  0  0  0  0  0  0  0  0  0  0
  2  1  1  0  0  0  0
  3  1  1  0  0  0  0
  4  5  1  0  0  0  0
  5  8  1  0  0  0  0
  6  3  1  0  0  0  0
  7  3  2  0  0  0  0
  8  6  2  0  0  0  0
  9  2  2  0  0  0  0
 10  2  1  0  0  0  0
 11  4  2  0  0  0  0
 12  4  1  0  0  0  0
 13  7  1  0  0  0  0
 14  1  1  0  0  0  0
 15 13  2  0  0  0  0
 16 14  1  0  0  0  0
 17 16  1  0  0  0  0
 18 10  2  0  0  0  0
 19 10  1  0  0  0  0
 20 12  2  0  0  0  0
 21 12  1  0  0  0  0
 22 19  2  0  0  0  0
 23 18  1  0  0  0  0
 24 21  2  0  0  0  0
 25 20  1  0  0  0  0
 26 22  1  0  0  0  0
 27 24  1  0  0  0  0
 17  7  1  0  0  0  0
 15  8  1  0  0  0  0
 26 23  2  0  0  0  0
 27 25  2  0  0  0  0
M  END
> <IDNUMBER>
F2049-0479

> <Chemical_Name>
N-(1-benzoyl-1,2,3,4-tetrahydroquinolin-7-yl)benzamide

> <CAS>
946266-78-0

> <PriceCoeff>
1.00

> <MW>
356.42

> <Description>
solid

> <FSP3>
0.13

> <clogP>
3.55

> <TPSA>
49.41

> <Acceptor>
2

> <Donor>
1

> <RotBonds>
4

> <HAC>
27

> <Collection>
General

> <Reference_compound>
CHEMBL2286417

> <Similarity>
0.8150

$$$$
F3228-0115
  -ISIS-  06222321152D

 20 22  0  0  0  0  0  0  0  0999 V2000
    4.1417   -1.8542    0.0000 C   0  0  3  0  0  0  0  0  0  0  0  0
    2.7125   -2.6542    0.0000 C   0  0  0  0  0  0  0  0  0  0  0  0
    3.4417   -1.4375    0.0000 O   0  0  0  0  0  0  0  0  0  0  0  0
    3.4125   -3.0792    0.0000 C   0  0  0  0  0  0  0  0  0  0  0  0
    4.8667   -1.4542    0.0000 C   0  0  0  0  0  0  0  0  0  0  0  0
    2.7250   -1.8375    0.0000 C   0  0  0  0  0  0  0  0  0  0  0  0
    4.1292   -2.6792    0.0000 C   0  0  0  0  0  0  0  0  0  0  0  0
    5.5667   -1.8875    0.0000 C   0  0  0  0  0  0  0  0  0  0  0  0
    6.2917   -1.4875    0.0000 C   0  0  0  0  0  0  0  0  0  0  0  0
    4.8750   -0.6375    0.0000 C   0  0  0  0  0  0  0  0  0  0  0  0
    2.0000   -3.0667    0.0000 C   0  0  0  0  0  0  0  0  0  0  0  0
    3.4000   -3.9042    0.0000 O   0  0  0  0  0  0  0  0  0  0  0  0
    2.0167   -1.4167    0.0000 C   0  0  0  0  0  0  0  0  0  0  0  0
    6.3042   -0.6625    0.0000 C   0  0  0  0  0  0  0  0  0  0  0  0
    5.5542   -2.7125    0.0000 Cl  0  0  0  0  0  0  0  0  0  0  0  0
    5.5917   -0.2375    0.0000 C   0  0  0  0  0  0  0  0  0  0  0  0
    1.2917   -2.6542    0.0000 C   0  0  0  0  0  0  0  0  0  0  0  0
    1.2917   -1.8250    0.0000 C   0  0  0  0  0  0  0  0  0  0  0  0
    7.0292   -0.2625    0.0000 Cl  0  0  0  0  0  0  0  0  0  0  0  0
    0.5750   -3.0625    0.0000 C   0  0  0  0  0  0  0  0  0  0  0  0
  2  4  1  0  0  0  0
  3  1  1  0  0  0  0
  4  7  1  0  0  0  0
  5  1  1  0  0  0  0
  6  3  1  0  0  0  0
  7  1  1  0  0  0  0
  8  5  2  0  0  0  0
  9  8  1  0  0  0  0
 10  5  1  0  0  0  0
 11  2  1  0  0  0  0
 12  4  2  0  0  0  0
 13  6  1  0  0  0  0
 14 16  1  0  0  0  0
 15  8  1  0  0  0  0
 16 10  2  0  0  0  0
 17 11  2  0  0  0  0
 18 13  2  0  0  0  0
 19 14  1  0  0  0  0
 20 17  1  0  0  0  0
  2  6  2  0  0  0  0
 14  9  2  0  0  0  0
 17 18  1  0  0  0  0
M  END
> <IDNUMBER>
F3228-0115

> <Chemical_Name>
2-(2,4-dichlorophenyl)-6-methyl-3,4-dihydro-2H-1-benzopyran-4-one

> <CAS>
879923-21-4

> <PriceCoeff>
1.00

> <MW>
307.17

> <Description>
solid

> <FSP3>
0.19

> <clogP>
5.40

> <TPSA>
26.30

> <Acceptor>
2

> <Donor>
0

> <RotBonds>
1

> <HAC>
20

> <Collection>
General

> <Reference_compound>
CHEMBL274318

> <Similarity>
0.8070

$$$$
F3385-4229
  -ISIS-  06222321152D

 26 28  0  0  0  0  0  0  0  0999 V2000
    6.3542   -1.9042    0.0000 C   0  0  0  0  0  0  0  0  0  0  0  0
    5.6292   -2.3167    0.0000 C   0  0  0  0  0  0  0  0  0  0  0  0
    4.9125   -1.9042    0.0000 C   0  0  0  0  0  0  0  0  0  0  0  0
    6.3542   -1.0750    0.0000 C   0  0  0  0  0  0  0  0  0  0  0  0
    4.9167   -1.0750    0.0000 C   0  0  0  0  0  0  0  0  0  0  0  0
    5.6292   -0.6542    0.0000 O   0  0  0  0  0  0  0  0  0  0  0  0
    7.0625   -2.3250    0.0000 C   0  0  0  0  0  0  0  0  0  0  0  0
    4.2000   -2.3167    0.0000 C   0  0  0  0  0  0  0  0  0  0  0  0
    4.2000   -0.6625    0.0000 C   0  0  0  0  0  0  0  0  0  0  0  0
    1.3417   -0.6667    0.0000 C   0  0  0  0  0  0  0  0  0  0  0  0
    5.6292   -3.1417    0.0000 O   0  0  0  0  0  0  0  0  0  0  0  0
    1.3500    0.1625    0.0000 O   0  0  0  0  0  0  0  0  0  0  0  0
    3.4875   -1.0750    0.0000 C   0  0  0  0  0  0  0  0  0  0  0  0
    7.7750   -1.9125    0.0000 C   0  0  0  0  0  0  0  0  0  0  0  0
    7.0542   -3.1500    0.0000 C   0  0  0  0  0  0  0  0  0  0  0  0
    2.7750   -0.6667    0.0000 O   0  0  0  0  0  0  0  0  0  0  0  0
    2.0542   -1.0792    0.0000 C   0  0  0  0  0  0  0  0  0  0  0  0
    3.4875   -1.9042    0.0000 C   0  0  0  0  0  0  0  0  0  0  0  0
    8.4875   -3.1542    0.0000 C   0  0  0  0  0  0  0  0  0  0  0  0
    7.7667   -3.5625    0.0000 C   0  0  0  0  0  0  0  0  0  0  0  0
    8.4875   -2.3250    0.0000 C   0  0  0  0  0  0  0  0  0  0  0  0
    0.6375   -1.0792    0.0000 O   0  0  0  0  0  0  0  0  0  0  0  0
    9.2000   -3.5667    0.0000 O   0  0  0  0  0  0  0  0  0  0  0  0
   -0.0833   -0.6667    0.0000 C   0  0  0  0  0  0  0  0  0  0  0  0
    9.9167   -3.1542    0.0000 C   0  0  0  0  0  0  0  0  0  0  0  0
   -0.7958   -1.0792    0.0000 C   0  0  0  0  0  0  0  0  0  0  0  0
  2  1  1  0  0  0  0
  3  2  1  0  0  0  0
  4  1  2  0  0  0  0
  5  6  1  0  0  0  0
  6  4  1  0  0  0  0
  7  1  1  0  0  0  0
  8  3  2  0  0  0  0
  9  5  2  0  0  0  0
 10 17  1  0  0  0  0
 11  2  2  0  0  0  0
 12 10  2  0  0  0  0
 13  9  1  0  0  0  0
 14  7  1  0  0  0  0
 15  7  2  0  0  0  0
 16 13  1  0  0  0  0
 17 16  1  0  0  0  0
 18  8  1  0  0  0  0
 19 20  2  0  0  0  0
 20 15  1  0  0  0  0
 21 14  2  0  0  0  0
 22 10  1  0  0  0  0
 23 19  1  0  0  0  0
 24 22  1  0  0  0  0
 25 23  1  0  0  0  0
 26 24  1  0  0  0  0
 19 21  1  0  0  0  0
  5  3  1  0  0  0  0
 13 18  2  0  0  0  0
M  END
> <IDNUMBER>
F3385-4229

> <Chemical_Name>
ethyl 2-{[3-(4-methoxyphenyl)-4-oxo-4H-chromen-7-yl]oxy}acetate

> <CAS>
6760-95-8

> <PriceCoeff>
1.00

> <MW>
354.35

> <Description>
solid

> <FSP3>
0.20

> <clogP>
3.17

> <TPSA>
71.06

> <Acceptor>
6

> <Donor>
0

> <RotBonds>
7

> <HAC>
26

> <Collection>
General

> <Reference_compound>
CHEMBL44

> <Similarity>
0.8270

$$$$
F0847-0015
  -ISIS-  06222321442D

 20 21  0  0  0  0  0  0  0  0999 V2000
    1.1792    0.2833    0.0000 N   0  3  0  0  0  0  0  0  0  0  0  0
   -2.7458   -0.5375    0.0000 C   0  0  0  0  0  0  0  0  0  0  0  0
   -1.2458   -0.0292    0.0000 C   0  0  0  0  0  0  0  0  0  0  0  0
    0.2542    0.4625    0.0000 C   0  0  0  0  0  0  0  0  0  0  0  0
   -1.8458   -0.7167    0.0000 N   0  0  0  0  0  0  0  0  0  0  0  0
   -0.3458   -0.2167    0.0000 C   0  0  0  0  0  0  0  0  0  0  0  0
    1.4792   -0.5792    0.0000 O   0  5  0  0  0  0  0  0  0  0  0  0
    1.7542    0.9833    0.0000 O   0  0  0  0  0  0  0  0  0  0  0  0
   -1.5458    0.8208    0.0000 C   0  0  0  0  0  0  0  0  0  0  0  0
   -3.3458   -1.2375    0.0000 O   0  0  0  0  0  0  0  0  0  0  0  0
   -3.0208    0.3208    0.0000 O   0  0  0  0  0  0  0  0  0  0  0  0
   -0.0458    1.3208    0.0000 C   0  0  0  0  0  0  0  0  0  0  0  0
   -0.9208    1.5000    0.0000 C   0  0  0  0  0  0  0  0  0  0  0  0
   -4.2708   -1.0375    0.0000 C   0  0  0  0  0  0  0  0  0  0  0  0
   -2.4625    1.0000    0.0000 O   0  0  0  0  0  0  0  0  0  0  0  0
   -4.9083   -1.7000    0.0000 C   0  0  0  0  0  0  0  0  0  0  0  0
   -4.5208   -0.1542    0.0000 C   0  0  0  0  0  0  0  0  0  0  0  0
   -5.3833    0.0625    0.0000 C   0  0  0  0  0  0  0  0  0  0  0  0
   -5.7833   -1.4542    0.0000 C   0  0  0  0  0  0  0  0  0  0  0  0
   -6.0167   -0.5792    0.0000 C   0  0  0  0  0  0  0  0  0  0  0  0
  2  5  1  0  0  0  0
  3  6  1  0  0  0  0
  4  1  1  0  0  0  0
  5  3  1  0  0  0  0
  6  4  2  0  0  0  0
  7  1  1  0  0  0  0
  8  1  2  0  0  0  0
  9 13  1  0  0  0  0
 10  2  1  0  0  0  0
 11  2  2  0  0  0  0
 12  4  1  0  0  0  0
 13 12  2  0  0  0  0
 14 10  1  0  0  0  0
 15  9  1  0  0  0  0
 16 14  2  0  0  0  0
 17 14  1  0  0  0  0
 18 17  2  0  0  0  0
 19 16  1  0  0  0  0
 20 18  1  0  0  0  0
  3  9  2  0  0  0  0
 19 20  2  0  0  0  0
M  CHG  2   1   1   7  -1
M  END
> <IDNUMBER>
F0847-0015

> <Chemical_Name>
phenyl N-(2-hydroxy-5-nitrophenyl)carbamate

> <CAS>
43112-62-5

> <PriceCoeff>
1.00

> <MW>
274.23

> <Description>
solid

> <FSP3>
0.00

> <clogP>
3.12

> <TPSA>
101.70

> <Acceptor>
5

> <Donor>
2

> <RotBonds>
4

> <HAC>
20

> <Collection>
General

> <Reference_compound>
CHEMBL2288446

> <Similarity>
0.8700

$$$$
F3323-0626
  -ISIS-  06222321442D

 27 29  0  0  0  0  0  0  0  0999 V2000
    6.5750   -6.4542    0.0000 N   0  0  3  0  0  0  0  0  0  0  0  0
    5.7750   -6.2750    0.0000 C   0  0  0  0  0  0  0  0  0  0  0  0
   10.5625   -4.8917    0.0000 N   0  3  0  0  0  0  0  0  0  0  0  0
    9.7417   -4.7750    0.0000 C   0  0  0  0  0  0  0  0  0  0  0  0
    5.1292   -6.7792    0.0000 C   0  0  0  0  0  0  0  0  0  0  0  0
    6.9292   -7.1917    0.0000 C   0  0  0  0  0  0  0  0  0  0  0  0
    7.0875   -5.8125    0.0000 C   0  0  0  0  0  0  0  0  0  0  0  0
    9.2292   -5.4167    0.0000 C   0  0  0  0  0  0  0  0  0  0  0  0
    7.9042   -5.9375    0.0000 C   0  0  0  0  0  0  0  0  0  0  0  0
    5.7667   -8.1250    0.0000 O   0  0  0  0  0  0  0  0  0  0  0  0
    8.4167   -5.2917    0.0000 C   0  0  0  0  0  0  0  0  0  0  0  0
    5.1250   -7.6042    0.0000 C   0  0  0  0  0  0  0  0  0  0  0  0
    9.4417   -4.0042    0.0000 C   0  0  0  0  0  0  0  0  0  0  0  0
   10.8625   -5.6667    0.0000 O   0  5  0  0  0  0  0  0  0  0  0  0
    5.5917   -5.4667    0.0000 O   0  0  0  0  0  0  0  0  0  0  0  0
    6.5667   -7.9417    0.0000 C   0  0  0  0  0  0  0  0  0  0  0  0
   11.0792   -4.2542    0.0000 O   0  0  0  0  0  0  0  0  0  0  0  0
    7.7542   -7.1917    0.0000 O   0  0  0  0  0  0  0  0  0  0  0  0
    8.2042   -6.7042    0.0000 O   0  0  0  0  0  0  0  0  0  0  0  0
    8.1125   -4.5292    0.0000 C   0  0  0  0  0  0  0  0  0  0  0  0
    8.6250   -3.8792    0.0000 C   0  0  0  0  0  0  0  0  0  0  0  0
    4.4125   -6.3667    0.0000 C   0  0  0  0  0  0  0  0  0  0  0  0
    9.9542   -3.3667    0.0000 O   0  0  0  0  0  0  0  0  0  0  0  0
    4.4125   -8.0250    0.0000 C   0  0  0  0  0  0  0  0  0  0  0  0
    9.6542   -2.5917    0.0000 C   0  0  0  0  0  0  0  0  0  0  0  0
    3.7000   -6.7875    0.0000 C   0  0  0  0  0  0  0  0  0  0  0  0
    3.7000   -7.6125    0.0000 C   0  0  0  0  0  0  0  0  0  0  0  0
  2  1  1  0  0  0  0
  3  4  1  0  0  0  0
  4  8  1  0  0  0  0
  5  2  1  0  0  0  0
  6  1  1  0  0  0  0
  7  1  1  0  0  0  0
  8 11  2  0  0  0  0
  9  7  1  0  0  0  0
 10 16  1  0  0  0  0
 11  9  1  0  0  0  0
 12  5  1  0  0  0  0
 13 21  1  0  0  0  0
 14  3  1  0  0  0  0
 15  2  2  0  0  0  0
 16  6  1  0  0  0  0
 17  3  2  0  0  0  0
 18  6  2  0  0  0  0
 19  9  2  0  0  0  0
 20 11  1  0  0  0  0
 21 20  2  0  0  0  0
 22  5  2  0  0  0  0
 23 13  1  0  0  0  0
 24 12  2  0  0  0  0
 25 23  1  0  0  0  0
 26 22  1  0  0  0  0
 27 26  2  0  0  0  0
 12 10  1  0  0  0  0
 24 27  1  0  0  0  0
  4 13  2  0  0  0  0
M  CHG  2   3   1  14  -1
M  END
> <IDNUMBER>
F3323-0626

> <Chemical_Name>
4-[2-(4-methoxy-3-nitrophenyl)-2-oxoethyl]-2,3,4,5-tetrahydro-1,4-benzoxazepine-3,5-dione

> <CAS>
903854-89-7

> <PriceCoeff>
1.00

> <MW>
370.31

> <Description>
solid

> <FSP3>
0.17

> <clogP>
2.38

> <TPSA>
116.05

> <Acceptor>
7

> <Donor>
0

> <RotBonds>
5

> <HAC>
27

> <Collection>
General

$$$$
F3367-0019
  -ISIS-  06222321462D

 25 27  0  0  0  0  0  0  0  0999 V2000
    2.2917   -0.8667    0.0000 S   0  0  3  0  0  0  0  0  0  0  0  0
   -1.4208   -0.1875    0.0000 N   0  0  3  0  0  0  0  0  0  0  0  0
   -1.0875    0.5708    0.0000 C   0  0  0  0  0  0  0  0  0  0  0  0
   -2.2375   -0.1042    0.0000 C   0  0  0  0  0  0  0  0  0  0  0  0
    3.1167   -0.8667    0.0000 N   0  0  0  0  0  0  0  0  0  0  0  0
    1.4667   -0.8750    0.0000 C   0  0  0  0  0  0  0  0  0  0  0  0
    2.2875   -0.0417    0.0000 O   0  0  0  0  0  0  0  0  0  0  0  0
    2.2875   -1.6917    0.0000 O   0  0  0  0  0  0  0  0  0  0  0  0
   -1.0000   -0.8917    0.0000 C   0  0  0  0  0  0  0  0  0  0  0  0
   -2.4208    0.6958    0.0000 C   0  0  0  0  0  0  0  0  0  0  0  0
   -1.7083    1.1208    0.0000 C   0  0  0  0  0  0  0  0  0  0  0  0
   -2.7833   -0.7250    0.0000 O   0  0  0  0  0  0  0  0  0  0  0  0
   -0.2833    0.7458    0.0000 O   0  0  0  0  0  0  0  0  0  0  0  0
    3.5292   -1.5792    0.0000 C   0  0  0  0  0  0  0  0  0  0  0  0
    1.0542   -0.1667    0.0000 C   0  0  0  0  0  0  0  0  0  0  0  0
    1.0542   -1.5875    0.0000 C   0  0  0  0  0  0  0  0  0  0  0  0
   -0.1750   -0.8875    0.0000 C   0  0  0  0  0  0  0  0  0  0  0  0
    4.3500   -1.5792    0.0000 C   0  0  0  0  0  0  0  0  0  0  0  0
    0.2292   -0.1667    0.0000 C   0  0  0  0  0  0  0  0  0  0  0  0
    0.2417   -1.5917    0.0000 C   0  0  0  0  0  0  0  0  0  0  0  0
    4.7625   -2.2875    0.0000 C   0  0  0  0  0  0  0  0  0  0  0  0
    3.5250   -3.0042    0.0000 C   0  0  0  0  0  0  0  0  0  0  0  0
    3.1125   -2.2917    0.0000 C   0  0  0  0  0  0  0  0  0  0  0  0
    4.3542   -3.0042    0.0000 C   0  0  0  0  0  0  0  0  0  0  0  0
    5.5875   -2.2792    0.0000 C   0  0  0  0  0  0  0  0  0  0  0  0
  2  9  1  0  0  0  0
  3  2  1  0  0  0  0
  4  2  1  0  0  0  0
  5  1  1  0  0  0  0
  6  1  1  0  0  0  0
  7  1  2  0  0  0  0
  8  1  2  0  0  0  0
  9 17  1  0  0  0  0
 10  4  1  0  0  0  0
 11  3  1  0  0  0  0
 12  4  2  0  0  0  0
 13  3  2  0  0  0  0
 14  5  1  0  0  0  0
 15  6  1  0  0  0  0
 16  6  2  0  0  0  0
 17 20  2  0  0  0  0
 18 14  1  0  0  0  0
 19 15  2  0  0  0  0
 20 16  1  0  0  0  0
 21 18  2  0  0  0  0
 22 23  1  0  0  0  0
 23 14  2  0  0  0  0
 24 22  2  0  0  0  0
 25 21  1  0  0  0  0
 17 19  1  0  0  0  0
 21 24  1  0  0  0  0
 10 11  1  0  0  0  0
M  END
> <IDNUMBER>
F3367-0019

> <Chemical_Name>
4-[(2,5-dioxopyrrolidin-1-yl)methyl]-N-(3-methylphenyl)benzene-1-sulfonamide

> <CAS>
940984-02-1

> <PriceCoeff>
1.00

> <MW>
358.41

> <Description>
solid

> <FSP3>
0.22

> <clogP>
1.91

> <TPSA>
91.93

> <Acceptor>
5

> <Donor>
1

> <RotBonds>
5

> <HAC>
25

> <Collection>
General

$$$$
F3023-1010
  -ISIS-  06222321152D

 30 33  0  0  0  0  0  0  0  0999 V2000
    4.2542   -6.4542    0.0000 N   0  0  3  0  0  0  0  0  0  0  0  0
    4.6667   -5.8792    0.0000 C   0  0  0  0  0  0  0  0  0  0  0  0
    4.6750   -7.0250    0.0000 C   0  0  0  0  0  0  0  0  0  0  0  0
    5.3500   -6.8042    0.0000 C   0  0  3  0  0  0  0  0  0  0  0  0
    5.3417   -6.0917    0.0000 C   0  0  0  0  0  0  0  0  0  0  0  0
    8.5125   -6.0625    0.0000 N   0  0  3  0  0  0  0  0  0  0  0  0
    5.9167   -7.2167    0.0000 N   0  0  0  0  0  0  0  0  0  0  0  0
    3.5417   -6.4542    0.0000 C   0  0  0  0  0  0  0  0  0  0  0  0
    1.4167   -6.4750    0.0000 C   0  0  0  0  0  0  0  0  0  0  0  0
    4.4417   -5.2042    0.0000 O   0  0  0  0  0  0  0  0  0  0  0  0
    7.8625   -6.3542    0.0000 C   0  0  0  0  0  0  0  0  0  0  0  0
    4.4625   -7.7000    0.0000 O   0  0  0  0  0  0  0  0  0  0  0  0
    2.1292   -6.4667    0.0000 C   0  0  0  0  0  0  0  0  0  0  0  0
    1.0667   -7.0917    0.0000 O   0  0  0  0  0  0  0  0  0  0  0  0
    3.1917   -5.8417    0.0000 C   0  0  0  0  0  0  0  0  0  0  0  0
    3.2000   -7.0750    0.0000 C   0  0  0  0  0  0  0  0  0  0  0  0
    2.4917   -7.0792    0.0000 C   0  0  0  0  0  0  0  0  0  0  0  0
    2.4792   -5.8500    0.0000 C   0  0  0  0  0  0  0  0  0  0  0  0
    7.7917   -7.0542    0.0000 C   0  0  0  0  0  0  0  0  0  0  0  0
    7.2792   -5.9375    0.0000 C   0  0  0  0  0  0  0  0  0  0  0  0
    6.5667   -6.9292    0.0000 C   0  0  0  0  0  0  0  0  0  0  0  0
    1.0625   -5.8625    0.0000 O   0  0  0  0  0  0  0  0  0  0  0  0
    6.6375   -6.2250    0.0000 C   0  0  0  0  0  0  0  0  0  0  0  0
    7.1417   -7.3417    0.0000 C   0  0  0  0  0  0  0  0  0  0  0  0
    9.0875   -6.4792    0.0000 C   0  0  0  0  0  0  0  0  0  0  0  0
    8.5792   -5.3542    0.0000 C   0  0  0  0  0  0  0  0  0  0  0  0
    1.4125   -5.2417    0.0000 C   0  0  0  0  0  0  0  0  0  0  0  0
    9.7292   -6.1917    0.0000 C   0  0  0  0  0  0  0  0  0  0  0  0
    9.2292   -5.0667    0.0000 C   0  0  0  0  0  0  0  0  0  0  0  0
    9.8125   -5.4875    0.0000 C   0  0  0  0  0  0  0  0  0  0  0  0
  2  1  1  0  0  0  0
  3  1  1  0  0  0  0
  4  3  1  0  0  0  0
  5  2  1  0  0  0  0
  6 11  1  0  0  0  0
  7  4  1  0  0  0  0
  8  1  1  0  0  0  0
  9 13  1  0  0  0  0
 10  2  2  0  0  0  0
 11 19  2  0  0  0  0
 12  3  2  0  0  0  0
 13 17  1  0  0  0  0
 14  9  2  0  0  0  0
 15  8  2  0  0  0  0
 16  8  1  0  0  0  0
 17 16  2  0  0  0  0
 18 15  1  0  0  0  0
 19 24  1  0  0  0  0
 20 23  2  0  0  0  0
 21  7  1  0  0  0  0
 22  9  1  0  0  0  0
 23 21  1  0  0  0  0
 24 21  2  0  0  0  0
 25  6  1  0  0  0  0
 26  6  1  0  0  0  0
 27 22  1  0  0  0  0
 28 25  1  0  0  0  0
 29 26  1  0  0  0  0
 30 29  1  0  0  0  0
  5  4  1  0  0  0  0
 13 18  2  0  0  0  0
 20 11  1  0  0  0  0
 30 28  1  0  0  0  0
M  END
> <IDNUMBER>
F3023-1010

> <Chemical_Name>
methyl 4-(2,5-dioxo-3-{[4-(piperidin-1-yl)phenyl]amino}pyrrolidin-1-yl)benzoate

> <CAS>
1009417-21-3

> <PriceCoeff>
1.00

> <MW>
407.46

> <Description>
solid

> <FSP3>
0.35

> <clogP>
3.80

> <TPSA>
78.95

> <Acceptor>
6

> <Donor>
2

> <RotBonds>
6

> <HAC>
30

> <Collection>
General

$$$$
F3385-2702
  -ISIS-  06222321152D

 27 29  0  0  0  0  0  0  0  0999 V2000
    5.6917   -4.2292    0.0000 C   0  0  0  0  0  0  0  0  0  0  0  0
    4.9750   -4.6417    0.0000 C   0  0  0  0  0  0  0  0  0  0  0  0
    4.2625   -4.2292    0.0000 C   0  0  0  0  0  0  0  0  0  0  0  0
    1.3917   -3.4000    0.0000 C   0  0  0  0  0  0  0  0  0  0  0  0
    5.6917   -3.4042    0.0000 C   0  0  0  0  0  0  0  0  0  0  0  0
    4.2625   -3.4042    0.0000 C   0  0  0  0  0  0  0  0  0  0  0  0
    6.4042   -4.6500    0.0000 C   0  0  0  0  0  0  0  0  0  0  0  0
    4.9750   -2.9917    0.0000 O   0  0  0  0  0  0  0  0  0  0  0  0
    2.1125   -2.9917    0.0000 O   0  0  0  0  0  0  0  0  0  0  0  0
    3.5500   -2.9917    0.0000 C   0  0  0  0  0  0  0  0  0  0  0  0
    7.1167   -4.2292    0.0000 C   0  0  0  0  0  0  0  0  0  0  0  0
    3.5500   -4.6417    0.0000 C   0  0  0  0  0  0  0  0  0  0  0  0
    7.8375   -4.6417    0.0000 C   0  0  0  0  0  0  0  0  0  0  0  0
    0.6792   -2.9792    0.0000 N   0  0  3  0  0  0  0  0  0  0  0  0
    2.8292   -3.4042    0.0000 C   0  0  0  0  0  0  0  0  0  0  0  0
    4.9750   -5.4667    0.0000 O   0  0  0  0  0  0  0  0  0  0  0  0
    1.3917   -4.2250    0.0000 O   0  0  0  0  0  0  0  0  0  0  0  0
    7.8375   -5.4750    0.0000 C   0  0  0  0  0  0  0  0  0  0  0  0
    6.4042   -5.4750    0.0000 C   0  0  0  0  0  0  0  0  0  0  0  0
    7.1167   -5.8875    0.0000 C   0  0  0  0  0  0  0  0  0  0  0  0
    2.8292   -4.2292    0.0000 C   0  0  0  0  0  0  0  0  0  0  0  0
    8.5542   -4.2292    0.0000 O   0  0  0  0  0  0  0  0  0  0  0  0
    8.5625   -5.8917    0.0000 O   0  0  0  0  0  0  0  0  0  0  0  0
    0.6875   -2.1542    0.0000 C   0  0  0  0  0  0  0  0  0  0  0  0
   -0.0333   -3.3917    0.0000 C   0  0  0  0  0  0  0  0  0  0  0  0
    9.2667   -4.6500    0.0000 C   0  0  0  0  0  0  0  0  0  0  0  0
    8.5667   -6.7250    0.0000 C   0  0  0  0  0  0  0  0  0  0  0  0
  2  1  1  0  0  0  0
  3  2  1  0  0  0  0
  4  9  1  0  0  0  0
  5  1  2  0  0  0  0
  6  8  1  0  0  0  0
  7  1  1  0  0  0  0
  8  5  1  0  0  0  0
  9 15  1  0  0  0  0
 10  6  2  0  0  0  0
 11  7  1  0  0  0  0
 12  3  2  0  0  0  0
 13 11  2  0  0  0  0
 14  4  1  0  0  0  0
 15 10  1  0  0  0  0
 16  2  2  0  0  0  0
 17  4  2  0  0  0  0
 18 20  2  0  0  0  0
 19  7  2  0  0  0  0
 20 19  1  0  0  0  0
 21 12  1  0  0  0  0
 22 13  1  0  0  0  0
 23 18  1  0  0  0  0
 24 14  1  0  0  0  0
 25 14  1  0  0  0  0
 26 22  1  0  0  0  0
 27 23  1  0  0  0  0
  3  6  1  0  0  0  0
 13 18  1  0  0  0  0
 21 15  2  0  0  0  0
M  END
> <IDNUMBER>
F3385-2702

> <Chemical_Name>
3-(3,4-dimethoxyphenyl)-4-oxo-4H-chromen-7-yl N,N-dimethylcarbamate

> <CAS>
858770-60-2

> <PriceCoeff>
1.00

> <MW>
369.37

> <Description>
solid

> <FSP3>
0.20

> <clogP>
2.12

> <TPSA>
74.30

> <Acceptor>
6

> <Donor>
0

> <RotBonds>
6

> <HAC>
27

> <Collection>
General

> <Reference_compound>
CHEMBL455048

> <Similarity>
0.8290

$$$$
F1318-0203
  -ISIS-  06222321442D

 22 23  0  0  0  0  0  0  0  0999 V2000
   -0.6708   -3.7792    0.0000 C   0  0  0  0  0  0  0  0  0  0  0  0
    3.4292   -0.9042    0.0000 C   0  0  0  0  0  0  0  0  0  0  0  0
    3.0167   -1.6167    0.0000 O   0  0  0  0  0  0  0  0  0  0  0  0
   -0.2625   -3.0542    0.0000 O   0  0  0  0  0  0  0  0  0  0  0  0
    0.5625   -3.0542    0.0000 C   0  0  0  0  0  0  0  0  0  0  0  0
    2.1917   -1.6167    0.0000 C   0  0  0  0  0  0  0  0  0  0  0  0
    1.7792   -2.3292    0.0000 C   0  0  0  0  0  0  0  0  0  0  0  0
    0.9667   -2.3375    0.0000 C   0  0  0  0  0  0  0  0  0  0  0  0
   -1.5083   -3.7917    0.0000 N   0  0  3  0  0  0  0  0  0  0  0  0
    4.2542   -0.9042    0.0000 N   0  0  3  0  0  0  0  0  0  0  0  0
   -0.2583   -4.4917    0.0000 O   0  0  0  0  0  0  0  0  0  0  0  0
    3.0167   -0.1875    0.0000 O   0  0  0  0  0  0  0  0  0  0  0  0
    1.7667   -0.8875    0.0000 C   0  0  0  0  0  0  0  0  0  0  0  0
    0.9792   -3.7542    0.0000 C   0  0  0  0  0  0  0  0  0  0  0  0
    0.5500   -1.6292    0.0000 C   0  0  0  0  0  0  0  0  0  0  0  0
    2.2042   -3.0417    0.0000 C   0  0  0  0  0  0  0  0  0  0  0  0
    1.7917   -3.7542    0.0000 C   0  0  0  0  0  0  0  0  0  0  0  0
    0.9542   -0.8917    0.0000 C   0  0  0  0  0  0  0  0  0  0  0  0
   -1.9250   -3.0750    0.0000 C   0  0  0  0  0  0  0  0  0  0  0  0
    4.6667   -1.6167    0.0000 C   0  0  0  0  0  0  0  0  0  0  0  0
    4.6667   -0.1917    0.0000 C   0  0  0  0  0  0  0  0  0  0  0  0
   -1.9083   -4.5042    0.0000 C   0  0  0  0  0  0  0  0  0  0  0  0
  2  3  1  0  0  0  0
  3  6  1  0  0  0  0
  4  1  1  0  0  0  0
  5  4  1  0  0  0  0
  6  7  1  0  0  0  0
  7  8  1  0  0  0  0
  8  5  2  0  0  0  0
  9  1  1  0  0  0  0
 10  2  1  0  0  0  0
 11  1  2  0  0  0  0
 12  2  2  0  0  0  0
 13 18  1  0  0  0  0
 14  5  1  0  0  0  0
 15  8  1  0  0  0  0
 16 17  1  0  0  0  0
 17 14  2  0  0  0  0
 18 15  2  0  0  0  0
 19  9  1  0  0  0  0
 20 10  1  0  0  0  0
 21 10  1  0  0  0  0
 22  9  1  0  0  0  0
 16  7  2  0  0  0  0
 13  6  2  0  0  0  0
M  END
> <IDNUMBER>
F1318-0203

> <Chemical_Name>
5-[(dimethylcarbamoyl)oxy]naphthalen-1-yl N,N-dimethylcarbamate

> <CAS>
501104-83-2

> <PriceCoeff>
1.00

> <MW>
302.33

> <Description>
solid

> <FSP3>
0.25

> <clogP>
2.01

> <TPSA>
59.08

> <Acceptor>
4

> <Donor>
0

> <RotBonds>
6

> <HAC>
22

> <Collection>
General

> <Reference_compound>
CHEMBL2288666

> <Similarity>
0.8060

$$$$
F3385-2709
  -ISIS-  06222321442D

 27 29  0  0  0  0  0  0  0  0999 V2000
    1.8625   -1.3542    0.0000 C   0  0  0  0  0  0  0  0  0  0  0  0
    1.1417   -1.7667    0.0000 C   0  0  0  0  0  0  0  0  0  0  0  0
    0.4292   -1.3542    0.0000 C   0  0  0  0  0  0  0  0  0  0  0  0
    1.8625   -0.5292    0.0000 C   0  0  0  0  0  0  0  0  0  0  0  0
    0.4292   -0.5292    0.0000 C   0  0  0  0  0  0  0  0  0  0  0  0
    2.5750   -1.7750    0.0000 C   0  0  0  0  0  0  0  0  0  0  0  0
    1.1417   -0.1167    0.0000 O   0  0  0  0  0  0  0  0  0  0  0  0
    3.2917   -1.3542    0.0000 C   0  0  0  0  0  0  0  0  0  0  0  0
   -0.2833   -1.7667    0.0000 C   0  0  0  0  0  0  0  0  0  0  0  0
   -0.2833   -0.1167    0.0000 C   0  0  0  0  0  0  0  0  0  0  0  0
    4.0042   -1.7667    0.0000 C   0  0  0  0  0  0  0  0  0  0  0  0
   -3.1458   -0.1125    0.0000 C   0  0  0  0  0  0  0  0  0  0  0  0
    1.1417   -2.5917    0.0000 O   0  0  0  0  0  0  0  0  0  0  0  0
    4.0042   -2.6000    0.0000 C   0  0  0  0  0  0  0  0  0  0  0  0
    2.5750   -2.6000    0.0000 C   0  0  0  0  0  0  0  0  0  0  0  0
   -3.1333    0.7125    0.0000 O   0  0  0  0  0  0  0  0  0  0  0  0
    3.2875   -3.0125    0.0000 C   0  0  0  0  0  0  0  0  0  0  0  0
   -1.0000   -0.5292    0.0000 C   0  0  0  0  0  0  0  0  0  0  0  0
   -1.7208   -0.1167    0.0000 O   0  0  0  0  0  0  0  0  0  0  0  0
   -2.4333   -0.5250    0.0000 C   0  0  0  0  0  0  0  0  0  0  0  0
   -0.9958   -1.3542    0.0000 C   0  0  0  0  0  0  0  0  0  0  0  0
    4.7250   -1.3542    0.0000 O   0  0  0  0  0  0  0  0  0  0  0  0
   -3.8583   -0.5125    0.0000 O   0  0  0  0  0  0  0  0  0  0  0  0
    4.7292   -3.0167    0.0000 O   0  0  0  0  0  0  0  0  0  0  0  0
    5.4375   -1.7750    0.0000 C   0  0  0  0  0  0  0  0  0  0  0  0
   -4.5708   -0.0917    0.0000 C   0  0  0  0  0  0  0  0  0  0  0  0
    4.7375   -3.8500    0.0000 C   0  0  0  0  0  0  0  0  0  0  0  0
  2  1  1  0  0  0  0
  3  2  1  0  0  0  0
  4  1  2  0  0  0  0
  5  7  1  0  0  0  0
  6  1  1  0  0  0  0
  7  4  1  0  0  0  0
  8  6  1  0  0  0  0
  9  3  2  0  0  0  0
 10  5  2  0  0  0  0
 11  8  2  0  0  0  0
 12 20  1  0  0  0  0
 13  2  2  0  0  0  0
 14 17  2  0  0  0  0
 15  6  2  0  0  0  0
 16 12  2  0  0  0  0
 17 15  1  0  0  0  0
 18 10  1  0  0  0  0
 19 18  1  0  0  0  0
 20 19  1  0  0  0  0
 21  9  1  0  0  0  0
 22 11  1  0  0  0  0
 23 12  1  0  0  0  0
 24 14  1  0  0  0  0
 25 22  1  0  0  0  0
 26 23  1  0  0  0  0
 27 24  1  0  0  0  0
  5  3  1  0  0  0  0
 14 11  1  0  0  0  0
 18 21  2  0  0  0  0
M  END
> <IDNUMBER>
F3385-2709

> <Chemical_Name>
methyl 2-{[3-(3,4-dimethoxyphenyl)-4-oxo-4H-chromen-7-yl]oxy}acetate

> <CAS>
859138-23-1

> <PriceCoeff>
1.00

> <MW>
370.35

> <Description>
solid

> <FSP3>
0.20

> <clogP>
2.37

> <TPSA>
80.29

> <Acceptor>
7

> <Donor>
0

> <RotBonds>
7

> <HAC>
27

> <Collection>
General

> <Reference_compound>
CHEMBL455048

> <Similarity>
0.8540

$$$$
F2147-6052
  -ISIS-  06222321142D

  9  8  0  0  0  0  0  0  0  0999 V2000
   -5.2875    3.8000    0.0000 O   0  0  0  0  0  0  0  0  0  0  0  0
   -3.8708    3.8000    0.0000 C   0  0  3  0  0  0  0  0  0  0  0  0
   -4.5833    3.3958    0.0000 C   0  0  0  0  0  0  0  0  0  0  0  0
   -3.1583    4.2042    0.0000 C   0  0  0  0  0  0  0  0  0  0  0  0
   -3.4625    3.0875    0.0000 C   0  0  0  0  0  0  0  0  0  0  0  0
   -4.2833    4.5042    0.0000 C   0  0  0  0  0  0  0  0  0  0  0  0
   -3.1583    5.0292    0.0000 C   0  0  0  0  0  0  0  0  0  0  0  0
   -2.4458    5.4417    0.0000 C   0  0  0  0  0  0  0  0  0  0  0  0
   -2.4458    6.2625    0.0000 C   0  0  0  0  0  0  0  0  0  0  0  0
  2  3  1  0  0  0  0
  3  1  2  0  0  0  0
  4  2  1  0  0  0  0
  5  2  1  0  0  0  0
  6  2  1  0  0  0  0
  7  4  1  0  0  0  0
  8  7  1  0  0  0  0
  9  8  1  0  0  0  0
M  END
> <IDNUMBER>
F2147-6052

> <Chemical_Name>
2,2-dimethylhexanal

> <CAS>
996-12-3

> <PriceCoeff>
1.00

> <MW>
128.22

> <Description>
liquid

> <FSP3>
0.88

> <clogP>
2.82

> <TPSA>
32.85

> <Acceptor>
1

> <Donor>
0

> <RotBonds>
4

> <HAC>
9

> <Collection>
General

> <Reference_compound>
CHEMBL2270061

> <Similarity>
0.8330

$$$$
F5831-3041
  -ISIS-  06222321462D

 24 26  0  0  0  0  0  0  0  0999 V2000
   -4.5833    3.8000    0.0000 C   0  0  0  0  0  0  0  0  0  0  0  0
   -3.8625    4.2125    0.0000 N   0  0  3  0  0  0  0  0  0  0  0  0
   -4.5833    2.9833    0.0000 N   0  0  0  0  0  0  0  0  0  0  0  0
   -3.1083    3.8833    0.0000 C   0  0  0  0  0  0  0  0  0  0  0  0
   -6.0042    1.3333    0.0000 C   0  0  0  0  0  0  0  0  0  0  0  0
   -5.3000    1.7458    0.0000 C   0  0  0  0  0  0  0  0  0  0  0  0
   -2.5583    4.4917    0.0000 C   0  0  3  0  0  0  0  0  0  0  0  0
   -5.3000    2.5708    0.0000 C   0  0  0  0  0  0  0  0  0  0  0  0
   -3.7750    5.0292    0.0000 C   0  0  0  0  0  0  0  0  0  0  0  0
   -5.2958    4.2125    0.0000 O   0  0  0  0  0  0  0  0  0  0  0  0
   -1.7333    4.4917    0.0000 C   0  0  0  0  0  0  0  0  0  0  0  0
   -6.7167    1.7458    0.0000 C   0  0  0  0  0  0  0  0  0  0  0  0
   -2.9708    5.2042    0.0000 C   0  0  0  0  0  0  0  0  0  0  0  0
   -6.7167    2.5625    0.0000 C   0  0  0  0  0  0  0  0  0  0  0  0
   -1.3208    3.7958    0.0000 C   0  0  0  0  0  0  0  0  0  0  0  0
   -1.3208    5.2125    0.0000 C   0  0  0  0  0  0  0  0  0  0  0  0
   -6.0042    0.5083    0.0000 Cl  0  0  0  0  0  0  0  0  0  0  0  0
   -6.0042    2.9833    0.0000 C   0  0  0  0  0  0  0  0  0  0  0  0
   -7.4375    1.3208    0.0000 Cl  0  0  0  0  0  0  0  0  0  0  0  0
   -0.0833    4.4917    0.0000 C   0  0  0  0  0  0  0  0  0  0  0  0
   -0.5000    5.2125    0.0000 C   0  0  0  0  0  0  0  0  0  0  0  0
   -0.4958    3.7958    0.0000 C   0  0  0  0  0  0  0  0  0  0  0  0
    0.7375    4.4917    0.0000 O   0  0  0  0  0  0  0  0  0  0  0  0
    1.1500    3.7958    0.0000 C   0  0  0  0  0  0  0  0  0  0  0  0
  2  1  1  0  0  0  0
  3  1  1  0  0  0  0
  4  2  1  0  0  0  0
  5  6  1  0  0  0  0
  6  8  2  0  0  0  0
  7  4  1  0  0  0  0
  8  3  1  0  0  0  0
  9  2  1  0  0  0  0
 10  1  2  0  0  0  0
 11  7  1  0  0  0  0
 12 14  1  0  0  0  0
 13  9  1  0  0  0  0
 14 18  2  0  0  0  0
 15 11  1  0  0  0  0
 16 11  2  0  0  0  0
 17  5  1  0  0  0  0
 18  8  1  0  0  0  0
 19 12  1  0  0  0  0
 20 21  2  0  0  0  0
 21 16  1  0  0  0  0
 22 15  2  0  0  0  0
 23 20  1  0  0  0  0
 24 23  1  0  0  0  0
  7 13  1  0  0  0  0
  5 12  2  0  0  0  0
 22 20  1  0  0  0  0
M  END
> <IDNUMBER>
F5831-3041

> <Chemical_Name>
N-(3,4-dichlorophenyl)-3-(4-methoxyphenyl)pyrrolidine-1-carboxamide

> <CAS>
1210395-78-0

> <PriceCoeff>
1.00

> <MW>
365.25

> <Description>
solid

> <FSP3>
0.28

> <clogP>
4.48

> <TPSA>
41.57

> <Acceptor>
2

> <Donor>
1

> <RotBonds>
4

> <HAC>
24

> <Collection>
General

$$$$
F0196-0692
  -ISIS-  06222321142D

 28 31  0  0  0  0  0  0  0  0999 V2000
    0.1542    0.5000    0.0000 C   0  0  0  0  0  0  0  0  0  0  0  0
   -0.3458    0.2000    0.0000 C   0  0  0  0  0  0  0  0  0  0  0  0
   -0.8458    0.5000    0.0000 C   0  0  0  0  0  0  0  0  0  0  0  0
    0.1542    1.0833    0.0000 C   0  0  0  0  0  0  0  0  0  0  0  0
   -0.8458    1.0833    0.0000 C   0  0  0  0  0  0  0  0  0  0  0  0
    0.6792    0.2000    0.0000 C   0  0  0  0  0  0  0  0  0  0  0  0
   -0.3458    1.3833    0.0000 O   0  0  0  0  0  0  0  0  0  0  0  0
    1.6792    0.2000    0.0000 C   0  0  0  0  0  0  0  0  0  0  0  0
   -2.8458    0.5208    0.0000 C   0  0  0  0  0  0  0  0  0  0  0  0
    1.1792    0.5000    0.0000 C   0  0  0  0  0  0  0  0  0  0  0  0
   -1.3458    1.3833    0.0000 C   0  0  0  0  0  0  0  0  0  0  0  0
   -1.3458    0.2000    0.0000 C   0  0  0  0  0  0  0  0  0  0  0  0
    1.6792   -0.3542    0.0000 C   0  0  0  0  0  0  0  0  0  0  0  0
   -2.3458    1.4000    0.0000 O   0  0  0  0  0  0  0  0  0  0  0  0
   -2.8458    1.1208    0.0000 C   0  0  3  0  0  0  0  0  0  0  0  0
   -0.3458   -0.3792    0.0000 O   0  0  0  0  0  0  0  0  0  0  0  0
   -1.8458    1.0833    0.0000 C   0  0  0  0  0  0  0  0  0  0  0  0
    2.1792    0.5000    0.0000 O   0  0  0  0  0  0  0  0  0  0  0  0
    0.6792   -0.3542    0.0000 C   0  0  0  0  0  0  0  0  0  0  0  0
    2.1792   -0.6542    0.0000 O   0  0  0  0  0  0  0  0  0  0  0  0
   -3.3458    0.2458    0.0000 O   0  0  0  0  0  0  0  0  0  0  0  0
    1.1792   -0.6542    0.0000 C   0  0  0  0  0  0  0  0  0  0  0  0
   -1.8458    0.5000    0.0000 C   0  0  0  0  0  0  0  0  0  0  0  0
   -2.3458    0.2458    0.0000 O   0  0  0  0  0  0  0  0  0  0  0  0
    2.6792    0.2125    0.0000 C   0  0  0  0  0  0  0  0  0  0  0  0
    2.6792   -0.3667    0.0000 C   0  0  0  0  0  0  0  0  0  0  0  0
   -3.3458    1.4000    0.0000 C   0  0  0  0  0  0  0  0  0  0  0  0
   -2.3458   -0.3375    0.0000 C   0  0  0  0  0  0  0  0  0  0  0  0
  2  1  1  0  0  0  0
  3  2  1  0  0  0  0
  4  1  2  0  0  0  0
  5  7  1  0  0  0  0
  6  1  1  0  0  0  0
  7  4  1  0  0  0  0
  8 10  1  0  0  0  0
  9 15  1  0  0  0  0
 10  6  2  0  0  0  0
 11  5  1  0  0  0  0
 12  3  1  0  0  0  0
 13 22  1  0  0  0  0
 14 17  1  0  0  0  0
 15 14  1  0  0  0  0
 16  2  2  0  0  0  0
 17 11  2  0  0  0  0
 18  8  1  0  0  0  0
 19  6  1  0  0  0  0
 20 13  1  0  0  0  0
 21  9  2  0  0  0  0
 22 19  2  0  0  0  0
 23 12  2  0  0  0  0
 24  9  1  0  0  0  0
 25 18  1  0  0  0  0
 26 20  1  0  0  0  0
 27 15  1  0  0  0  0
 28 24  1  0  0  0  0
  3  5  2  0  0  0  0
 13  8  2  0  0  0  0
 23 17  1  0  0  0  0
 25 26  1  0  0  0  0
M  END
> <IDNUMBER>
F0196-0692

> <Chemical_Name>
methyl 2-{[3-(2,3-dihydro-1,4-benzodioxin-6-yl)-4-oxo-4H-chromen-7-yl]oxy}propanoate

> <CAS>
227094-78-2

> <PriceCoeff>
1.00

> <MW>
382.36

> <Description>
solid

> <FSP3>
0.24

> <clogP>
2.94

> <TPSA>
80.29

> <Acceptor>
7

> <Donor>
0

> <RotBonds>
5

> <HAC>
28

> <Collection>
General

> <Reference_compound>
CHEMBL455048

> <Similarity>
0.8130

$$$$
F2738-2743
  -ISIS-  06222321152D

 34 38  0  0  0  0  0  0  0  0999 V2000
   -3.1500    3.3958    0.0000 C   0  0  0  0  0  0  0  0  0  0  0  0
   -3.8708    3.8000    0.0000 N   0  0  3  0  0  0  0  0  0  0  0  0
   -2.4083    3.7333    0.0000 N   0  0  0  0  0  0  0  0  0  0  0  0
   -4.5958    0.1000    0.0000 N   0  0  3  0  0  0  0  0  0  0  0  0
   -3.0625    2.5833    0.0000 S   0  0  0  0  0  0  0  0  0  0  0  0
   -4.5833    3.3958    0.0000 C   0  0  0  0  0  0  0  0  0  0  0  0
   -1.8500    3.1250    0.0000 C   0  0  0  0  0  0  0  0  0  0  0  0
   -2.2583    2.4083    0.0000 C   0  0  0  0  0  0  0  0  0  0  0  0
   -5.2250   -0.4042    0.0000 C   0  0  0  0  0  0  0  0  0  0  0  0
   -3.9083   -0.3542    0.0000 C   0  0  0  0  0  0  0  0  0  0  0  0
   -4.5958    0.9250    0.0000 C   0  0  0  0  0  0  0  0  0  0  0  0
   -1.0250    3.1333    0.0000 C   0  0  0  0  0  0  0  0  0  0  0  0
   -1.8458    1.7000    0.0000 C   0  0  0  0  0  0  0  0  0  0  0  0
   -3.8708    4.6042    0.0000 C   0  0  0  0  0  0  0  0  0  0  0  0
   -4.5833    2.5708    0.0000 C   0  0  0  0  0  0  0  0  0  0  0  0
   -1.0208    1.7000    0.0000 C   0  0  0  0  0  0  0  0  0  0  0  0
   -0.6208    2.4208    0.0000 C   0  0  0  0  0  0  0  0  0  0  0  0
   -5.2958    3.7958    0.0000 O   0  0  0  0  0  0  0  0  0  0  0  0
   -4.9458   -1.1750    0.0000 C   0  0  0  0  0  0  0  0  0  0  0  0
   -4.1458   -1.1500    0.0000 C   0  0  0  0  0  0  0  0  0  0  0  0
   -6.0167   -0.1792    0.0000 O   0  0  0  0  0  0  0  0  0  0  0  0
   -3.1250   -0.0750    0.0000 O   0  0  0  0  0  0  0  0  0  0  0  0
   -2.3958    4.6167    0.0000 N   0  0  0  0  0  0  0  0  0  0  0  0
   -3.8625    1.3333    0.0000 C   0  0  0  0  0  0  0  0  0  0  0  0
   -5.2875    1.3375    0.0000 C   0  0  0  0  0  0  0  0  0  0  0  0
   -5.2875    2.1625    0.0000 C   0  0  0  0  0  0  0  0  0  0  0  0
   -3.8625    2.1583    0.0000 C   0  0  0  0  0  0  0  0  0  0  0  0
   -3.1583    5.0250    0.0000 C   0  0  0  0  0  0  0  0  0  0  0  0
    0.2042    2.4208    0.0000 C   0  0  0  0  0  0  0  0  0  0  0  0
   -0.6458    0.9708    0.0000 C   0  0  0  0  0  0  0  0  0  0  0  0
   -1.7458    5.0292    0.0000 C   0  0  0  0  0  0  0  0  0  0  0  0
   -3.1708    5.8417    0.0000 C   0  0  0  0  0  0  0  0  0  0  0  0
   -1.7458    5.8417    0.0000 C   0  0  0  0  0  0  0  0  0  0  0  0
   -2.4625    6.2542    0.0000 C   0  0  0  0  0  0  0  0  0  0  0  0
  2  1  1  0  0  0  0
  3  1  2  0  0  0  0
  4 11  1  0  0  0  0
  5  1  1  0  0  0  0
  6  2  1  0  0  0  0
  7  3  1  0  0  0  0
  8  5  1  0  0  0  0
  9  4  1  0  0  0  0
 10  4  1  0  0  0  0
 11 24  1  0  0  0  0
 12  7  1  0  0  0  0
 13  8  1  0  0  0  0
 14  2  1  0  0  0  0
 15  6  1  0  0  0  0
 16 13  2  0  0  0  0
 17 12  2  0  0  0  0
 18  6  2  0  0  0  0
 19  9  1  0  0  0  0
 20 10  1  0  0  0  0
 21  9  2  0  0  0  0
 22 10  2  0  0  0  0
 23 28  2  0  0  0  0
 24 27  2  0  0  0  0
 25 26  1  0  0  0  0
 26 15  2  0  0  0  0
 27 15  1  0  0  0  0
 28 14  1  0  0  0  0
 29 17  1  0  0  0  0
 30 16  1  0  0  0  0
 31 23  1  0  0  0  0
 32 28  1  0  0  0  0
 33 34  1  0  0  0  0
 34 32  2  0  0  0  0
  8  7  2  0  0  0  0
 17 16  1  0  0  0  0
 11 25  2  0  0  0  0
 33 31  2  0  0  0  0
 20 19  1  0  0  0  0
M  END
> <IDNUMBER>
F2738-2743

> <Chemical_Name>
N-(5,6-dimethyl-1,3-benzothiazol-2-yl)-4-(2,5-dioxopyrrolidin-1-yl)-N-[(pyridin-2-yl)methyl]benzamide

> <CAS>
923067-00-9

> <PriceCoeff>
1.00

> <MW>
470.54

> <Description>
solid

> <FSP3>
0.19

> <clogP>
2.75

> <TPSA>
111.71

> <Acceptor>
5

> <Donor>
1

> <RotBonds>
6

> <HAC>
34

> <Collection>
General

$$$$
F3023-0949
  -ISIS-  06222321152D

 28 30  0  0  0  0  0  0  0  0999 V2000
    4.8167   -6.4042    0.0000 N   0  0  3  0  0  0  0  0  0  0  0  0
    5.2375   -5.8292    0.0000 C   0  0  0  0  0  0  0  0  0  0  0  0
    5.2417   -6.9750    0.0000 C   0  0  0  0  0  0  0  0  0  0  0  0
    5.9167   -6.7542    0.0000 C   0  0  3  0  0  0  0  0  0  0  0  0
    5.9125   -6.0417    0.0000 C   0  0  0  0  0  0  0  0  0  0  0  0
    6.4875   -7.1667    0.0000 N   0  0  0  0  0  0  0  0  0  0  0  0
    4.1125   -6.4042    0.0000 C   0  0  0  0  0  0  0  0  0  0  0  0
    1.9917   -6.4167    0.0000 C   0  0  0  0  0  0  0  0  0  0  0  0
    5.0125   -5.1542    0.0000 O   0  0  0  0  0  0  0  0  0  0  0  0
    5.0292   -7.6500    0.0000 O   0  0  0  0  0  0  0  0  0  0  0  0
    2.7000   -6.4167    0.0000 C   0  0  0  0  0  0  0  0  0  0  0  0
    8.4292   -6.3042    0.0000 C   0  0  0  0  0  0  0  0  0  0  0  0
    9.0792   -6.0125    0.0000 N   0  0  3  0  0  0  0  0  0  0  0  0
    1.6375   -7.0417    0.0000 O   0  0  0  0  0  0  0  0  0  0  0  0
    3.7542   -5.7917    0.0000 C   0  0  0  0  0  0  0  0  0  0  0  0
    3.7667   -7.0250    0.0000 C   0  0  0  0  0  0  0  0  0  0  0  0
    3.0625   -7.0292    0.0000 C   0  0  0  0  0  0  0  0  0  0  0  0
    3.0500   -5.8000    0.0000 C   0  0  0  0  0  0  0  0  0  0  0  0
    7.1375   -6.8792    0.0000 C   0  0  0  0  0  0  0  0  0  0  0  0
    8.3542   -7.0042    0.0000 C   0  0  0  0  0  0  0  0  0  0  0  0
    7.8500   -5.8875    0.0000 C   0  0  0  0  0  0  0  0  0  0  0  0
    1.6292   -5.8125    0.0000 O   0  0  0  0  0  0  0  0  0  0  0  0
    7.2042   -6.1750    0.0000 C   0  0  0  0  0  0  0  0  0  0  0  0
    7.7042   -7.2917    0.0000 C   0  0  0  0  0  0  0  0  0  0  0  0
    9.6542   -6.4292    0.0000 C   0  0  0  0  0  0  0  0  0  0  0  0
    9.1500   -5.3042    0.0000 C   0  0  0  0  0  0  0  0  0  0  0  0
    1.9750   -5.1917    0.0000 C   0  0  0  0  0  0  0  0  0  0  0  0
    1.6125   -4.5792    0.0000 C   0  0  0  0  0  0  0  0  0  0  0  0
  2  1  1  0  0  0  0
  3  1  1  0  0  0  0
  4  3  1  0  0  0  0
  5  2  1  0  0  0  0
  6  4  1  0  0  0  0
  7  1  1  0  0  0  0
  8 11  1  0  0  0  0
  9  2  2  0  0  0  0
 10  3  2  0  0  0  0
 11 17  1  0  0  0  0
 12 20  2  0  0  0  0
 13 12  1  0  0  0  0
 14  8  2  0  0  0  0
 15  7  2  0  0  0  0
 16  7  1  0  0  0  0
 17 16  2  0  0  0  0
 18 15  1  0  0  0  0
 19  6  1  0  0  0  0
 20 24  1  0  0  0  0
 21 23  2  0  0  0  0
 22  8  1  0  0  0  0
 23 19  1  0  0  0  0
 24 19  2  0  0  0  0
 25 13  1  0  0  0  0
 26 13  1  0  0  0  0
 27 22  1  0  0  0  0
 28 27  1  0  0  0  0
  5  4  1  0  0  0  0
 11 18  2  0  0  0  0
 21 12  1  0  0  0  0
M  END
> <IDNUMBER>
F3023-0949

> <Chemical_Name>
ethyl 4-(3-{[4-(dimethylamino)phenyl]amino}-2,5-dioxopyrrolidin-1-yl)benzoate

> <CAS>
1009524-59-7

> <PriceCoeff>
1.00

> <MW>
381.43

> <Description>
solid

> <FSP3>
0.29

> <clogP>
3.66

> <TPSA>
78.95

> <Acceptor>
6

> <Donor>
2

> <RotBonds>
7

> <HAC>
28

> <Collection>
General

$$$$
F1318-0190
  -ISIS-  06222321142D

 21 22  0  0  0  0  0  0  0  0999 V2000
    6.9500   -5.2250    0.0000 C   0  0  0  0  0  0  0  0  0  0  0  0
    3.2292   -5.9292    0.0000 C   0  0  0  0  0  0  0  0  0  0  0  0
    6.5250   -5.9292    0.0000 O   0  0  0  0  0  0  0  0  0  0  0  0
    7.7750   -5.2250    0.0000 N   0  0  3  0  0  0  0  0  0  0  0  0
    4.0542   -5.9292    0.0000 C   0  0  0  0  0  0  0  0  0  0  0  0
    2.8167   -5.2167    0.0000 C   0  0  0  0  0  0  0  0  0  0  0  0
    6.5250   -4.5000    0.0000 O   0  0  0  0  0  0  0  0  0  0  0  0
    2.8417   -6.6375    0.0000 O   0  0  0  0  0  0  0  0  0  0  0  0
    4.4667   -6.6500    0.0000 C   0  0  0  0  0  0  0  0  0  0  0  0
    4.4667   -5.2042    0.0000 C   0  0  0  0  0  0  0  0  0  0  0  0
    3.2292   -4.5000    0.0000 C   0  0  0  0  0  0  0  0  0  0  0  0
    2.0000   -5.2167    0.0000 C   0  0  0  0  0  0  0  0  0  0  0  0
    5.7042   -5.9292    0.0000 C   0  0  0  0  0  0  0  0  0  0  0  0
    1.9917   -3.7917    0.0000 C   0  0  0  0  0  0  0  0  0  0  0  0
    5.2875   -5.2042    0.0000 C   0  0  0  0  0  0  0  0  0  0  0  0
    5.2875   -6.6500    0.0000 C   0  0  0  0  0  0  0  0  0  0  0  0
    1.5875   -4.5042    0.0000 C   0  0  0  0  0  0  0  0  0  0  0  0
    2.8167   -3.7875    0.0000 C   0  0  0  0  0  0  0  0  0  0  0  0
    1.5792   -3.0750    0.0000 Cl  0  0  0  0  0  0  0  0  0  0  0  0
    8.1875   -4.5000    0.0000 C   0  0  0  0  0  0  0  0  0  0  0  0
    8.2000   -5.9417    0.0000 C   0  0  0  0  0  0  0  0  0  0  0  0
  2  5  1  0  0  0  0
  3  1  1  0  0  0  0
  4  1  1  0  0  0  0
  5  9  1  0  0  0  0
  6  2  1  0  0  0  0
  7  1  2  0  0  0  0
  8  2  2  0  0  0  0
  9 16  2  0  0  0  0
 10 15  1  0  0  0  0
 11  6  2  0  0  0  0
 12  6  1  0  0  0  0
 13  3  1  0  0  0  0
 14 17  1  0  0  0  0
 15 13  2  0  0  0  0
 16 13  1  0  0  0  0
 17 12  2  0  0  0  0
 18 11  1  0  0  0  0
 19 14  1  0  0  0  0
 20  4  1  0  0  0  0
 21  4  1  0  0  0  0
 10  5  2  0  0  0  0
 14 18  2  0  0  0  0
M  END
> <IDNUMBER>
F1318-0190

> <Chemical_Name>
4-(4-chlorobenzoyl)phenyl N,N-dimethylcarbamate

> <CAS>
103060-05-5

> <PriceCoeff>
1.00

> <MW>
303.74

> <Description>
solid

> <FSP3>
0.12

> <clogP>
3.52

> <TPSA>
46.61

> <Acceptor>
3

> <Donor>
0

> <RotBonds>
5

> <HAC>
21

> <Collection>
General

> <Reference_compound>
CHEMBL2288667

> <Similarity>
0.8230

$$$$
F2738-1654
  -ISIS-  06222321152D

 34 38  0  0  0  0  0  0  0  0999 V2000
   -3.1583    3.3958    0.0000 C   0  0  0  0  0  0  0  0  0  0  0  0
   -2.4083    3.7333    0.0000 N   0  0  0  0  0  0  0  0  0  0  0  0
   -3.8708    3.8000    0.0000 N   0  0  3  0  0  0  0  0  0  0  0  0
   -4.5958    0.1000    0.0000 N   0  0  3  0  0  0  0  0  0  0  0  0
   -1.8583    3.1208    0.0000 C   0  0  0  0  0  0  0  0  0  0  0  0
   -3.0750    2.5833    0.0000 S   0  0  0  0  0  0  0  0  0  0  0  0
   -4.5833    3.3958    0.0000 C   0  0  0  0  0  0  0  0  0  0  0  0
   -2.2625    2.4083    0.0000 C   0  0  0  0  0  0  0  0  0  0  0  0
   -5.2250   -0.4042    0.0000 C   0  0  0  0  0  0  0  0  0  0  0  0
   -3.9083   -0.3542    0.0000 C   0  0  0  0  0  0  0  0  0  0  0  0
   -1.0333    3.1208    0.0000 C   0  0  0  0  0  0  0  0  0  0  0  0
   -1.8500    1.6958    0.0000 C   0  0  0  0  0  0  0  0  0  0  0  0
   -4.5958    0.9250    0.0000 C   0  0  0  0  0  0  0  0  0  0  0  0
   -0.6333    2.4083    0.0000 C   0  0  0  0  0  0  0  0  0  0  0  0
   -3.8708    4.6042    0.0000 C   0  0  0  0  0  0  0  0  0  0  0  0
   -4.5833    2.5708    0.0000 C   0  0  0  0  0  0  0  0  0  0  0  0
   -1.0333    1.6958    0.0000 C   0  0  0  0  0  0  0  0  0  0  0  0
   -5.2958    3.7958    0.0000 O   0  0  0  0  0  0  0  0  0  0  0  0
   -4.9458   -1.1750    0.0000 C   0  0  0  0  0  0  0  0  0  0  0  0
   -4.1458   -1.1500    0.0000 C   0  0  0  0  0  0  0  0  0  0  0  0
   -6.0167   -0.1792    0.0000 O   0  0  0  0  0  0  0  0  0  0  0  0
   -3.1250   -0.0750    0.0000 O   0  0  0  0  0  0  0  0  0  0  0  0
   -2.4583    4.6042    0.0000 N   0  0  0  0  0  0  0  0  0  0  0  0
   -3.8625    1.3333    0.0000 C   0  0  0  0  0  0  0  0  0  0  0  0
   -5.2875    1.3375    0.0000 C   0  0  0  0  0  0  0  0  0  0  0  0
   -5.2875    2.1625    0.0000 C   0  0  0  0  0  0  0  0  0  0  0  0
   -3.8625    2.1583    0.0000 C   0  0  0  0  0  0  0  0  0  0  0  0
   -3.1583    5.0167    0.0000 C   0  0  0  0  0  0  0  0  0  0  0  0
   -0.6125    3.8375    0.0000 F   0  0  0  0  0  0  0  0  0  0  0  0
   -0.6250    0.9833    0.0000 F   0  0  0  0  0  0  0  0  0  0  0  0
   -1.7458    5.0167    0.0000 C   0  0  0  0  0  0  0  0  0  0  0  0
   -3.1625    5.8417    0.0000 C   0  0  0  0  0  0  0  0  0  0  0  0
   -1.7375    5.8417    0.0000 C   0  0  0  0  0  0  0  0  0  0  0  0
   -2.4583    6.2542    0.0000 C   0  0  0  0  0  0  0  0  0  0  0  0
  2  1  2  0  0  0  0
  3  1  1  0  0  0  0
  4 13  1  0  0  0  0
  5  2  1  0  0  0  0
  6  1  1  0  0  0  0
  7  3  1  0  0  0  0
  8  6  1  0  0  0  0
  9  4  1  0  0  0  0
 10  4  1  0  0  0  0
 11  5  1  0  0  0  0
 12  8  1  0  0  0  0
 13 24  1  0  0  0  0
 14 11  2  0  0  0  0
 15  3  1  0  0  0  0
 16  7  1  0  0  0  0
 17 12  2  0  0  0  0
 18  7  2  0  0  0  0
 19  9  1  0  0  0  0
 20 10  1  0  0  0  0
 21  9  2  0  0  0  0
 22 10  2  0  0  0  0
 23 28  2  0  0  0  0
 24 27  2  0  0  0  0
 25 26  1  0  0  0  0
 26 16  2  0  0  0  0
 27 16  1  0  0  0  0
 28 15  1  0  0  0  0
 29 11  1  0  0  0  0
 30 17  1  0  0  0  0
 31 23  1  0  0  0  0
 32 28  1  0  0  0  0
 33 34  1  0  0  0  0
 34 32  2  0  0  0  0
  8  5  2  0  0  0  0
 14 17  1  0  0  0  0
 13 25  2  0  0  0  0
 33 31  2  0  0  0  0
 20 19  1  0  0  0  0
M  END
> <IDNUMBER>
F2738-1654

> <Chemical_Name>
N-(4,6-difluoro-1,3-benzothiazol-2-yl)-4-(2,5-dioxopyrrolidin-1-yl)-N-[(pyridin-2-yl)methyl]benzamide

> <CAS>
922939-99-9

> <PriceCoeff>
1.00

> <MW>
478.47

> <Description>
solid

> <FSP3>
0.12

> <clogP>
2.13

> <TPSA>
111.71

> <Acceptor>
5

> <Donor>
1

> <RotBonds>
6

> <HAC>
34

> <Collection>
General

$$$$
F2040-0025
  -ISIS-  06222321142D

 26 28  0  0  0  0  0  0  0  0999 V2000
   -3.0375    7.5250    0.0000 N   0  0  3  0  0  0  0  0  0  0  0  0
   -3.7708    0.4875    0.0000 N   0  3  0  0  0  0  0  0  0  0  0  0
   -3.7708    2.9833    0.0000 C   0  0  0  0  0  0  0  0  0  0  0  0
   -3.7583    3.8000    0.0000 C   0  0  0  0  0  0  0  0  0  0  0  0
   -3.0458    6.6917    0.0000 C   0  0  0  0  0  0  0  0  0  0  0  0
   -3.0375    2.5583    0.0000 C   0  0  0  0  0  0  0  0  0  0  0  0
   -3.7625    1.3125    0.0000 C   0  0  0  0  0  0  0  0  0  0  0  0
   -3.7583    7.9417    0.0000 C   0  0  0  0  0  0  0  0  0  0  0  0
   -3.0375    1.7250    0.0000 C   0  0  0  0  0  0  0  0  0  0  0  0
   -3.0458    4.2125    0.0000 N   0  0  0  0  0  0  0  0  0  0  0  0
   -2.3250    6.2750    0.0000 C   0  0  0  0  0  0  0  0  0  0  0  0
   -4.4833    2.5625    0.0000 C   0  0  0  0  0  0  0  0  0  0  0  0
   -3.7625    6.2792    0.0000 C   0  0  0  0  0  0  0  0  0  0  0  0
   -4.4833    0.0833    0.0000 O   0  5  0  0  0  0  0  0  0  0  0  0
   -3.0583    0.0750    0.0000 O   0  0  0  0  0  0  0  0  0  0  0  0
   -3.0458    5.0292    0.0000 C   0  0  0  0  0  0  0  0  0  0  0  0
   -2.3250    5.4500    0.0000 C   0  0  0  0  0  0  0  0  0  0  0  0
   -4.4750    4.2042    0.0000 O   0  0  0  0  0  0  0  0  0  0  0  0
   -4.4833    1.7333    0.0000 C   0  0  0  0  0  0  0  0  0  0  0  0
   -4.4833    7.5292    0.0000 O   0  0  0  0  0  0  0  0  0  0  0  0
   -2.3208    2.9625    0.0000 Cl  0  0  0  0  0  0  0  0  0  0  0  0
   -3.7583    5.4542    0.0000 C   0  0  0  0  0  0  0  0  0  0  0  0
   -2.3125    7.9292    0.0000 C   0  0  0  0  0  0  0  0  0  0  0  0
   -1.6083    6.6875    0.0000 C   0  0  0  0  0  0  0  0  0  0  0  0
   -3.7458    8.7750    0.0000 C   0  0  0  0  0  0  0  0  0  0  0  0
   -1.6000    7.5125    0.0000 C   0  0  0  0  0  0  0  0  0  0  0  0
  2  7  1  0  0  0  0
  3  4  1  0  0  0  0
  4 10  1  0  0  0  0
  5  1  1  0  0  0  0
  6  3  1  0  0  0  0
  7 19  2  0  0  0  0
  8  1  1  0  0  0  0
  9  6  2  0  0  0  0
 10 16  1  0  0  0  0
 11  5  2  0  0  0  0
 12  3  2  0  0  0  0
 13  5  1  0  0  0  0
 14  2  1  0  0  0  0
 15  2  2  0  0  0  0
 16 22  1  0  0  0  0
 17 11  1  0  0  0  0
 18  4  2  0  0  0  0
 19 12  1  0  0  0  0
 20  8  2  0  0  0  0
 21  6  1  0  0  0  0
 22 13  2  0  0  0  0
 23  1  1  0  0  0  0
 24 26  1  0  0  0  0
 25  8  1  0  0  0  0
 26 23  1  0  0  0  0
 11 24  1  0  0  0  0
 16 17  2  0  0  0  0
  7  9  1  0  0  0  0
M  CHG  2   2   1  14  -1
M  END
> <IDNUMBER>
F2040-0025

> <Chemical_Name>
N-(1-acetyl-1,2,3,4-tetrahydroquinolin-6-yl)-2-chloro-4-nitrobenzamide

> <CAS>
941900-02-3

> <PriceCoeff>
1.00

> <MW>
373.79

> <Description>
solid

> <FSP3>
0.22

> <clogP>
2.41

> <TPSA>
92.55

> <Acceptor>
4

> <Donor>
1

> <RotBonds>
4

> <HAC>
26

> <Collection>
General

$$$$
F0827-0102
  -ISIS-  06222321442D

 18 20  0  0  0  0  0  0  0  0999 V2000
   -2.3125    0.6625    0.0000 N   0  0  3  0  0  0  0  0  0  0  0  0
   -1.4208    0.7125    0.0000 N   0  0  3  0  0  0  0  0  0  0  0  0
   -2.8500   -0.1167    0.0000 C   0  0  0  0  0  0  0  0  0  0  0  0
   -2.8708    1.3708    0.0000 C   0  0  0  0  0  0  0  0  0  0  0  0
   -0.8625    0.0208    0.0000 C   0  0  0  0  0  0  0  0  0  0  0  0
   -0.9208    1.4708    0.0000 C   0  0  0  0  0  0  0  0  0  0  0  0
   -3.7458    0.1625    0.0000 C   0  0  0  0  0  0  0  0  0  0  0  0
   -3.7458    1.1000    0.0000 C   0  0  0  0  0  0  0  0  0  0  0  0
    0.0000    0.3500    0.0000 S   0  0  0  0  0  0  0  0  0  0  0  0
   -0.0625    1.2333    0.0000 C   0  0  0  0  0  0  0  0  0  0  0  0
   -2.3833   -0.5792    0.0000 O   0  0  0  0  0  0  0  0  0  0  0  0
   -2.6000    2.0708    0.0000 O   0  0  0  0  0  0  0  0  0  0  0  0
   -1.0208   -0.7792    0.0000 S   0  0  0  0  0  0  0  0  0  0  0  0
   -1.1500    2.2708    0.0000 O   0  0  0  0  0  0  0  0  0  0  0  0
   -4.5500    1.5708    0.0000 C   0  0  0  0  0  0  0  0  0  0  0  0
   -4.5500   -0.3042    0.0000 C   0  0  0  0  0  0  0  0  0  0  0  0
   -5.3625    0.1625    0.0000 C   0  0  0  0  0  0  0  0  0  0  0  0
   -5.3625    1.1000    0.0000 C   0  0  0  0  0  0  0  0  0  0  0  0
  2  1  1  0  0  0  0
  3  1  1  0  0  0  0
  4  1  1  0  0  0  0
  5  2  1  0  0  0  0
  6  2  1  0  0  0  0
  7  3  1  0  0  0  0
  8  4  1  0  0  0  0
  9  5  1  0  0  0  0
 10  6  1  0  0  0  0
 11  3  2  0  0  0  0
 12  4  2  0  0  0  0
 13  5  2  0  0  0  0
 14  6  2  0  0  0  0
 15  8  1  0  0  0  0
 16  7  1  0  0  0  0
 17 16  2  0  0  0  0
 18 15  2  0  0  0  0
  8  7  2  0  0  0  0
 10  9  1  0  0  0  0
 18 17  1  0  0  0  0
M  END
> <IDNUMBER>
F0827-0102

> <Chemical_Name>
2-(4-oxo-2-sulfanylidene-1,3-thiazolidin-3-yl)-2,3-dihydro-1H-isoindole-1,3-dione

> <CAS>
182558-48-1

> <PriceCoeff>
1.00

> <MW>
278.31

> <Description>
solid

> <FSP3>
0.09

> <clogP>
0.57

> <TPSA>
115.08

> <Acceptor>
4

> <Donor>
0

> <RotBonds>
1

> <HAC>
18

> <Collection>
General

> <Reference_compound>
CHEMBL2268839

> <Similarity>
0.8210

$$$$
F0745-0119
  -ISIS-  06222321452D

 22 23  0  0  0  0  0  0  0  0999 V2000
   -0.5125   -0.2042    0.0000 N   0  0  3  0  0  0  0  0  0  0  0  0
   -0.7333    0.3958    0.0000 C   0  0  0  0  0  0  0  0  0  0  0  0
    0.1042   -0.3042    0.0000 N   0  0  0  0  0  0  0  0  0  0  0  0
   -1.0125   -0.6000    0.0000 C   0  0  0  0  0  0  0  0  0  0  0  0
    0.3500   -0.9500    0.0000 C   0  0  0  0  0  0  0  0  0  0  0  0
   -1.3958    0.3708    0.0000 S   0  0  0  0  0  0  0  0  0  0  0  0
    1.0000   -1.0500    0.0000 C   0  0  0  0  0  0  0  0  0  0  0  0
    2.2500   -1.3500    0.0000 C   0  0  0  0  0  0  0  0  0  0  0  0
    2.0500   -0.7000    0.0000 C   0  0  0  0  0  0  0  0  0  0  0  0
    1.8042   -1.8000    0.0000 C   0  0  0  0  0  0  0  0  0  0  0  0
    1.2000   -1.6500    0.0000 C   0  0  0  0  0  0  0  0  0  0  0  0
    1.4042   -0.5667    0.0000 C   0  0  0  0  0  0  0  0  0  0  0  0
   -1.5500   -0.2500    0.0000 C   0  0  0  0  0  0  0  0  0  0  0  0
   -0.3708    0.9500    0.0000 S   0  0  0  0  0  0  0  0  0  0  0  0
   -1.0125   -1.2500    0.0000 O   0  0  0  0  0  0  0  0  0  0  0  0
   -0.0708   -1.4500    0.0000 O   0  0  0  0  0  0  0  0  0  0  0  0
    2.9000   -1.5000    0.0000 O   0  0  0  0  0  0  0  0  0  0  0  0
    2.4417   -0.2000    0.0000 O   0  0  0  0  0  0  0  0  0  0  0  0
    2.0042   -2.4042    0.0000 O   0  0  0  0  0  0  0  0  0  0  0  0
    3.3500   -1.0042    0.0000 C   0  0  0  0  0  0  0  0  0  0  0  0
    3.1000   -0.3042    0.0000 C   0  0  0  0  0  0  0  0  0  0  0  0
    1.6000   -2.9000    0.0000 C   0  0  0  0  0  0  0  0  0  0  0  0
  2  1  1  0  0  0  0
  3  1  1  0  0  0  0
  4  1  1  0  0  0  0
  5  3  1  0  0  0  0
  6  2  1  0  0  0  0
  7  5  1  0  0  0  0
  8  9  1  0  0  0  0
  9 12  2  0  0  0  0
 10 11  1  0  0  0  0
 11  7  2  0  0  0  0
 12  7  1  0  0  0  0
 13  4  1  0  0  0  0
 14  2  2  0  0  0  0
 15  4  2  0  0  0  0
 16  5  2  0  0  0  0
 17  8  1  0  0  0  0
 18  9  1  0  0  0  0
 19 10  1  0  0  0  0
 20 17  1  0  0  0  0
 21 18  1  0  0  0  0
 22 19  1  0  0  0  0
  6 13  1  0  0  0  0
 10  8  2  0  0  0  0
M  END
> <IDNUMBER>
F0745-0119

> <Chemical_Name>
3,4,5-trimethoxy-N-(4-oxo-2-sulfanylidene-1,3-thiazolidin-3-yl)benzamide

> <CAS>
67572-50-3

> <PriceCoeff>
1.00

> <MW>
342.39

> <Description>
solid

> <FSP3>
0.31

> <clogP>
0.10

> <TPSA>
134.49

> <Acceptor>
6

> <Donor>
1

> <RotBonds>
5

> <HAC>
22

> <Collection>
General

> <Reference_compound>
CHEMBL2268839

> <Similarity>
0.8080

$$$$
F2590-0745
  -ISIS-  06222321462D

 29 31  0  0  0  0  0  0  0  0999 V2000
   -3.8500    2.9833    0.0000 C   0  0  0  0  0  0  0  0  0  0  0  0
   -4.5208    2.5000    0.0000 C   0  0  0  0  0  0  0  0  0  0  0  0
   -3.1958    2.4958    0.0000 S   0  0  0  0  0  0  0  0  0  0  0  0
   -3.4583    1.7208    0.0000 C   0  0  0  0  0  0  0  0  0  0  0  0
   -4.2708    1.7208    0.0000 C   0  0  0  0  0  0  0  0  0  0  0  0
   -3.1333    7.4917    0.0000 N   0  0  3  0  0  0  0  0  0  0  0  0
   -3.8500    3.8000    0.0000 N   0  0  0  0  0  0  0  0  0  0  0  0
   -3.1375    4.2042    0.0000 C   0  0  0  0  0  0  0  0  0  0  0  0
   -2.5000    8.0042    0.0000 C   0  0  0  0  0  0  0  0  0  0  0  0
   -3.8208    7.9500    0.0000 C   0  0  0  0  0  0  0  0  0  0  0  0
   -2.9833    1.0583    0.0000 C   0  0  0  0  0  0  0  0  0  0  0  0
   -5.3083    2.7708    0.0000 C   0  0  0  0  0  0  0  0  0  0  0  0
   -6.0792    3.0250    0.0000 N   0  0  0  0  0  0  0  0  0  0  0  0
   -3.1333    6.6750    0.0000 C   0  0  0  0  0  0  0  0  0  0  0  0
   -3.1375    5.0292    0.0000 C   0  0  0  0  0  0  0  0  0  0  0  0
   -2.4333    3.8083    0.0000 O   0  0  0  0  0  0  0  0  0  0  0  0
   -3.5958    8.7417    0.0000 C   0  0  0  0  0  0  0  0  0  0  0  0
   -2.7833    8.7667    0.0000 C   0  0  0  0  0  0  0  0  0  0  0  0
   -4.6000    7.6667    0.0000 O   0  0  0  0  0  0  0  0  0  0  0  0
   -1.7083    7.7792    0.0000 O   0  0  0  0  0  0  0  0  0  0  0  0
   -2.1583    1.1333    0.0000 O   0  0  0  0  0  0  0  0  0  0  0  0
   -3.8583    6.2625    0.0000 C   0  0  0  0  0  0  0  0  0  0  0  0
   -2.4333    6.2625    0.0000 C   0  0  0  0  0  0  0  0  0  0  0  0
   -2.4375    5.4375    0.0000 C   0  0  0  0  0  0  0  0  0  0  0  0
   -3.8583    5.4375    0.0000 C   0  0  0  0  0  0  0  0  0  0  0  0
   -3.3083    0.3000    0.0000 O   0  0  0  0  0  0  0  0  0  0  0  0
   -4.7583    1.0583    0.0000 C   0  0  0  0  0  0  0  0  0  0  0  0
   -2.6500   -0.1917    0.0000 C   0  0  0  0  0  0  0  0  0  0  0  0
   -2.7458   -1.0042    0.0000 C   0  0  0  0  0  0  0  0  0  0  0  0
  2  1  2  0  0  0  0
  3  1  1  0  0  0  0
  4  3  1  0  0  0  0
  5  2  1  0  0  0  0
  6 14  1  0  0  0  0
  7  1  1  0  0  0  0
  8  7  1  0  0  0  0
  9  6  1  0  0  0  0
 10  6  1  0  0  0  0
 11  4  1  0  0  0  0
 12  2  1  0  0  0  0
 13 12  3  0  0  0  0
 14 22  1  0  0  0  0
 15  8  1  0  0  0  0
 16  8  2  0  0  0  0
 17 10  1  0  0  0  0
 18  9  1  0  0  0  0
 19 10  2  0  0  0  0
 20  9  2  0  0  0  0
 21 11  2  0  0  0  0
 22 25  2  0  0  0  0
 23 24  1  0  0  0  0
 24 15  2  0  0  0  0
 25 15  1  0  0  0  0
 26 11  1  0  0  0  0
 27  5  1  0  0  0  0
 28 26  1  0  0  0  0
 29 28  1  0  0  0  0
  5  4  2  0  0  0  0
 23 14  2  0  0  0  0
 17 18  1  0  0  0  0
M  END
> <IDNUMBER>
F2590-0745

> <Chemical_Name>
ethyl 4-cyano-5-[4-(2,5-dioxopyrrolidin-1-yl)benzamido]-3-methylthiophene-2-carboxylate

> <CAS>
896322-09-1

> <PriceCoeff>
1.00

> <MW>
411.43

> <Description>
solid

> <FSP3>
0.25

> <clogP>
1.13

> <TPSA>
144.81

> <Acceptor>
6

> <Donor>
1

> <RotBonds>
6

> <HAC>
29

> <Collection>
General

$$$$
F2590-0758
  -ISIS-  06222321462D

 29 31  0  0  0  0  0  0  0  0999 V2000
   -3.8500    2.9833    0.0000 C   0  0  0  0  0  0  0  0  0  0  0  0
   -4.5208    2.5000    0.0000 C   0  0  0  0  0  0  0  0  0  0  0  0
   -3.1958    2.4958    0.0000 S   0  0  0  0  0  0  0  0  0  0  0  0
   -3.4583    1.7208    0.0000 C   0  0  0  0  0  0  0  0  0  0  0  0
   -1.7125    6.6667    0.0000 N   0  0  3  0  0  0  0  0  0  0  0  0
   -4.2708    1.7208    0.0000 C   0  0  0  0  0  0  0  0  0  0  0  0
   -3.8500    3.8000    0.0000 N   0  0  0  0  0  0  0  0  0  0  0  0
   -2.4333    6.2542    0.0000 C   0  0  0  0  0  0  0  0  0  0  0  0
   -3.1375    4.2042    0.0000 C   0  0  0  0  0  0  0  0  0  0  0  0
   -0.9833    6.2917    0.0000 C   0  0  0  0  0  0  0  0  0  0  0  0
   -1.6000    7.4667    0.0000 C   0  0  0  0  0  0  0  0  0  0  0  0
   -2.9833    1.0583    0.0000 C   0  0  0  0  0  0  0  0  0  0  0  0
   -5.3083    2.7708    0.0000 C   0  0  0  0  0  0  0  0  0  0  0  0
   -6.0792    3.0250    0.0000 N   0  0  0  0  0  0  0  0  0  0  0  0
   -2.4333    5.4292    0.0000 C   0  0  0  0  0  0  0  0  0  0  0  0
   -3.1375    5.0250    0.0000 C   0  0  0  0  0  0  0  0  0  0  0  0
   -2.4333    3.8083    0.0000 O   0  0  0  0  0  0  0  0  0  0  0  0
   -0.7875    7.6167    0.0000 C   0  0  0  0  0  0  0  0  0  0  0  0
   -0.4083    6.9000    0.0000 C   0  0  0  0  0  0  0  0  0  0  0  0
   -2.1708    8.0542    0.0000 O   0  0  0  0  0  0  0  0  0  0  0  0
   -0.8500    5.4792    0.0000 O   0  0  0  0  0  0  0  0  0  0  0  0
   -2.1583    1.1333    0.0000 O   0  0  0  0  0  0  0  0  0  0  0  0
   -3.3083    0.3000    0.0000 O   0  0  0  0  0  0  0  0  0  0  0  0
   -4.7583    1.0583    0.0000 C   0  0  0  0  0  0  0  0  0  0  0  0
   -3.1333    6.6667    0.0000 C   0  0  0  0  0  0  0  0  0  0  0  0
   -3.8500    5.4292    0.0000 C   0  0  0  0  0  0  0  0  0  0  0  0
   -3.8500    6.2542    0.0000 C   0  0  0  0  0  0  0  0  0  0  0  0
   -2.6500   -0.1917    0.0000 C   0  0  0  0  0  0  0  0  0  0  0  0
   -2.7458   -1.0042    0.0000 C   0  0  0  0  0  0  0  0  0  0  0  0
  2  1  2  0  0  0  0
  3  1  1  0  0  0  0
  4  3  1  0  0  0  0
  5  8  1  0  0  0  0
  6  2  1  0  0  0  0
  7  1  1  0  0  0  0
  8 15  1  0  0  0  0
  9  7  1  0  0  0  0
 10  5  1  0  0  0  0
 11  5  1  0  0  0  0
 12  4  1  0  0  0  0
 13  2  1  0  0  0  0
 14 13  3  0  0  0  0
 15 16  2  0  0  0  0
 16  9  1  0  0  0  0
 17  9  2  0  0  0  0
 18 11  1  0  0  0  0
 19 10  1  0  0  0  0
 20 11  2  0  0  0  0
 21 10  2  0  0  0  0
 22 12  2  0  0  0  0
 23 12  1  0  0  0  0
 24  6  1  0  0  0  0
 25 27  1  0  0  0  0
 26 16  1  0  0  0  0
 27 26  2  0  0  0  0
 28 23  1  0  0  0  0
 29 28  1  0  0  0  0
  6  4  2  0  0  0  0
  8 25  2  0  0  0  0
 18 19  1  0  0  0  0
M  END
> <IDNUMBER>
F2590-0758

> <Chemical_Name>
ethyl 4-cyano-5-[3-(2,5-dioxopyrrolidin-1-yl)benzamido]-3-methylthiophene-2-carboxylate

> <CAS>
896322-37-5

> <PriceCoeff>
1.00

> <MW>
411.43

> <Description>
solid

> <FSP3>
0.25

> <clogP>
1.13

> <TPSA>
144.81

> <Acceptor>
6

> <Donor>
1

> <RotBonds>
6

> <HAC>
29

> <Collection>
General

$$$$
F0700-0133
  -ISIS-  06222321142D

 25 27  0  0  0  0  0  0  0  0999 V2000
   -2.1500    1.4958    0.0000 C   0  0  0  0  0  0  0  0  0  0  0  0
   -0.4333    0.5125    0.0000 N   0  0  3  0  0  0  0  0  0  0  0  0
   -2.4708    1.0333    0.0000 N   0  0  0  0  0  0  0  0  0  0  0  0
   -3.0333    1.1958    0.0000 C   0  0  0  0  0  0  0  0  0  0  0  0
   -4.5333    2.0958    0.0000 N   0  3  0  0  0  0  0  0  0  0  0  0
   -3.0333    1.7708    0.0000 C   0  0  0  0  0  0  0  0  0  0  0  0
   -2.4708    1.9583    0.0000 S   0  0  0  0  0  0  0  0  0  0  0  0
   -1.5708    1.5125    0.0000 N   0  0  0  0  0  0  0  0  0  0  0  0
   -4.0333    1.7708    0.0000 C   0  0  0  0  0  0  0  0  0  0  0  0
   -0.5958   -0.0500    0.0000 C   0  0  0  0  0  0  0  0  0  0  0  0
    0.1500    0.5125    0.0000 C   0  0  0  0  0  0  0  0  0  0  0  0
   -3.5333    2.0708    0.0000 C   0  0  0  0  0  0  0  0  0  0  0  0
   -3.5333    0.9125    0.0000 C   0  0  0  0  0  0  0  0  0  0  0  0
   -1.2958    1.0125    0.0000 C   0  0  0  0  0  0  0  0  0  0  0  0
   -4.0333    1.1958    0.0000 C   0  0  0  0  0  0  0  0  0  0  0  0
   -0.7125    1.0125    0.0000 C   0  0  0  0  0  0  0  0  0  0  0  0
   -4.5333    2.6708    0.0000 O   0  5  0  0  0  0  0  0  0  0  0  0
   -5.0333    1.8125    0.0000 O   0  0  0  0  0  0  0  0  0  0  0  0
   -0.1333   -0.3667    0.0000 C   0  0  0  0  0  0  0  0  0  0  0  0
    0.3292   -0.0500    0.0000 C   0  0  0  0  0  0  0  0  0  0  0  0
   -1.1500   -0.2667    0.0000 O   0  0  0  0  0  0  0  0  0  0  0  0
    0.5042    0.9708    0.0000 O   0  0  0  0  0  0  0  0  0  0  0  0
   -1.5708    0.5125    0.0000 O   0  0  0  0  0  0  0  0  0  0  0  0
   -3.5333    0.3333    0.0000 O   0  0  0  0  0  0  0  0  0  0  0  0
   -3.0333    0.0333    0.0000 C   0  0  0  0  0  0  0  0  0  0  0  0
  2 16  1  0  0  0  0
  3  1  2  0  0  0  0
  4  3  1  0  0  0  0
  5  9  1  0  0  0  0
  6  7  1  0  0  0  0
  7  1  1  0  0  0  0
  8  1  1  0  0  0  0
  9 12  2  0  0  0  0
 10  2  1  0  0  0  0
 11  2  1  0  0  0  0
 12  6  1  0  0  0  0
 13  4  1  0  0  0  0
 14  8  1  0  0  0  0
 15 13  2  0  0  0  0
 16 14  1  0  0  0  0
 17  5  1  0  0  0  0
 18  5  2  0  0  0  0
 19 10  1  0  0  0  0
 20 11  1  0  0  0  0
 21 10  2  0  0  0  0
 22 11  2  0  0  0  0
 23 14  2  0  0  0  0
 24 13  1  0  0  0  0
 25 24  1  0  0  0  0
  4  6  2  0  0  0  0
 15  9  1  0  0  0  0
 19 20  1  0  0  0  0
M  CHG  2   5   1  17  -1
M  END
> <IDNUMBER>
F0700-0133

> <Chemical_Name>
2-(2,5-dioxopyrrolidin-1-yl)-N-(4-methoxy-6-nitro-1,3-benzothiazol-2-yl)acetamide

> <CAS>
477280-52-7

> <PriceCoeff>
1.00

> <MW>
364.33

> <Description>
solid

> <FSP3>
0.29

> <clogP>
1.57

> <TPSA>
159.98

> <Acceptor>
7

> <Donor>
1

> <RotBonds>
5

> <HAC>
25

> <Collection>
General

$$$$
F3385-2698
  -ISIS-  06222321152D

 28 30  0  0  0  0  0  0  0  0999 V2000
    5.6917   -4.2292    0.0000 C   0  0  0  0  0  0  0  0  0  0  0  0
    4.9750   -4.6417    0.0000 C   0  0  0  0  0  0  0  0  0  0  0  0
    4.2625   -4.2292    0.0000 C   0  0  0  0  0  0  0  0  0  0  0  0
    5.6917   -3.4042    0.0000 C   0  0  0  0  0  0  0  0  0  0  0  0
    4.2625   -3.4042    0.0000 C   0  0  0  0  0  0  0  0  0  0  0  0
    6.4042   -4.6500    0.0000 C   0  0  0  0  0  0  0  0  0  0  0  0
    4.9750   -2.9917    0.0000 O   0  0  0  0  0  0  0  0  0  0  0  0
    1.3917   -3.4000    0.0000 C   0  0  0  0  0  0  0  0  0  0  0  0
    3.5500   -2.9917    0.0000 C   0  0  0  0  0  0  0  0  0  0  0  0
    7.1167   -4.2292    0.0000 C   0  0  0  0  0  0  0  0  0  0  0  0
    2.1125   -2.9917    0.0000 O   0  0  0  0  0  0  0  0  0  0  0  0
    3.5500   -4.6417    0.0000 C   0  0  0  0  0  0  0  0  0  0  0  0
    7.8375   -4.6417    0.0000 C   0  0  0  0  0  0  0  0  0  0  0  0
    0.6792   -2.9792    0.0000 C   0  0  3  0  0  0  0  0  0  0  0  0
    2.8292   -3.4042    0.0000 C   0  0  0  0  0  0  0  0  0  0  0  0
    4.9750   -5.4667    0.0000 O   0  0  0  0  0  0  0  0  0  0  0  0
    7.8375   -5.4750    0.0000 C   0  0  0  0  0  0  0  0  0  0  0  0
    1.3917   -4.2250    0.0000 O   0  0  0  0  0  0  0  0  0  0  0  0
    6.4042   -5.4750    0.0000 C   0  0  0  0  0  0  0  0  0  0  0  0
    7.1167   -5.8875    0.0000 C   0  0  0  0  0  0  0  0  0  0  0  0
    2.8292   -4.2292    0.0000 C   0  0  0  0  0  0  0  0  0  0  0  0
    8.5542   -4.2292    0.0000 O   0  0  0  0  0  0  0  0  0  0  0  0
    8.5625   -5.8917    0.0000 O   0  0  0  0  0  0  0  0  0  0  0  0
   -0.0333   -2.5625    0.0000 C   0  0  0  0  0  0  0  0  0  0  0  0
    1.1000   -2.2667    0.0000 C   0  0  0  0  0  0  0  0  0  0  0  0
    0.2667   -3.6917    0.0000 C   0  0  0  0  0  0  0  0  0  0  0  0
    9.2667   -4.6500    0.0000 C   0  0  0  0  0  0  0  0  0  0  0  0
    8.5667   -6.7250    0.0000 C   0  0  0  0  0  0  0  0  0  0  0  0
  2  1  1  0  0  0  0
  3  2  1  0  0  0  0
  4  1  2  0  0  0  0
  5  7  1  0  0  0  0
  6  1  1  0  0  0  0
  7  4  1  0  0  0  0
  8 11  1  0  0  0  0
  9  5  2  0  0  0  0
 10  6  1  0  0  0  0
 11 15  1  0  0  0  0
 12  3  2  0  0  0  0
 13 10  2  0  0  0  0
 14  8  1  0  0  0  0
 15  9  1  0  0  0  0
 16  2  2  0  0  0  0
 17 20  2  0  0  0  0
 18  8  2  0  0  0  0
 19  6  2  0  0  0  0
 20 19  1  0  0  0  0
 21 12  1  0  0  0  0
 22 13  1  0  0  0  0
 23 17  1  0  0  0  0
 24 14  1  0  0  0  0
 25 14  1  0  0  0  0
 26 14  1  0  0  0  0
 27 22  1  0  0  0  0
 28 23  1  0  0  0  0
  5  3  1  0  0  0  0
 17 13  1  0  0  0  0
 15 21  2  0  0  0  0
M  END
> <IDNUMBER>
F3385-2698

> <Chemical_Name>
3-(3,4-dimethoxyphenyl)-4-oxo-4H-chromen-7-yl 2,2-dimethylpropanoate

> <CAS>
738601-21-3

> <PriceCoeff>
1.00

> <MW>
382.41

> <Description>
solid

> <FSP3>
0.27

> <clogP>
3.42

> <TPSA>
71.06

> <Acceptor>
6

> <Donor>
0

> <RotBonds>
5

> <HAC>
28

> <Collection>
General

> <Reference_compound>
CHEMBL455048

> <Similarity>
0.8450

$$$$
F6442-0883
  -ISIS-  06222321152D

 26 28  0  0  0  0  0  0  0  0999 V2000
   -1.4458    5.2042    0.0000 S   0  0  3  0  0  0  0  0  0  0  0  0
   -2.1583    4.7917    0.0000 C   0  0  3  0  0  0  0  0  0  0  0  0
   -3.1583    4.2042    0.0000 N   0  0  3  0  0  0  0  0  0  0  0  0
   -3.8708    3.8000    0.0000 C   0  0  0  0  0  0  0  0  0  0  0  0
   -2.3708    4.0000    0.0000 C   0  0  0  0  0  0  0  0  0  0  0  0
   -2.9458    5.0042    0.0000 C   0  0  0  0  0  0  0  0  0  0  0  0
   -4.5792    4.2042    0.0000 N   0  0  0  0  0  0  0  0  0  0  0  0
   -0.7333    5.6167    0.0000 C   0  0  0  0  0  0  0  0  0  0  0  0
   -6.7000    3.8125    0.0000 C   0  0  0  0  0  0  0  0  0  0  0  0
   -6.0000    4.2125    0.0000 C   0  0  0  0  0  0  0  0  0  0  0  0
   -1.0333    4.4917    0.0000 O   0  0  0  0  0  0  0  0  0  0  0  0
   -1.8583    5.9167    0.0000 O   0  0  0  0  0  0  0  0  0  0  0  0
   -5.2833    3.8083    0.0000 C   0  0  0  0  0  0  0  0  0  0  0  0
   -3.8708    2.9833    0.0000 O   0  0  0  0  0  0  0  0  0  0  0  0
   -6.7042    2.9875    0.0000 C   0  0  0  0  0  0  0  0  0  0  0  0
   -0.7375    6.4417    0.0000 C   0  0  0  0  0  0  0  0  0  0  0  0
   -0.0125    5.2042    0.0000 C   0  0  0  0  0  0  0  0  0  0  0  0
   -6.0042    2.5708    0.0000 C   0  0  0  0  0  0  0  0  0  0  0  0
   -7.4042    4.2167    0.0000 Cl  0  0  0  0  0  0  0  0  0  0  0  0
   -5.2833    2.9833    0.0000 C   0  0  0  0  0  0  0  0  0  0  0  0
   -7.4208    2.5833    0.0000 Cl  0  0  0  0  0  0  0  0  0  0  0  0
    0.7000    6.4500    0.0000 C   0  0  0  0  0  0  0  0  0  0  0  0
    0.7000    5.6167    0.0000 C   0  0  0  0  0  0  0  0  0  0  0  0
   -0.0208    6.8625    0.0000 C   0  0  0  0  0  0  0  0  0  0  0  0
    1.4042    6.8625    0.0000 O   0  0  0  0  0  0  0  0  0  0  0  0
    2.1167    6.4542    0.0000 C   0  0  0  0  0  0  0  0  0  0  0  0
  2  1  1  0  0  0  0
  3  6  1  0  0  0  0
  4  3  1  0  0  0  0
  5  2  1  0  0  0  0
  6  2  1  0  0  0  0
  7  4  1  0  0  0  0
  8  1  1  0  0  0  0
  9 10  1  0  0  0  0
 10 13  2  0  0  0  0
 11  1  2  0  0  0  0
 12  1  2  0  0  0  0
 13  7  1  0  0  0  0
 14  4  2  0  0  0  0
 15 18  1  0  0  0  0
 16  8  1  0  0  0  0
 17  8  2  0  0  0  0
 18 20  2  0  0  0  0
 19  9  1  0  0  0  0
 20 13  1  0  0  0  0
 21 15  1  0  0  0  0
 22 23  2  0  0  0  0
 23 17  1  0  0  0  0
 24 16  2  0  0  0  0
 25 22  1  0  0  0  0
 26 25  1  0  0  0  0
  5  3  1  0  0  0  0
 24 22  1  0  0  0  0
  9 15  2  0  0  0  0
M  END
> <IDNUMBER>
F6442-0883

> <Chemical_Name>
N-(3,4-dichlorophenyl)-3-(4-methoxybenzenesulfonyl)azetidine-1-carboxamide

> <CAS>
1797631-42-5

> <PriceCoeff>
1.00

> <MW>
415.29

> <Description>
solid

> <FSP3>
0.24

> <clogP>
4.24

> <TPSA>
84.09

> <Acceptor>
4

> <Donor>
1

> <RotBonds>
5

> <HAC>
26

> <Collection>
General

$$$$
F3385-2913
  -ISIS-  06222321152D

 29 32  0  0  0  0  0  0  0  0999 V2000
    4.0625    0.2500    0.0000 C   0  0  0  0  0  0  0  0  0  0  0  0
    3.4917   -0.0667    0.0000 C   0  0  0  0  0  0  0  0  0  0  0  0
    2.9292    0.2583    0.0000 C   0  0  0  0  0  0  0  0  0  0  0  0
    4.0625    0.9083    0.0000 C   0  0  0  0  0  0  0  0  0  0  0  0
    2.9292    0.9083    0.0000 C   0  0  0  0  0  0  0  0  0  0  0  0
    3.4917    1.2333    0.0000 O   0  0  0  0  0  0  0  0  0  0  0  0
    4.6167   -0.0667    0.0000 C   0  0  0  0  0  0  0  0  0  0  0  0
    2.3667   -0.0667    0.0000 C   0  0  0  0  0  0  0  0  0  0  0  0
    2.3667    1.2250    0.0000 C   0  0  0  0  0  0  0  0  0  0  0  0
    0.1375    1.2333    0.0000 C   0  0  0  0  0  0  0  0  0  0  0  0
    3.4917   -0.7167    0.0000 O   0  0  0  0  0  0  0  0  0  0  0  0
    0.6917    0.9083    0.0000 C   0  0  0  0  0  0  0  0  0  0  0  0
    0.1375    1.8750    0.0000 O   0  0  0  0  0  0  0  0  0  0  0  0
   -0.4250    0.9083    0.0000 C   0  0  0  0  0  0  0  0  0  0  0  0
    1.8125    0.9000    0.0000 C   0  0  0  0  0  0  0  0  0  0  0  0
    5.1750    0.2500    0.0000 C   0  0  0  0  0  0  0  0  0  0  0  0
    4.6167   -0.7167    0.0000 C   0  0  0  0  0  0  0  0  0  0  0  0
    1.2542    1.2250    0.0000 O   0  0  0  0  0  0  0  0  0  0  0  0
    1.8125    0.2583    0.0000 C   0  0  0  0  0  0  0  0  0  0  0  0
    5.7292   -0.7167    0.0000 C   0  0  0  0  0  0  0  0  0  0  0  0
    5.7292   -0.0667    0.0000 C   0  0  0  0  0  0  0  0  0  0  0  0
    5.1750   -1.0417    0.0000 C   0  0  0  0  0  0  0  0  0  0  0  0
    6.2917   -1.0417    0.0000 O   0  0  0  0  0  0  0  0  0  0  0  0
   -0.9833    1.2333    0.0000 C   0  0  0  0  0  0  0  0  0  0  0  0
   -0.4250    0.2625    0.0000 C   0  0  0  0  0  0  0  0  0  0  0  0
    6.8500   -0.7167    0.0000 C   0  0  0  0  0  0  0  0  0  0  0  0
   -0.9833   -0.0625    0.0000 C   0  0  0  0  0  0  0  0  0  0  0  0
   -1.5458    0.9083    0.0000 C   0  0  0  0  0  0  0  0  0  0  0  0
   -1.5458    0.2625    0.0000 C   0  0  0  0  0  0  0  0  0  0  0  0
  2  1  1  0  0  0  0
  3  2  1  0  0  0  0
  4  1  2  0  0  0  0
  5  6  1  0  0  0  0
  6  4  1  0  0  0  0
  7  1  1  0  0  0  0
  8  3  2  0  0  0  0
  9  5  2  0  0  0  0
 10 12  1  0  0  0  0
 11  2  2  0  0  0  0
 12 18  1  0  0  0  0
 13 10  2  0  0  0  0
 14 10  1  0  0  0  0
 15  9  1  0  0  0  0
 16  7  1  0  0  0  0
 17  7  2  0  0  0  0
 18 15  1  0  0  0  0
 19  8  1  0  0  0  0
 20 22  2  0  0  0  0
 21 16  2  0  0  0  0
 22 17  1  0  0  0  0
 23 20  1  0  0  0  0
 24 14  2  0  0  0  0
 25 14  1  0  0  0  0
 26 23  1  0  0  0  0
 27 25  2  0  0  0  0
 28 24  1  0  0  0  0
 29 27  1  0  0  0  0
 21 20  1  0  0  0  0
  3  5  1  0  0  0  0
 19 15  2  0  0  0  0
 29 28  2  0  0  0  0
M  END
> <IDNUMBER>
F3385-2913

> <Chemical_Name>
3-(4-methoxyphenyl)-7-(2-oxo-2-phenylethoxy)-4H-chromen-4-one

> <CAS>
858760-05-1

> <PriceCoeff>
1.00

> <MW>
386.40

> <Description>
solid

> <FSP3>
0.08

> <clogP>
3.98

> <TPSA>
61.83

> <Acceptor>
5

> <Donor>
0

> <RotBonds>
6

> <HAC>
29

> <Collection>
General

> <Reference_compound>
CHEMBL44

> <Similarity>
0.8580

$$$$
F0703-0193
  -ISIS-  06222321452D

 20 21  0  0  0  0  0  0  0  0999 V2000
   -1.5000   -1.1667    0.0000 S   0  0  3  0  0  0  0  0  0  0  0  0
   -0.1000   -0.6875    0.0000 C   0  0  0  0  0  0  0  0  0  0  0  0
   -0.6625   -1.3292    0.0000 N   0  0  0  0  0  0  0  0  0  0  0  0
    0.7542   -0.8500    0.0000 C   0  0  0  0  0  0  0  0  0  0  0  0
    1.3000   -0.2042    0.0000 C   0  0  0  0  0  0  0  0  0  0  0  0
    1.0167    0.6125    0.0000 C   0  0  0  0  0  0  0  0  0  0  0  0
    0.1792    0.7708    0.0000 C   0  0  0  0  0  0  0  0  0  0  0  0
   -0.3833    0.1333    0.0000 C   0  0  0  0  0  0  0  0  0  0  0  0
   -1.6833   -2.0042    0.0000 O   0  0  0  0  0  0  0  0  0  0  0  0
   -1.3458   -0.3042    0.0000 O   0  0  0  0  0  0  0  0  0  0  0  0
   -2.3625   -0.9875    0.0000 C   0  0  0  0  0  0  0  0  0  0  0  0
    2.1542   -0.3667    0.0000 Cl  0  0  0  0  0  0  0  0  0  0  0  0
    1.6000    1.2500    0.0000 O   0  0  0  0  0  0  0  0  0  0  0  0
    1.0542   -1.6500    0.0000 C   0  0  0  0  0  0  0  0  0  0  0  0
   -0.1000    1.5958    0.0000 C   0  0  0  0  0  0  0  0  0  0  0  0
   -2.9458   -1.6042    0.0000 C   0  0  0  0  0  0  0  0  0  0  0  0
   -2.6208   -0.1667    0.0000 C   0  0  0  0  0  0  0  0  0  0  0  0
   -3.7833   -1.4292    0.0000 C   0  0  0  0  0  0  0  0  0  0  0  0
   -3.4625    0.0125    0.0000 C   0  0  0  0  0  0  0  0  0  0  0  0
   -4.0458   -0.6042    0.0000 C   0  0  0  0  0  0  0  0  0  0  0  0
  2  3  1  0  0  0  0
  3  1  1  0  0  0  0
  4  2  1  0  0  0  0
  5  4  2  0  0  0  0
  6  7  2  0  0  0  0
  7  8  1  0  0  0  0
  8  2  2  0  0  0  0
  9  1  2  0  0  0  0
 10  1  2  0  0  0  0
 11  1  1  0  0  0  0
 12  5  1  0  0  0  0
 13  6  1  0  0  0  0
 14  4  1  0  0  0  0
 15  7  1  0  0  0  0
 16 11  1  0  0  0  0
 17 11  2  0  0  0  0
 18 16  2  0  0  0  0
 19 17  1  0  0  0  0
 20 19  2  0  0  0  0
 18 20  1  0  0  0  0
  5  6  1  0  0  0  0
M  END
> <IDNUMBER>
F0703-0193

> <Chemical_Name>
N-(3-chloro-4-hydroxy-2,5-dimethylphenyl)benzenesulfonamide

> <CAS>
314751-55-8

> <PriceCoeff>
1.00

> <MW>
311.78

> <Description>
solid

> <FSP3>
0.14

> <clogP>
3.04

> <TPSA>
74.78

> <Acceptor>
4

> <Donor>
2

> <RotBonds>
3

> <HAC>
20

> <Collection>
General

$$$$
F2721-0443
  -ISIS-  06222321462D

 24 24  0  0  0  0  0  0  0  0999 V2000
    2.9625   -4.1750    0.0000 N   0  3  0  0  0  0  0  0  0  0  0  0
    3.6792   -3.7667    0.0000 C   0  0  0  0  0  0  0  0  0  0  0  0
    6.5292   -3.7667    0.0000 C   0  0  0  0  0  0  0  0  0  0  0  0
    7.2375   -4.1917    0.0000 C   0  0  0  0  0  0  0  0  0  0  0  0
    4.3917   -4.1875    0.0000 C   0  0  0  0  0  0  0  0  0  0  0  0
    7.9500   -2.9417    0.0000 C   0  0  0  0  0  0  0  0  0  0  0  0
    7.9500   -3.7792    0.0000 C   0  0  3  0  0  0  0  0  0  0  0  0
    3.6875   -2.9292    0.0000 C   0  0  0  0  0  0  0  0  0  0  0  0
    2.2542   -3.7542    0.0000 O   0  5  0  0  0  0  0  0  0  0  0  0
    5.8167   -4.1792    0.0000 N   0  0  3  0  0  0  0  0  0  0  0  0
    2.9542   -4.9917    0.0000 O   0  0  0  0  0  0  0  0  0  0  0  0
    5.1125   -3.7667    0.0000 C   0  0  0  0  0  0  0  0  0  0  0  0
    6.5292   -2.9417    0.0000 O   0  0  0  0  0  0  0  0  0  0  0  0
    7.2417   -2.5292    0.0000 O   0  0  0  0  0  0  0  0  0  0  0  0
    4.4000   -2.5167    0.0000 C   0  0  0  0  0  0  0  0  0  0  0  0
    8.6542   -4.1917    0.0000 N   0  0  3  0  0  0  0  0  0  0  0  0
    8.6750   -2.5292    0.0000 O   0  0  0  0  0  0  0  0  0  0  0  0
    5.1167   -2.9292    0.0000 C   0  0  0  0  0  0  0  0  0  0  0  0
    2.9667   -2.5167    0.0000 Cl  0  0  0  0  0  0  0  0  0  0  0  0
    8.6542   -5.0292    0.0000 C   0  0  0  0  0  0  0  0  0  0  0  0
    7.9375   -5.4292    0.0000 C   0  0  0  0  0  0  0  0  0  0  0  0
    5.8042   -5.0167    0.0000 H   0  0  0  0  0  0  0  0  0  0  0  0
    9.3667   -3.7792    0.0000 H   0  0  0  0  0  0  0  0  0  0  0  0
    9.3792   -2.9500    0.0000 H   0  0  0  0  0  0  0  0  0  0  0  0
  2  1  1  0  0  0  0
  3 10  1  0  0  0  0
  4  3  1  0  0  0  0
  5  2  2  0  0  0  0
  6  7  1  0  0  0  0
  7  4  1  0  0  0  0
  8  2  1  0  0  0  0
  9  1  1  0  0  0  0
 10 12  1  0  0  0  0
 11  1  2  0  0  0  0
 12  5  1  0  0  0  0
 13  3  2  0  0  0  0
 14  6  2  0  0  0  0
 15  8  2  0  0  0  0
 16  7  1  0  0  0  0
 17  6  1  0  0  0  0
 18 15  1  0  0  0  0
 19  8  1  0  0  0  0
 20 16  1  0  0  0  0
 21 20  1  0  0  0  0
 22 10  1  0  0  0  0
 23 16  1  0  0  0  0
 24 17  1  0  0  0  0
 12 18  2  0  0  0  0
M  CHG  2   1   1   9  -1
M  END
> <IDNUMBER>
F2721-0443

> <Chemical_Name>
3-[(4-chloro-3-nitrophenyl)carbamoyl]-2-(ethylamino)propanoic acid

> <CAS>


> <PriceCoeff>
1.00

> <MW>
315.71

> <Description>
solid

> <FSP3>
0.33

> <clogP>
0.81

> <TPSA>
121.57

> <Acceptor>
5

> <Donor>
2

> <RotBonds>
7

> <HAC>
21

> <Collection>
General

$$$$
F1243-0042
  -ISIS-  06222321142D

 22 23  0  0  0  0  0  0  0  0999 V2000
    2.1875   -1.0542    0.0000 C   0  0  0  0  0  0  0  0  0  0  0  0
    6.4875   -2.6917    0.0000 C   0  0  0  0  0  0  0  0  0  0  0  0
    2.9042   -1.4667    0.0000 O   0  0  0  0  0  0  0  0  0  0  0  0
    2.9042   -2.2917    0.0000 C   0  0  0  0  0  0  0  0  0  0  0  0
    3.6167   -2.7042    0.0000 C   0  0  0  0  0  0  0  0  0  0  0  0
    5.7750   -2.2875    0.0000 O   0  0  0  0  0  0  0  0  0  0  0  0
    2.1792   -0.2167    0.0000 N   0  0  3  0  0  0  0  0  0  0  0  0
    7.2042   -2.2792    0.0000 N   0  0  3  0  0  0  0  0  0  0  0  0
    1.4667   -1.4625    0.0000 O   0  0  0  0  0  0  0  0  0  0  0  0
    6.4792   -3.5167    0.0000 O   0  0  0  0  0  0  0  0  0  0  0  0
    4.3292   -2.2917    0.0000 C   0  0  0  0  0  0  0  0  0  0  0  0
    5.0625   -2.7042    0.0000 C   0  0  0  0  0  0  0  0  0  0  0  0
    3.6167   -3.5167    0.0000 C   0  0  0  0  0  0  0  0  0  0  0  0
    4.3292   -3.9375    0.0000 C   0  0  0  0  0  0  0  0  0  0  0  0
    5.0625   -3.5167    0.0000 C   0  0  0  0  0  0  0  0  0  0  0  0
    2.1917   -2.7042    0.0000 C   0  0  0  0  0  0  0  0  0  0  0  0
    2.1917   -3.5167    0.0000 C   0  0  0  0  0  0  0  0  0  0  0  0
    2.8917    0.1958    0.0000 C   0  0  0  0  0  0  0  0  0  0  0  0
    1.4542    0.1875    0.0000 C   0  0  0  0  0  0  0  0  0  0  0  0
    7.9125   -2.7042    0.0000 C   0  0  0  0  0  0  0  0  0  0  0  0
    7.2000   -1.4625    0.0000 C   0  0  0  0  0  0  0  0  0  0  0  0
    2.9042   -3.9375    0.0000 C   0  0  0  0  0  0  0  0  0  0  0  0
  2  6  1  0  0  0  0
  3  1  1  0  0  0  0
  4  3  1  0  0  0  0
  5  4  2  0  0  0  0
  6 12  1  0  0  0  0
  7  1  1  0  0  0  0
  8  2  1  0  0  0  0
  9  1  2  0  0  0  0
 10  2  2  0  0  0  0
 11  5  1  0  0  0  0
 12 11  2  0  0  0  0
 13  5  1  0  0  0  0
 14 13  1  0  0  0  0
 15 14  2  0  0  0  0
 16  4  1  0  0  0  0
 17 16  2  0  0  0  0
 18  7  1  0  0  0  0
 19  7  1  0  0  0  0
 20  8  1  0  0  0  0
 21  8  1  0  0  0  0
 22 17  1  0  0  0  0
 13 22  2  0  0  0  0
 12 15  1  0  0  0  0
M  END
> <IDNUMBER>
F1243-0042

> <Chemical_Name>
7-[(dimethylcarbamoyl)oxy]naphthalen-1-yl N,N-dimethylcarbamate

> <CAS>
526190-44-3

> <PriceCoeff>
1.00

> <MW>
302.33

> <Description>
solid

> <FSP3>
0.25

> <clogP>
2.01

> <TPSA>
59.08

> <Acceptor>
4

> <Donor>
0

> <RotBonds>
6

> <HAC>
22

> <Collection>
General

> <Reference_compound>
CHEMBL2288666

> <Similarity>
0.8060

$$$$
F1243-0047
  -ISIS-  06222321142D

 22 23  0  0  0  0  0  0  0  0999 V2000
    6.5042    0.0750    0.0000 C   0  0  0  0  0  0  0  0  0  0  0  0
    0.7792    0.0708    0.0000 C   0  0  0  0  0  0  0  0  0  0  0  0
    1.5000    0.4833    0.0000 O   0  0  0  0  0  0  0  0  0  0  0  0
    5.7917    0.4833    0.0000 O   0  0  0  0  0  0  0  0  0  0  0  0
    3.6375    0.0708    0.0000 C   0  0  0  0  0  0  0  0  0  0  0  0
    7.2167    0.4875    0.0000 N   0  0  3  0  0  0  0  0  0  0  0  0
    0.0667    0.4958    0.0000 N   0  0  3  0  0  0  0  0  0  0  0  0
    0.7792   -0.7542    0.0000 O   0  0  0  0  0  0  0  0  0  0  0  0
    6.5000   -0.7500    0.0000 O   0  0  0  0  0  0  0  0  0  0  0  0
    2.2167    0.0708    0.0000 C   0  0  0  0  0  0  0  0  0  0  0  0
    5.0792    0.0708    0.0000 C   0  0  0  0  0  0  0  0  0  0  0  0
    4.3500    0.4833    0.0000 C   0  0  0  0  0  0  0  0  0  0  0  0
    2.9250    0.4833    0.0000 C   0  0  0  0  0  0  0  0  0  0  0  0
    3.6375   -0.7500    0.0000 C   0  0  0  0  0  0  0  0  0  0  0  0
    4.3500   -1.1667    0.0000 C   0  0  0  0  0  0  0  0  0  0  0  0
    2.9250   -1.1667    0.0000 C   0  0  0  0  0  0  0  0  0  0  0  0
    2.2167   -0.7500    0.0000 C   0  0  0  0  0  0  0  0  0  0  0  0
    5.0792   -0.7500    0.0000 C   0  0  0  0  0  0  0  0  0  0  0  0
    7.9292    0.0708    0.0000 C   0  0  0  0  0  0  0  0  0  0  0  0
    7.2167    1.3083    0.0000 C   0  0  0  0  0  0  0  0  0  0  0  0
    0.0750    1.3125    0.0000 C   0  0  0  0  0  0  0  0  0  0  0  0
   -0.6500    0.0833    0.0000 C   0  0  0  0  0  0  0  0  0  0  0  0
  2  3  1  0  0  0  0
  3 10  1  0  0  0  0
  4  1  1  0  0  0  0
  5 12  1  0  0  0  0
  6  1  1  0  0  0  0
  7  2  1  0  0  0  0
  8  2  2  0  0  0  0
  9  1  2  0  0  0  0
 10 13  1  0  0  0  0
 11  4  1  0  0  0  0
 12 11  2  0  0  0  0
 13  5  2  0  0  0  0
 14 15  1  0  0  0  0
 15 18  2  0  0  0  0
 16 14  2  0  0  0  0
 17 16  1  0  0  0  0
 18 11  1  0  0  0  0
 19  6  1  0  0  0  0
 20  6  1  0  0  0  0
 21  7  1  0  0  0  0
 22  7  1  0  0  0  0
  5 14  1  0  0  0  0
 17 10  2  0  0  0  0
M  END
> <IDNUMBER>
F1243-0047

> <Chemical_Name>
7-[(dimethylcarbamoyl)oxy]naphthalen-2-yl N,N-dimethylcarbamate

> <CAS>
526190-48-7

> <PriceCoeff>
1.00

> <MW>
302.33

> <Description>
solid

> <FSP3>
0.25

> <clogP>
2.01

> <TPSA>
59.08

> <Acceptor>
4

> <Donor>
0

> <RotBonds>
6

> <HAC>
22

> <Collection>
General

> <Reference_compound>
CHEMBL2288666

> <Similarity>
0.8310

$$$$
F0440-0361
  -ISIS-  06222321142D

 24 26  0  0  0  0  0  0  0  0999 V2000
   -2.4000   -1.4792    0.0000 C   0  0  0  0  0  0  0  0  0  0  0  0
   -0.6208   -2.6000    0.0000 N   0  0  3  0  0  0  0  0  0  0  0  0
   -2.7458   -1.9542    0.0000 N   0  0  3  0  0  0  0  0  0  0  0  0
   -1.8000   -1.5167    0.0000 N   0  0  0  0  0  0  0  0  0  0  0  0
   -2.7458   -0.9792    0.0000 S   0  0  0  0  0  0  0  0  0  0  0  0
   -4.9083   -0.8542    0.0000 N   0  3  0  0  0  0  0  0  0  0  0  0
   -3.3208   -1.1542    0.0000 C   0  0  0  0  0  0  0  0  0  0  0  0
   -3.3208   -1.7792    0.0000 C   0  0  0  0  0  0  0  0  0  0  0  0
   -0.0458   -2.7542    0.0000 C   0  0  0  0  0  0  0  0  0  0  0  0
   -0.9458   -3.1167    0.0000 C   0  0  0  0  0  0  0  0  0  0  0  0
   -1.5208   -2.0500    0.0000 C   0  0  0  0  0  0  0  0  0  0  0  0
   -3.8458   -0.8542    0.0000 C   0  0  0  0  0  0  0  0  0  0  0  0
   -4.3625   -1.1542    0.0000 C   0  0  0  0  0  0  0  0  0  0  0  0
   -0.9000   -2.0792    0.0000 C   0  0  0  0  0  0  0  0  0  0  0  0
   -3.8458   -2.0792    0.0000 C   0  0  0  0  0  0  0  0  0  0  0  0
   -4.9083   -0.2542    0.0000 O   0  5  0  0  0  0  0  0  0  0  0  0
   -5.4458   -1.1542    0.0000 O   0  0  0  0  0  0  0  0  0  0  0  0
    0.0000   -3.3542    0.0000 C   0  0  0  0  0  0  0  0  0  0  0  0
   -0.5625   -3.5792    0.0000 C   0  0  0  0  0  0  0  0  0  0  0  0
   -4.3625   -1.7792    0.0000 C   0  0  0  0  0  0  0  0  0  0  0  0
    0.4292   -2.3792    0.0000 O   0  0  0  0  0  0  0  0  0  0  0  0
   -1.5625   -3.1500    0.0000 O   0  0  0  0  0  0  0  0  0  0  0  0
   -1.8458   -2.5542    0.0000 O   0  0  0  0  0  0  0  0  0  0  0  0
   -2.5458   -2.5500    0.0000 C   0  0  0  0  0  0  0  0  0  0  0  0
  2 14  1  0  0  0  0
  3  1  1  0  0  0  0
  4  1  2  0  0  0  0
  5  1  1  0  0  0  0
  6 13  1  0  0  0  0
  7  5  1  0  0  0  0
  8  3  1  0  0  0  0
  9  2  1  0  0  0  0
 10  2  1  0  0  0  0
 11  4  1  0  0  0  0
 12  7  1  0  0  0  0
 13 12  2  0  0  0  0
 14 11  1  0  0  0  0
 15  8  1  0  0  0  0
 16  6  1  0  0  0  0
 17  6  2  0  0  0  0
 18  9  1  0  0  0  0
 19 10  1  0  0  0  0
 20 15  2  0  0  0  0
 21  9  2  0  0  0  0
 22 10  2  0  0  0  0
 23 11  2  0  0  0  0
 24  3  1  0  0  0  0
  8  7  2  0  0  0  0
 20 13  1  0  0  0  0
 19 18  1  0  0  0  0
M  CHG  2   6   1  16  -1
M  END
> <IDNUMBER>
F0440-0361

> <Chemical_Name>
2-(2,5-dioxopyrrolidin-1-yl)-N-[(2E)-3-methyl-6-nitro-2,3-dihydro-1,3-benzothiazol-2-ylidene]acetamide

> <CAS>
392324-88-8

> <PriceCoeff>
1.00

> <MW>
348.33

> <Description>
solid

> <FSP3>
0.29

> <clogP>
2.52

> <TPSA>
138.49

> <Acceptor>
5

> <Donor>
0

> <RotBonds>
4

> <HAC>
24

> <Collection>
General

$$$$
F1814-1146
  -ISIS-  06222321142D

 24 26  0  0  0  0  0  0  0  0999 V2000
   -5.2708    2.1958    0.0000 C   0  0  0  0  0  0  0  0  0  0  0  0
   -6.0292    2.5333    0.0000 S   0  0  0  0  0  0  0  0  0  0  0  0
   -5.3583    1.3583    0.0000 N   0  0  3  0  0  0  0  0  0  0  0  0
   -3.8708    4.6292    0.0000 N   0  0  3  0  0  0  0  0  0  0  0  0
   -6.5917    1.9083    0.0000 C   0  0  0  0  0  0  0  0  0  0  0  0
   -4.5833    2.5958    0.0000 N   0  0  0  0  0  0  0  0  0  0  0  0
   -6.1667    1.1833    0.0000 C   0  0  0  0  0  0  0  0  0  0  0  0
   -3.2000    5.1042    0.0000 C   0  0  0  0  0  0  0  0  0  0  0  0
   -4.5333    5.1042    0.0000 C   0  0  0  0  0  0  0  0  0  0  0  0
   -4.5833    3.3958    0.0000 C   0  0  0  0  0  0  0  0  0  0  0  0
   -3.8708    3.8000    0.0000 C   0  0  0  0  0  0  0  0  0  0  0  0
   -6.5917    0.4583    0.0000 C   0  0  0  0  0  0  0  0  0  0  0  0
   -7.4292    1.9083    0.0000 C   0  0  0  0  0  0  0  0  0  0  0  0
   -3.4583    5.9000    0.0000 C   0  0  0  0  0  0  0  0  0  0  0  0
   -4.2833    5.8917    0.0000 C   0  0  0  0  0  0  0  0  0  0  0  0
   -2.4125    4.8417    0.0000 O   0  0  0  0  0  0  0  0  0  0  0  0
   -5.3208    4.8542    0.0000 O   0  0  0  0  0  0  0  0  0  0  0  0
   -5.2708    3.7958    0.0000 O   0  0  0  0  0  0  0  0  0  0  0  0
   -7.4167    0.4583    0.0000 C   0  0  0  0  0  0  0  0  0  0  0  0
   -7.8417    1.1833    0.0000 C   0  0  0  0  0  0  0  0  0  0  0  0
   -4.7708    0.8208    0.0000 C   0  0  0  0  0  0  0  0  0  0  0  0
   -6.1792   -0.2417    0.0000 O   0  0  0  0  0  0  0  0  0  0  0  0
   -7.8417    2.6125    0.0000 C   0  0  0  0  0  0  0  0  0  0  0  0
   -6.7042   -0.9250    0.0000 C   0  0  0  0  0  0  0  0  0  0  0  0
  2  1  1  0  0  0  0
  3  1  1  0  0  0  0
  4 11  1  0  0  0  0
  5  2  1  0  0  0  0
  6  1  2  0  0  0  0
  7  3  1  0  0  0  0
  8  4  1  0  0  0  0
  9  4  1  0  0  0  0
 10  6  1  0  0  0  0
 11 10  1  0  0  0  0
 12  7  1  0  0  0  0
 13  5  1  0  0  0  0
 14  8  1  0  0  0  0
 15  9  1  0  0  0  0
 16  8  2  0  0  0  0
 17  9  2  0  0  0  0
 18 10  2  0  0  0  0
 19 12  2  0  0  0  0
 20 13  2  0  0  0  0
 21  3  1  0  0  0  0
 22 12  1  0  0  0  0
 23 13  1  0  0  0  0
 24 22  1  0  0  0  0
  7  5  2  0  0  0  0
 20 19  1  0  0  0  0
 14 15  1  0  0  0  0
M  END
> <IDNUMBER>
F1814-1146

> <Chemical_Name>
2-(2,5-dioxopyrrolidin-1-yl)-N-[(2Z)-4-methoxy-3,7-dimethyl-2,3-dihydro-1,3-benzothiazol-2-ylidene]acetamide

> <CAS>
868370-72-3

> <PriceCoeff>
1.00

> <MW>
347.39

> <Description>
solid

> <FSP3>
0.38

> <clogP>
3.20

> <TPSA>
104.58

> <Acceptor>
4

> <Donor>
0

> <RotBonds>
4

> <HAC>
24

> <Collection>
General

$$$$
F6469-1367
  -ISIS-  06222321152D

 29 32  0  0  0  0  0  0  0  0999 V2000
    2.6000   -3.1542    0.0000 N   0  0  3  0  0  0  0  0  0  0  0  0
    7.0000   -2.7292    0.0000 C   0  0  0  0  0  0  0  0  0  0  0  0
    6.1917   -2.5542    0.0000 N   0  0  0  0  0  0  0  0  0  0  0  0
    6.1042   -1.7375    0.0000 C   0  0  0  0  0  0  0  0  0  0  0  0
    7.3042   -3.4917    0.0000 C   0  0  0  0  0  0  0  0  0  0  0  0
    7.4125   -2.0125    0.0000 S   0  0  0  0  0  0  0  0  0  0  0  0
    1.8042   -2.9292    0.0000 C   0  0  0  0  0  0  0  0  0  0  0  0
    2.6375   -3.9792    0.0000 C   0  0  0  0  0  0  0  0  0  0  0  0
    5.3750   -1.3625    0.0000 C   0  0  0  0  0  0  0  0  0  0  0  0
    6.8542   -1.3917    0.0000 C   0  0  0  0  0  0  0  0  0  0  0  0
    4.6792   -1.8167    0.0000 C   0  0  0  0  0  0  0  0  0  0  0  0
    4.0292   -3.0875    0.0000 C   0  0  0  0  0  0  0  0  0  0  0  0
    4.7167   -2.6417    0.0000 N   0  0  0  0  0  0  0  0  0  0  0  0
    3.2917   -2.7042    0.0000 C   0  0  0  0  0  0  0  0  0  0  0  0
    6.7917   -4.1333    0.0000 C   0  0  0  0  0  0  0  0  0  0  0  0
    1.3500   -3.6167    0.0000 C   0  0  0  0  0  0  0  0  0  0  0  0
    1.8625   -4.2667    0.0000 C   0  0  0  0  0  0  0  0  0  0  0  0
    1.5250   -2.1500    0.0000 O   0  0  0  0  0  0  0  0  0  0  0  0
    3.3250   -4.4458    0.0000 O   0  0  0  0  0  0  0  0  0  0  0  0
    4.0667   -3.9125    0.0000 O   0  0  0  0  0  0  0  0  0  0  0  0
    5.9667   -4.0083    0.0000 F   0  0  0  0  0  0  0  0  0  0  0  0
    8.1167   -3.6167    0.0000 C   0  0  0  0  0  0  0  0  0  0  0  0
    5.3292   -0.5375    0.0000 C   0  0  0  0  0  0  0  0  0  0  0  0
    3.9417   -1.4417    0.0000 C   0  0  0  0  0  0  0  0  0  0  0  0
    7.0917   -4.9042    0.0000 C   0  0  0  0  0  0  0  0  0  0  0  0
    8.4250   -4.3833    0.0000 C   0  0  0  0  0  0  0  0  0  0  0  0
    4.5917   -0.1583    0.0000 C   0  0  0  0  0  0  0  0  0  0  0  0
    3.8917   -0.6125    0.0000 C   0  0  0  0  0  0  0  0  0  0  0  0
    7.9042   -5.0292    0.0000 C   0  0  0  0  0  0  0  0  0  0  0  0
  2  3  2  0  0  0  0
  3  4  1  0  0  0  0
  4  9  1  0  0  0  0
  5  2  1  0  0  0  0
  6 10  1  0  0  0  0
  7  1  1  0  0  0  0
  8  1  1  0  0  0  0
  9 11  1  0  0  0  0
 10  4  2  0  0  0  0
 11 13  1  0  0  0  0
 12 14  1  0  0  0  0
 13 12  1  0  0  0  0
 14  1  1  0  0  0  0
 15  5  2  0  0  0  0
 16  7  1  0  0  0  0
 17  8  1  0  0  0  0
 18  7  2  0  0  0  0
 19  8  2  0  0  0  0
 20 12  2  0  0  0  0
 21 15  1  0  0  0  0
 22  5  1  0  0  0  0
 23  9  2  0  0  0  0
 24 11  2  0  0  0  0
 25 15  1  0  0  0  0
 26 22  2  0  0  0  0
 27 28  2  0  0  0  0
 28 24  1  0  0  0  0
 29 26  1  0  0  0  0
 16 17  1  0  0  0  0
 23 27  1  0  0  0  0
  2  6  1  0  0  0  0
 25 29  2  0  0  0  0
M  END
> <IDNUMBER>
F6469-1367

> <Chemical_Name>
2-(2,5-dioxopyrrolidin-1-yl)-N-{2-[2-(2-fluorophenyl)-1,3-thiazol-4-yl]phenyl}acetamide

> <CAS>
1797729-31-7

> <PriceCoeff>
1.00

> <MW>
409.43

> <Description>
solid

> <FSP3>
0.14

> <clogP>
2.45

> <TPSA>
107.61

> <Acceptor>
4

> <Donor>
1

> <RotBonds>
5

> <HAC>
29

> <Collection>
General

$$$$
F2273-0249
  -ISIS-  06222321462D

 33 37  0  0  0  0  0  0  0  0999 V2000
   -1.1208    3.0083    0.0000 C   0  0  0  0  0  0  0  0  0  0  0  0
    3.1042   -0.1667    0.0000 N   0  0  3  0  0  0  0  0  0  0  0  0
    0.2167    3.0208    0.0000 C   0  0  0  0  0  0  0  0  0  0  0  0
   -0.4458    2.5333    0.0000 O   0  0  0  0  0  0  0  0  0  0  0  0
   -1.8958    2.7208    0.0000 C   0  0  0  0  0  0  0  0  0  0  0  0
   -2.1583    1.9250    0.0000 O   0  0  0  0  0  0  0  0  0  0  0  0
   -0.8708    3.7958    0.0000 N   0  0  0  0  0  0  0  0  0  0  0  0
    1.0042    2.7708    0.0000 N   0  0  0  0  0  0  0  0  0  0  0  0
   -0.0375    3.8000    0.0000 N   0  0  0  0  0  0  0  0  0  0  0  0
    2.9292    0.6458    0.0000 C   0  0  0  0  0  0  0  0  0  0  0  0
   -2.9833    1.9333    0.0000 C   0  0  0  0  0  0  0  0  0  0  0  0
    1.1792    1.9583    0.0000 C   0  0  0  0  0  0  0  0  0  0  0  0
   -2.5708    3.1958    0.0000 C   0  0  0  0  0  0  0  0  0  0  0  0
    3.8417   -0.5292    0.0000 C   0  0  0  0  0  0  0  0  0  0  0  0
    2.5167   -0.7542    0.0000 C   0  0  0  0  0  0  0  0  0  0  0  0
   -3.2333    2.7125    0.0000 C   0  0  0  0  0  0  0  0  0  0  0  0
    2.1417    0.9000    0.0000 C   0  0  0  0  0  0  0  0  0  0  0  0
    1.9667    1.7083    0.0000 C   0  0  0  0  0  0  0  0  0  0  0  0
    0.5667    1.4000    0.0000 O   0  0  0  0  0  0  0  0  0  0  0  0
   -3.5333    1.3208    0.0000 C   0  0  0  0  0  0  0  0  0  0  0  0
    3.7292   -1.3500    0.0000 C   0  0  0  0  0  0  0  0  0  0  0  0
    2.9167   -1.5000    0.0000 C   0  0  0  0  0  0  0  0  0  0  0  0
    4.5667   -0.1542    0.0000 O   0  0  0  0  0  0  0  0  0  0  0  0
    1.7042   -0.6375    0.0000 O   0  0  0  0  0  0  0  0  0  0  0  0
    3.5417    1.1958    0.0000 C   0  0  0  0  0  0  0  0  0  0  0  0
   -3.2833    0.5333    0.0000 O   0  0  0  0  0  0  0  0  0  0  0  0
   -4.0375    2.8833    0.0000 C   0  0  0  0  0  0  0  0  0  0  0  0
    2.5792    2.2583    0.0000 C   0  0  0  0  0  0  0  0  0  0  0  0
    3.3667    2.0083    0.0000 C   0  0  0  0  0  0  0  0  0  0  0  0
   -4.5833    2.2708    0.0000 C   0  0  0  0  0  0  0  0  0  0  0  0
   -4.3458    1.4958    0.0000 C   0  0  0  0  0  0  0  0  0  0  0  0
   -2.4750    0.3583    0.0000 C   0  0  0  0  0  0  0  0  0  0  0  0
   -2.2208   -0.4292    0.0000 C   0  0  0  0  0  0  0  0  0  0  0  0
  2 10  1  0  0  0  0
  3  4  1  0  0  0  0
  4  1  1  0  0  0  0
  5  1  1  0  0  0  0
  6  5  1  0  0  0  0
  7  1  2  0  0  0  0
  8  3  1  0  0  0  0
  9  7  1  0  0  0  0
 10 17  1  0  0  0  0
 11  6  1  0  0  0  0
 12  8  1  0  0  0  0
 13  5  2  0  0  0  0
 14  2  1  0  0  0  0
 15  2  1  0  0  0  0
 16 13  1  0  0  0  0
 17 18  2  0  0  0  0
 18 12  1  0  0  0  0
 19 12  2  0  0  0  0
 20 11  1  0  0  0  0
 21 14  1  0  0  0  0
 22 15  1  0  0  0  0
 23 14  2  0  0  0  0
 24 15  2  0  0  0  0
 25 29  1  0  0  0  0
 26 20  1  0  0  0  0
 27 16  1  0  0  0  0
 28 18  1  0  0  0  0
 29 28  2  0  0  0  0
 30 27  2  0  0  0  0
 31 20  2  0  0  0  0
 32 26  1  0  0  0  0
 33 32  1  0  0  0  0
  3  9  2  0  0  0  0
 11 16  2  0  0  0  0
 30 31  1  0  0  0  0
 25 10  2  0  0  0  0
 21 22  1  0  0  0  0
M  END
> <IDNUMBER>
F2273-0249

> <Chemical_Name>
3-(2,5-dioxopyrrolidin-1-yl)-N-[5-(7-ethoxy-1-benzofuran-2-yl)-1,3,4-oxadiazol-2-yl]benzamide

> <CAS>
922042-79-3

> <PriceCoeff>
1.00

> <MW>
446.41

> <Description>
solid

> <FSP3>
0.17

> <clogP>
1.80

> <TPSA>
127.77

> <Acceptor>
8

> <Donor>
1

> <RotBonds>
6

> <HAC>
33

> <Collection>
General

$$$$
F2261-0410
  -ISIS-  06222321142D

 30 32  0  0  0  0  0  0  0  0999 V2000
   -2.9583    7.5250    0.0000 N   0  0  3  0  0  0  0  0  0  0  0  0
   -3.5333    8.1167    0.0000 C   0  0  0  0  0  0  0  0  0  0  0  0
   -3.7583    0.4958    0.0000 N   0  3  0  0  0  0  0  0  0  0  0  0
   -3.7500    2.9833    0.0000 C   0  0  0  0  0  0  0  0  0  0  0  0
   -3.7500    3.8000    0.0000 C   0  0  0  0  0  0  0  0  0  0  0  0
   -3.0708    6.7000    0.0000 C   0  0  0  0  0  0  0  0  0  0  0  0
   -4.3458    8.0417    0.0000 C   0  0  3  0  0  0  0  0  0  0  0  0
   -3.7708    6.2792    0.0000 C   0  0  0  0  0  0  0  0  0  0  0  0
   -4.4833    2.5708    0.0000 C   0  0  0  0  0  0  0  0  0  0  0  0
   -3.7583    1.3083    0.0000 C   0  0  0  0  0  0  0  0  0  0  0  0
   -4.5458    6.5750    0.0000 O   0  0  0  0  0  0  0  0  0  0  0  0
   -4.4833    1.7333    0.0000 C   0  0  0  0  0  0  0  0  0  0  0  0
   -3.0375    4.2125    0.0000 N   0  0  0  0  0  0  0  0  0  0  0  0
   -3.0333    2.5625    0.0000 C   0  0  0  0  0  0  0  0  0  0  0  0
   -3.7583    5.4542    0.0000 C   0  0  0  0  0  0  0  0  0  0  0  0
   -4.8083    7.3542    0.0000 C   0  0  0  0  0  0  0  0  0  0  0  0
   -2.3458    6.3000    0.0000 C   0  0  0  0  0  0  0  0  0  0  0  0
   -3.0375    0.0833    0.0000 O   0  5  0  0  0  0  0  0  0  0  0  0
   -3.0375    5.0417    0.0000 C   0  0  0  0  0  0  0  0  0  0  0  0
   -4.4708    0.0833    0.0000 O   0  0  0  0  0  0  0  0  0  0  0  0
   -3.2333    8.8792    0.0000 O   0  0  0  0  0  0  0  0  0  0  0  0
   -4.4708    4.2042    0.0000 O   0  0  0  0  0  0  0  0  0  0  0  0
   -3.0375    1.7375    0.0000 C   0  0  0  0  0  0  0  0  0  0  0  0
   -5.1875    2.9833    0.0000 Cl  0  0  0  0  0  0  0  0  0  0  0  0
   -2.3333    5.4667    0.0000 C   0  0  0  0  0  0  0  0  0  0  0  0
   -2.1708    7.7750    0.0000 C   0  0  0  0  0  0  0  0  0  0  0  0
   -5.1583    8.2542    0.0000 C   0  0  0  0  0  0  0  0  0  0  0  0
   -4.3708    8.8667    0.0000 C   0  0  0  0  0  0  0  0  0  0  0  0
   -1.9958    8.5792    0.0000 C   0  0  0  0  0  0  0  0  0  0  0  0
   -1.2083    8.8292    0.0000 C   0  0  0  0  0  0  0  0  0  0  0  0
  2  1  1  0  0  0  0
  3 10  1  0  0  0  0
  4  5  1  0  0  0  0
  5 13  1  0  0  0  0
  6  1  1  0  0  0  0
  7  2  1  0  0  0  0
  8  6  2  0  0  0  0
  9  4  1  0  0  0  0
 10 23  2  0  0  0  0
 11  8  1  0  0  0  0
 12  9  2  0  0  0  0
 13 19  1  0  0  0  0
 14  4  2  0  0  0  0
 15  8  1  0  0  0  0
 16  7  1  0  0  0  0
 17  6  1  0  0  0  0
 18  3  1  0  0  0  0
 19 25  1  0  0  0  0
 20  3  2  0  0  0  0
 21  2  2  0  0  0  0
 22  5  2  0  0  0  0
 23 14  1  0  0  0  0
 24  9  1  0  0  0  0
 25 17  2  0  0  0  0
 26  1  1  0  0  0  0
 27  7  1  0  0  0  0
 28  7  1  0  0  0  0
 29 26  1  0  0  0  0
 30 29  1  0  0  0  0
 11 16  1  0  0  0  0
 15 19  2  0  0  0  0
 10 12  1  0  0  0  0
M  CHG  2   3   1  18  -1
M  END
> <IDNUMBER>
F2261-0410

> <Chemical_Name>
2-chloro-N-(3,3-dimethyl-4-oxo-5-propyl-2,3,4,5-tetrahydro-1,5-benzoxazepin-8-yl)-4-nitrobenzamide

> <CAS>
921567-63-7

> <PriceCoeff>
1.00

> <MW>
431.87

> <Description>
solid

> <FSP3>
0.33

> <clogP>
3.85

> <TPSA>
101.78

> <Acceptor>
5

> <Donor>
1

> <RotBonds>
5

> <HAC>
30

> <Collection>
General

$$$$
F3007-0202
  -ISIS-  06222321152D

 26 29  0  0  0  0  0  0  0  0999 V2000
    1.8750   -1.0000    0.0000 C   0  0  0  0  0  0  0  0  0  0  0  0
    1.8917   -1.7917    0.0000 C   0  0  0  0  0  0  0  0  0  0  0  0
    3.1917   -1.0042    0.0000 N   0  0  3  0  0  0  0  0  0  0  0  0
    3.1917   -1.7792    0.0000 C   0  0  0  0  0  0  0  0  0  0  0  0
    2.5292   -2.1625    0.0000 N   0  0  0  0  0  0  0  0  0  0  0  0
    2.5375   -0.6167    0.0000 C   0  0  0  0  0  0  0  0  0  0  0  0
    1.2125   -2.1917    0.0000 S   0  0  0  0  0  0  0  0  0  0  0  0
    0.5167   -1.0167    0.0000 C   0  0  0  0  0  0  0  0  0  0  0  0
    0.5417   -1.7917    0.0000 C   0  0  0  0  0  0  0  0  0  0  0  0
    3.8917   -2.1792    0.0000 S   0  0  0  0  0  0  0  0  0  0  0  0
    3.8917   -0.6000    0.0000 C   0  0  0  0  0  0  0  0  0  0  0  0
    2.5375    0.1708    0.0000 O   0  0  0  0  0  0  0  0  0  0  0  0
    4.5917   -3.4042    0.0000 C   0  0  0  0  0  0  0  0  0  0  0  0
    5.3125   -2.9917    0.0000 O   0  0  0  0  0  0  0  0  0  0  0  0
    3.8875   -2.9917    0.0000 C   0  0  0  0  0  0  0  0  0  0  0  0
    3.8917    0.2000    0.0000 C   0  0  0  0  0  0  0  0  0  0  0  0
    4.5917   -1.0042    0.0000 C   0  0  0  0  0  0  0  0  0  0  0  0
    4.5917   -4.2292    0.0000 N   0  0  0  0  0  0  0  0  0  0  0  0
    5.2917    0.2000    0.0000 C   0  0  0  0  0  0  0  0  0  0  0  0
   -0.1708   -0.6542    0.0000 C   0  0  0  0  0  0  0  0  0  0  0  0
    5.2917   -0.6042    0.0000 C   0  0  0  0  0  0  0  0  0  0  0  0
    4.5917    0.6083    0.0000 C   0  0  0  0  0  0  0  0  0  0  0  0
   -0.1208   -2.2042    0.0000 C   0  0  0  0  0  0  0  0  0  0  0  0
    6.0042    0.6125    0.0000 Cl  0  0  0  0  0  0  0  0  0  0  0  0
   -0.8333   -1.0625    0.0000 C   0  0  0  0  0  0  0  0  0  0  0  0
   -0.8083   -1.8417    0.0000 C   0  0  0  0  0  0  0  0  0  0  0  0
  2  1  2  0  0  0  0
  3  6  1  0  0  0  0
  4  3  1  0  0  0  0
  5  2  1  0  0  0  0
  6  1  1  0  0  0  0
  7  2  1  0  0  0  0
  8  1  1  0  0  0  0
  9  8  2  0  0  0  0
 10  4  1  0  0  0  0
 11  3  1  0  0  0  0
 12  6  2  0  0  0  0
 13 15  1  0  0  0  0
 14 13  2  0  0  0  0
 15 10  1  0  0  0  0
 16 11  1  0  0  0  0
 17 11  2  0  0  0  0
 18 13  1  0  0  0  0
 19 21  2  0  0  0  0
 20  8  1  0  0  0  0
 21 17  1  0  0  0  0
 22 16  2  0  0  0  0
 23  9  1  0  0  0  0
 24 19  1  0  0  0  0
 25 20  1  0  0  0  0
 26 25  1  0  0  0  0
  9  7  1  0  0  0  0
  5  4  2  0  0  0  0
 26 23  1  0  0  0  0
 22 19  1  0  0  0  0
M  END
> <IDNUMBER>
F3007-0202

> <Chemical_Name>
2-{[4-(4-chlorophenyl)-3-oxo-8-thia-4,6-diazatricyclo[7.4.0.0^{2,7}]trideca-1(9),2(7),5-trien-5-yl]sulfanyl}acetamide

> <CAS>
353460-95-4

> <PriceCoeff>
1.00

> <MW>
405.92

> <Description>
solid

> <FSP3>
0.28

> <clogP>
4.15

> <TPSA>
129.30

> <Acceptor>
3

> <Donor>
1

> <RotBonds>
4

> <HAC>
26

> <Collection>
General

> <Reference_compound>
CHEMBL577016

> <Similarity>
0.8160

$$$$
F3385-3983
  -ISIS-  06222321152D

 28 30  0  0  0  0  0  0  0  0999 V2000
    4.4542   -3.0875    0.0000 C   0  0  0  0  0  0  0  0  0  0  0  0
    3.7375   -2.6667    0.0000 C   0  0  0  0  0  0  0  0  0  0  0  0
    5.1667   -2.6750    0.0000 C   0  0  0  0  0  0  0  0  0  0  0  0
    3.7417   -1.8417    0.0000 C   0  0  0  0  0  0  0  0  0  0  0  0
    0.8792   -1.8500    0.0000 C   0  0  0  0  0  0  0  0  0  0  0  0
    5.1667   -1.8417    0.0000 C   0  0  0  0  0  0  0  0  0  0  0  0
    3.0250   -3.0875    0.0000 C   0  0  0  0  0  0  0  0  0  0  0  0
    4.4542   -1.4292    0.0000 O   0  0  0  0  0  0  0  0  0  0  0  0
    5.8792   -3.0875    0.0000 C   0  0  0  0  0  0  0  0  0  0  0  0
    2.3125   -1.8500    0.0000 C   0  0  0  0  0  0  0  0  0  0  0  0
    3.0250   -1.4292    0.0000 C   0  0  0  0  0  0  0  0  0  0  0  0
    2.3125   -2.6750    0.0000 C   0  0  0  0  0  0  0  0  0  0  0  0
    1.6000   -1.4375    0.0000 O   0  0  0  0  0  0  0  0  0  0  0  0
    6.5917   -2.6750    0.0000 C   0  0  0  0  0  0  0  0  0  0  0  0
    7.3042   -3.0875    0.0000 C   0  0  0  0  0  0  0  0  0  0  0  0
    0.1667   -1.4375    0.0000 N   0  0  3  0  0  0  0  0  0  0  0  0
    4.4500   -3.9125    0.0000 O   0  0  0  0  0  0  0  0  0  0  0  0
    0.8792   -2.6750    0.0000 O   0  0  0  0  0  0  0  0  0  0  0  0
    7.3042   -3.9167    0.0000 C   0  0  0  0  0  0  0  0  0  0  0  0
    5.8792   -3.9125    0.0000 C   0  0  0  0  0  0  0  0  0  0  0  0
    6.5917   -4.3167    0.0000 C   0  0  0  0  0  0  0  0  0  0  0  0
    3.0292   -3.9125    0.0000 O   0  0  0  0  0  0  0  0  0  0  0  0
    8.0250   -2.6750    0.0000 O   0  0  0  0  0  0  0  0  0  0  0  0
    8.0167   -4.3292    0.0000 O   0  0  0  0  0  0  0  0  0  0  0  0
    0.1667   -0.6125    0.0000 C   0  0  0  0  0  0  0  0  0  0  0  0
   -0.5458   -1.8500    0.0000 C   0  0  0  0  0  0  0  0  0  0  0  0
    8.0167   -1.8500    0.0000 C   0  0  0  0  0  0  0  0  0  0  0  0
    8.7375   -3.9167    0.0000 C   0  0  0  0  0  0  0  0  0  0  0  0
  2  1  1  0  0  0  0
  3  1  1  0  0  0  0
  4  2  1  0  0  0  0
  5 13  1  0  0  0  0
  6  3  2  0  0  0  0
  7  2  2  0  0  0  0
  8  6  1  0  0  0  0
  9  3  1  0  0  0  0
 10 12  2  0  0  0  0
 11  4  2  0  0  0  0
 12  7  1  0  0  0  0
 13 10  1  0  0  0  0
 14  9  1  0  0  0  0
 15 14  2  0  0  0  0
 16  5  1  0  0  0  0
 17  1  2  0  0  0  0
 18  5  2  0  0  0  0
 19 21  2  0  0  0  0
 20  9  2  0  0  0  0
 21 20  1  0  0  0  0
 22  7  1  0  0  0  0
 23 15  1  0  0  0  0
 24 19  1  0  0  0  0
 25 16  1  0  0  0  0
 26 16  1  0  0  0  0
 27 23  1  0  0  0  0
 28 24  1  0  0  0  0
  8  4  1  0  0  0  0
 10 11  1  0  0  0  0
 19 15  1  0  0  0  0
M  END
> <IDNUMBER>
F3385-3983

> <Chemical_Name>
3-(3,4-dimethoxyphenyl)-5-hydroxy-4-oxo-4H-chromen-7-yl N,N-dimethylcarbamate

> <CAS>
919730-42-0

> <PriceCoeff>
1.00

> <MW>
385.37

> <Description>
solid

> <FSP3>
0.20

> <clogP>
2.67

> <TPSA>
94.53

> <Acceptor>
7

> <Donor>
1

> <RotBonds>
6

> <HAC>
28

> <Collection>
General

> <Reference_compound>
CHEMBL455048

> <Similarity>
0.8230

$$$$
F2635-0515
  -ISIS-  06222321152D

 32 36  0  0  0  0  0  0  0  0999 V2000
   -1.8958    0.8583    0.0000 C   0  0  0  0  0  0  0  0  0  0  0  0
   -1.1083    1.1125    0.0000 N   0  0  3  0  0  0  0  0  0  0  0  0
   -2.1500    0.0708    0.0000 N   0  0  0  0  0  0  0  0  0  0  0  0
    2.6375    1.5583    0.0000 N   0  0  3  0  0  0  0  0  0  0  0  0
   -2.5625    1.3458    0.0000 S   0  0  0  0  0  0  0  0  0  0  0  0
   -0.5000    0.5583    0.0000 C   0  0  0  0  0  0  0  0  0  0  0  0
    2.8667    2.3583    0.0000 C   0  0  0  0  0  0  0  0  0  0  0  0
    3.3167    1.1083    0.0000 C   0  0  0  0  0  0  0  0  0  0  0  0
   -2.9750    0.0708    0.0000 C   0  0  0  0  0  0  0  0  0  0  0  0
   -3.2333    0.8583    0.0000 C   0  0  0  0  0  0  0  0  0  0  0  0
    1.8500    1.3083    0.0000 C   0  0  0  0  0  0  0  0  0  0  0  0
   -0.9375    1.9208    0.0000 C   0  0  0  0  0  0  0  0  0  0  0  0
    0.2792    0.8125    0.0000 C   0  0  0  0  0  0  0  0  0  0  0  0
   -0.6708   -0.2500    0.0000 O   0  0  0  0  0  0  0  0  0  0  0  0
    3.6917    2.3833    0.0000 C   0  0  0  0  0  0  0  0  0  0  0  0
    3.9625    1.6125    0.0000 C   0  0  0  0  0  0  0  0  0  0  0  0
    2.3542    3.0208    0.0000 O   0  0  0  0  0  0  0  0  0  0  0  0
    3.3500    0.2833    0.0000 O   0  0  0  0  0  0  0  0  0  0  0  0
   -2.3333    2.2208    0.0000 N   0  0  0  0  0  0  0  0  0  0  0  0
    1.2417    1.8708    0.0000 C   0  0  0  0  0  0  0  0  0  0  0  0
    1.6667    0.5125    0.0000 C   0  0  0  0  0  0  0  0  0  0  0  0
    0.8875    0.2625    0.0000 C   0  0  0  0  0  0  0  0  0  0  0  0
    0.4542    1.6208    0.0000 C   0  0  0  0  0  0  0  0  0  0  0  0
   -1.5500    2.4708    0.0000 C   0  0  0  0  0  0  0  0  0  0  0  0
   -3.5250   -0.5375    0.0000 C   0  0  0  0  0  0  0  0  0  0  0  0
   -4.0333    1.0333    0.0000 C   0  0  0  0  0  0  0  0  0  0  0  0
   -2.9458    2.7708    0.0000 C   0  0  0  0  0  0  0  0  0  0  0  0
   -1.3708    3.2833    0.0000 C   0  0  0  0  0  0  0  0  0  0  0  0
   -2.7708    3.5833    0.0000 C   0  0  0  0  0  0  0  0  0  0  0  0
   -4.3333   -0.3667    0.0000 C   0  0  0  0  0  0  0  0  0  0  0  0
   -4.5833    0.4208    0.0000 C   0  0  0  0  0  0  0  0  0  0  0  0
   -1.9833    3.8333    0.0000 C   0  0  0  0  0  0  0  0  0  0  0  0
  2  1  1  0  0  0  0
  3  1  2  0  0  0  0
  4 11  1  0  0  0  0
  5  1  1  0  0  0  0
  6  2  1  0  0  0  0
  7  4  1  0  0  0  0
  8  4  1  0  0  0  0
  9  3  1  0  0  0  0
 10  5  1  0  0  0  0
 11 20  1  0  0  0  0
 12  2  1  0  0  0  0
 13  6  1  0  0  0  0
 14  6  2  0  0  0  0
 15  7  1  0  0  0  0
 16  8  1  0  0  0  0
 17  7  2  0  0  0  0
 18  8  2  0  0  0  0
 19 24  1  0  0  0  0
 20 23  2  0  0  0  0
 21 22  1  0  0  0  0
 22 13  2  0  0  0  0
 23 13  1  0  0  0  0
 24 12  1  0  0  0  0
 25  9  1  0  0  0  0
 26 10  1  0  0  0  0
 27 19  2  0  0  0  0
 28 24  2  0  0  0  0
 29 32  2  0  0  0  0
 30 25  2  0  0  0  0
 31 26  2  0  0  0  0
 32 28  1  0  0  0  0
  9 10  2  0  0  0  0
 31 30  1  0  0  0  0
 21 11  2  0  0  0  0
 29 27  1  0  0  0  0
 16 15  1  0  0  0  0
M  END
> <IDNUMBER>
F2635-0515

> <Chemical_Name>
N-(1,3-benzothiazol-2-yl)-4-(2,5-dioxopyrrolidin-1-yl)-N-[(pyridin-2-yl)methyl]benzamide

> <CAS>
886902-99-4

> <PriceCoeff>
1.00

> <MW>
442.49

> <Description>
solid

> <FSP3>
0.12

> <clogP>
1.81

> <TPSA>
111.71

> <Acceptor>
5

> <Donor>
1

> <RotBonds>
6

> <HAC>
32

> <Collection>
General

$$$$
F2545-0218
  -ISIS-  06222321462D

 24 25  0  0  0  0  0  0  0  0999 V2000
   -3.9125    1.2625    0.0000 S   0  0  3  0  0  0  0  0  0  0  0  0
    0.9292    3.0625    0.0000 N   0  3  0  0  0  0  0  0  0  0  0  0
    0.1625    3.3708    0.0000 C   0  0  0  0  0  0  0  0  0  0  0  0
   -1.9125    2.6625    0.0000 C   0  0  0  0  0  0  0  0  0  0  0  0
   -2.6833    2.9833    0.0000 N   0  0  3  0  0  0  0  0  0  0  0  0
   -3.2625    1.6375    0.0000 C   0  0  0  0  0  0  0  0  0  0  0  0
   -0.4958    2.8625    0.0000 C   0  0  0  0  0  0  0  0  0  0  0  0
   -1.2583    3.1708    0.0000 C   0  0  0  0  0  0  0  0  0  0  0  0
   -3.2625    2.3958    0.0000 C   0  0  3  0  0  0  0  0  0  0  0  0
    0.0375    4.1917    0.0000 C   0  0  0  0  0  0  0  0  0  0  0  0
   -3.3833    0.7333    0.0000 O   0  0  0  0  0  0  0  0  0  0  0  0
   -4.5625    0.8958    0.0000 O   0  0  0  0  0  0  0  0  0  0  0  0
    1.0500    2.2500    0.0000 O   0  5  0  0  0  0  0  0  0  0  0  0
   -4.5583    2.3958    0.0000 C   0  0  0  0  0  0  0  0  0  0  0  0
    1.5792    3.5833    0.0000 O   0  0  0  0  0  0  0  0  0  0  0  0
   -4.5583    1.6375    0.0000 C   0  0  0  0  0  0  0  0  0  0  0  0
   -2.8458    3.7833    0.0000 C   0  0  0  0  0  0  0  0  0  0  0  0
   -1.8083    1.8458    0.0000 O   0  0  0  0  0  0  0  0  0  0  0  0
   -1.3833    3.9875    0.0000 C   0  0  0  0  0  0  0  0  0  0  0  0
   -0.7333    4.5000    0.0000 C   0  0  0  0  0  0  0  0  0  0  0  0
    0.6792    4.7000    0.0000 Cl  0  0  0  0  0  0  0  0  0  0  0  0
   -3.6375    4.0417    0.0000 C   0  0  3  0  0  0  0  0  0  0  0  0
   -3.9125    4.8125    0.0000 C   0  0  0  0  0  0  0  0  0  0  0  0
   -4.3708    3.6708    0.0000 C   0  0  0  0  0  0  0  0  0  0  0  0
  2  3  1  0  0  0  0
  3  7  2  0  0  0  0
  4  5  1  0  0  0  0
  5  9  1  0  0  0  0
  6  1  1  0  0  0  0
  7  8  1  0  0  0  0
  8  4  1  0  0  0  0
  9  6  1  0  0  0  0
 10 20  2  0  0  0  0
 11  1  2  0  0  0  0
 12  1  2  0  0  0  0
 13  2  1  0  0  0  0
 14 16  1  0  0  0  0
 15  2  2  0  0  0  0
 16  1  1  0  0  0  0
 17  5  1  0  0  0  0
 18  4  2  0  0  0  0
 19  8  2  0  0  0  0
 20 19  1  0  0  0  0
 21 10  1  0  0  0  0
 22 17  1  0  0  0  0
 23 22  1  0  0  0  0
 24 22  1  0  0  0  0
  9 14  1  0  0  0  0
  3 10  1  0  0  0  0
M  CHG  2   2   1  13  -1
M  END
> <IDNUMBER>
F2545-0218

> <Chemical_Name>
4-chloro-N-(1,1-dioxo-1lambda6-thiolan-3-yl)-N-(2-methylpropyl)-3-nitrobenzamide

> <CAS>
874787-74-3

> <PriceCoeff>
1.00

> <MW>
374.84

> <Description>
solid

> <FSP3>
0.53

> <clogP>
1.62

> <TPSA>
105.97

> <Acceptor>
5

> <Donor>
0

> <RotBonds>
6

> <HAC>
24

> <Collection>
General

$$$$
F1814-1144
  -ISIS-  06222321142D

 23 25  0  0  0  0  0  0  0  0999 V2000
   -5.2833    2.1875    0.0000 C   0  0  0  0  0  0  0  0  0  0  0  0
   -5.3583    1.3500    0.0000 N   0  0  3  0  0  0  0  0  0  0  0  0
   -6.0292    2.5208    0.0000 S   0  0  0  0  0  0  0  0  0  0  0  0
   -3.8708    4.6292    0.0000 N   0  0  3  0  0  0  0  0  0  0  0  0
   -4.5833    2.5958    0.0000 N   0  0  0  0  0  0  0  0  0  0  0  0
   -6.1667    1.1750    0.0000 C   0  0  0  0  0  0  0  0  0  0  0  0
   -6.5917    1.9083    0.0000 C   0  0  0  0  0  0  0  0  0  0  0  0
   -3.2000    5.1042    0.0000 C   0  0  0  0  0  0  0  0  0  0  0  0
   -4.5333    5.1042    0.0000 C   0  0  0  0  0  0  0  0  0  0  0  0
   -4.5833    3.3958    0.0000 C   0  0  0  0  0  0  0  0  0  0  0  0
   -7.4292    1.9083    0.0000 C   0  0  0  0  0  0  0  0  0  0  0  0
   -3.8708    3.8000    0.0000 C   0  0  0  0  0  0  0  0  0  0  0  0
   -6.5917    0.4500    0.0000 C   0  0  0  0  0  0  0  0  0  0  0  0
   -7.8417    1.1750    0.0000 C   0  0  0  0  0  0  0  0  0  0  0  0
   -4.2833    5.8917    0.0000 C   0  0  0  0  0  0  0  0  0  0  0  0
   -3.4583    5.9000    0.0000 C   0  0  0  0  0  0  0  0  0  0  0  0
   -5.3208    4.8542    0.0000 O   0  0  0  0  0  0  0  0  0  0  0  0
   -2.4125    4.8417    0.0000 O   0  0  0  0  0  0  0  0  0  0  0  0
   -5.2708    3.7958    0.0000 O   0  0  0  0  0  0  0  0  0  0  0  0
   -7.4292    0.4458    0.0000 C   0  0  0  0  0  0  0  0  0  0  0  0
   -4.7708    0.8125    0.0000 C   0  0  0  0  0  0  0  0  0  0  0  0
   -7.8417    2.6083    0.0000 C   0  0  0  0  0  0  0  0  0  0  0  0
   -7.8375   -0.2667    0.0000 C   0  0  0  0  0  0  0  0  0  0  0  0
  2  1  1  0  0  0  0
  3  1  1  0  0  0  0
  4 12  1  0  0  0  0
  5  1  2  0  0  0  0
  6  2  1  0  0  0  0
  7  3  1  0  0  0  0
  8  4  1  0  0  0  0
  9  4  1  0  0  0  0
 10  5  1  0  0  0  0
 11  7  1  0  0  0  0
 12 10  1  0  0  0  0
 13  6  1  0  0  0  0
 14 11  2  0  0  0  0
 15  9  1  0  0  0  0
 16  8  1  0  0  0  0
 17  9  2  0  0  0  0
 18  8  2  0  0  0  0
 19 10  2  0  0  0  0
 20 13  2  0  0  0  0
 21  2  1  0  0  0  0
 22 11  1  0  0  0  0
 23 20  1  0  0  0  0
  6  7  2  0  0  0  0
 14 20  1  0  0  0  0
 16 15  1  0  0  0  0
M  END
> <IDNUMBER>
F1814-1144

> <Chemical_Name>
2-(2,5-dioxopyrrolidin-1-yl)-N-[(2Z)-3,5,7-trimethyl-2,3-dihydro-1,3-benzothiazol-2-ylidene]acetamide

> <CAS>
868370-70-1

> <PriceCoeff>
1.00

> <MW>
331.39

> <Description>
solid

> <FSP3>
0.38

> <clogP>
3.78

> <TPSA>
95.35

> <Acceptor>
3

> <Donor>
0

> <RotBonds>
3

> <HAC>
23

> <Collection>
General

$$$$
F1814-1145
  -ISIS-  06222321442D

 23 25  0  0  0  0  0  0  0  0999 V2000
   -5.2833    2.1875    0.0000 C   0  0  0  0  0  0  0  0  0  0  0  0
   -6.0292    2.5208    0.0000 S   0  0  0  0  0  0  0  0  0  0  0  0
   -3.8708    4.6292    0.0000 N   0  0  3  0  0  0  0  0  0  0  0  0
   -5.3583    1.3500    0.0000 N   0  0  3  0  0  0  0  0  0  0  0  0
   -4.5833    2.5958    0.0000 N   0  0  0  0  0  0  0  0  0  0  0  0
   -6.5917    1.8958    0.0000 C   0  0  0  0  0  0  0  0  0  0  0  0
   -6.1667    1.1750    0.0000 C   0  0  0  0  0  0  0  0  0  0  0  0
   -3.2000    5.1042    0.0000 C   0  0  0  0  0  0  0  0  0  0  0  0
   -4.5333    5.1042    0.0000 C   0  0  0  0  0  0  0  0  0  0  0  0
   -4.5833    3.3958    0.0000 C   0  0  0  0  0  0  0  0  0  0  0  0
   -3.8708    3.8000    0.0000 C   0  0  0  0  0  0  0  0  0  0  0  0
   -7.4375    1.8958    0.0000 C   0  0  0  0  0  0  0  0  0  0  0  0
   -6.5917    0.4500    0.0000 C   0  0  0  0  0  0  0  0  0  0  0  0
   -3.4583    5.9000    0.0000 C   0  0  0  0  0  0  0  0  0  0  0  0
   -4.2833    5.8917    0.0000 C   0  0  0  0  0  0  0  0  0  0  0  0
   -2.4125    4.8417    0.0000 O   0  0  0  0  0  0  0  0  0  0  0  0
   -5.3208    4.8542    0.0000 O   0  0  0  0  0  0  0  0  0  0  0  0
   -5.2833    3.7958    0.0000 O   0  0  0  0  0  0  0  0  0  0  0  0
   -7.8542    1.1708    0.0000 C   0  0  0  0  0  0  0  0  0  0  0  0
   -7.4292    0.4458    0.0000 C   0  0  0  0  0  0  0  0  0  0  0  0
   -4.7708    0.8083    0.0000 C   0  0  0  0  0  0  0  0  0  0  0  0
   -7.8417    2.6083    0.0000 C   0  0  0  0  0  0  0  0  0  0  0  0
   -6.1792   -0.2542    0.0000 C   0  0  0  0  0  0  0  0  0  0  0  0
  2  1  1  0  0  0  0
  3 11  1  0  0  0  0
  4  1  1  0  0  0  0
  5  1  2  0  0  0  0
  6  2  1  0  0  0  0
  7  4  1  0  0  0  0
  8  3  1  0  0  0  0
  9  3  1  0  0  0  0
 10  5  1  0  0  0  0
 11 10  1  0  0  0  0
 12  6  1  0  0  0  0
 13  7  1  0  0  0  0
 14  8  1  0  0  0  0
 15  9  1  0  0  0  0
 16  8  2  0  0  0  0
 17  9  2  0  0  0  0
 18 10  2  0  0  0  0
 19 12  2  0  0  0  0
 20 13  2  0  0  0  0
 21  4  1  0  0  0  0
 22 12  1  0  0  0  0
 23 13  1  0  0  0  0
  7  6  2  0  0  0  0
 19 20  1  0  0  0  0
 14 15  1  0  0  0  0
M  END
> <IDNUMBER>
F1814-1145

> <Chemical_Name>
2-(2,5-dioxopyrrolidin-1-yl)-N-[(2Z)-3,4,7-trimethyl-2,3-dihydro-1,3-benzothiazol-2-ylidene]acetamide

> <CAS>
1164563-63-6

> <PriceCoeff>
1.00

> <MW>
331.39

> <Description>
solid

> <FSP3>
0.38

> <clogP>
3.78

> <TPSA>
95.35

> <Acceptor>
3

> <Donor>
0

> <RotBonds>
3

> <HAC>
23

> <Collection>
General

$$$$
F0183-0065
  -ISIS-  06222321452D

 14 14  0  0  0  0  0  0  0  0999 V2000
   -1.1500    0.0458    0.0000 C   0  0  0  0  0  0  0  0  0  0  0  0
   -1.1500    1.0208    0.0000 N   0  0  0  0  0  0  0  0  0  0  0  0
   -0.2958   -0.4375    0.0000 N   0  0  0  0  0  0  0  0  0  0  0  0
    0.5500    1.0458    0.0000 N   0  0  0  0  0  0  0  0  0  0  0  0
   -0.3125    1.5208    0.0000 C   0  0  0  0  0  0  0  0  0  0  0  0
    0.5500    0.0625    0.0000 C   0  0  0  0  0  0  0  0  0  0  0  0
   -1.9958   -0.4792    0.0000 N   0  0  0  0  0  0  0  0  0  0  0  0
   -0.3125    2.5000    0.0000 S   0  0  0  0  0  0  0  0  0  0  0  0
    1.4292   -0.4542    0.0000 N   0  0  0  0  0  0  0  0  0  0  0  0
   -2.8500    0.0208    0.0000 C   0  0  3  0  0  0  0  0  0  0  0  0
    1.4292   -1.4375    0.0000 C   0  0  0  0  0  0  0  0  0  0  0  0
   -2.8708    1.0000    0.0000 C   0  0  0  0  0  0  0  0  0  0  0  0
   -3.6958   -0.5000    0.0000 C   0  0  0  0  0  0  0  0  0  0  0  0
    2.2667   -1.9167    0.0000 C   0  0  0  0  0  0  0  0  0  0  0  0
  2  1  1  0  0  0  0
  3  1  2  0  0  0  0
  4  6  2  0  0  0  0
  5  2  2  0  0  0  0
  6  3  1  0  0  0  0
  7  1  1  0  0  0  0
  8  5  1  0  0  0  0
  9  6  1  0  0  0  0
 10  7  1  0  0  0  0
 11  9  1  0  0  0  0
 12 10  1  0  0  0  0
 13 10  1  0  0  0  0
 14 11  1  0  0  0  0
  4  5  1  0  0  0  0
M  END
> <IDNUMBER>
F0183-0065

> <Chemical_Name>
4-(ethylamino)-6-[(propan-2-yl)amino]-1,3,5-triazine-2-thiol

> <CAS>
5498-17-9

> <PriceCoeff>
1.00

> <MW>
213.30

> <Description>
solid

> <FSP3>
0.62

> <clogP>
3.03

> <TPSA>
101.53

> <Acceptor>
3

> <Donor>
5

> <RotBonds>
4

> <HAC>
14

> <Collection>
General

> <Reference_compound>
CHEMBL1235774

> <Similarity>
0.8910

$$$$
F0334-0126
  -ISIS-  06222321452D

 17 17  0  0  0  0  0  0  0  0999 V2000
   -2.3333    1.9958    0.0000 N   0  3  0  0  0  0  0  0  0  0  0  0
   -0.3125    0.7708    0.0000 C   0  0  0  0  0  0  0  0  0  0  0  0
   -0.8958   -0.6667    0.0000 C   0  0  0  0  0  0  0  0  0  0  0  0
   -1.8125    1.7125    0.0000 C   0  0  0  0  0  0  0  0  0  0  0  0
   -0.3500    0.1958    0.0000 N   0  0  0  0  0  0  0  0  0  0  0  0
   -2.3500    2.5958    0.0000 O   0  5  0  0  0  0  0  0  0  0  0  0
   -2.8500    1.6958    0.0000 O   0  0  0  0  0  0  0  0  0  0  0  0
   -0.8125    1.1125    0.0000 C   0  0  0  0  0  0  0  0  0  0  0  0
    0.2042    1.0500    0.0000 O   0  0  0  0  0  0  0  0  0  0  0  0
   -1.4125   -0.9500    0.0000 O   0  0  0  0  0  0  0  0  0  0  0  0
   -0.3958   -0.9667    0.0000 N   0  0  0  0  0  0  0  0  0  0  0  0
   -0.8708   -0.0667    0.0000 C   0  0  0  0  0  0  0  0  0  0  0  0
   -1.3125    1.9958    0.0000 C   0  0  0  0  0  0  0  0  0  0  0  0
   -1.8125    1.1333    0.0000 C   0  0  0  0  0  0  0  0  0  0  0  0
   -0.8125    1.6958    0.0000 C   0  0  0  0  0  0  0  0  0  0  0  0
   -1.3125    0.8333    0.0000 C   0  0  0  0  0  0  0  0  0  0  0  0
    0.1042   -0.6875    0.0000 N   0  0  0  0  0  0  0  0  0  0  0  0
  2  8  1  0  0  0  0
  3 12  1  0  0  0  0
  4  1  1  0  0  0  0
  5  2  1  0  0  0  0
  6  1  1  0  0  0  0
  7  1  2  0  0  0  0
  8 16  1  0  0  0  0
  9  2  2  0  0  0  0
 10  3  2  0  0  0  0
 11  3  1  0  0  0  0
 12  5  1  0  0  0  0
 13  4  2  0  0  0  0
 14  4  1  0  0  0  0
 15 13  1  0  0  0  0
 16 14  2  0  0  0  0
 17 11  1  0  0  0  0
 15  8  2  0  0  0  0
M  CHG  2   1   1   6  -1
M  END
> <IDNUMBER>
F0334-0126

> <Chemical_Name>
N-[(hydrazinecarbonyl)methyl]-4-nitrobenzamide

> <CAS>
139645-87-7

> <PriceCoeff>
1.00

> <MW>
238.20

> <Description>
solid

> <FSP3>
0.11

> <clogP>
-0.43

> <TPSA>
127.36

> <Acceptor>
4

> <Donor>
3

> <RotBonds>
4

> <HAC>
17

> <Collection>
General

> <Reference_compound>
CHEMBL512207

> <Similarity>
0.8100

$$$$
F2049-0461
  -ISIS-  06222321442D

 28 31  0  0  0  0  0  0  0  0999 V2000
   -4.4833    6.6875    0.0000 N   0  0  3  0  0  0  0  0  0  0  0  0
   -5.2083    6.2667    0.0000 C   0  0  0  0  0  0  0  0  0  0  0  0
   -3.7583    6.2792    0.0000 C   0  0  0  0  0  0  0  0  0  0  0  0
   -3.7500    3.8000    0.0000 C   0  0  0  0  0  0  0  0  0  0  0  0
   -3.7500    2.9833    0.0000 C   0  0  0  0  0  0  0  0  0  0  0  0
   -3.0375    4.2125    0.0000 N   0  0  0  0  0  0  0  0  0  0  0  0
   -3.7583    5.4500    0.0000 C   0  0  0  0  0  0  0  0  0  0  0  0
   -3.0375    5.0292    0.0000 C   0  0  0  0  0  0  0  0  0  0  0  0
   -3.0458    6.6917    0.0000 C   0  0  0  0  0  0  0  0  0  0  0  0
   -4.4708    2.5583    0.0000 C   0  0  0  0  0  0  0  0  0  0  0  0
   -5.1958    5.4375    0.0000 O   0  0  0  0  0  0  0  0  0  0  0  0
   -4.4708    4.2125    0.0000 O   0  0  0  0  0  0  0  0  0  0  0  0
   -5.9208    6.6792    0.0000 C   0  0  0  0  0  0  0  0  0  0  0  0
   -2.3250    6.2792    0.0000 C   0  0  0  0  0  0  0  0  0  0  0  0
   -4.4833    7.5167    0.0000 C   0  0  0  0  0  0  0  0  0  0  0  0
   -2.3250    5.4542    0.0000 C   0  0  0  0  0  0  0  0  0  0  0  0
   -5.1875    2.9708    0.0000 Cl  0  0  0  0  0  0  0  0  0  0  0  0
   -3.0333    2.5625    0.0000 C   0  0  0  0  0  0  0  0  0  0  0  0
   -3.7708    7.9292    0.0000 C   0  0  0  0  0  0  0  0  0  0  0  0
   -3.0500    7.5167    0.0000 C   0  0  0  0  0  0  0  0  0  0  0  0
   -4.4708    1.7333    0.0000 C   0  0  0  0  0  0  0  0  0  0  0  0
   -5.9208    7.5042    0.0000 C   0  0  0  0  0  0  0  0  0  0  0  0
   -6.6167    6.2542    0.0000 C   0  0  0  0  0  0  0  0  0  0  0  0
   -3.0333    1.7333    0.0000 C   0  0  0  0  0  0  0  0  0  0  0  0
   -6.6292    7.9167    0.0000 C   0  0  0  0  0  0  0  0  0  0  0  0
   -7.3417    6.6667    0.0000 C   0  0  0  0  0  0  0  0  0  0  0  0
   -3.7500    1.3208    0.0000 C   0  0  0  0  0  0  0  0  0  0  0  0
   -7.3417    7.5042    0.0000 C   0  0  0  0  0  0  0  0  0  0  0  0
  2  1  1  0  0  0  0
  3  1  1  0  0  0  0
  4  6  1  0  0  0  0
  5  4  1  0  0  0  0
  6  8  1  0  0  0  0
  7  3  1  0  0  0  0
  8  7  2  0  0  0  0
  9  3  2  0  0  0  0
 10  5  1  0  0  0  0
 11  2  2  0  0  0  0
 12  4  2  0  0  0  0
 13  2  1  0  0  0  0
 14  9  1  0  0  0  0
 15  1  1  0  0  0  0
 16 14  2  0  0  0  0
 17 10  1  0  0  0  0
 18  5  2  0  0  0  0
 19 15  1  0  0  0  0
 20 19  1  0  0  0  0
 21 10  2  0  0  0  0
 22 13  2  0  0  0  0
 23 13  1  0  0  0  0
 24 18  1  0  0  0  0
 25 22  1  0  0  0  0
 26 23  2  0  0  0  0
 27 24  2  0  0  0  0
 28 26  1  0  0  0  0
 20  9  1  0  0  0  0
 16  8  1  0  0  0  0
 28 25  2  0  0  0  0
 27 21  1  0  0  0  0
M  END
> <IDNUMBER>
F2049-0461

> <Chemical_Name>
N-(1-benzoyl-1,2,3,4-tetrahydroquinolin-7-yl)-2-chlorobenzamide

> <CAS>
946219-24-5

> <PriceCoeff>
1.00

> <MW>
390.86

> <Description>
solid

> <FSP3>
0.13

> <clogP>
3.63

> <TPSA>
49.41

> <Acceptor>
2

> <Donor>
1

> <RotBonds>
4

> <HAC>
28

> <Collection>
General

> <Reference_compound>
CHEMBL2286419

> <Similarity>
0.8060

$$$$
F2738-0188
  -ISIS-  06222321152D

 34 38  0  0  0  0  0  0  0  0999 V2000
   -3.1583    3.3958    0.0000 C   0  0  0  0  0  0  0  0  0  0  0  0
   -3.8708    3.8000    0.0000 N   0  0  3  0  0  0  0  0  0  0  0  0
   -2.4083    3.7333    0.0000 N   0  0  0  0  0  0  0  0  0  0  0  0
   -6.0000    0.9333    0.0000 N   0  0  3  0  0  0  0  0  0  0  0  0
   -3.0750    2.5833    0.0000 S   0  0  0  0  0  0  0  0  0  0  0  0
   -4.5833    3.3958    0.0000 C   0  0  0  0  0  0  0  0  0  0  0  0
   -1.8583    3.1250    0.0000 C   0  0  0  0  0  0  0  0  0  0  0  0
   -5.2958    1.3458    0.0000 C   0  0  0  0  0  0  0  0  0  0  0  0
   -6.7292    1.3000    0.0000 C   0  0  0  0  0  0  0  0  0  0  0  0
   -6.1167    0.1208    0.0000 C   0  0  0  0  0  0  0  0  0  0  0  0
   -2.2583    2.4083    0.0000 C   0  0  0  0  0  0  0  0  0  0  0  0
   -4.5833    2.5708    0.0000 C   0  0  0  0  0  0  0  0  0  0  0  0
   -5.2958    2.1625    0.0000 C   0  0  0  0  0  0  0  0  0  0  0  0
   -3.8708    4.6042    0.0000 C   0  0  0  0  0  0  0  0  0  0  0  0
   -5.2958    3.8000    0.0000 O   0  0  0  0  0  0  0  0  0  0  0  0
   -7.3125    0.7000    0.0000 C   0  0  0  0  0  0  0  0  0  0  0  0
   -6.9292   -0.0292    0.0000 C   0  0  0  0  0  0  0  0  0  0  0  0
   -6.8667    2.1125    0.0000 O   0  0  0  0  0  0  0  0  0  0  0  0
   -5.5458   -0.4542    0.0000 O   0  0  0  0  0  0  0  0  0  0  0  0
   -2.4500    4.6042    0.0000 N   0  0  0  0  0  0  0  0  0  0  0  0
   -1.0333    3.1208    0.0000 C   0  0  0  0  0  0  0  0  0  0  0  0
   -3.1583    5.0167    0.0000 C   0  0  0  0  0  0  0  0  0  0  0  0
   -4.5833    0.9250    0.0000 C   0  0  0  0  0  0  0  0  0  0  0  0
   -1.8458    1.6958    0.0000 C   0  0  0  0  0  0  0  0  0  0  0  0
   -3.8708    2.1583    0.0000 C   0  0  0  0  0  0  0  0  0  0  0  0
   -3.8708    1.3375    0.0000 C   0  0  0  0  0  0  0  0  0  0  0  0
   -1.0333    1.6958    0.0000 C   0  0  0  0  0  0  0  0  0  0  0  0
   -1.7458    5.0167    0.0000 C   0  0  0  0  0  0  0  0  0  0  0  0
   -0.6250    2.4083    0.0000 C   0  0  0  0  0  0  0  0  0  0  0  0
   -0.6208    3.8333    0.0000 C   0  0  0  0  0  0  0  0  0  0  0  0
   -3.1625    5.8417    0.0000 C   0  0  0  0  0  0  0  0  0  0  0  0
    0.2000    3.8333    0.0000 C   0  0  0  0  0  0  0  0  0  0  0  0
   -1.7375    5.8417    0.0000 C   0  0  0  0  0  0  0  0  0  0  0  0
   -2.4583    6.2542    0.0000 C   0  0  0  0  0  0  0  0  0  0  0  0
  2  1  1  0  0  0  0
  3  1  2  0  0  0  0
  4  8  1  0  0  0  0
  5  1  1  0  0  0  0
  6  2  1  0  0  0  0
  7  3  1  0  0  0  0
  8 13  1  0  0  0  0
  9  4  1  0  0  0  0
 10  4  1  0  0  0  0
 11  5  1  0  0  0  0
 12  6  1  0  0  0  0
 13 12  2  0  0  0  0
 14  2  1  0  0  0  0
 15  6  2  0  0  0  0
 16  9  1  0  0  0  0
 17 10  1  0  0  0  0
 18  9  2  0  0  0  0
 19 10  2  0  0  0  0
 20 22  2  0  0  0  0
 21  7  1  0  0  0  0
 22 14  1  0  0  0  0
 23 26  1  0  0  0  0
 24 11  1  0  0  0  0
 25 12  1  0  0  0  0
 26 25  2  0  0  0  0
 27 24  2  0  0  0  0
 28 20  1  0  0  0  0
 29 21  2  0  0  0  0
 30 21  1  0  0  0  0
 31 22  1  0  0  0  0
 32 30  1  0  0  0  0
 33 34  1  0  0  0  0
 34 31  2  0  0  0  0
 11  7  2  0  0  0  0
 29 27  1  0  0  0  0
 33 28  2  0  0  0  0
  8 23  2  0  0  0  0
 17 16  1  0  0  0  0
M  END
> <IDNUMBER>
F2738-0188

> <Chemical_Name>
3-(2,5-dioxopyrrolidin-1-yl)-N-(4-ethyl-1,3-benzothiazol-2-yl)-N-[(pyridin-2-yl)methyl]benzamide

> <CAS>
922665-57-4

> <PriceCoeff>
1.00

> <MW>
470.54

> <Description>
solid

> <FSP3>
0.19

> <clogP>
2.83

> <TPSA>
111.71

> <Acceptor>
5

> <Donor>
1

> <RotBonds>
7

> <HAC>
34

> <Collection>
General

$$$$
F1816-1183
  -ISIS-  06222321142D

 25 27  0  0  0  0  0  0  0  0999 V2000
   -4.5958    2.5583    0.0000 C   0  0  0  0  0  0  0  0  0  0  0  0
   -3.1583    5.0417    0.0000 N   0  0  3  0  0  0  0  0  0  0  0  0
   -4.6833    1.7333    0.0000 N   0  0  3  0  0  0  0  0  0  0  0  0
   -3.8625    2.9833    0.0000 N   0  0  0  0  0  0  0  0  0  0  0  0
   -5.3208    2.8958    0.0000 S   0  0  0  0  0  0  0  0  0  0  0  0
   -5.4875    1.5833    0.0000 C   0  0  0  0  0  0  0  0  0  0  0  0
   -5.8958    2.3000    0.0000 C   0  0  0  0  0  0  0  0  0  0  0  0
   -2.4833    5.5167    0.0000 C   0  0  0  0  0  0  0  0  0  0  0  0
   -3.8208    5.5167    0.0000 C   0  0  0  0  0  0  0  0  0  0  0  0
   -3.8708    3.8000    0.0000 C   0  0  0  0  0  0  0  0  0  0  0  0
   -3.1583    4.2125    0.0000 C   0  0  0  0  0  0  0  0  0  0  0  0
   -4.2583    0.3583    0.0000 C   0  0  0  0  0  0  0  0  0  0  0  0
   -4.4458   -0.4542    0.0000 C   0  0  0  0  0  0  0  0  0  0  0  0
   -5.9208    0.8833    0.0000 C   0  0  0  0  0  0  0  0  0  0  0  0
   -3.5708    6.3042    0.0000 C   0  0  0  0  0  0  0  0  0  0  0  0
   -2.7458    6.3125    0.0000 C   0  0  0  0  0  0  0  0  0  0  0  0
   -4.6083    5.2750    0.0000 O   0  0  0  0  0  0  0  0  0  0  0  0
   -1.6958    5.2625    0.0000 O   0  0  0  0  0  0  0  0  0  0  0  0
   -4.5833    4.2167    0.0000 O   0  0  0  0  0  0  0  0  0  0  0  0
   -4.0708    1.1625    0.0000 C   0  0  0  0  0  0  0  0  0  0  0  0
   -6.7042    2.3208    0.0000 C   0  0  0  0  0  0  0  0  0  0  0  0
   -5.5208    0.1458    0.0000 O   0  0  0  0  0  0  0  0  0  0  0  0
   -7.1417    1.6208    0.0000 C   0  0  0  0  0  0  0  0  0  0  0  0
   -6.7292    0.8875    0.0000 C   0  0  0  0  0  0  0  0  0  0  0  0
   -5.9583   -0.5542    0.0000 C   0  0  0  0  0  0  0  0  0  0  0  0
  2 11  1  0  0  0  0
  3  1  1  0  0  0  0
  4  1  2  0  0  0  0
  5  1  1  0  0  0  0
  6  3  1  0  0  0  0
  7  5  1  0  0  0  0
  8  2  1  0  0  0  0
  9  2  1  0  0  0  0
 10  4  1  0  0  0  0
 11 10  1  0  0  0  0
 12 20  1  0  0  0  0
 13 12  3  0  0  0  0
 14  6  1  0  0  0  0
 15  9  1  0  0  0  0
 16  8  1  0  0  0  0
 17  9  2  0  0  0  0
 18  8  2  0  0  0  0
 19 10  2  0  0  0  0
 20  3  1  0  0  0  0
 21  7  1  0  0  0  0
 22 14  1  0  0  0  0
 23 21  2  0  0  0  0
 24 14  2  0  0  0  0
 25 22  1  0  0  0  0
  6  7  2  0  0  0  0
 23 24  1  0  0  0  0
 16 15  1  0  0  0  0
M  END
> <IDNUMBER>
F1816-1183

> <Chemical_Name>
2-(2,5-dioxopyrrolidin-1-yl)-N-[(2Z)-4-methoxy-3-(prop-2-yn-1-yl)-2,3-dihydro-1,3-benzothiazol-2-ylidene]acetamide

> <CAS>
868674-73-1

> <PriceCoeff>
1.00

> <MW>
357.38

> <Description>
solid

> <FSP3>
0.29

> <clogP>
2.80

> <TPSA>
104.58

> <Acceptor>
4

> <Donor>
0

> <RotBonds>
6

> <HAC>
25

> <Collection>
General

$$$$
F3385-4356
  -ISIS-  06222321152D

 26 28  0  0  0  0  0  0  0  0999 V2000
    5.6542   -7.8625    0.0000 C   0  0  0  0  0  0  0  0  0  0  0  0
    6.3792   -8.2667    0.0000 C   0  0  0  0  0  0  0  0  0  0  0  0
    7.0917   -7.8542    0.0000 C   0  0  0  0  0  0  0  0  0  0  0  0
    7.0917   -7.0250    0.0000 C   0  0  0  0  0  0  0  0  0  0  0  0
    5.6542   -7.0292    0.0000 C   0  0  0  0  0  0  0  0  0  0  0  0
    6.3625   -6.6042    0.0000 O   0  0  0  0  0  0  0  0  0  0  0  0
    3.5042   -5.8042    0.0000 C   0  0  0  0  0  0  0  0  0  0  0  0
    4.9417   -8.2792    0.0000 C   0  0  0  0  0  0  0  0  0  0  0  0
    4.2292   -7.0375    0.0000 C   0  0  0  0  0  0  0  0  0  0  0  0
    4.9417   -6.6250    0.0000 C   0  0  0  0  0  0  0  0  0  0  0  0
    3.5167   -6.6292    0.0000 O   0  0  0  0  0  0  0  0  0  0  0  0
    4.2292   -7.8667    0.0000 C   0  0  0  0  0  0  0  0  0  0  0  0
    2.7917   -5.3917    0.0000 N   0  0  3  0  0  0  0  0  0  0  0  0
    6.3875   -9.1000    0.0000 O   0  0  0  0  0  0  0  0  0  0  0  0
    4.2167   -5.3875    0.0000 O   0  0  0  0  0  0  0  0  0  0  0  0
    7.8000   -6.6125    0.0000 C   0  0  0  0  0  0  0  0  0  0  0  0
    4.9417   -9.0917    0.0000 O   0  0  0  0  0  0  0  0  0  0  0  0
    2.7875   -4.5667    0.0000 C   0  0  0  0  0  0  0  0  0  0  0  0
    2.0792   -5.8042    0.0000 C   0  0  0  0  0  0  0  0  0  0  0  0
    8.5125   -7.0250    0.0000 C   0  0  0  0  0  0  0  0  0  0  0  0
    7.7917   -5.7917    0.0000 C   0  0  0  0  0  0  0  0  0  0  0  0
    4.2292   -9.5125    0.0000 C   0  0  0  0  0  0  0  0  0  0  0  0
    3.5125   -9.1000    0.0000 C   0  0  0  0  0  0  0  0  0  0  0  0
    8.5042   -5.3750    0.0000 C   0  0  0  0  0  0  0  0  0  0  0  0
    9.2292   -6.6125    0.0000 C   0  0  0  0  0  0  0  0  0  0  0  0
    9.2292   -5.7875    0.0000 C   0  0  0  0  0  0  0  0  0  0  0  0
  2  1  1  0  0  0  0
  3  2  1  0  0  0  0
  4  6  1  0  0  0  0
  5  1  1  0  0  0  0
  6  5  1  0  0  0  0
  7 11  1  0  0  0  0
  8  1  2  0  0  0  0
  9 12  2  0  0  0  0
 10  5  2  0  0  0  0
 11  9  1  0  0  0  0
 12  8  1  0  0  0  0
 13  7  1  0  0  0  0
 14  2  2  0  0  0  0
 15  7  2  0  0  0  0
 16  4  1  0  0  0  0
 17  8  1  0  0  0  0
 18 13  1  0  0  0  0
 19 13  1  0  0  0  0
 20 16  2  0  0  0  0
 21 16  1  0  0  0  0
 22 17  1  0  0  0  0
 23 22  1  0  0  0  0
 24 21  2  0  0  0  0
 25 20  1  0  0  0  0
 26 24  1  0  0  0  0
  9 10  1  0  0  0  0
  4  3  2  0  0  0  0
 26 25  2  0  0  0  0
M  END
> <IDNUMBER>
F3385-4356

> <Chemical_Name>
5-ethoxy-4-oxo-2-phenyl-4H-chromen-7-yl N,N-dimethylcarbamate

> <CAS>
919741-91-6

> <PriceCoeff>
1.00

> <MW>
353.37

> <Description>
solid

> <FSP3>
0.20

> <clogP>
3.52

> <TPSA>
65.07

> <Acceptor>
5

> <Donor>
0

> <RotBonds>
6

> <HAC>
26

> <Collection>
General

> <Reference_compound>
CHEMBL16782

> <Similarity>
0.8110

$$$$
F2610-0316
  -ISIS-  06222321142D

 24 26  0  0  0  0  0  0  0  0999 V2000
   -1.1750    2.1083    0.0000 C   0  0  0  0  0  0  0  0  0  0  0  0
    0.5750    4.0417    0.0000 N   0  0  3  0  0  0  0  0  0  0  0  0
   -1.4000    1.3958    0.0000 N   0  0  3  0  0  0  0  0  0  0  0  0
   -0.4583    2.3458    0.0000 N   0  0  0  0  0  0  0  0  0  0  0  0
   -1.7625    2.5500    0.0000 S   0  0  0  0  0  0  0  0  0  0  0  0
    1.2167    4.4167    0.0000 C   0  0  0  0  0  0  0  0  0  0  0  0
    0.0167    4.5417    0.0000 C   0  0  0  0  0  0  0  0  0  0  0  0
   -2.1500    1.4000    0.0000 C   0  0  0  0  0  0  0  0  0  0  0  0
   -0.2958    3.0833    0.0000 C   0  0  0  0  0  0  0  0  0  0  0  0
   -2.3833    2.1125    0.0000 C   0  0  0  0  0  0  0  0  0  0  0  0
    0.4167    3.3125    0.0000 C   0  0  0  0  0  0  0  0  0  0  0  0
    0.3250    5.2167    0.0000 C   0  0  0  0  0  0  0  0  0  0  0  0
    1.0625    5.1542    0.0000 C   0  0  0  0  0  0  0  0  0  0  0  0
   -0.7208    4.3917    0.0000 O   0  0  0  0  0  0  0  0  0  0  0  0
    1.9125    4.1042    0.0000 O   0  0  0  0  0  0  0  0  0  0  0  0
   -0.8583    3.5833    0.0000 O   0  0  0  0  0  0  0  0  0  0  0  0
   -0.9625    0.7833    0.0000 C   0  0  0  0  0  0  0  0  0  0  0  0
   -2.6583    0.8458    0.0000 C   0  0  0  0  0  0  0  0  0  0  0  0
   -3.1083    2.2750    0.0000 C   0  0  0  0  0  0  0  0  0  0  0  0
   -1.2708    0.1000    0.0000 C   0  0  0  0  0  0  0  0  0  0  0  0
   -3.3833    1.0083    0.0000 C   0  0  0  0  0  0  0  0  0  0  0  0
   -3.6125    1.7208    0.0000 C   0  0  0  0  0  0  0  0  0  0  0  0
   -0.8333   -0.5042    0.0000 C   0  0  0  0  0  0  0  0  0  0  0  0
   -4.3500    1.8958    0.0000 H   0  0  0  0  0  0  0  0  0  0  0  0
  2 11  1  0  0  0  0
  3  1  1  0  0  0  0
  4  1  2  0  0  0  0
  5  1  1  0  0  0  0
  6  2  1  0  0  0  0
  7  2  1  0  0  0  0
  8  3  1  0  0  0  0
  9  4  1  0  0  0  0
 10  5  1  0  0  0  0
 11  9  1  0  0  0  0
 12  7  1  0  0  0  0
 13  6  1  0  0  0  0
 14  7  2  0  0  0  0
 15  6  2  0  0  0  0
 16  9  2  0  0  0  0
 17  3  1  0  0  0  0
 18  8  1  0  0  0  0
 19 10  1  0  0  0  0
 20 17  1  0  0  0  0
 21 18  2  0  0  0  0
 22 19  2  0  0  0  0
 23 20  1  0  0  0  0
 24 22  1  0  0  0  0
 10  8  2  0  0  0  0
 21 22  1  0  0  0  0
 12 13  1  0  0  0  0
M  END
> <IDNUMBER>
F2610-0316

> <Chemical_Name>
2-(2,5-dioxopyrrolidin-1-yl)-N-[(2Z)-3-propyl-2,3-dihydro-1,3-benzothiazol-2-ylidene]acetamide

> <CAS>
897492-06-7

> <PriceCoeff>
1.00

> <MW>
331.39

> <Description>
solid

> <FSP3>
0.38

> <clogP>
3.84

> <TPSA>
95.35

> <Acceptor>
3

> <Donor>
0

> <RotBonds>
5

> <HAC>
23

> <Collection>
General

$$$$
F3139-1697
  -ISIS-  06222321442D

 27 29  0  0  0  0  0  0  0  0999 V2000
    7.4125   -5.8167    0.0000 C   0  0  0  0  0  0  0  0  0  0  0  0
    6.6875   -6.2292    0.0000 C   0  0  0  0  0  0  0  0  0  0  0  0
    5.9667   -5.8167    0.0000 C   0  0  0  0  0  0  0  0  0  0  0  0
    7.4125   -4.9792    0.0000 C   0  0  0  0  0  0  0  0  0  0  0  0
    5.9750   -4.9792    0.0000 C   0  0  0  0  0  0  0  0  0  0  0  0
    8.1167   -6.2292    0.0000 C   0  0  0  0  0  0  0  0  0  0  0  0
    6.6917   -4.5625    0.0000 O   0  0  0  0  0  0  0  0  0  0  0  0
    3.1167   -4.9875    0.0000 C   0  0  0  0  0  0  0  0  0  0  0  0
    5.2542   -4.5667    0.0000 C   0  0  0  0  0  0  0  0  0  0  0  0
    8.8292   -5.8167    0.0000 C   0  0  0  0  0  0  0  0  0  0  0  0
    5.2542   -6.2250    0.0000 C   0  0  0  0  0  0  0  0  0  0  0  0
    9.5417   -6.2292    0.0000 C   0  0  0  0  0  0  0  0  0  0  0  0
    6.6875   -7.0542    0.0000 O   0  0  0  0  0  0  0  0  0  0  0  0
    3.8292   -4.5750    0.0000 O   0  0  0  0  0  0  0  0  0  0  0  0
    4.5417   -4.9875    0.0000 C   0  0  0  0  0  0  0  0  0  0  0  0
    9.5417   -7.0625    0.0000 C   0  0  0  0  0  0  0  0  0  0  0  0
    8.1167   -7.0542    0.0000 C   0  0  0  0  0  0  0  0  0  0  0  0
    3.1167   -5.8125    0.0000 O   0  0  0  0  0  0  0  0  0  0  0  0
    8.8292   -7.4667    0.0000 C   0  0  0  0  0  0  0  0  0  0  0  0
    4.5417   -5.8125    0.0000 C   0  0  0  0  0  0  0  0  0  0  0  0
    2.4042   -4.5750    0.0000 O   0  0  0  0  0  0  0  0  0  0  0  0
   10.2625   -5.8167    0.0000 O   0  0  0  0  0  0  0  0  0  0  0  0
   10.2542   -7.4750    0.0000 O   0  0  0  0  0  0  0  0  0  0  0  0
    1.6875   -4.9875    0.0000 C   0  0  0  0  0  0  0  0  0  0  0  0
   10.2542   -4.9917    0.0000 C   0  0  0  0  0  0  0  0  0  0  0  0
   10.9750   -7.0625    0.0000 C   0  0  0  0  0  0  0  0  0  0  0  0
    0.9750   -4.5750    0.0000 C   0  0  0  0  0  0  0  0  0  0  0  0
  2  1  1  0  0  0  0
  3  2  1  0  0  0  0
  4  1  2  0  0  0  0
  5  7  1  0  0  0  0
  6  1  1  0  0  0  0
  7  4  1  0  0  0  0
  8 14  1  0  0  0  0
  9  5  2  0  0  0  0
 10  6  1  0  0  0  0
 11  3  2  0  0  0  0
 12 10  2  0  0  0  0
 13  2  2  0  0  0  0
 14 15  1  0  0  0  0
 15  9  1  0  0  0  0
 16 19  2  0  0  0  0
 17  6  2  0  0  0  0
 18  8  2  0  0  0  0
 19 17  1  0  0  0  0
 20 11  1  0  0  0  0
 21  8  1  0  0  0  0
 22 12  1  0  0  0  0
 23 16  1  0  0  0  0
 24 21  1  0  0  0  0
 25 22  1  0  0  0  0
 26 23  1  0  0  0  0
 27 24  1  0  0  0  0
  3  5  1  0  0  0  0
 12 16  1  0  0  0  0
 20 15  2  0  0  0  0
M  END
> <IDNUMBER>
F3139-1697

> <Chemical_Name>
3-(3,4-dimethoxyphenyl)-4-oxo-4H-chromen-7-yl ethyl carbonate

> <CAS>
637751-01-0

> <PriceCoeff>
1.00

> <MW>
370.35

> <Description>
solid

> <FSP3>
0.20

> <clogP>
2.49

> <TPSA>
80.29

> <Acceptor>
7

> <Donor>
0

> <RotBonds>
7

> <HAC>
27

> <Collection>
General

> <Reference_compound>
CHEMBL455048

> <Similarity>
0.8290

$$$$
F0807-0134
  -ISIS-  06222321452D

 22 23  0  0  0  0  0  0  0  0999 V2000
   -1.0833    0.1708    0.0000 N   0  0  0  0  0  0  0  0  0  0  0  0
   -1.5625   -0.6500    0.0000 C   0  0  0  0  0  0  0  0  0  0  0  0
   -0.1208    0.1708    0.0000 C   0  0  0  0  0  0  0  0  0  0  0  0
   -2.5000   -0.6500    0.0000 C   0  0  0  0  0  0  0  0  0  0  0  0
    2.7167    0.1708    0.0000 N   0  0  3  0  0  0  0  0  0  0  0  0
   -1.0833   -1.4667    0.0000 C   0  0  0  0  0  0  0  0  0  0  0  0
    0.3542   -0.6500    0.0000 N   0  0  0  0  0  0  0  0  0  0  0  0
    0.3542    0.9958    0.0000 S   0  0  0  0  0  0  0  0  0  0  0  0
    4.6167    0.1708    0.0000 O   0  0  0  0  0  0  0  0  0  0  0  0
   -1.5625   -2.2875    0.0000 C   0  0  0  0  0  0  0  0  0  0  0  0
   -2.9833   -1.4667    0.0000 C   0  0  0  0  0  0  0  0  0  0  0  0
   -2.5000   -2.2875    0.0000 C   0  0  0  0  0  0  0  0  0  0  0  0
   -0.1458   -1.4667    0.0000 O   0  0  0  0  0  0  0  0  0  0  0  0
    1.3000   -0.6500    0.0000 C   0  0  0  0  0  0  0  0  0  0  0  0
    1.7792    0.1708    0.0000 C   0  0  0  0  0  0  0  0  0  0  0  0
   -3.9208   -1.4667    0.0000 O   0  0  0  0  0  0  0  0  0  0  0  0
    3.2000   -0.6500    0.0000 C   0  0  0  0  0  0  0  0  0  0  0  0
    3.2000    0.9958    0.0000 C   0  0  0  0  0  0  0  0  0  0  0  0
    4.1375   -0.6500    0.0000 C   0  0  0  0  0  0  0  0  0  0  0  0
    4.1375    0.9958    0.0000 C   0  0  0  0  0  0  0  0  0  0  0  0
    0.3375   -2.2875    0.0000 C   0  0  0  0  0  0  0  0  0  0  0  0
   -4.4083   -0.6500    0.0000 C   0  0  0  0  0  0  0  0  0  0  0  0
  2  1  1  0  0  0  0
  3  1  2  0  0  0  0
  4  2  1  0  0  0  0
  5 15  1  0  0  0  0
  6  2  2  0  0  0  0
  7  3  1  0  0  0  0
  8  3  1  0  0  0  0
  9 20  1  0  0  0  0
 10  6  1  0  0  0  0
 11  4  2  0  0  0  0
 12 10  2  0  0  0  0
 13  6  1  0  0  0  0
 14  7  1  0  0  0  0
 15 14  1  0  0  0  0
 16 11  1  0  0  0  0
 17  5  1  0  0  0  0
 18  5  1  0  0  0  0
 19 17  1  0  0  0  0
 20 18  1  0  0  0  0
 21 13  1  0  0  0  0
 22 16  1  0  0  0  0
 12 11  1  0  0  0  0
 19  9  1  0  0  0  0
M  END
> <IDNUMBER>
F0807-0134

> <Chemical_Name>
(E)-N'-(2,5-dimethoxyphenyl)-N-[2-(morpholin-4-yl)ethyl]carbamimidothioic acid

> <CAS>
326016-25-5

> <PriceCoeff>
1.00

> <MW>
325.43

> <Description>
solid

> <FSP3>
0.53

> <clogP>
1.12

> <TPSA>
94.12

> <Acceptor>
3

> <Donor>
4

> <RotBonds>
7

> <HAC>
22

> <Collection>
General

> <Reference_compound>
CHEMBL1311140

> <Similarity>
0.9660

$$$$
F3385-2699
  -ISIS-  06222321462D

 28 30  0  0  0  0  0  0  0  0999 V2000
    0.2042   -0.9667    0.0000 C   0  0  0  0  0  0  0  0  0  0  0  0
   -0.5125   -1.3792    0.0000 C   0  0  0  0  0  0  0  0  0  0  0  0
   -1.2250   -0.9667    0.0000 C   0  0  0  0  0  0  0  0  0  0  0  0
    0.2042   -0.1417    0.0000 C   0  0  0  0  0  0  0  0  0  0  0  0
   -1.2250   -0.1417    0.0000 C   0  0  0  0  0  0  0  0  0  0  0  0
    0.9167   -1.3875    0.0000 C   0  0  0  0  0  0  0  0  0  0  0  0
   -0.5125    0.2708    0.0000 O   0  0  0  0  0  0  0  0  0  0  0  0
   -2.6625    1.5125    0.0000 C   0  0  0  0  0  0  0  0  0  0  0  0
   -1.9375    0.2708    0.0000 C   0  0  0  0  0  0  0  0  0  0  0  0
    1.6292   -0.9667    0.0000 C   0  0  0  0  0  0  0  0  0  0  0  0
   -1.9375   -1.3792    0.0000 C   0  0  0  0  0  0  0  0  0  0  0  0
    2.3500   -1.3792    0.0000 C   0  0  0  0  0  0  0  0  0  0  0  0
   -3.3750    0.2708    0.0000 O   0  0  0  0  0  0  0  0  0  0  0  0
   -3.3750    1.0958    0.0000 C   0  0  3  0  0  0  0  0  0  0  0  0
   -0.5125   -2.2042    0.0000 O   0  0  0  0  0  0  0  0  0  0  0  0
   -2.6583   -0.1417    0.0000 C   0  0  0  0  0  0  0  0  0  0  0  0
    2.3500   -2.2125    0.0000 C   0  0  0  0  0  0  0  0  0  0  0  0
    0.9167   -2.2125    0.0000 C   0  0  0  0  0  0  0  0  0  0  0  0
   -1.9458    1.1000    0.0000 O   0  0  0  0  0  0  0  0  0  0  0  0
    1.6292   -2.6250    0.0000 C   0  0  0  0  0  0  0  0  0  0  0  0
   -2.6583   -0.9667    0.0000 C   0  0  0  0  0  0  0  0  0  0  0  0
   -2.6583    2.3375    0.0000 O   0  0  0  0  0  0  0  0  0  0  0  0
    3.0667   -0.9667    0.0000 O   0  0  0  0  0  0  0  0  0  0  0  0
    3.0750   -2.6292    0.0000 O   0  0  0  0  0  0  0  0  0  0  0  0
   -4.0958    1.5083    0.0000 C   0  0  0  0  0  0  0  0  0  0  0  0
   -1.9458    2.7500    0.0000 C   0  0  0  0  0  0  0  0  0  0  0  0
    3.7792   -1.3875    0.0000 C   0  0  0  0  0  0  0  0  0  0  0  0
    3.0792   -3.4625    0.0000 C   0  0  0  0  0  0  0  0  0  0  0  0
  2  1  1  0  0  0  0
  3  2  1  0  0  0  0
  4  1  2  0  0  0  0
  5  7  1  0  0  0  0
  6  1  1  0  0  0  0
  7  4  1  0  0  0  0
  8 14  1  0  0  0  0
  9  5  2  0  0  0  0
 10  6  1  0  0  0  0
 11  3  2  0  0  0  0
 12 10  2  0  0  0  0
 13 16  1  0  0  0  0
 14 13  1  0  0  0  0
 15  2  2  0  0  0  0
 16  9  1  0  0  0  0
 17 20  2  0  0  0  0
 18  6  2  0  0  0  0
 19  8  2  0  0  0  0
 20 18  1  0  0  0  0
 21 11  1  0  0  0  0
 22  8  1  0  0  0  0
 23 12  1  0  0  0  0
 24 17  1  0  0  0  0
 25 14  1  0  0  0  0
 26 22  1  0  0  0  0
 27 23  1  0  0  0  0
 28 24  1  0  0  0  0
  5  3  1  0  0  0  0
 17 12  1  0  0  0  0
 16 21  2  0  0  0  0
M  END
> <IDNUMBER>
F3385-2699

> <Chemical_Name>
methyl 2-{[3-(3,4-dimethoxyphenyl)-4-oxo-4H-chromen-7-yl]oxy}propanoate

> <CAS>
858764-10-0

> <PriceCoeff>
1.00

> <MW>
384.38

> <Description>
solid

> <FSP3>
0.24

> <clogP>
2.68

> <TPSA>
80.29

> <Acceptor>
7

> <Donor>
0

> <RotBonds>
7

> <HAC>
28

> <Collection>
General

> <Reference_compound>
CHEMBL455048

> <Similarity>
0.8120

$$$$
F0918-6187
  -ISIS-  06222321142D

 22 23  0  0  0  0  0  0  0  0999 V2000
  -13.3167   12.4625    0.0000 C   0  0  0  0  0  0  0  0  0  0  0  0
  -12.4375   13.9292    0.0000 C   0  0  0  0  0  0  0  0  0  0  0  0
  -12.2167   11.1917    0.0000 N   0  0  0  0  0  0  0  0  0  0  0  0
  -10.8042   13.5750    0.0000 C   0  0  0  0  0  0  0  0  0  0  0  0
  -10.6417   11.8667    0.0000 N   0  0  3  0  0  0  0  0  0  0  0  0
  -15.0167   12.3042    0.0000 N   0  3  0  0  0  0  0  0  0  0  0  0
   -9.1917    4.2000    0.0000 C   0  0  0  0  0  0  0  0  0  0  0  0
  -10.5667    3.1958    0.0000 N   0  0  0  0  0  0  0  0  0  0  0  0
   -7.8542    3.2333    0.0000 C   0  0  0  0  0  0  0  0  0  0  0  0
   -9.1917    5.9167    0.0000 N   0  0  0  0  0  0  0  0  0  0  0  0
  -10.0292    1.5958    0.0000 O   0  0  0  0  0  0  0  0  0  0  0  0
   -8.3417    1.6208    0.0000 C   0  0  0  0  0  0  0  0  0  0  0  0
  -16.0000   13.7042    0.0000 O   0  5  0  0  0  0  0  0  0  0  0  0
   -7.7167    6.7750    0.0000 C   0  0  0  0  0  0  0  0  0  0  0  0
  -15.7292   10.7542    0.0000 O   0  0  0  0  0  0  0  0  0  0  0  0
  -13.1042   15.5292    0.0000 Cl  0  0  0  0  0  0  0  0  0  0  0  0
   -6.2542    5.9292    0.0000 O   0  0  0  0  0  0  0  0  0  0  0  0
   -9.1667   11.0167    0.0000 C   0  0  0  0  0  0  0  0  0  0  0  0
   -9.5292   14.7042    0.0000 C   0  0  0  0  0  0  0  0  0  0  0  0
   -9.1917    9.3167    0.0000 C   0  0  0  0  0  0  0  0  0  0  0  0
   -7.7167    8.4667    0.0000 C   0  0  0  0  0  0  0  0  0  0  0  0
   -7.3125    0.2333    0.0000 C   0  0  0  0  0  0  0  0  0  0  0  0
  2  1  1  0  0  0  0
  3  1  2  0  0  0  0
  4  2  2  0  0  0  0
  5  3  1  0  0  0  0
  6  1  1  0  0  0  0
  7 10  1  0  0  0  0
  8  7  2  0  0  0  0
  9  7  1  0  0  0  0
 10 14  1  0  0  0  0
 11  8  1  0  0  0  0
 12  9  2  0  0  0  0
 13  6  1  0  0  0  0
 14 21  1  0  0  0  0
 15  6  2  0  0  0  0
 16  2  1  0  0  0  0
 17 14  2  0  0  0  0
 18  5  1  0  0  0  0
 19  4  1  0  0  0  0
 20 18  1  0  0  0  0
 21 20  1  0  0  0  0
 22 12  1  0  0  0  0
  4  5  1  0  0  0  0
 12 11  1  0  0  0  0
M  CHG  2   6   1  13  -1
M  END
> <IDNUMBER>
F0918-6187

> <Chemical_Name>
4-(4-chloro-5-methyl-3-nitro-1H-pyrazol-1-yl)-N-(5-methyl-1,2-oxazol-3-yl)butanamide

> <CAS>
852691-53-3

> <PriceCoeff>
1.00

> <MW>
327.72

> <Description>
solid

> <FSP3>
0.42

> <clogP>
1.57

> <TPSA>
116.09

> <Acceptor>
6

> <Donor>
1

> <RotBonds>
6

> <HAC>
22

> <Collection>
General

$$$$
F3260-0633
  -ISIS-  06222321152D

 22 24  0  0  0  0  0  0  0  0999 V2000
    8.4875    2.1000    0.0000 C   0  0  0  0  0  0  0  0  0  0  0  0
    8.4875    3.5000    0.0000 C   0  0  0  0  0  0  0  0  0  0  0  0
    6.0542    3.5000    0.0000 N   0  0  3  0  0  0  0  0  0  0  0  0
    9.7917    1.6833    0.0000 N   0  0  0  0  0  0  0  0  0  0  0  0
    7.2750    1.4000    0.0000 N   0  0  3  0  0  0  0  0  0  0  0  0
    6.0542    2.1000    0.0000 C   0  0  0  0  0  0  0  0  0  0  0  0
    7.2750    4.1917    0.0000 C   0  0  0  0  0  0  0  0  0  0  0  0
   10.6292    2.8000    0.0000 C   0  0  0  0  0  0  0  0  0  0  0  0
    9.7917    3.9708    0.0000 N   0  0  3  0  0  0  0  0  0  0  0  0
    4.8417    4.1917    0.0000 C   0  0  0  0  0  0  0  0  0  0  0  0
    4.8417    1.4000    0.0000 O   0  0  0  0  0  0  0  0  0  0  0  0
    7.2750    5.5917    0.0000 O   0  0  0  0  0  0  0  0  0  0  0  0
   12.0292    2.7875    0.0000 S   0  0  0  0  0  0  0  0  0  0  0  0
    7.2750   -0.0000    0.0000 C   0  0  0  0  0  0  0  0  0  0  0  0
    3.6292    3.5000    0.0000 C   0  0  0  0  0  0  0  0  0  0  0  0
   10.2042    5.2917    0.0000 C   0  0  0  0  0  0  0  0  0  0  0  0
    1.2125    2.1000    0.0000 C   0  0  0  0  0  0  0  0  0  0  0  0
    2.4250    4.1917    0.0000 C   0  0  0  0  0  0  0  0  0  0  0  0
    3.6292    2.1000    0.0000 C   0  0  0  0  0  0  0  0  0  0  0  0
    2.4250    1.4000    0.0000 C   0  0  0  0  0  0  0  0  0  0  0  0
    1.2125    3.5000    0.0000 C   0  0  0  0  0  0  0  0  0  0  0  0
    0.0000    1.4000    0.0000 C   0  0  0  0  0  0  0  0  0  0  0  0
  2  1  2  0  0  0  0
  3  6  1  0  0  0  0
  4  1  1  0  0  0  0
  5  1  1  0  0  0  0
  6  5  1  0  0  0  0
  7  2  1  0  0  0  0
  8  4  2  0  0  0  0
  9  2  1  0  0  0  0
 10  3  1  0  0  0  0
 11  6  2  0  0  0  0
 12  7  2  0  0  0  0
 13  8  1  0  0  0  0
 14  5  1  0  0  0  0
 15 10  1  0  0  0  0
 16  9  1  0  0  0  0
 17 20  1  0  0  0  0
 18 15  2  0  0  0  0
 19 15  1  0  0  0  0
 20 19  2  0  0  0  0
 21 18  1  0  0  0  0
 22 17  1  0  0  0  0
  8  9  1  0  0  0  0
  7  3  1  0  0  0  0
 21 17  2  0  0  0  0
M  END
> <IDNUMBER>
F3260-0633

> <Chemical_Name>
3,7-dimethyl-1-[(4-methylphenyl)methyl]-8-sulfanyl-2,3,6,7-tetrahydro-1H-purine-2,6-dione

> <CAS>
1040669-23-5

> <PriceCoeff>
1.00

> <MW>
316.38

> <Description>
solid

> <FSP3>
0.27

> <clogP>
3.03

> <TPSA>
97.24

> <Acceptor>
3

> <Donor>
2

> <RotBonds>
2

> <HAC>
22

> <Collection>
General

> <Reference_compound>
CHEMBL113

> <Similarity>
0.8060

$$$$
F0208-0057
  -ISIS-  06222321442D

 21 22  0  0  0  0  0  0  0  0999 V2000
    1.1167    0.5833    0.0000 C   0  0  0  0  0  0  0  0  0  0  0  0
    1.1167   -0.1792    0.0000 N   0  3  0  0  0  0  0  0  0  0  0  0
    0.4792    0.9458    0.0000 C   0  0  0  0  0  0  0  0  0  0  0  0
    1.7542    0.9458    0.0000 C   0  0  0  0  0  0  0  0  0  0  0  0
   -0.1833    0.5625    0.0000 O   0  0  0  0  0  0  0  0  0  0  0  0
   -0.8458    0.9458    0.0000 C   0  0  0  0  0  0  0  0  0  0  0  0
    0.4792   -0.5542    0.0000 O   0  5  0  0  0  0  0  0  0  0  0  0
    1.7542   -0.5542    0.0000 O   0  0  0  0  0  0  0  0  0  0  0  0
    0.4792    1.7000    0.0000 C   0  0  0  0  0  0  0  0  0  0  0  0
   -0.8458    1.6833    0.0000 O   0  0  0  0  0  0  0  0  0  0  0  0
    1.7542    1.7000    0.0000 C   0  0  0  0  0  0  0  0  0  0  0  0
   -2.1458    0.9208    0.0000 O   0  0  0  0  0  0  0  0  0  0  0  0
   -1.5000    0.5625    0.0000 C   0  0  0  0  0  0  0  0  0  0  0  0
    1.1167    2.0625    0.0000 C   0  0  0  0  0  0  0  0  0  0  0  0
    2.4167    2.0833    0.0000 Cl  0  0  0  0  0  0  0  0  0  0  0  0
   -2.7833    0.5625    0.0000 C   0  0  0  0  0  0  0  0  0  0  0  0
   -3.4208    0.9208    0.0000 C   0  0  0  0  0  0  0  0  0  0  0  0
   -2.7833   -0.2000    0.0000 C   0  0  0  0  0  0  0  0  0  0  0  0
   -4.0625    0.5625    0.0000 C   0  0  0  0  0  0  0  0  0  0  0  0
   -3.4208   -0.5792    0.0000 C   0  0  0  0  0  0  0  0  0  0  0  0
   -4.0625   -0.2000    0.0000 C   0  0  0  0  0  0  0  0  0  0  0  0
  2  1  1  0  0  0  0
  3  1  1  0  0  0  0
  4  1  2  0  0  0  0
  5  3  1  0  0  0  0
  6  5  1  0  0  0  0
  7  2  1  0  0  0  0
  8  2  2  0  0  0  0
  9  3  2  0  0  0  0
 10  6  2  0  0  0  0
 11  4  1  0  0  0  0
 12 13  1  0  0  0  0
 13  6  1  0  0  0  0
 14 11  2  0  0  0  0
 15 11  1  0  0  0  0
 16 12  1  0  0  0  0
 17 16  1  0  0  0  0
 18 16  2  0  0  0  0
 19 17  2  0  0  0  0
 20 18  1  0  0  0  0
 21 20  2  0  0  0  0
  9 14  1  0  0  0  0
 21 19  1  0  0  0  0
M  CHG  2   2   1   7  -1
M  END
> <IDNUMBER>
F0208-0057

> <Chemical_Name>
4-chloro-2-nitrophenyl 2-phenoxyacetate

> <CAS>
391229-21-3

> <PriceCoeff>
1.00

> <MW>
307.69

> <Description>
solid

> <FSP3>
0.07

> <clogP>
3.45

> <TPSA>
78.67

> <Acceptor>
5

> <Donor>
0

> <RotBonds>
6

> <HAC>
21

> <Collection>
General

$$$$
F0346-1555
  -ISIS-  06222321452D

 22 23  0  0  0  0  0  0  0  0999 V2000
   -2.2208    1.1333    0.0000 C   0  0  0  0  0  0  0  0  0  0  0  0
   -2.8208    1.6125    0.0000 N   0  0  0  0  0  0  0  0  0  0  0  0
   -2.2208    0.3500    0.0000 N   0  3  0  0  0  0  0  0  0  0  0  0
   -1.5833    1.5708    0.0000 N   0  0  0  0  0  0  0  0  0  0  0  0
    2.3042    0.2958    0.0000 N   0  3  0  0  0  0  0  0  0  0  0  0
   -1.8208    2.3125    0.0000 N   0  0  3  0  0  0  0  0  0  0  0  0
   -2.6000    2.3125    0.0000 C   0  0  0  0  0  0  0  0  0  0  0  0
    1.6500    0.7125    0.0000 C   0  0  0  0  0  0  0  0  0  0  0  0
   -0.5625    2.7125    0.0000 C   0  0  0  0  0  0  0  0  0  0  0  0
   -1.3000    2.8958    0.0000 C   0  0  0  0  0  0  0  0  0  0  0  0
    0.9500    0.3500    0.0000 C   0  0  0  0  0  0  0  0  0  0  0  0
   -0.3000    1.9708    0.0000 N   0  0  0  0  0  0  0  0  0  0  0  0
    0.3500    1.5500    0.0000 C   0  0  0  0  0  0  0  0  0  0  0  0
    0.3042    0.7708    0.0000 C   0  0  0  0  0  0  0  0  0  0  0  0
   -2.9000   -0.0167    0.0000 O   0  5  0  0  0  0  0  0  0  0  0  0
    2.3000   -0.4792    0.0000 O   0  5  0  0  0  0  0  0  0  0  0  0
   -1.5625   -0.0500    0.0000 O   0  0  0  0  0  0  0  0  0  0  0  0
    3.0042    0.6500    0.0000 O   0  0  0  0  0  0  0  0  0  0  0  0
   -0.0458    3.3125    0.0000 O   0  0  0  0  0  0  0  0  0  0  0  0
    1.7000    1.5125    0.0000 C   0  0  0  0  0  0  0  0  0  0  0  0
    1.0292    1.9125    0.0000 C   0  0  0  0  0  0  0  0  0  0  0  0
   -0.3833    0.4125    0.0000 Cl  0  0  0  0  0  0  0  0  0  0  0  0
  2  1  1  0  0  0  0
  3  1  1  0  0  0  0
  4  1  2  0  0  0  0
  5  8  1  0  0  0  0
  6  4  1  0  0  0  0
  7  2  2  0  0  0  0
  8 20  2  0  0  0  0
  9 10  1  0  0  0  0
 10  6  1  0  0  0  0
 11 14  2  0  0  0  0
 12  9  1  0  0  0  0
 13 12  1  0  0  0  0
 14 13  1  0  0  0  0
 15  3  1  0  0  0  0
 16  5  1  0  0  0  0
 17  3  2  0  0  0  0
 18  5  2  0  0  0  0
 19  9  2  0  0  0  0
 20 21  1  0  0  0  0
 21 13  2  0  0  0  0
 22 14  1  0  0  0  0
  7  6  1  0  0  0  0
  8 11  1  0  0  0  0
M  CHG  4   3   1   5   1  15  -1  16  -1
M  END
> <IDNUMBER>
F0346-1555

> <Chemical_Name>
N-(2-chloro-4-nitrophenyl)-2-(3-nitro-1H-1,2,4-triazol-1-yl)acetamide

> <CAS>
314048-54-9

> <PriceCoeff>
1.00

> <MW>
326.65

> <Description>
solid

> <FSP3>
0.10

> <clogP>
0.31

> <TPSA>
146.09

> <Acceptor>
7

> <Donor>
1

> <RotBonds>
5

> <HAC>
22

> <Collection>
General

$$$$
F2548-0187
  -ISIS-  06222321462D

 27 30  0  0  0  0  0  0  0  0999 V2000
    2.1167   -1.8667    0.0000 C   0  0  0  0  0  0  0  0  0  0  0  0
    1.4042   -1.4542    0.0000 N   0  0  3  0  0  0  0  0  0  0  0  0
   -0.7458    0.6208    0.0000 C   0  0  0  0  0  0  0  0  0  0  0  0
   -0.7458   -1.0375    0.0000 O   0  0  0  0  0  0  0  0  0  0  0  0
   -0.0250   -0.6292    0.0000 C   0  0  3  0  0  0  0  0  0  0  0  0
   -1.4583    0.2000    0.0000 C   0  0  0  0  0  0  0  0  0  0  0  0
   -1.4583   -0.6292    0.0000 C   0  0  0  0  0  0  0  0  0  0  0  0
    2.1125   -2.6917    0.0000 N   0  0  0  0  0  0  0  0  0  0  0  0
   -0.0333    0.2000    0.0000 C   0  0  0  0  0  0  0  0  0  0  0  0
    4.2500   -3.1042    0.0000 C   0  0  0  0  0  0  0  0  0  0  0  0
    3.5375   -2.6917    0.0000 C   0  0  0  0  0  0  0  0  0  0  0  0
    2.8250   -3.1042    0.0000 C   0  0  0  0  0  0  0  0  0  0  0  0
    2.8292   -1.4542    0.0000 O   0  0  0  0  0  0  0  0  0  0  0  0
    1.4042   -0.6292    0.0000 C   0  0  0  0  0  0  0  0  0  0  0  0
    0.6875   -1.8667    0.0000 C   0  0  0  0  0  0  0  0  0  0  0  0
    4.2500   -3.9375    0.0000 C   0  0  0  0  0  0  0  0  0  0  0  0
    0.6875   -0.2042    0.0000 C   0  0  0  0  0  0  0  0  0  0  0  0
   -0.0250   -1.4542    0.0000 C   0  0  0  0  0  0  0  0  0  0  0  0
   -0.7458    1.4500    0.0000 O   0  0  0  0  0  0  0  0  0  0  0  0
    3.5292   -4.3417    0.0000 C   0  0  0  0  0  0  0  0  0  0  0  0
    4.9667   -2.6917    0.0000 Cl  0  0  0  0  0  0  0  0  0  0  0  0
    2.8167   -3.9292    0.0000 C   0  0  0  0  0  0  0  0  0  0  0  0
    4.9667   -4.3500    0.0000 Cl  0  0  0  0  0  0  0  0  0  0  0  0
   -2.1708    0.6208    0.0000 C   0  0  0  0  0  0  0  0  0  0  0  0
   -2.1750   -1.0375    0.0000 C   0  0  0  0  0  0  0  0  0  0  0  0
   -2.8958    0.2083    0.0000 C   0  0  0  0  0  0  0  0  0  0  0  0
   -2.8875   -0.6292    0.0000 C   0  0  0  0  0  0  0  0  0  0  0  0
  2  1  1  0  0  0  0
  3  9  1  0  0  0  0
  4  5  1  0  0  0  0
  5 18  1  0  0  0  0
  6  3  1  0  0  0  0
  7  4  1  0  0  0  0
  8  1  1  0  0  0  0
  9  5  1  0  0  0  0
 10 11  2  0  0  0  0
 11 12  1  0  0  0  0
 12  8  1  0  0  0  0
 13  1  2  0  0  0  0
 14  2  1  0  0  0  0
 15  2  1  0  0  0  0
 16 20  2  0  0  0  0
 17 14  1  0  0  0  0
 18 15  1  0  0  0  0
 19  3  2  0  0  0  0
 20 22  1  0  0  0  0
 21 10  1  0  0  0  0
 22 12  2  0  0  0  0
 23 16  1  0  0  0  0
 24  6  1  0  0  0  0
 25  7  1  0  0  0  0
 26 24  2  0  0  0  0
 27 25  2  0  0  0  0
  5 17  1  0  0  0  0
 10 16  1  0  0  0  0
  6  7  2  0  0  0  0
 27 26  1  0  0  0  0
M  END
> <IDNUMBER>
F2548-0187

> <Chemical_Name>
N-(3,4-dichlorophenyl)-4-oxo-3,4-dihydrospiro[1-benzopyran-2,4'-piperidine]-1'-carboxamide

> <CAS>
869464-93-7

> <PriceCoeff>
1.00

> <MW>
405.27

> <Description>
solid

> <FSP3>
0.30

> <clogP>
3.92

> <TPSA>
58.64

> <Acceptor>
3

> <Donor>
1

> <RotBonds>
2

> <HAC>
27

> <Collection>
General

$$$$
F0774-0090
  -ISIS-  06222321142D

 21 23  0  0  0  0  0  0  0  0999 V2000
   -2.5833   -0.5000    0.0000 C   0  0  0  0  0  0  0  0  0  0  0  0
   -2.5833    0.4625    0.0000 N   0  0  3  0  0  0  0  0  0  0  0  0
   -1.7625   -0.9792    0.0000 C   0  0  0  0  0  0  0  0  0  0  0  0
   -3.4000    0.9208    0.0000 C   0  0  0  0  0  0  0  0  0  0  0  0
   -1.7625   -1.9167    0.0000 C   0  0  0  0  0  0  0  0  0  0  0  0
   -0.9458   -0.5000    0.0000 C   0  0  0  0  0  0  0  0  0  0  0  0
   -0.9458   -2.4000    0.0000 C   0  0  0  0  0  0  0  0  0  0  0  0
   -3.4000   -0.9792    0.0000 O   0  0  0  0  0  0  0  0  0  0  0  0
   -1.7625    0.9208    0.0000 C   0  0  3  0  0  0  0  0  0  0  0  0
   -3.4000    1.8833    0.0000 C   0  0  0  0  0  0  0  0  0  0  0  0
   -2.5833    2.3458    0.0000 C   0  0  0  0  0  0  0  0  0  0  0  0
   -1.7625    1.8833    0.0000 C   0  0  0  0  0  0  0  0  0  0  0  0
   -0.1208   -1.9167    0.0000 C   0  0  0  0  0  0  0  0  0  0  0  0
   -2.5833   -2.4000    0.0000 Cl  0  0  0  0  0  0  0  0  0  0  0  0
   -0.1208   -0.9792    0.0000 C   0  0  0  0  0  0  0  0  0  0  0  0
    0.7167   -2.4000    0.0000 Cl  0  0  0  0  0  0  0  0  0  0  0  0
   -4.2208    0.4625    0.0000 C   0  0  0  0  0  0  0  0  0  0  0  0
   -4.2208    2.3458    0.0000 C   0  0  0  0  0  0  0  0  0  0  0  0
   -0.9458    0.4458    0.0000 C   0  0  0  0  0  0  0  0  0  0  0  0
   -5.0458    0.9208    0.0000 C   0  0  0  0  0  0  0  0  0  0  0  0
   -5.0458    1.8833    0.0000 C   0  0  0  0  0  0  0  0  0  0  0  0
  2  1  1  0  0  0  0
  3  1  1  0  0  0  0
  4  2  1  0  0  0  0
  5  3  2  0  0  0  0
  6  3  1  0  0  0  0
  7  5  1  0  0  0  0
  8  1  2  0  0  0  0
  9  2  1  0  0  0  0
 10  4  2  0  0  0  0
 11 12  1  0  0  0  0
 12  9  1  0  0  0  0
 13 15  1  0  0  0  0
 14  5  1  0  0  0  0
 15  6  2  0  0  0  0
 16 13  1  0  0  0  0
 17  4  1  0  0  0  0
 18 10  1  0  0  0  0
 19  9  1  0  0  0  0
 20 17  2  0  0  0  0
 21 20  1  0  0  0  0
 13  7  2  0  0  0  0
 11 10  1  0  0  0  0
 21 18  2  0  0  0  0
M  END
> <IDNUMBER>
F0774-0090

> <Chemical_Name>
1-(2,4-dichlorobenzoyl)-2-methyl-1,2,3,4-tetrahydroquinoline

> <CAS>
325739-39-7

> <PriceCoeff>
1.00

> <MW>
320.21

> <Description>
solid

> <FSP3>
0.24

> <clogP>
5.09

> <TPSA>
20.31

> <Acceptor>
1

> <Donor>
0

> <RotBonds>
2

> <HAC>
21

> <Collection>
General

> <Reference_compound>
CHEMBL2286415

> <Similarity>
0.9080

$$$$
F1366-3540
  -ISIS-  06222321142D

 26 28  0  0  0  0  0  0  0  0999 V2000
   -1.2958    2.4000    0.0000 C   0  0  0  0  0  0  0  0  0  0  0  0
    0.9667    3.6708    0.0000 N   0  0  3  0  0  0  0  0  0  0  0  0
   -1.7333    1.8083    0.0000 N   0  0  3  0  0  0  0  0  0  0  0  0
   -0.5458    2.3958    0.0000 N   0  0  0  0  0  0  0  0  0  0  0  0
   -1.7333    3.0208    0.0000 S   0  0  0  0  0  0  0  0  0  0  0  0
   -2.4458    2.0333    0.0000 C   0  0  0  0  0  0  0  0  0  0  0  0
   -2.4458    2.7833    0.0000 C   0  0  0  0  0  0  0  0  0  0  0  0
   -3.0958    1.6583    0.0000 C   0  0  0  0  0  0  0  0  0  0  0  0
    1.7042    3.8333    0.0000 C   0  0  0  0  0  0  0  0  0  0  0  0
    0.5917    4.3167    0.0000 C   0  0  0  0  0  0  0  0  0  0  0  0
   -0.1625    3.0333    0.0000 C   0  0  0  0  0  0  0  0  0  0  0  0
    0.5917    3.0208    0.0000 C   0  0  0  0  0  0  0  0  0  0  0  0
   -3.0958    3.1583    0.0000 C   0  0  0  0  0  0  0  0  0  0  0  0
   -3.7458    2.0333    0.0000 C   0  0  0  0  0  0  0  0  0  0  0  0
   -3.7458    2.7833    0.0000 C   0  0  0  0  0  0  0  0  0  0  0  0
    1.0917    4.8750    0.0000 C   0  0  0  0  0  0  0  0  0  0  0  0
    1.7792    4.5667    0.0000 C   0  0  0  0  0  0  0  0  0  0  0  0
   -0.1583    4.3917    0.0000 O   0  0  0  0  0  0  0  0  0  0  0  0
    2.2667    3.3333    0.0000 O   0  0  0  0  0  0  0  0  0  0  0  0
   -0.5375    3.6750    0.0000 O   0  0  0  0  0  0  0  0  0  0  0  0
   -3.0958    0.9083    0.0000 F   0  0  0  0  0  0  0  0  0  0  0  0
   -1.4958    1.0833    0.0000 C   0  0  0  0  0  0  0  0  0  0  0  0
   -4.3958    3.1708    0.0000 F   0  0  0  0  0  0  0  0  0  0  0  0
   -0.5333    0.2125    0.0000 O   0  0  0  0  0  0  0  0  0  0  0  0
   -0.7625    0.9250    0.0000 C   0  0  0  0  0  0  0  0  0  0  0  0
    0.2042    0.0583    0.0000 C   0  0  0  0  0  0  0  0  0  0  0  0
  2 12  1  0  0  0  0
  3  1  1  0  0  0  0
  4  1  2  0  0  0  0
  5  1  1  0  0  0  0
  6  3  1  0  0  0  0
  7  5  1  0  0  0  0
  8  6  1  0  0  0  0
  9  2  1  0  0  0  0
 10  2  1  0  0  0  0
 11  4  1  0  0  0  0
 12 11  1  0  0  0  0
 13  7  1  0  0  0  0
 14  8  2  0  0  0  0
 15 13  2  0  0  0  0
 16 10  1  0  0  0  0
 17  9  1  0  0  0  0
 18 10  2  0  0  0  0
 19  9  2  0  0  0  0
 20 11  2  0  0  0  0
 21  8  1  0  0  0  0
 22  3  1  0  0  0  0
 23 15  1  0  0  0  0
 24 25  1  0  0  0  0
 25 22  1  0  0  0  0
 26 24  1  0  0  0  0
  7  6  2  0  0  0  0
 15 14  1  0  0  0  0
 16 17  1  0  0  0  0
M  END
> <IDNUMBER>
F1366-3540

> <Chemical_Name>
N-[(2Z)-4,6-difluoro-3-(2-methoxyethyl)-2,3-dihydro-1,3-benzothiazol-2-ylidene]-2-(2,5-dioxopyrrolidin-1-yl)acetamide

> <CAS>
941872-10-2

> <PriceCoeff>
1.00

> <MW>
383.37

> <Description>
solid

> <FSP3>
0.38

> <clogP>
2.82

> <TPSA>
104.58

> <Acceptor>
4

> <Donor>
0

> <RotBonds>
6

> <HAC>
26

> <Collection>
General

$$$$
F2515-2096
  -ISIS-  06222321462D

 34 38  0  0  0  0  0  0  0  0999 V2000
   -4.5625    2.1500    0.0000 C   0  0  0  0  0  0  0  0  0  0  0  0
   -3.8458    2.5583    0.0000 N   0  0  3  0  0  0  0  0  0  0  0  0
   -4.6583    1.3333    0.0000 N   0  0  0  0  0  0  0  0  0  0  0  0
   -0.9833    3.3833    0.0000 N   0  0  3  0  0  0  0  0  0  0  0  0
   -5.3208    2.4875    0.0000 S   0  0  0  0  0  0  0  0  0  0  0  0
   -3.8458    3.3958    0.0000 C   0  0  0  0  0  0  0  0  0  0  0  0
   -5.4583    1.1583    0.0000 C   0  0  0  0  0  0  0  0  0  0  0  0
   -1.7000    3.8000    0.0000 C   0  0  0  0  0  0  0  0  0  0  0  0
   -5.8708    1.8708    0.0000 C   0  0  0  0  0  0  0  0  0  0  0  0
   -0.2208    3.6875    0.0000 C   0  0  0  0  0  0  0  0  0  0  0  0
   -0.9458    2.5583    0.0000 C   0  0  0  0  0  0  0  0  0  0  0  0
   -3.1333    3.8000    0.0000 C   0  0  0  0  0  0  0  0  0  0  0  0
   -5.8708    0.4458    0.0000 C   0  0  0  0  0  0  0  0  0  0  0  0
   -2.4208    3.3958    0.0000 C   0  0  0  0  0  0  0  0  0  0  0  0
   -3.1333    2.1458    0.0000 C   0  0  0  0  0  0  0  0  0  0  0  0
   -4.5625    3.8000    0.0000 O   0  0  0  0  0  0  0  0  0  0  0  0
   -6.6792    0.4458    0.0000 C   0  0  0  0  0  0  0  0  0  0  0  0
    0.3125    3.0583    0.0000 C   0  0  0  0  0  0  0  0  0  0  0  0
   -0.1208    2.3583    0.0000 C   0  0  0  0  0  0  0  0  0  0  0  0
    0.0000    4.4667    0.0000 O   0  0  0  0  0  0  0  0  0  0  0  0
   -1.5750    2.0375    0.0000 O   0  0  0  0  0  0  0  0  0  0  0  0
   -6.6917    1.8708    0.0000 C   0  0  0  0  0  0  0  0  0  0  0  0
   -2.4208    0.0833    0.0000 N   0  0  0  0  0  0  0  0  0  0  0  0
   -3.1333    1.3208    0.0000 C   0  0  0  0  0  0  0  0  0  0  0  0
   -7.1042    1.1500    0.0000 C   0  0  0  0  0  0  0  0  0  0  0  0
   -1.6958    4.6167    0.0000 C   0  0  0  0  0  0  0  0  0  0  0  0
   -2.4208    0.9083    0.0000 C   0  0  0  0  0  0  0  0  0  0  0  0
   -3.1250    4.6292    0.0000 C   0  0  0  0  0  0  0  0  0  0  0  0
   -5.4583   -0.2667    0.0000 C   0  0  0  0  0  0  0  0  0  0  0  0
   -2.4083    5.0292    0.0000 C   0  0  0  0  0  0  0  0  0  0  0  0
   -3.1333   -0.3292    0.0000 C   0  0  0  0  0  0  0  0  0  0  0  0
   -7.0917   -0.2792    0.0000 C   0  0  0  0  0  0  0  0  0  0  0  0
   -3.8500    0.9083    0.0000 C   0  0  0  0  0  0  0  0  0  0  0  0
   -3.8500    0.0833    0.0000 C   0  0  0  0  0  0  0  0  0  0  0  0
  2  1  1  0  0  0  0
  3  1  2  0  0  0  0
  4  8  1  0  0  0  0
  5  1  1  0  0  0  0
  6  2  1  0  0  0  0
  7  3  1  0  0  0  0
  8 14  1  0  0  0  0
  9  5  1  0  0  0  0
 10  4  1  0  0  0  0
 11  4  1  0  0  0  0
 12  6  1  0  0  0  0
 13  7  1  0  0  0  0
 14 12  2  0  0  0  0
 15  2  1  0  0  0  0
 16  6  2  0  0  0  0
 17 13  2  0  0  0  0
 18 10  1  0  0  0  0
 19 11  1  0  0  0  0
 20 10  2  0  0  0  0
 21 11  2  0  0  0  0
 22  9  1  0  0  0  0
 23 27  2  0  0  0  0
 24 15  1  0  0  0  0
 25 22  2  0  0  0  0
 26 30  1  0  0  0  0
 27 24  1  0  0  0  0
 28 12  1  0  0  0  0
 29 13  1  0  0  0  0
 30 28  2  0  0  0  0
 31 34  2  0  0  0  0
 32 17  1  0  0  0  0
 33 24  2  0  0  0  0
 34 33  1  0  0  0  0
  9  7  2  0  0  0  0
 17 25  1  0  0  0  0
 31 23  1  0  0  0  0
  8 26  2  0  0  0  0
 19 18  1  0  0  0  0
M  END
> <IDNUMBER>
F2515-2096

> <Chemical_Name>
N-(4,5-dimethyl-1,3-benzothiazol-2-yl)-3-(2,5-dioxopyrrolidin-1-yl)-N-[(pyridin-3-yl)methyl]benzamide

> <CAS>
895417-71-7

> <PriceCoeff>
1.00

> <MW>
470.54

> <Description>
solid

> <FSP3>
0.19

> <clogP>
2.75

> <TPSA>
111.71

> <Acceptor>
5

> <Donor>
1

> <RotBonds>
6

> <HAC>
34

> <Collection>
General

$$$$
F1008-0057
  -ISIS-  06222321442D

 23 26  0  0  0  0  0  0  0  0999 V2000
   -1.0208    0.9958    0.0000 N   0  0  3  0  0  0  0  0  0  0  0  0
   -2.0208    0.3333    0.0000 C   0  0  0  0  0  0  0  0  0  0  0  0
   -1.6625   -0.2500    0.0000 C   0  0  0  0  0  0  0  0  0  0  0  0
   -0.9625   -0.2292    0.0000 N   0  0  0  0  0  0  0  0  0  0  0  0
   -0.6208    0.3958    0.0000 C   0  0  0  0  0  0  0  0  0  0  0  0
   -1.7000    0.9500    0.0000 C   0  0  0  0  0  0  0  0  0  0  0  0
   -2.1000   -0.7875    0.0000 S   0  0  0  0  0  0  0  0  0  0  0  0
   -2.7000    0.1500    0.0000 C   0  0  0  0  0  0  0  0  0  0  0  0
   -2.7208   -0.5292    0.0000 C   0  0  0  0  0  0  0  0  0  0  0  0
   -0.7000    1.6125    0.0000 C   0  0  0  0  0  0  0  0  0  0  0  0
   -2.0833    1.5500    0.0000 O   0  0  0  0  0  0  0  0  0  0  0  0
    0.0792    0.4125    0.0000 S   0  0  0  0  0  0  0  0  0  0  0  0
   -1.0625    2.1958    0.0000 C   0  0  0  0  0  0  0  0  0  0  0  0
   -3.2833    0.5333    0.0000 C   0  0  0  0  0  0  0  0  0  0  0  0
   -3.3458   -0.8667    0.0000 C   0  0  0  0  0  0  0  0  0  0  0  0
    0.0167    1.6333    0.0000 C   0  0  0  0  0  0  0  0  0  0  0  0
   -1.7625    2.1708    0.0000 C   0  0  0  0  0  0  0  0  0  0  0  0
   -0.7458    2.7958    0.0000 C   0  0  0  0  0  0  0  0  0  0  0  0
    0.4375    1.0125    0.0000 C   0  0  0  0  0  0  0  0  0  0  0  0
   -3.9000    0.2125    0.0000 C   0  0  0  0  0  0  0  0  0  0  0  0
   -3.9208   -0.4875    0.0000 C   0  0  0  0  0  0  0  0  0  0  0  0
    0.3375    2.2500    0.0000 C   0  0  0  0  0  0  0  0  0  0  0  0
   -0.0625    2.8333    0.0000 C   0  0  0  0  0  0  0  0  0  0  0  0
  2  6  1  0  0  0  0
  3  2  2  0  0  0  0
  4  5  2  0  0  0  0
  5  1  1  0  0  0  0
  6  1  1  0  0  0  0
  7  3  1  0  0  0  0
  8  2  1  0  0  0  0
  9  8  2  0  0  0  0
 10  1  1  0  0  0  0
 11  6  2  0  0  0  0
 12  5  1  0  0  0  0
 13 10  2  0  0  0  0
 14  8  1  0  0  0  0
 15  9  1  0  0  0  0
 16 10  1  0  0  0  0
 17 13  1  0  0  0  0
 18 13  1  0  0  0  0
 19 12  1  0  0  0  0
 20 14  1  0  0  0  0
 21 20  1  0  0  0  0
 22 16  2  0  0  0  0
 23 22  1  0  0  0  0
  4  3  1  0  0  0  0
 18 23  2  0  0  0  0
  9  7  1  0  0  0  0
 15 21  1  0  0  0  0
M  END
> <IDNUMBER>
F1008-0057

> <Chemical_Name>
4-(2-methylphenyl)-5-(methylsulfanyl)-8-thia-4,6-diazatricyclo[7.4.0.0^{2,7}]trideca-1(9),2(7),5-trien-3-one

> <CAS>
378753-08-3

> <PriceCoeff>
1.00

> <MW>
342.48

> <Description>
solid

> <FSP3>
0.33

> <clogP>
5.64

> <TPSA>
86.21

> <Acceptor>
2

> <Donor>
0

> <RotBonds>
2

> <HAC>
23

> <Collection>
General

> <Reference_compound>
CHEMBL577016

> <Similarity>
0.8330

$$$$
F3386-1372
  -ISIS-  06222321442D

 21 22  0  0  0  0  0  0  0  0999 V2000
    5.1250   -1.9375    0.0000 S   0  0  3  0  0  0  0  0  0  0  0  0
    4.3000   -1.9417    0.0000 C   0  0  0  0  0  0  0  0  0  0  0  0
    5.9500   -1.9250    0.0000 N   0  0  0  0  0  0  0  0  0  0  0  0
    6.7750   -1.9250    0.0000 C   0  0  0  0  0  0  0  0  0  0  0  0
    5.1167   -1.1125    0.0000 O   0  0  0  0  0  0  0  0  0  0  0  0
    5.1292   -2.7625    0.0000 O   0  0  0  0  0  0  0  0  0  0  0  0
    7.1792   -2.6375    0.0000 C   0  0  0  0  0  0  0  0  0  0  0  0
    3.8792   -1.2375    0.0000 C   0  0  0  0  0  0  0  0  0  0  0  0
    3.9042   -2.6542    0.0000 C   0  0  0  0  0  0  0  0  0  0  0  0
    7.1792   -1.2125    0.0000 C   0  0  0  0  0  0  0  0  0  0  0  0
    3.0667   -1.2417    0.0000 C   0  0  0  0  0  0  0  0  0  0  0  0
    8.0000   -1.2042    0.0000 C   0  0  0  0  0  0  0  0  0  0  0  0
    8.0042   -2.6292    0.0000 C   0  0  0  0  0  0  0  0  0  0  0  0
    3.0792   -2.6667    0.0000 C   0  0  0  0  0  0  0  0  0  0  0  0
    8.4167   -1.9167    0.0000 C   0  0  0  0  0  0  0  0  0  0  0  0
    2.6542   -1.9542    0.0000 C   0  0  0  0  0  0  0  0  0  0  0  0
    8.4167   -3.3500    0.0000 Cl  0  0  0  0  0  0  0  0  0  0  0  0
    6.7625   -0.5000    0.0000 O   0  0  0  0  0  0  0  0  0  0  0  0
    4.2917   -0.5167    0.0000 O   0  0  0  0  0  0  0  0  0  0  0  0
    2.6750   -3.3917    0.0000 C   0  0  0  0  0  0  0  0  0  0  0  0
    5.1167   -0.5125    0.0000 C   0  0  0  0  0  0  0  0  0  0  0  0
  2  1  1  0  0  0  0
  3  1  1  0  0  0  0
  4  3  1  0  0  0  0
  5  1  2  0  0  0  0
  6  1  2  0  0  0  0
  7  4  2  0  0  0  0
  8  2  2  0  0  0  0
  9  2  1  0  0  0  0
 10  4  1  0  0  0  0
 11  8  1  0  0  0  0
 12 10  2  0  0  0  0
 13  7  1  0  0  0  0
 14  9  2  0  0  0  0
 15 12  1  0  0  0  0
 16 14  1  0  0  0  0
 17 13  1  0  0  0  0
 18 10  1  0  0  0  0
 19  8  1  0  0  0  0
 20 14  1  0  0  0  0
 21 19  1  0  0  0  0
 11 16  2  0  0  0  0
 15 13  2  0  0  0  0
M  END
> <IDNUMBER>
F3386-1372

> <Chemical_Name>
N-(5-chloro-2-hydroxyphenyl)-2-methoxy-5-methylbenzene-1-sulfonamide

> <CAS>
1170132-00-9

> <PriceCoeff>
1.00

> <MW>
327.78

> <Description>
solid

> <FSP3>
0.14

> <clogP>
3.16

> <TPSA>
84.01

> <Acceptor>
5

> <Donor>
2

> <RotBonds>
4

> <HAC>
21

> <Collection>
General

$$$$
F1814-1808
  -ISIS-  06222321452D

 23 25  0  0  0  0  0  0  0  0999 V2000
   -4.5708    2.6083    0.0000 C   0  0  0  0  0  0  0  0  0  0  0  0
   -3.1583    5.0292    0.0000 N   0  0  3  0  0  0  0  0  0  0  0  0
   -4.6583    1.7625    0.0000 N   0  0  3  0  0  0  0  0  0  0  0  0
   -3.8708    3.0000    0.0000 N   0  0  0  0  0  0  0  0  0  0  0  0
   -5.3333    2.9375    0.0000 S   0  0  0  0  0  0  0  0  0  0  0  0
   -5.4833    1.5875    0.0000 C   0  0  0  0  0  0  0  0  0  0  0  0
   -5.8958    2.3208    0.0000 C   0  0  0  0  0  0  0  0  0  0  0  0
   -2.4875    5.5042    0.0000 C   0  0  0  0  0  0  0  0  0  0  0  0
   -3.8208    5.5125    0.0000 C   0  0  0  0  0  0  0  0  0  0  0  0
   -3.8708    3.8000    0.0000 C   0  0  0  0  0  0  0  0  0  0  0  0
   -3.1583    4.2042    0.0000 C   0  0  0  0  0  0  0  0  0  0  0  0
   -5.9083    0.8625    0.0000 C   0  0  0  0  0  0  0  0  0  0  0  0
   -3.5625    6.2917    0.0000 C   0  0  0  0  0  0  0  0  0  0  0  0
   -2.7375    6.3000    0.0000 C   0  0  0  0  0  0  0  0  0  0  0  0
   -4.6000    5.2667    0.0000 O   0  0  0  0  0  0  0  0  0  0  0  0
   -1.7083    5.2500    0.0000 O   0  0  0  0  0  0  0  0  0  0  0  0
   -4.5708    4.2042    0.0000 O   0  0  0  0  0  0  0  0  0  0  0  0
   -4.0708    1.2208    0.0000 C   0  0  0  0  0  0  0  0  0  0  0  0
   -5.4875    0.1583    0.0000 F   0  0  0  0  0  0  0  0  0  0  0  0
   -6.7292    2.3333    0.0000 C   0  0  0  0  0  0  0  0  0  0  0  0
   -7.1542    1.5958    0.0000 C   0  0  0  0  0  0  0  0  0  0  0  0
   -6.7292    0.8708    0.0000 C   0  0  0  0  0  0  0  0  0  0  0  0
   -4.1833    0.5458    0.0000 C   0  0  0  0  0  0  0  0  0  0  0  0
  2 11  1  0  0  0  0
  3  1  1  0  0  0  0
  4  1  2  0  0  0  0
  5  1  1  0  0  0  0
  6  3  1  0  0  0  0
  7  5  1  0  0  0  0
  8  2  1  0  0  0  0
  9  2  1  0  0  0  0
 10  4  1  0  0  0  0
 11 10  1  0  0  0  0
 12  6  1  0  0  0  0
 13  9  1  0  0  0  0
 14  8  1  0  0  0  0
 15  9  2  0  0  0  0
 16  8  2  0  0  0  0
 17 10  2  0  0  0  0
 18  3  1  0  0  0  0
 19 12  1  0  0  0  0
 20  7  1  0  0  0  0
 21 20  2  0  0  0  0
 22 12  2  0  0  0  0
 23 18  1  0  0  0  0
  7  6  2  0  0  0  0
 22 21  1  0  0  0  0
 14 13  1  0  0  0  0
M  END
> <IDNUMBER>
F1814-1808

> <Chemical_Name>
2-(2,5-dioxopyrrolidin-1-yl)-N-[(2Z)-3-ethyl-4-fluoro-2,3-dihydro-1,3-benzothiazol-2-ylidene]acetamide

> <CAS>
868375-77-3

> <PriceCoeff>
1.00

> <MW>
335.35

> <Description>
solid

> <FSP3>
0.33

> <clogP>
3.45

> <TPSA>
95.35

> <Acceptor>
3

> <Donor>
0

> <RotBonds>
4

> <HAC>
23

> <Collection>
General

$$$$
F2610-3868
  -ISIS-  06222321142D

 24 26  0  0  0  0  0  0  0  0999 V2000
   -1.1750    2.1083    0.0000 C   0  0  0  0  0  0  0  0  0  0  0  0
    0.5750    4.0417    0.0000 N   0  0  3  0  0  0  0  0  0  0  0  0
   -1.4000    1.3958    0.0000 N   0  0  3  0  0  0  0  0  0  0  0  0
   -0.4583    2.3458    0.0000 N   0  0  0  0  0  0  0  0  0  0  0  0
   -1.7625    2.5500    0.0000 S   0  0  0  0  0  0  0  0  0  0  0  0
   -2.3833    2.1125    0.0000 C   0  0  0  0  0  0  0  0  0  0  0  0
   -2.1500    1.4000    0.0000 C   0  0  0  0  0  0  0  0  0  0  0  0
    1.2167    4.4167    0.0000 C   0  0  0  0  0  0  0  0  0  0  0  0
    0.0167    4.5417    0.0000 C   0  0  0  0  0  0  0  0  0  0  0  0
   -0.2958    3.0833    0.0000 C   0  0  0  0  0  0  0  0  0  0  0  0
    0.4167    3.3125    0.0000 C   0  0  0  0  0  0  0  0  0  0  0  0
   -3.1083    2.2750    0.0000 C   0  0  0  0  0  0  0  0  0  0  0  0
   -2.6583    0.8458    0.0000 C   0  0  0  0  0  0  0  0  0  0  0  0
    0.3250    5.2167    0.0000 C   0  0  0  0  0  0  0  0  0  0  0  0
    1.0625    5.1542    0.0000 C   0  0  0  0  0  0  0  0  0  0  0  0
   -0.7208    4.3917    0.0000 O   0  0  0  0  0  0  0  0  0  0  0  0
    1.9125    4.1042    0.0000 O   0  0  0  0  0  0  0  0  0  0  0  0
   -0.8583    3.5833    0.0000 O   0  0  0  0  0  0  0  0  0  0  0  0
   -3.6125    1.7208    0.0000 C   0  0  0  0  0  0  0  0  0  0  0  0
   -0.9625    0.7833    0.0000 C   0  0  0  0  0  0  0  0  0  0  0  0
   -3.3833    1.0083    0.0000 C   0  0  0  0  0  0  0  0  0  0  0  0
   -4.3500    1.8958    0.0000 F   0  0  0  0  0  0  0  0  0  0  0  0
   -1.2708    0.1000    0.0000 C   0  0  0  0  0  0  0  0  0  0  0  0
   -0.8333   -0.5042    0.0000 C   0  0  0  0  0  0  0  0  0  0  0  0
  2 11  1  0  0  0  0
  3  1  1  0  0  0  0
  4  1  2  0  0  0  0
  5  1  1  0  0  0  0
  6  5  1  0  0  0  0
  7  3  1  0  0  0  0
  8  2  1  0  0  0  0
  9  2  1  0  0  0  0
 10  4  1  0  0  0  0
 11 10  1  0  0  0  0
 12  6  1  0  0  0  0
 13  7  1  0  0  0  0
 14  9  1  0  0  0  0
 15  8  1  0  0  0  0
 16  9  2  0  0  0  0
 17  8  2  0  0  0  0
 18 10  2  0  0  0  0
 19 12  2  0  0  0  0
 20  3  1  0  0  0  0
 21 13  2  0  0  0  0
 22 19  1  0  0  0  0
 23 20  1  0  0  0  0
 24 23  1  0  0  0  0
  6  7  2  0  0  0  0
 21 19  1  0  0  0  0
 14 15  1  0  0  0  0
M  END
> <IDNUMBER>
F2610-3868

> <Chemical_Name>
2-(2,5-dioxopyrrolidin-1-yl)-N-[(2Z)-6-fluoro-3-propyl-2,3-dihydro-1,3-benzothiazol-2-ylidene]acetamide

> <CAS>
897499-62-6

> <PriceCoeff>
1.00

> <MW>
349.38

> <Description>
solid

> <FSP3>
0.38

> <clogP>
3.98

> <TPSA>
95.35

> <Acceptor>
3

> <Donor>
0

> <RotBonds>
5

> <HAC>
24

> <Collection>
General

$$$$
F3188-0013
  -ISIS-  06222321152D

 30 32  0  0  0  0  0  0  0  0999 V2000
    4.9625   -0.9417    0.0000 N   0  0  3  0  0  0  0  0  0  0  0  0
    5.4542   -1.6042    0.0000 C   0  0  0  0  0  0  0  0  0  0  0  0
    5.4417   -0.2667    0.0000 C   0  0  0  0  0  0  0  0  0  0  0  0
    6.2375   -1.3417    0.0000 C   0  0  3  0  0  0  0  0  0  0  0  0
    6.2292   -0.5167    0.0000 C   0  0  0  0  0  0  0  0  0  0  0  0
    6.9000   -1.8250    0.0000 N   0  0  3  0  0  0  0  0  0  0  0  0
    8.2375   -2.7917    0.0000 N   0  0  3  0  0  0  0  0  0  0  0  0
    8.9042   -3.2750    0.0000 C   0  0  0  0  0  0  0  0  0  0  0  0
    4.1375   -0.9417    0.0000 C   0  0  0  0  0  0  0  0  0  0  0  0
    1.6542    0.4708    0.0000 C   0  0  0  0  0  0  0  0  0  0  0  0
    5.2000   -2.3917    0.0000 O   0  0  0  0  0  0  0  0  0  0  0  0
    5.1875    0.5125    0.0000 O   0  0  0  0  0  0  0  0  0  0  0  0
    8.3167   -1.9667    0.0000 C   0  0  0  0  0  0  0  0  0  0  0  0
    7.4792   -3.1292    0.0000 C   0  0  0  0  0  0  0  0  0  0  0  0
    7.6500   -1.4875    0.0000 C   0  0  0  0  0  0  0  0  0  0  0  0
    6.8167   -2.6500    0.0000 C   0  0  0  0  0  0  0  0  0  0  0  0
    9.6542   -2.9417    0.0000 O   0  0  0  0  0  0  0  0  0  0  0  0
    1.2500   -0.2417    0.0000 C   0  0  0  0  0  0  0  0  0  0  0  0
    2.4792    0.4750    0.0000 C   0  0  0  0  0  0  0  0  0  0  0  0
    1.6667   -0.9625    0.0000 C   0  0  0  0  0  0  0  0  0  0  0  0
    8.8167   -4.0917    0.0000 O   0  0  0  0  0  0  0  0  0  0  0  0
    2.8917   -0.2375    0.0000 C   0  0  0  0  0  0  0  0  0  0  0  0
    3.7167   -0.2292    0.0000 C   0  0  0  0  0  0  0  0  0  0  0  0
    2.4917   -0.9542    0.0000 C   0  0  0  0  0  0  0  0  0  0  0  0
    1.2417    1.1833    0.0000 O   0  0  0  0  0  0  0  0  0  0  0  0
    0.4250   -0.2500    0.0000 O   0  0  0  0  0  0  0  0  0  0  0  0
    8.0667   -4.4292    0.0000 C   0  0  0  0  0  0  0  0  0  0  0  0
    1.6542    1.9000    0.0000 C   0  0  0  0  0  0  0  0  0  0  0  0
    0.0042    0.4625    0.0000 C   0  0  0  0  0  0  0  0  0  0  0  0
    7.9792   -5.2542    0.0000 C   0  0  0  0  0  0  0  0  0  0  0  0
  2  1  1  0  0  0  0
  3  1  1  0  0  0  0
  4  2  1  0  0  0  0
  5  3  1  0  0  0  0
  6  4  1  0  0  0  0
  7 14  1  0  0  0  0
  8  7  1  0  0  0  0
  9  1  1  0  0  0  0
 10 19  1  0  0  0  0
 11  2  2  0  0  0  0
 12  3  2  0  0  0  0
 13 15  1  0  0  0  0
 14 16  1  0  0  0  0
 15  6  1  0  0  0  0
 16  6  1  0  0  0  0
 17  8  2  0  0  0  0
 18 20  1  0  0  0  0
 19 22  2  0  0  0  0
 20 24  2  0  0  0  0
 21  8  1  0  0  0  0
 22 23  1  0  0  0  0
 23  9  1  0  0  0  0
 24 22  1  0  0  0  0
 25 10  1  0  0  0  0
 26 18  1  0  0  0  0
 27 21  1  0  0  0  0
 28 25  1  0  0  0  0
 29 26  1  0  0  0  0
 30 27  1  0  0  0  0
  5  4  1  0  0  0  0
  7 13  1  0  0  0  0
 18 10  2  0  0  0  0
M  END
> <IDNUMBER>
F3188-0013

> <Chemical_Name>
ethyl 4-{1-[2-(3,4-dimethoxyphenyl)ethyl]-2,5-dioxopyrrolidin-3-yl}piperazine-1-carboxylate

> <CAS>
857494-04-3

> <PriceCoeff>
1.00

> <MW>
419.47

> <Description>
solid

> <FSP3>
0.57

> <clogP>
3.34

> <TPSA>
88.62

> <Acceptor>
6

> <Donor>
1

> <RotBonds>
9

> <HAC>
30

> <Collection>
General

$$$$
F2615-1251
  -ISIS-  06222321442D

 24 26  0  0  0  0  0  0  0  0999 V2000
   -2.0083    2.1083    0.0000 C   0  0  0  0  0  0  0  0  0  0  0  0
   -0.2583    4.0417    0.0000 N   0  0  3  0  0  0  0  0  0  0  0  0
   -2.2333    1.3958    0.0000 N   0  0  3  0  0  0  0  0  0  0  0  0
   -1.2833    2.3458    0.0000 N   0  0  0  0  0  0  0  0  0  0  0  0
   -2.5958    2.5500    0.0000 S   0  0  0  0  0  0  0  0  0  0  0  0
   -2.9750    1.4000    0.0000 C   0  0  0  0  0  0  0  0  0  0  0  0
   -3.2083    2.1125    0.0000 C   0  0  0  0  0  0  0  0  0  0  0  0
    0.3917    4.4167    0.0000 C   0  0  0  0  0  0  0  0  0  0  0  0
   -0.8083    4.5417    0.0000 C   0  0  0  0  0  0  0  0  0  0  0  0
   -1.1250    3.0833    0.0000 C   0  0  0  0  0  0  0  0  0  0  0  0
   -0.4125    3.3125    0.0000 C   0  0  0  0  0  0  0  0  0  0  0  0
   -3.4833    0.8458    0.0000 C   0  0  0  0  0  0  0  0  0  0  0  0
   -0.5083    5.2167    0.0000 C   0  0  0  0  0  0  0  0  0  0  0  0
    0.2292    5.1542    0.0000 C   0  0  0  0  0  0  0  0  0  0  0  0
   -1.5500    4.3917    0.0000 O   0  0  0  0  0  0  0  0  0  0  0  0
    1.0792    4.1042    0.0000 O   0  0  0  0  0  0  0  0  0  0  0  0
   -1.6833    3.5833    0.0000 O   0  0  0  0  0  0  0  0  0  0  0  0
   -1.7958    0.7833    0.0000 C   0  0  0  0  0  0  0  0  0  0  0  0
   -3.2583    0.1250    0.0000 F   0  0  0  0  0  0  0  0  0  0  0  0
   -3.9375    2.2750    0.0000 C   0  0  0  0  0  0  0  0  0  0  0  0
   -4.4458    1.7208    0.0000 C   0  0  0  0  0  0  0  0  0  0  0  0
   -4.2208    1.0083    0.0000 C   0  0  0  0  0  0  0  0  0  0  0  0
   -2.1000    0.1000    0.0000 C   0  0  0  0  0  0  0  0  0  0  0  0
   -1.6625   -0.5042    0.0000 C   0  0  0  0  0  0  0  0  0  0  0  0
  2 11  1  0  0  0  0
  3  1  1  0  0  0  0
  4  1  2  0  0  0  0
  5  1  1  0  0  0  0
  6  3  1  0  0  0  0
  7  5  1  0  0  0  0
  8  2  1  0  0  0  0
  9  2  1  0  0  0  0
 10  4  1  0  0  0  0
 11 10  1  0  0  0  0
 12  6  1  0  0  0  0
 13  9  1  0  0  0  0
 14  8  1  0  0  0  0
 15  9  2  0  0  0  0
 16  8  2  0  0  0  0
 17 10  2  0  0  0  0
 18  3  1  0  0  0  0
 19 12  1  0  0  0  0
 20  7  1  0  0  0  0
 21 20  2  0  0  0  0
 22 12  2  0  0  0  0
 23 18  1  0  0  0  0
 24 23  1  0  0  0  0
  7  6  2  0  0  0  0
 22 21  1  0  0  0  0
 13 14  1  0  0  0  0
M  END
> <IDNUMBER>
F2615-1251

> <Chemical_Name>
2-(2,5-dioxopyrrolidin-1-yl)-N-[(2Z)-4-fluoro-3-propyl-2,3-dihydro-1,3-benzothiazol-2-ylidene]acetamide

> <CAS>
898370-96-2

> <PriceCoeff>
1.00

> <MW>
349.38

> <Description>
solid

> <FSP3>
0.38

> <clogP>
3.98

> <TPSA>
95.35

> <Acceptor>
3

> <Donor>
0

> <RotBonds>
5

> <HAC>
24

> <Collection>
General

$$$$
F5526-0475
  -ISIS-  06222321442D

 25 26  0  0  0  0  0  0  0  0999 V2000
   -1.3875    3.4083    0.0000 N   0  3  0  0  0  0  0  0  0  0  0  0
   -1.3875    5.6542    0.0000 C   0  0  0  0  0  0  0  0  0  0  0  0
   -2.0333    5.2792    0.0000 C   0  0  0  0  0  0  0  0  0  0  0  0
   -1.3875    4.1542    0.0000 C   0  0  0  0  0  0  0  0  0  0  0  0
   -1.3875    6.4042    0.0000 C   0  0  0  0  0  0  0  0  0  0  0  0
   -2.0333    4.5292    0.0000 C   0  0  0  0  0  0  0  0  0  0  0  0
   -0.7375    5.2792    0.0000 C   0  0  0  0  0  0  0  0  0  0  0  0
   -2.0333    3.0333    0.0000 O   0  5  0  0  0  0  0  0  0  0  0  0
   -0.7375    3.0333    0.0000 O   0  0  0  0  0  0  0  0  0  0  0  0
   -0.7375    4.5292    0.0000 C   0  0  0  0  0  0  0  0  0  0  0  0
   -0.7458    6.7792    0.0000 O   0  0  0  0  0  0  0  0  0  0  0  0
   -2.0375    6.7792    0.0000 N   0  0  0  0  0  0  0  0  0  0  0  0
   -2.6875    5.6667    0.0000 Cl  0  0  0  0  0  0  0  0  0  0  0  0
   -4.6458    6.7792    0.0000 C   0  0  0  0  0  0  0  0  0  0  0  0
   -5.9375    7.5292    0.0000 C   0  0  0  0  0  0  0  0  0  0  0  0
   -5.2875    6.4042    0.0000 C   0  0  0  0  0  0  0  0  0  0  0  0
   -5.2875    7.9042    0.0000 C   0  0  0  0  0  0  0  0  0  0  0  0
   -4.6458    7.5292    0.0000 C   0  0  0  0  0  0  0  0  0  0  0  0
   -5.9375    6.7792    0.0000 C   0  0  0  0  0  0  0  0  0  0  0  0
   -6.5917    7.9167    0.0000 O   0  0  0  0  0  0  0  0  0  0  0  0
   -3.9875    6.4042    0.0000 O   0  0  0  0  0  0  0  0  0  0  0  0
   -2.6875    6.4042    0.0000 C   0  0  0  0  0  0  0  0  0  0  0  0
   -3.3375    6.7792    0.0000 C   0  0  0  0  0  0  0  0  0  0  0  0
   -6.5917    8.6667    0.0000 C   0  0  0  0  0  0  0  0  0  0  0  0
   -7.2292    9.0417    0.0000 C   0  0  0  0  0  0  0  0  0  0  0  0
  2  7  1  0  0  0  0
  3  6  1  0  0  0  0
  4  1  1  0  0  0  0
  5  2  1  0  0  0  0
  6  4  2  0  0  0  0
  7 10  2  0  0  0  0
  8  1  1  0  0  0  0
  9  1  2  0  0  0  0
 10  4  1  0  0  0  0
 11  5  2  0  0  0  0
 12  5  1  0  0  0  0
 13  3  1  0  0  0  0
 14 21  1  0  0  0  0
 15 17  2  0  0  0  0
 16 14  1  0  0  0  0
 17 18  1  0  0  0  0
 18 14  2  0  0  0  0
 19 16  2  0  0  0  0
 20 15  1  0  0  0  0
 21 23  1  0  0  0  0
 22 12  1  0  0  0  0
 23 22  1  0  0  0  0
 24 20  1  0  0  0  0
 25 24  1  0  0  0  0
  2  3  2  0  0  0  0
 19 15  1  0  0  0  0
M  CHG  2   1   1   8  -1
M  END
> <IDNUMBER>
F5526-0475

> <Chemical_Name>
2-chloro-N-[2-(4-ethoxyphenoxy)ethyl]-4-nitrobenzamide

> <CAS>
1105212-18-7

> <PriceCoeff>
1.00

> <MW>
364.78

> <Description>
solid

> <FSP3>
0.24

> <clogP>
3.60

> <TPSA>
90.70

> <Acceptor>
5

> <Donor>
1

> <RotBonds>
8

> <HAC>
25

> <Collection>
General

$$$$
F1995-0226
  -ISIS-  06222321452D

 10 10  0  0  0  0  0  0  0  0999 V2000
    3.6250   -2.1542    0.0000 C   0  0  0  0  0  0  0  0  0  0  0  0
    4.0375   -1.4417    0.0000 C   0  0  0  0  0  0  0  0  0  0  0  0
    2.8000   -2.1542    0.0000 C   0  0  0  0  0  0  0  0  0  0  0  0
    3.6250   -0.7292    0.0000 C   0  0  0  0  0  0  0  0  0  0  0  0
    4.8625   -1.4417    0.0000 C   0  0  0  0  0  0  0  0  0  0  0  0
    5.2667   -0.7250    0.0000 O   0  0  0  0  0  0  0  0  0  0  0  0
    2.3917   -1.4417    0.0000 C   0  0  0  0  0  0  0  0  0  0  0  0
    4.0375   -2.8667    0.0000 O   0  0  0  0  0  0  0  0  0  0  0  0
    2.8000   -0.7292    0.0000 C   0  0  0  0  0  0  0  0  0  0  0  0
    1.5667   -1.4417    0.0000 O   0  0  0  0  0  0  0  0  0  0  0  0
  2  1  1  0  0  0  0
  3  1  2  0  0  0  0
  4  2  2  0  0  0  0
  5  2  1  0  0  0  0
  6  5  2  0  0  0  0
  7  3  1  0  0  0  0
  8  1  1  0  0  0  0
  9  7  2  0  0  0  0
 10  7  1  0  0  0  0
  9  4  1  0  0  0  0
M  END
> <IDNUMBER>
F1995-0226

> <Chemical_Name>
2,4-dihydroxybenzaldehyde

> <CAS>
95-01-2

> <PriceCoeff>
1.00

> <MW>
138.12

> <Description>
solid

> <FSP3>
0.00

> <clogP>
1.33

> <TPSA>
57.53

> <Acceptor>
3

> <Donor>
2

> <RotBonds>
1

> <HAC>
10

> <Collection>
General

> <Reference_compound>
CHEMBL108925

> <Similarity>
0.9210

$$$$
F3260-0165
  -ISIS-  06222321462D

 21 23  0  0  0  0  0  0  0  0999 V2000
    7.2667    2.1000    0.0000 C   0  0  0  0  0  0  0  0  0  0  0  0
    7.2667    3.5000    0.0000 C   0  0  0  0  0  0  0  0  0  0  0  0
    4.8417    3.5000    0.0000 N   0  0  3  0  0  0  0  0  0  0  0  0
    8.6042    1.6708    0.0000 N   0  0  0  0  0  0  0  0  0  0  0  0
    6.0542    1.4000    0.0000 N   0  0  3  0  0  0  0  0  0  0  0  0
    4.8417    2.1000    0.0000 C   0  0  0  0  0  0  0  0  0  0  0  0
    6.0542    4.2000    0.0000 C   0  0  0  0  0  0  0  0  0  0  0  0
    9.4250    2.8000    0.0000 C   0  0  0  0  0  0  0  0  0  0  0  0
    8.6042    3.9333    0.0000 N   0  0  3  0  0  0  0  0  0  0  0  0
    3.6292    4.2000    0.0000 C   0  0  0  0  0  0  0  0  0  0  0  0
    3.8542    1.1125    0.0000 O   0  0  0  0  0  0  0  0  0  0  0  0
    6.0542    5.5917    0.0000 O   0  0  0  0  0  0  0  0  0  0  0  0
   10.8250    2.8000    0.0000 S   0  0  0  0  0  0  0  0  0  0  0  0
    6.0542   -0.0000    0.0000 C   0  0  0  0  0  0  0  0  0  0  0  0
    9.0375    5.2625    0.0000 C   0  0  0  0  0  0  0  0  0  0  0  0
    2.4167    3.5000    0.0000 C   0  0  0  0  0  0  0  0  0  0  0  0
    1.2042    4.2000    0.0000 C   0  0  0  0  0  0  0  0  0  0  0  0
    2.4167    2.1000    0.0000 C   0  0  0  0  0  0  0  0  0  0  0  0
    1.2042    1.4000    0.0000 C   0  0  0  0  0  0  0  0  0  0  0  0
    0.0000    3.5000    0.0000 C   0  0  0  0  0  0  0  0  0  0  0  0
    0.0000    2.1000    0.0000 C   0  0  0  0  0  0  0  0  0  0  0  0
  2  1  2  0  0  0  0
  3  6  1  0  0  0  0
  4  1  1  0  0  0  0
  5  1  1  0  0  0  0
  6  5  1  0  0  0  0
  7  2  1  0  0  0  0
  8  4  2  0  0  0  0
  9  2  1  0  0  0  0
 10  3  1  0  0  0  0
 11  6  2  0  0  0  0
 12  7  2  0  0  0  0
 13  8  1  0  0  0  0
 14  5  1  0  0  0  0
 15  9  1  0  0  0  0
 16 10  1  0  0  0  0
 17 16  2  0  0  0  0
 18 16  1  0  0  0  0
 19 18  2  0  0  0  0
 20 17  1  0  0  0  0
 21 19  1  0  0  0  0
  9  8  1  0  0  0  0
  3  7  1  0  0  0  0
 21 20  2  0  0  0  0
M  END
> <IDNUMBER>
F3260-0165

> <Chemical_Name>
1-benzyl-3,7-dimethyl-8-sulfanyl-2,3,6,7-tetrahydro-1H-purine-2,6-dione

> <CAS>
1228-89-3

> <PriceCoeff>
1.00

> <MW>
302.35

> <Description>
solid

> <FSP3>
0.21

> <clogP>
2.53

> <TPSA>
97.24

> <Acceptor>
3

> <Donor>
2

> <RotBonds>
2

> <HAC>
21

> <Collection>
General

> <Reference_compound>
CHEMBL113

> <Similarity>
0.8060

$$$$
F0808-0581
  -ISIS-  06222321142D

 20 21  0  0  0  0  0  0  0  0999 V2000
   -1.3708   -0.6042    0.0000 S   0  0  3  0  0  0  0  0  0  0  0  0
   -2.0125   -0.8292    0.0000 C   0  0  0  0  0  0  0  0  0  0  0  0
   -0.7333   -0.3875    0.0000 N   0  0  0  0  0  0  0  0  0  0  0  0
   -2.1333   -1.4875    0.0000 C   0  0  0  0  0  0  0  0  0  0  0  0
   -1.5958    0.0333    0.0000 O   0  0  0  0  0  0  0  0  0  0  0  0
   -1.1500   -1.2500    0.0000 O   0  0  0  0  0  0  0  0  0  0  0  0
    0.1500    1.1500    0.0000 C   0  0  0  0  0  0  0  0  0  0  0  0
    0.0292    0.4958    0.0000 C   0  0  0  0  0  0  0  0  0  0  0  0
   -2.5500   -0.4042    0.0000 C   0  0  0  0  0  0  0  0  0  0  0  0
   -0.6125    0.2708    0.0000 C   0  0  0  0  0  0  0  0  0  0  0  0
   -0.3708    1.5708    0.0000 C   0  0  0  0  0  0  0  0  0  0  0  0
   -2.7500   -1.7292    0.0000 C   0  0  0  0  0  0  0  0  0  0  0  0
   -0.9708    1.3708    0.0000 C   0  0  0  0  0  0  0  0  0  0  0  0
    0.5667    1.5000    0.0000 Cl  0  0  0  0  0  0  0  0  0  0  0  0
   -3.1708   -0.6500    0.0000 C   0  0  0  0  0  0  0  0  0  0  0  0
   -3.2708   -1.3042    0.0000 C   0  0  0  0  0  0  0  0  0  0  0  0
   -1.1125    0.7125    0.0000 C   0  0  0  0  0  0  0  0  0  0  0  0
   -0.2958    2.2500    0.0000 O   0  0  0  0  0  0  0  0  0  0  0  0
   -1.5708   -1.8667    0.0000 C   0  0  0  0  0  0  0  0  0  0  0  0
   -3.9125   -1.5500    0.0000 C   0  0  0  0  0  0  0  0  0  0  0  0
  2  1  1  0  0  0  0
  3  1  1  0  0  0  0
  4  2  2  0  0  0  0
  5  1  2  0  0  0  0
  6  1  2  0  0  0  0
  7  8  1  0  0  0  0
  8 10  2  0  0  0  0
  9  2  1  0  0  0  0
 10  3  1  0  0  0  0
 11 13  1  0  0  0  0
 12  4  1  0  0  0  0
 13 17  2  0  0  0  0
 14  7  1  0  0  0  0
 15  9  2  0  0  0  0
 16 15  1  0  0  0  0
 17 10  1  0  0  0  0
 18 11  1  0  0  0  0
 19  4  1  0  0  0  0
 20 16  1  0  0  0  0
 12 16  2  0  0  0  0
  7 11  2  0  0  0  0
M  END
> <IDNUMBER>
F0808-0581

> <Chemical_Name>
N-(3-chloro-4-hydroxyphenyl)-2,4-dimethylbenzene-1-sulfonamide

> <CAS>
477482-76-1

> <PriceCoeff>
1.00

> <MW>
311.78

> <Description>
solid

> <FSP3>
0.14

> <clogP>
3.65

> <TPSA>
74.78

> <Acceptor>
4

> <Donor>
2

> <RotBonds>
3

> <HAC>
20

> <Collection>
General

$$$$
F3367-0021
  -ISIS-  06222321152D

 25 27  0  0  0  0  0  0  0  0999 V2000
    3.7125   -0.3000    0.0000 S   0  0  3  0  0  0  0  0  0  0  0  0
    0.0000    0.3833    0.0000 N   0  0  3  0  0  0  0  0  0  0  0  0
    0.3292    1.1458    0.0000 C   0  0  0  0  0  0  0  0  0  0  0  0
   -0.8208    0.4625    0.0000 C   0  0  0  0  0  0  0  0  0  0  0  0
    4.5375   -0.3000    0.0000 N   0  0  0  0  0  0  0  0  0  0  0  0
    2.8875   -0.3042    0.0000 C   0  0  0  0  0  0  0  0  0  0  0  0
    3.7042    0.5250    0.0000 O   0  0  0  0  0  0  0  0  0  0  0  0
    3.7042   -1.1250    0.0000 O   0  0  0  0  0  0  0  0  0  0  0  0
    0.4167   -0.3250    0.0000 C   0  0  0  0  0  0  0  0  0  0  0  0
    4.9500   -1.0125    0.0000 C   0  0  0  0  0  0  0  0  0  0  0  0
   -0.9958    1.2708    0.0000 C   0  0  0  0  0  0  0  0  0  0  0  0
   -0.2833    1.6875    0.0000 C   0  0  0  0  0  0  0  0  0  0  0  0
   -1.3625   -0.1542    0.0000 O   0  0  0  0  0  0  0  0  0  0  0  0
    1.1375    1.3208    0.0000 O   0  0  0  0  0  0  0  0  0  0  0  0
    5.7667   -1.0042    0.0000 C   0  0  0  0  0  0  0  0  0  0  0  0
    2.4792   -1.0167    0.0000 C   0  0  0  0  0  0  0  0  0  0  0  0
    2.4750    0.4083    0.0000 C   0  0  0  0  0  0  0  0  0  0  0  0
    1.2417   -0.3167    0.0000 C   0  0  0  0  0  0  0  0  0  0  0  0
    6.1792   -1.7167    0.0000 C   0  0  0  0  0  0  0  0  0  0  0  0
    1.6625   -1.0250    0.0000 C   0  0  0  0  0  0  0  0  0  0  0  0
    1.6500    0.4000    0.0000 C   0  0  0  0  0  0  0  0  0  0  0  0
    7.0042   -1.7125    0.0000 Cl  0  0  0  0  0  0  0  0  0  0  0  0
    4.9417   -2.4375    0.0000 C   0  0  0  0  0  0  0  0  0  0  0  0
    4.5292   -1.7250    0.0000 C   0  0  0  0  0  0  0  0  0  0  0  0
    5.7750   -2.4375    0.0000 C   0  0  0  0  0  0  0  0  0  0  0  0
  2  9  1  0  0  0  0
  3  2  1  0  0  0  0
  4  2  1  0  0  0  0
  5  1  1  0  0  0  0
  6  1  1  0  0  0  0
  7  1  2  0  0  0  0
  8  1  2  0  0  0  0
  9 18  1  0  0  0  0
 10  5  1  0  0  0  0
 11  4  1  0  0  0  0
 12  3  1  0  0  0  0
 13  4  2  0  0  0  0
 14  3  2  0  0  0  0
 15 10  1  0  0  0  0
 16  6  2  0  0  0  0
 17  6  1  0  0  0  0
 18 21  1  0  0  0  0
 19 15  2  0  0  0  0
 20 16  1  0  0  0  0
 21 17  2  0  0  0  0
 22 19  1  0  0  0  0
 23 24  1  0  0  0  0
 24 10  2  0  0  0  0
 25 23  2  0  0  0  0
 20 18  2  0  0  0  0
 19 25  1  0  0  0  0
 11 12  1  0  0  0  0
M  END
> <IDNUMBER>
F3367-0021

> <Chemical_Name>
N-(3-chlorophenyl)-4-[(2,5-dioxopyrrolidin-1-yl)methyl]benzene-1-sulfonamide

> <CAS>
940984-05-4

> <PriceCoeff>
1.00

> <MW>
378.83

> <Description>
solid

> <FSP3>
0.18

> <clogP>
2.32

> <TPSA>
91.93

> <Acceptor>
5

> <Donor>
1

> <RotBonds>
5

> <HAC>
25

> <Collection>
General

$$$$
F0373-0620
  -ISIS-  06222321442D

 21 23  0  0  0  0  0  0  0  0999 V2000
    5.8542   -5.2000    0.0000 C   0  0  0  0  0  0  0  0  0  0  0  0
    5.8542   -4.4375    0.0000 C   0  0  0  0  0  0  0  0  0  0  0  0
    4.5542   -4.4375    0.0000 N   0  0  3  0  0  0  0  0  0  0  0  0
    6.5042   -5.5542    0.0000 N   0  0  0  0  0  0  0  0  0  0  0  0
    5.2000   -5.5542    0.0000 N   0  0  3  0  0  0  0  0  0  0  0  0
    4.5542   -5.2000    0.0000 C   0  0  0  0  0  0  0  0  0  0  0  0
    5.2000   -4.0500    0.0000 C   0  0  0  0  0  0  0  0  0  0  0  0
    7.1542   -5.2000    0.0000 C   0  0  0  0  0  0  0  0  0  0  0  0
    7.1542   -4.4375    0.0000 N   0  0  3  0  0  0  0  0  0  0  0  0
    3.9000   -4.0542    0.0000 C   0  0  0  0  0  0  0  0  0  0  0  0
    3.9042   -5.5542    0.0000 O   0  0  0  0  0  0  0  0  0  0  0  0
    5.2000   -3.3042    0.0000 O   0  0  0  0  0  0  0  0  0  0  0  0
    7.8042   -5.5542    0.0000 Br  0  0  0  0  0  0  0  0  0  0  0  0
    5.2000   -6.3042    0.0000 C   0  0  0  0  0  0  0  0  0  0  0  0
    7.9042   -4.4292    0.0000 C   0  0  0  0  0  0  0  0  0  0  0  0
    3.9000   -3.3042    0.0000 C   0  0  0  0  0  0  0  0  0  0  0  0
    4.5500   -2.9500    0.0000 C   0  0  0  0  0  0  0  0  0  0  0  0
    3.2500   -2.9500    0.0000 C   0  0  0  0  0  0  0  0  0  0  0  0
    3.2500   -2.2000    0.0000 C   0  0  0  0  0  0  0  0  0  0  0  0
    4.5500   -2.2000    0.0000 C   0  0  0  0  0  0  0  0  0  0  0  0
    3.9000   -1.8042    0.0000 C   0  0  0  0  0  0  0  0  0  0  0  0
  2  1  2  0  0  0  0
  3  6  1  0  0  0  0
  4  1  1  0  0  0  0
  5  1  1  0  0  0  0
  6  5  1  0  0  0  0
  7  2  1  0  0  0  0
  8  4  2  0  0  0  0
  9  2  1  0  0  0  0
 10  3  1  0  0  0  0
 11  6  2  0  0  0  0
 12  7  2  0  0  0  0
 13  8  1  0  0  0  0
 14  5  1  0  0  0  0
 15  9  1  0  0  0  0
 16 10  1  0  0  0  0
 17 16  1  0  0  0  0
 18 16  2  0  0  0  0
 19 18  1  0  0  0  0
 20 17  2  0  0  0  0
 21 19  2  0  0  0  0
  9  8  1  0  0  0  0
  3  7  1  0  0  0  0
 21 20  1  0  0  0  0
M  END
> <IDNUMBER>
F0373-0620

> <Chemical_Name>
1-benzyl-8-bromo-3,7-dimethyl-2,3,6,7-tetrahydro-1H-purine-2,6-dione

> <CAS>
331675-25-3

> <PriceCoeff>
1.00

> <MW>
349.18

> <Description>
solid

> <FSP3>
0.21

> <clogP>
2.63

> <TPSA>
58.44

> <Acceptor>
3

> <Donor>
1

> <RotBonds>
2

> <HAC>
21

> <Collection>
General

> <Reference_compound>
CHEMBL113

> <Similarity>
0.8060

$$$$
F1359-0108
  -ISIS-  06222321442D

 25 27  0  0  0  0  0  0  0  0999 V2000
   -1.1625    2.3833    0.0000 C   0  0  0  0  0  0  0  0  0  0  0  0
    1.3167    3.8083    0.0000 N   0  0  3  0  0  0  0  0  0  0  0  0
   -1.6458    1.7208    0.0000 N   0  0  3  0  0  0  0  0  0  0  0  0
   -0.3375    2.3750    0.0000 N   0  0  0  0  0  0  0  0  0  0  0  0
   -1.6458    3.0500    0.0000 S   0  0  0  0  0  0  0  0  0  0  0  0
   -2.4333    2.7958    0.0000 C   0  0  0  0  0  0  0  0  0  0  0  0
   -2.4333    1.9708    0.0000 C   0  0  0  0  0  0  0  0  0  0  0  0
    2.1292    3.8833    0.0000 C   0  0  0  0  0  0  0  0  0  0  0  0
    0.9792    4.5417    0.0000 C   0  0  0  0  0  0  0  0  0  0  0  0
    0.0750    3.0875    0.0000 C   0  0  0  0  0  0  0  0  0  0  0  0
    0.9000    3.0875    0.0000 C   0  0  0  0  0  0  0  0  0  0  0  0
   -3.1458    1.5583    0.0000 C   0  0  0  0  0  0  0  0  0  0  0  0
   -3.1458    3.2083    0.0000 C   0  0  0  0  0  0  0  0  0  0  0  0
    1.5917    5.0917    0.0000 C   0  0  0  0  0  0  0  0  0  0  0  0
    2.3125    4.6917    0.0000 C   0  0  0  0  0  0  0  0  0  0  0  0
    0.1792    4.7292    0.0000 O   0  0  0  0  0  0  0  0  0  0  0  0
    2.6875    3.2708    0.0000 O   0  0  0  0  0  0  0  0  0  0  0  0
   -0.3375    3.8000    0.0000 O   0  0  0  0  0  0  0  0  0  0  0  0
   -1.3958    0.9333    0.0000 C   0  0  0  0  0  0  0  0  0  0  0  0
   -3.8583    1.9708    0.0000 C   0  0  0  0  0  0  0  0  0  0  0  0
   -3.8583    2.7958    0.0000 C   0  0  0  0  0  0  0  0  0  0  0  0
   -2.7500    0.4875    0.0000 O   0  0  0  0  0  0  0  0  0  0  0  0
   -1.9458    0.3208    0.0000 C   0  0  0  0  0  0  0  0  0  0  0  0
   -4.5833    3.2125    0.0000 C   0  0  0  0  0  0  0  0  0  0  0  0
   -3.3083   -0.1250    0.0000 C   0  0  0  0  0  0  0  0  0  0  0  0
  2 11  1  0  0  0  0
  3  1  1  0  0  0  0
  4  1  2  0  0  0  0
  5  1  1  0  0  0  0
  6  5  1  0  0  0  0
  7  3  1  0  0  0  0
  8  2  1  0  0  0  0
  9  2  1  0  0  0  0
 10  4  1  0  0  0  0
 11 10  1  0  0  0  0
 12  7  1  0  0  0  0
 13  6  1  0  0  0  0
 14  9  1  0  0  0  0
 15  8  1  0  0  0  0
 16  9  2  0  0  0  0
 17  8  2  0  0  0  0
 18 10  2  0  0  0  0
 19  3  1  0  0  0  0
 20 12  2  0  0  0  0
 21 13  2  0  0  0  0
 22 23  1  0  0  0  0
 23 19  1  0  0  0  0
 24 21  1  0  0  0  0
 25 22  1  0  0  0  0
  7  6  2  0  0  0  0
 20 21  1  0  0  0  0
 15 14  1  0  0  0  0
M  END
> <IDNUMBER>
F1359-0108

> <Chemical_Name>
2-(2,5-dioxopyrrolidin-1-yl)-N-[(2Z)-3-(2-methoxyethyl)-6-methyl-2,3-dihydro-1,3-benzothiazol-2-ylidene]acetamide

> <CAS>
864975-05-3

> <PriceCoeff>
1.00

> <MW>
361.42

> <Description>
solid

> <FSP3>
0.41

> <clogP>
3.04

> <TPSA>
104.58

> <Acceptor>
4

> <Donor>
0

> <RotBonds>
6

> <HAC>
25

> <Collection>
General

$$$$
F1814-1148
  -ISIS-  06222321442D

 23 25  0  0  0  0  0  0  0  0999 V2000
   -5.2833    2.1875    0.0000 C   0  0  0  0  0  0  0  0  0  0  0  0
   -6.0292    2.5333    0.0000 S   0  0  0  0  0  0  0  0  0  0  0  0
   -6.5917    1.9000    0.0000 C   0  0  0  0  0  0  0  0  0  0  0  0
   -3.8708    4.6292    0.0000 N   0  0  3  0  0  0  0  0  0  0  0  0
   -5.3583    1.3500    0.0000 N   0  0  3  0  0  0  0  0  0  0  0  0
   -4.5833    2.5958    0.0000 N   0  0  0  0  0  0  0  0  0  0  0  0
   -6.1667    1.1750    0.0000 C   0  0  0  0  0  0  0  0  0  0  0  0
   -3.2000    5.1042    0.0000 C   0  0  0  0  0  0  0  0  0  0  0  0
   -4.5333    5.1042    0.0000 C   0  0  0  0  0  0  0  0  0  0  0  0
   -4.5833    3.3958    0.0000 C   0  0  0  0  0  0  0  0  0  0  0  0
   -3.8708    3.8000    0.0000 C   0  0  0  0  0  0  0  0  0  0  0  0
   -7.4375    1.9000    0.0000 C   0  0  0  0  0  0  0  0  0  0  0  0
   -6.5917    0.4583    0.0000 C   0  0  0  0  0  0  0  0  0  0  0  0
   -3.4583    5.9000    0.0000 C   0  0  0  0  0  0  0  0  0  0  0  0
   -4.2833    5.8917    0.0000 C   0  0  0  0  0  0  0  0  0  0  0  0
   -2.4125    4.8417    0.0000 O   0  0  0  0  0  0  0  0  0  0  0  0
   -5.3208    4.8542    0.0000 O   0  0  0  0  0  0  0  0  0  0  0  0
   -5.2833    3.7958    0.0000 O   0  0  0  0  0  0  0  0  0  0  0  0
   -7.8542    1.1708    0.0000 C   0  0  0  0  0  0  0  0  0  0  0  0
   -7.4292    0.4458    0.0000 C   0  0  0  0  0  0  0  0  0  0  0  0
   -4.7708    0.8125    0.0000 C   0  0  0  0  0  0  0  0  0  0  0  0
   -7.8417    2.6083    0.0000 Cl  0  0  0  0  0  0  0  0  0  0  0  0
   -6.1792   -0.2542    0.0000 C   0  0  0  0  0  0  0  0  0  0  0  0
  2  1  1  0  0  0  0
  3  2  1  0  0  0  0
  4 11  1  0  0  0  0
  5  1  1  0  0  0  0
  6  1  2  0  0  0  0
  7  5  1  0  0  0  0
  8  4  1  0  0  0  0
  9  4  1  0  0  0  0
 10  6  1  0  0  0  0
 11 10  1  0  0  0  0
 12  3  1  0  0  0  0
 13  7  1  0  0  0  0
 14  8  1  0  0  0  0
 15  9  1  0  0  0  0
 16  8  2  0  0  0  0
 17  9  2  0  0  0  0
 18 10  2  0  0  0  0
 19 12  2  0  0  0  0
 20 13  2  0  0  0  0
 21  5  1  0  0  0  0
 22 12  1  0  0  0  0
 23 13  1  0  0  0  0
  7  3  2  0  0  0  0
 19 20  1  0  0  0  0
 14 15  1  0  0  0  0
M  END
> <IDNUMBER>
F1814-1148

> <Chemical_Name>
N-[(2Z)-7-chloro-3,4-dimethyl-2,3-dihydro-1,3-benzothiazol-2-ylidene]-2-(2,5-dioxopyrrolidin-1-yl)acetamide

> <CAS>
868370-74-5

> <PriceCoeff>
1.00

> <MW>
351.81

> <Description>
solid

> <FSP3>
0.33

> <clogP>
3.99

> <TPSA>
95.35

> <Acceptor>
3

> <Donor>
0

> <RotBonds>
3

> <HAC>
23

> <Collection>
General

$$$$
F1365-2616
  -ISIS-  06222321142D

 24 26  0  0  0  0  0  0  0  0999 V2000
   -1.1625    2.3833    0.0000 C   0  0  0  0  0  0  0  0  0  0  0  0
    1.3167    3.8083    0.0000 N   0  0  3  0  0  0  0  0  0  0  0  0
   -1.6458    1.7208    0.0000 N   0  0  3  0  0  0  0  0  0  0  0  0
   -0.3375    2.3750    0.0000 N   0  0  0  0  0  0  0  0  0  0  0  0
   -1.6458    3.0500    0.0000 S   0  0  0  0  0  0  0  0  0  0  0  0
   -2.4333    2.7958    0.0000 C   0  0  0  0  0  0  0  0  0  0  0  0
   -2.4333    1.9708    0.0000 C   0  0  0  0  0  0  0  0  0  0  0  0
    2.1292    3.8833    0.0000 C   0  0  0  0  0  0  0  0  0  0  0  0
    0.9792    4.5417    0.0000 C   0  0  0  0  0  0  0  0  0  0  0  0
    0.0750    3.0875    0.0000 C   0  0  0  0  0  0  0  0  0  0  0  0
    0.9000    3.0875    0.0000 C   0  0  0  0  0  0  0  0  0  0  0  0
   -3.1458    3.2083    0.0000 C   0  0  0  0  0  0  0  0  0  0  0  0
   -1.9458    0.3208    0.0000 C   0  0  0  0  0  0  0  0  0  0  0  0
   -2.4958   -0.2917    0.0000 C   0  0  0  0  0  0  0  0  0  0  0  0
   -3.1458    1.5583    0.0000 C   0  0  0  0  0  0  0  0  0  0  0  0
    1.5917    5.0917    0.0000 C   0  0  0  0  0  0  0  0  0  0  0  0
    2.3125    4.6917    0.0000 C   0  0  0  0  0  0  0  0  0  0  0  0
    0.1792    4.7292    0.0000 O   0  0  0  0  0  0  0  0  0  0  0  0
    2.6875    3.2708    0.0000 O   0  0  0  0  0  0  0  0  0  0  0  0
   -0.3375    3.8000    0.0000 O   0  0  0  0  0  0  0  0  0  0  0  0
   -1.3958    0.9333    0.0000 C   0  0  0  0  0  0  0  0  0  0  0  0
   -3.8583    2.7958    0.0000 C   0  0  0  0  0  0  0  0  0  0  0  0
   -3.8583    1.9708    0.0000 C   0  0  0  0  0  0  0  0  0  0  0  0
   -4.5833    3.2125    0.0000 F   0  0  0  0  0  0  0  0  0  0  0  0
  2 11  1  0  0  0  0
  3  1  1  0  0  0  0
  4  1  2  0  0  0  0
  5  1  1  0  0  0  0
  6  5  1  0  0  0  0
  7  3  1  0  0  0  0
  8  2  1  0  0  0  0
  9  2  1  0  0  0  0
 10  4  1  0  0  0  0
 11 10  1  0  0  0  0
 12  6  1  0  0  0  0
 13 21  1  0  0  0  0
 14 13  3  0  0  0  0
 15  7  1  0  0  0  0
 16  9  1  0  0  0  0
 17  8  1  0  0  0  0
 18  9  2  0  0  0  0
 19  8  2  0  0  0  0
 20 10  2  0  0  0  0
 21  3  1  0  0  0  0
 22 12  2  0  0  0  0
 23 15  2  0  0  0  0
 24 22  1  0  0  0  0
  7  6  2  0  0  0  0
 23 22  1  0  0  0  0
 17 16  1  0  0  0  0
M  END
> <IDNUMBER>
F1365-2616

> <Chemical_Name>
2-(2,5-dioxopyrrolidin-1-yl)-N-[(2Z)-6-fluoro-3-(prop-2-yn-1-yl)-2,3-dihydro-1,3-benzothiazol-2-ylidene]acetamide

> <CAS>
865181-62-0

> <PriceCoeff>
1.00

> <MW>
345.35

> <Description>
solid

> <FSP3>
0.25

> <clogP>
3.02

> <TPSA>
95.35

> <Acceptor>
3

> <Donor>
0

> <RotBonds>
5

> <HAC>
24

> <Collection>
General

$$$$
F1366-4728
  -ISIS-  06222321142D

 24 26  0  0  0  0  0  0  0  0999 V2000
   -1.8958    2.1583    0.0000 C   0  0  0  0  0  0  0  0  0  0  0  0
    0.5792    2.1708    0.0000 N   0  0  3  0  0  0  0  0  0  0  0  0
   -2.3750    2.8208    0.0000 N   0  0  3  0  0  0  0  0  0  0  0  0
   -1.0708    2.1583    0.0000 N   0  0  0  0  0  0  0  0  0  0  0  0
   -2.3750    1.4833    0.0000 S   0  0  0  0  0  0  0  0  0  0  0  0
   -3.1625    2.5583    0.0000 C   0  0  0  0  0  0  0  0  0  0  0  0
   -3.1583    1.7333    0.0000 C   0  0  0  0  0  0  0  0  0  0  0  0
    1.3917    2.2458    0.0000 C   0  0  0  0  0  0  0  0  0  0  0  0
    0.2417    2.9083    0.0000 C   0  0  0  0  0  0  0  0  0  0  0  0
   -0.6583    1.4458    0.0000 C   0  0  0  0  0  0  0  0  0  0  0  0
    0.1667    1.4458    0.0000 C   0  0  0  0  0  0  0  0  0  0  0  0
   -1.3208    3.7708    0.0000 C   0  0  0  0  0  0  0  0  0  0  0  0
   -0.5208    3.9458    0.0000 C   0  0  0  0  0  0  0  0  0  0  0  0
   -3.8750    2.9833    0.0000 C   0  0  0  0  0  0  0  0  0  0  0  0
    0.8500    3.4583    0.0000 C   0  0  0  0  0  0  0  0  0  0  0  0
    1.5667    3.0583    0.0000 C   0  0  0  0  0  0  0  0  0  0  0  0
   -0.5583    3.0833    0.0000 O   0  0  0  0  0  0  0  0  0  0  0  0
    1.9417    1.6333    0.0000 O   0  0  0  0  0  0  0  0  0  0  0  0
   -1.0625    0.7250    0.0000 O   0  0  0  0  0  0  0  0  0  0  0  0
   -2.1250    3.6083    0.0000 C   0  0  0  0  0  0  0  0  0  0  0  0
   -3.8750    3.8000    0.0000 F   0  0  0  0  0  0  0  0  0  0  0  0
   -3.8750    1.3250    0.0000 C   0  0  0  0  0  0  0  0  0  0  0  0
   -4.5833    1.7333    0.0000 C   0  0  0  0  0  0  0  0  0  0  0  0
   -4.5833    2.5583    0.0000 C   0  0  0  0  0  0  0  0  0  0  0  0
  2 11  1  0  0  0  0
  3  1  1  0  0  0  0
  4  1  2  0  0  0  0
  5  1  1  0  0  0  0
  6  3  1  0  0  0  0
  7  5  1  0  0  0  0
  8  2  1  0  0  0  0
  9  2  1  0  0  0  0
 10  4  1  0  0  0  0
 11 10  1  0  0  0  0
 12 20  1  0  0  0  0
 13 12  3  0  0  0  0
 14  6  1  0  0  0  0
 15  9  1  0  0  0  0
 16  8  1  0  0  0  0
 17  9  2  0  0  0  0
 18  8  2  0  0  0  0
 19 10  2  0  0  0  0
 20  3  1  0  0  0  0
 21 14  1  0  0  0  0
 22  7  1  0  0  0  0
 23 22  2  0  0  0  0
 24 14  2  0  0  0  0
  6  7  2  0  0  0  0
 24 23  1  0  0  0  0
 15 16  1  0  0  0  0
M  END
> <IDNUMBER>
F1366-4728

> <Chemical_Name>
2-(2,5-dioxopyrrolidin-1-yl)-N-[(2Z)-4-fluoro-3-(prop-2-yn-1-yl)-2,3-dihydro-1,3-benzothiazol-2-ylidene]acetamide

> <CAS>
865249-02-1

> <PriceCoeff>
1.00

> <MW>
345.35

> <Description>
solid

> <FSP3>
0.25

> <clogP>
3.02

> <TPSA>
95.35

> <Acceptor>
3

> <Donor>
0

> <RotBonds>
5

> <HAC>
24

> <Collection>
General

$$$$
F1995-0241
  -ISIS-  06222321142D

 12 12  0  0  0  0  0  0  0  0999 V2000
    6.1667   -3.6125    0.0000 C   0  0  0  0  0  0  0  0  0  0  0  0
    5.4500   -4.0250    0.0000 C   0  0  0  0  0  0  0  0  0  0  0  0
    4.7375   -3.6125    0.0000 C   0  0  0  0  0  0  0  0  0  0  0  0
    6.8792   -4.0250    0.0000 C   0  0  0  0  0  0  0  0  0  0  0  0
    6.1667   -2.7792    0.0000 C   0  0  0  0  0  0  0  0  0  0  0  0
    4.7375   -2.7875    0.0000 C   0  0  0  0  0  0  0  0  0  0  0  0
    7.6000   -3.6042    0.0000 O   0  0  0  0  0  0  0  0  0  0  0  0
    5.4500   -2.3667    0.0000 C   0  0  0  0  0  0  0  0  0  0  0  0
    5.4500   -4.8500    0.0000 O   0  0  0  0  0  0  0  0  0  0  0  0
    4.0167   -4.0250    0.0000 O   0  0  0  0  0  0  0  0  0  0  0  0
    6.8875   -4.8500    0.0000 O   0  0  0  0  0  0  0  0  0  0  0  0
    4.0250   -2.3750    0.0000 O   0  0  0  0  0  0  0  0  0  0  0  0
  2  1  2  0  0  0  0
  3  2  1  0  0  0  0
  4  1  1  0  0  0  0
  5  1  1  0  0  0  0
  6  8  1  0  0  0  0
  7  4  2  0  0  0  0
  8  5  2  0  0  0  0
  9  2  1  0  0  0  0
 10  3  1  0  0  0  0
 11  4  1  0  0  0  0
 12  6  1  0  0  0  0
  3  6  2  0  0  0  0
M  END
> <IDNUMBER>
F1995-0241

> <Chemical_Name>
2,3,4-trihydroxybenzoic acid

> <CAS>
610-02-6

> <PriceCoeff>
1.00

> <MW>
170.12

> <Description>
solid

> <FSP3>
0.00

> <clogP>
1.06

> <TPSA>
97.99

> <Acceptor>
5

> <Donor>
3

> <RotBonds>
1

> <HAC>
12

> <Collection>
General

> <Reference_compound>
CHEMBL424

> <Similarity>
0.8060

$$$$
F0808-0637
  -ISIS-  06222321142D

 20 21  0  0  0  0  0  0  0  0999 V2000
   -1.3958   -0.5375    0.0000 S   0  0  3  0  0  0  0  0  0  0  0  0
   -2.0125   -0.7542    0.0000 C   0  0  0  0  0  0  0  0  0  0  0  0
   -0.7708   -0.3000    0.0000 N   0  0  0  0  0  0  0  0  0  0  0  0
   -1.1500   -1.1542    0.0000 O   0  0  0  0  0  0  0  0  0  0  0  0
   -1.6125    0.1000    0.0000 O   0  0  0  0  0  0  0  0  0  0  0  0
    0.0875    1.2000    0.0000 C   0  0  0  0  0  0  0  0  0  0  0  0
   -0.0333    0.5625    0.0000 C   0  0  0  0  0  0  0  0  0  0  0  0
   -0.6500    0.3458    0.0000 C   0  0  0  0  0  0  0  0  0  0  0  0
   -2.4958   -0.3542    0.0000 C   0  0  0  0  0  0  0  0  0  0  0  0
   -2.1125   -1.4000    0.0000 C   0  0  0  0  0  0  0  0  0  0  0  0
   -0.4333    1.6458    0.0000 C   0  0  0  0  0  0  0  0  0  0  0  0
   -1.0333    1.4000    0.0000 C   0  0  0  0  0  0  0  0  0  0  0  0
   -3.1125   -0.5792    0.0000 C   0  0  0  0  0  0  0  0  0  0  0  0
    0.7042    1.4000    0.0000 Cl  0  0  0  0  0  0  0  0  0  0  0  0
   -2.7333   -1.6375    0.0000 C   0  0  0  0  0  0  0  0  0  0  0  0
   -1.1500    0.7625    0.0000 C   0  0  0  0  0  0  0  0  0  0  0  0
   -3.2125   -1.2000    0.0000 C   0  0  0  0  0  0  0  0  0  0  0  0
   -0.3125    2.2833    0.0000 O   0  0  0  0  0  0  0  0  0  0  0  0
   -2.3708    0.3000    0.0000 C   0  0  0  0  0  0  0  0  0  0  0  0
   -2.8333   -2.2792    0.0000 C   0  0  0  0  0  0  0  0  0  0  0  0
  2  1  1  0  0  0  0
  3  1  1  0  0  0  0
  4  1  2  0  0  0  0
  5  1  2  0  0  0  0
  6  7  1  0  0  0  0
  7  8  2  0  0  0  0
  8  3  1  0  0  0  0
  9  2  1  0  0  0  0
 10  2  2  0  0  0  0
 11 12  1  0  0  0  0
 12 16  2  0  0  0  0
 13  9  2  0  0  0  0
 14  6  1  0  0  0  0
 15 10  1  0  0  0  0
 16  8  1  0  0  0  0
 17 15  2  0  0  0  0
 18 11  1  0  0  0  0
 19  9  1  0  0  0  0
 20 15  1  0  0  0  0
 13 17  1  0  0  0  0
 11  6  2  0  0  0  0
M  END
> <IDNUMBER>
F0808-0637

> <Chemical_Name>
N-(3-chloro-4-hydroxyphenyl)-2,5-dimethylbenzene-1-sulfonamide

> <CAS>
333444-24-9

> <PriceCoeff>
1.00

> <MW>
311.78

> <Description>
solid

> <FSP3>
0.14

> <clogP>
3.65

> <TPSA>
74.78

> <Acceptor>
4

> <Donor>
2

> <RotBonds>
3

> <HAC>
20

> <Collection>
General

$$$$
F2049-0369
  -ISIS-  06222321142D

 25 27  0  0  0  0  0  0  0  0999 V2000
   -4.4750    6.6875    0.0000 N   0  0  3  0  0  0  0  0  0  0  0  0
   -5.1958    6.2750    0.0000 C   0  0  0  0  0  0  0  0  0  0  0  0
   -3.7583    6.2667    0.0000 C   0  0  0  0  0  0  0  0  0  0  0  0
   -3.7583    3.8000    0.0000 C   0  0  0  0  0  0  0  0  0  0  0  0
   -3.0458    4.2125    0.0000 N   0  0  0  0  0  0  0  0  0  0  0  0
   -3.7583    5.4417    0.0000 C   0  0  0  0  0  0  0  0  0  0  0  0
   -3.7500    2.9625    0.0000 C   0  0  0  0  0  0  0  0  0  0  0  0
   -3.0375    6.6792    0.0000 C   0  0  0  0  0  0  0  0  0  0  0  0
   -3.0458    5.0292    0.0000 C   0  0  0  0  0  0  0  0  0  0  0  0
   -5.1958    5.4500    0.0000 O   0  0  0  0  0  0  0  0  0  0  0  0
   -4.4708    4.2042    0.0000 O   0  0  0  0  0  0  0  0  0  0  0  0
   -5.9083    6.6875    0.0000 C   0  0  3  0  0  0  0  0  0  0  0  0
   -2.3250    6.2750    0.0000 C   0  0  0  0  0  0  0  0  0  0  0  0
   -3.0208    2.5625    0.0000 C   0  0  0  0  0  0  0  0  0  0  0  0
   -4.4583    2.5583    0.0000 C   0  0  0  0  0  0  0  0  0  0  0  0
   -4.4708    7.5167    0.0000 C   0  0  0  0  0  0  0  0  0  0  0  0
   -2.3250    5.4500    0.0000 C   0  0  0  0  0  0  0  0  0  0  0  0
   -3.7500    1.3208    0.0000 C   0  0  0  0  0  0  0  0  0  0  0  0
   -4.4583    1.7375    0.0000 C   0  0  0  0  0  0  0  0  0  0  0  0
   -3.0208    1.7458    0.0000 C   0  0  0  0  0  0  0  0  0  0  0  0
   -3.7458    0.4833    0.0000 Cl  0  0  0  0  0  0  0  0  0  0  0  0
   -3.7458    7.9250    0.0000 C   0  0  0  0  0  0  0  0  0  0  0  0
   -3.0375    7.5042    0.0000 C   0  0  0  0  0  0  0  0  0  0  0  0
   -6.6042    6.2750    0.0000 C   0  0  0  0  0  0  0  0  0  0  0  0
   -5.9083    7.5042    0.0000 C   0  0  0  0  0  0  0  0  0  0  0  0
  2  1  1  0  0  0  0
  3  1  1  0  0  0  0
  4  5  1  0  0  0  0
  5  9  1  0  0  0  0
  6  3  1  0  0  0  0
  7  4  1  0  0  0  0
  8  3  2  0  0  0  0
  9  6  2  0  0  0  0
 10  2  2  0  0  0  0
 11  4  2  0  0  0  0
 12  2  1  0  0  0  0
 13  8  1  0  0  0  0
 14  7  1  0  0  0  0
 15  7  2  0  0  0  0
 16  1  1  0  0  0  0
 17 13  2  0  0  0  0
 18 19  2  0  0  0  0
 19 15  1  0  0  0  0
 20 14  2  0  0  0  0
 21 18  1  0  0  0  0
 22 16  1  0  0  0  0
 23 22  1  0  0  0  0
 24 12  1  0  0  0  0
 25 12  1  0  0  0  0
 23  8  1  0  0  0  0
  9 17  1  0  0  0  0
 18 20  1  0  0  0  0
M  END
> <IDNUMBER>
F2049-0369

> <Chemical_Name>
4-chloro-N-[1-(2-methylpropanoyl)-1,2,3,4-tetrahydroquinolin-7-yl]benzamide

> <CAS>
1005301-57-4

> <PriceCoeff>
1.00

> <MW>
356.85

> <Description>
solid

> <FSP3>
0.30

> <clogP>
4.03

> <TPSA>
49.41

> <Acceptor>
2

> <Donor>
1

> <RotBonds>
4

> <HAC>
25

> <Collection>
General

> <Reference_compound>
CHEMBL2286415

> <Similarity>
0.8150

$$$$
F2738-2640
  -ISIS-  06222321152D

 34 38  0  0  0  0  0  0  0  0999 V2000
   -3.1583    3.3958    0.0000 C   0  0  0  0  0  0  0  0  0  0  0  0
   -2.4125    3.7333    0.0000 N   0  0  0  0  0  0  0  0  0  0  0  0
   -3.8708    3.8000    0.0000 N   0  0  3  0  0  0  0  0  0  0  0  0
   -6.0000    0.9333    0.0000 N   0  0  3  0  0  0  0  0  0  0  0  0
   -1.8583    3.1208    0.0000 C   0  0  0  0  0  0  0  0  0  0  0  0
   -3.0833    2.5833    0.0000 S   0  0  0  0  0  0  0  0  0  0  0  0
   -4.5833    3.3958    0.0000 C   0  0  0  0  0  0  0  0  0  0  0  0
   -5.2958    1.3458    0.0000 C   0  0  0  0  0  0  0  0  0  0  0  0
   -2.2625    2.4125    0.0000 C   0  0  0  0  0  0  0  0  0  0  0  0
   -1.0375    3.1250    0.0000 C   0  0  0  0  0  0  0  0  0  0  0  0
   -6.7292    1.3000    0.0000 C   0  0  0  0  0  0  0  0  0  0  0  0
   -6.1167    0.1208    0.0000 C   0  0  0  0  0  0  0  0  0  0  0  0
   -4.5833    2.5708    0.0000 C   0  0  0  0  0  0  0  0  0  0  0  0
   -5.2958    2.1625    0.0000 C   0  0  0  0  0  0  0  0  0  0  0  0
   -3.8708    4.6042    0.0000 C   0  0  0  0  0  0  0  0  0  0  0  0
   -0.6375    2.4208    0.0000 C   0  0  0  0  0  0  0  0  0  0  0  0
   -5.2958    3.8000    0.0000 O   0  0  0  0  0  0  0  0  0  0  0  0
   -7.3125    0.7000    0.0000 C   0  0  0  0  0  0  0  0  0  0  0  0
   -6.9292   -0.0292    0.0000 C   0  0  0  0  0  0  0  0  0  0  0  0
   -6.8667    2.1125    0.0000 O   0  0  0  0  0  0  0  0  0  0  0  0
   -5.5458   -0.4542    0.0000 O   0  0  0  0  0  0  0  0  0  0  0  0
   -2.5583    4.5417    0.0000 N   0  0  0  0  0  0  0  0  0  0  0  0
   -1.8583    1.7000    0.0000 C   0  0  0  0  0  0  0  0  0  0  0  0
   -1.0375    1.6958    0.0000 C   0  0  0  0  0  0  0  0  0  0  0  0
   -3.1625    5.0167    0.0000 C   0  0  0  0  0  0  0  0  0  0  0  0
    0.1875    2.4208    0.0000 Cl  0  0  0  0  0  0  0  0  0  0  0  0
   -4.5833    0.9250    0.0000 C   0  0  0  0  0  0  0  0  0  0  0  0
   -0.6333    3.8333    0.0000 C   0  0  0  0  0  0  0  0  0  0  0  0
   -3.8708    2.1583    0.0000 C   0  0  0  0  0  0  0  0  0  0  0  0
   -3.8708    1.3375    0.0000 C   0  0  0  0  0  0  0  0  0  0  0  0
   -1.7500    5.0167    0.0000 C   0  0  0  0  0  0  0  0  0  0  0  0
   -3.1708    5.8375    0.0000 C   0  0  0  0  0  0  0  0  0  0  0  0
   -1.7500    5.8417    0.0000 C   0  0  0  0  0  0  0  0  0  0  0  0
   -2.4625    6.2417    0.0000 C   0  0  0  0  0  0  0  0  0  0  0  0
  2  1  2  0  0  0  0
  3  1  1  0  0  0  0
  4  8  1  0  0  0  0
  5  2  1  0  0  0  0
  6  1  1  0  0  0  0
  7  3  1  0  0  0  0
  8 14  1  0  0  0  0
  9  6  1  0  0  0  0
 10  5  1  0  0  0  0
 11  4  1  0  0  0  0
 12  4  1  0  0  0  0
 13  7  1  0  0  0  0
 14 13  2  0  0  0  0
 15  3  1  0  0  0  0
 16 10  2  0  0  0  0
 17  7  2  0  0  0  0
 18 11  1  0  0  0  0
 19 12  1  0  0  0  0
 20 11  2  0  0  0  0
 21 12  2  0  0  0  0
 22 25  2  0  0  0  0
 23  9  1  0  0  0  0
 24 23  2  0  0  0  0
 25 15  1  0  0  0  0
 26 16  1  0  0  0  0
 27 30  1  0  0  0  0
 28 10  1  0  0  0  0
 29 13  1  0  0  0  0
 30 29  2  0  0  0  0
 31 22  1  0  0  0  0
 32 25  1  0  0  0  0
 33 34  1  0  0  0  0
 34 32  2  0  0  0  0
  9  5  2  0  0  0  0
 16 24  1  0  0  0  0
 33 31  2  0  0  0  0
  8 27  2  0  0  0  0
 19 18  1  0  0  0  0
M  END
> <IDNUMBER>
F2738-2640

> <Chemical_Name>
N-(5-chloro-4-methyl-1,3-benzothiazol-2-yl)-3-(2,5-dioxopyrrolidin-1-yl)-N-[(pyridin-2-yl)methyl]benzamide

> <CAS>
922871-27-0

> <PriceCoeff>
1.00

> <MW>
490.96

> <Description>
solid

> <FSP3>
0.16

> <clogP>
3.05

> <TPSA>
111.71

> <Acceptor>
5

> <Donor>
1

> <RotBonds>
6

> <HAC>
34

> <Collection>
General

$$$$
F0149-0042
  -ISIS-  06222321442D

 22 23  0  0  0  0  0  0  0  0999 V2000
    4.2375    0.2833    0.0000 N   0  3  0  0  0  0  0  0  0  0  0  0
    3.6292    0.6333    0.0000 C   0  0  0  0  0  0  0  0  0  0  0  0
    4.3000   -0.4292    0.0000 O   0  5  0  0  0  0  0  0  0  0  0  0
    1.2375    1.3458    0.0000 C   0  0  0  0  0  0  0  0  0  0  0  0
    4.8792    0.5833    0.0000 O   0  0  0  0  0  0  0  0  0  0  0  0
    1.8042    1.6958    0.0000 O   0  0  0  0  0  0  0  0  0  0  0  0
    1.2500    0.6000    0.0000 O   0  0  0  0  0  0  0  0  0  0  0  0
   -0.8458    0.6000    0.0000 C   0  0  0  0  0  0  0  0  0  0  0  0
    3.0042    0.2833    0.0000 C   0  0  0  0  0  0  0  0  0  0  0  0
    3.6292    1.3458    0.0000 C   0  0  0  0  0  0  0  0  0  0  0  0
   -0.0208    1.5125    0.0000 O   0  0  0  0  0  0  0  0  0  0  0  0
    0.6542    1.7458    0.0000 C   0  0  0  0  0  0  0  0  0  0  0  0
    2.4000    1.3458    0.0000 C   0  0  0  0  0  0  0  0  0  0  0  0
   -0.1625    0.8208    0.0000 C   0  0  0  0  0  0  0  0  0  0  0  0
   -0.9958   -0.0875    0.0000 C   0  0  0  0  0  0  0  0  0  0  0  0
    2.4000    0.6458    0.0000 C   0  0  0  0  0  0  0  0  0  0  0  0
    3.0042    1.7000    0.0000 C   0  0  0  0  0  0  0  0  0  0  0  0
   -1.6625   -0.2875    0.0000 O   0  0  0  0  0  0  0  0  0  0  0  0
    0.2292   -0.3375    0.0000 C   0  0  0  0  0  0  0  0  0  0  0  0
    0.3667    0.3625    0.0000 C   0  0  0  0  0  0  0  0  0  0  0  0
   -0.4625   -0.5667    0.0000 C   0  0  0  0  0  0  0  0  0  0  0  0
   -2.1833    0.1958    0.0000 C   0  0  0  0  0  0  0  0  0  0  0  0
  2  1  1  0  0  0  0
  3  1  1  0  0  0  0
  4  6  1  0  0  0  0
  5  1  2  0  0  0  0
  6 13  1  0  0  0  0
  7  4  2  0  0  0  0
  8 14  2  0  0  0  0
  9  2  2  0  0  0  0
 10  2  1  0  0  0  0
 11 12  1  0  0  0  0
 12  4  1  0  0  0  0
 13 17  1  0  0  0  0
 14 11  1  0  0  0  0
 15  8  1  0  0  0  0
 16  9  1  0  0  0  0
 17 10  2  0  0  0  0
 18 15  1  0  0  0  0
 19 20  2  0  0  0  0
 20 14  1  0  0  0  0
 21 19  1  0  0  0  0
 22 18  1  0  0  0  0
 16 13  2  0  0  0  0
 15 21  2  0  0  0  0
M  CHG  2   1   1   3  -1
M  END
> <IDNUMBER>
F0149-0042

> <Chemical_Name>
4-nitrophenyl 2-(3-methoxyphenoxy)acetate

> <CAS>
391221-85-5

> <PriceCoeff>
1.00

> <MW>
303.27

> <Description>
solid

> <FSP3>
0.13

> <clogP>
3.06

> <TPSA>
87.90

> <Acceptor>
6

> <Donor>
0

> <RotBonds>
7

> <HAC>
22

> <Collection>
General

> <Reference_compound>
CHEMBL40988

> <Similarity>
0.8050

$$$$
F3161-0035
  -ISIS-  06222321152D

 23 26  0  0  0  0  0  0  0  0999 V2000
    5.9292   -0.9417    0.0000 C   0  0  3  0  0  0  0  0  0  0  0  0
    1.9500   -3.2167    0.0000 C   0  0  3  0  0  0  0  0  0  0  0  0
    1.9500   -4.7250    0.0000 C   0  0  0  0  0  0  0  0  0  0  0  0
    5.9292   -2.4500    0.0000 C   0  0  3  0  0  0  0  0  0  0  0  0
    3.2792   -2.4500    0.0000 C   0  0  3  0  0  0  0  0  0  0  0  0
    4.6042   -3.2167    0.0000 C   0  0  3  0  0  0  0  0  0  0  0  0
    7.2750   -0.1792    0.0000 C   0  0  3  0  0  0  0  0  0  0  0  0
    3.2792   -5.4792    0.0000 C   0  0  0  0  0  0  0  0  0  0  0  0
    4.6042   -0.1792    0.0000 C   0  0  0  0  0  0  0  0  0  0  0  0
    4.6042   -4.7250    0.0000 C   0  0  0  0  0  0  0  0  0  0  0  0
    3.2792   -0.9417    0.0000 C   0  0  0  0  0  0  0  0  0  0  0  0
    8.6000   -2.4500    0.0000 C   0  0  0  0  0  0  0  0  0  0  0  0
    0.6167   -2.4500    0.0000 C   0  0  0  0  0  0  0  0  0  0  0  0
    8.6000   -0.9417    0.0000 C   0  0  0  0  0  0  0  0  0  0  0  0
    7.2750    1.3333    0.0000 C   0  0  0  0  0  0  0  0  0  0  0  0
    0.6167   -5.4792    0.0000 C   0  0  0  0  0  0  0  0  0  0  0  0
    5.9792    2.1458    0.0000 O   0  0  0  0  0  0  0  0  0  0  0  0
    5.9292    0.1583    0.0000 C   0  0  0  0  0  0  0  0  0  0  0  0
   -0.7208   -3.2167    0.0000 C   0  0  0  0  0  0  0  0  0  0  0  0
   -0.7208   -4.7250    0.0000 C   0  0  3  0  0  0  0  0  0  0  0  0
    1.9500   -2.0167    0.0000 C   0  0  0  0  0  0  0  0  0  0  0  0
   -1.9083   -5.3417    0.0000 O   0  0  0  0  0  0  0  0  0  0  0  0
    8.5542    2.1083    0.0000 C   0  0  0  0  0  0  0  0  0  0  0  0
  2  5  1  0  0  0  0
  3  2  1  0  0  0  0
  4  1  1  0  0  0  0
  5 11  1  0  0  0  0
  6  4  1  0  0  0  0
  7  1  1  0  0  0  0
  8 10  1  0  0  0  0
  9  1  1  0  0  0  0
 10  6  1  0  0  0  0
 11  9  1  0  0  0  0
 12  4  1  0  0  0  0
 13  2  1  0  0  0  0
 14  7  1  0  0  0  0
 15  7  1  0  0  0  0
 16  3  1  0  0  0  0
 17 15  2  0  0  0  0
 18  1  1  0  0  0  0
 19 13  1  0  0  0  0
 20 19  1  0  0  0  0
 21  2  1  0  0  0  0
 22 20  1  0  0  0  0
 23 15  1  0  0  0  0
 12 14  1  0  0  0  0
  5  6  1  0  0  0  0
  3  8  2  0  0  0  0
 16 20  1  0  0  0  0
M  END
> <IDNUMBER>
F3161-0035

> <Chemical_Name>
1-{5-hydroxy-2,15-dimethyltetracyclo[8.7.0.0^{2,7}.0^{11,15}]heptadec-7-en-14-yl}ethan-1-one

> <CAS>
145-13-1

> <PriceCoeff>
1.00

> <MW>
316.48

> <Description>
solid

> <FSP3>
0.86

> <clogP>
4.03

> <TPSA>
37.30

> <Acceptor>
2

> <Donor>
1

> <RotBonds>
1

> <HAC>
23

> <Collection>
General

> <Reference_compound>
CHEMBL221542

> <Similarity>
0.8110

$$$$
F3386-1371
  -ISIS-  06222321462D

 21 22  0  0  0  0  0  0  0  0999 V2000
    5.1250   -1.9375    0.0000 S   0  0  3  0  0  0  0  0  0  0  0  0
    4.3000   -1.9417    0.0000 C   0  0  0  0  0  0  0  0  0  0  0  0
    5.9500   -1.9250    0.0000 N   0  0  0  0  0  0  0  0  0  0  0  0
    6.7750   -1.9250    0.0000 C   0  0  0  0  0  0  0  0  0  0  0  0
    3.9042   -2.6542    0.0000 C   0  0  0  0  0  0  0  0  0  0  0  0
    3.8792   -1.2375    0.0000 C   0  0  0  0  0  0  0  0  0  0  0  0
    5.1167   -1.1125    0.0000 O   0  0  0  0  0  0  0  0  0  0  0  0
    5.1292   -2.7625    0.0000 O   0  0  0  0  0  0  0  0  0  0  0  0
    3.0792   -2.6667    0.0000 C   0  0  0  0  0  0  0  0  0  0  0  0
    7.1792   -2.6375    0.0000 C   0  0  0  0  0  0  0  0  0  0  0  0
    3.0667   -1.2417    0.0000 C   0  0  0  0  0  0  0  0  0  0  0  0
    2.6542   -1.9542    0.0000 C   0  0  0  0  0  0  0  0  0  0  0  0
    7.1792   -1.2125    0.0000 C   0  0  0  0  0  0  0  0  0  0  0  0
    8.0000   -1.2042    0.0000 C   0  0  0  0  0  0  0  0  0  0  0  0
    8.0042   -2.6292    0.0000 C   0  0  0  0  0  0  0  0  0  0  0  0
    8.4167   -1.9167    0.0000 C   0  0  0  0  0  0  0  0  0  0  0  0
    8.4167   -3.3500    0.0000 Cl  0  0  0  0  0  0  0  0  0  0  0  0
    6.7625   -0.5000    0.0000 O   0  0  0  0  0  0  0  0  0  0  0  0
    4.2917   -0.5167    0.0000 C   0  0  0  0  0  0  0  0  0  0  0  0
    2.6750   -3.3917    0.0000 C   0  0  0  0  0  0  0  0  0  0  0  0
    1.8292   -1.9667    0.0000 C   0  0  0  0  0  0  0  0  0  0  0  0
  2  1  1  0  0  0  0
  3  1  1  0  0  0  0
  4  3  1  0  0  0  0
  5  2  1  0  0  0  0
  6  2  2  0  0  0  0
  7  1  2  0  0  0  0
  8  1  2  0  0  0  0
  9  5  2  0  0  0  0
 10  4  2  0  0  0  0
 11  6  1  0  0  0  0
 12 11  2  0  0  0  0
 13  4  1  0  0  0  0
 14 13  2  0  0  0  0
 15 10  1  0  0  0  0
 16 14  1  0  0  0  0
 17 15  1  0  0  0  0
 18 13  1  0  0  0  0
 19  6  1  0  0  0  0
 20  9  1  0  0  0  0
 21 12  1  0  0  0  0
 12  9  1  0  0  0  0
 16 15  2  0  0  0  0
M  END
> <IDNUMBER>
F3386-1371

> <Chemical_Name>
N-(5-chloro-2-hydroxyphenyl)-2,4,5-trimethylbenzene-1-sulfonamide

> <CAS>
1172351-57-3

> <PriceCoeff>
1.00

> <MW>
325.81

> <Description>
solid

> <FSP3>
0.20

> <clogP>
4.43

> <TPSA>
74.78

> <Acceptor>
4

> <Donor>
2

> <RotBonds>
3

> <HAC>
21

> <Collection>
General

$$$$
F1814-1806
  -ISIS-  06222321142D

 24 26  0  0  0  0  0  0  0  0999 V2000
   -4.5625    2.6208    0.0000 C   0  0  0  0  0  0  0  0  0  0  0  0
   -3.1583    5.0292    0.0000 N   0  0  3  0  0  0  0  0  0  0  0  0
   -4.6458    1.7833    0.0000 N   0  0  3  0  0  0  0  0  0  0  0  0
   -3.8625    3.0083    0.0000 N   0  0  0  0  0  0  0  0  0  0  0  0
   -5.3208    2.9583    0.0000 S   0  0  0  0  0  0  0  0  0  0  0  0
   -5.4708    1.6125    0.0000 C   0  0  0  0  0  0  0  0  0  0  0  0
   -5.8833    2.3333    0.0000 C   0  0  0  0  0  0  0  0  0  0  0  0
   -5.8958    0.8875    0.0000 C   0  0  0  0  0  0  0  0  0  0  0  0
   -3.8208    5.5125    0.0000 C   0  0  0  0  0  0  0  0  0  0  0  0
   -2.4875    5.5042    0.0000 C   0  0  0  0  0  0  0  0  0  0  0  0
   -3.8708    3.8000    0.0000 C   0  0  0  0  0  0  0  0  0  0  0  0
   -3.1583    4.2042    0.0000 C   0  0  0  0  0  0  0  0  0  0  0  0
   -6.7167    2.3458    0.0000 C   0  0  0  0  0  0  0  0  0  0  0  0
   -6.7167    0.8958    0.0000 C   0  0  0  0  0  0  0  0  0  0  0  0
   -7.1292    1.6208    0.0000 C   0  0  0  0  0  0  0  0  0  0  0  0
   -2.7375    6.3000    0.0000 C   0  0  0  0  0  0  0  0  0  0  0  0
   -3.5625    6.2917    0.0000 C   0  0  0  0  0  0  0  0  0  0  0  0
   -1.7083    5.2500    0.0000 O   0  0  0  0  0  0  0  0  0  0  0  0
   -4.6000    5.2667    0.0000 O   0  0  0  0  0  0  0  0  0  0  0  0
   -4.5583    4.2000    0.0000 O   0  0  0  0  0  0  0  0  0  0  0  0
   -5.4833    0.1833    0.0000 F   0  0  0  0  0  0  0  0  0  0  0  0
   -4.0833    1.2375    0.0000 C   0  0  0  0  0  0  0  0  0  0  0  0
   -7.9167    1.6208    0.0000 F   0  0  0  0  0  0  0  0  0  0  0  0
   -4.2458    0.4375    0.0000 C   0  0  0  0  0  0  0  0  0  0  0  0
  2 12  1  0  0  0  0
  3  1  1  0  0  0  0
  4  1  2  0  0  0  0
  5  1  1  0  0  0  0
  6  3  1  0  0  0  0
  7  5  1  0  0  0  0
  8  6  1  0  0  0  0
  9  2  1  0  0  0  0
 10  2  1  0  0  0  0
 11  4  1  0  0  0  0
 12 11  1  0  0  0  0
 13  7  1  0  0  0  0
 14  8  2  0  0  0  0
 15 13  2  0  0  0  0
 16 10  1  0  0  0  0
 17  9  1  0  0  0  0
 18 10  2  0  0  0  0
 19  9  2  0  0  0  0
 20 11  2  0  0  0  0
 21  8  1  0  0  0  0
 22  3  1  0  0  0  0
 23 15  1  0  0  0  0
 24 22  1  0  0  0  0
  7  6  2  0  0  0  0
 14 15  1  0  0  0  0
 16 17  1  0  0  0  0
M  END
> <IDNUMBER>
F1814-1806

> <Chemical_Name>
2-(2,5-dioxopyrrolidin-1-yl)-N-[(2Z)-3-ethyl-4,6-difluoro-2,3-dihydro-1,3-benzothiazol-2-ylidene]acetamide

> <CAS>
868375-75-1

> <PriceCoeff>
1.00

> <MW>
353.34

> <Description>
solid

> <FSP3>
0.33

> <clogP>
3.59

> <TPSA>
95.35

> <Acceptor>
3

> <Donor>
0

> <RotBonds>
4

> <HAC>
24

> <Collection>
General

$$$$
F3115-0094
  -ISIS-  06222321152D

 29 31  0  0  0  0  0  0  0  0999 V2000
    4.5500   -1.6292    0.0000 N   0  0  3  0  0  0  0  0  0  0  0  0
    5.0417   -2.3000    0.0000 C   0  0  0  0  0  0  0  0  0  0  0  0
    5.0292   -0.9625    0.0000 C   0  0  0  0  0  0  0  0  0  0  0  0
    5.8250   -2.0417    0.0000 C   0  0  3  0  0  0  0  0  0  0  0  0
    5.8167   -1.2125    0.0000 C   0  0  0  0  0  0  0  0  0  0  0  0
    6.4917   -2.5167    0.0000 N   0  0  3  0  0  0  0  0  0  0  0  0
    7.8167   -3.4750    0.0000 N   0  0  3  0  0  0  0  0  0  0  0  0
    8.4875   -3.9625    0.0000 C   0  0  0  0  0  0  0  0  0  0  0  0
    3.7250   -1.6375    0.0000 C   0  0  0  0  0  0  0  0  0  0  0  0
    4.7875   -3.0792    0.0000 O   0  0  0  0  0  0  0  0  0  0  0  0
    4.7750   -0.1792    0.0000 O   0  0  0  0  0  0  0  0  0  0  0  0
    7.9042   -2.6542    0.0000 C   0  0  0  0  0  0  0  0  0  0  0  0
    7.0667   -3.8042    0.0000 C   0  0  0  0  0  0  0  0  0  0  0  0
    7.2375   -2.1750    0.0000 C   0  0  0  0  0  0  0  0  0  0  0  0
    6.4042   -3.3292    0.0000 C   0  0  0  0  0  0  0  0  0  0  0  0
    9.2417   -3.6250    0.0000 O   0  0  0  0  0  0  0  0  0  0  0  0
    3.3167   -0.9250    0.0000 C   0  0  0  0  0  0  0  0  0  0  0  0
    8.4042   -4.7792    0.0000 O   0  0  0  0  0  0  0  0  0  0  0  0
    3.7292   -0.2042    0.0000 O   0  0  0  0  0  0  0  0  0  0  0  0
    3.3250   -2.3542    0.0000 C   0  0  0  0  0  0  0  0  0  0  0  0
    2.4917   -0.9250    0.0000 C   0  0  0  0  0  0  0  0  0  0  0  0
    7.6500   -5.1167    0.0000 C   0  0  0  0  0  0  0  0  0  0  0  0
    3.3167    0.5083    0.0000 C   0  0  0  0  0  0  0  0  0  0  0  0
    3.7250    1.2208    0.0000 C   0  0  0  0  0  0  0  0  0  0  0  0
    3.3125    1.9333    0.0000 C   0  0  0  0  0  0  0  0  0  0  0  0
    2.4917   -2.3542    0.0000 C   0  0  0  0  0  0  0  0  0  0  0  0
    7.5667   -5.9375    0.0000 C   0  0  0  0  0  0  0  0  0  0  0  0
    3.7250    2.6500    0.0000 C   0  0  0  0  0  0  0  0  0  0  0  0
    2.0792   -1.6417    0.0000 C   0  0  0  0  0  0  0  0  0  0  0  0
  2  1  1  0  0  0  0
  3  1  1  0  0  0  0
  4  2  1  0  0  0  0
  5  3  1  0  0  0  0
  6  4  1  0  0  0  0
  7 13  1  0  0  0  0
  8  7  1  0  0  0  0
  9  1  1  0  0  0  0
 10  2  2  0  0  0  0
 11  3  2  0  0  0  0
 12 14  1  0  0  0  0
 13 15  1  0  0  0  0
 14  6  1  0  0  0  0
 15  6  1  0  0  0  0
 16  8  2  0  0  0  0
 17  9  2  0  0  0  0
 18  8  1  0  0  0  0
 19 17  1  0  0  0  0
 20  9  1  0  0  0  0
 21 17  1  0  0  0  0
 22 18  1  0  0  0  0
 23 19  1  0  0  0  0
 24 23  1  0  0  0  0
 25 24  1  0  0  0  0
 26 20  2  0  0  0  0
 27 22  1  0  0  0  0
 28 25  1  0  0  0  0
 29 26  1  0  0  0  0
  4  5  1  0  0  0  0
 29 21  2  0  0  0  0
  7 12  1  0  0  0  0
M  END
> <IDNUMBER>
F3115-0094

> <Chemical_Name>
ethyl 4-[1-(2-butoxyphenyl)-2,5-dioxopyrrolidin-3-yl]piperazine-1-carboxylate

> <CAS>
857494-06-5

> <PriceCoeff>
1.00

> <MW>
403.47

> <Description>
solid

> <FSP3>
0.57

> <clogP>
4.09

> <TPSA>
79.39

> <Acceptor>
5

> <Donor>
1

> <RotBonds>
9

> <HAC>
29

> <Collection>
General

$$$$
F3385-2739
  -ISIS-  06222321152D

 28 30  0  0  0  0  0  0  0  0999 V2000
    3.2417   -1.1417    0.0000 C   0  0  0  0  0  0  0  0  0  0  0  0
    2.5167   -1.5542    0.0000 C   0  0  0  0  0  0  0  0  0  0  0  0
    1.8000   -1.1417    0.0000 C   0  0  0  0  0  0  0  0  0  0  0  0
    3.2417   -0.3125    0.0000 C   0  0  0  0  0  0  0  0  0  0  0  0
    1.8042   -0.3125    0.0000 C   0  0  0  0  0  0  0  0  0  0  0  0
    3.9500   -1.5625    0.0000 C   0  0  0  0  0  0  0  0  0  0  0  0
    2.5167    0.1083    0.0000 O   0  0  0  0  0  0  0  0  0  0  0  0
    4.6625   -1.1500    0.0000 C   0  0  0  0  0  0  0  0  0  0  0  0
    1.0875   -1.5542    0.0000 C   0  0  0  0  0  0  0  0  0  0  0  0
    1.0875    0.1000    0.0000 C   0  0  0  0  0  0  0  0  0  0  0  0
    5.3750   -1.5625    0.0000 C   0  0  0  0  0  0  0  0  0  0  0  0
   -1.7708    0.1208    0.0000 C   0  0  0  0  0  0  0  0  0  0  0  0
    2.5167   -2.3792    0.0000 O   0  0  0  0  0  0  0  0  0  0  0  0
    5.3750   -2.3917    0.0000 C   0  0  0  0  0  0  0  0  0  0  0  0
    3.9417   -2.3875    0.0000 C   0  0  0  0  0  0  0  0  0  0  0  0
   -1.7583    0.9375    0.0000 O   0  0  0  0  0  0  0  0  0  0  0  0
    4.6542   -2.8000    0.0000 C   0  0  0  0  0  0  0  0  0  0  0  0
    0.3792   -0.3125    0.0000 C   0  0  0  0  0  0  0  0  0  0  0  0
   -0.3375    0.1000    0.0000 O   0  0  0  0  0  0  0  0  0  0  0  0
   -1.0583   -0.3042    0.0000 C   0  0  0  0  0  0  0  0  0  0  0  0
    0.3750   -1.1417    0.0000 C   0  0  0  0  0  0  0  0  0  0  0  0
    6.0917   -1.1500    0.0000 O   0  0  0  0  0  0  0  0  0  0  0  0
   -2.4833   -0.2917    0.0000 O   0  0  0  0  0  0  0  0  0  0  0  0
    6.0875   -2.8042    0.0000 O   0  0  0  0  0  0  0  0  0  0  0  0
   -3.1958    0.1250    0.0000 C   0  0  0  0  0  0  0  0  0  0  0  0
    6.0875   -0.3250    0.0000 C   0  0  0  0  0  0  0  0  0  0  0  0
    6.8042   -2.3917    0.0000 C   0  0  0  0  0  0  0  0  0  0  0  0
   -3.1875    0.9500    0.0000 C   0  0  0  0  0  0  0  0  0  0  0  0
  2  1  1  0  0  0  0
  3  2  1  0  0  0  0
  4  1  2  0  0  0  0
  5  7  1  0  0  0  0
  6  1  1  0  0  0  0
  7  4  1  0  0  0  0
  8  6  1  0  0  0  0
  9  3  2  0  0  0  0
 10  5  2  0  0  0  0
 11  8  2  0  0  0  0
 12 20  1  0  0  0  0
 13  2  2  0  0  0  0
 14 17  2  0  0  0  0
 15  6  2  0  0  0  0
 16 12  2  0  0  0  0
 17 15  1  0  0  0  0
 18 10  1  0  0  0  0
 19 18  1  0  0  0  0
 20 19  1  0  0  0  0
 21  9  1  0  0  0  0
 22 11  1  0  0  0  0
 23 12  1  0  0  0  0
 24 14  1  0  0  0  0
 25 23  1  0  0  0  0
 26 22  1  0  0  0  0
 27 24  1  0  0  0  0
 28 25  1  0  0  0  0
  5  3  1  0  0  0  0
 11 14  1  0  0  0  0
 21 18  2  0  0  0  0
M  END
> <IDNUMBER>
F3385-2739

> <Chemical_Name>
ethyl 2-{[3-(3,4-dimethoxyphenyl)-4-oxo-4H-chromen-7-yl]oxy}acetate

> <CAS>
35212-36-3

> <PriceCoeff>
1.00

> <MW>
384.38

> <Description>
solid

> <FSP3>
0.24

> <clogP>
2.90

> <TPSA>
80.29

> <Acceptor>
7

> <Donor>
0

> <RotBonds>
8

> <HAC>
28

> <Collection>
General

> <Reference_compound>
CHEMBL455048

> <Similarity>
0.8380

$$$$
F1814-1147
  -ISIS-  06222321452D

 25 27  0  0  0  0  0  0  0  0999 V2000
   -5.2833    2.1875    0.0000 C   0  0  0  0  0  0  0  0  0  0  0  0
   -6.0292    2.5250    0.0000 S   0  0  0  0  0  0  0  0  0  0  0  0
   -6.5917    1.9000    0.0000 C   0  0  0  0  0  0  0  0  0  0  0  0
   -5.3583    1.3500    0.0000 N   0  0  3  0  0  0  0  0  0  0  0  0
   -3.8708    4.6292    0.0000 N   0  0  3  0  0  0  0  0  0  0  0  0
   -6.1667    1.1708    0.0000 C   0  0  0  0  0  0  0  0  0  0  0  0
   -4.5833    2.5958    0.0000 N   0  0  0  0  0  0  0  0  0  0  0  0
   -3.2000    5.1042    0.0000 C   0  0  0  0  0  0  0  0  0  0  0  0
   -4.5333    5.1042    0.0000 C   0  0  0  0  0  0  0  0  0  0  0  0
   -4.5833    3.3958    0.0000 C   0  0  0  0  0  0  0  0  0  0  0  0
   -3.8708    3.8000    0.0000 C   0  0  0  0  0  0  0  0  0  0  0  0
   -7.4375    1.8958    0.0000 C   0  0  0  0  0  0  0  0  0  0  0  0
   -6.5917    0.4500    0.0000 C   0  0  0  0  0  0  0  0  0  0  0  0
   -3.4583    5.9000    0.0000 C   0  0  0  0  0  0  0  0  0  0  0  0
   -4.2833    5.8917    0.0000 C   0  0  0  0  0  0  0  0  0  0  0  0
   -2.4125    4.8417    0.0000 O   0  0  0  0  0  0  0  0  0  0  0  0
   -5.3208    4.8542    0.0000 O   0  0  0  0  0  0  0  0  0  0  0  0
   -5.2833    3.7958    0.0000 O   0  0  0  0  0  0  0  0  0  0  0  0
   -7.8417    1.1708    0.0000 C   0  0  0  0  0  0  0  0  0  0  0  0
   -7.4167    0.4458    0.0000 C   0  0  0  0  0  0  0  0  0  0  0  0
   -4.7583    0.8125    0.0000 C   0  0  0  0  0  0  0  0  0  0  0  0
   -7.8417    2.6083    0.0000 O   0  0  0  0  0  0  0  0  0  0  0  0
   -6.1667   -0.2542    0.0000 O   0  0  0  0  0  0  0  0  0  0  0  0
   -6.5000   -1.0042    0.0000 C   0  0  0  0  0  0  0  0  0  0  0  0
   -8.6667    2.6083    0.0000 C   0  0  0  0  0  0  0  0  0  0  0  0
  2  1  1  0  0  0  0
  3  2  1  0  0  0  0
  4  1  1  0  0  0  0
  5 11  1  0  0  0  0
  6  4  1  0  0  0  0
  7  1  2  0  0  0  0
  8  5  1  0  0  0  0
  9  5  1  0  0  0  0
 10  7  1  0  0  0  0
 11 10  1  0  0  0  0
 12  3  1  0  0  0  0
 13  6  1  0  0  0  0
 14  8  1  0  0  0  0
 15  9  1  0  0  0  0
 16  8  2  0  0  0  0
 17  9  2  0  0  0  0
 18 10  2  0  0  0  0
 19 12  2  0  0  0  0
 20 13  2  0  0  0  0
 21  4  1  0  0  0  0
 22 12  1  0  0  0  0
 23 13  1  0  0  0  0
 24 23  1  0  0  0  0
 25 22  1  0  0  0  0
  6  3  2  0  0  0  0
 19 20  1  0  0  0  0
 14 15  1  0  0  0  0
M  END
> <IDNUMBER>
F1814-1147

> <Chemical_Name>
N-[(2Z)-4,7-dimethoxy-3-methyl-2,3-dihydro-1,3-benzothiazol-2-ylidene]-2-(2,5-dioxopyrrolidin-1-yl)acetamide

> <CAS>
1164490-01-0

> <PriceCoeff>
1.00

> <MW>
363.39

> <Description>
solid

> <FSP3>
0.38

> <clogP>
2.79

> <TPSA>
113.81

> <Acceptor>
5

> <Donor>
0

> <RotBonds>
5

> <HAC>
25

> <Collection>
General

$$$$
F1816-1185
  -ISIS-  06222321452D

 24 26  0  0  0  0  0  0  0  0999 V2000
   -4.5958    2.5583    0.0000 C   0  0  0  0  0  0  0  0  0  0  0  0
   -3.1583    5.0417    0.0000 N   0  0  3  0  0  0  0  0  0  0  0  0
   -4.6875    1.7333    0.0000 N   0  0  3  0  0  0  0  0  0  0  0  0
   -3.8625    2.9833    0.0000 N   0  0  0  0  0  0  0  0  0  0  0  0
   -5.3208    2.9000    0.0000 S   0  0  0  0  0  0  0  0  0  0  0  0
   -5.4958    1.5833    0.0000 C   0  0  0  0  0  0  0  0  0  0  0  0
   -5.8958    2.3083    0.0000 C   0  0  0  0  0  0  0  0  0  0  0  0
   -2.4833    5.5167    0.0000 C   0  0  0  0  0  0  0  0  0  0  0  0
   -3.8208    5.5167    0.0000 C   0  0  0  0  0  0  0  0  0  0  0  0
   -3.8708    3.8000    0.0000 C   0  0  0  0  0  0  0  0  0  0  0  0
   -3.1583    4.2125    0.0000 C   0  0  0  0  0  0  0  0  0  0  0  0
   -4.2708    0.3583    0.0000 C   0  0  0  0  0  0  0  0  0  0  0  0
   -4.4583   -0.4542    0.0000 C   0  0  0  0  0  0  0  0  0  0  0  0
   -2.7458    6.3125    0.0000 C   0  0  0  0  0  0  0  0  0  0  0  0
   -3.5708    6.3042    0.0000 C   0  0  0  0  0  0  0  0  0  0  0  0
   -1.6958    5.2625    0.0000 O   0  0  0  0  0  0  0  0  0  0  0  0
   -4.6083    5.2750    0.0000 O   0  0  0  0  0  0  0  0  0  0  0  0
   -5.9250    0.8833    0.0000 C   0  0  0  0  0  0  0  0  0  0  0  0
   -4.5833    4.2125    0.0000 O   0  0  0  0  0  0  0  0  0  0  0  0
   -4.0833    1.1625    0.0000 C   0  0  0  0  0  0  0  0  0  0  0  0
   -6.7125    2.3333    0.0000 C   0  0  0  0  0  0  0  0  0  0  0  0
   -7.1417    1.6250    0.0000 C   0  0  0  0  0  0  0  0  0  0  0  0
   -6.7292    0.8958    0.0000 C   0  0  0  0  0  0  0  0  0  0  0  0
   -5.5333    0.1500    0.0000 C   0  0  0  0  0  0  0  0  0  0  0  0
  2 11  1  0  0  0  0
  3  1  1  0  0  0  0
  4  1  2  0  0  0  0
  5  1  1  0  0  0  0
  6  3  1  0  0  0  0
  7  5  1  0  0  0  0
  8  2  1  0  0  0  0
  9  2  1  0  0  0  0
 10  4  1  0  0  0  0
 11 10  1  0  0  0  0
 12 20  1  0  0  0  0
 13 12  3  0  0  0  0
 14  8  1  0  0  0  0
 15  9  1  0  0  0  0
 16  8  2  0  0  0  0
 17  9  2  0  0  0  0
 18  6  1  0  0  0  0
 19 10  2  0  0  0  0
 20  3  1  0  0  0  0
 21  7  1  0  0  0  0
 22 21  2  0  0  0  0
 23 18  2  0  0  0  0
 24 18  1  0  0  0  0
  6  7  2  0  0  0  0
 22 23  1  0  0  0  0
 14 15  1  0  0  0  0
M  END
> <IDNUMBER>
F1816-1185

> <Chemical_Name>
2-(2,5-dioxopyrrolidin-1-yl)-N-[(2Z)-4-methyl-3-(prop-2-yn-1-yl)-2,3-dihydro-1,3-benzothiazol-2-ylidene]acetamide

> <CAS>
1164527-40-5

> <PriceCoeff>
1.00

> <MW>
341.38

> <Description>
solid

> <FSP3>
0.29

> <clogP>
3.38

> <TPSA>
95.35

> <Acceptor>
3

> <Donor>
0

> <RotBonds>
5

> <HAC>
24

> <Collection>
General

$$$$
F3064-0198
  -ISIS-  06222321462D

 22 24  0  0  0  0  0  0  0  0999 V2000
    8.4875    2.1083    0.0000 C   0  0  0  0  0  0  0  0  0  0  0  0
    8.4875    3.5083    0.0000 C   0  0  0  0  0  0  0  0  0  0  0  0
    6.0542    3.5083    0.0000 N   0  0  3  0  0  0  0  0  0  0  0  0
    9.8167    1.6708    0.0000 N   0  0  0  0  0  0  0  0  0  0  0  0
    7.2667    1.4000    0.0000 N   0  0  3  0  0  0  0  0  0  0  0  0
    6.0542    2.1083    0.0000 C   0  0  0  0  0  0  0  0  0  0  0  0
    7.2667    4.2042    0.0000 C   0  0  0  0  0  0  0  0  0  0  0  0
   10.6375    2.8083    0.0000 C   0  0  0  0  0  0  0  0  0  0  0  0
    9.8167    3.9375    0.0000 N   0  0  3  0  0  0  0  0  0  0  0  0
    4.8417    4.2000    0.0000 C   0  0  0  0  0  0  0  0  0  0  0  0
    4.8417    1.4083    0.0000 O   0  0  0  0  0  0  0  0  0  0  0  0
    7.2667    5.6042    0.0000 O   0  0  0  0  0  0  0  0  0  0  0  0
   12.0375    2.8083    0.0000 Br  0  0  0  0  0  0  0  0  0  0  0  0
    7.2667   -0.0000    0.0000 C   0  0  0  0  0  0  0  0  0  0  0  0
    3.6292    3.5083    0.0000 C   0  0  0  0  0  0  0  0  0  0  0  0
   10.2500    5.2667    0.0000 C   0  0  0  0  0  0  0  0  0  0  0  0
    1.2042    2.1083    0.0000 C   0  0  0  0  0  0  0  0  0  0  0  0
    2.4167    4.1917    0.0000 C   0  0  0  0  0  0  0  0  0  0  0  0
    3.6292    2.1083    0.0000 C   0  0  0  0  0  0  0  0  0  0  0  0
    2.4167    1.4083    0.0000 C   0  0  0  0  0  0  0  0  0  0  0  0
    1.2042    3.5083    0.0000 C   0  0  0  0  0  0  0  0  0  0  0  0
    0.0000    1.4000    0.0000 C   0  0  0  0  0  0  0  0  0  0  0  0
  2  1  2  0  0  0  0
  3  6  1  0  0  0  0
  4  1  1  0  0  0  0
  5  1  1  0  0  0  0
  6  5  1  0  0  0  0
  7  2  1  0  0  0  0
  8  4  2  0  0  0  0
  9  2  1  0  0  0  0
 10  3  1  0  0  0  0
 11  6  2  0  0  0  0
 12  7  2  0  0  0  0
 13  8  1  0  0  0  0
 14  5  1  0  0  0  0
 15 10  1  0  0  0  0
 16  9  1  0  0  0  0
 17 20  1  0  0  0  0
 18 15  2  0  0  0  0
 19 15  1  0  0  0  0
 20 19  2  0  0  0  0
 21 18  1  0  0  0  0
 22 17  1  0  0  0  0
  8  9  1  0  0  0  0
  7  3  1  0  0  0  0
 21 17  2  0  0  0  0
M  END
> <IDNUMBER>
F3064-0198

> <Chemical_Name>
8-bromo-3,7-dimethyl-1-[(4-methylphenyl)methyl]-2,3,6,7-tetrahydro-1H-purine-2,6-dione

> <CAS>
887867-85-8

> <PriceCoeff>
1.00

> <MW>
363.21

> <Description>
solid

> <FSP3>
0.27

> <clogP>
3.12

> <TPSA>
58.44

> <Acceptor>
3

> <Donor>
1

> <RotBonds>
2

> <HAC>
22

> <Collection>
General

> <Reference_compound>
CHEMBL113

> <Similarity>
0.8030

$$$$
F2515-2223
  -ISIS-  06222321142D

 34 38  0  0  0  0  0  0  0  0999 V2000
   -4.5625    2.1500    0.0000 C   0  0  0  0  0  0  0  0  0  0  0  0
   -3.8458    2.5583    0.0000 N   0  0  3  0  0  0  0  0  0  0  0  0
   -4.6583    1.3250    0.0000 N   0  0  0  0  0  0  0  0  0  0  0  0
   -0.9833    3.3833    0.0000 N   0  0  3  0  0  0  0  0  0  0  0  0
   -5.3208    2.4875    0.0000 S   0  0  0  0  0  0  0  0  0  0  0  0
   -3.8458    3.3958    0.0000 C   0  0  0  0  0  0  0  0  0  0  0  0
   -5.4583    1.1583    0.0000 C   0  0  0  0  0  0  0  0  0  0  0  0
   -5.8708    1.8708    0.0000 C   0  0  0  0  0  0  0  0  0  0  0  0
   -1.7000    3.8000    0.0000 C   0  0  0  0  0  0  0  0  0  0  0  0
   -0.2208    3.6875    0.0000 C   0  0  0  0  0  0  0  0  0  0  0  0
   -0.9458    2.5583    0.0000 C   0  0  0  0  0  0  0  0  0  0  0  0
   -3.1333    3.8000    0.0000 C   0  0  0  0  0  0  0  0  0  0  0  0
   -5.8625    0.4458    0.0000 C   0  0  0  0  0  0  0  0  0  0  0  0
   -2.4208    3.3958    0.0000 C   0  0  0  0  0  0  0  0  0  0  0  0
   -3.1333    2.1458    0.0000 C   0  0  0  0  0  0  0  0  0  0  0  0
   -6.6917    1.8708    0.0000 C   0  0  0  0  0  0  0  0  0  0  0  0
   -4.5625    3.8000    0.0000 O   0  0  0  0  0  0  0  0  0  0  0  0
   -6.6792    0.4375    0.0000 C   0  0  0  0  0  0  0  0  0  0  0  0
    0.3125    3.0583    0.0000 C   0  0  0  0  0  0  0  0  0  0  0  0
   -0.1208    2.3583    0.0000 C   0  0  0  0  0  0  0  0  0  0  0  0
    0.0000    4.4667    0.0000 O   0  0  0  0  0  0  0  0  0  0  0  0
   -1.5750    2.0375    0.0000 O   0  0  0  0  0  0  0  0  0  0  0  0
   -7.1042    1.1500    0.0000 C   0  0  0  0  0  0  0  0  0  0  0  0
   -2.4208    0.0833    0.0000 N   0  0  0  0  0  0  0  0  0  0  0  0
   -3.1333    1.3208    0.0000 C   0  0  0  0  0  0  0  0  0  0  0  0
   -1.6958    4.6167    0.0000 C   0  0  0  0  0  0  0  0  0  0  0  0
   -2.4208    0.9083    0.0000 C   0  0  0  0  0  0  0  0  0  0  0  0
   -3.1250    4.6292    0.0000 C   0  0  0  0  0  0  0  0  0  0  0  0
   -5.4583   -0.2667    0.0000 C   0  0  0  0  0  0  0  0  0  0  0  0
   -2.4083    5.0292    0.0000 C   0  0  0  0  0  0  0  0  0  0  0  0
   -3.1333   -0.3292    0.0000 C   0  0  0  0  0  0  0  0  0  0  0  0
   -3.8500    0.9083    0.0000 C   0  0  0  0  0  0  0  0  0  0  0  0
   -7.9292    1.1500    0.0000 C   0  0  0  0  0  0  0  0  0  0  0  0
   -3.8500    0.0833    0.0000 C   0  0  0  0  0  0  0  0  0  0  0  0
  2  1  1  0  0  0  0
  3  1  2  0  0  0  0
  4  9  1  0  0  0  0
  5  1  1  0  0  0  0
  6  2  1  0  0  0  0
  7  3  1  0  0  0  0
  8  5  1  0  0  0  0
  9 14  1  0  0  0  0
 10  4  1  0  0  0  0
 11  4  1  0  0  0  0
 12  6  1  0  0  0  0
 13  7  1  0  0  0  0
 14 12  2  0  0  0  0
 15  2  1  0  0  0  0
 16  8  1  0  0  0  0
 17  6  2  0  0  0  0
 18 13  2  0  0  0  0
 19 10  1  0  0  0  0
 20 11  1  0  0  0  0
 21 10  2  0  0  0  0
 22 11  2  0  0  0  0
 23 16  2  0  0  0  0
 24 27  2  0  0  0  0
 25 15  1  0  0  0  0
 26 30  1  0  0  0  0
 27 25  1  0  0  0  0
 28 12  1  0  0  0  0
 29 13  1  0  0  0  0
 30 28  2  0  0  0  0
 31 34  2  0  0  0  0
 32 25  2  0  0  0  0
 33 23  1  0  0  0  0
 34 32  1  0  0  0  0
  8  7  2  0  0  0  0
 18 23  1  0  0  0  0
 31 24  1  0  0  0  0
  9 26  2  0  0  0  0
 20 19  1  0  0  0  0
M  END
> <IDNUMBER>
F2515-2223

> <Chemical_Name>
N-(4,6-dimethyl-1,3-benzothiazol-2-yl)-3-(2,5-dioxopyrrolidin-1-yl)-N-[(pyridin-3-yl)methyl]benzamide

> <CAS>
895420-76-5

> <PriceCoeff>
1.00

> <MW>
470.54

> <Description>
solid

> <FSP3>
0.19

> <clogP>
2.80

> <TPSA>
111.71

> <Acceptor>
5

> <Donor>
1

> <RotBonds>
6

> <HAC>
34

> <Collection>
General

$$$$
F2524-0976
  -ISIS-  06222321142D

 27 30  0  0  0  0  0  0  0  0999 V2000
   -0.5458    2.1875    0.0000 C   0  0  0  0  0  0  0  0  0  0  0  0
    1.3667    4.3042    0.0000 N   0  0  3  0  0  0  0  0  0  0  0  0
   -0.8000    1.4000    0.0000 N   0  0  3  0  0  0  0  0  0  0  0  0
    0.2417    2.4458    0.0000 N   0  0  0  0  0  0  0  0  0  0  0  0
   -1.2125    2.6708    0.0000 S   0  0  0  0  0  0  0  0  0  0  0  0
   -1.6250    1.4000    0.0000 C   0  0  0  0  0  0  0  0  0  0  0  0
   -1.8750    2.1833    0.0000 C   0  0  0  0  0  0  0  0  0  0  0  0
   -2.1708    0.7958    0.0000 C   0  0  0  0  0  0  0  0  0  0  0  0
    2.1250    4.6292    0.0000 C   0  0  0  0  0  0  0  0  0  0  0  0
    0.8167    4.9042    0.0000 C   0  0  0  0  0  0  0  0  0  0  0  0
    0.4167    3.2458    0.0000 C   0  0  0  0  0  0  0  0  0  0  0  0
   -2.6833    2.3583    0.0000 C   0  0  0  0  0  0  0  0  0  0  0  0
   -2.9708    0.9625    0.0000 C   0  0  0  0  0  0  0  0  0  0  0  0
   -3.2250    1.7458    0.0000 C   0  0  0  0  0  0  0  0  0  0  0  0
    1.1917    3.5000    0.0000 C   0  0  0  0  0  0  0  0  0  0  0  0
    0.4917    0.8208    0.0000 C   0  0  0  0  0  0  0  0  0  0  0  0
    0.8375    1.5708    0.0000 C   0  0  0  0  0  0  0  0  0  0  0  0
   -3.5208    0.3500    0.0000 O   0  0  0  0  0  0  0  0  0  0  0  0
   -4.0333    1.9208    0.0000 O   0  0  0  0  0  0  0  0  0  0  0  0
    1.2292    5.6167    0.0000 C   0  0  0  0  0  0  0  0  0  0  0  0
    2.0417    5.4500    0.0000 C   0  0  0  0  0  0  0  0  0  0  0  0
    0.0042    4.8375    0.0000 O   0  0  0  0  0  0  0  0  0  0  0  0
    2.8292    4.2125    0.0000 O   0  0  0  0  0  0  0  0  0  0  0  0
   -0.1958    3.8000    0.0000 O   0  0  0  0  0  0  0  0  0  0  0  0
   -0.3208    0.7375    0.0000 C   0  0  0  0  0  0  0  0  0  0  0  0
   -4.5833    1.3083    0.0000 C   0  0  0  0  0  0  0  0  0  0  0  0
   -4.3333    0.5208    0.0000 C   0  0  0  0  0  0  0  0  0  0  0  0
  2 15  1  0  0  0  0
  3  1  1  0  0  0  0
  4  1  2  0  0  0  0
  5  1  1  0  0  0  0
  6  3  1  0  0  0  0
  7  5  1  0  0  0  0
  8  6  1  0  0  0  0
  9  2  1  0  0  0  0
 10  2  1  0  0  0  0
 11  4  1  0  0  0  0
 12  7  1  0  0  0  0
 13  8  2  0  0  0  0
 14 12  2  0  0  0  0
 15 11  1  0  0  0  0
 16 25  1  0  0  0  0
 17 16  3  0  0  0  0
 18 13  1  0  0  0  0
 19 14  1  0  0  0  0
 20 10  1  0  0  0  0
 21  9  1  0  0  0  0
 22 10  2  0  0  0  0
 23  9  2  0  0  0  0
 24 11  2  0  0  0  0
 25  3  1  0  0  0  0
 26 19  1  0  0  0  0
 27 18  1  0  0  0  0
  6  7  2  0  0  0  0
 13 14  1  0  0  0  0
 21 20  1  0  0  0  0
 26 27  1  0  0  0  0
M  END
> <IDNUMBER>
F2524-0976

> <Chemical_Name>
2-(2,5-dioxopyrrolidin-1-yl)-N-[(5Z)-6-(prop-2-yn-1-yl)-10,13-dioxa-4-thia-6-azatricyclo[7.4.0.0^{3,7}]trideca-1,3(7),8-trien-5-ylidene]acetamide

> <CAS>
905660-62-0

> <PriceCoeff>
1.00

> <MW>
385.39

> <Description>
solid

> <FSP3>
0.33

> <clogP>
2.80

> <TPSA>
113.81

> <Acceptor>
5

> <Donor>
0

> <RotBonds>
5

> <HAC>
27

> <Collection>
General

$$$$
F3385-4094
  -ISIS-  06222321152D

 29 31  0  0  0  0  0  0  0  0999 V2000
    4.3542   -0.9917    0.0000 C   0  0  0  0  0  0  0  0  0  0  0  0
    3.6417   -0.5792    0.0000 C   0  0  0  0  0  0  0  0  0  0  0  0
    5.0792   -0.5792    0.0000 C   0  0  0  0  0  0  0  0  0  0  0  0
    3.6417    0.2500    0.0000 C   0  0  0  0  0  0  0  0  0  0  0  0
    0.7875    0.2458    0.0000 C   0  0  0  0  0  0  0  0  0  0  0  0
    5.0792    0.2500    0.0000 C   0  0  0  0  0  0  0  0  0  0  0  0
    2.9292   -0.9917    0.0000 C   0  0  0  0  0  0  0  0  0  0  0  0
    4.3625    0.6708    0.0000 O   0  0  0  0  0  0  0  0  0  0  0  0
    5.7917   -1.0000    0.0000 C   0  0  0  0  0  0  0  0  0  0  0  0
    2.2167    0.2500    0.0000 C   0  0  0  0  0  0  0  0  0  0  0  0
    2.9292    0.6625    0.0000 C   0  0  0  0  0  0  0  0  0  0  0  0
    2.2167   -0.5792    0.0000 C   0  0  0  0  0  0  0  0  0  0  0  0
    1.5042    0.6583    0.0000 O   0  0  0  0  0  0  0  0  0  0  0  0
    6.5042   -0.5875    0.0000 C   0  0  0  0  0  0  0  0  0  0  0  0
    7.2167   -1.0000    0.0000 C   0  0  0  0  0  0  0  0  0  0  0  0
    0.0750    0.6583    0.0000 N   0  0  3  0  0  0  0  0  0  0  0  0
    4.3542   -1.8167    0.0000 O   0  0  0  0  0  0  0  0  0  0  0  0
    0.7875   -0.5792    0.0000 O   0  0  0  0  0  0  0  0  0  0  0  0
    7.2167   -1.8292    0.0000 C   0  0  0  0  0  0  0  0  0  0  0  0
    5.7875   -1.8250    0.0000 C   0  0  0  0  0  0  0  0  0  0  0  0
    6.5000   -2.2375    0.0000 C   0  0  0  0  0  0  0  0  0  0  0  0
    2.9292   -1.8167    0.0000 O   0  0  0  0  0  0  0  0  0  0  0  0
    7.9292   -0.5875    0.0000 O   0  0  0  0  0  0  0  0  0  0  0  0
    7.9292   -2.2417    0.0000 O   0  0  0  0  0  0  0  0  0  0  0  0
   -0.6458    0.2458    0.0000 C   0  0  0  0  0  0  0  0  0  0  0  0
    0.0750    1.4833    0.0000 C   0  0  0  0  0  0  0  0  0  0  0  0
    2.2167   -2.2292    0.0000 C   0  0  0  0  0  0  0  0  0  0  0  0
    7.9292    0.2375    0.0000 C   0  0  0  0  0  0  0  0  0  0  0  0
    8.6417   -1.8292    0.0000 C   0  0  0  0  0  0  0  0  0  0  0  0
  2  1  1  0  0  0  0
  3  1  1  0  0  0  0
  4  2  1  0  0  0  0
  5 13  1  0  0  0  0
  6  3  2  0  0  0  0
  7  2  2  0  0  0  0
  8  6  1  0  0  0  0
  9  3  1  0  0  0  0
 10 12  2  0  0  0  0
 11  4  2  0  0  0  0
 12  7  1  0  0  0  0
 13 10  1  0  0  0  0
 14  9  1  0  0  0  0
 15 14  2  0  0  0  0
 16  5  1  0  0  0  0
 17  1  2  0  0  0  0
 18  5  2  0  0  0  0
 19 21  2  0  0  0  0
 20  9  2  0  0  0  0
 21 20  1  0  0  0  0
 22  7  1  0  0  0  0
 23 15  1  0  0  0  0
 24 19  1  0  0  0  0
 25 16  1  0  0  0  0
 26 16  1  0  0  0  0
 27 22  1  0  0  0  0
 28 23  1  0  0  0  0
 29 24  1  0  0  0  0
  8  4  1  0  0  0  0
 10 11  1  0  0  0  0
 19 15  1  0  0  0  0
M  END
> <IDNUMBER>
F3385-4094

> <Chemical_Name>
3-(3,4-dimethoxyphenyl)-5-methoxy-4-oxo-4H-chromen-7-yl N,N-dimethylcarbamate

> <CAS>
919741-84-7

> <PriceCoeff>
1.00

> <MW>
399.39

> <Description>
solid

> <FSP3>
0.24

> <clogP>
2.15

> <TPSA>
83.53

> <Acceptor>
7

> <Donor>
0

> <RotBonds>
7

> <HAC>
29

> <Collection>
General

> <Reference_compound>
CHEMBL455048

> <Similarity>
0.8180

$$$$
F3386-1370
  -ISIS-  06222321152D

 21 22  0  0  0  0  0  0  0  0999 V2000
    4.9667   -1.7042    0.0000 S   0  0  3  0  0  0  0  0  0  0  0  0
    5.7917   -1.6917    0.0000 N   0  0  0  0  0  0  0  0  0  0  0  0
    4.1417   -1.7125    0.0000 C   0  0  0  0  0  0  0  0  0  0  0  0
    6.6167   -1.6917    0.0000 C   0  0  0  0  0  0  0  0  0  0  0  0
    3.7500   -2.4292    0.0000 C   0  0  0  0  0  0  0  0  0  0  0  0
    3.7292   -1.0042    0.0000 C   0  0  0  0  0  0  0  0  0  0  0  0
    4.9625   -0.8792    0.0000 O   0  0  0  0  0  0  0  0  0  0  0  0
    4.9792   -2.5292    0.0000 O   0  0  0  0  0  0  0  0  0  0  0  0
    7.0292   -2.4042    0.0000 C   0  0  0  0  0  0  0  0  0  0  0  0
    7.0250   -0.9792    0.0000 C   0  0  0  0  0  0  0  0  0  0  0  0
    2.9125   -1.0125    0.0000 C   0  0  0  0  0  0  0  0  0  0  0  0
    2.9250   -2.4417    0.0000 C   0  0  0  0  0  0  0  0  0  0  0  0
    2.5000   -1.7292    0.0000 C   0  0  0  0  0  0  0  0  0  0  0  0
    7.8417   -0.9792    0.0000 C   0  0  0  0  0  0  0  0  0  0  0  0
    7.8500   -2.4042    0.0000 C   0  0  0  0  0  0  0  0  0  0  0  0
    8.2625   -1.6917    0.0000 C   0  0  0  0  0  0  0  0  0  0  0  0
    8.2625   -3.1167    0.0000 Cl  0  0  0  0  0  0  0  0  0  0  0  0
    6.6042   -0.2667    0.0000 O   0  0  0  0  0  0  0  0  0  0  0  0
    4.1375   -0.2875    0.0000 C   0  0  0  0  0  0  0  0  0  0  0  0
    4.1750   -3.1375    0.0000 C   0  0  0  0  0  0  0  0  0  0  0  0
    1.6750   -1.7375    0.0000 C   0  0  0  0  0  0  0  0  0  0  0  0
  2  1  1  0  0  0  0
  3  1  1  0  0  0  0
  4  2  1  0  0  0  0
  5  3  1  0  0  0  0
  6  3  2  0  0  0  0
  7  1  2  0  0  0  0
  8  1  2  0  0  0  0
  9  4  2  0  0  0  0
 10  4  1  0  0  0  0
 11  6  1  0  0  0  0
 12  5  2  0  0  0  0
 13 11  2  0  0  0  0
 14 10  2  0  0  0  0
 15  9  1  0  0  0  0
 16 14  1  0  0  0  0
 17 15  1  0  0  0  0
 18 10  1  0  0  0  0
 19  6  1  0  0  0  0
 20  5  1  0  0  0  0
 21 13  1  0  0  0  0
 13 12  1  0  0  0  0
 16 15  2  0  0  0  0
M  END
> <IDNUMBER>
F3386-1370

> <Chemical_Name>
N-(5-chloro-2-hydroxyphenyl)-2,4,6-trimethylbenzene-1-sulfonamide

> <CAS>
893775-47-8

> <PriceCoeff>
1.00

> <MW>
325.81

> <Description>
solid

> <FSP3>
0.20

> <clogP>
4.48

> <TPSA>
74.78

> <Acceptor>
4

> <Donor>
2

> <RotBonds>
3

> <HAC>
21

> <Collection>
General

$$$$
F6401-0072
  -ISIS-  06222321152D

 24 27  0  0  0  0  0  0  0  0999 V2000
    5.0375   -0.7542    0.0000 N   0  0  3  0  0  0  0  0  0  0  0  0
    4.8292   -1.7292    0.0000 C   0  0  0  0  0  0  0  0  0  0  0  0
    4.2917   -0.0875    0.0000 C   0  0  0  0  0  0  0  0  0  0  0  0
    6.1750   -0.3792    0.0000 C   0  0  0  0  0  0  0  0  0  0  0  0
    3.1375   -1.3792    0.0000 C   0  0  3  0  0  0  0  0  0  0  0  0
    2.1875   -1.6917    0.0000 C   0  0  0  0  0  0  0  0  0  0  0  0
    6.3792    0.6000    0.0000 C   0  0  0  0  0  0  0  0  0  0  0  0
    3.8875   -2.0417    0.0000 C   0  0  0  0  0  0  0  0  0  0  0  0
    3.3417   -0.4000    0.0000 C   0  0  0  0  0  0  0  0  0  0  0  0
    1.8792   -2.6500    0.0000 S   0  0  0  0  0  0  0  0  0  0  0  0
    7.3375    0.9125    0.0000 C   0  0  0  0  0  0  0  0  0  0  0  0
    4.4167    0.5000    0.0000 O   0  0  0  0  0  0  0  0  0  0  0  0
    5.5792   -2.3917    0.0000 O   0  0  0  0  0  0  0  0  0  0  0  0
    1.3792   -1.1125    0.0000 C   0  0  0  0  0  0  0  0  0  0  0  0
    0.8792   -2.6500    0.0000 C   0  0  0  0  0  0  0  0  0  0  0  0
    0.5667   -1.6917    0.0000 C   0  0  0  0  0  0  0  0  0  0  0  0
    7.5375    1.8833    0.0000 C   0  0  0  0  0  0  0  0  0  0  0  0
    5.6375    1.2708    0.0000 C   0  0  0  0  0  0  0  0  0  0  0  0
    5.8500    2.2500    0.0000 C   0  0  0  0  0  0  0  0  0  0  0  0
    8.0792    0.2458    0.0000 C   0  0  0  0  0  0  0  0  0  0  0  0
    6.7917    2.5583    0.0000 C   0  0  0  0  0  0  0  0  0  0  0  0
    8.4917    2.1958    0.0000 C   0  0  0  0  0  0  0  0  0  0  0  0
    9.0250    0.5500    0.0000 C   0  0  0  0  0  0  0  0  0  0  0  0
    9.2375    1.5333    0.0000 C   0  0  0  0  0  0  0  0  0  0  0  0
  2  1  1  0  0  0  0
  3  1  1  0  0  0  0
  4  1  1  0  0  0  0
  5  9  1  0  0  0  0
  6  5  1  0  0  0  0
  7  4  1  0  0  0  0
  8  2  1  0  0  0  0
  9  3  1  0  0  0  0
 10  6  1  0  0  0  0
 11  7  1  0  0  0  0
 12  3  2  0  0  0  0
 13  2  2  0  0  0  0
 14  6  2  0  0  0  0
 15 10  1  0  0  0  0
 16 14  1  0  0  0  0
 17 11  2  0  0  0  0
 18  7  2  0  0  0  0
 19 18  1  0  0  0  0
 20 11  1  0  0  0  0
 21 19  2  0  0  0  0
 22 17  1  0  0  0  0
 23 20  2  0  0  0  0
 24 23  1  0  0  0  0
  5  8  1  0  0  0  0
 17 21  1  0  0  0  0
 22 24  2  0  0  0  0
 16 15  2  0  0  0  0
M  END
> <IDNUMBER>
F6401-0072

> <Chemical_Name>
1-[(naphthalen-1-yl)methyl]-4-(thiophen-2-yl)piperidine-2,6-dione

> <CAS>
1396864-65-5

> <PriceCoeff>
1.00

> <MW>
335.42

> <Description>
solid

> <FSP3>
0.20

> <clogP>
3.91

> <TPSA>
65.62

> <Acceptor>
2

> <Donor>
0

> <RotBonds>
3

> <HAC>
24

> <Collection>
General

$$$$
F2515-2731
  -ISIS-  06222321462D

 34 38  0  0  0  0  0  0  0  0999 V2000
   -4.5625    2.1500    0.0000 C   0  0  0  0  0  0  0  0  0  0  0  0
   -4.6583    1.3250    0.0000 N   0  0  0  0  0  0  0  0  0  0  0  0
   -3.8458    2.5583    0.0000 N   0  0  3  0  0  0  0  0  0  0  0  0
   -0.9833    3.3833    0.0000 N   0  0  3  0  0  0  0  0  0  0  0  0
   -5.4583    1.1583    0.0000 C   0  0  0  0  0  0  0  0  0  0  0  0
   -5.3208    2.4875    0.0000 S   0  0  0  0  0  0  0  0  0  0  0  0
   -3.8458    3.3958    0.0000 C   0  0  0  0  0  0  0  0  0  0  0  0
   -5.8708    1.8708    0.0000 C   0  0  0  0  0  0  0  0  0  0  0  0
   -1.7000    3.8000    0.0000 C   0  0  0  0  0  0  0  0  0  0  0  0
   -0.2208    3.6875    0.0000 C   0  0  0  0  0  0  0  0  0  0  0  0
   -0.9458    2.5583    0.0000 C   0  0  0  0  0  0  0  0  0  0  0  0
   -5.8625    0.4458    0.0000 C   0  0  0  0  0  0  0  0  0  0  0  0
   -3.1333    3.8000    0.0000 C   0  0  0  0  0  0  0  0  0  0  0  0
   -2.4208    3.3958    0.0000 C   0  0  0  0  0  0  0  0  0  0  0  0
   -6.6917    1.8708    0.0000 C   0  0  0  0  0  0  0  0  0  0  0  0
   -3.1333    2.1458    0.0000 C   0  0  0  0  0  0  0  0  0  0  0  0
   -6.6792    0.4375    0.0000 C   0  0  0  0  0  0  0  0  0  0  0  0
   -7.1042    1.1500    0.0000 C   0  0  0  0  0  0  0  0  0  0  0  0
   -4.5625    3.8000    0.0000 O   0  0  0  0  0  0  0  0  0  0  0  0
    0.3125    3.0583    0.0000 C   0  0  0  0  0  0  0  0  0  0  0  0
   -0.1208    2.3583    0.0000 C   0  0  0  0  0  0  0  0  0  0  0  0
    0.0000    4.4667    0.0000 O   0  0  0  0  0  0  0  0  0  0  0  0
   -1.5750    2.0375    0.0000 O   0  0  0  0  0  0  0  0  0  0  0  0
   -2.4208    0.0833    0.0000 N   0  0  0  0  0  0  0  0  0  0  0  0
   -3.1333    1.3208    0.0000 C   0  0  0  0  0  0  0  0  0  0  0  0
   -5.4583   -0.2667    0.0000 F   0  0  0  0  0  0  0  0  0  0  0  0
   -7.9292    1.1500    0.0000 F   0  0  0  0  0  0  0  0  0  0  0  0
   -1.6958    4.6167    0.0000 C   0  0  0  0  0  0  0  0  0  0  0  0
   -2.4208    0.9083    0.0000 C   0  0  0  0  0  0  0  0  0  0  0  0
   -3.1250    4.6292    0.0000 C   0  0  0  0  0  0  0  0  0  0  0  0
   -2.4083    5.0292    0.0000 C   0  0  0  0  0  0  0  0  0  0  0  0
   -3.1333   -0.3292    0.0000 C   0  0  0  0  0  0  0  0  0  0  0  0
   -3.8500    0.9083    0.0000 C   0  0  0  0  0  0  0  0  0  0  0  0
   -3.8500    0.0833    0.0000 C   0  0  0  0  0  0  0  0  0  0  0  0
  2  1  2  0  0  0  0
  3  1  1  0  0  0  0
  4  9  1  0  0  0  0
  5  2  1  0  0  0  0
  6  1  1  0  0  0  0
  7  3  1  0  0  0  0
  8  6  1  0  0  0  0
  9 14  1  0  0  0  0
 10  4  1  0  0  0  0
 11  4  1  0  0  0  0
 12  5  1  0  0  0  0
 13  7  1  0  0  0  0
 14 13  2  0  0  0  0
 15  8  1  0  0  0  0
 16  3  1  0  0  0  0
 17 12  2  0  0  0  0
 18 15  2  0  0  0  0
 19  7  2  0  0  0  0
 20 10  1  0  0  0  0
 21 11  1  0  0  0  0
 22 10  2  0  0  0  0
 23 11  2  0  0  0  0
 24 29  2  0  0  0  0
 25 16  1  0  0  0  0
 26 12  1  0  0  0  0
 27 18  1  0  0  0  0
 28 31  1  0  0  0  0
 29 25  1  0  0  0  0
 30 13  1  0  0  0  0
 31 30  2  0  0  0  0
 32 34  2  0  0  0  0
 33 25  2  0  0  0  0
 34 33  1  0  0  0  0
  8  5  2  0  0  0  0
 17 18  1  0  0  0  0
 32 24  1  0  0  0  0
  9 28  2  0  0  0  0
 21 20  1  0  0  0  0
M  END
> <IDNUMBER>
F2515-2731

> <Chemical_Name>
N-(4,6-difluoro-1,3-benzothiazol-2-yl)-3-(2,5-dioxopyrrolidin-1-yl)-N-[(pyridin-3-yl)methyl]benzamide

> <CAS>
895436-69-8

> <PriceCoeff>
1.00

> <MW>
478.47

> <Description>
solid

> <FSP3>
0.12

> <clogP>
2.13

> <TPSA>
111.71

> <Acceptor>
5

> <Donor>
1

> <RotBonds>
6

> <HAC>
34

> <Collection>
General

$$$$
F2040-0081
  -ISIS-  06222321142D

 28 31  0  0  0  0  0  0  0  0999 V2000
   -3.0375    7.5250    0.0000 N   0  0  3  0  0  0  0  0  0  0  0  0
   -3.7583    7.9417    0.0000 C   0  0  0  0  0  0  0  0  0  0  0  0
   -3.7708    0.4875    0.0000 N   0  3  0  0  0  0  0  0  0  0  0  0
   -3.7708    2.9833    0.0000 C   0  0  0  0  0  0  0  0  0  0  0  0
   -3.7583    3.8000    0.0000 C   0  0  0  0  0  0  0  0  0  0  0  0
   -3.0458    6.6917    0.0000 C   0  0  0  0  0  0  0  0  0  0  0  0
   -3.7500    8.7667    0.0000 C   0  0  3  0  0  0  0  0  0  0  0  0
   -3.0375    2.5583    0.0000 C   0  0  0  0  0  0  0  0  0  0  0  0
   -3.7625    1.3125    0.0000 C   0  0  0  0  0  0  0  0  0  0  0  0
   -3.0375    1.7250    0.0000 C   0  0  0  0  0  0  0  0  0  0  0  0
   -3.0458    4.2125    0.0000 N   0  0  0  0  0  0  0  0  0  0  0  0
   -2.3250    6.2750    0.0000 C   0  0  0  0  0  0  0  0  0  0  0  0
   -4.1708    9.4917    0.0000 C   0  0  0  0  0  0  0  0  0  0  0  0
   -3.3333    9.4875    0.0000 C   0  0  0  0  0  0  0  0  0  0  0  0
   -4.4833    2.5625    0.0000 C   0  0  0  0  0  0  0  0  0  0  0  0
   -3.7625    6.2792    0.0000 C   0  0  0  0  0  0  0  0  0  0  0  0
   -4.4833    0.0833    0.0000 O   0  5  0  0  0  0  0  0  0  0  0  0
   -3.0583    0.0750    0.0000 O   0  0  0  0  0  0  0  0  0  0  0  0
   -4.4833    7.5292    0.0000 O   0  0  0  0  0  0  0  0  0  0  0  0
   -3.0458    5.0292    0.0000 C   0  0  0  0  0  0  0  0  0  0  0  0
   -2.3250    5.4500    0.0000 C   0  0  0  0  0  0  0  0  0  0  0  0
   -4.4750    4.2042    0.0000 O   0  0  0  0  0  0  0  0  0  0  0  0
   -4.4833    1.7333    0.0000 C   0  0  0  0  0  0  0  0  0  0  0  0
   -2.3208    7.9292    0.0000 C   0  0  0  0  0  0  0  0  0  0  0  0
   -2.3208    2.9625    0.0000 Cl  0  0  0  0  0  0  0  0  0  0  0  0
   -3.7583    5.4542    0.0000 C   0  0  0  0  0  0  0  0  0  0  0  0
   -1.6083    6.6875    0.0000 C   0  0  0  0  0  0  0  0  0  0  0  0
   -1.6000    7.5042    0.0000 C   0  0  0  0  0  0  0  0  0  0  0  0
  2  1  1  0  0  0  0
  3  9  1  0  0  0  0
  4  5  1  0  0  0  0
  5 11  1  0  0  0  0
  6  1  1  0  0  0  0
  7  2  1  0  0  0  0
  8  4  1  0  0  0  0
  9 23  2  0  0  0  0
 10  8  2  0  0  0  0
 11 20  1  0  0  0  0
 12  6  2  0  0  0  0
 13  7  1  0  0  0  0
 14  7  1  0  0  0  0
 15  4  2  0  0  0  0
 16  6  1  0  0  0  0
 17  3  1  0  0  0  0
 18  3  2  0  0  0  0
 19  2  2  0  0  0  0
 20 26  1  0  0  0  0
 21 12  1  0  0  0  0
 22  5  2  0  0  0  0
 23 15  1  0  0  0  0
 24  1  1  0  0  0  0
 25  8  1  0  0  0  0
 26 16  2  0  0  0  0
 27 28  1  0  0  0  0
 28 24  1  0  0  0  0
 12 27  1  0  0  0  0
 20 21  2  0  0  0  0
 13 14  1  0  0  0  0
  9 10  1  0  0  0  0
M  CHG  2   3   1  17  -1
M  END
> <IDNUMBER>
F2040-0081

> <Chemical_Name>
2-chloro-N-(1-cyclopropanecarbonyl-1,2,3,4-tetrahydroquinolin-6-yl)-4-nitrobenzamide

> <CAS>
897620-37-0

> <PriceCoeff>
1.00

> <MW>
399.83

> <Description>
solid

> <FSP3>
0.30

> <clogP>
2.99

> <TPSA>
92.55

> <Acceptor>
4

> <Donor>
1

> <RotBonds>
5

> <HAC>
28

> <Collection>
General

$$$$
F1029-0049
  -ISIS-  06222304352D

 34 37  0  0  0  0  0  0  0  0999 V2000
    1.3792   -0.0417    0.0000 N   0  3  0  0  0  0  0  0  0  0  0  0
    0.7167    0.4250    0.0000 C   0  0  0  0  0  0  0  0  0  0  0  0
    1.3167   -0.8917    0.0000 N   0  0  0  0  0  0  0  0  0  0  0  0
    2.0375    0.4458    0.0000 C   0  0  0  0  0  0  0  0  0  0  0  0
   -0.0458    0.0875    0.0000 N   0  0  0  0  0  0  0  0  0  0  0  0
    0.9750    1.2208    0.0000 C   0  0  0  0  0  0  0  0  0  0  0  0
    0.5750   -1.2292    0.0000 C   0  0  0  0  0  0  0  0  0  0  0  0
    1.7792    1.2208    0.0000 S   0  0  0  0  0  0  0  0  0  0  0  0
   -0.1333   -0.7417    0.0000 C   0  0  0  0  0  0  0  0  0  0  0  0
    0.4875   -2.0667    0.0000 C   0  0  0  0  0  0  0  0  0  0  0  0
    0.4667    1.8583    0.0000 C   0  0  0  0  0  0  0  0  0  0  0  0
   -0.9208   -1.0667    0.0000 O   0  0  0  0  0  0  0  0  0  0  0  0
    2.8667    0.2125    0.0000 S   0  0  0  0  0  0  0  0  0  0  0  0
    1.1667   -2.5542    0.0000 C   0  0  0  0  0  0  0  0  0  0  0  0
   -0.2583   -2.4292    0.0000 C   0  0  0  0  0  0  0  0  0  0  0  0
    0.7542    2.6208    0.0000 C   0  0  0  0  0  0  0  0  0  0  0  0
   -0.3625    1.7250    0.0000 C   0  0  0  0  0  0  0  0  0  0  0  0
    3.4667    0.7958    0.0000 C   0  0  0  0  0  0  0  0  0  0  0  0
    1.0792   -3.3875    0.0000 C   0  0  0  0  0  0  0  0  0  0  0  0
   -0.3208   -3.2375    0.0000 C   0  0  0  0  0  0  0  0  0  0  0  0
   -0.8750    2.3958    0.0000 C   0  0  0  0  0  0  0  0  0  0  0  0
    0.2292    3.2583    0.0000 C   0  0  0  0  0  0  0  0  0  0  0  0
    0.3625   -3.7292    0.0000 C   0  0  0  0  0  0  0  0  0  0  0  0
   -0.5583    3.1333    0.0000 C   0  0  0  0  0  0  0  0  0  0  0  0
    7.6167   -0.1583    0.0000 S   0  0  3  0  0  0  0  0  0  0  0  0
    8.5584   -0.1375    0.0000 O   0  5  0  0  0  0  0  0  0  0  0  0
    7.6167   -1.0750    0.0000 O   0  0  0  0  0  0  0  0  0  0  0  0
    7.5792    0.7917    0.0000 O   0  0  0  0  0  0  0  0  0  0  0  0
    6.6584   -0.1583    0.0000 C   0  0  0  0  0  0  0  0  0  0  0  0
    6.1459    0.6250    0.0000 C   0  0  0  0  0  0  0  0  0  0  0  0
    6.2167   -0.9958    0.0000 C   0  0  0  0  0  0  0  0  0  0  0  0
    5.2084    0.6042    0.0000 C   0  0  0  0  0  0  0  0  0  0  0  0
    5.2792   -1.0125    0.0000 C   0  0  0  0  0  0  0  0  0  0  0  0
    4.7584   -0.2125    0.0000 C   0  0  0  0  0  0  0  0  0  0  0  0
 12  9  2  0  0  0  0
 13  4  1  0  0  0  0
 14 10  1  0  0  0  0
 15 10  2  0  0  0  0
 16 11  2  0  0  0  0
 17 11  1  0  0  0  0
 18 13  1  0  0  0  0
 19 14  2  0  0  0  0
 20 15  1  0  0  0  0
 21 17  2  0  0  0  0
 22 16  1  0  0  0  0
 23 20  2  0  0  0  0
 24 21  1  0  0  0  0
  8  6  1  0  0  0  0
  9  5  1  0  0  0  0
 19 23  1  0  0  0  0
 22 24  2  0  0  0  0
  2  1  1  0  0  0  0
  3  1  1  0  0  0  0
  4  1  2  0  0  0  0
  5  2  1  0  0  0  0
  6  2  2  0  0  0  0
  7  3  2  0  0  0  0
  8  4  1  0  0  0  0
  9  7  1  0  0  0  0
 10  7  1  0  0  0  0
 11  6  1  0  0  0  0
 26 25  1  0  0  0  0
 27 25  2  0  0  0  0
 28 25  2  0  0  0  0
 29 25  1  0  0  0  0
 30 29  2  0  0  0  0
 31 29  1  0  0  0  0
 32 30  1  0  0  0  0
 33 31  2  0  0  0  0
 34 33  1  0  0  0  0
 32 34  2  0  0  0  0
M  CHG  2   1   1  26  -1
M  END
> <IDNUMBER>
F1029-0049

> <Chemical_Name>
6-(methylsulfanyl)-2-oxo-3,8-diphenyl-1H,2H-5lambda5-[1,3]thiazolo[3,4-b][1,2,4]triazin-5-ylium benzenesulfonate

> <CAS>
104194-63-0

> <PriceCoeff>
1.00

> <MW>
352.45

> <Description>
solid

> <FSP3>
0.06

> <clogP>
0.88

> <TPSA>
98.88

> <Acceptor>
2

> <Donor>
2

> <RotBonds>
3

> <HAC>
24

> <Collection>
General

> <Reference_compound>
PRI5741

> <Similarity>
1.0000

$$$$
F2073-0018
  -ISIS-  06222321142D

 25 27  0  0  0  0  0  0  0  0999 V2000
   -2.3958    4.5125    0.0000 C   0  0  0  0  0  0  0  0  0  0  0  0
   -1.5125    5.6375    0.0000 N   0  0  3  0  0  0  0  0  0  0  0  0
   -2.2708    5.3292    0.0000 C   0  0  0  0  0  0  0  0  0  0  0  0
   -0.8625    5.1250    0.0000 C   0  0  0  0  0  0  0  0  0  0  0  0
   -0.9708    4.3042    0.0000 N   0  0  0  0  0  0  0  0  0  0  0  0
   -4.5708    0.8500    0.0000 N   0  3  0  0  0  0  0  0  0  0  0  0
   -3.8750    1.3083    0.0000 C   0  0  0  0  0  0  0  0  0  0  0  0
   -1.7458    4.0000    0.0000 C   0  0  0  0  0  0  0  0  0  0  0  0
   -3.1583    4.2042    0.0000 N   0  0  0  0  0  0  0  0  0  0  0  0
   -3.2750    3.4000    0.0000 C   0  0  0  0  0  0  0  0  0  0  0  0
   -3.9208    2.1333    0.0000 C   0  0  0  0  0  0  0  0  0  0  0  0
   -3.2333    2.5833    0.0000 C   0  0  0  0  0  0  0  0  0  0  0  0
   -1.3958    6.4375    0.0000 C   0  0  0  0  0  0  0  0  0  0  0  0
   -3.1375    0.9333    0.0000 C   0  0  0  0  0  0  0  0  0  0  0  0
   -5.2958    1.2250    0.0000 O   0  5  0  0  0  0  0  0  0  0  0  0
   -2.9208    5.8375    0.0000 O   0  0  0  0  0  0  0  0  0  0  0  0
   -0.1083    5.4167    0.0000 C   0  0  0  0  0  0  0  0  0  0  0  0
   -4.5208    0.0333    0.0000 O   0  0  0  0  0  0  0  0  0  0  0  0
   -2.5875    3.8583    0.0000 O   0  0  0  0  0  0  0  0  0  0  0  0
   -2.4958    2.2125    0.0000 C   0  0  0  0  0  0  0  0  0  0  0  0
   -0.6333    6.7500    0.0000 C   0  0  0  0  0  0  0  0  0  0  0  0
    0.0167    6.2417    0.0000 C   0  0  0  0  0  0  0  0  0  0  0  0
   -2.4500    1.3958    0.0000 C   0  0  0  0  0  0  0  0  0  0  0  0
   -3.0875    0.1083    0.0000 Cl  0  0  0  0  0  0  0  0  0  0  0  0
   -1.8625    3.1958    0.0000 C   0  0  0  0  0  0  0  0  0  0  0  0
  2  3  1  0  0  0  0
  3  1  1  0  0  0  0
  4  5  2  0  0  0  0
  5  8  1  0  0  0  0
  6  7  1  0  0  0  0
  7 11  1  0  0  0  0
  8  1  2  0  0  0  0
  9  1  1  0  0  0  0
 10  9  1  0  0  0  0
 11 12  2  0  0  0  0
 12 10  1  0  0  0  0
 13  2  1  0  0  0  0
 14 23  1  0  0  0  0
 15  6  1  0  0  0  0
 16  3  2  0  0  0  0
 17  4  1  0  0  0  0
 18  6  2  0  0  0  0
 19 10  2  0  0  0  0
 20 12  1  0  0  0  0
 21 13  2  0  0  0  0
 22 17  2  0  0  0  0
 23 20  2  0  0  0  0
 24 14  1  0  0  0  0
 25  8  1  0  0  0  0
  2  4  1  0  0  0  0
 21 22  1  0  0  0  0
 14  7  2  0  0  0  0
M  CHG  2   6   1  15  -1
M  END
> <IDNUMBER>
F2073-0018

> <Chemical_Name>
4-chloro-N-{2-methyl-4-oxo-4H-pyrido[1,2-a]pyrimidin-3-yl}-3-nitrobenzamide

> <CAS>
920486-99-3

> <PriceCoeff>
1.00

> <MW>
358.74

> <Description>
solid

> <FSP3>
0.06

> <clogP>
1.94

> <TPSA>
104.91

> <Acceptor>
5

> <Donor>
1

> <RotBonds>
3

> <HAC>
25

> <Collection>
General

$$$$
F2515-0826
  -ISIS-  06222321462D

 34 38  0  0  0  0  0  0  0  0999 V2000
   -4.5625    2.1500    0.0000 C   0  0  0  0  0  0  0  0  0  0  0  0
   -3.8458    2.5583    0.0000 N   0  0  3  0  0  0  0  0  0  0  0  0
   -0.9833    3.3833    0.0000 N   0  0  3  0  0  0  0  0  0  0  0  0
   -4.6583    1.3250    0.0000 N   0  0  0  0  0  0  0  0  0  0  0  0
   -5.3208    2.4875    0.0000 S   0  0  0  0  0  0  0  0  0  0  0  0
   -3.8458    3.3958    0.0000 C   0  0  0  0  0  0  0  0  0  0  0  0
   -1.7000    3.8000    0.0000 C   0  0  0  0  0  0  0  0  0  0  0  0
   -0.2208    3.6875    0.0000 C   0  0  0  0  0  0  0  0  0  0  0  0
   -0.9458    2.5583    0.0000 C   0  0  0  0  0  0  0  0  0  0  0  0
   -5.8750    1.8708    0.0000 C   0  0  0  0  0  0  0  0  0  0  0  0
   -5.4583    1.1583    0.0000 C   0  0  0  0  0  0  0  0  0  0  0  0
   -3.1333    3.8000    0.0000 C   0  0  0  0  0  0  0  0  0  0  0  0
   -2.4208    3.3958    0.0000 C   0  0  0  0  0  0  0  0  0  0  0  0
   -3.1333    2.1458    0.0000 C   0  0  0  0  0  0  0  0  0  0  0  0
   -4.5625    3.8000    0.0000 O   0  0  0  0  0  0  0  0  0  0  0  0
   -6.6917    1.8708    0.0000 C   0  0  0  0  0  0  0  0  0  0  0  0
    0.3125    3.0583    0.0000 C   0  0  0  0  0  0  0  0  0  0  0  0
   -0.1208    2.3583    0.0000 C   0  0  0  0  0  0  0  0  0  0  0  0
    0.0000    4.4667    0.0000 O   0  0  0  0  0  0  0  0  0  0  0  0
   -1.5750    2.0375    0.0000 O   0  0  0  0  0  0  0  0  0  0  0  0
   -2.4208    0.0833    0.0000 N   0  0  0  0  0  0  0  0  0  0  0  0
   -5.8708    0.4458    0.0000 C   0  0  0  0  0  0  0  0  0  0  0  0
   -3.1333    1.3208    0.0000 C   0  0  0  0  0  0  0  0  0  0  0  0
   -7.1042    1.1500    0.0000 C   0  0  0  0  0  0  0  0  0  0  0  0
   -6.6792    0.4458    0.0000 C   0  0  0  0  0  0  0  0  0  0  0  0
   -1.6958    4.6167    0.0000 C   0  0  0  0  0  0  0  0  0  0  0  0
   -2.4208    0.9083    0.0000 C   0  0  0  0  0  0  0  0  0  0  0  0
   -3.1250    4.6292    0.0000 C   0  0  0  0  0  0  0  0  0  0  0  0
   -2.4083    5.0292    0.0000 C   0  0  0  0  0  0  0  0  0  0  0  0
   -3.1333   -0.3292    0.0000 C   0  0  0  0  0  0  0  0  0  0  0  0
   -3.8500    0.9083    0.0000 C   0  0  0  0  0  0  0  0  0  0  0  0
   -7.9292    1.1500    0.0000 C   0  0  0  0  0  0  0  0  0  0  0  0
   -3.8500    0.0833    0.0000 C   0  0  0  0  0  0  0  0  0  0  0  0
   -8.3417    1.8708    0.0000 C   0  0  0  0  0  0  0  0  0  0  0  0
  2  1  1  0  0  0  0
  3  7  1  0  0  0  0
  4  1  2  0  0  0  0
  5  1  1  0  0  0  0
  6  2  1  0  0  0  0
  7 13  1  0  0  0  0
  8  3  1  0  0  0  0
  9  3  1  0  0  0  0
 10  5  1  0  0  0  0
 11  4  1  0  0  0  0
 12  6  1  0  0  0  0
 13 12  2  0  0  0  0
 14  2  1  0  0  0  0
 15  6  2  0  0  0  0
 16 10  1  0  0  0  0
 17  8  1  0  0  0  0
 18  9  1  0  0  0  0
 19  8  2  0  0  0  0
 20  9  2  0  0  0  0
 21 27  2  0  0  0  0
 22 11  1  0  0  0  0
 23 14  1  0  0  0  0
 24 16  2  0  0  0  0
 25 22  2  0  0  0  0
 26 29  1  0  0  0  0
 27 23  1  0  0  0  0
 28 12  1  0  0  0  0
 29 28  2  0  0  0  0
 30 33  2  0  0  0  0
 31 23  2  0  0  0  0
 32 24  1  0  0  0  0
 33 31  1  0  0  0  0
 34 32  1  0  0  0  0
 10 11  2  0  0  0  0
 25 24  1  0  0  0  0
 30 21  1  0  0  0  0
  7 26  2  0  0  0  0
 18 17  1  0  0  0  0
M  END
> <IDNUMBER>
F2515-0826

> <Chemical_Name>
3-(2,5-dioxopyrrolidin-1-yl)-N-(6-ethyl-1,3-benzothiazol-2-yl)-N-[(pyridin-3-yl)methyl]benzamide

> <CAS>
894996-17-9

> <PriceCoeff>
1.00

> <MW>
470.54

> <Description>
solid

> <FSP3>
0.19

> <clogP>
2.83

> <TPSA>
111.71

> <Acceptor>
5

> <Donor>
1

> <RotBonds>
7

> <HAC>
34

> <Collection>
General

$$$$
F1366-0504
  -ISIS-  06222321142D

 26 28  0  0  0  0  0  0  0  0999 V2000
   -1.1625    2.3833    0.0000 C   0  0  0  0  0  0  0  0  0  0  0  0
   -1.6458    1.7208    0.0000 N   0  0  3  0  0  0  0  0  0  0  0  0
    1.3000    3.7958    0.0000 N   0  0  3  0  0  0  0  0  0  0  0  0
   -0.3375    2.3750    0.0000 N   0  0  0  0  0  0  0  0  0  0  0  0
   -1.6458    3.0500    0.0000 S   0  0  0  0  0  0  0  0  0  0  0  0
   -2.4333    1.9708    0.0000 C   0  0  0  0  0  0  0  0  0  0  0  0
    2.1042    3.8708    0.0000 C   0  0  0  0  0  0  0  0  0  0  0  0
    0.9625    4.5292    0.0000 C   0  0  0  0  0  0  0  0  0  0  0  0
    0.0750    3.0875    0.0000 C   0  0  0  0  0  0  0  0  0  0  0  0
   -2.4333    2.7958    0.0000 C   0  0  0  0  0  0  0  0  0  0  0  0
    0.8875    3.0875    0.0000 C   0  0  0  0  0  0  0  0  0  0  0  0
   -1.7625    0.9083    0.0000 C   0  0  0  0  0  0  0  0  0  0  0  0
   -2.5208    0.6083    0.0000 C   0  0  0  0  0  0  0  0  0  0  0  0
    1.5625    5.0750    0.0000 C   0  0  0  0  0  0  0  0  0  0  0  0
    2.2750    4.6667    0.0000 C   0  0  0  0  0  0  0  0  0  0  0  0
    0.1667    4.7042    0.0000 O   0  0  0  0  0  0  0  0  0  0  0  0
    2.6417    3.2708    0.0000 O   0  0  0  0  0  0  0  0  0  0  0  0
   -0.3375    3.8000    0.0000 O   0  0  0  0  0  0  0  0  0  0  0  0
   -2.6333   -0.2000    0.0000 O   0  0  0  0  0  0  0  0  0  0  0  0
   -3.1583    1.1083    0.0000 O   0  0  0  0  0  0  0  0  0  0  0  0
   -3.1458    1.5583    0.0000 C   0  0  0  0  0  0  0  0  0  0  0  0
   -3.1458    3.2083    0.0000 C   0  0  0  0  0  0  0  0  0  0  0  0
   -3.9125    0.8083    0.0000 C   0  0  0  0  0  0  0  0  0  0  0  0
   -3.8583    1.9708    0.0000 C   0  0  0  0  0  0  0  0  0  0  0  0
   -3.8583    2.7958    0.0000 C   0  0  0  0  0  0  0  0  0  0  0  0
   -4.5625    3.2083    0.0000 H   0  0  0  0  0  0  0  0  0  0  0  0
  2  1  1  0  0  0  0
  3 11  1  0  0  0  0
  4  1  2  0  0  0  0
  5  1  1  0  0  0  0
  6  2  1  0  0  0  0
  7  3  1  0  0  0  0
  8  3  1  0  0  0  0
  9  4  1  0  0  0  0
 10  5  1  0  0  0  0
 11  9  1  0  0  0  0
 12  2  1  0  0  0  0
 13 12  1  0  0  0  0
 14  8  1  0  0  0  0
 15  7  1  0  0  0  0
 16  8  2  0  0  0  0
 17  7  2  0  0  0  0
 18  9  2  0  0  0  0
 19 13  2  0  0  0  0
 20 13  1  0  0  0  0
 21  6  1  0  0  0  0
 22 10  1  0  0  0  0
 23 20  1  0  0  0  0
 24 21  2  0  0  0  0
 25 22  2  0  0  0  0
 26 25  1  0  0  0  0
 10  6  2  0  0  0  0
 25 24  1  0  0  0  0
 14 15  1  0  0  0  0
M  END
> <IDNUMBER>
F1366-0504

> <Chemical_Name>
methyl 2-[(2Z)-2-{[2-(2,5-dioxopyrrolidin-1-yl)acetyl]imino}-2,3-dihydro-1,3-benzothiazol-3-yl]acetate

> <CAS>
941977-14-6

> <PriceCoeff>
1.00

> <MW>
361.37

> <Description>
solid

> <FSP3>
0.31

> <clogP>
2.34

> <TPSA>
121.65

> <Acceptor>
5

> <Donor>
0

> <RotBonds>
6

> <HAC>
25

> <Collection>
General

$$$$
F0293-0022
  -ISIS-  06222321142D

 17 17  0  0  0  0  0  0  0  0999 V2000
   -1.3125    3.1458    0.0000 S   0  0  3  0  0  0  0  0  0  0  0  0
   -0.6958    1.3208    0.0000 C   0  0  0  0  0  0  0  0  0  0  0  0
   -0.0500    0.9458    0.0000 N   0  3  0  0  0  0  0  0  0  0  0  0
   -1.3125    3.8833    0.0000 C   0  0  3  0  0  0  0  0  0  0  0  0
   -0.6958    2.0208    0.0000 C   0  0  0  0  0  0  0  0  0  0  0  0
   -1.3125    2.4000    0.0000 C   0  0  0  0  0  0  0  0  0  0  0  0
   -1.3125    0.9458    0.0000 C   0  0  0  0  0  0  0  0  0  0  0  0
   -2.0500    3.1458    0.0000 O   0  0  0  0  0  0  0  0  0  0  0  0
   -0.5958    3.1458    0.0000 O   0  0  0  0  0  0  0  0  0  0  0  0
   -0.0500    0.2000    0.0000 O   0  5  0  0  0  0  0  0  0  0  0  0
    0.6042    1.3208    0.0000 O   0  0  0  0  0  0  0  0  0  0  0  0
   -1.9500    2.0208    0.0000 C   0  0  0  0  0  0  0  0  0  0  0  0
   -1.3125    4.6292    0.0000 F   0  0  0  0  0  0  0  0  0  0  0  0
   -0.5958    3.8833    0.0000 F   0  0  0  0  0  0  0  0  0  0  0  0
   -2.0500    3.8833    0.0000 F   0  0  0  0  0  0  0  0  0  0  0  0
   -1.9500    1.3208    0.0000 C   0  0  0  0  0  0  0  0  0  0  0  0
   -1.3125    0.2000    0.0000 Cl  0  0  0  0  0  0  0  0  0  0  0  0
  2  5  1  0  0  0  0
  3  2  1  0  0  0  0
  4  1  1  0  0  0  0
  5  6  2  0  0  0  0
  6  1  1  0  0  0  0
  7 16  1  0  0  0  0
  8  1  2  0  0  0  0
  9  1  2  0  0  0  0
 10  3  1  0  0  0  0
 11  3  2  0  0  0  0
 12  6  1  0  0  0  0
 13  4  1  0  0  0  0
 14  4  1  0  0  0  0
 15  4  1  0  0  0  0
 16 12  2  0  0  0  0
 17  7  1  0  0  0  0
  7  2  2  0  0  0  0
M  CHG  2   3   1  10  -1
M  END
> <IDNUMBER>
F0293-0022

> <Chemical_Name>
1-chloro-2-nitro-4-trifluoromethanesulfonylbenzene

> <CAS>
1550-27-2

> <PriceCoeff>
1.00

> <MW>
289.62

> <Description>
solid

> <FSP3>
0.14

> <clogP>
3.23

> <TPSA>
85.66

> <Acceptor>
4

> <Donor>
0

> <RotBonds>
2

> <HAC>
17

> <Collection>
General

$$$$
F0433-0012
  -ISIS-  06222321142D

 19 20  0  0  0  0  0  0  0  0999 V2000
   -2.1000    0.6333    0.0000 S   0  0  3  0  0  0  0  0  0  0  0  0
   -1.4458    0.8125    0.0000 N   0  0  0  0  0  0  0  0  0  0  0  0
   -2.7625    0.4500    0.0000 C   0  0  0  0  0  0  0  0  0  0  0  0
   -2.2833    1.2958    0.0000 O   0  0  0  0  0  0  0  0  0  0  0  0
   -1.9208   -0.0500    0.0000 O   0  0  0  0  0  0  0  0  0  0  0  0
    0.1667    0.0333    0.0000 C   0  0  0  0  0  0  0  0  0  0  0  0
   -0.3000    0.5125    0.0000 C   0  0  0  0  0  0  0  0  0  0  0  0
   -0.9625    0.3333    0.0000 C   0  0  0  0  0  0  0  0  0  0  0  0
    0.0042   -0.6000    0.0000 C   0  0  0  0  0  0  0  0  0  0  0  0
   -2.9458   -0.2000    0.0000 C   0  0  0  0  0  0  0  0  0  0  0  0
   -3.2208    0.9333    0.0000 C   0  0  0  0  0  0  0  0  0  0  0  0
   -0.6458   -0.8000    0.0000 C   0  0  0  0  0  0  0  0  0  0  0  0
    0.8292    0.2333    0.0000 Cl  0  0  0  0  0  0  0  0  0  0  0  0
   -1.1208   -0.3167    0.0000 C   0  0  0  0  0  0  0  0  0  0  0  0
   -4.0625    0.1125    0.0000 C   0  0  0  0  0  0  0  0  0  0  0  0
   -3.6000   -0.3792    0.0000 C   0  0  0  0  0  0  0  0  0  0  0  0
   -3.8833    0.7500    0.0000 C   0  0  0  0  0  0  0  0  0  0  0  0
   -4.6833   -0.0875    0.0000 Cl  0  0  0  0  0  0  0  0  0  0  0  0
    0.5000   -1.0792    0.0000 O   0  0  0  0  0  0  0  0  0  0  0  0
  2  1  1  0  0  0  0
  3  1  1  0  0  0  0
  4  1  2  0  0  0  0
  5  1  2  0  0  0  0
  6  7  2  0  0  0  0
  7  8  1  0  0  0  0
  8  2  1  0  0  0  0
  9 12  2  0  0  0  0
 10  3  2  0  0  0  0
 11  3  1  0  0  0  0
 12 14  1  0  0  0  0
 13  6  1  0  0  0  0
 14  8  2  0  0  0  0
 15 17  1  0  0  0  0
 16 10  1  0  0  0  0
 17 11  2  0  0  0  0
 18 15  1  0  0  0  0
 19  9  1  0  0  0  0
 15 16  2  0  0  0  0
  9  6  1  0  0  0  0
M  END
> <IDNUMBER>
F0433-0012

> <Chemical_Name>
4-chloro-N-(3-chloro-4-hydroxyphenyl)benzene-1-sulfonamide

> <CAS>
141481-31-4

> <PriceCoeff>
1.00

> <MW>
318.18

> <Description>
solid

> <FSP3>
0.00

> <clogP>
3.63

> <TPSA>
74.78

> <Acceptor>
4

> <Donor>
2

> <RotBonds>
3

> <HAC>
19

> <Collection>
General

$$$$
F1219-1516
  -ISIS-  06222321142D

 13 14  0  0  0  0  0  0  0  0999 V2000
    6.5917   -2.8917    0.0000 N   0  0  3  0  0  0  0  0  0  0  0  0
    5.9250   -2.4125    0.0000 C   0  0  0  0  0  0  0  0  0  0  0  0
    7.2625   -2.4125    0.0000 C   0  0  0  0  0  0  0  0  0  0  0  0
    6.1792   -1.6250    0.0000 N   0  0  0  0  0  0  0  0  0  0  0  0
    7.0042   -1.6250    0.0000 N   0  0  0  0  0  0  0  0  0  0  0  0
    5.1417   -2.6667    0.0000 C   0  0  0  0  0  0  0  0  0  0  0  0
    6.5917   -3.7167    0.0000 N   0  0  0  0  0  0  0  0  0  0  0  0
    8.0417   -2.6667    0.0000 S   0  0  0  0  0  0  0  0  0  0  0  0
    3.5750   -3.1792    0.0000 N   0  0  0  0  0  0  0  0  0  0  0  0
    3.7417   -2.3667    0.0000 C   0  0  0  0  0  0  0  0  0  0  0  0
    4.1917   -3.7292    0.0000 C   0  0  0  0  0  0  0  0  0  0  0  0
    4.5292   -2.1167    0.0000 C   0  0  0  0  0  0  0  0  0  0  0  0
    4.9750   -3.4667    0.0000 C   0  0  0  0  0  0  0  0  0  0  0  0
  2  1  1  0  0  0  0
  3  1  1  0  0  0  0
  4  2  2  0  0  0  0
  5  3  2  0  0  0  0
  6  2  1  0  0  0  0
  7  1  1  0  0  0  0
  8  3  1  0  0  0  0
  9 11  1  0  0  0  0
 10 12  1  0  0  0  0
 11 13  2  0  0  0  0
 12  6  2  0  0  0  0
 13  6  1  0  0  0  0
  4  5  1  0  0  0  0
  9 10  2  0  0  0  0
M  END
> <IDNUMBER>
F1219-1516

> <Chemical_Name>
4-amino-5-(pyridin-4-yl)-4H-1,2,4-triazole-3-thiol

> <CAS>
36209-51-5

> <PriceCoeff>
1.00

> <MW>
193.23

> <Description>
solid

> <FSP3>
0.00

> <clogP>
0.57

> <TPSA>
108.42

> <Acceptor>
3

> <Donor>
4

> <RotBonds>
1

> <HAC>
13

> <Collection>
General

> <Reference_compound>
CHEMBL571510

> <Similarity>
1.0000

$$$$
F2545-0217
  -ISIS-  06222321142D

 24 25  0  0  0  0  0  0  0  0999 V2000
   -3.9125    1.2625    0.0000 S   0  0  3  0  0  0  0  0  0  0  0  0
    0.9292    3.0625    0.0000 N   0  3  0  0  0  0  0  0  0  0  0  0
    0.1625    3.3708    0.0000 C   0  0  0  0  0  0  0  0  0  0  0  0
   -1.9125    2.6625    0.0000 C   0  0  0  0  0  0  0  0  0  0  0  0
   -3.2625    1.6375    0.0000 C   0  0  0  0  0  0  0  0  0  0  0  0
   -2.6833    2.9833    0.0000 N   0  0  3  0  0  0  0  0  0  0  0  0
   -0.4958    2.8625    0.0000 C   0  0  0  0  0  0  0  0  0  0  0  0
   -1.2583    3.1708    0.0000 C   0  0  0  0  0  0  0  0  0  0  0  0
   -3.2625    2.3958    0.0000 C   0  0  3  0  0  0  0  0  0  0  0  0
    0.0375    4.1917    0.0000 C   0  0  0  0  0  0  0  0  0  0  0  0
   -3.3833    0.7333    0.0000 O   0  0  0  0  0  0  0  0  0  0  0  0
   -4.5625    0.8958    0.0000 O   0  0  0  0  0  0  0  0  0  0  0  0
    1.0500    2.2500    0.0000 O   0  5  0  0  0  0  0  0  0  0  0  0
   -4.5583    2.3958    0.0000 C   0  0  0  0  0  0  0  0  0  0  0  0
    1.5792    3.5833    0.0000 O   0  0  0  0  0  0  0  0  0  0  0  0
   -4.5583    1.6375    0.0000 C   0  0  0  0  0  0  0  0  0  0  0  0
   -1.8083    1.8458    0.0000 O   0  0  0  0  0  0  0  0  0  0  0  0
   -1.3833    3.9875    0.0000 C   0  0  0  0  0  0  0  0  0  0  0  0
   -0.7333    4.5000    0.0000 C   0  0  0  0  0  0  0  0  0  0  0  0
    0.6792    4.7000    0.0000 Cl  0  0  0  0  0  0  0  0  0  0  0  0
   -2.8458    3.7833    0.0000 C   0  0  0  0  0  0  0  0  0  0  0  0
   -3.6250    4.0417    0.0000 C   0  0  0  0  0  0  0  0  0  0  0  0
   -4.2458    3.5083    0.0000 C   0  0  0  0  0  0  0  0  0  0  0  0
   -5.0333    3.7750    0.0000 C   0  0  0  0  0  0  0  0  0  0  0  0
  2  3  1  0  0  0  0
  3  7  2  0  0  0  0
  4  6  1  0  0  0  0
  5  1  1  0  0  0  0
  6  9  1  0  0  0  0
  7  8  1  0  0  0  0
  8  4  1  0  0  0  0
  9  5  1  0  0  0  0
 10 19  2  0  0  0  0
 11  1  2  0  0  0  0
 12  1  2  0  0  0  0
 13  2  1  0  0  0  0
 14 16  1  0  0  0  0
 15  2  2  0  0  0  0
 16  1  1  0  0  0  0
 17  4  2  0  0  0  0
 18  8  2  0  0  0  0
 19 18  1  0  0  0  0
 20 10  1  0  0  0  0
 21  6  1  0  0  0  0
 22 21  1  0  0  0  0
 23 22  1  0  0  0  0
 24 23  1  0  0  0  0
  9 14  1  0  0  0  0
  3 10  1  0  0  0  0
M  CHG  2   2   1  13  -1
M  END
> <IDNUMBER>
F2545-0217

> <Chemical_Name>
N-butyl-4-chloro-N-(1,1-dioxo-1lambda6-thiolan-3-yl)-3-nitrobenzamide

> <CAS>
898405-36-2

> <PriceCoeff>
1.00

> <MW>
374.84

> <Description>
solid

> <FSP3>
0.53

> <clogP>
1.75

> <TPSA>
105.97

> <Acceptor>
5

> <Donor>
0

> <RotBonds>
7

> <HAC>
24

> <Collection>
General

$$$$
F3325-0110
  -ISIS-  06222321152D

 32 35  0  0  0  0  0  0  0  0999 V2000
    4.8792   -1.3250    0.0000 N   0  0  3  0  0  0  0  0  0  0  0  0
    5.3667   -1.9917    0.0000 C   0  0  0  0  0  0  0  0  0  0  0  0
    5.3625   -0.6542    0.0000 C   0  0  0  0  0  0  0  0  0  0  0  0
    6.1542   -1.7292    0.0000 C   0  0  3  0  0  0  0  0  0  0  0  0
    6.1417   -0.9042    0.0000 C   0  0  0  0  0  0  0  0  0  0  0  0
    6.8167   -2.2125    0.0000 N   0  0  3  0  0  0  0  0  0  0  0  0
    8.1542   -3.1750    0.0000 N   0  0  3  0  0  0  0  0  0  0  0  0
    4.0542   -1.3292    0.0000 C   0  0  0  0  0  0  0  0  0  0  0  0
    8.8250   -3.6542    0.0000 C   0  0  0  0  0  0  0  0  0  0  0  0
    1.5750    0.0833    0.0000 C   0  0  0  0  0  0  0  0  0  0  0  0
    5.1167   -2.7750    0.0000 O   0  0  0  0  0  0  0  0  0  0  0  0
    5.1042    0.1333    0.0000 O   0  0  0  0  0  0  0  0  0  0  0  0
    7.5667   -1.8667    0.0000 C   0  0  0  0  0  0  0  0  0  0  0  0
    6.7292   -3.0292    0.0000 C   0  0  0  0  0  0  0  0  0  0  0  0
    7.4000   -3.5125    0.0000 C   0  0  0  0  0  0  0  0  0  0  0  0
    8.2375   -2.3542    0.0000 C   0  0  0  0  0  0  0  0  0  0  0  0
    1.1667   -0.6292    0.0000 C   0  0  0  0  0  0  0  0  0  0  0  0
    2.4000    0.0875    0.0000 C   0  0  0  0  0  0  0  0  0  0  0  0
    8.7375   -4.4792    0.0000 C   0  0  0  0  0  0  0  0  0  0  0  0
    9.5667   -3.3167    0.0000 C   0  0  0  0  0  0  0  0  0  0  0  0
    1.5875   -1.3500    0.0000 C   0  0  0  0  0  0  0  0  0  0  0  0
    2.8125   -0.6167    0.0000 C   0  0  0  0  0  0  0  0  0  0  0  0
    3.6375   -0.6167    0.0000 C   0  0  0  0  0  0  0  0  0  0  0  0
   10.1542   -4.6250    0.0000 C   0  0  0  0  0  0  0  0  0  0  0  0
    2.4125   -1.3417    0.0000 C   0  0  0  0  0  0  0  0  0  0  0  0
   10.2417   -3.8000    0.0000 C   0  0  0  0  0  0  0  0  0  0  0  0
    9.4042   -4.9625    0.0000 C   0  0  0  0  0  0  0  0  0  0  0  0
    1.1542    0.7958    0.0000 O   0  0  0  0  0  0  0  0  0  0  0  0
   10.8250   -5.1042    0.0000 F   0  0  0  0  0  0  0  0  0  0  0  0
    0.3417   -0.6375    0.0000 O   0  0  0  0  0  0  0  0  0  0  0  0
    1.5667    1.5125    0.0000 C   0  0  0  0  0  0  0  0  0  0  0  0
   -0.0750    0.0708    0.0000 C   0  0  0  0  0  0  0  0  0  0  0  0
  2  1  1  0  0  0  0
  3  1  1  0  0  0  0
  4  2  1  0  0  0  0
  5  3  1  0  0  0  0
  6  4  1  0  0  0  0
  7 15  1  0  0  0  0
  8  1  1  0  0  0  0
  9  7  1  0  0  0  0
 10 18  1  0  0  0  0
 11  2  2  0  0  0  0
 12  3  2  0  0  0  0
 13  6  1  0  0  0  0
 14  6  1  0  0  0  0
 15 14  1  0  0  0  0
 16 13  1  0  0  0  0
 17 21  1  0  0  0  0
 18 22  2  0  0  0  0
 19  9  2  0  0  0  0
 20  9  1  0  0  0  0
 21 25  2  0  0  0  0
 22 23  1  0  0  0  0
 23  8  1  0  0  0  0
 24 26  1  0  0  0  0
 25 22  1  0  0  0  0
 26 20  2  0  0  0  0
 27 19  1  0  0  0  0
 28 10  1  0  0  0  0
 29 24  1  0  0  0  0
 30 17  1  0  0  0  0
 31 28  1  0  0  0  0
 32 30  1  0  0  0  0
  4  5  1  0  0  0  0
 16  7  1  0  0  0  0
 10 17  2  0  0  0  0
 27 24  2  0  0  0  0
M  END
> <IDNUMBER>
F3325-0110

> <Chemical_Name>
1-[2-(3,4-dimethoxyphenyl)ethyl]-3-[4-(4-fluorophenyl)piperazin-1-yl]pyrrolidine-2,5-dione

> <CAS>
313378-56-2

> <PriceCoeff>
1.00

> <MW>
441.50

> <Description>
solid

> <FSP3>
0.42

> <clogP>
4.42

> <TPSA>
62.32

> <Acceptor>
5

> <Donor>
2

> <RotBonds>
7

> <HAC>
32

> <Collection>
General

$$$$
F1814-1154
  -ISIS-  06222321442D

 25 27  0  0  0  0  0  0  0  0999 V2000
   -5.2708    2.1875    0.0000 C   0  0  0  0  0  0  0  0  0  0  0  0
   -6.0250    2.5250    0.0000 S   0  0  0  0  0  0  0  0  0  0  0  0
   -5.3583    1.3583    0.0000 N   0  0  3  0  0  0  0  0  0  0  0  0
   -3.8708    4.6292    0.0000 N   0  0  3  0  0  0  0  0  0  0  0  0
   -6.5917    1.9000    0.0000 C   0  0  0  0  0  0  0  0  0  0  0  0
   -4.5833    2.5958    0.0000 N   0  0  0  0  0  0  0  0  0  0  0  0
   -6.1542    1.1750    0.0000 C   0  0  0  0  0  0  0  0  0  0  0  0
   -3.2000    5.1042    0.0000 C   0  0  0  0  0  0  0  0  0  0  0  0
   -4.5333    5.1042    0.0000 C   0  0  0  0  0  0  0  0  0  0  0  0
   -4.5833    3.3958    0.0000 C   0  0  0  0  0  0  0  0  0  0  0  0
   -3.8708    3.8000    0.0000 C   0  0  0  0  0  0  0  0  0  0  0  0
   -6.5875    0.4583    0.0000 C   0  0  0  0  0  0  0  0  0  0  0  0
   -7.4292    1.8958    0.0000 C   0  0  0  0  0  0  0  0  0  0  0  0
   -3.4583    5.9000    0.0000 C   0  0  0  0  0  0  0  0  0  0  0  0
   -4.2833    5.8917    0.0000 C   0  0  0  0  0  0  0  0  0  0  0  0
   -2.4125    4.8417    0.0000 O   0  0  0  0  0  0  0  0  0  0  0  0
   -5.3208    4.8542    0.0000 O   0  0  0  0  0  0  0  0  0  0  0  0
   -5.2708    3.7958    0.0000 O   0  0  0  0  0  0  0  0  0  0  0  0
   -7.4167    0.4500    0.0000 C   0  0  0  0  0  0  0  0  0  0  0  0
   -7.8417    1.1708    0.0000 C   0  0  0  0  0  0  0  0  0  0  0  0
   -4.7583    0.8208    0.0000 C   0  0  0  0  0  0  0  0  0  0  0  0
   -6.1667   -0.2500    0.0000 O   0  0  0  0  0  0  0  0  0  0  0  0
   -7.8417    2.6083    0.0000 C   0  0  0  0  0  0  0  0  0  0  0  0
   -6.6917   -0.9292    0.0000 C   0  0  0  0  0  0  0  0  0  0  0  0
   -4.9333    0.0208    0.0000 C   0  0  0  0  0  0  0  0  0  0  0  0
  2  1  1  0  0  0  0
  3  1  1  0  0  0  0
  4 11  1  0  0  0  0
  5  2  1  0  0  0  0
  6  1  2  0  0  0  0
  7  3  1  0  0  0  0
  8  4  1  0  0  0  0
  9  4  1  0  0  0  0
 10  6  1  0  0  0  0
 11 10  1  0  0  0  0
 12  7  1  0  0  0  0
 13  5  1  0  0  0  0
 14  8  1  0  0  0  0
 15  9  1  0  0  0  0
 16  8  2  0  0  0  0
 17  9  2  0  0  0  0
 18 10  2  0  0  0  0
 19 12  2  0  0  0  0
 20 13  2  0  0  0  0
 21  3  1  0  0  0  0
 22 12  1  0  0  0  0
 23 13  1  0  0  0  0
 24 22  1  0  0  0  0
 25 21  1  0  0  0  0
  7  5  2  0  0  0  0
 20 19  1  0  0  0  0
 14 15  1  0  0  0  0
M  END
> <IDNUMBER>
F1814-1154

> <Chemical_Name>
2-(2,5-dioxopyrrolidin-1-yl)-N-[(2Z)-3-ethyl-4-methoxy-7-methyl-2,3-dihydro-1,3-benzothiazol-2-ylidene]acetamide

> <CAS>
868370-76-7

> <PriceCoeff>
1.00

> <MW>
361.42

> <Description>
solid

> <FSP3>
0.41

> <clogP>
3.72

> <TPSA>
104.58

> <Acceptor>
4

> <Donor>
0

> <RotBonds>
5

> <HAC>
25

> <Collection>
General

$$$$
F3386-1385
  -ISIS-  06222321462D

 22 23  0  0  0  0  0  0  0  0999 V2000
    5.1250   -1.9375    0.0000 S   0  0  3  0  0  0  0  0  0  0  0  0
    4.3000   -1.9417    0.0000 C   0  0  0  0  0  0  0  0  0  0  0  0
    5.9500   -1.9250    0.0000 N   0  0  0  0  0  0  0  0  0  0  0  0
    6.7750   -1.9250    0.0000 C   0  0  0  0  0  0  0  0  0  0  0  0
    5.1167   -1.1125    0.0000 O   0  0  0  0  0  0  0  0  0  0  0  0
    5.1292   -2.7625    0.0000 O   0  0  0  0  0  0  0  0  0  0  0  0
    7.1792   -2.6375    0.0000 C   0  0  0  0  0  0  0  0  0  0  0  0
    3.8792   -1.2375    0.0000 C   0  0  0  0  0  0  0  0  0  0  0  0
    3.9042   -2.6542    0.0000 C   0  0  0  0  0  0  0  0  0  0  0  0
    7.1792   -1.2125    0.0000 C   0  0  0  0  0  0  0  0  0  0  0  0
    3.0667   -1.2417    0.0000 C   0  0  0  0  0  0  0  0  0  0  0  0
    8.0000   -1.2042    0.0000 C   0  0  0  0  0  0  0  0  0  0  0  0
    8.0042   -2.6292    0.0000 C   0  0  0  0  0  0  0  0  0  0  0  0
    3.0792   -2.6667    0.0000 C   0  0  0  0  0  0  0  0  0  0  0  0
    8.4167   -1.9167    0.0000 C   0  0  0  0  0  0  0  0  0  0  0  0
    2.6542   -1.9542    0.0000 C   0  0  0  0  0  0  0  0  0  0  0  0
    8.4167   -3.3500    0.0000 Cl  0  0  0  0  0  0  0  0  0  0  0  0
    6.7625   -0.5000    0.0000 O   0  0  0  0  0  0  0  0  0  0  0  0
    4.2917   -0.5167    0.0000 O   0  0  0  0  0  0  0  0  0  0  0  0
    2.6750   -3.3917    0.0000 C   0  0  0  0  0  0  0  0  0  0  0  0
    5.1167   -0.5125    0.0000 C   0  0  0  0  0  0  0  0  0  0  0  0
    1.8500   -3.4042    0.0000 C   0  0  0  0  0  0  0  0  0  0  0  0
  2  1  1  0  0  0  0
  3  1  1  0  0  0  0
  4  3  1  0  0  0  0
  5  1  2  0  0  0  0
  6  1  2  0  0  0  0
  7  4  2  0  0  0  0
  8  2  2  0  0  0  0
  9  2  1  0  0  0  0
 10  4  1  0  0  0  0
 11  8  1  0  0  0  0
 12 10  2  0  0  0  0
 13  7  1  0  0  0  0
 14  9  2  0  0  0  0
 15 12  1  0  0  0  0
 16 14  1  0  0  0  0
 17 13  1  0  0  0  0
 18 10  1  0  0  0  0
 19  8  1  0  0  0  0
 20 14  1  0  0  0  0
 21 19  1  0  0  0  0
 22 20  1  0  0  0  0
 16 11  2  0  0  0  0
 15 13  2  0  0  0  0
M  END
> <IDNUMBER>
F3386-1385

> <Chemical_Name>
N-(5-chloro-2-hydroxyphenyl)-5-ethyl-2-methoxybenzene-1-sulfonamide

> <CAS>
1171564-02-5

> <PriceCoeff>
1.00

> <MW>
341.81

> <Description>
solid

> <FSP3>
0.20

> <clogP>
3.69

> <TPSA>
84.01

> <Acceptor>
5

> <Donor>
2

> <RotBonds>
5

> <HAC>
22

> <Collection>
General

$$$$
F5581-1075
  -ISIS-  06222321462D

 34 38  0  0  0  0  0  0  0  0999 V2000
   -5.3333    3.1083    0.0000 C   0  0  0  0  0  0  0  0  0  0  0  0
   -5.4083    3.8583    0.0000 N   0  0  0  0  0  0  0  0  0  0  0  0
   -4.6833    2.7208    0.0000 N   0  0  3  0  0  0  0  0  0  0  0  0
   -2.7458    0.8458    0.0000 N   0  0  3  0  0  0  0  0  0  0  0  0
   -6.0167    2.8083    0.0000 S   0  0  0  0  0  0  0  0  0  0  0  0
   -4.0333    3.0958    0.0000 C   0  0  0  0  0  0  0  0  0  0  0  0
   -6.1417    4.0042    0.0000 C   0  0  0  0  0  0  0  0  0  0  0  0
   -6.5167    3.3625    0.0000 C   0  0  0  0  0  0  0  0  0  0  0  0
   -2.7375    1.5958    0.0000 C   0  0  0  0  0  0  0  0  0  0  0  0
   -2.1583    0.3750    0.0000 C   0  0  0  0  0  0  0  0  0  0  0  0
   -3.3708    0.4250    0.0000 C   0  0  0  0  0  0  0  0  0  0  0  0
   -5.3333    0.8375    0.0000 N   0  0  3  0  0  0  0  0  0  0  0  0
   -3.3833    2.7208    0.0000 C   0  0  0  0  0  0  0  0  0  0  0  0
   -4.7833    0.3333    0.0000 N   0  0  0  0  0  0  0  0  0  0  0  0
   -6.5167    4.6542    0.0000 C   0  0  0  0  0  0  0  0  0  0  0  0
   -4.6875    1.9625    0.0000 C   0  0  0  0  0  0  0  0  0  0  0  0
   -3.3833    1.9708    0.0000 C   0  0  0  0  0  0  0  0  0  0  0  0
   -7.2667    3.3625    0.0000 C   0  0  0  0  0  0  0  0  0  0  0  0
   -5.3333    1.5875    0.0000 C   0  0  0  0  0  0  0  0  0  0  0  0
   -5.8208   -0.2750    0.0000 C   0  0  0  0  0  0  0  0  0  0  0  0
   -4.0333    3.8458    0.0000 O   0  0  0  0  0  0  0  0  0  0  0  0
   -5.9833    0.4625    0.0000 C   0  0  0  0  0  0  0  0  0  0  0  0
   -7.2667    4.6542    0.0000 C   0  0  0  0  0  0  0  0  0  0  0  0
   -2.4250   -0.3250    0.0000 C   0  0  0  0  0  0  0  0  0  0  0  0
   -3.1583   -0.3000    0.0000 C   0  0  0  0  0  0  0  0  0  0  0  0
   -1.4333    0.5750    0.0000 O   0  0  0  0  0  0  0  0  0  0  0  0
   -4.0833    0.6875    0.0000 O   0  0  0  0  0  0  0  0  0  0  0  0
   -7.6417    4.0042    0.0000 C   0  0  0  0  0  0  0  0  0  0  0  0
   -5.0833   -0.3500    0.0000 C   0  0  0  0  0  0  0  0  0  0  0  0
   -2.0833    1.9708    0.0000 C   0  0  0  0  0  0  0  0  0  0  0  0
   -2.7333    3.0958    0.0000 C   0  0  0  0  0  0  0  0  0  0  0  0
   -6.1417    5.3125    0.0000 C   0  0  0  0  0  0  0  0  0  0  0  0
   -2.0833    2.7208    0.0000 C   0  0  0  0  0  0  0  0  0  0  0  0
   -8.3917    4.0042    0.0000 C   0  0  0  0  0  0  0  0  0  0  0  0
  2  1  2  0  0  0  0
  3  1  1  0  0  0  0
  4  9  1  0  0  0  0
  5  1  1  0  0  0  0
  6  3  1  0  0  0  0
  7  2  1  0  0  0  0
  8  5  1  0  0  0  0
  9 17  1  0  0  0  0
 10  4  1  0  0  0  0
 11  4  1  0  0  0  0
 12 19  1  0  0  0  0
 13  6  1  0  0  0  0
 14 12  1  0  0  0  0
 15  7  1  0  0  0  0
 16  3  1  0  0  0  0
 17 13  2  0  0  0  0
 18  8  1  0  0  0  0
 19 16  1  0  0  0  0
 20 22  2  0  0  0  0
 21  6  2  0  0  0  0
 22 12  1  0  0  0  0
 23 15  2  0  0  0  0
 24 10  1  0  0  0  0
 25 11  1  0  0  0  0
 26 10  2  0  0  0  0
 27 11  2  0  0  0  0
 28 18  2  0  0  0  0
 29 14  2  0  0  0  0
 30 33  1  0  0  0  0
 31 13  1  0  0  0  0
 32 15  1  0  0  0  0
 33 31  2  0  0  0  0
 34 28  1  0  0  0  0
  7  8  2  0  0  0  0
 28 23  1  0  0  0  0
 29 20  1  0  0  0  0
  9 30  2  0  0  0  0
 25 24  1  0  0  0  0
M  END
> <IDNUMBER>
F5581-1075

> <Chemical_Name>
N-(4,6-dimethyl-1,3-benzothiazol-2-yl)-3-(2,5-dioxopyrrolidin-1-yl)-N-[2-(1H-pyrazol-1-yl)ethyl]benzamide

> <CAS>
1171660-43-7

> <PriceCoeff>
1.00

> <MW>
473.55

> <Description>
solid

> <FSP3>
0.24

> <clogP>
2.08

> <TPSA>
116.64

> <Acceptor>
5

> <Donor>
0

> <RotBonds>
7

> <HAC>
34

> <Collection>
General

$$$$
F0777-0554
  -ISIS-  06222321452D

 13 13  0  0  0  0  0  0  0  0999 V2000
    0.5500    0.5208    0.0000 C   0  0  0  0  0  0  0  0  0  0  0  0
   -0.2208   -0.8000    0.0000 N   0  0  0  0  0  0  0  0  0  0  0  0
    1.3292    0.9833    0.0000 S   0  0  0  0  0  0  0  0  0  0  0  0
    0.5500   -0.3500    0.0000 N   0  0  0  0  0  0  0  0  0  0  0  0
   -0.2000    0.9625    0.0000 N   0  0  0  0  0  0  0  0  0  0  0  0
   -0.2208   -1.7042    0.0000 C   0  0  0  0  0  0  0  0  0  0  0  0
   -1.0000   -3.0500    0.0000 C   0  0  0  0  0  0  0  0  0  0  0  0
   -1.0000   -2.1667    0.0000 C   0  0  0  0  0  0  0  0  0  0  0  0
   -1.7833   -3.5000    0.0000 C   0  0  0  0  0  0  0  0  0  0  0  0
   -1.7833   -4.4000    0.0000 Br  0  0  0  0  0  0  0  0  0  0  0  0
   -2.5458   -2.1667    0.0000 C   0  0  0  0  0  0  0  0  0  0  0  0
   -2.5458   -3.0500    0.0000 C   0  0  0  0  0  0  0  0  0  0  0  0
   -1.7625   -1.7292    0.0000 C   0  0  0  0  0  0  0  0  0  0  0  0
  2  4  1  0  0  0  0
  3  1  2  0  0  0  0
  4  1  1  0  0  0  0
  5  1  1  0  0  0  0
  6  2  2  0  0  0  0
  7  8  2  0  0  0  0
  8  6  1  0  0  0  0
  9  7  1  0  0  0  0
 10  9  1  0  0  0  0
 11 13  2  0  0  0  0
 12 11  1  0  0  0  0
 13  8  1  0  0  0  0
 12  9  2  0  0  0  0
M  END
> <IDNUMBER>
F0777-0554

> <Chemical_Name>
[(E)-[(3-bromophenyl)methylidene]amino]thiourea

> <CAS>
1346145-39-8

> <PriceCoeff>
1.00

> <MW>
258.14

> <Description>
solid

> <FSP3>
0.00

> <clogP>
2.95

> <TPSA>
82.50

> <Acceptor>
2

> <Donor>
3

> <RotBonds>
2

> <HAC>
13

> <Collection>
General

> <Reference_compound>
CHEMBL243185

> <Similarity>
0.8220

$$$$
F3168-0277
  -ISIS-  06222321462D

 31 34  0  0  0  0  0  0  0  0999 V2000
    7.6250   -4.6042    0.0000 N   0  0  3  0  0  0  0  0  0  0  0  0
    6.1917   -4.5750    0.0000 C   0  0  0  0  0  0  0  0  0  0  0  0
    6.1792   -5.3917    0.0000 C   0  0  0  0  0  0  0  0  0  0  0  0
    6.8792   -5.8250    0.0000 N   0  0  0  0  0  0  0  0  0  0  0  0
    7.6125   -5.4167    0.0000 C   0  0  0  0  0  0  0  0  0  0  0  0
    6.9167   -4.1750    0.0000 C   0  0  0  0  0  0  0  0  0  0  0  0
    5.4167   -4.3042    0.0000 C   0  0  0  0  0  0  0  0  0  0  0  0
    4.9167   -4.9625    0.0000 C   0  0  0  0  0  0  0  0  0  0  0  0
    5.3917   -5.6292    0.0000 S   0  0  0  0  0  0  0  0  0  0  0  0
    8.3500   -4.1917    0.0000 C   0  0  0  0  0  0  0  0  0  0  0  0
    3.7625   -4.1125    0.0000 N   0  0  3  0  0  0  0  0  0  0  0  0
    4.0917   -4.8667    0.0000 C   0  0  0  0  0  0  0  0  0  0  0  0
    8.3542   -3.3750    0.0000 C   0  0  0  0  0  0  0  0  0  0  0  0
    2.9417   -4.0292    0.0000 C   0  0  0  0  0  0  0  0  0  0  0  0
    5.0917   -3.5417    0.0000 C   0  0  0  0  0  0  0  0  0  0  0  0
    9.0792   -2.9750    0.0000 C   0  0  0  0  0  0  0  0  0  0  0  0
    6.9375   -3.3500    0.0000 O   0  0  0  0  0  0  0  0  0  0  0  0
    8.3292   -5.8417    0.0000 S   0  0  0  0  0  0  0  0  0  0  0  0
    4.2750   -3.4375    0.0000 C   0  0  0  0  0  0  0  0  0  0  0  0
    9.0625   -4.6250    0.0000 C   0  0  0  0  0  0  0  0  0  0  0  0
    9.7917   -3.3917    0.0000 C   0  0  0  0  0  0  0  0  0  0  0  0
    2.4625   -4.7042    0.0000 O   0  0  0  0  0  0  0  0  0  0  0  0
    9.7792   -4.2167    0.0000 C   0  0  0  0  0  0  0  0  0  0  0  0
    9.0792   -2.1417    0.0000 Cl  0  0  0  0  0  0  0  0  0  0  0  0
    8.3167   -6.6750    0.0000 C   0  0  0  0  0  0  0  0  0  0  0  0
    2.6000   -3.2792    0.0000 C   0  0  0  0  0  0  0  0  0  0  0  0
   10.5292   -2.9875    0.0000 C   0  0  0  0  0  0  0  0  0  0  0  0
    9.0292   -7.0917    0.0000 C   0  0  0  0  0  0  0  0  0  0  0  0
    9.0167   -7.9250    0.0000 C   0  0  3  0  0  0  0  0  0  0  0  0
    8.3000   -8.3250    0.0000 C   0  0  0  0  0  0  0  0  0  0  0  0
    9.7292   -8.3500    0.0000 C   0  0  0  0  0  0  0  0  0  0  0  0
  2  6  1  0  0  0  0
  3  2  2  0  0  0  0
  4  5  2  0  0  0  0
  5  1  1  0  0  0  0
  6  1  1  0  0  0  0
  7  2  1  0  0  0  0
  8  7  2  0  0  0  0
  9  3  1  0  0  0  0
 10  1  1  0  0  0  0
 11 19  1  0  0  0  0
 12  8  1  0  0  0  0
 13 10  1  0  0  0  0
 14 11  1  0  0  0  0
 15  7  1  0  0  0  0
 16 13  2  0  0  0  0
 17  6  2  0  0  0  0
 18  5  1  0  0  0  0
 19 15  1  0  0  0  0
 20 10  2  0  0  0  0
 21 23  2  0  0  0  0
 22 14  2  0  0  0  0
 23 20  1  0  0  0  0
 24 16  1  0  0  0  0
 25 18  1  0  0  0  0
 26 14  1  0  0  0  0
 27 21  1  0  0  0  0
 28 25  1  0  0  0  0
 29 28  1  0  0  0  0
 30 29  1  0  0  0  0
 31 29  1  0  0  0  0
  3  4  1  0  0  0  0
 21 16  1  0  0  0  0
  9  8  1  0  0  0  0
 12 11  1  0  0  0  0
M  END
> <IDNUMBER>
F3168-0277

> <Chemical_Name>
11-acetyl-4-(3-chloro-4-methylphenyl)-5-[(3-methylbutyl)sulfanyl]-8-thia-4,6,11-triazatricyclo[7.4.0.0^{2,7}]trideca-1(9),2(7),5-trien-3-one

> <CAS>
892281-93-5

> <PriceCoeff>
1.00

> <MW>
476.05

> <Description>
solid

> <FSP3>
0.43

> <clogP>
5.27

> <TPSA>
106.52

> <Acceptor>
3

> <Donor>
0

> <RotBonds>
6

> <HAC>
31

> <Collection>
General

> <Reference_compound>
CHEMBL577016

> <Similarity>
0.8970

$$$$
F0440-0325
  -ISIS-  06222321142D

 22 24  0  0  0  0  0  0  0  0999 V2000
    2.7000   -0.3042    0.0000 C   0  0  0  0  0  0  0  0  0  0  0  0
    5.1875   -1.7542    0.0000 N   0  0  3  0  0  0  0  0  0  0  0  0
    2.2167   -0.9792    0.0000 N   0  0  3  0  0  0  0  0  0  0  0  0
    3.5167   -0.3292    0.0000 N   0  0  0  0  0  0  0  0  0  0  0  0
    2.2167    0.3625    0.0000 S   0  0  0  0  0  0  0  0  0  0  0  0
    1.4167    0.1000    0.0000 C   0  0  0  0  0  0  0  0  0  0  0  0
    1.4167   -0.7292    0.0000 C   0  0  0  0  0  0  0  0  0  0  0  0
    5.9875   -1.9292    0.0000 C   0  0  0  0  0  0  0  0  0  0  0  0
    4.7667   -2.4667    0.0000 C   0  0  0  0  0  0  0  0  0  0  0  0
    3.9375   -1.0500    0.0000 C   0  0  0  0  0  0  0  0  0  0  0  0
    4.7667   -1.0500    0.0000 C   0  0  0  0  0  0  0  0  0  0  0  0
    0.7000    0.5000    0.0000 C   0  0  0  0  0  0  0  0  0  0  0  0
    0.7000   -1.1292    0.0000 C   0  0  0  0  0  0  0  0  0  0  0  0
    6.0667   -2.7500    0.0000 C   0  0  0  0  0  0  0  0  0  0  0  0
    5.3292   -3.0875    0.0000 C   0  0  0  0  0  0  0  0  0  0  0  0
    6.6167   -1.4000    0.0000 O   0  0  0  0  0  0  0  0  0  0  0  0
    3.9375   -2.5542    0.0000 O   0  0  0  0  0  0  0  0  0  0  0  0
    3.5167   -1.7542    0.0000 O   0  0  0  0  0  0  0  0  0  0  0  0
   -0.0125    0.1000    0.0000 C   0  0  0  0  0  0  0  0  0  0  0  0
   -0.0125   -0.7292    0.0000 C   0  0  0  0  0  0  0  0  0  0  0  0
    2.4875   -1.7542    0.0000 C   0  0  0  0  0  0  0  0  0  0  0  0
   -0.7208    0.5208    0.0000 Br  0  0  0  0  0  0  0  0  0  0  0  0
  2 11  1  0  0  0  0
  3  1  1  0  0  0  0
  4  1  2  0  0  0  0
  5  1  1  0  0  0  0
  6  5  1  0  0  0  0
  7  3  1  0  0  0  0
  8  2  1  0  0  0  0
  9  2  1  0  0  0  0
 10  4  1  0  0  0  0
 11 10  1  0  0  0  0
 12  6  1  0  0  0  0
 13  7  1  0  0  0  0
 14  8  1  0  0  0  0
 15  9  1  0  0  0  0
 16  8  2  0  0  0  0
 17  9  2  0  0  0  0
 18 10  2  0  0  0  0
 19 12  2  0  0  0  0
 20 13  2  0  0  0  0
 21  3  1  0  0  0  0
 22 19  1  0  0  0  0
  6  7  2  0  0  0  0
 19 20  1  0  0  0  0
 15 14  1  0  0  0  0
M  END
> <IDNUMBER>
F0440-0325

> <Chemical_Name>
N-[(2E)-6-bromo-3-methyl-2,3-dihydro-1,3-benzothiazol-2-ylidene]-2-(2,5-dioxopyrrolidin-1-yl)acetamide

> <CAS>
476308-60-8

> <PriceCoeff>
1.00

> <MW>
382.23

> <Description>
solid

> <FSP3>
0.29

> <clogP>
3.64

> <TPSA>
95.35

> <Acceptor>
3

> <Donor>
0

> <RotBonds>
3

> <HAC>
22

> <Collection>
General

$$$$
F2779-0189
  -ISIS-  06222321152D

 30 33  0  0  0  0  0  0  0  0999 V2000
   -1.8833    0.2000    0.0000 C   0  0  0  0  0  0  0  0  0  0  0  0
   -2.1500    0.9750    0.0000 C   0  0  0  0  0  0  0  0  0  0  0  0
    2.2542   -1.9000    0.0000 N   0  0  3  0  0  0  0  0  0  0  0  0
   -2.5583   -0.2917    0.0000 S   0  0  0  0  0  0  0  0  0  0  0  0
   -1.0583    0.0250    0.0000 N   0  0  0  0  0  0  0  0  0  0  0  0
   -2.9708    0.9750    0.0000 C   0  0  0  0  0  0  0  0  0  0  0  0
   -0.8958   -0.8417    0.0000 C   0  0  0  0  0  0  0  0  0  0  0  0
    2.9167   -1.3875    0.0000 C   0  0  0  0  0  0  0  0  0  0  0  0
    2.5417   -2.6667    0.0000 C   0  0  0  0  0  0  0  0  0  0  0  0
   -3.2250    0.1958    0.0000 C   0  0  0  0  0  0  0  0  0  0  0  0
   -1.6625    1.6500    0.0000 C   0  0  0  0  0  0  0  0  0  0  0  0
    1.4667   -1.6292    0.0000 C   0  0  0  0  0  0  0  0  0  0  0  0
   -0.1083   -1.1000    0.0000 C   0  0  0  0  0  0  0  0  0  0  0  0
   -1.4958   -1.4042    0.0000 O   0  0  0  0  0  0  0  0  0  0  0  0
    3.6042   -1.8542    0.0000 C   0  0  0  0  0  0  0  0  0  0  0  0
    3.3667   -2.6417    0.0000 C   0  0  0  0  0  0  0  0  0  0  0  0
    2.8917   -0.5375    0.0000 O   0  0  0  0  0  0  0  0  0  0  0  0
    2.0667   -3.3625    0.0000 O   0  0  0  0  0  0  0  0  0  0  0  0
   -0.8375    1.5708    0.0000 O   0  0  0  0  0  0  0  0  0  0  0  0
    1.3042   -0.8042    0.0000 C   0  0  0  0  0  0  0  0  0  0  0  0
    0.8417   -2.1667    0.0000 C   0  0  0  0  0  0  0  0  0  0  0  0
    0.0667   -1.9042    0.0000 C   0  0  0  0  0  0  0  0  0  0  0  0
    0.5250   -0.5417    0.0000 C   0  0  0  0  0  0  0  0  0  0  0  0
   -2.0083    2.4083    0.0000 O   0  0  0  0  0  0  0  0  0  0  0  0
   -3.5250    1.5833    0.0000 C   0  0  0  0  0  0  0  0  0  0  0  0
   -4.0333    0.0208    0.0000 C   0  0  0  0  0  0  0  0  0  0  0  0
   -1.5208    3.0833    0.0000 C   0  0  0  0  0  0  0  0  0  0  0  0
   -4.3333    1.4083    0.0000 C   0  0  0  0  0  0  0  0  0  0  0  0
   -4.5833    0.6333    0.0000 C   0  0  0  0  0  0  0  0  0  0  0  0
   -1.8625    3.8333    0.0000 C   0  0  0  0  0  0  0  0  0  0  0  0
  2  1  2  0  0  0  0
  3 12  1  0  0  0  0
  4  1  1  0  0  0  0
  5  1  1  0  0  0  0
  6  2  1  0  0  0  0
  7  5  1  0  0  0  0
  8  3  1  0  0  0  0
  9  3  1  0  0  0  0
 10  4  1  0  0  0  0
 11  2  1  0  0  0  0
 12 20  1  0  0  0  0
 13  7  1  0  0  0  0
 14  7  2  0  0  0  0
 15  8  1  0  0  0  0
 16  9  1  0  0  0  0
 17  8  2  0  0  0  0
 18  9  2  0  0  0  0
 19 11  2  0  0  0  0
 20 23  2  0  0  0  0
 21 22  1  0  0  0  0
 22 13  2  0  0  0  0
 23 13  1  0  0  0  0
 24 11  1  0  0  0  0
 25  6  1  0  0  0  0
 26 10  1  0  0  0  0
 27 24  1  0  0  0  0
 28 25  2  0  0  0  0
 29 26  2  0  0  0  0
 30 27  1  0  0  0  0
 10  6  2  0  0  0  0
 28 29  1  0  0  0  0
 21 12  2  0  0  0  0
 15 16  1  0  0  0  0
M  END
> <IDNUMBER>
F2779-0189

> <Chemical_Name>
ethyl 2-[4-(2,5-dioxopyrrolidin-1-yl)benzamido]-1-benzothiophene-3-carboxylate

> <CAS>
923061-65-8

> <PriceCoeff>
1.00

> <MW>
422.45

> <Description>
solid

> <FSP3>
0.18

> <clogP>
2.88

> <TPSA>
121.02

> <Acceptor>
5

> <Donor>
1

> <RotBonds>
6

> <HAC>
30

> <Collection>
General

$$$$
F2073-0321
  -ISIS-  06222321442D

 26 28  0  0  0  0  0  0  0  0999 V2000
    2.3292    0.4958    0.0000 C   0  0  0  0  0  0  0  0  0  0  0  0
    3.2167    1.6250    0.0000 N   0  0  3  0  0  0  0  0  0  0  0  0
    3.8750    1.1083    0.0000 C   0  0  0  0  0  0  0  0  0  0  0  0
    2.4542    1.3208    0.0000 C   0  0  0  0  0  0  0  0  0  0  0  0
    3.7625    0.2875    0.0000 N   0  0  0  0  0  0  0  0  0  0  0  0
    0.1292   -3.1792    0.0000 N   0  3  0  0  0  0  0  0  0  0  0  0
    0.8292   -2.7167    0.0000 C   0  0  0  0  0  0  0  0  0  0  0  0
    2.9917   -0.0167    0.0000 C   0  0  0  0  0  0  0  0  0  0  0  0
    1.5667    0.1958    0.0000 N   0  0  0  0  0  0  0  0  0  0  0  0
    3.3292    2.4333    0.0000 C   0  0  0  0  0  0  0  0  0  0  0  0
    1.4417   -0.6167    0.0000 C   0  0  0  0  0  0  0  0  0  0  0  0
    4.6292    1.4208    0.0000 C   0  0  0  0  0  0  0  0  0  0  0  0
    0.7875   -1.8917    0.0000 C   0  0  0  0  0  0  0  0  0  0  0  0
    1.4875   -1.4417    0.0000 C   0  0  0  0  0  0  0  0  0  0  0  0
    4.1042    2.7458    0.0000 C   0  0  0  0  0  0  0  0  0  0  0  0
    4.7542    2.2375    0.0000 C   0  0  0  0  0  0  0  0  0  0  0  0
    1.5667   -3.1000    0.0000 C   0  0  0  0  0  0  0  0  0  0  0  0
   -0.6000   -2.7917    0.0000 O   0  5  0  0  0  0  0  0  0  0  0  0
    1.8042    1.8333    0.0000 O   0  0  0  0  0  0  0  0  0  0  0  0
    0.1792   -4.0042    0.0000 O   0  0  0  0  0  0  0  0  0  0  0  0
    0.6500   -0.5917    0.0000 O   0  0  0  0  0  0  0  0  0  0  0  0
    2.2167   -1.8167    0.0000 C   0  0  0  0  0  0  0  0  0  0  0  0
    2.2667   -2.6375    0.0000 C   0  0  0  0  0  0  0  0  0  0  0  0
    1.6167   -3.9292    0.0000 Cl  0  0  0  0  0  0  0  0  0  0  0  0
    2.8667   -0.8292    0.0000 C   0  0  0  0  0  0  0  0  0  0  0  0
    5.5167    2.5458    0.0000 C   0  0  0  0  0  0  0  0  0  0  0  0
  2  4  1  0  0  0  0
  3  5  2  0  0  0  0
  4  1  1  0  0  0  0
  5  8  1  0  0  0  0
  6  7  1  0  0  0  0
  7 13  1  0  0  0  0
  8  1  2  0  0  0  0
  9  1  1  0  0  0  0
 10  2  1  0  0  0  0
 11  9  1  0  0  0  0
 12  3  1  0  0  0  0
 13 14  2  0  0  0  0
 14 11  1  0  0  0  0
 15 10  2  0  0  0  0
 16 12  2  0  0  0  0
 17 23  1  0  0  0  0
 18  6  1  0  0  0  0
 19  4  2  0  0  0  0
 20  6  2  0  0  0  0
 21 11  2  0  0  0  0
 22 14  1  0  0  0  0
 23 22  2  0  0  0  0
 24 17  1  0  0  0  0
 25  8  1  0  0  0  0
 26 16  1  0  0  0  0
  2  3  1  0  0  0  0
 15 16  1  0  0  0  0
 17  7  2  0  0  0  0
M  CHG  2   6   1  18  -1
M  END
> <IDNUMBER>
F2073-0321

> <Chemical_Name>
4-chloro-N-{2,8-dimethyl-4-oxo-4H-pyrido[1,2-a]pyrimidin-3-yl}-3-nitrobenzamide

> <CAS>
920489-08-3

> <PriceCoeff>
1.00

> <MW>
372.76

> <Description>
solid

> <FSP3>
0.12

> <clogP>
2.44

> <TPSA>
104.91

> <Acceptor>
5

> <Donor>
1

> <RotBonds>
3

> <HAC>
26

> <Collection>
General

$$$$
F1816-1181
  -ISIS-  06222321452D

 25 27  0  0  0  0  0  0  0  0999 V2000
   -4.5833    2.5500    0.0000 C   0  0  0  0  0  0  0  0  0  0  0  0
   -4.6750    1.7333    0.0000 N   0  0  3  0  0  0  0  0  0  0  0  0
   -5.3208    2.8958    0.0000 S   0  0  0  0  0  0  0  0  0  0  0  0
   -3.1583    5.0417    0.0000 N   0  0  3  0  0  0  0  0  0  0  0  0
   -3.8708    2.9708    0.0000 N   0  0  0  0  0  0  0  0  0  0  0  0
   -5.4833    1.5708    0.0000 C   0  0  0  0  0  0  0  0  0  0  0  0
   -5.8833    2.2958    0.0000 C   0  0  0  0  0  0  0  0  0  0  0  0
   -2.4833    5.5167    0.0000 C   0  0  0  0  0  0  0  0  0  0  0  0
   -3.8208    5.5167    0.0000 C   0  0  0  0  0  0  0  0  0  0  0  0
   -3.8708    3.8000    0.0000 C   0  0  0  0  0  0  0  0  0  0  0  0
   -6.7042    2.3083    0.0000 C   0  0  0  0  0  0  0  0  0  0  0  0
   -3.1583    4.2125    0.0000 C   0  0  0  0  0  0  0  0  0  0  0  0
   -4.2458    0.3500    0.0000 C   0  0  0  0  0  0  0  0  0  0  0  0
   -4.4208   -0.4542    0.0000 C   0  0  0  0  0  0  0  0  0  0  0  0
   -5.9083    0.8708    0.0000 C   0  0  0  0  0  0  0  0  0  0  0  0
   -7.1292    1.6000    0.0000 C   0  0  0  0  0  0  0  0  0  0  0  0
   -3.5708    6.3042    0.0000 C   0  0  0  0  0  0  0  0  0  0  0  0
   -2.7458    6.3125    0.0000 C   0  0  0  0  0  0  0  0  0  0  0  0
   -4.6083    5.2750    0.0000 O   0  0  0  0  0  0  0  0  0  0  0  0
   -1.6958    5.2625    0.0000 O   0  0  0  0  0  0  0  0  0  0  0  0
   -4.5958    4.2125    0.0000 O   0  0  0  0  0  0  0  0  0  0  0  0
   -6.7167    0.8833    0.0000 C   0  0  0  0  0  0  0  0  0  0  0  0
   -4.0583    1.1625    0.0000 C   0  0  0  0  0  0  0  0  0  0  0  0
   -7.1042    3.0333    0.0000 C   0  0  0  0  0  0  0  0  0  0  0  0
   -7.1167    0.1583    0.0000 C   0  0  0  0  0  0  0  0  0  0  0  0
  2  1  1  0  0  0  0
  3  1  1  0  0  0  0
  4 12  1  0  0  0  0
  5  1  2  0  0  0  0
  6  2  1  0  0  0  0
  7  3  1  0  0  0  0
  8  4  1  0  0  0  0
  9  4  1  0  0  0  0
 10  5  1  0  0  0  0
 11  7  1  0  0  0  0
 12 10  1  0  0  0  0
 13 23  1  0  0  0  0
 14 13  3  0  0  0  0
 15  6  1  0  0  0  0
 16 11  2  0  0  0  0
 17  9  1  0  0  0  0
 18  8  1  0  0  0  0
 19  9  2  0  0  0  0
 20  8  2  0  0  0  0
 21 10  2  0  0  0  0
 22 15  2  0  0  0  0
 23  2  1  0  0  0  0
 24 11  1  0  0  0  0
 25 22  1  0  0  0  0
  6  7  2  0  0  0  0
 16 22  1  0  0  0  0
 18 17  1  0  0  0  0
M  END
> <IDNUMBER>
F1816-1181

> <Chemical_Name>
N-[(2Z)-5,7-dimethyl-3-(prop-2-yn-1-yl)-2,3-dihydro-1,3-benzothiazol-2-ylidene]-2-(2,5-dioxopyrrolidin-1-yl)acetamide

> <CAS>
868674-72-0

> <PriceCoeff>
1.00

> <MW>
355.41

> <Description>
solid

> <FSP3>
0.33

> <clogP>
3.88

> <TPSA>
95.35

> <Acceptor>
3

> <Donor>
0

> <RotBonds>
5

> <HAC>
25

> <Collection>
General

$$$$
F1298-0284
  -ISIS-  06222321142D

 30 32  0  0  0  0  0  0  0  0999 V2000
    3.5917   -0.2542    0.0000 C   0  0  0  0  0  0  0  0  0  0  0  0
    3.1042    0.4083    0.0000 C   0  0  0  0  0  0  0  0  0  0  0  0
    4.8417   -2.4167    0.0000 N   0  0  3  0  0  0  0  0  0  0  0  0
    2.3292   -0.6750    0.0000 C   0  0  0  0  0  0  0  0  0  0  0  0
    2.3167    0.1458    0.0000 C   0  0  0  0  0  0  0  0  0  0  0  0
    3.1125   -0.9292    0.0000 S   0  0  0  0  0  0  0  0  0  0  0  0
    0.8917   -0.6875    0.0000 N   0  0  3  0  0  0  0  0  0  0  0  0
    4.4250   -0.2542    0.0000 N   0  0  0  0  0  0  0  0  0  0  0  0
    0.1750   -1.0917    0.0000 C   0  0  0  0  0  0  0  0  0  0  0  0
    4.5042   -3.1625    0.0000 C   0  0  0  0  0  0  0  0  0  0  0  0
    5.6625   -2.4792    0.0000 C   0  0  0  0  0  0  0  0  0  0  0  0
    3.3625    1.1875    0.0000 C   0  0  0  0  0  0  0  0  0  0  0  0
    1.6042   -1.0917    0.0000 C   0  0  0  0  0  0  0  0  0  0  0  0
    4.8292   -0.9750    0.0000 C   0  0  0  0  0  0  0  0  0  0  0  0
    4.4167   -1.7042    0.0000 C   0  0  0  0  0  0  0  0  0  0  0  0
    1.6042    0.5625    0.0000 C   0  0  0  0  0  0  0  0  0  0  0  0
    0.8917    0.1458    0.0000 C   0  0  0  0  0  0  0  0  0  0  0  0
    0.1750   -1.9250    0.0000 O   0  0  0  0  0  0  0  0  0  0  0  0
    5.8375   -3.2917    0.0000 C   0  0  0  0  0  0  0  0  0  0  0  0
    5.1292   -3.7125    0.0000 C   0  0  0  0  0  0  0  0  0  0  0  0
    6.2000   -1.8792    0.0000 O   0  0  0  0  0  0  0  0  0  0  0  0
    3.7042   -3.3375    0.0000 O   0  0  0  0  0  0  0  0  0  0  0  0
    2.8000    1.7958    0.0000 O   0  0  0  0  0  0  0  0  0  0  0  0
    5.6542   -0.9750    0.0000 O   0  0  0  0  0  0  0  0  0  0  0  0
   -0.5375   -0.6875    0.0000 O   0  0  0  0  0  0  0  0  0  0  0  0
    4.1792    1.3625    0.0000 O   0  0  0  0  0  0  0  0  0  0  0  0
   -0.5458    0.1458    0.0000 C   0  0  0  0  0  0  0  0  0  0  0  0
    4.7292    0.7500    0.0000 C   0  0  0  0  0  0  0  0  0  0  0  0
   -1.2583    0.5583    0.0000 C   0  0  0  0  0  0  0  0  0  0  0  0
    5.5417    0.9208    0.0000 C   0  0  0  0  0  0  0  0  0  0  0  0
  2  1  2  0  0  0  0
  3 15  1  0  0  0  0
  4  6  1  0  0  0  0
  5  2  1  0  0  0  0
  6  1  1  0  0  0  0
  7 13  1  0  0  0  0
  8  1  1  0  0  0  0
  9  7  1  0  0  0  0
 10  3  1  0  0  0  0
 11  3  1  0  0  0  0
 12  2  1  0  0  0  0
 13  4  1  0  0  0  0
 14  8  1  0  0  0  0
 15 14  1  0  0  0  0
 16  5  1  0  0  0  0
 17 16  1  0  0  0  0
 18  9  2  0  0  0  0
 19 11  1  0  0  0  0
 20 10  1  0  0  0  0
 21 11  2  0  0  0  0
 22 10  2  0  0  0  0
 23 12  2  0  0  0  0
 24 14  2  0  0  0  0
 25  9  1  0  0  0  0
 26 12  1  0  0  0  0
 27 25  1  0  0  0  0
 28 26  1  0  0  0  0
 29 27  1  0  0  0  0
 30 28  1  0  0  0  0
  4  5  2  0  0  0  0
  7 17  1  0  0  0  0
 20 19  1  0  0  0  0
M  END
> <IDNUMBER>
F1298-0284

> <Chemical_Name>
3,6-diethyl 2-[2-(2,5-dioxopyrrolidin-1-yl)acetamido]-4H,5H,6H,7H-thieno[2,3-c]pyridine-3,6-dicarboxylate

> <CAS>
864926-76-1

> <PriceCoeff>
1.00

> <MW>
437.47

> <Description>
solid

> <FSP3>
0.53

> <clogP>
2.19

> <TPSA>
150.56

> <Acceptor>
7

> <Donor>
1

> <RotBonds>
9

> <HAC>
30

> <Collection>
General

$$$$
F2073-0422
  -ISIS-  06222321442D

 26 28  0  0  0  0  0  0  0  0999 V2000
    2.3792    0.5000    0.0000 C   0  0  0  0  0  0  0  0  0  0  0  0
    3.2167    1.6708    0.0000 N   0  0  3  0  0  0  0  0  0  0  0  0
    3.8917    1.1750    0.0000 C   0  0  0  0  0  0  0  0  0  0  0  0
    2.4667    1.3250    0.0000 C   0  0  0  0  0  0  0  0  0  0  0  0
    3.8167    0.3500    0.0000 N   0  0  0  0  0  0  0  0  0  0  0  0
    3.0625    0.0125    0.0000 C   0  0  0  0  0  0  0  0  0  0  0  0
    0.3500   -3.2542    0.0000 N   0  3  0  0  0  0  0  0  0  0  0  0
    1.0167   -2.7750    0.0000 C   0  0  0  0  0  0  0  0  0  0  0  0
    1.6292    0.1625    0.0000 N   0  0  0  0  0  0  0  0  0  0  0  0
    1.5417   -0.6542    0.0000 C   0  0  0  0  0  0  0  0  0  0  0  0
    0.9417   -1.9500    0.0000 C   0  0  0  0  0  0  0  0  0  0  0  0
    4.6417    1.5125    0.0000 C   0  0  0  0  0  0  0  0  0  0  0  0
    1.6167   -1.4750    0.0000 C   0  0  0  0  0  0  0  0  0  0  0  0
    3.3000    2.4750    0.0000 C   0  0  0  0  0  0  0  0  0  0  0  0
    1.7750   -3.1167    0.0000 C   0  0  0  0  0  0  0  0  0  0  0  0
   -0.4000   -2.9125    0.0000 O   0  5  0  0  0  0  0  0  0  0  0  0
    1.8000    1.8083    0.0000 O   0  0  0  0  0  0  0  0  0  0  0  0
    0.4292   -4.0792    0.0000 O   0  0  0  0  0  0  0  0  0  0  0  0
    4.0542    2.8208    0.0000 C   0  0  0  0  0  0  0  0  0  0  0  0
    4.7250    2.3458    0.0000 C   0  0  0  0  0  0  0  0  0  0  0  0
    0.8375   -0.6250    0.0000 O   0  0  0  0  0  0  0  0  0  0  0  0
    2.3667   -1.8167    0.0000 C   0  0  0  0  0  0  0  0  0  0  0  0
    2.4417   -2.6292    0.0000 C   0  0  0  0  0  0  0  0  0  0  0  0
    1.8542   -3.9417    0.0000 Cl  0  0  0  0  0  0  0  0  0  0  0  0
    2.9750   -0.8000    0.0000 C   0  0  0  0  0  0  0  0  0  0  0  0
    5.3167    1.0458    0.0000 C   0  0  0  0  0  0  0  0  0  0  0  0
  2  4  1  0  0  0  0
  3  5  2  0  0  0  0
  4  1  1  0  0  0  0
  5  6  1  0  0  0  0
  6  1  2  0  0  0  0
  7  8  1  0  0  0  0
  8 11  1  0  0  0  0
  9  1  1  0  0  0  0
 10  9  1  0  0  0  0
 11 13  2  0  0  0  0
 12  3  1  0  0  0  0
 13 10  1  0  0  0  0
 14  2  1  0  0  0  0
 15 23  1  0  0  0  0
 16  7  1  0  0  0  0
 17  4  2  0  0  0  0
 18  7  2  0  0  0  0
 19 14  2  0  0  0  0
 20 12  2  0  0  0  0
 21 10  2  0  0  0  0
 22 13  1  0  0  0  0
 23 22  2  0  0  0  0
 24 15  1  0  0  0  0
 25  6  1  0  0  0  0
 26 12  1  0  0  0  0
  2  3  1  0  0  0  0
 19 20  1  0  0  0  0
 15  8  2  0  0  0  0
M  CHG  2   7   1  16  -1
M  END
> <IDNUMBER>
F2073-0422

> <Chemical_Name>
4-chloro-N-{2,9-dimethyl-4-oxo-4H-pyrido[1,2-a]pyrimidin-3-yl}-3-nitrobenzamide

> <CAS>
897617-39-9

> <PriceCoeff>
1.00

> <MW>
372.76

> <Description>
solid

> <FSP3>
0.12

> <clogP>
2.44

> <TPSA>
104.91

> <Acceptor>
5

> <Donor>
1

> <RotBonds>
3

> <HAC>
26

> <Collection>
General

$$$$
F1086-0007
  -ISIS-  06222321142D

 22 24  0  0  0  0  0  0  0  0999 V2000
    1.8417   -1.2167    0.0000 C   0  0  0  0  0  0  0  0  0  0  0  0
    2.3167   -1.8917    0.0000 C   0  0  0  0  0  0  0  0  0  0  0  0
    3.0000   -0.3792    0.0000 N   0  0  3  0  0  0  0  0  0  0  0  0
    3.1417   -1.8125    0.0000 N   0  0  0  0  0  0  0  0  0  0  0  0
    3.4875   -1.0542    0.0000 C   0  0  0  0  0  0  0  0  0  0  0  0
    2.1750   -0.4667    0.0000 C   0  0  0  0  0  0  0  0  0  0  0  0
    1.8375   -2.5542    0.0000 S   0  0  0  0  0  0  0  0  0  0  0  0
    1.0542   -1.4750    0.0000 C   0  0  0  0  0  0  0  0  0  0  0  0
    1.0542   -2.3000    0.0000 C   0  0  0  0  0  0  0  0  0  0  0  0
    5.6167   -1.5625    0.0000 C   0  0  0  0  0  0  0  0  0  0  0  0
    3.3417    0.3708    0.0000 C   0  0  0  0  0  0  0  0  0  0  0  0
    6.1042   -2.2375    0.0000 C   0  0  0  0  0  0  0  0  0  0  0  0
    1.6917    0.2083    0.0000 O   0  0  0  0  0  0  0  0  0  0  0  0
    4.3125   -0.9750    0.0000 S   0  0  0  0  0  0  0  0  0  0  0  0
    0.3375   -1.0542    0.0000 C   0  0  0  0  0  0  0  0  0  0  0  0
    4.7917   -1.6500    0.0000 C   0  0  0  0  0  0  0  0  0  0  0  0
    0.3375   -2.7167    0.0000 C   0  0  0  0  0  0  0  0  0  0  0  0
    4.1667    0.4500    0.0000 C   0  0  0  0  0  0  0  0  0  0  0  0
    2.8542    1.0458    0.0000 C   0  0  0  0  0  0  0  0  0  0  0  0
    3.2000    1.7958    0.0000 C   0  0  0  0  0  0  0  0  0  0  0  0
    4.5125    1.2083    0.0000 C   0  0  0  0  0  0  0  0  0  0  0  0
    4.0292    1.8833    0.0000 C   0  0  0  0  0  0  0  0  0  0  0  0
  2  1  2  0  0  0  0
  3  6  1  0  0  0  0
  4  2  1  0  0  0  0
  5  3  1  0  0  0  0
  6  1  1  0  0  0  0
  7  2  1  0  0  0  0
  8  1  1  0  0  0  0
  9  8  2  0  0  0  0
 10 16  1  0  0  0  0
 11  3  1  0  0  0  0
 12 10  3  0  0  0  0
 13  6  2  0  0  0  0
 14  5  1  0  0  0  0
 15  8  1  0  0  0  0
 16 14  1  0  0  0  0
 17  9  1  0  0  0  0
 18 11  2  0  0  0  0
 19 11  1  0  0  0  0
 20 19  2  0  0  0  0
 21 18  1  0  0  0  0
 22 20  1  0  0  0  0
  7  9  1  0  0  0  0
  5  4  2  0  0  0  0
 22 21  2  0  0  0  0
M  END
> <IDNUMBER>
F1086-0007

> <Chemical_Name>
5,6-dimethyl-3-phenyl-2-(prop-2-yn-1-ylsulfanyl)-3H,4H-thieno[2,3-d]pyrimidin-4-one

> <CAS>
433700-80-2

> <PriceCoeff>
1.00

> <MW>
326.44

> <Description>
solid

> <FSP3>
0.18

> <clogP>
5.11

> <TPSA>
86.21

> <Acceptor>
2

> <Donor>
0

> <RotBonds>
4

> <HAC>
22

> <Collection>
General

> <Reference_compound>
CHEMBL577016

> <Similarity>
0.8420

$$$$
F5045-0060
  -ISIS-  06222321152D

 32 36  0  0  0  0  0  0  0  0999 V2000
    2.6292   -2.0375    0.0000 N   0  0  3  0  0  0  0  0  0  0  0  0
    1.0292    1.3958    0.0000 C   0  0  0  0  0  0  0  0  0  0  0  0
   -0.0458    2.1833    0.0000 C   0  0  0  0  0  0  0  0  0  0  0  0
    0.2042    1.3958    0.0000 N   0  0  0  0  0  0  0  0  0  0  0  0
   -0.8333    2.4333    0.0000 C   0  0  0  0  0  0  0  0  0  0  0  0
    1.5167    0.7333    0.0000 N   0  0  0  0  0  0  0  0  0  0  0  0
   -1.4958    1.9583    0.0000 O   0  0  0  0  0  0  0  0  0  0  0  0
    2.9667   -1.2792    0.0000 C   0  0  0  0  0  0  0  0  0  0  0  0
    2.3375    0.8125    0.0000 C   0  0  0  0  0  0  0  0  0  0  0  0
   -1.0833    3.2208    0.0000 C   0  0  0  0  0  0  0  0  0  0  0  0
    3.0042   -2.7667    0.0000 C   0  0  0  0  0  0  0  0  0  0  0  0
    1.8042   -2.1625    0.0000 C   0  0  0  0  0  0  0  0  0  0  0  0
   -2.1708    2.4333    0.0000 C   0  0  0  0  0  0  0  0  0  0  0  0
    1.2875    2.1833    0.0000 S   0  0  0  0  0  0  0  0  0  0  0  0
    0.6167    2.6708    0.0000 C   0  0  0  0  0  0  0  0  0  0  0  0
   -1.9083    3.2208    0.0000 C   0  0  0  0  0  0  0  0  0  0  0  0
    2.4875   -0.6042    0.0000 C   0  0  0  0  0  0  0  0  0  0  0  0
    2.8167    0.1458    0.0000 C   0  0  0  0  0  0  0  0  0  0  0  0
   -2.9708    2.2708    0.0000 C   0  0  0  0  0  0  0  0  0  0  0  0
    2.6750    1.5708    0.0000 O   0  0  0  0  0  0  0  0  0  0  0  0
    2.4292   -3.3542    0.0000 C   0  0  0  0  0  0  0  0  0  0  0  0
    1.6917   -3.0000    0.0000 C   0  0  0  0  0  0  0  0  0  0  0  0
    3.8167   -2.9000    0.0000 O   0  0  0  0  0  0  0  0  0  0  0  0
    1.2250   -1.5875    0.0000 O   0  0  0  0  0  0  0  0  0  0  0  0
   -2.4583    3.8333    0.0000 C   0  0  0  0  0  0  0  0  0  0  0  0
   -3.5250    2.8750    0.0000 C   0  0  0  0  0  0  0  0  0  0  0  0
   -3.2708    3.6708    0.0000 C   0  0  0  0  0  0  0  0  0  0  0  0
    3.7875   -1.2042    0.0000 C   0  0  0  0  0  0  0  0  0  0  0  0
   -4.3333    2.6958    0.0000 O   0  0  0  0  0  0  0  0  0  0  0  0
    3.6500    0.2250    0.0000 C   0  0  0  0  0  0  0  0  0  0  0  0
    4.1292   -0.4417    0.0000 C   0  0  0  0  0  0  0  0  0  0  0  0
   -4.5833    1.9125    0.0000 C   0  0  0  0  0  0  0  0  0  0  0  0
  2  6  1  0  0  0  0
  3  4  1  0  0  0  0
  4  2  2  0  0  0  0
  5  3  1  0  0  0  0
  6  9  1  0  0  0  0
  7  5  1  0  0  0  0
  8  1  1  0  0  0  0
  9 18  1  0  0  0  0
 10  5  2  0  0  0  0
 11  1  1  0  0  0  0
 12  1  1  0  0  0  0
 13  7  1  0  0  0  0
 14  2  1  0  0  0  0
 15 14  1  0  0  0  0
 16 10  1  0  0  0  0
 17  8  1  0  0  0  0
 18 17  2  0  0  0  0
 19 13  1  0  0  0  0
 20  9  2  0  0  0  0
 21 11  1  0  0  0  0
 22 12  1  0  0  0  0
 23 11  2  0  0  0  0
 24 12  2  0  0  0  0
 25 16  1  0  0  0  0
 26 19  2  0  0  0  0
 27 25  2  0  0  0  0
 28  8  2  0  0  0  0
 29 26  1  0  0  0  0
 30 31  2  0  0  0  0
 31 28  1  0  0  0  0
 32 29  1  0  0  0  0
 22 21  1  0  0  0  0
 30 18  1  0  0  0  0
  3 15  2  0  0  0  0
 16 13  2  0  0  0  0
 26 27  1  0  0  0  0
M  END
> <IDNUMBER>
F5045-0060

> <Chemical_Name>
3-(2,5-dioxopyrrolidin-1-yl)-N-[4-(6-methoxy-1-benzofuran-2-yl)-1,3-thiazol-2-yl]benzamide

> <CAS>
946275-17-8

> <PriceCoeff>
1.00

> <MW>
447.46

> <Description>
solid

> <FSP3>
0.13

> <clogP>
2.81

> <TPSA>
129.98

> <Acceptor>
6

> <Donor>
1

> <RotBonds>
5

> <HAC>
32

> <Collection>
General

$$$$
F0541-1187
  -ISIS-  06222321452D

 25 27  0  0  0  0  0  0  0  0999 V2000
   -3.2375    2.3333    0.0000 C   0  0  0  0  0  0  0  0  0  0  0  0
   -3.9083    2.8208    0.0000 N   0  0  3  0  0  0  0  0  0  0  0  0
   -4.5833    2.3333    0.0000 N   0  0  0  0  0  0  0  0  0  0  0  0
   -3.4958    1.5458    0.0000 C   0  0  0  0  0  0  0  0  0  0  0  0
   -2.3833    2.3625    0.0000 N   0  0  0  0  0  0  0  0  0  0  0  0
   -4.3333    1.5458    0.0000 C   0  0  0  0  0  0  0  0  0  0  0  0
    0.0375    0.6000    0.0000 N   0  3  0  0  0  0  0  0  0  0  0  0
   -0.0583    1.4333    0.0000 C   0  0  0  0  0  0  0  0  0  0  0  0
   -1.7000    2.9250    0.0000 C   0  0  0  0  0  0  0  0  0  0  0  0
   -0.8333    1.7500    0.0000 C   0  0  0  0  0  0  0  0  0  0  0  0
   -0.9333    2.5958    0.0000 C   0  0  0  0  0  0  0  0  0  0  0  0
   -3.9083    3.6583    0.0000 C   0  0  3  0  0  0  0  0  0  0  0  0
    0.6167    1.9458    0.0000 C   0  0  0  0  0  0  0  0  0  0  0  0
   -0.6250    0.0958    0.0000 O   0  5  0  0  0  0  0  0  0  0  0  0
   -3.9083    0.2708    0.0000 S   0  0  0  0  0  0  0  0  0  0  0  0
    0.8167    0.2833    0.0000 O   0  0  0  0  0  0  0  0  0  0  0  0
   -1.7625    3.8000    0.0000 O   0  0  0  0  0  0  0  0  0  0  0  0
   -3.2375    0.7583    0.0000 C   0  0  0  0  0  0  0  0  0  0  0  0
   -0.2583    3.1083    0.0000 C   0  0  0  0  0  0  0  0  0  0  0  0
    0.5042    2.7833    0.0000 C   0  0  0  0  0  0  0  0  0  0  0  0
   -4.5833    0.7583    0.0000 C   0  0  0  0  0  0  0  0  0  0  0  0
    1.3917    1.6208    0.0000 Cl  0  0  0  0  0  0  0  0  0  0  0  0
   -4.6833    3.9833    0.0000 C   0  0  0  0  0  0  0  0  0  0  0  0
   -3.7958    4.4792    0.0000 C   0  0  0  0  0  0  0  0  0  0  0  0
   -3.2375    4.1667    0.0000 C   0  0  0  0  0  0  0  0  0  0  0  0
  2  1  1  0  0  0  0
  3  2  1  0  0  0  0
  4  1  2  0  0  0  0
  5  1  1  0  0  0  0
  6  4  1  0  0  0  0
  7  8  1  0  0  0  0
  8 10  1  0  0  0  0
  9  5  1  0  0  0  0
 10 11  2  0  0  0  0
 11  9  1  0  0  0  0
 12  2  1  0  0  0  0
 13 20  1  0  0  0  0
 14  7  1  0  0  0  0
 15 18  1  0  0  0  0
 16  7  2  0  0  0  0
 17  9  2  0  0  0  0
 18  4  1  0  0  0  0
 19 11  1  0  0  0  0
 20 19  2  0  0  0  0
 21  6  1  0  0  0  0
 22 13  1  0  0  0  0
 23 12  1  0  0  0  0
 24 12  1  0  0  0  0
 25 12  1  0  0  0  0
  6  3  2  0  0  0  0
 15 21  1  0  0  0  0
 13  8  2  0  0  0  0
M  CHG  2   7   1  14  -1
M  END
> <IDNUMBER>
F0541-1187

> <Chemical_Name>
N-{2-tert-butyl-2H,4H,6H-thieno[3,4-c]pyrazol-3-yl}-4-chloro-3-nitrobenzamide

> <CAS>
450340-12-2

> <PriceCoeff>
1.00

> <MW>
380.85

> <Description>
solid

> <FSP3>
0.38

> <clogP>
2.85

> <TPSA>
115.36

> <Acceptor>
4

> <Donor>
1

> <RotBonds>
3

> <HAC>
25

> <Collection>
General

$$$$
F1359-1560
  -ISIS-  06222321452D

 26 28  0  0  0  0  0  0  0  0999 V2000
   -1.1625    2.3833    0.0000 C   0  0  0  0  0  0  0  0  0  0  0  0
    1.3167    3.8083    0.0000 N   0  0  3  0  0  0  0  0  0  0  0  0
   -1.6458    1.7208    0.0000 N   0  0  3  0  0  0  0  0  0  0  0  0
   -0.3375    2.3750    0.0000 N   0  0  0  0  0  0  0  0  0  0  0  0
   -1.6458    3.0500    0.0000 S   0  0  0  0  0  0  0  0  0  0  0  0
   -2.4333    2.7958    0.0000 C   0  0  0  0  0  0  0  0  0  0  0  0
   -2.4333    1.9708    0.0000 C   0  0  0  0  0  0  0  0  0  0  0  0
    2.1292    3.8833    0.0000 C   0  0  0  0  0  0  0  0  0  0  0  0
    0.9792    4.5417    0.0000 C   0  0  0  0  0  0  0  0  0  0  0  0
    0.0750    3.0875    0.0000 C   0  0  0  0  0  0  0  0  0  0  0  0
    0.9000    3.0875    0.0000 C   0  0  0  0  0  0  0  0  0  0  0  0
   -3.1458    3.2083    0.0000 C   0  0  0  0  0  0  0  0  0  0  0  0
   -3.1458    1.5583    0.0000 C   0  0  0  0  0  0  0  0  0  0  0  0
    1.5917    5.0917    0.0000 C   0  0  0  0  0  0  0  0  0  0  0  0
    2.3125    4.6917    0.0000 C   0  0  0  0  0  0  0  0  0  0  0  0
    0.1792    4.7292    0.0000 O   0  0  0  0  0  0  0  0  0  0  0  0
    2.6875    3.2708    0.0000 O   0  0  0  0  0  0  0  0  0  0  0  0
   -0.3375    3.8000    0.0000 O   0  0  0  0  0  0  0  0  0  0  0  0
   -3.8583    2.7958    0.0000 C   0  0  0  0  0  0  0  0  0  0  0  0
   -1.3958    0.9333    0.0000 C   0  0  0  0  0  0  0  0  0  0  0  0
   -3.8583    1.9708    0.0000 C   0  0  0  0  0  0  0  0  0  0  0  0
   -4.5833    3.2125    0.0000 O   0  0  0  0  0  0  0  0  0  0  0  0
   -2.7500    0.4875    0.0000 O   0  0  0  0  0  0  0  0  0  0  0  0
   -1.9458    0.3208    0.0000 C   0  0  0  0  0  0  0  0  0  0  0  0
   -5.2875    2.8000    0.0000 C   0  0  0  0  0  0  0  0  0  0  0  0
   -3.3083   -0.1250    0.0000 C   0  0  0  0  0  0  0  0  0  0  0  0
  2 11  1  0  0  0  0
  3  1  1  0  0  0  0
  4  1  2  0  0  0  0
  5  1  1  0  0  0  0
  6  5  1  0  0  0  0
  7  3  1  0  0  0  0
  8  2  1  0  0  0  0
  9  2  1  0  0  0  0
 10  4  1  0  0  0  0
 11 10  1  0  0  0  0
 12  6  1  0  0  0  0
 13  7  1  0  0  0  0
 14  9  1  0  0  0  0
 15  8  1  0  0  0  0
 16  9  2  0  0  0  0
 17  8  2  0  0  0  0
 18 10  2  0  0  0  0
 19 12  2  0  0  0  0
 20  3  1  0  0  0  0
 21 13  2  0  0  0  0
 22 19  1  0  0  0  0
 23 24  1  0  0  0  0
 24 20  1  0  0  0  0
 25 22  1  0  0  0  0
 26 23  1  0  0  0  0
  7  6  2  0  0  0  0
 21 19  1  0  0  0  0
 15 14  1  0  0  0  0
M  END
> <IDNUMBER>
F1359-1560

> <Chemical_Name>
2-(2,5-dioxopyrrolidin-1-yl)-N-[(2Z)-6-methoxy-3-(2-methoxyethyl)-2,3-dihydro-1,3-benzothiazol-2-ylidene]acetamide

> <CAS>
865161-66-6

> <PriceCoeff>
1.00

> <MW>
377.41

> <Description>
solid

> <FSP3>
0.41

> <clogP>
2.46

> <TPSA>
113.81

> <Acceptor>
5

> <Donor>
0

> <RotBonds>
7

> <HAC>
26

> <Collection>
General

$$$$
F1086-0008
  -ISIS-  06222321142D

 23 26  0  0  0  0  0  0  0  0999 V2000
    2.3042   -1.8917    0.0000 C   0  0  0  0  0  0  0  0  0  0  0  0
    2.7917   -2.5625    0.0000 C   0  0  0  0  0  0  0  0  0  0  0  0
    3.4667   -1.0542    0.0000 N   0  0  3  0  0  0  0  0  0  0  0  0
    3.6042   -2.4792    0.0000 N   0  0  0  0  0  0  0  0  0  0  0  0
    3.9542   -1.7292    0.0000 C   0  0  0  0  0  0  0  0  0  0  0  0
    2.6417   -1.1375    0.0000 C   0  0  0  0  0  0  0  0  0  0  0  0
    2.3042   -3.2292    0.0000 S   0  0  0  0  0  0  0  0  0  0  0  0
    1.5167   -2.1417    0.0000 C   0  0  0  0  0  0  0  0  0  0  0  0
    1.5167   -2.9667    0.0000 C   0  0  0  0  0  0  0  0  0  0  0  0
    6.0792   -2.2292    0.0000 C   0  0  0  0  0  0  0  0  0  0  0  0
    3.8125   -0.3000    0.0000 C   0  0  0  0  0  0  0  0  0  0  0  0
    6.5667   -2.9042    0.0000 C   0  0  0  0  0  0  0  0  0  0  0  0
    2.1542   -0.4667    0.0000 O   0  0  0  0  0  0  0  0  0  0  0  0
    4.7792   -1.6417    0.0000 S   0  0  0  0  0  0  0  0  0  0  0  0
    0.8042   -1.7292    0.0000 C   0  0  0  0  0  0  0  0  0  0  0  0
    0.0917   -2.9750    0.0000 C   0  0  0  0  0  0  0  0  0  0  0  0
    5.2542   -2.3167    0.0000 C   0  0  0  0  0  0  0  0  0  0  0  0
    0.0917   -2.1375    0.0000 C   0  0  0  0  0  0  0  0  0  0  0  0
    3.3250    0.3708    0.0000 C   0  0  0  0  0  0  0  0  0  0  0  0
    4.6375   -0.2167    0.0000 C   0  0  0  0  0  0  0  0  0  0  0  0
    4.9792    0.5333    0.0000 C   0  0  0  0  0  0  0  0  0  0  0  0
    3.6667    1.1250    0.0000 C   0  0  0  0  0  0  0  0  0  0  0  0
    4.4917    1.2083    0.0000 C   0  0  0  0  0  0  0  0  0  0  0  0
  2  1  2  0  0  0  0
  3  6  1  0  0  0  0
  4  2  1  0  0  0  0
  5  3  1  0  0  0  0
  6  1  1  0  0  0  0
  7  2  1  0  0  0  0
  8  1  1  0  0  0  0
  9  8  2  0  0  0  0
 10 17  1  0  0  0  0
 11  3  1  0  0  0  0
 12 10  3  0  0  0  0
 13  6  2  0  0  0  0
 14  5  1  0  0  0  0
 15  8  1  0  0  0  0
 16  9  1  0  0  0  0
 17 14  1  0  0  0  0
 18 15  1  0  0  0  0
 19 11  1  0  0  0  0
 20 11  2  0  0  0  0
 21 20  1  0  0  0  0
 22 19  2  0  0  0  0
 23 21  2  0  0  0  0
  7  9  1  0  0  0  0
 16 18  1  0  0  0  0
  5  4  2  0  0  0  0
 23 22  1  0  0  0  0
M  END
> <IDNUMBER>
F1086-0008

> <Chemical_Name>
11-phenyl-10-(prop-2-yn-1-ylsulfanyl)-7-thia-9,11-diazatricyclo[6.4.0.0^{2,6}]dodeca-1(8),2(6),9-trien-12-one

> <CAS>
314042-08-5

> <PriceCoeff>
1.00

> <MW>
338.45

> <Description>
solid

> <FSP3>
0.22

> <clogP>
5.18

> <TPSA>
86.21

> <Acceptor>
2

> <Donor>
0

> <RotBonds>
4

> <HAC>
23

> <Collection>
General

> <Reference_compound>
CHEMBL577016

> <Similarity>
0.8340

$$$$
F5581-0655
  -ISIS-  06222321152D

 33 37  0  0  0  0  0  0  0  0999 V2000
   -5.3333    3.1083    0.0000 C   0  0  0  0  0  0  0  0  0  0  0  0
   -4.6833    2.7208    0.0000 N   0  0  3  0  0  0  0  0  0  0  0  0
   -2.7458    0.8458    0.0000 N   0  0  3  0  0  0  0  0  0  0  0  0
   -5.4083    3.8583    0.0000 N   0  0  0  0  0  0  0  0  0  0  0  0
   -6.0167    2.8083    0.0000 S   0  0  0  0  0  0  0  0  0  0  0  0
   -4.0333    3.0958    0.0000 C   0  0  0  0  0  0  0  0  0  0  0  0
   -2.7375    1.5958    0.0000 C   0  0  0  0  0  0  0  0  0  0  0  0
   -6.5167    3.3625    0.0000 C   0  0  0  0  0  0  0  0  0  0  0  0
   -2.1583    0.3750    0.0000 C   0  0  0  0  0  0  0  0  0  0  0  0
   -3.3708    0.4250    0.0000 C   0  0  0  0  0  0  0  0  0  0  0  0
   -6.1417    4.0042    0.0000 C   0  0  0  0  0  0  0  0  0  0  0  0
   -5.3333    0.8375    0.0000 N   0  0  3  0  0  0  0  0  0  0  0  0
   -3.3833    2.7208    0.0000 C   0  0  0  0  0  0  0  0  0  0  0  0
   -4.7833    0.3333    0.0000 N   0  0  0  0  0  0  0  0  0  0  0  0
   -4.6875    1.9625    0.0000 C   0  0  0  0  0  0  0  0  0  0  0  0
   -3.3833    1.9708    0.0000 C   0  0  0  0  0  0  0  0  0  0  0  0
   -7.2667    3.3625    0.0000 C   0  0  0  0  0  0  0  0  0  0  0  0
   -5.3333    1.5875    0.0000 C   0  0  0  0  0  0  0  0  0  0  0  0
   -5.8208   -0.2750    0.0000 C   0  0  0  0  0  0  0  0  0  0  0  0
   -4.0333    3.8458    0.0000 O   0  0  0  0  0  0  0  0  0  0  0  0
   -5.9833    0.4625    0.0000 C   0  0  0  0  0  0  0  0  0  0  0  0
   -2.4250   -0.3250    0.0000 C   0  0  0  0  0  0  0  0  0  0  0  0
   -3.1583   -0.3000    0.0000 C   0  0  0  0  0  0  0  0  0  0  0  0
   -1.4333    0.5750    0.0000 O   0  0  0  0  0  0  0  0  0  0  0  0
   -4.0833    0.6875    0.0000 O   0  0  0  0  0  0  0  0  0  0  0  0
   -5.0833   -0.3500    0.0000 C   0  0  0  0  0  0  0  0  0  0  0  0
   -6.5167    4.6542    0.0000 C   0  0  0  0  0  0  0  0  0  0  0  0
   -7.6417    4.0042    0.0000 C   0  0  0  0  0  0  0  0  0  0  0  0
   -7.2667    4.6542    0.0000 C   0  0  0  0  0  0  0  0  0  0  0  0
   -8.3917    4.0042    0.0000 F   0  0  0  0  0  0  0  0  0  0  0  0
   -2.0833    1.9708    0.0000 C   0  0  0  0  0  0  0  0  0  0  0  0
   -2.7333    3.0958    0.0000 C   0  0  0  0  0  0  0  0  0  0  0  0
   -2.0833    2.7208    0.0000 C   0  0  0  0  0  0  0  0  0  0  0  0
  2  1  1  0  0  0  0
  3  7  1  0  0  0  0
  4  1  2  0  0  0  0
  5  1  1  0  0  0  0
  6  2  1  0  0  0  0
  7 16  1  0  0  0  0
  8  5  1  0  0  0  0
  9  3  1  0  0  0  0
 10  3  1  0  0  0  0
 11  4  1  0  0  0  0
 12 18  1  0  0  0  0
 13  6  1  0  0  0  0
 14 12  1  0  0  0  0
 15  2  1  0  0  0  0
 16 13  2  0  0  0  0
 17  8  1  0  0  0  0
 18 15  1  0  0  0  0
 19 21  2  0  0  0  0
 20  6  2  0  0  0  0
 21 12  1  0  0  0  0
 22  9  1  0  0  0  0
 23 10  1  0  0  0  0
 24  9  2  0  0  0  0
 25 10  2  0  0  0  0
 26 14  2  0  0  0  0
 27 11  1  0  0  0  0
 28 17  2  0  0  0  0
 29 27  2  0  0  0  0
 30 28  1  0  0  0  0
 31 33  1  0  0  0  0
 32 13  1  0  0  0  0
 33 32  2  0  0  0  0
 11  8  2  0  0  0  0
 28 29  1  0  0  0  0
 26 19  1  0  0  0  0
  7 31  2  0  0  0  0
 23 22  1  0  0  0  0
M  END
> <IDNUMBER>
F5581-0655

> <Chemical_Name>
3-(2,5-dioxopyrrolidin-1-yl)-N-(6-fluoro-1,3-benzothiazol-2-yl)-N-[2-(1H-pyrazol-1-yl)ethyl]benzamide

> <CAS>
1172810-83-1

> <PriceCoeff>
1.00

> <MW>
463.48

> <Description>
solid

> <FSP3>
0.17

> <clogP>
1.25

> <TPSA>
116.64

> <Acceptor>
5

> <Donor>
0

> <RotBonds>
7

> <HAC>
33

> <Collection>
General

$$$$
F2527-0077
  -ISIS-  06222321462D

 24 25  0  0  0  0  0  0  0  0999 V2000
   -2.5708    2.5583    0.0000 N   0  0  3  0  0  0  0  0  0  0  0  0
   -3.2208    2.9333    0.0000 C   0  0  0  0  0  0  0  0  0  0  0  0
   -2.5708    1.8083    0.0000 C   0  0  0  0  0  0  0  0  0  0  0  0
    0.0292    6.3167    0.0000 N   0  3  0  0  0  0  0  0  0  0  0  0
   -0.6208    5.9375    0.0000 C   0  0  0  0  0  0  0  0  0  0  0  0
   -3.2208    1.4333    0.0000 N   0  0  0  0  0  0  0  0  0  0  0  0
   -3.8708    1.8083    0.0000 N   0  0  0  0  0  0  0  0  0  0  0  0
   -3.8708    2.5583    0.0000 C   0  0  0  0  0  0  0  0  0  0  0  0
   -1.9208    2.9375    0.0000 C   0  0  0  0  0  0  0  0  0  0  0  0
   -0.6208    5.1875    0.0000 C   0  0  0  0  0  0  0  0  0  0  0  0
   -1.2708    4.0625    0.0000 C   0  0  0  0  0  0  0  0  0  0  0  0
   -1.9208    3.6875    0.0000 O   0  0  0  0  0  0  0  0  0  0  0  0
   -1.2708    4.8125    0.0000 C   0  0  0  0  0  0  0  0  0  0  0  0
   -1.2708    6.3125    0.0000 C   0  0  0  0  0  0  0  0  0  0  0  0
    0.6792    5.9417    0.0000 O   0  5  0  0  0  0  0  0  0  0  0  0
    0.0292    7.0667    0.0000 O   0  0  0  0  0  0  0  0  0  0  0  0
   -3.2208    3.6833    0.0000 O   0  0  0  0  0  0  0  0  0  0  0  0
   -0.6208    3.6875    0.0000 O   0  0  0  0  0  0  0  0  0  0  0  0
   -1.9208    1.4333    0.0000 S   0  0  0  0  0  0  0  0  0  0  0  0
   -1.9208    5.1875    0.0000 C   0  0  0  0  0  0  0  0  0  0  0  0
   -1.9208    5.9375    0.0000 C   0  0  0  0  0  0  0  0  0  0  0  0
   -1.2708    7.0625    0.0000 Cl  0  0  0  0  0  0  0  0  0  0  0  0
   -4.5208    2.9458    0.0000 C   0  0  0  0  0  0  0  0  0  0  0  0
   -1.9208    0.6833    0.0000 C   0  0  0  0  0  0  0  0  0  0  0  0
  2  1  1  0  0  0  0
  3  1  1  0  0  0  0
  4  5  1  0  0  0  0
  5 10  2  0  0  0  0
  6  3  2  0  0  0  0
  7  6  1  0  0  0  0
  8  2  1  0  0  0  0
  9  1  1  0  0  0  0
 10 13  1  0  0  0  0
 11 12  1  0  0  0  0
 12  9  1  0  0  0  0
 13 11  1  0  0  0  0
 14 21  2  0  0  0  0
 15  4  1  0  0  0  0
 16  4  2  0  0  0  0
 17  2  2  0  0  0  0
 18 11  2  0  0  0  0
 19  3  1  0  0  0  0
 20 13  2  0  0  0  0
 21 20  1  0  0  0  0
 22 14  1  0  0  0  0
 23  8  1  0  0  0  0
 24 19  1  0  0  0  0
  7  8  2  0  0  0  0
  5 14  1  0  0  0  0
M  CHG  2   4   1  15  -1
M  END
> <IDNUMBER>
F2527-0077

> <Chemical_Name>
[6-methyl-3-(methylsulfanyl)-5-oxo-4,5-dihydro-1,2,4-triazin-4-yl]methyl 4-chloro-3-nitrobenzoate

> <CAS>
877643-22-6

> <PriceCoeff>
1.00

> <MW>
370.77

> <Description>
solid

> <FSP3>
0.23

> <clogP>
1.53

> <TPSA>
139.77

> <Acceptor>
7

> <Donor>
1

> <RotBonds>
6

> <HAC>
24

> <Collection>
General

$$$$
F2290-0045
  -ISIS-  06222321142D

 32 36  0  0  0  0  0  0  0  0999 V2000
    2.4167   -3.9750    0.0000 N   0  0  3  0  0  0  0  0  0  0  0  0
    0.3417    0.1333    0.0000 C   0  0  0  0  0  0  0  0  0  0  0  0
   -0.7375    0.9208    0.0000 C   0  0  0  0  0  0  0  0  0  0  0  0
   -0.4833    0.1375    0.0000 N   0  0  0  0  0  0  0  0  0  0  0  0
   -1.5250    1.1708    0.0000 C   0  0  0  0  0  0  0  0  0  0  0  0
    0.8250   -0.5292    0.0000 N   0  0  0  0  0  0  0  0  0  0  0  0
   -2.1958    0.6875    0.0000 O   0  0  0  0  0  0  0  0  0  0  0  0
   -1.7833    1.9583    0.0000 C   0  0  0  0  0  0  0  0  0  0  0  0
    0.4875   -1.2875    0.0000 C   0  0  0  0  0  0  0  0  0  0  0  0
    3.2417   -3.9417    0.0000 C   0  0  0  0  0  0  0  0  0  0  0  0
    2.1917   -4.7625    0.0000 C   0  0  0  0  0  0  0  0  0  0  0  0
    0.5917    0.9208    0.0000 S   0  0  0  0  0  0  0  0  0  0  0  0
   -2.6083    1.9583    0.0000 C   0  0  0  0  0  0  0  0  0  0  0  0
   -0.0708    1.4083    0.0000 C   0  0  0  0  0  0  0  0  0  0  0  0
   -2.8625    1.1708    0.0000 C   0  0  0  0  0  0  0  0  0  0  0  0
    1.9292   -3.3000    0.0000 C   0  0  0  0  0  0  0  0  0  0  0  0
    0.9667   -1.9542    0.0000 C   0  0  0  0  0  0  0  0  0  0  0  0
   -3.1583    2.5708    0.0000 C   0  0  0  0  0  0  0  0  0  0  0  0
   -0.3333   -1.3667    0.0000 O   0  0  0  0  0  0  0  0  0  0  0  0
    3.5250   -4.7292    0.0000 C   0  0  0  0  0  0  0  0  0  0  0  0
    2.8750   -5.2250    0.0000 C   0  0  0  0  0  0  0  0  0  0  0  0
    3.7167   -3.2500    0.0000 O   0  0  0  0  0  0  0  0  0  0  0  0
    1.4167   -5.0500    0.0000 O   0  0  0  0  0  0  0  0  0  0  0  0
   -3.6708    1.0000    0.0000 C   0  0  0  0  0  0  0  0  0  0  0  0
    2.2792   -2.5417    0.0000 C   0  0  0  0  0  0  0  0  0  0  0  0
    1.1167   -3.3667    0.0000 C   0  0  0  0  0  0  0  0  0  0  0  0
    0.6417   -2.7042    0.0000 C   0  0  0  0  0  0  0  0  0  0  0  0
    1.8042   -1.8667    0.0000 C   0  0  0  0  0  0  0  0  0  0  0  0
   -3.9625    2.4083    0.0000 C   0  0  0  0  0  0  0  0  0  0  0  0
   -4.2208    1.6125    0.0000 C   0  0  0  0  0  0  0  0  0  0  0  0
   -4.5625    3.0333    0.0000 O   0  0  0  0  0  0  0  0  0  0  0  0
   -4.3333    3.8333    0.0000 C   0  0  0  0  0  0  0  0  0  0  0  0
  2  6  1  0  0  0  0
  3  4  1  0  0  0  0
  4  2  2  0  0  0  0
  5  3  1  0  0  0  0
  6  9  1  0  0  0  0
  7  5  1  0  0  0  0
  8  5  2  0  0  0  0
  9 17  1  0  0  0  0
 10  1  1  0  0  0  0
 11  1  1  0  0  0  0
 12  2  1  0  0  0  0
 13  8  1  0  0  0  0
 14 12  1  0  0  0  0
 15  7  1  0  0  0  0
 16  1  1  0  0  0  0
 17 27  2  0  0  0  0
 18 13  1  0  0  0  0
 19  9  2  0  0  0  0
 20 10  1  0  0  0  0
 21 11  1  0  0  0  0
 22 10  2  0  0  0  0
 23 11  2  0  0  0  0
 24 15  1  0  0  0  0
 25 16  1  0  0  0  0
 26 16  2  0  0  0  0
 27 26  1  0  0  0  0
 28 25  2  0  0  0  0
 29 18  2  0  0  0  0
 30 24  2  0  0  0  0
 31 29  1  0  0  0  0
 32 31  1  0  0  0  0
 20 21  1  0  0  0  0
 28 17  1  0  0  0  0
 14  3  2  0  0  0  0
 15 13  2  0  0  0  0
 29 30  1  0  0  0  0
M  END
> <IDNUMBER>
F2290-0045

> <Chemical_Name>
4-(2,5-dioxopyrrolidin-1-yl)-N-[4-(5-methoxy-1-benzofuran-2-yl)-1,3-thiazol-2-yl]benzamide

> <CAS>
922079-24-1

> <PriceCoeff>
1.00

> <MW>
447.46

> <Description>
solid

> <FSP3>
0.13

> <clogP>
2.81

> <TPSA>
129.98

> <Acceptor>
6

> <Donor>
1

> <RotBonds>
5

> <HAC>
32

> <Collection>
General

$$$$
F2252-0059
  -ISIS-  06222321142D

 32 36  0  0  0  0  0  0  0  0999 V2000
    0.8167   -2.8792    0.0000 N   0  0  3  0  0  0  0  0  0  0  0  0
   -1.3708    2.4250    0.0000 C   0  0  0  0  0  0  0  0  0  0  0  0
   -0.5875    2.1708    0.0000 C   0  0  0  0  0  0  0  0  0  0  0  0
    0.4917    1.3833    0.0000 C   0  0  0  0  0  0  0  0  0  0  0  0
   -0.3333    1.3833    0.0000 N   0  0  0  0  0  0  0  0  0  0  0  0
   -2.0375    2.0083    0.0000 O   0  0  0  0  0  0  0  0  0  0  0  0
    0.9750    0.7208    0.0000 N   0  0  0  0  0  0  0  0  0  0  0  0
    1.1875   -2.1417    0.0000 C   0  0  0  0  0  0  0  0  0  0  0  0
   -2.7083    2.4250    0.0000 C   0  0  0  0  0  0  0  0  0  0  0  0
    0.6375   -0.0292    0.0000 C   0  0  0  0  0  0  0  0  0  0  0  0
   -1.6250    3.2125    0.0000 C   0  0  0  0  0  0  0  0  0  0  0  0
    1.1750   -3.6250    0.0000 C   0  0  0  0  0  0  0  0  0  0  0  0
    0.0042   -2.9792    0.0000 C   0  0  0  0  0  0  0  0  0  0  0  0
    0.7417    2.1708    0.0000 S   0  0  0  0  0  0  0  0  0  0  0  0
   -2.4500    3.2208    0.0000 C   0  0  0  0  0  0  0  0  0  0  0  0
    0.0792    2.6583    0.0000 C   0  0  0  0  0  0  0  0  0  0  0  0
    0.7292   -1.4542    0.0000 C   0  0  0  0  0  0  0  0  0  0  0  0
    1.0917   -0.7167    0.0000 C   0  0  0  0  0  0  0  0  0  0  0  0
   -0.1833   -0.0625    0.0000 O   0  0  0  0  0  0  0  0  0  0  0  0
   -3.5208    2.2583    0.0000 C   0  0  0  0  0  0  0  0  0  0  0  0
    0.5792   -4.1917    0.0000 C   0  0  0  0  0  0  0  0  0  0  0  0
   -0.1458   -3.8042    0.0000 C   0  0  0  0  0  0  0  0  0  0  0  0
    1.9750   -3.7875    0.0000 O   0  0  0  0  0  0  0  0  0  0  0  0
   -0.5583   -2.3792    0.0000 O   0  0  0  0  0  0  0  0  0  0  0  0
    2.0042   -2.0917    0.0000 C   0  0  0  0  0  0  0  0  0  0  0  0
   -3.7708    1.4708    0.0000 O   0  0  0  0  0  0  0  0  0  0  0  0
   -3.0083    3.8333    0.0000 C   0  0  0  0  0  0  0  0  0  0  0  0
    1.9167   -0.6667    0.0000 C   0  0  0  0  0  0  0  0  0  0  0  0
    2.3750   -1.3542    0.0000 C   0  0  0  0  0  0  0  0  0  0  0  0
   -3.8208    3.6708    0.0000 C   0  0  0  0  0  0  0  0  0  0  0  0
   -4.0708    2.8708    0.0000 C   0  0  0  0  0  0  0  0  0  0  0  0
   -4.5833    1.3000    0.0000 C   0  0  0  0  0  0  0  0  0  0  0  0
  2  3  1  0  0  0  0
  3  5  1  0  0  0  0
  4  7  1  0  0  0  0
  5  4  2  0  0  0  0
  6  2  1  0  0  0  0
  7 10  1  0  0  0  0
  8  1  1  0  0  0  0
  9  6  1  0  0  0  0
 10 18  1  0  0  0  0
 11  2  2  0  0  0  0
 12  1  1  0  0  0  0
 13  1  1  0  0  0  0
 14  4  1  0  0  0  0
 15 11  1  0  0  0  0
 16 14  1  0  0  0  0
 17  8  1  0  0  0  0
 18 17  2  0  0  0  0
 19 10  2  0  0  0  0
 20  9  1  0  0  0  0
 21 12  1  0  0  0  0
 22 13  1  0  0  0  0
 23 12  2  0  0  0  0
 24 13  2  0  0  0  0
 25  8  2  0  0  0  0
 26 20  1  0  0  0  0
 27 15  1  0  0  0  0
 28 29  2  0  0  0  0
 29 25  1  0  0  0  0
 30 27  2  0  0  0  0
 31 20  2  0  0  0  0
 32 26  1  0  0  0  0
 21 22  1  0  0  0  0
 18 28  1  0  0  0  0
 16  3  2  0  0  0  0
  9 15  2  0  0  0  0
 30 31  1  0  0  0  0
M  END
> <IDNUMBER>
F2252-0059

> <Chemical_Name>
3-(2,5-dioxopyrrolidin-1-yl)-N-[4-(7-methoxy-1-benzofuran-2-yl)-1,3-thiazol-2-yl]benzamide

> <CAS>
921869-68-3

> <PriceCoeff>
1.00

> <MW>
447.46

> <Description>
solid

> <FSP3>
0.13

> <clogP>
2.81

> <TPSA>
129.98

> <Acceptor>
6

> <Donor>
1

> <RotBonds>
5

> <HAC>
32

> <Collection>
General

$$$$
F2738-1170
  -ISIS-  06222321152D

 35 39  0  0  0  0  0  0  0  0999 V2000
   -3.1583    3.3958    0.0000 C   0  0  0  0  0  0  0  0  0  0  0  0
   -3.8708    3.8000    0.0000 N   0  0  3  0  0  0  0  0  0  0  0  0
   -2.4083    3.7333    0.0000 N   0  0  0  0  0  0  0  0  0  0  0  0
   -4.5958    0.1000    0.0000 N   0  0  3  0  0  0  0  0  0  0  0  0
   -3.0750    2.5833    0.0000 S   0  0  0  0  0  0  0  0  0  0  0  0
   -4.5833    3.3958    0.0000 C   0  0  0  0  0  0  0  0  0  0  0  0
   -2.2625    2.4083    0.0000 C   0  0  0  0  0  0  0  0  0  0  0  0
   -5.2250   -0.4042    0.0000 C   0  0  0  0  0  0  0  0  0  0  0  0
   -3.9083   -0.3542    0.0000 C   0  0  0  0  0  0  0  0  0  0  0  0
   -1.8583    3.1208    0.0000 C   0  0  0  0  0  0  0  0  0  0  0  0
   -4.5958    0.9250    0.0000 C   0  0  0  0  0  0  0  0  0  0  0  0
   -3.8708    4.6167    0.0000 C   0  0  0  0  0  0  0  0  0  0  0  0
   -1.8500    1.6958    0.0000 C   0  0  0  0  0  0  0  0  0  0  0  0
   -4.5833    2.5708    0.0000 C   0  0  0  0  0  0  0  0  0  0  0  0
   -5.2958    3.7958    0.0000 O   0  0  0  0  0  0  0  0  0  0  0  0
   -4.9458   -1.1750    0.0000 C   0  0  0  0  0  0  0  0  0  0  0  0
   -4.1458   -1.1500    0.0000 C   0  0  0  0  0  0  0  0  0  0  0  0
   -6.0167   -0.1792    0.0000 O   0  0  0  0  0  0  0  0  0  0  0  0
   -3.1250   -0.0750    0.0000 O   0  0  0  0  0  0  0  0  0  0  0  0
   -2.4583    4.6042    0.0000 N   0  0  0  0  0  0  0  0  0  0  0  0
   -1.0333    3.1250    0.0000 C   0  0  0  0  0  0  0  0  0  0  0  0
   -3.8625    1.3333    0.0000 C   0  0  0  0  0  0  0  0  0  0  0  0
   -5.2875    1.3375    0.0000 C   0  0  0  0  0  0  0  0  0  0  0  0
   -5.2875    2.1625    0.0000 C   0  0  0  0  0  0  0  0  0  0  0  0
   -3.8625    2.1583    0.0000 C   0  0  0  0  0  0  0  0  0  0  0  0
   -3.1583    5.0250    0.0000 C   0  0  0  0  0  0  0  0  0  0  0  0
   -1.0333    1.6875    0.0000 C   0  0  0  0  0  0  0  0  0  0  0  0
   -0.6333    2.4083    0.0000 C   0  0  0  0  0  0  0  0  0  0  0  0
   -0.6208    0.9833    0.0000 O   0  0  0  0  0  0  0  0  0  0  0  0
   -1.7458    5.0167    0.0000 C   0  0  0  0  0  0  0  0  0  0  0  0
   -3.1625    5.8417    0.0000 C   0  0  0  0  0  0  0  0  0  0  0  0
    0.1917    0.9875    0.0000 C   0  0  0  0  0  0  0  0  0  0  0  0
    0.6042    1.7000    0.0000 C   0  0  0  0  0  0  0  0  0  0  0  0
   -1.7375    5.8417    0.0000 C   0  0  0  0  0  0  0  0  0  0  0  0
   -2.4583    6.2542    0.0000 C   0  0  0  0  0  0  0  0  0  0  0  0
  2  1  1  0  0  0  0
  3  1  2  0  0  0  0
  4 11  1  0  0  0  0
  5  1  1  0  0  0  0
  6  2  1  0  0  0  0
  7  5  1  0  0  0  0
  8  4  1  0  0  0  0
  9  4  1  0  0  0  0
 10  3  1  0  0  0  0
 11 22  1  0  0  0  0
 12  2  1  0  0  0  0
 13  7  1  0  0  0  0
 14  6  1  0  0  0  0
 15  6  2  0  0  0  0
 16  8  1  0  0  0  0
 17  9  1  0  0  0  0
 18  8  2  0  0  0  0
 19  9  2  0  0  0  0
 20 26  2  0  0  0  0
 21 10  1  0  0  0  0
 22 25  2  0  0  0  0
 23 24  1  0  0  0  0
 24 14  2  0  0  0  0
 25 14  1  0  0  0  0
 26 12  1  0  0  0  0
 27 13  2  0  0  0  0
 28 21  2  0  0  0  0
 29 27  1  0  0  0  0
 30 20  1  0  0  0  0
 31 26  1  0  0  0  0
 32 29  1  0  0  0  0
 33 32  1  0  0  0  0
 34 35  1  0  0  0  0
 35 31  2  0  0  0  0
  7 10  2  0  0  0  0
 28 27  1  0  0  0  0
 11 23  2  0  0  0  0
 34 30  2  0  0  0  0
 17 16  1  0  0  0  0
M  END
> <IDNUMBER>
F2738-1170

> <Chemical_Name>
4-(2,5-dioxopyrrolidin-1-yl)-N-(6-ethoxy-1,3-benzothiazol-2-yl)-N-[(pyridin-2-yl)methyl]benzamide

> <CAS>
922617-83-2

> <PriceCoeff>
1.00

> <MW>
486.54

> <Description>
solid

> <FSP3>
0.19

> <clogP>
2.63

> <TPSA>
120.94

> <Acceptor>
6

> <Donor>
1

> <RotBonds>
8

> <HAC>
35

> <Collection>
General

$$$$
F2018-3400
  -ISIS-  06222304352D

 29 30  0  0  0  0  0  0  0  0999 V2000
   -3.1583    2.9833    0.0000 C   0  0  0  0  0  0  0  0  0  0  0  0
   -0.2958    2.9833    0.0000 N   0  0  3  0  0  0  0  0  0  0  0  0
   -2.4375    2.5625    0.0000 N   0  0  3  0  0  0  0  0  0  0  0  0
   -3.9125    2.6458    0.0000 N   0  0  0  0  0  0  0  0  0  0  0  0
   -3.2375    3.8000    0.0000 S   0  0  0  0  0  0  0  0  0  0  0  0
   -1.7250    2.9833    0.0000 C   0  0  0  0  0  0  0  0  0  0  0  0
   -1.0125    2.5625    0.0000 C   0  0  0  0  0  0  0  0  0  0  0  0
   -0.2125    3.8000    0.0000 C   0  0  0  0  0  0  0  0  0  0  0  0
    0.4542    2.6458    0.0000 C   0  0  0  0  0  0  0  0  0  0  0  0
   -4.0500    3.9708    0.0000 C   0  0  0  0  0  0  0  0  0  0  0  0
   -4.4708    3.2583    0.0000 C   0  0  0  0  0  0  0  0  0  0  0  0
   -2.4375    1.7375    0.0000 C   0  0  0  0  0  0  0  0  0  0  0  0
   -4.4583    4.6792    0.0000 C   0  0  0  0  0  0  0  0  0  0  0  0
   -1.7250    3.8000    0.0000 O   0  0  0  0  0  0  0  0  0  0  0  0
    0.5917    3.9708    0.0000 C   0  0  0  0  0  0  0  0  0  0  0  0
    1.0125    3.2583    0.0000 C   0  0  0  0  0  0  0  0  0  0  0  0
   -0.8125    4.3417    0.0000 O   0  0  0  0  0  0  0  0  0  0  0  0
    0.6292    1.8333    0.0000 O   0  0  0  0  0  0  0  0  0  0  0  0
   -5.2833    3.2583    0.0000 C   0  0  0  0  0  0  0  0  0  0  0  0
   -5.2833    4.6792    0.0000 C   0  0  0  0  0  0  0  0  0  0  0  0
   -3.1583    1.3250    0.0000 C   0  0  0  0  0  0  0  0  0  0  0  0
   -3.1583    0.5000    0.0000 N   0  0  3  0  0  0  0  0  0  0  0  0
   -5.6958    3.9708    0.0000 C   0  0  0  0  0  0  0  0  0  0  0  0
   -5.6958    5.4042    0.0000 Cl  0  0  0  0  0  0  0  0  0  0  0  0
   -3.8708    0.0875    0.0000 C   0  0  0  0  0  0  0  0  0  0  0  0
   -2.4375    0.0875    0.0000 C   0  0  0  0  0  0  0  0  0  0  0  0
   -4.5833    0.5000    0.0000 C   0  0  0  0  0  0  0  0  0  0  0  0
   -2.4375   -0.7375    0.0000 C   0  0  0  0  0  0  0  0  0  0  0  0
    2.4000    2.4833    0.0000 Cl  0  0  0  0  0  0  0  0  0  0  0  0
  3  1  1  0  0  0  0
  4  1  2  0  0  0  0
  5  1  1  0  0  0  0
  6  3  1  0  0  0  0
  7  6  1  0  0  0  0
  8  2  1  0  0  0  0
  9  2  1  0  0  0  0
 10  5  1  0  0  0  0
 11  4  1  0  0  0  0
 12  3  1  0  0  0  0
 13 10  1  0  0  0  0
 14  6  2  0  0  0  0
 15  8  1  0  0  0  0
 16  9  1  0  0  0  0
 17  8  2  0  0  0  0
 18  9  2  0  0  0  0
 19 11  1  0  0  0  0
 20 13  2  0  0  0  0
 21 12  1  0  0  0  0
 22 21  1  0  0  0  0
 23 19  2  0  0  0  0
 24 20  1  0  0  0  0
 25 22  1  0  0  0  0
 26 22  1  0  0  0  0
 27 25  1  0  0  0  0
 28 26  1  0  0  0  0
 10 11  2  0  0  0  0
 23 20  1  0  0  0  0
 15 16  1  0  0  0  0
  2  7  1  0  0  0  0
M  END
> <IDNUMBER>
F2018-3400

> <Chemical_Name>
N-(6-chloro-1,3-benzothiazol-2-yl)-N-[2-(diethylamino)ethyl]-2-(2,5-dioxopyrrolidin-1-yl)acetamide hydrochloride

> <CAS>
1216418-40-4

> <PriceCoeff>
1.00

> <MW>
422.93

> <Description>
solid

> <FSP3>
0.47

> <clogP>
3.10

> <TPSA>
102.06

> <Acceptor>
4

> <Donor>
1

> <RotBonds>
9

> <HAC>
28

> <Collection>
General

$$$$
F9995-0269
  -ISIS-  06222321472D

 19 21  0  0  0  0  0  0  0  0999 V2000
    5.9375   -2.0375    0.0000 C   0  0  0  0  0  0  0  0  0  0  0  0
    5.4500   -2.7042    0.0000 N   0  0  0  0  0  0  0  0  0  0  0  0
    5.4500   -1.3667    0.0000 S   0  0  0  0  0  0  0  0  0  0  0  0
    4.6667   -1.6250    0.0000 C   0  0  0  0  0  0  0  0  0  0  0  0
    4.6667   -2.4500    0.0000 C   0  0  0  0  0  0  0  0  0  0  0  0
    3.9500   -1.2125    0.0000 C   0  0  0  0  0  0  0  0  0  0  0  0
    6.7625   -2.0375    0.0000 C   0  0  0  0  0  0  0  0  0  0  0  0
    3.9500   -2.8667    0.0000 C   0  0  0  0  0  0  0  0  0  0  0  0
    7.1667   -2.7542    0.0000 C   0  0  0  0  0  0  0  0  0  0  0  0
    7.1667   -1.3250    0.0000 C   0  0  0  0  0  0  0  0  0  0  0  0
    3.2375   -1.6250    0.0000 C   0  0  0  0  0  0  0  0  0  0  0  0
    8.4042   -2.0375    0.0000 C   0  0  0  0  0  0  0  0  0  0  0  0
    3.2375   -2.4542    0.0000 C   0  0  0  0  0  0  0  0  0  0  0  0
    7.9917   -1.3167    0.0000 C   0  0  0  0  0  0  0  0  0  0  0  0
    7.9917   -2.7542    0.0000 C   0  0  0  0  0  0  0  0  0  0  0  0
    9.2292   -2.0375    0.0000 Cl  0  0  0  0  0  0  0  0  0  0  0  0
    2.5250   -1.2167    0.0000 O   0  0  0  0  0  0  0  0  0  0  0  0
    1.8042   -1.6292    0.0000 C   0  0  0  0  0  0  0  0  0  0  0  0
    1.0917   -1.2167    0.0000 C   0  0  0  0  0  0  0  0  0  0  0  0
  2  1  2  0  0  0  0
  3  1  1  0  0  0  0
  4  3  1  0  0  0  0
  5  2  1  0  0  0  0
  6  4  2  0  0  0  0
  7  1  1  0  0  0  0
  8  5  2  0  0  0  0
  9  7  2  0  0  0  0
 10  7  1  0  0  0  0
 11  6  1  0  0  0  0
 12 14  1  0  0  0  0
 13  8  1  0  0  0  0
 14 10  2  0  0  0  0
 15  9  1  0  0  0  0
 16 12  1  0  0  0  0
 17 11  1  0  0  0  0
 18 17  1  0  0  0  0
 19 18  1  0  0  0  0
  4  5  1  0  0  0  0
 15 12  2  0  0  0  0
 11 13  2  0  0  0  0
M  END
> <IDNUMBER>
F9995-0269

> <Chemical_Name>
2-(4-chlorophenyl)-6-ethoxy-1,3-benzothiazole

> <CAS>
1199589-62-2

> <PriceCoeff>
1.00

> <MW>
289.78

> <Description>
solid

> <FSP3>
0.13

> <clogP>
5.72

> <TPSA>
50.36

> <Acceptor>
2

> <Donor>
0

> <RotBonds>
3

> <HAC>
19

> <Collection>
General

> <Reference_compound>
CHEMBL2269944

> <Similarity>
0.8370

$$$$
F2135-0602
  -ISIS-  06222321142D

 13 14  0  0  0  0  0  0  0  0999 V2000
   -0.3708   -0.2667    0.0000 N   0  0  3  0  0  0  0  0  0  0  0  0
   -1.1208    0.0708    0.0000 C   0  0  0  0  0  0  0  0  0  0  0  0
    0.1792    0.3500    0.0000 C   0  0  0  0  0  0  0  0  0  0  0  0
   -1.0375    0.8875    0.0000 N   0  0  0  0  0  0  0  0  0  0  0  0
   -0.2333    1.0625    0.0000 N   0  0  0  0  0  0  0  0  0  0  0  0
   -1.8333   -0.3417    0.0000 C   0  0  0  0  0  0  0  0  0  0  0  0
   -0.1958   -1.0667    0.0000 N   0  0  0  0  0  0  0  0  0  0  0  0
    1.0042    0.2708    0.0000 S   0  0  0  0  0  0  0  0  0  0  0  0
   -2.5500   -1.5875    0.0000 N   0  0  0  0  0  0  0  0  0  0  0  0
   -1.8333   -1.1750    0.0000 C   0  0  0  0  0  0  0  0  0  0  0  0
   -2.5500    0.0708    0.0000 C   0  0  0  0  0  0  0  0  0  0  0  0
   -3.2625   -1.1750    0.0000 C   0  0  0  0  0  0  0  0  0  0  0  0
   -3.2625   -0.3500    0.0000 C   0  0  0  0  0  0  0  0  0  0  0  0
  2  1  1  0  0  0  0
  3  1  1  0  0  0  0
  4  2  2  0  0  0  0
  5  3  2  0  0  0  0
  6  2  1  0  0  0  0
  7  1  1  0  0  0  0
  8  3  1  0  0  0  0
  9 10  2  0  0  0  0
 10  6  1  0  0  0  0
 11  6  2  0  0  0  0
 12 13  2  0  0  0  0
 13 11  1  0  0  0  0
  4  5  1  0  0  0  0
  9 12  1  0  0  0  0
M  END
> <IDNUMBER>
F2135-0602

> <Chemical_Name>
4-amino-5-(pyridin-3-yl)-4H-1,2,4-triazole-3-thiol

> <CAS>
78027-00-6

> <PriceCoeff>
1.00

> <MW>
193.23

> <Description>
solid

> <FSP3>
0.00

> <clogP>
0.57

> <TPSA>
108.42

> <Acceptor>
3

> <Donor>
4

> <RotBonds>
1

> <HAC>
13

> <Collection>
General

> <Reference_compound>
CHEMBL571510

> <Similarity>
0.8700

$$$$
F2770-0240
  -ISIS-  06222321152D

 27 29  0  0  0  0  0  0  0  0999 V2000
   -3.7458    7.9542    0.0000 S   0  0  3  0  0  0  0  0  0  0  0  0
   -3.0250    7.5292    0.0000 N   0  0  3  0  0  0  0  0  0  0  0  0
   -3.7708    0.4875    0.0000 N   0  3  0  0  0  0  0  0  0  0  0  0
   -3.7708    2.9833    0.0000 C   0  0  0  0  0  0  0  0  0  0  0  0
   -3.7583    3.8000    0.0000 C   0  0  0  0  0  0  0  0  0  0  0  0
   -3.0333    6.7000    0.0000 C   0  0  0  0  0  0  0  0  0  0  0  0
   -3.0375    2.5583    0.0000 C   0  0  0  0  0  0  0  0  0  0  0  0
   -3.7625    1.3125    0.0000 C   0  0  0  0  0  0  0  0  0  0  0  0
   -3.0375    1.7250    0.0000 C   0  0  0  0  0  0  0  0  0  0  0  0
   -3.0458    4.2125    0.0000 N   0  0  0  0  0  0  0  0  0  0  0  0
   -2.3208    6.2750    0.0000 C   0  0  0  0  0  0  0  0  0  0  0  0
   -4.4833    2.5625    0.0000 C   0  0  0  0  0  0  0  0  0  0  0  0
   -4.1625    7.2417    0.0000 O   0  0  0  0  0  0  0  0  0  0  0  0
   -3.3250    8.6667    0.0000 O   0  0  0  0  0  0  0  0  0  0  0  0
   -3.7583    6.2917    0.0000 C   0  0  0  0  0  0  0  0  0  0  0  0
   -4.4833    0.0833    0.0000 O   0  5  0  0  0  0  0  0  0  0  0  0
   -3.0583    0.0750    0.0000 O   0  0  0  0  0  0  0  0  0  0  0  0
   -3.0458    5.0417    0.0000 C   0  0  0  0  0  0  0  0  0  0  0  0
   -2.3250    5.4500    0.0000 C   0  0  0  0  0  0  0  0  0  0  0  0
   -4.4750    4.2042    0.0000 O   0  0  0  0  0  0  0  0  0  0  0  0
   -4.4833    1.7333    0.0000 C   0  0  0  0  0  0  0  0  0  0  0  0
   -4.4583    8.3750    0.0000 C   0  0  0  0  0  0  0  0  0  0  0  0
   -2.3208    2.9625    0.0000 Cl  0  0  0  0  0  0  0  0  0  0  0  0
   -3.7583    5.4625    0.0000 C   0  0  0  0  0  0  0  0  0  0  0  0
   -2.2958    7.9292    0.0000 C   0  0  0  0  0  0  0  0  0  0  0  0
   -1.6000    6.6792    0.0000 C   0  0  0  0  0  0  0  0  0  0  0  0
   -1.5833    7.5042    0.0000 C   0  0  0  0  0  0  0  0  0  0  0  0
  2  1  1  0  0  0  0
  3  8  1  0  0  0  0
  4  5  1  0  0  0  0
  5 10  1  0  0  0  0
  6  2  1  0  0  0  0
  7  4  1  0  0  0  0
  8 21  2  0  0  0  0
  9  7  2  0  0  0  0
 10 18  1  0  0  0  0
 11  6  2  0  0  0  0
 12  4  2  0  0  0  0
 13  1  2  0  0  0  0
 14  1  2  0  0  0  0
 15  6  1  0  0  0  0
 16  3  1  0  0  0  0
 17  3  2  0  0  0  0
 18 24  1  0  0  0  0
 19 11  1  0  0  0  0
 20  5  2  0  0  0  0
 21 12  1  0  0  0  0
 22  1  1  0  0  0  0
 23  7  1  0  0  0  0
 24 15  2  0  0  0  0
 25  2  1  0  0  0  0
 26 27  1  0  0  0  0
 27 25  1  0  0  0  0
 26 11  1  0  0  0  0
 19 18  2  0  0  0  0
  9  8  1  0  0  0  0
M  CHG  2   3   1  16  -1
M  END
> <IDNUMBER>
F2770-0240

> <Chemical_Name>
2-chloro-N-(1-methanesulfonyl-1,2,3,4-tetrahydroquinolin-6-yl)-4-nitrobenzamide

> <CAS>
941882-70-8

> <PriceCoeff>
1.00

> <MW>
409.84

> <Description>
solid

> <FSP3>
0.24

> <clogP>
2.32

> <TPSA>
118.00

> <Acceptor>
6

> <Donor>
1

> <RotBonds>
4

> <HAC>
27

> <Collection>
General

$$$$
F2018-4289
  -ISIS-  06222304352D

 29 30  0  0  0  0  0  0  0  0999 V2000
   -3.1583    2.9833    0.0000 C   0  0  0  0  0  0  0  0  0  0  0  0
   -3.9125    2.6458    0.0000 N   0  0  0  0  0  0  0  0  0  0  0  0
   -0.2958    2.9833    0.0000 N   0  0  3  0  0  0  0  0  0  0  0  0
   -2.4375    2.5625    0.0000 N   0  0  3  0  0  0  0  0  0  0  0  0
   -3.2458    3.8083    0.0000 S   0  0  0  0  0  0  0  0  0  0  0  0
   -4.4708    3.2500    0.0000 C   0  0  0  0  0  0  0  0  0  0  0  0
   -1.7250    2.9833    0.0000 C   0  0  0  0  0  0  0  0  0  0  0  0
   -1.0125    2.5625    0.0000 C   0  0  0  0  0  0  0  0  0  0  0  0
   -0.2125    3.8000    0.0000 C   0  0  0  0  0  0  0  0  0  0  0  0
    0.4542    2.6458    0.0000 C   0  0  0  0  0  0  0  0  0  0  0  0
   -4.0583    3.9708    0.0000 C   0  0  0  0  0  0  0  0  0  0  0  0
   -2.4375    1.7375    0.0000 C   0  0  0  0  0  0  0  0  0  0  0  0
   -5.2875    3.2500    0.0000 C   0  0  0  0  0  0  0  0  0  0  0  0
   -1.7250    3.8000    0.0000 O   0  0  0  0  0  0  0  0  0  0  0  0
    0.5917    3.9708    0.0000 C   0  0  0  0  0  0  0  0  0  0  0  0
    1.0125    3.2583    0.0000 C   0  0  0  0  0  0  0  0  0  0  0  0
   -0.8125    4.3417    0.0000 O   0  0  0  0  0  0  0  0  0  0  0  0
    0.6292    1.8333    0.0000 O   0  0  0  0  0  0  0  0  0  0  0  0
   -3.1583    1.3250    0.0000 C   0  0  0  0  0  0  0  0  0  0  0  0
   -3.1583    0.5000    0.0000 N   0  0  3  0  0  0  0  0  0  0  0  0
   -5.7083    2.5333    0.0000 Cl  0  0  0  0  0  0  0  0  0  0  0  0
   -4.4708    4.6667    0.0000 C   0  0  0  0  0  0  0  0  0  0  0  0
   -5.2958    4.6667    0.0000 C   0  0  0  0  0  0  0  0  0  0  0  0
   -5.7083    3.9583    0.0000 C   0  0  0  0  0  0  0  0  0  0  0  0
   -3.8708    0.0875    0.0000 C   0  0  0  0  0  0  0  0  0  0  0  0
   -2.4375    0.0875    0.0000 C   0  0  0  0  0  0  0  0  0  0  0  0
   -4.5833    0.5000    0.0000 C   0  0  0  0  0  0  0  0  0  0  0  0
   -2.4375   -0.7375    0.0000 C   0  0  0  0  0  0  0  0  0  0  0  0
    2.4000    2.0583    0.0000 Cl  0  0  0  0  0  0  0  0  0  0  0  0
  3  8  1  0  0  0  0
  4  1  1  0  0  0  0
  5  1  1  0  0  0  0
  6  2  1  0  0  0  0
  7  4  1  0  0  0  0
  8  7  1  0  0  0  0
  9  3  1  0  0  0  0
 10  3  1  0  0  0  0
 11  5  1  0  0  0  0
 12  4  1  0  0  0  0
 13  6  1  0  0  0  0
 14  7  2  0  0  0  0
 15  9  1  0  0  0  0
 16 10  1  0  0  0  0
 17  9  2  0  0  0  0
 18 10  2  0  0  0  0
 19 12  1  0  0  0  0
 20 19  1  0  0  0  0
 21 13  1  0  0  0  0
 22 11  1  0  0  0  0
 23 22  2  0  0  0  0
 24 13  2  0  0  0  0
 25 20  1  0  0  0  0
 26 20  1  0  0  0  0
 27 25  1  0  0  0  0
 28 26  1  0  0  0  0
 11  6  2  0  0  0  0
 24 23  1  0  0  0  0
 15 16  1  0  0  0  0
  2  1  2  0  0  0  0
M  END
> <IDNUMBER>
F2018-4289

> <Chemical_Name>
N-(4-chloro-1,3-benzothiazol-2-yl)-N-[2-(diethylamino)ethyl]-2-(2,5-dioxopyrrolidin-1-yl)acetamide hydrochloride

> <CAS>
1216396-08-5

> <PriceCoeff>
1.00

> <MW>
422.93

> <Description>
solid

> <FSP3>
0.47

> <clogP>
3.10

> <TPSA>
102.06

> <Acceptor>
4

> <Donor>
1

> <RotBonds>
9

> <HAC>
28

> <Collection>
General

$$$$
F0808-0002
  -ISIS-  06222321142D

 21 22  0  0  0  0  0  0  0  0999 V2000
   -2.1625    0.6708    0.0000 S   0  0  3  0  0  0  0  0  0  0  0  0
   -1.5208    0.8125    0.0000 N   0  0  0  0  0  0  0  0  0  0  0  0
   -0.2000   -0.6292    0.0000 C   0  0  0  0  0  0  0  0  0  0  0  0
   -0.8208   -0.7500    0.0000 C   0  0  0  0  0  0  0  0  0  0  0  0
    0.0000   -0.0042    0.0000 C   0  0  0  0  0  0  0  0  0  0  0  0
   -1.0833    0.3333    0.0000 C   0  0  0  0  0  0  0  0  0  0  0  0
   -2.8000    0.5125    0.0000 C   0  0  0  0  0  0  0  0  0  0  0  0
   -0.4458    0.4708    0.0000 C   0  0  0  0  0  0  0  0  0  0  0  0
   -1.2625   -0.2875    0.0000 C   0  0  0  0  0  0  0  0  0  0  0  0
   -2.3000    1.3125    0.0000 O   0  0  0  0  0  0  0  0  0  0  0  0
   -2.0000    0.0125    0.0000 O   0  0  0  0  0  0  0  0  0  0  0  0
   -2.9833   -0.1292    0.0000 C   0  0  0  0  0  0  0  0  0  0  0  0
   -3.2458    0.9708    0.0000 C   0  0  0  0  0  0  0  0  0  0  0  0
    0.6375    0.1708    0.0000 Cl  0  0  0  0  0  0  0  0  0  0  0  0
   -1.0000   -1.3667    0.0000 Cl  0  0  0  0  0  0  0  0  0  0  0  0
    0.2375   -1.1042    0.0000 O   0  0  0  0  0  0  0  0  0  0  0  0
   -4.0458    0.1958    0.0000 C   0  0  0  0  0  0  0  0  0  0  0  0
   -3.6000   -0.2875    0.0000 C   0  0  0  0  0  0  0  0  0  0  0  0
   -3.8833    0.7958    0.0000 C   0  0  0  0  0  0  0  0  0  0  0  0
   -4.7083    0.0333    0.0000 O   0  0  0  0  0  0  0  0  0  0  0  0
   -5.1208    0.5333    0.0000 C   0  0  0  0  0  0  0  0  0  0  0  0
  2  1  1  0  0  0  0
  3  4  2  0  0  0  0
  4  9  1  0  0  0  0
  5  8  2  0  0  0  0
  6  2  1  0  0  0  0
  7  1  1  0  0  0  0
  8  6  1  0  0  0  0
  9  6  2  0  0  0  0
 10  1  2  0  0  0  0
 11  1  2  0  0  0  0
 12  7  2  0  0  0  0
 13  7  1  0  0  0  0
 14  5  1  0  0  0  0
 15  4  1  0  0  0  0
 16  3  1  0  0  0  0
 17 19  1  0  0  0  0
 18 12  1  0  0  0  0
 19 13  2  0  0  0  0
 20 17  1  0  0  0  0
 21 20  1  0  0  0  0
 18 17  2  0  0  0  0
  5  3  1  0  0  0  0
M  END
> <IDNUMBER>
F0808-0002

> <Chemical_Name>
N-(3,5-dichloro-4-hydroxyphenyl)-4-methoxybenzene-1-sulfonamide

> <CAS>
321577-31-5

> <PriceCoeff>
1.00

> <MW>
348.20

> <Description>
solid

> <FSP3>
0.08

> <clogP>
3.28

> <TPSA>
84.01

> <Acceptor>
5

> <Donor>
2

> <RotBonds>
4

> <HAC>
21

> <Collection>
General

$$$$
F1359-2616
  -ISIS-  06222321142D

 26 28  0  0  0  0  0  0  0  0999 V2000
   -1.1625    2.3833    0.0000 C   0  0  0  0  0  0  0  0  0  0  0  0
    1.3167    3.8083    0.0000 N   0  0  3  0  0  0  0  0  0  0  0  0
   -1.6458    1.7208    0.0000 N   0  0  3  0  0  0  0  0  0  0  0  0
   -0.3375    2.3750    0.0000 N   0  0  0  0  0  0  0  0  0  0  0  0
   -1.6458    3.0500    0.0000 S   0  0  0  0  0  0  0  0  0  0  0  0
   -2.4333    2.7958    0.0000 C   0  0  0  0  0  0  0  0  0  0  0  0
   -2.4333    1.9708    0.0000 C   0  0  0  0  0  0  0  0  0  0  0  0
    2.1292    3.8833    0.0000 C   0  0  0  0  0  0  0  0  0  0  0  0
    0.9792    4.5417    0.0000 C   0  0  0  0  0  0  0  0  0  0  0  0
    0.0750    3.0875    0.0000 C   0  0  0  0  0  0  0  0  0  0  0  0
    0.9000    3.0875    0.0000 C   0  0  0  0  0  0  0  0  0  0  0  0
   -3.1458    3.2083    0.0000 C   0  0  0  0  0  0  0  0  0  0  0  0
   -3.1458    1.5583    0.0000 C   0  0  0  0  0  0  0  0  0  0  0  0
    1.5917    5.0917    0.0000 C   0  0  0  0  0  0  0  0  0  0  0  0
    2.3125    4.6917    0.0000 C   0  0  0  0  0  0  0  0  0  0  0  0
    0.1792    4.7292    0.0000 O   0  0  0  0  0  0  0  0  0  0  0  0
    2.6875    3.2708    0.0000 O   0  0  0  0  0  0  0  0  0  0  0  0
   -0.3375    3.8000    0.0000 O   0  0  0  0  0  0  0  0  0  0  0  0
   -3.8583    2.7958    0.0000 C   0  0  0  0  0  0  0  0  0  0  0  0
   -1.3958    0.9333    0.0000 C   0  0  0  0  0  0  0  0  0  0  0  0
   -3.8583    1.9708    0.0000 C   0  0  0  0  0  0  0  0  0  0  0  0
   -4.5833    3.2125    0.0000 F   0  0  0  0  0  0  0  0  0  0  0  0
   -2.7458    0.4875    0.0000 O   0  0  0  0  0  0  0  0  0  0  0  0
   -1.9458    0.3208    0.0000 C   0  0  0  0  0  0  0  0  0  0  0  0
   -3.3125   -0.1167    0.0000 C   0  0  0  0  0  0  0  0  0  0  0  0
   -4.1208    0.0583    0.0000 C   0  0  0  0  0  0  0  0  0  0  0  0
  2 11  1  0  0  0  0
  3  1  1  0  0  0  0
  4  1  2  0  0  0  0
  5  1  1  0  0  0  0
  6  5  1  0  0  0  0
  7  3  1  0  0  0  0
  8  2  1  0  0  0  0
  9  2  1  0  0  0  0
 10  4  1  0  0  0  0
 11 10  1  0  0  0  0
 12  6  1  0  0  0  0
 13  7  1  0  0  0  0
 14  9  1  0  0  0  0
 15  8  1  0  0  0  0
 16  9  2  0  0  0  0
 17  8  2  0  0  0  0
 18 10  2  0  0  0  0
 19 12  2  0  0  0  0
 20  3  1  0  0  0  0
 21 13  2  0  0  0  0
 22 19  1  0  0  0  0
 23 24  1  0  0  0  0
 24 20  1  0  0  0  0
 25 23  1  0  0  0  0
 26 25  1  0  0  0  0
  7  6  2  0  0  0  0
 21 19  1  0  0  0  0
 15 14  1  0  0  0  0
M  END
> <IDNUMBER>
F1359-2616

> <Chemical_Name>
2-(2,5-dioxopyrrolidin-1-yl)-N-[(2Z)-3-(2-ethoxyethyl)-6-fluoro-2,3-dihydro-1,3-benzothiazol-2-ylidene]acetamide

> <CAS>
865173-55-3

> <PriceCoeff>
1.00

> <MW>
379.41

> <Description>
solid

> <FSP3>
0.41

> <clogP>
3.07

> <TPSA>
104.58

> <Acceptor>
4

> <Donor>
0

> <RotBonds>
7

> <HAC>
26

> <Collection>
General

$$$$
F1366-0108
  -ISIS-  06222321442D

 26 28  0  0  0  0  0  0  0  0999 V2000
   -1.1625    2.3833    0.0000 C   0  0  0  0  0  0  0  0  0  0  0  0
   -1.6458    1.7208    0.0000 N   0  0  3  0  0  0  0  0  0  0  0  0
    1.3000    3.7958    0.0000 N   0  0  3  0  0  0  0  0  0  0  0  0
   -0.3375    2.3750    0.0000 N   0  0  0  0  0  0  0  0  0  0  0  0
   -1.6458    3.0500    0.0000 S   0  0  0  0  0  0  0  0  0  0  0  0
   -2.4333    1.9708    0.0000 C   0  0  0  0  0  0  0  0  0  0  0  0
   -2.4333    2.7958    0.0000 C   0  0  0  0  0  0  0  0  0  0  0  0
    2.1042    3.8708    0.0000 C   0  0  0  0  0  0  0  0  0  0  0  0
    0.9625    4.5292    0.0000 C   0  0  0  0  0  0  0  0  0  0  0  0
    0.0750    3.0875    0.0000 C   0  0  0  0  0  0  0  0  0  0  0  0
    0.8875    3.0875    0.0000 C   0  0  0  0  0  0  0  0  0  0  0  0
   -1.7625    0.9083    0.0000 C   0  0  0  0  0  0  0  0  0  0  0  0
   -3.1458    1.5583    0.0000 C   0  0  0  0  0  0  0  0  0  0  0  0
   -2.5208    0.6083    0.0000 C   0  0  0  0  0  0  0  0  0  0  0  0
   -3.1458    3.2083    0.0000 C   0  0  0  0  0  0  0  0  0  0  0  0
    1.5625    5.0750    0.0000 C   0  0  0  0  0  0  0  0  0  0  0  0
    2.2750    4.6667    0.0000 C   0  0  0  0  0  0  0  0  0  0  0  0
    0.1667    4.7042    0.0000 O   0  0  0  0  0  0  0  0  0  0  0  0
    2.6417    3.2708    0.0000 O   0  0  0  0  0  0  0  0  0  0  0  0
   -0.3375    3.8000    0.0000 O   0  0  0  0  0  0  0  0  0  0  0  0
   -2.6333   -0.2000    0.0000 O   0  0  0  0  0  0  0  0  0  0  0  0
   -3.8583    1.9708    0.0000 C   0  0  0  0  0  0  0  0  0  0  0  0
   -3.8583    2.7958    0.0000 C   0  0  0  0  0  0  0  0  0  0  0  0
   -3.1583    1.1083    0.0000 O   0  0  0  0  0  0  0  0  0  0  0  0
   -4.5625    3.2083    0.0000 C   0  0  0  0  0  0  0  0  0  0  0  0
   -3.9125    0.8083    0.0000 C   0  0  0  0  0  0  0  0  0  0  0  0
  2  1  1  0  0  0  0
  3 11  1  0  0  0  0
  4  1  2  0  0  0  0
  5  1  1  0  0  0  0
  6  2  1  0  0  0  0
  7  5  1  0  0  0  0
  8  3  1  0  0  0  0
  9  3  1  0  0  0  0
 10  4  1  0  0  0  0
 11 10  1  0  0  0  0
 12  2  1  0  0  0  0
 13  6  1  0  0  0  0
 14 12  1  0  0  0  0
 15  7  1  0  0  0  0
 16  9  1  0  0  0  0
 17  8  1  0  0  0  0
 18  9  2  0  0  0  0
 19  8  2  0  0  0  0
 20 10  2  0  0  0  0
 21 14  2  0  0  0  0
 22 13  2  0  0  0  0
 23 15  2  0  0  0  0
 24 14  1  0  0  0  0
 25 23  1  0  0  0  0
 26 24  1  0  0  0  0
  7  6  2  0  0  0  0
 23 22  1  0  0  0  0
 16 17  1  0  0  0  0
M  END
> <IDNUMBER>
F1366-0108

> <Chemical_Name>
methyl 2-[(2Z)-2-{[2-(2,5-dioxopyrrolidin-1-yl)acetyl]imino}-6-methyl-2,3-dihydro-1,3-benzothiazol-3-yl]acetate

> <CAS>
941917-23-3

> <PriceCoeff>
1.00

> <MW>
375.40

> <Description>
solid

> <FSP3>
0.35

> <clogP>
2.84

> <TPSA>
121.65

> <Acceptor>
5

> <Donor>
0

> <RotBonds>
6

> <HAC>
26

> <Collection>
General

$$$$
F1345-0286
  -ISIS-  06222304352D

 34 37  0  0  0  0  0  0  0  0999 V2000
    1.4750    0.2708    0.0000 N   0  0  3  0  0  0  0  0  0  0  0  0
    0.9917   -0.3917    0.0000 C   0  0  0  0  0  0  0  0  0  0  0  0
    0.9917    0.9500    0.0000 C   0  0  0  0  0  0  0  0  0  0  0  0
    0.2042   -0.1292    0.0000 C   0  0  0  0  0  0  0  0  0  0  0  0
    0.2125    0.6958    0.0000 C   0  0  0  0  0  0  0  0  0  0  0  0
    3.9542   -1.1750    0.0000 N   0  0  3  0  0  0  0  0  0  0  0  0
    2.3042    0.2708    0.0000 C   0  0  0  0  0  0  0  0  0  0  0  0
    4.7792   -2.6042    0.0000 O   0  0  0  0  0  0  0  0  0  0  0  0
    2.7167   -0.4542    0.0000 C   0  0  3  0  0  0  0  0  0  0  0  0
    3.5500   -0.4542    0.0000 C   0  0  0  0  0  0  0  0  0  0  0  0
    3.5500   -1.8917    0.0000 C   0  0  0  0  0  0  0  0  0  0  0  0
    4.7917   -1.1750    0.0000 C   0  0  0  0  0  0  0  0  0  0  0  0
    3.9500   -2.6042    0.0000 C   0  0  3  0  0  0  0  0  0  0  0  0
    5.2042   -1.9000    0.0000 C   0  0  3  0  0  0  0  0  0  0  0  0
    2.3000   -1.1667    0.0000 O   0  0  0  0  0  0  0  0  0  0  0  0
    1.1667    1.7500    0.0000 C   0  0  0  0  0  0  0  0  0  0  0  0
    1.1542   -1.2042    0.0000 C   0  0  0  0  0  0  0  0  0  0  0  0
   -0.4083   -0.6792    0.0000 C   0  0  0  0  0  0  0  0  0  0  0  0
   -0.4083    1.2458    0.0000 C   0  0  0  0  0  0  0  0  0  0  0  0
    6.0292   -1.9000    0.0000 C   0  0  0  0  0  0  0  0  0  0  0  0
    3.5375   -3.3292    0.0000 C   0  0  0  0  0  0  0  0  0  0  0  0
    0.5625    2.3083    0.0000 C   0  0  0  0  0  0  0  0  0  0  0  0
    0.5375   -1.7417    0.0000 C   0  0  0  0  0  0  0  0  0  0  0  0
   -0.2458   -1.5000    0.0000 C   0  0  0  0  0  0  0  0  0  0  0  0
   -0.2250    2.0583    0.0000 C   0  0  0  0  0  0  0  0  0  0  0  0
    9.1829    0.0801    0.0000 C   0  0  0  0  0  0  0  0  0  0  0  0
    8.8811    0.8524    0.0000 O   0  0  0  0  0  0  0  0  0  0  0  0
    8.6637   -0.5662    0.0000 C   0  0  0  0  0  0  0  0  0  0  0  0
    9.9969   -0.0397    0.0000 O   0  0  0  0  0  0  0  0  0  0  0  0
    7.8428   -0.4401    0.0000 C   0  0  0  0  0  0  0  0  0  0  0  0
    8.9615   -1.3400    0.0000 C   0  0  0  0  0  0  0  0  0  0  0  0
    7.3221   -1.0825    0.0000 C   0  0  0  0  0  0  0  0  0  0  0  0
    8.4385   -1.9878    0.0000 C   0  0  0  0  0  0  0  0  0  0  0  0
    7.6200   -1.8564    0.0000 C   0  0  0  0  0  0  0  0  0  0  0  0
 11  6  1  0  0  0  0
 12  6  1  0  0  0  0
 13 11  1  0  0  0  0
 14 12  1  0  0  0  0
 15  9  1  0  0  0  0
 16  3  1  0  0  0  0
 17  2  1  0  0  0  0
 18  4  1  0  0  0  0
 19  5  1  0  0  0  0
 20 14  1  0  0  0  0
 21 13  1  0  0  0  0
 22 16  2  0  0  0  0
 23 17  2  0  0  0  0
 24 23  1  0  0  0  0
 25 22  1  0  0  0  0
  4  5  1  0  0  0  0
 19 25  2  0  0  0  0
 18 24  2  0  0  0  0
 13  8  1  0  0  0  0
  2  1  1  0  0  0  0
  3  1  1  0  0  0  0
  4  2  2  0  0  0  0
  5  3  2  0  0  0  0
  6 10  1  0  0  0  0
  7  1  1  0  0  0  0
  8 14  1  0  0  0  0
  9  7  1  0  0  0  0
 10  9  1  0  0  0  0
 27 26  2  0  0  0  0
 28 26  1  0  0  0  0
 29 26  1  0  0  0  0
 30 28  2  0  0  0  0
 31 28  1  0  0  0  0
 32 30  1  0  0  0  0
 33 31  2  0  0  0  0
 34 33  1  0  0  0  0
 34 32  2  0  0  0  0
M  END
> <IDNUMBER>
F1345-0286

> <Chemical_Name>
1-(9H-carbazol-9-yl)-3-(2,6-dimethylmorpholin-4-yl)propan-2-ol; benzoic acid

> <CAS>
479542-49-9

> <PriceCoeff>
1.00

> <MW>
338.44

> <Description>
solid

> <FSP3>
0.43

> <clogP>
4.25

> <TPSA>
37.63

> <Acceptor>
2

> <Donor>
2

> <RotBonds>
4

> <HAC>
25

> <Collection>
General

> <Reference_compound>
PRI1826

> <Similarity>
0.8570

$$$$
F2019-1241
  -ISIS-  06222304352D

 30 31  0  0  0  0  0  0  0  0999 V2000
   -3.1583    2.9833    0.0000 C   0  0  0  0  0  0  0  0  0  0  0  0
   -3.9333    2.6333    0.0000 N   0  0  0  0  0  0  0  0  0  0  0  0
   -0.2958    2.9833    0.0000 N   0  0  3  0  0  0  0  0  0  0  0  0
   -2.4375    2.5625    0.0000 N   0  0  3  0  0  0  0  0  0  0  0  0
   -3.2458    3.8333    0.0000 S   0  0  0  0  0  0  0  0  0  0  0  0
   -4.5083    3.2708    0.0000 C   0  0  0  0  0  0  0  0  0  0  0  0
   -1.7250    2.9833    0.0000 C   0  0  0  0  0  0  0  0  0  0  0  0
   -1.0125    2.5625    0.0000 C   0  0  0  0  0  0  0  0  0  0  0  0
   -0.2125    3.8000    0.0000 C   0  0  0  0  0  0  0  0  0  0  0  0
    0.4542    2.6458    0.0000 C   0  0  0  0  0  0  0  0  0  0  0  0
   -4.0833    4.0000    0.0000 C   0  0  0  0  0  0  0  0  0  0  0  0
   -5.3458    3.2708    0.0000 C   0  0  0  0  0  0  0  0  0  0  0  0
   -1.7250    3.8000    0.0000 O   0  0  0  0  0  0  0  0  0  0  0  0
    0.5917    3.9708    0.0000 C   0  0  0  0  0  0  0  0  0  0  0  0
    1.0125    3.2583    0.0000 C   0  0  0  0  0  0  0  0  0  0  0  0
   -0.8125    4.3417    0.0000 O   0  0  0  0  0  0  0  0  0  0  0  0
    0.6292    1.8333    0.0000 O   0  0  0  0  0  0  0  0  0  0  0  0
   -2.4375    1.7375    0.0000 C   0  0  0  0  0  0  0  0  0  0  0  0
   -3.1583    1.3250    0.0000 C   0  0  0  0  0  0  0  0  0  0  0  0
   -3.8708    0.0875    0.0000 N   0  0  3  0  0  0  0  0  0  0  0  0
   -5.7708    2.5333    0.0000 O   0  0  0  0  0  0  0  0  0  0  0  0
   -4.5000    4.7167    0.0000 C   0  0  0  0  0  0  0  0  0  0  0  0
   -3.1583    0.5000    0.0000 C   0  0  0  0  0  0  0  0  0  0  0  0
   -5.3500    4.7292    0.0000 C   0  0  0  0  0  0  0  0  0  0  0  0
   -5.7708    3.9958    0.0000 C   0  0  0  0  0  0  0  0  0  0  0  0
   -4.5833    0.5000    0.0000 C   0  0  0  0  0  0  0  0  0  0  0  0
   -3.8708   -0.7375    0.0000 C   0  0  0  0  0  0  0  0  0  0  0  0
   -5.3458    1.8000    0.0000 C   0  0  0  0  0  0  0  0  0  0  0  0
   -5.5833    1.2625    0.0000 C   0  0  0  0  0  0  0  0  0  0  0  0
    2.4000    2.0917    0.0000 Cl  0  0  0  0  0  0  0  0  0  0  0  0
  3  8  1  0  0  0  0
  4  1  1  0  0  0  0
  5  1  1  0  0  0  0
  6  2  1  0  0  0  0
  7  4  1  0  0  0  0
  8  7  1  0  0  0  0
  9  3  1  0  0  0  0
 10  3  1  0  0  0  0
 11  5  1  0  0  0  0
 12  6  1  0  0  0  0
 13  7  2  0  0  0  0
 14  9  1  0  0  0  0
 15 10  1  0  0  0  0
 16  9  2  0  0  0  0
 17 10  2  0  0  0  0
 18  4  1  0  0  0  0
 19 18  1  0  0  0  0
 20 23  1  0  0  0  0
 21 12  1  0  0  0  0
 22 11  1  0  0  0  0
 23 19  1  0  0  0  0
 24 22  2  0  0  0  0
 25 12  2  0  0  0  0
 26 20  1  0  0  0  0
 27 20  1  0  0  0  0
 28 21  1  0  0  0  0
 29 28  1  0  0  0  0
 11  6  2  0  0  0  0
 25 24  1  0  0  0  0
 14 15  1  0  0  0  0
  2  1  2  0  0  0  0
M  END
> <IDNUMBER>
F2019-1241

> <Chemical_Name>
N-[3-(dimethylamino)propyl]-2-(2,5-dioxopyrrolidin-1-yl)-N-(4-ethoxy-1,3-benzothiazol-2-yl)acetamide hydrochloride

> <CAS>
1216913-59-5

> <PriceCoeff>
1.00

> <MW>
418.51

> <Description>
solid

> <FSP3>
0.50

> <clogP>
2.37

> <TPSA>
111.29

> <Acceptor>
5

> <Donor>
1

> <RotBonds>
10

> <HAC>
29

> <Collection>
General

$$$$
F0896-0503
  -ISIS-  06222321142D

 13 13  0  0  0  0  0  0  0  0999 V2000
    6.7917   -1.1417    0.0000 C   0  0  0  0  0  0  0  0  0  0  0  0
    4.5167   -0.9042    0.0000 N   0  0  0  0  0  0  0  0  0  0  0  0
    6.7917   -2.4625    0.0000 S   0  0  0  0  0  0  0  0  0  0  0  0
    5.6417   -0.4750    0.0000 N   0  0  0  0  0  0  0  0  0  0  0  0
    7.9292   -0.4792    0.0000 N   0  0  0  0  0  0  0  0  0  0  0  0
    3.3667   -0.2542    0.0000 C   0  0  0  0  0  0  0  0  0  0  0  0
    2.2292   -0.9167    0.0000 C   0  0  0  0  0  0  0  0  0  0  0  0
   -0.0583   -2.2500    0.0000 C   0  0  0  0  0  0  0  0  0  0  0  0
    2.2292   -2.2500    0.0000 C   0  0  0  0  0  0  0  0  0  0  0  0
    1.0792   -0.2625    0.0000 C   0  0  0  0  0  0  0  0  0  0  0  0
    1.0792   -2.9042    0.0000 C   0  0  0  0  0  0  0  0  0  0  0  0
   -0.0583   -0.9250    0.0000 C   0  0  0  0  0  0  0  0  0  0  0  0
   -1.2083   -2.9042    0.0000 O   0  0  0  0  0  0  0  0  0  0  0  0
  2  4  1  0  0  0  0
  3  1  2  0  0  0  0
  4  1  1  0  0  0  0
  5  1  1  0  0  0  0
  6  2  2  0  0  0  0
  7  6  1  0  0  0  0
  8 12  2  0  0  0  0
  9  7  1  0  0  0  0
 10  7  2  0  0  0  0
 11  9  2  0  0  0  0
 12 10  1  0  0  0  0
 13  8  1  0  0  0  0
 11  8  1  0  0  0  0
M  END
> <IDNUMBER>
F0896-0503

> <Chemical_Name>
[(E)-[(4-hydroxyphenyl)methylidene]amino]thiourea

> <CAS>
947527-72-2

> <PriceCoeff>
1.00

> <MW>
195.24

> <Description>
solid

> <FSP3>
0.00

> <clogP>
1.20

> <TPSA>
102.73

> <Acceptor>
3

> <Donor>
4

> <RotBonds>
2

> <HAC>
13

> <Collection>
General

> <Reference_compound>
CHEMBL243185

> <Similarity>
0.8310

$$$$
F1365-2352
  -ISIS-  06222321442D

 24 26  0  0  0  0  0  0  0  0999 V2000
   -1.1625    2.3833    0.0000 C   0  0  0  0  0  0  0  0  0  0  0  0
    1.3167    3.8083    0.0000 N   0  0  3  0  0  0  0  0  0  0  0  0
   -1.6458    1.7208    0.0000 N   0  0  3  0  0  0  0  0  0  0  0  0
   -0.3375    2.3750    0.0000 N   0  0  0  0  0  0  0  0  0  0  0  0
   -1.6458    3.0500    0.0000 S   0  0  0  0  0  0  0  0  0  0  0  0
   -2.4333    2.7958    0.0000 C   0  0  0  0  0  0  0  0  0  0  0  0
   -2.4333    1.9708    0.0000 C   0  0  0  0  0  0  0  0  0  0  0  0
    2.1292    3.8833    0.0000 C   0  0  0  0  0  0  0  0  0  0  0  0
    0.9792    4.5417    0.0000 C   0  0  0  0  0  0  0  0  0  0  0  0
    0.0750    3.0875    0.0000 C   0  0  0  0  0  0  0  0  0  0  0  0
    0.9000    3.0875    0.0000 C   0  0  0  0  0  0  0  0  0  0  0  0
   -3.1458    3.2083    0.0000 C   0  0  0  0  0  0  0  0  0  0  0  0
   -1.9458    0.3208    0.0000 C   0  0  0  0  0  0  0  0  0  0  0  0
   -2.4958   -0.2917    0.0000 C   0  0  0  0  0  0  0  0  0  0  0  0
   -3.1458    1.5583    0.0000 C   0  0  0  0  0  0  0  0  0  0  0  0
    1.5917    5.0917    0.0000 C   0  0  0  0  0  0  0  0  0  0  0  0
    2.3125    4.6917    0.0000 C   0  0  0  0  0  0  0  0  0  0  0  0
    0.1792    4.7292    0.0000 O   0  0  0  0  0  0  0  0  0  0  0  0
    2.6875    3.2708    0.0000 O   0  0  0  0  0  0  0  0  0  0  0  0
   -0.3375    3.8000    0.0000 O   0  0  0  0  0  0  0  0  0  0  0  0
   -1.3958    0.9333    0.0000 C   0  0  0  0  0  0  0  0  0  0  0  0
   -3.8583    2.7958    0.0000 C   0  0  0  0  0  0  0  0  0  0  0  0
   -3.8583    1.9708    0.0000 C   0  0  0  0  0  0  0  0  0  0  0  0
   -4.5833    3.2125    0.0000 Cl  0  0  0  0  0  0  0  0  0  0  0  0
  2 11  1  0  0  0  0
  3  1  1  0  0  0  0
  4  1  2  0  0  0  0
  5  1  1  0  0  0  0
  6  5  1  0  0  0  0
  7  3  1  0  0  0  0
  8  2  1  0  0  0  0
  9  2  1  0  0  0  0
 10  4  1  0  0  0  0
 11 10  1  0  0  0  0
 12  6  1  0  0  0  0
 13 21  1  0  0  0  0
 14 13  3  0  0  0  0
 15  7  1  0  0  0  0
 16  9  1  0  0  0  0
 17  8  1  0  0  0  0
 18  9  2  0  0  0  0
 19  8  2  0  0  0  0
 20 10  2  0  0  0  0
 21  3  1  0  0  0  0
 22 12  2  0  0  0  0
 23 15  2  0  0  0  0
 24 22  1  0  0  0  0
  7  6  2  0  0  0  0
 23 22  1  0  0  0  0
 17 16  1  0  0  0  0
M  END
> <IDNUMBER>
F1365-2352

> <Chemical_Name>
N-[(2Z)-6-chloro-3-(prop-2-yn-1-yl)-2,3-dihydro-1,3-benzothiazol-2-ylidene]-2-(2,5-dioxopyrrolidin-1-yl)acetamide

> <CAS>
865181-22-2

> <PriceCoeff>
1.00

> <MW>
361.80

> <Description>
solid

> <FSP3>
0.25

> <clogP>
3.59

> <TPSA>
95.35

> <Acceptor>
3

> <Donor>
0

> <RotBonds>
5

> <HAC>
24

> <Collection>
General

$$$$
F1099-0052
  -ISIS-  06222321142D

 10 10  0  0  0  0  0  0  0  0999 V2000
    0.6625   -0.2042    0.0000 C   0  0  0  0  0  0  0  0  0  0  0  0
    0.6667    0.6208    0.0000 O   0  0  0  0  0  0  0  0  0  0  0  0
   -0.0583   -0.6167    0.0000 C   0  0  0  0  0  0  0  0  0  0  0  0
    1.3750   -0.6250    0.0000 N   0  0  0  0  0  0  0  0  0  0  0  0
    2.0875   -0.2042    0.0000 N   0  0  0  0  0  0  0  0  0  0  0  0
   -0.0583   -1.4417    0.0000 C   0  0  0  0  0  0  0  0  0  0  0  0
   -0.7708   -0.2042    0.0000 C   0  0  0  0  0  0  0  0  0  0  0  0
   -0.7708   -1.8542    0.0000 C   0  0  0  0  0  0  0  0  0  0  0  0
   -1.4750   -0.6167    0.0000 C   0  0  0  0  0  0  0  0  0  0  0  0
   -1.4750   -1.4417    0.0000 C   0  0  0  0  0  0  0  0  0  0  0  0
  2  1  2  0  0  0  0
  3  1  1  0  0  0  0
  4  1  1  0  0  0  0
  5  4  1  0  0  0  0
  6  3  1  0  0  0  0
  7  3  2  0  0  0  0
  8  6  2  0  0  0  0
  9  7  1  0  0  0  0
 10  9  2  0  0  0  0
 10  8  1  0  0  0  0
M  END
> <IDNUMBER>
F1099-0052

> <Chemical_Name>
benzohydrazide

> <CAS>
613-94-5

> <PriceCoeff>
1.00

> <MW>
136.15

> <Description>
solid

> <FSP3>
0.00

> <clogP>
0.27

> <TPSA>
55.12

> <Acceptor>
1

> <Donor>
2

> <RotBonds>
1

> <HAC>
10

> <Collection>
General

> <Reference_compound>
CHEMBL153973

> <Similarity>
0.8930

$$$$
F5871-4512
  -ISIS-  06222321152D

 29 31  0  0  0  0  0  0  0  0999 V2000
    7.3375   -5.8167    0.0000 N   0  0  3  0  0  0  0  0  0  0  0  0
    9.4167   -5.1417    0.0000 S   0  0  3  0  0  0  0  0  0  0  0  0
    9.7917   -0.6167    0.0000 C   0  0  0  0  0  0  0  0  0  0  0  0
    9.7417   -1.4375    0.0000 N   0  0  3  0  0  0  0  0  0  0  0  0
    6.9375   -5.1000    0.0000 C   0  0  0  0  0  0  0  0  0  0  0  0
    6.9042   -6.5167    0.0000 C   0  0  0  0  0  0  0  0  0  0  0  0
   10.5167   -0.2500    0.0000 C   0  0  0  0  0  0  0  0  0  0  0  0
    8.5917   -5.1292    0.0000 C   0  0  0  0  0  0  0  0  0  0  0  0
    8.1667   -5.8375    0.0000 C   0  0  0  0  0  0  0  0  0  0  0  0
   11.2542   -0.6250    0.0000 S   0  0  0  0  0  0  0  0  0  0  0  0
    9.6417   -3.0750    0.0000 N   0  0  3  0  0  0  0  0  0  0  0  0
    9.4375   -4.3167    0.0000 O   0  0  0  0  0  0  0  0  0  0  0  0
    9.4042   -5.9667    0.0000 O   0  0  0  0  0  0  0  0  0  0  0  0
   10.2417   -5.1625    0.0000 N   0  0  0  0  0  0  0  0  0  0  0  0
    9.1042   -0.1667    0.0000 O   0  0  0  0  0  0  0  0  0  0  0  0
   10.6542    0.5625    0.0000 C   0  0  0  0  0  0  0  0  0  0  0  0
   10.4250   -1.8917    0.0000 C   0  0  0  0  0  0  0  0  0  0  0  0
    9.0042   -1.8042    0.0000 C   0  0  0  0  0  0  0  0  0  0  0  0
    7.3042   -7.2417    0.0000 O   0  0  0  0  0  0  0  0  0  0  0  0
    7.3625   -4.3792    0.0000 O   0  0  0  0  0  0  0  0  0  0  0  0
   11.8375   -0.0417    0.0000 C   0  0  0  0  0  0  0  0  0  0  0  0
   11.4667    0.6875    0.0000 C   0  0  0  0  0  0  0  0  0  0  0  0
   10.2875   -4.3417    0.0000 C   0  0  0  0  0  0  0  0  0  0  0  0
    8.9542   -2.6292    0.0000 C   0  0  0  0  0  0  0  0  0  0  0  0
   10.3792   -2.7042    0.0000 C   0  0  0  0  0  0  0  0  0  0  0  0
    9.6000   -3.8917    0.0000 C   0  0  0  0  0  0  0  0  0  0  0  0
    6.1167   -5.0792    0.0000 C   0  0  0  0  0  0  0  0  0  0  0  0
    6.0792   -6.5042    0.0000 C   0  0  0  0  0  0  0  0  0  0  0  0
    5.6875   -5.7792    0.0000 C   0  0  0  0  0  0  0  0  0  0  0  0
  2  8  1  0  0  0  0
  3  4  1  0  0  0  0
  4 17  1  0  0  0  0
  5  1  1  0  0  0  0
  6  1  1  0  0  0  0
  7  3  1  0  0  0  0
  8  9  1  0  0  0  0
  9  1  1  0  0  0  0
 10  7  1  0  0  0  0
 11 26  1  0  0  0  0
 12  2  2  0  0  0  0
 13  2  2  0  0  0  0
 14  2  1  0  0  0  0
 15  3  2  0  0  0  0
 16  7  2  0  0  0  0
 17 25  1  0  0  0  0
 18 24  1  0  0  0  0
 19  6  2  0  0  0  0
 20  5  2  0  0  0  0
 21 10  1  0  0  0  0
 22 16  1  0  0  0  0
 23 14  1  0  0  0  0
 24 11  1  0  0  0  0
 25 11  1  0  0  0  0
 26 23  1  0  0  0  0
 27  5  1  0  0  0  0
 28  6  1  0  0  0  0
 29 28  1  0  0  0  0
 29 27  1  0  0  0  0
 18  4  1  0  0  0  0
 22 21  2  0  0  0  0
M  END
> <IDNUMBER>
F5871-4512

> <Chemical_Name>
2-(2,6-dioxopiperidin-1-yl)-N-{2-[4-(thiophene-2-carbonyl)piperazin-1-yl]ethyl}ethane-1-sulfonamide

> <CAS>
1207003-07-3

> <PriceCoeff>
1.00

> <MW>
442.55

> <Description>
solid

> <FSP3>
0.61

> <clogP>
1.03

> <TPSA>
143.72

> <Acceptor>
6

> <Donor>
2

> <RotBonds>
9

> <HAC>
29

> <Collection>
General

$$$$
F5871-4548
  -ISIS-  06222321442D

 29 31  0  0  0  0  0  0  0  0999 V2000
    7.3375   -5.8167    0.0000 N   0  0  3  0  0  0  0  0  0  0  0  0
    9.4167   -5.1417    0.0000 S   0  0  3  0  0  0  0  0  0  0  0  0
    9.7917   -0.6167    0.0000 C   0  0  0  0  0  0  0  0  0  0  0  0
   10.5167   -0.2500    0.0000 C   0  0  0  0  0  0  0  0  0  0  0  0
    9.7417   -1.4375    0.0000 N   0  0  3  0  0  0  0  0  0  0  0  0
    6.9042   -6.5167    0.0000 C   0  0  0  0  0  0  0  0  0  0  0  0
    6.9375   -5.1000    0.0000 C   0  0  0  0  0  0  0  0  0  0  0  0
    8.5917   -5.1292    0.0000 C   0  0  0  0  0  0  0  0  0  0  0  0
    8.1667   -5.8375    0.0000 C   0  0  0  0  0  0  0  0  0  0  0  0
    9.6417   -3.0750    0.0000 N   0  0  3  0  0  0  0  0  0  0  0  0
   11.8375   -0.0417    0.0000 S   0  0  0  0  0  0  0  0  0  0  0  0
   11.2542   -0.6250    0.0000 C   0  0  0  0  0  0  0  0  0  0  0  0
    9.4042   -5.9667    0.0000 O   0  0  0  0  0  0  0  0  0  0  0  0
    9.4375   -4.3167    0.0000 O   0  0  0  0  0  0  0  0  0  0  0  0
   10.2417   -5.1625    0.0000 N   0  0  0  0  0  0  0  0  0  0  0  0
   10.6542    0.5625    0.0000 C   0  0  0  0  0  0  0  0  0  0  0  0
    9.1042   -0.1667    0.0000 O   0  0  0  0  0  0  0  0  0  0  0  0
    9.0042   -1.8042    0.0000 C   0  0  0  0  0  0  0  0  0  0  0  0
   10.4250   -1.8917    0.0000 C   0  0  0  0  0  0  0  0  0  0  0  0
   11.4667    0.6875    0.0000 C   0  0  0  0  0  0  0  0  0  0  0  0
    7.3042   -7.2417    0.0000 O   0  0  0  0  0  0  0  0  0  0  0  0
    7.3625   -4.3792    0.0000 O   0  0  0  0  0  0  0  0  0  0  0  0
   10.2875   -4.3417    0.0000 C   0  0  0  0  0  0  0  0  0  0  0  0
    8.9542   -2.6292    0.0000 C   0  0  0  0  0  0  0  0  0  0  0  0
   10.3792   -2.7042    0.0000 C   0  0  0  0  0  0  0  0  0  0  0  0
    9.6000   -3.8917    0.0000 C   0  0  0  0  0  0  0  0  0  0  0  0
    6.1167   -5.0792    0.0000 C   0  0  0  0  0  0  0  0  0  0  0  0
    6.0792   -6.5042    0.0000 C   0  0  0  0  0  0  0  0  0  0  0  0
    5.6875   -5.7792    0.0000 C   0  0  0  0  0  0  0  0  0  0  0  0
  2  8  1  0  0  0  0
  3  5  1  0  0  0  0
  4  3  1  0  0  0  0
  5 19  1  0  0  0  0
  6  1  1  0  0  0  0
  7  1  1  0  0  0  0
  8  9  1  0  0  0  0
  9  1  1  0  0  0  0
 10 26  1  0  0  0  0
 11 12  1  0  0  0  0
 12  4  2  0  0  0  0
 13  2  2  0  0  0  0
 14  2  2  0  0  0  0
 15  2  1  0  0  0  0
 16  4  1  0  0  0  0
 17  3  2  0  0  0  0
 18 24  1  0  0  0  0
 19 25  1  0  0  0  0
 20 16  2  0  0  0  0
 21  6  2  0  0  0  0
 22  7  2  0  0  0  0
 23 15  1  0  0  0  0
 24 10  1  0  0  0  0
 25 10  1  0  0  0  0
 26 23  1  0  0  0  0
 27  7  1  0  0  0  0
 28  6  1  0  0  0  0
 29 27  1  0  0  0  0
 28 29  1  0  0  0  0
 18  5  1  0  0  0  0
 20 11  1  0  0  0  0
M  END
> <IDNUMBER>
F5871-4548

> <Chemical_Name>
2-(2,6-dioxopiperidin-1-yl)-N-{2-[4-(thiophene-3-carbonyl)piperazin-1-yl]ethyl}ethane-1-sulfonamide

> <CAS>
1251574-21-6

> <PriceCoeff>
1.00

> <MW>
442.55

> <Description>
oil

> <FSP3>
0.61

> <clogP>
1.03

> <TPSA>
143.72

> <Acceptor>
6

> <Donor>
2

> <RotBonds>
9

> <HAC>
29

> <Collection>
General

$$$$
F0808-1789
  -ISIS-  06222321142D

 21 22  0  0  0  0  0  0  0  0999 V2000
   -2.0625   -0.9792    0.0000 S   0  0  3  0  0  0  0  0  0  0  0  0
   -0.4458   -1.3000    0.0000 C   0  0  0  0  0  0  0  0  0  0  0  0
    0.1000   -0.9792    0.0000 N   0  3  0  0  0  0  0  0  0  0  0  0
   -2.6208   -0.6542    0.0000 N   0  0  0  0  0  0  0  0  0  0  0  0
   -0.9833   -0.9792    0.0000 C   0  0  0  0  0  0  0  0  0  0  0  0
   -1.5208   -1.3000    0.0000 C   0  0  0  0  0  0  0  0  0  0  0  0
   -2.6208   -0.0167    0.0000 C   0  0  0  0  0  0  0  0  0  0  0  0
   -1.7458   -0.4167    0.0000 O   0  0  0  0  0  0  0  0  0  0  0  0
   -2.4000   -1.5167    0.0000 O   0  0  0  0  0  0  0  0  0  0  0  0
   -0.4458   -1.9167    0.0000 C   0  0  0  0  0  0  0  0  0  0  0  0
    0.1000   -0.3542    0.0000 O   0  5  0  0  0  0  0  0  0  0  0  0
   -2.0625    0.2833    0.0000 C   0  0  0  0  0  0  0  0  0  0  0  0
   -3.1625    0.2833    0.0000 C   0  0  0  0  0  0  0  0  0  0  0  0
   -3.1625    0.9208    0.0000 C   0  0  0  0  0  0  0  0  0  0  0  0
   -2.0625    0.9208    0.0000 C   0  0  0  0  0  0  0  0  0  0  0  0
    0.6375   -1.2792    0.0000 O   0  0  0  0  0  0  0  0  0  0  0  0
   -2.6208    1.2208    0.0000 C   0  0  0  0  0  0  0  0  0  0  0  0
   -1.5208   -1.9167    0.0000 C   0  0  0  0  0  0  0  0  0  0  0  0
   -0.9833   -2.2375    0.0000 C   0  0  0  0  0  0  0  0  0  0  0  0
   -2.6208    1.8625    0.0000 O   0  0  0  0  0  0  0  0  0  0  0  0
    0.1000   -2.2375    0.0000 Cl  0  0  0  0  0  0  0  0  0  0  0  0
  2  5  1  0  0  0  0
  3  2  1  0  0  0  0
  4  1  1  0  0  0  0
  5  6  2  0  0  0  0
  6  1  1  0  0  0  0
  7  4  2  0  0  0  0
  8  1  2  0  0  0  0
  9  1  2  0  0  0  0
 10 19  1  0  0  0  0
 11  3  1  0  0  0  0
 12  7  1  0  0  0  0
 13  7  1  0  0  0  0
 14 13  2  0  0  0  0
 15 12  2  0  0  0  0
 16  3  2  0  0  0  0
 17 14  1  0  0  0  0
 18  6  1  0  0  0  0
 19 18  2  0  0  0  0
 20 17  2  0  0  0  0
 21 10  1  0  0  0  0
  2 10  2  0  0  0  0
 17 15  1  0  0  0  0
M  CHG  2   3   1  11  -1
M  END
> <IDNUMBER>
F0808-1789

> <Chemical_Name>
4-chloro-3-nitro-N-(4-oxocyclohexa-2,5-dien-1-ylidene)benzene-1-sulfonamide

> <CAS>
327060-12-8

> <PriceCoeff>
1.00

> <MW>
326.71

> <Description>
solid

> <FSP3>
0.00

> <clogP>
2.32

> <TPSA>
115.09

> <Acceptor>
6

> <Donor>
0

> <RotBonds>
3

> <HAC>
21

> <Collection>
General

$$$$
F1365-1164
  -ISIS-  06222321142D

 27 29  0  0  0  0  0  0  0  0999 V2000
   -1.1625    2.3833    0.0000 C   0  0  0  0  0  0  0  0  0  0  0  0
    1.3167    3.8083    0.0000 N   0  0  3  0  0  0  0  0  0  0  0  0
   -1.6458    1.7208    0.0000 N   0  0  3  0  0  0  0  0  0  0  0  0
   -0.3375    2.3750    0.0000 N   0  0  0  0  0  0  0  0  0  0  0  0
   -1.6458    3.0500    0.0000 S   0  0  0  0  0  0  0  0  0  0  0  0
   -4.5833    3.2125    0.0000 S   0  0  3  0  0  0  0  0  0  0  0  0
   -2.4333    2.7958    0.0000 C   0  0  0  0  0  0  0  0  0  0  0  0
   -2.4333    1.9708    0.0000 C   0  0  0  0  0  0  0  0  0  0  0  0
    2.1292    3.8833    0.0000 C   0  0  0  0  0  0  0  0  0  0  0  0
    0.9792    4.5417    0.0000 C   0  0  0  0  0  0  0  0  0  0  0  0
    0.0750    3.0875    0.0000 C   0  0  0  0  0  0  0  0  0  0  0  0
   -3.8583    2.7958    0.0000 C   0  0  0  0  0  0  0  0  0  0  0  0
   -3.1458    3.2083    0.0000 C   0  0  0  0  0  0  0  0  0  0  0  0
    0.9000    3.0875    0.0000 C   0  0  0  0  0  0  0  0  0  0  0  0
   -3.1458    1.5583    0.0000 C   0  0  0  0  0  0  0  0  0  0  0  0
   -4.1458    3.9083    0.0000 O   0  0  0  0  0  0  0  0  0  0  0  0
   -5.0208    2.5083    0.0000 O   0  0  0  0  0  0  0  0  0  0  0  0
    1.5917    5.0917    0.0000 C   0  0  0  0  0  0  0  0  0  0  0  0
    2.3125    4.6917    0.0000 C   0  0  0  0  0  0  0  0  0  0  0  0
   -3.8583    1.9708    0.0000 C   0  0  0  0  0  0  0  0  0  0  0  0
    0.1792    4.7292    0.0000 O   0  0  0  0  0  0  0  0  0  0  0  0
    2.6875    3.2708    0.0000 O   0  0  0  0  0  0  0  0  0  0  0  0
   -0.3375    3.8000    0.0000 O   0  0  0  0  0  0  0  0  0  0  0  0
   -1.9458    0.3208    0.0000 C   0  0  0  0  0  0  0  0  0  0  0  0
   -1.3958    0.9333    0.0000 C   0  0  0  0  0  0  0  0  0  0  0  0
   -2.7500    0.4875    0.0000 C   0  0  0  0  0  0  0  0  0  0  0  0
   -5.2833    3.6458    0.0000 C   0  0  0  0  0  0  0  0  0  0  0  0
  2 14  1  0  0  0  0
  3  1  1  0  0  0  0
  4  1  2  0  0  0  0
  5  1  1  0  0  0  0
  6 12  1  0  0  0  0
  7  5  1  0  0  0  0
  8  3  1  0  0  0  0
  9  2  1  0  0  0  0
 10  2  1  0  0  0  0
 11  4  1  0  0  0  0
 12 13  2  0  0  0  0
 13  7  1  0  0  0  0
 14 11  1  0  0  0  0
 15  8  1  0  0  0  0
 16  6  2  0  0  0  0
 17  6  2  0  0  0  0
 18 10  1  0  0  0  0
 19  9  1  0  0  0  0
 20 15  2  0  0  0  0
 21 10  2  0  0  0  0
 22  9  2  0  0  0  0
 23 11  2  0  0  0  0
 24 25  1  0  0  0  0
 25  3  1  0  0  0  0
 26 24  2  0  0  0  0
 27  6  1  0  0  0  0
  8  7  2  0  0  0  0
 20 12  1  0  0  0  0
 19 18  1  0  0  0  0
M  END
> <IDNUMBER>
F1365-1164

> <Chemical_Name>
2-(2,5-dioxopyrrolidin-1-yl)-N-[(2Z)-6-methanesulfonyl-3-(prop-2-en-1-yl)-2,3-dihydro-1,3-benzothiazol-2-ylidene]acetamide

> <CAS>
865175-74-2

> <PriceCoeff>
1.00

> <MW>
407.46

> <Description>
solid

> <FSP3>
0.29

> <clogP>
1.91

> <TPSA>
137.87

> <Acceptor>
5

> <Donor>
0

> <RotBonds>
6

> <HAC>
27

> <Collection>
General

$$$$
F3385-2696
  -ISIS-  06222321152D

 29 31  0  0  0  0  0  0  0  0999 V2000
    1.8625   -1.3542    0.0000 C   0  0  0  0  0  0  0  0  0  0  0  0
    1.1417   -1.7667    0.0000 C   0  0  0  0  0  0  0  0  0  0  0  0
    0.4292   -1.3542    0.0000 C   0  0  0  0  0  0  0  0  0  0  0  0
    1.8625   -0.5292    0.0000 C   0  0  0  0  0  0  0  0  0  0  0  0
    0.4292   -0.5292    0.0000 C   0  0  0  0  0  0  0  0  0  0  0  0
    2.5750   -1.7750    0.0000 C   0  0  0  0  0  0  0  0  0  0  0  0
    1.1417   -0.1167    0.0000 O   0  0  0  0  0  0  0  0  0  0  0  0
    3.2917   -1.3542    0.0000 C   0  0  0  0  0  0  0  0  0  0  0  0
   -0.2833   -1.7667    0.0000 C   0  0  0  0  0  0  0  0  0  0  0  0
   -0.2833   -0.1167    0.0000 C   0  0  0  0  0  0  0  0  0  0  0  0
    4.0042   -1.7667    0.0000 C   0  0  0  0  0  0  0  0  0  0  0  0
   -3.1458   -0.1125    0.0000 C   0  0  0  0  0  0  0  0  0  0  0  0
    1.1417   -2.5917    0.0000 O   0  0  0  0  0  0  0  0  0  0  0  0
    4.0042   -2.6000    0.0000 C   0  0  0  0  0  0  0  0  0  0  0  0
    2.5750   -2.6000    0.0000 C   0  0  0  0  0  0  0  0  0  0  0  0
   -3.1333    0.7208    0.0000 O   0  0  0  0  0  0  0  0  0  0  0  0
   -3.8583   -0.5125    0.0000 O   0  0  0  0  0  0  0  0  0  0  0  0
    3.2875   -3.0125    0.0000 C   0  0  0  0  0  0  0  0  0  0  0  0
   -1.0000   -0.5292    0.0000 C   0  0  0  0  0  0  0  0  0  0  0  0
   -1.7208   -0.1167    0.0000 O   0  0  0  0  0  0  0  0  0  0  0  0
   -2.4333   -0.5250    0.0000 C   0  0  0  0  0  0  0  0  0  0  0  0
   -0.9958   -1.3542    0.0000 C   0  0  0  0  0  0  0  0  0  0  0  0
    4.7250   -1.3542    0.0000 O   0  0  0  0  0  0  0  0  0  0  0  0
    4.7292   -3.0167    0.0000 O   0  0  0  0  0  0  0  0  0  0  0  0
   -4.5708   -0.0792    0.0000 C   0  0  3  0  0  0  0  0  0  0  0  0
    5.4375   -1.7750    0.0000 C   0  0  0  0  0  0  0  0  0  0  0  0
    4.7375   -3.8500    0.0000 C   0  0  0  0  0  0  0  0  0  0  0  0
   -4.5583    0.7458    0.0000 C   0  0  0  0  0  0  0  0  0  0  0  0
   -5.2958   -0.4875    0.0000 C   0  0  0  0  0  0  0  0  0  0  0  0
  2  1  1  0  0  0  0
  3  2  1  0  0  0  0
  4  1  2  0  0  0  0
  5  7  1  0  0  0  0
  6  1  1  0  0  0  0
  7  4  1  0  0  0  0
  8  6  1  0  0  0  0
  9  3  2  0  0  0  0
 10  5  2  0  0  0  0
 11  8  2  0  0  0  0
 12 21  1  0  0  0  0
 13  2  2  0  0  0  0
 14 18  2  0  0  0  0
 15  6  2  0  0  0  0
 16 12  2  0  0  0  0
 17 12  1  0  0  0  0
 18 15  1  0  0  0  0
 19 10  1  0  0  0  0
 20 19  1  0  0  0  0
 21 20  1  0  0  0  0
 22  9  1  0  0  0  0
 23 11  1  0  0  0  0
 24 14  1  0  0  0  0
 25 17  1  0  0  0  0
 26 23  1  0  0  0  0
 27 24  1  0  0  0  0
 28 25  1  0  0  0  0
 29 25  1  0  0  0  0
  5  3  1  0  0  0  0
 14 11  1  0  0  0  0
 19 22  2  0  0  0  0
M  END
> <IDNUMBER>
F3385-2696

> <Chemical_Name>
propan-2-yl 2-{[3-(3,4-dimethoxyphenyl)-4-oxo-4H-chromen-7-yl]oxy}acetate

> <CAS>
859139-59-6

> <PriceCoeff>
1.00

> <MW>
398.41

> <Description>
solid

> <FSP3>
0.27

> <clogP>
3.21

> <TPSA>
80.29

> <Acceptor>
7

> <Donor>
0

> <RotBonds>
8

> <HAC>
29

> <Collection>
General

> <Reference_compound>
CHEMBL455048

> <Similarity>
0.8190

$$$$
F0311-0776
  -ISIS-  06222321442D

 13 14  0  0  0  0  0  0  0  0999 V2000
    3.6042   -0.8000    0.0000 N   0  0  3  0  0  0  0  0  0  0  0  0
    3.8542   -1.5792    0.0000 C   0  0  0  0  0  0  0  0  0  0  0  0
    4.2667   -0.3042    0.0000 C   0  0  0  0  0  0  0  0  0  0  0  0
    4.6792   -1.5792    0.0000 N   0  0  0  0  0  0  0  0  0  0  0  0
    4.9375   -0.8000    0.0000 N   0  0  0  0  0  0  0  0  0  0  0  0
    3.3667   -2.2500    0.0000 C   0  0  0  0  0  0  0  0  0  0  0  0
    2.8167   -0.5375    0.0000 N   0  0  0  0  0  0  0  0  0  0  0  0
    4.2667    0.5000    0.0000 S   0  0  0  0  0  0  0  0  0  0  0  0
    2.5500   -2.1542    0.0000 C   0  0  0  0  0  0  0  0  0  0  0  0
    3.7042   -3.0000    0.0000 C   0  0  0  0  0  0  0  0  0  0  0  0
    2.0542   -2.8167    0.0000 C   0  0  0  0  0  0  0  0  0  0  0  0
    3.2167   -3.6667    0.0000 C   0  0  0  0  0  0  0  0  0  0  0  0
    2.4000   -3.5667    0.0000 C   0  0  0  0  0  0  0  0  0  0  0  0
  2  1  1  0  0  0  0
  3  1  1  0  0  0  0
  4  2  2  0  0  0  0
  5  3  2  0  0  0  0
  6  2  1  0  0  0  0
  7  1  1  0  0  0  0
  8  3  1  0  0  0  0
  9  6  2  0  0  0  0
 10  6  1  0  0  0  0
 11  9  1  0  0  0  0
 12 10  2  0  0  0  0
 13 12  1  0  0  0  0
  5  4  1  0  0  0  0
 13 11  2  0  0  0  0
M  END
> <IDNUMBER>
F0311-0776

> <Chemical_Name>
4-amino-5-phenyl-4H-1,2,4-triazole-3-thiol

> <CAS>
22706-11-2

> <PriceCoeff>
1.00

> <MW>
192.24

> <Description>
solid

> <FSP3>
0.00

> <clogP>
1.96

> <TPSA>
95.53

> <Acceptor>
2

> <Donor>
3

> <RotBonds>
1

> <HAC>
13

> <Collection>
General

> <Reference_compound>
CHEMBL571510

> <Similarity>
0.8300

$$$$
F1297-0181
  -ISIS-  06222321442D

 25 27  0  0  0  0  0  0  0  0999 V2000
   -1.8875    3.0083    0.0000 C   0  0  0  0  0  0  0  0  0  0  0  0
   -0.6500    0.8625    0.0000 N   0  0  3  0  0  0  0  0  0  0  0  0
   -2.3708    2.3375    0.0000 N   0  0  3  0  0  0  0  0  0  0  0  0
   -1.0625    3.0083    0.0000 N   0  0  0  0  0  0  0  0  0  0  0  0
   -2.3708    3.6750    0.0000 S   0  0  0  0  0  0  0  0  0  0  0  0
   -3.1583    2.5958    0.0000 C   0  0  0  0  0  0  0  0  0  0  0  0
   -3.1583    3.4208    0.0000 C   0  0  0  0  0  0  0  0  0  0  0  0
   -0.9833    0.1208    0.0000 C   0  0  0  0  0  0  0  0  0  0  0  0
    0.1667    0.7875    0.0000 C   0  0  0  0  0  0  0  0  0  0  0  0
   -0.6500    2.2958    0.0000 C   0  0  0  0  0  0  0  0  0  0  0  0
   -1.0708    1.5708    0.0000 C   0  0  0  0  0  0  0  0  0  0  0  0
   -3.8708    2.1833    0.0000 C   0  0  0  0  0  0  0  0  0  0  0  0
    0.3417   -0.0125    0.0000 C   0  0  0  0  0  0  0  0  0  0  0  0
   -0.3708   -0.4292    0.0000 C   0  0  0  0  0  0  0  0  0  0  0  0
    0.7125    1.3958    0.0000 O   0  0  0  0  0  0  0  0  0  0  0  0
   -1.7833   -0.0542    0.0000 O   0  0  0  0  0  0  0  0  0  0  0  0
    0.1625    2.2958    0.0000 O   0  0  0  0  0  0  0  0  0  0  0  0
   -2.1208    1.5583    0.0000 C   0  0  0  0  0  0  0  0  0  0  0  0
   -3.8708    3.8333    0.0000 C   0  0  0  0  0  0  0  0  0  0  0  0
   -3.8708    1.3583    0.0000 O   0  0  0  0  0  0  0  0  0  0  0  0
   -4.5833    3.4208    0.0000 C   0  0  0  0  0  0  0  0  0  0  0  0
   -4.5833    2.5958    0.0000 C   0  0  0  0  0  0  0  0  0  0  0  0
   -4.5833    0.9500    0.0000 C   0  0  0  0  0  0  0  0  0  0  0  0
   -2.6708    0.9458    0.0000 C   0  0  0  0  0  0  0  0  0  0  0  0
   -4.5833    0.1250    0.0000 C   0  0  0  0  0  0  0  0  0  0  0  0
  2 11  1  0  0  0  0
  3  1  1  0  0  0  0
  4  1  2  0  0  0  0
  5  1  1  0  0  0  0
  6  3  1  0  0  0  0
  7  5  1  0  0  0  0
  8  2  1  0  0  0  0
  9  2  1  0  0  0  0
 10  4  1  0  0  0  0
 11 10  1  0  0  0  0
 12  6  1  0  0  0  0
 13  9  1  0  0  0  0
 14  8  1  0  0  0  0
 15  9  2  0  0  0  0
 16  8  2  0  0  0  0
 17 10  2  0  0  0  0
 18  3  1  0  0  0  0
 19  7  1  0  0  0  0
 20 12  1  0  0  0  0
 21 19  2  0  0  0  0
 22 12  2  0  0  0  0
 23 20  1  0  0  0  0
 24 18  1  0  0  0  0
 25 23  1  0  0  0  0
  6  7  2  0  0  0  0
 22 21  1  0  0  0  0
 14 13  1  0  0  0  0
M  END
> <IDNUMBER>
F1297-0181

> <Chemical_Name>
2-(2,5-dioxopyrrolidin-1-yl)-N-[(2E)-4-ethoxy-3-ethyl-2,3-dihydro-1,3-benzothiazol-2-ylidene]acetamide

> <CAS>
864925-54-2

> <PriceCoeff>
1.00

> <MW>
361.42

> <Description>
solid

> <FSP3>
0.41

> <clogP>
3.75

> <TPSA>
104.58

> <Acceptor>
4

> <Donor>
0

> <RotBonds>
6

> <HAC>
25

> <Collection>
General

$$$$
F0466-0008
  -ISIS-  06222321452D

 29 33  0  0  0  0  0  0  0  0999 V2000
   -2.9708   -1.0500    0.0000 C   0  0  0  0  0  0  0  0  0  0  0  0
   -0.2708   -1.5792    0.0000 N   0  0  3  0  0  0  0  0  0  0  0  0
   -3.3125   -1.5000    0.0000 N   0  0  0  0  0  0  0  0  0  0  0  0
   -2.3708   -1.0500    0.0000 N   0  0  0  0  0  0  0  0  0  0  0  0
   -3.3125   -0.5500    0.0000 S   0  0  0  0  0  0  0  0  0  0  0  0
   -3.8958   -0.7167    0.0000 C   0  0  0  0  0  0  0  0  0  0  0  0
   -0.5708   -1.0792    0.0000 C   0  0  0  0  0  0  0  0  0  0  0  0
   -2.0708   -0.5167    0.0000 C   0  0  0  0  0  0  0  0  0  0  0  0
   -3.8708   -1.3167    0.0000 C   0  0  0  0  0  0  0  0  0  0  0  0
   -0.5708   -2.1000    0.0000 C   0  0  0  0  0  0  0  0  0  0  0  0
    0.3000   -1.7000    0.0000 C   0  0  0  0  0  0  0  0  0  0  0  0
   -4.4125   -0.4167    0.0000 C   0  0  0  0  0  0  0  0  0  0  0  0
   -1.1708   -1.0542    0.0000 C   0  0  0  0  0  0  0  0  0  0  0  0
   -1.4708   -0.5500    0.0000 C   0  0  0  0  0  0  0  0  0  0  0  0
   -2.3708   -0.0000    0.0000 O   0  0  0  0  0  0  0  0  0  0  0  0
    0.3542   -2.2792    0.0000 C   0  0  0  0  0  0  0  0  0  0  0  0
   -0.1708   -2.5500    0.0000 C   0  0  0  0  0  0  0  0  0  0  0  0
   -1.1708   -2.1542    0.0000 O   0  0  0  0  0  0  0  0  0  0  0  0
    0.7542   -1.3000    0.0000 O   0  0  0  0  0  0  0  0  0  0  0  0
   -4.4125   -1.6167    0.0000 C   0  0  0  0  0  0  0  0  0  0  0  0
   -4.9125   -0.7167    0.0000 C   0  0  0  0  0  0  0  0  0  0  0  0
   -4.9125   -1.3167    0.0000 C   0  0  0  0  0  0  0  0  0  0  0  0
   -0.2708   -0.5500    0.0000 C   0  0  0  0  0  0  0  0  0  0  0  0
   -1.1708   -0.0167    0.0000 C   0  0  0  0  0  0  0  0  0  0  0  0
   -4.4125    0.1708    0.0000 C   0  0  0  0  0  0  0  0  0  0  0  0
   -0.5708   -0.0167    0.0000 C   0  0  0  0  0  0  0  0  0  0  0  0
   -5.4333   -0.4167    0.0000 C   0  0  0  0  0  0  0  0  0  0  0  0
   -4.9125    0.4708    0.0000 C   0  0  0  0  0  0  0  0  0  0  0  0
   -5.4583    0.1708    0.0000 C   0  0  0  0  0  0  0  0  0  0  0  0
  2  7  1  0  0  0  0
  3  1  2  0  0  0  0
  4  1  1  0  0  0  0
  5  1  1  0  0  0  0
  6  5  1  0  0  0  0
  7 13  2  0  0  0  0
  8  4  1  0  0  0  0
  9  3  1  0  0  0  0
 10  2  1  0  0  0  0
 11  2  1  0  0  0  0
 12  6  1  0  0  0  0
 13 14  1  0  0  0  0
 14  8  1  0  0  0  0
 15  8  2  0  0  0  0
 16 11  1  0  0  0  0
 17 10  1  0  0  0  0
 18 10  2  0  0  0  0
 19 11  2  0  0  0  0
 20  9  1  0  0  0  0
 21 12  2  0  0  0  0
 22 20  2  0  0  0  0
 23 26  2  0  0  0  0
 24 14  2  0  0  0  0
 25 12  1  0  0  0  0
 26 24  1  0  0  0  0
 27 21  1  0  0  0  0
 28 25  2  0  0  0  0
 29 28  1  0  0  0  0
  6  9  2  0  0  0  0
 22 21  1  0  0  0  0
 29 27  2  0  0  0  0
 23  7  1  0  0  0  0
 17 16  1  0  0  0  0
M  END
> <IDNUMBER>
F0466-0008

> <Chemical_Name>
3-(2,5-dioxopyrrolidin-1-yl)-N-{naphtho[2,1-d][1,3]thiazol-2-yl}benzamide

> <CAS>
476321-57-0

> <PriceCoeff>
1.00

> <MW>
401.44

> <Description>
solid

> <FSP3>
0.09

> <clogP>
2.80

> <TPSA>
107.61

> <Acceptor>
4

> <Donor>
1

> <RotBonds>
3

> <HAC>
29

> <Collection>
General

$$$$
F0846-0687
  -ISIS-  06222321452D

 26 29  0  0  0  0  0  0  0  0999 V2000
   -5.2833    2.9375    0.0000 C   0  0  0  0  0  0  0  0  0  0  0  0
   -3.8833    5.4542    0.0000 N   0  0  3  0  0  0  0  0  0  0  0  0
   -6.0542    2.6583    0.0000 N   0  0  0  0  0  0  0  0  0  0  0  0
   -4.5708    2.5583    0.0000 C   0  0  0  0  0  0  0  0  0  0  0  0
   -5.3083    3.7500    0.0000 O   0  0  0  0  0  0  0  0  0  0  0  0
   -4.6333    5.1375    0.0000 C   0  0  0  0  0  0  0  0  0  0  0  0
   -3.9708    6.2667    0.0000 C   0  0  0  0  0  0  0  0  0  0  0  0
   -3.8708    2.9583    0.0000 C   0  0  0  0  0  0  0  0  0  0  0  0
   -3.1583    4.2042    0.0000 C   0  0  0  0  0  0  0  0  0  0  0  0
   -6.5417    3.2958    0.0000 C   0  0  0  0  0  0  0  0  0  0  0  0
   -3.8708    3.8000    0.0000 N   0  0  0  0  0  0  0  0  0  0  0  0
   -6.0667    3.9833    0.0000 C   0  0  0  0  0  0  0  0  0  0  0  0
   -3.1583    5.0417    0.0000 C   0  0  0  0  0  0  0  0  0  0  0  0
   -5.1750    5.7625    0.0000 C   0  0  0  0  0  0  0  0  0  0  0  0
   -4.7708    6.4417    0.0000 C   0  0  0  0  0  0  0  0  0  0  0  0
   -4.8083    4.3292    0.0000 O   0  0  0  0  0  0  0  0  0  0  0  0
   -3.3458    6.8292    0.0000 O   0  0  0  0  0  0  0  0  0  0  0  0
   -2.4375    3.7958    0.0000 O   0  0  0  0  0  0  0  0  0  0  0  0
   -4.5625    1.7250    0.0000 C   0  0  0  0  0  0  0  0  0  0  0  0
   -3.1375    2.5708    0.0000 C   0  0  0  0  0  0  0  0  0  0  0  0
   -7.3667    3.3625    0.0000 C   0  0  0  0  0  0  0  0  0  0  0  0
   -6.4292    4.7167    0.0000 C   0  0  0  0  0  0  0  0  0  0  0  0
   -3.8625    1.3333    0.0000 C   0  0  0  0  0  0  0  0  0  0  0  0
   -3.1458    1.7458    0.0000 C   0  0  0  0  0  0  0  0  0  0  0  0
   -7.2500    4.7917    0.0000 C   0  0  0  0  0  0  0  0  0  0  0  0
   -7.7292    4.0917    0.0000 C   0  0  0  0  0  0  0  0  0  0  0  0
  2 13  1  0  0  0  0
  3  1  2  0  0  0  0
  4  1  1  0  0  0  0
  5  1  1  0  0  0  0
  6  2  1  0  0  0  0
  7  2  1  0  0  0  0
  8  4  1  0  0  0  0
  9 11  1  0  0  0  0
 10  3  1  0  0  0  0
 11  8  1  0  0  0  0
 12  5  1  0  0  0  0
 13  9  1  0  0  0  0
 14  6  1  0  0  0  0
 15  7  1  0  0  0  0
 16  6  2  0  0  0  0
 17  7  2  0  0  0  0
 18  9  2  0  0  0  0
 19  4  2  0  0  0  0
 20  8  2  0  0  0  0
 21 10  1  0  0  0  0
 22 12  1  0  0  0  0
 23 19  1  0  0  0  0
 24 23  2  0  0  0  0
 25 22  2  0  0  0  0
 26 21  2  0  0  0  0
 12 10  2  0  0  0  0
 24 20  1  0  0  0  0
 25 26  1  0  0  0  0
 14 15  1  0  0  0  0
M  END
> <IDNUMBER>
F0846-0687

> <Chemical_Name>
N-[2-(1,3-benzoxazol-2-yl)phenyl]-2-(2,5-dioxopyrrolidin-1-yl)acetamide

> <CAS>
477501-00-1

> <PriceCoeff>
1.00

> <MW>
349.34

> <Description>
solid

> <FSP3>
0.16

> <clogP>
1.12

> <TPSA>
92.51

> <Acceptor>
5

> <Donor>
1

> <RotBonds>
4

> <HAC>
26

> <Collection>
General

$$$$
F0327-0308
  -ISIS-  06222321442D

 29 33  0  0  0  0  0  0  0  0999 V2000
    0.0292   -1.8000    0.0000 C   0  0  0  0  0  0  0  0  0  0  0  0
   -0.4125    1.9000    0.0000 N   0  0  3  0  0  0  0  0  0  0  0  0
   -0.4708   -2.4792    0.0000 N   0  0  0  0  0  0  0  0  0  0  0  0
    0.8542   -1.8000    0.0000 N   0  0  0  0  0  0  0  0  0  0  0  0
   -1.2708   -2.2167    0.0000 C   0  0  0  0  0  0  0  0  0  0  0  0
   -0.4708   -1.1167    0.0000 S   0  0  0  0  0  0  0  0  0  0  0  0
    1.2875   -1.0542    0.0000 C   0  0  0  0  0  0  0  0  0  0  0  0
   -1.2708   -1.3792    0.0000 C   0  0  0  0  0  0  0  0  0  0  0  0
   -1.2333    2.0208    0.0000 C   0  0  0  0  0  0  0  0  0  0  0  0
   -0.0333    2.6625    0.0000 C   0  0  0  0  0  0  0  0  0  0  0  0
   -2.0125   -2.6542    0.0000 C   0  0  0  0  0  0  0  0  0  0  0  0
    0.0292    1.1625    0.0000 C   0  0  0  0  0  0  0  0  0  0  0  0
    0.8667   -0.3167    0.0000 C   0  0  0  0  0  0  0  0  0  0  0  0
    2.1500   -1.0542    0.0000 O   0  0  0  0  0  0  0  0  0  0  0  0
   -0.6333    3.2458    0.0000 C   0  0  0  0  0  0  0  0  0  0  0  0
   -1.3708    2.8625    0.0000 C   0  0  0  0  0  0  0  0  0  0  0  0
    0.8292    2.8000    0.0000 O   0  0  0  0  0  0  0  0  0  0  0  0
   -1.8125    1.4208    0.0000 O   0  0  0  0  0  0  0  0  0  0  0  0
   -2.0125   -0.9542    0.0000 C   0  0  0  0  0  0  0  0  0  0  0  0
   -2.7500   -2.2375    0.0000 C   0  0  0  0  0  0  0  0  0  0  0  0
   -0.4125    0.4208    0.0000 C   0  0  0  0  0  0  0  0  0  0  0  0
    0.8500    1.1625    0.0000 C   0  0  0  0  0  0  0  0  0  0  0  0
    0.0042   -0.3167    0.0000 C   0  0  0  0  0  0  0  0  0  0  0  0
    1.2875    0.4208    0.0000 C   0  0  0  0  0  0  0  0  0  0  0  0
   -2.7500   -1.3792    0.0000 C   0  0  0  0  0  0  0  0  0  0  0  0
   -2.0125   -3.5000    0.0000 C   0  0  0  0  0  0  0  0  0  0  0  0
   -3.4958   -2.6542    0.0000 C   0  0  0  0  0  0  0  0  0  0  0  0
   -2.7500   -3.9167    0.0000 C   0  0  0  0  0  0  0  0  0  0  0  0
   -3.4958   -3.5167    0.0000 C   0  0  0  0  0  0  0  0  0  0  0  0
  2 12  1  0  0  0  0
  3  1  2  0  0  0  0
  4  1  1  0  0  0  0
  5  3  1  0  0  0  0
  6  1  1  0  0  0  0
  7  4  1  0  0  0  0
  8  6  1  0  0  0  0
  9  2  1  0  0  0  0
 10  2  1  0  0  0  0
 11  5  1  0  0  0  0
 12 22  2  0  0  0  0
 13  7  1  0  0  0  0
 14  7  2  0  0  0  0
 15 10  1  0  0  0  0
 16  9  1  0  0  0  0
 17 10  2  0  0  0  0
 18  9  2  0  0  0  0
 19  8  1  0  0  0  0
 20 11  2  0  0  0  0
 21 23  2  0  0  0  0
 22 24  1  0  0  0  0
 23 13  1  0  0  0  0
 24 13  2  0  0  0  0
 25 19  2  0  0  0  0
 26 11  1  0  0  0  0
 27 20  1  0  0  0  0
 28 26  2  0  0  0  0
 29 28  1  0  0  0  0
  8  5  2  0  0  0  0
 20 25  1  0  0  0  0
 21 12  1  0  0  0  0
 29 27  2  0  0  0  0
 15 16  1  0  0  0  0
M  END
> <IDNUMBER>
F0327-0308

> <Chemical_Name>
4-(2,5-dioxopyrrolidin-1-yl)-N-{naphtho[1,2-d][1,3]thiazol-2-yl}benzamide

> <CAS>
330200-76-5

> <PriceCoeff>
1.00

> <MW>
401.44

> <Description>
solid

> <FSP3>
0.09

> <clogP>
2.80

> <TPSA>
107.61

> <Acceptor>
4

> <Donor>
1

> <RotBonds>
3

> <HAC>
29

> <Collection>
General

$$$$
F0913-0305
  -ISIS-  06222321452D

 16 18  0  0  0  0  0  0  0  0999 V2000
    5.2125   -2.2792    0.0000 C   0  0  0  0  0  0  0  0  0  0  0  0
    4.7292   -1.6167    0.0000 N   0  0  0  0  0  0  0  0  0  0  0  0
    4.7292   -2.9542    0.0000 O   0  0  0  0  0  0  0  0  0  0  0  0
    3.9542   -1.8667    0.0000 C   0  0  0  0  0  0  0  0  0  0  0  0
    3.9542   -2.7042    0.0000 C   0  0  0  0  0  0  0  0  0  0  0  0
    6.0417   -2.2667    0.0000 C   0  0  0  0  0  0  0  0  0  0  0  0
    6.4542   -2.9750    0.0000 C   0  0  0  0  0  0  0  0  0  0  0  0
    7.2792   -2.9750    0.0000 C   0  0  0  0  0  0  0  0  0  0  0  0
    7.6917   -3.6875    0.0000 N   0  0  0  0  0  0  0  0  0  0  0  0
    6.4417   -1.5417    0.0000 C   0  0  0  0  0  0  0  0  0  0  0  0
    3.2417   -1.4542    0.0000 C   0  0  0  0  0  0  0  0  0  0  0  0
    7.2750   -1.5417    0.0000 C   0  0  0  0  0  0  0  0  0  0  0  0
    3.2417   -3.1167    0.0000 C   0  0  0  0  0  0  0  0  0  0  0  0
    7.6917   -2.2542    0.0000 C   0  0  0  0  0  0  0  0  0  0  0  0
    2.5167   -1.8792    0.0000 C   0  0  0  0  0  0  0  0  0  0  0  0
    2.5167   -2.6917    0.0000 C   0  0  0  0  0  0  0  0  0  0  0  0
  2  1  2  0  0  0  0
  3  1  1  0  0  0  0
  4  2  1  0  0  0  0
  5  3  1  0  0  0  0
  6  1  1  0  0  0  0
  7  6  1  0  0  0  0
  8  7  2  0  0  0  0
  9  8  1  0  0  0  0
 10  6  2  0  0  0  0
 11  4  1  0  0  0  0
 12 10  1  0  0  0  0
 13  5  1  0  0  0  0
 14 12  2  0  0  0  0
 15 11  2  0  0  0  0
 16 13  2  0  0  0  0
  5  4  2  0  0  0  0
  8 14  1  0  0  0  0
 15 16  1  0  0  0  0
M  END
> <IDNUMBER>
F0913-0305

> <Chemical_Name>
3-(1,3-benzoxazol-2-yl)aniline

> <CAS>
41373-36-8

> <PriceCoeff>
1.00

> <MW>
210.23

> <Description>
solid

> <FSP3>
0.00

> <clogP>
2.47

> <TPSA>
52.05

> <Acceptor>
3

> <Donor>
1

> <RotBonds>
1

> <HAC>
16

> <Collection>
General

> <Reference_compound>
CHEMBL2269947

> <Similarity>
0.8210

$$$$
F1443-0926
  -ISIS-  06222321452D

 27 30  0  0  0  0  0  0  0  0999 V2000
    7.8000   -1.1875    0.0000 C   0  0  3  0  0  0  0  0  0  0  0  0
    2.8250   -4.0042    0.0000 C   0  0  3  0  0  0  0  0  0  0  0  0
    2.8250   -5.9042    0.0000 C   0  0  0  0  0  0  0  0  0  0  0  0
    7.7625   -3.1125    0.0000 C   0  0  3  0  0  0  0  0  0  0  0  0
    4.4667   -3.0542    0.0000 C   0  0  3  0  0  0  0  0  0  0  0  0
    6.1042   -4.0292    0.0000 C   0  0  3  0  0  0  0  0  0  0  0  0
   11.1042   -1.2417    0.0000 C   0  0  3  0  0  0  0  0  0  0  0  0
    4.4667   -6.8542    0.0000 C   0  0  0  0  0  0  0  0  0  0  0  0
    6.1625   -0.2042    0.0000 C   0  0  0  0  0  0  0  0  0  0  0  0
    6.1042   -5.9167    0.0000 C   0  0  0  0  0  0  0  0  0  0  0  0
    4.4917   -1.1542    0.0000 C   0  0  0  0  0  0  0  0  0  0  0  0
    9.4042   -4.0917    0.0000 C   0  0  0  0  0  0  0  0  0  0  0  0
    1.1875   -3.0542    0.0000 C   0  0  0  0  0  0  0  0  0  0  0  0
   11.0792   -3.1625    0.0000 C   0  0  0  0  0  0  0  0  0  0  0  0
   11.1000    0.6583    0.0000 C   0  0  0  0  0  0  0  0  0  0  0  0
    1.1875   -6.8542    0.0000 C   0  0  0  0  0  0  0  0  0  0  0  0
   14.3542    4.4542    0.0000 C   0  0  0  0  0  0  0  0  0  0  0  0
   11.0792    2.5500    0.0000 C   0  0  0  0  0  0  0  0  0  0  0  0
   12.7167    3.5000    0.0000 O   0  0  0  0  0  0  0  0  0  0  0  0
   14.3542    6.3750    0.0000 O   0  0  0  0  0  0  0  0  0  0  0  0
   12.9917    0.6583    0.0000 O   0  0  0  0  0  0  0  0  0  0  0  0
    7.7917    0.7125    0.0000 C   0  0  0  0  0  0  0  0  0  0  0  0
   -0.4333   -4.0042    0.0000 C   0  0  0  0  0  0  0  0  0  0  0  0
   -0.4333   -5.9042    0.0000 C   0  0  3  0  0  0  0  0  0  0  0  0
    2.8250   -2.1042    0.0000 C   0  0  0  0  0  0  0  0  0  0  0  0
   -2.0958   -6.8542    0.0000 O   0  0  0  0  0  0  0  0  0  0  0  0
   16.0000    3.5208    0.0000 C   0  0  0  0  0  0  0  0  0  0  0  0
  2  5  1  0  0  0  0
  3  2  1  0  0  0  0
  4  1  1  0  0  0  0
  5 11  1  0  0  0  0
  6  4  1  0  0  0  0
  7  1  1  0  0  0  0
  8 10  1  0  0  0  0
  9  1  1  0  0  0  0
 10  6  1  0  0  0  0
 11  9  1  0  0  0  0
 12  4  1  0  0  0  0
 13  2  1  0  0  0  0
 14  7  1  0  0  0  0
 15  7  1  0  0  0  0
 16  3  1  0  0  0  0
 17 19  1  0  0  0  0
 18 15  1  0  0  0  0
 19 18  1  0  0  0  0
 20 17  2  0  0  0  0
 21 15  2  0  0  0  0
 22  1  1  0  0  0  0
 23 13  1  0  0  0  0
 24 23  1  0  0  0  0
 25  2  1  0  0  0  0
 26 24  1  0  0  0  0
 27 17  1  0  0  0  0
 12 14  1  0  0  0  0
  5  6  1  0  0  0  0
  3  8  2  0  0  0  0
 16 24  1  0  0  0  0
M  END
> <IDNUMBER>
F1443-0926

> <Chemical_Name>
2-{5-hydroxy-2,15-dimethyltetracyclo[8.7.0.0^{2,7}.0^{11,15}]heptadec-7-en-14-yl}-2-oxoethyl acetate

> <CAS>
1093964-35-2

> <PriceCoeff>
1.00

> <MW>
374.51

> <Description>
solid

> <FSP3>
0.83

> <clogP>
4.04

> <TPSA>
63.60

> <Acceptor>
4

> <Donor>
1

> <RotBonds>
4

> <HAC>
27

> <Collection>
General

> <Reference_compound>
CHEMBL517173

> <Similarity>
0.8110

$$$$
F1359-1824
  -ISIS-  06222321142D

 26 28  0  0  0  0  0  0  0  0999 V2000
   -1.1625    2.3833    0.0000 C   0  0  0  0  0  0  0  0  0  0  0  0
    1.3167    3.8083    0.0000 N   0  0  3  0  0  0  0  0  0  0  0  0
   -1.6458    1.7208    0.0000 N   0  0  3  0  0  0  0  0  0  0  0  0
   -0.3375    2.3750    0.0000 N   0  0  0  0  0  0  0  0  0  0  0  0
   -1.6458    3.0500    0.0000 S   0  0  0  0  0  0  0  0  0  0  0  0
   -2.4333    2.7958    0.0000 C   0  0  0  0  0  0  0  0  0  0  0  0
   -2.4333    1.9708    0.0000 C   0  0  0  0  0  0  0  0  0  0  0  0
    2.1292    3.8833    0.0000 C   0  0  0  0  0  0  0  0  0  0  0  0
    0.9792    4.5417    0.0000 C   0  0  0  0  0  0  0  0  0  0  0  0
    0.0750    3.0875    0.0000 C   0  0  0  0  0  0  0  0  0  0  0  0
    0.9000    3.0875    0.0000 C   0  0  0  0  0  0  0  0  0  0  0  0
   -3.1458    1.5583    0.0000 C   0  0  0  0  0  0  0  0  0  0  0  0
   -3.1458    3.2083    0.0000 C   0  0  0  0  0  0  0  0  0  0  0  0
    1.5917    5.0917    0.0000 C   0  0  0  0  0  0  0  0  0  0  0  0
    2.3125    4.6917    0.0000 C   0  0  0  0  0  0  0  0  0  0  0  0
    0.1792    4.7292    0.0000 O   0  0  0  0  0  0  0  0  0  0  0  0
    2.6875    3.2708    0.0000 O   0  0  0  0  0  0  0  0  0  0  0  0
   -0.3375    3.8000    0.0000 O   0  0  0  0  0  0  0  0  0  0  0  0
   -1.3958    0.9333    0.0000 C   0  0  0  0  0  0  0  0  0  0  0  0
   -3.8583    1.9708    0.0000 C   0  0  0  0  0  0  0  0  0  0  0  0
   -3.8583    2.7958    0.0000 C   0  0  0  0  0  0  0  0  0  0  0  0
   -2.7458    0.4875    0.0000 O   0  0  0  0  0  0  0  0  0  0  0  0
   -1.9458    0.3208    0.0000 C   0  0  0  0  0  0  0  0  0  0  0  0
   -4.5833    3.2125    0.0000 C   0  0  0  0  0  0  0  0  0  0  0  0
   -3.3125   -0.1167    0.0000 C   0  0  0  0  0  0  0  0  0  0  0  0
   -4.1208    0.0583    0.0000 C   0  0  0  0  0  0  0  0  0  0  0  0
  2 11  1  0  0  0  0
  3  1  1  0  0  0  0
  4  1  2  0  0  0  0
  5  1  1  0  0  0  0
  6  5  1  0  0  0  0
  7  3  1  0  0  0  0
  8  2  1  0  0  0  0
  9  2  1  0  0  0  0
 10  4  1  0  0  0  0
 11 10  1  0  0  0  0
 12  7  1  0  0  0  0
 13  6  1  0  0  0  0
 14  9  1  0  0  0  0
 15  8  1  0  0  0  0
 16  9  2  0  0  0  0
 17  8  2  0  0  0  0
 18 10  2  0  0  0  0
 19  3  1  0  0  0  0
 20 12  2  0  0  0  0
 21 13  2  0  0  0  0
 22 23  1  0  0  0  0
 23 19  1  0  0  0  0
 24 21  1  0  0  0  0
 25 22  1  0  0  0  0
 26 25  1  0  0  0  0
  7  6  2  0  0  0  0
 20 21  1  0  0  0  0
 15 14  1  0  0  0  0
M  END
> <IDNUMBER>
F1359-1824

> <Chemical_Name>
2-(2,5-dioxopyrrolidin-1-yl)-N-[(2Z)-3-(2-ethoxyethyl)-6-methyl-2,3-dihydro-1,3-benzothiazol-2-ylidene]acetamide

> <CAS>
865162-18-1

> <PriceCoeff>
1.00

> <MW>
375.44

> <Description>
solid

> <FSP3>
0.44

> <clogP>
3.43

> <TPSA>
104.58

> <Acceptor>
4

> <Donor>
0

> <RotBonds>
7

> <HAC>
26

> <Collection>
General

$$$$
F3386-1378
  -ISIS-  06222321152D

 23 24  0  0  0  0  0  0  0  0999 V2000
    5.2375   -1.9167    0.0000 S   0  0  3  0  0  0  0  0  0  0  0  0
    4.4125   -1.9167    0.0000 C   0  0  0  0  0  0  0  0  0  0  0  0
    6.0625   -1.9042    0.0000 N   0  0  0  0  0  0  0  0  0  0  0  0
    6.8875   -1.9042    0.0000 C   0  0  0  0  0  0  0  0  0  0  0  0
    4.0167   -2.6375    0.0000 C   0  0  0  0  0  0  0  0  0  0  0  0
    5.2417   -2.7417    0.0000 O   0  0  0  0  0  0  0  0  0  0  0  0
    5.2292   -1.0917    0.0000 O   0  0  0  0  0  0  0  0  0  0  0  0
    7.2917   -2.6167    0.0000 C   0  0  0  0  0  0  0  0  0  0  0  0
    3.1917   -2.6500    0.0000 C   0  0  0  0  0  0  0  0  0  0  0  0
    3.9917   -1.2167    0.0000 C   0  0  0  0  0  0  0  0  0  0  0  0
    7.2917   -1.1917    0.0000 C   0  0  0  0  0  0  0  0  0  0  0  0
    2.7667   -1.9375    0.0000 C   0  0  0  0  0  0  0  0  0  0  0  0
    3.1792   -1.2167    0.0000 C   0  0  0  0  0  0  0  0  0  0  0  0
    8.1125   -1.1875    0.0000 C   0  0  0  0  0  0  0  0  0  0  0  0
    8.1167   -2.6125    0.0000 C   0  0  0  0  0  0  0  0  0  0  0  0
    2.7875   -3.3667    0.0000 C   0  0  3  0  0  0  0  0  0  0  0  0
    8.5292   -1.9000    0.0000 C   0  0  0  0  0  0  0  0  0  0  0  0
    8.5292   -3.3292    0.0000 Cl  0  0  0  0  0  0  0  0  0  0  0  0
    6.8750   -0.4792    0.0000 O   0  0  0  0  0  0  0  0  0  0  0  0
    4.4042   -0.4917    0.0000 O   0  0  0  0  0  0  0  0  0  0  0  0
    1.9625   -3.3792    0.0000 C   0  0  0  0  0  0  0  0  0  0  0  0
    3.2125   -4.0792    0.0000 C   0  0  0  0  0  0  0  0  0  0  0  0
    5.2292   -0.4917    0.0000 C   0  0  0  0  0  0  0  0  0  0  0  0
  2  1  1  0  0  0  0
  3  1  1  0  0  0  0
  4  3  1  0  0  0  0
  5  2  1  0  0  0  0
  6  1  2  0  0  0  0
  7  1  2  0  0  0  0
  8  4  2  0  0  0  0
  9  5  2  0  0  0  0
 10  2  2  0  0  0  0
 11  4  1  0  0  0  0
 12 13  2  0  0  0  0
 13 10  1  0  0  0  0
 14 11  2  0  0  0  0
 15  8  1  0  0  0  0
 16  9  1  0  0  0  0
 17 14  1  0  0  0  0
 18 15  1  0  0  0  0
 19 11  1  0  0  0  0
 20 10  1  0  0  0  0
 21 16  1  0  0  0  0
 22 16  1  0  0  0  0
 23 20  1  0  0  0  0
  9 12  1  0  0  0  0
 17 15  2  0  0  0  0
M  END
> <IDNUMBER>
F3386-1378

> <Chemical_Name>
N-(5-chloro-2-hydroxyphenyl)-2-methoxy-5-(propan-2-yl)benzene-1-sulfonamide

> <CAS>
1172438-39-9

> <PriceCoeff>
1.00

> <MW>
355.84

> <Description>
solid

> <FSP3>
0.25

> <clogP>
4.09

> <TPSA>
84.01

> <Acceptor>
5

> <Donor>
2

> <RotBonds>
5

> <HAC>
23

> <Collection>
General

$$$$
F2966-0198
  -ISIS-  06222321442D

 34 38  0  0  0  0  0  0  0  0999 V2000
   -4.6958    3.7583    0.0000 C   0  0  0  0  0  0  0  0  0  0  0  0
   -5.6708    3.3083    0.0000 N   0  0  0  0  0  0  0  0  0  0  0  0
   -3.7583    3.2333    0.0000 N   0  0  3  0  0  0  0  0  0  0  0  0
   -7.2750    0.9708    0.0000 N   0  0  3  0  0  0  0  0  0  0  0  0
   -4.8208    4.8167    0.0000 S   0  0  0  0  0  0  0  0  0  0  0  0
   -3.5833    1.3333    0.0000 C   0  0  0  0  0  0  0  0  0  0  0  0
   -6.3917    4.0792    0.0000 C   0  0  0  0  0  0  0  0  0  0  0  0
   -6.2917    0.5208    0.0000 C   0  0  0  0  0  0  0  0  0  0  0  0
   -8.2292    0.4750    0.0000 C   0  0  0  0  0  0  0  0  0  0  0  0
   -7.4375    2.0333    0.0000 C   0  0  0  0  0  0  0  0  0  0  0  0
   -5.8750    5.0250    0.0000 C   0  0  0  0  0  0  0  0  0  0  0  0
   -4.4583    0.7083    0.0000 C   0  0  0  0  0  0  0  0  0  0  0  0
   -5.4250    1.1458    0.0000 C   0  0  0  0  0  0  0  0  0  0  0  0
   -2.9208    3.6458    0.0000 C   0  0  0  0  0  0  0  0  0  0  0  0
   -7.4625    4.0792    0.0000 C   0  0  0  0  0  0  0  0  0  0  0  0
   -2.7375    0.9583    0.0000 O   0  0  0  0  0  0  0  0  0  0  0  0
   -8.9917    1.2250    0.0000 C   0  0  0  0  0  0  0  0  0  0  0  0
   -8.5167    2.1875    0.0000 C   0  0  0  0  0  0  0  0  0  0  0  0
   -8.4042   -0.5750    0.0000 O   0  0  0  0  0  0  0  0  0  0  0  0
   -6.6792    2.7833    0.0000 O   0  0  0  0  0  0  0  0  0  0  0  0
   -1.8208    6.2542    0.0000 N   0  0  0  0  0  0  0  0  0  0  0  0
   -2.8500    4.7125    0.0000 C   0  0  0  0  0  0  0  0  0  0  0  0
   -8.0042    3.1458    0.0000 S   0  0  0  0  0  0  0  0  0  0  0  0
   -6.1917   -0.5417    0.0000 C   0  0  0  0  0  0  0  0  0  0  0  0
   -6.4042    5.9417    0.0000 C   0  0  0  0  0  0  0  0  0  0  0  0
   -1.8958    5.1792    0.0000 C   0  0  0  0  0  0  0  0  0  0  0  0
   -4.3458   -0.3667    0.0000 C   0  0  0  0  0  0  0  0  0  0  0  0
   -5.2208   -0.9917    0.0000 C   0  0  0  0  0  0  0  0  0  0  0  0
   -7.4917    5.9292    0.0000 C   0  0  0  0  0  0  0  0  0  0  0  0
   -8.0000    4.9917    0.0000 C   0  0  0  0  0  0  0  0  0  0  0  0
   -2.7083    6.8417    0.0000 C   0  0  0  0  0  0  0  0  0  0  0  0
   -3.7458    5.3125    0.0000 C   0  0  0  0  0  0  0  0  0  0  0  0
   -9.0792    3.1333    0.0000 C   0  0  0  0  0  0  0  0  0  0  0  0
   -3.6708    6.3750    0.0000 C   0  0  0  0  0  0  0  0  0  0  0  0
  2  1  2  0  0  0  0
  3  1  1  0  0  0  0
  4  8  1  0  0  0  0
  5  1  1  0  0  0  0
  6  3  1  0  0  0  0
  7  2  1  0  0  0  0
  8 13  1  0  0  0  0
  9  4  1  0  0  0  0
 10  4  1  0  0  0  0
 11  5  1  0  0  0  0
 12  6  1  0  0  0  0
 13 12  2  0  0  0  0
 14  3  1  0  0  0  0
 15  7  1  0  0  0  0
 16  6  2  0  0  0  0
 17  9  1  0  0  0  0
 18 10  1  0  0  0  0
 19  9  2  0  0  0  0
 20 10  2  0  0  0  0
 21 26  2  0  0  0  0
 22 14  1  0  0  0  0
 23 15  1  0  0  0  0
 24 28  1  0  0  0  0
 25 11  1  0  0  0  0
 26 22  1  0  0  0  0
 27 12  1  0  0  0  0
 28 27  2  0  0  0  0
 29 25  2  0  0  0  0
 30 15  2  0  0  0  0
 31 34  2  0  0  0  0
 32 22  2  0  0  0  0
 33 23  1  0  0  0  0
 34 32  1  0  0  0  0
  7 11  2  0  0  0  0
 29 30  1  0  0  0  0
 21 31  1  0  0  0  0
 24  8  2  0  0  0  0
 17 18  1  0  0  0  0
M  END
> <IDNUMBER>
F2966-0198

> <Chemical_Name>
3-(2,5-dioxopyrrolidin-1-yl)-N-[4-(methylsulfanyl)-1,3-benzothiazol-2-yl]-N-[(pyridin-3-yl)methyl]benzamide

> <CAS>
923488-66-8

> <PriceCoeff>
1.00

> <MW>
488.58

> <Description>
solid

> <FSP3>
0.16

> <clogP>
2.51

> <TPSA>
137.01

> <Acceptor>
5

> <Donor>
1

> <RotBonds>
7

> <HAC>
34

> <Collection>
General

$$$$
F1365-2748
  -ISIS-  06222321142D

 26 28  0  0  0  0  0  0  0  0999 V2000
   -1.1625    2.3833    0.0000 C   0  0  0  0  0  0  0  0  0  0  0  0
    1.3167    3.8083    0.0000 N   0  0  3  0  0  0  0  0  0  0  0  0
   -1.6458    1.7208    0.0000 N   0  0  3  0  0  0  0  0  0  0  0  0
   -0.3375    2.3750    0.0000 N   0  0  0  0  0  0  0  0  0  0  0  0
   -1.6458    3.0500    0.0000 S   0  0  0  0  0  0  0  0  0  0  0  0
   -4.5833    3.2125    0.0000 N   0  3  0  0  0  0  0  0  0  0  0  0
   -2.4333    2.7958    0.0000 C   0  0  0  0  0  0  0  0  0  0  0  0
   -2.4333    1.9708    0.0000 C   0  0  0  0  0  0  0  0  0  0  0  0
    2.1292    3.8833    0.0000 C   0  0  0  0  0  0  0  0  0  0  0  0
    0.9792    4.5417    0.0000 C   0  0  0  0  0  0  0  0  0  0  0  0
    0.0750    3.0875    0.0000 C   0  0  0  0  0  0  0  0  0  0  0  0
   -3.1458    3.2083    0.0000 C   0  0  0  0  0  0  0  0  0  0  0  0
   -3.8583    2.7958    0.0000 C   0  0  0  0  0  0  0  0  0  0  0  0
    0.9000    3.0875    0.0000 C   0  0  0  0  0  0  0  0  0  0  0  0
   -1.9458    0.3208    0.0000 C   0  0  0  0  0  0  0  0  0  0  0  0
   -3.1458    1.5583    0.0000 C   0  0  0  0  0  0  0  0  0  0  0  0
   -2.4958   -0.2917    0.0000 C   0  0  0  0  0  0  0  0  0  0  0  0
   -4.5833    4.0292    0.0000 O   0  5  0  0  0  0  0  0  0  0  0  0
   -5.2958    2.8000    0.0000 O   0  0  0  0  0  0  0  0  0  0  0  0
    1.5917    5.0917    0.0000 C   0  0  0  0  0  0  0  0  0  0  0  0
    2.3125    4.6917    0.0000 C   0  0  0  0  0  0  0  0  0  0  0  0
   -3.8583    1.9708    0.0000 C   0  0  0  0  0  0  0  0  0  0  0  0
    0.1792    4.7292    0.0000 O   0  0  0  0  0  0  0  0  0  0  0  0
    2.6875    3.2708    0.0000 O   0  0  0  0  0  0  0  0  0  0  0  0
   -0.3375    3.8000    0.0000 O   0  0  0  0  0  0  0  0  0  0  0  0
   -1.3958    0.9333    0.0000 C   0  0  0  0  0  0  0  0  0  0  0  0
  2 14  1  0  0  0  0
  3  1  1  0  0  0  0
  4  1  2  0  0  0  0
  5  1  1  0  0  0  0
  6 13  1  0  0  0  0
  7  5  1  0  0  0  0
  8  3  1  0  0  0  0
  9  2  1  0  0  0  0
 10  2  1  0  0  0  0
 11  4  1  0  0  0  0
 12  7  1  0  0  0  0
 13 12  2  0  0  0  0
 14 11  1  0  0  0  0
 15 26  1  0  0  0  0
 16  8  1  0  0  0  0
 17 15  3  0  0  0  0
 18  6  1  0  0  0  0
 19  6  2  0  0  0  0
 20 10  1  0  0  0  0
 21  9  1  0  0  0  0
 22 16  2  0  0  0  0
 23 10  2  0  0  0  0
 24  9  2  0  0  0  0
 25 11  2  0  0  0  0
 26  3  1  0  0  0  0
  8  7  2  0  0  0  0
 22 13  1  0  0  0  0
 21 20  1  0  0  0  0
M  CHG  2   6   1  18  -1
M  END
> <IDNUMBER>
F1365-2748

> <Chemical_Name>
2-(2,5-dioxopyrrolidin-1-yl)-N-[(2Z)-6-nitro-3-(prop-2-yn-1-yl)-2,3-dihydro-1,3-benzothiazol-2-ylidene]acetamide

> <CAS>
865181-70-0

> <PriceCoeff>
1.00

> <MW>
372.36

> <Description>
solid

> <FSP3>
0.25

> <clogP>
2.62

> <TPSA>
138.49

> <Acceptor>
5

> <Donor>
0

> <RotBonds>
6

> <HAC>
26

> <Collection>
General

$$$$
F2630-0142
  -ISIS-  06222321442D

 19 20  0  0  0  0  0  0  0  0999 V2000
    3.3542   -1.8500    0.0000 C   0  0  0  0  0  0  0  0  0  0  0  0
    7.5417   -2.7500    0.0000 N   0  3  0  0  0  0  0  0  0  0  0  0
    6.9292   -2.2000    0.0000 C   0  0  0  0  0  0  0  0  0  0  0  0
    4.1417   -1.5917    0.0000 C   0  0  0  0  0  0  0  0  0  0  0  0
    2.0250   -1.8500    0.0000 N   0  0  0  0  0  0  0  0  0  0  0  0
    3.1000   -2.6375    0.0000 C   0  0  0  0  0  0  0  0  0  0  0  0
    2.2750   -2.6375    0.0000 N   0  0  0  0  0  0  0  0  0  0  0  0
    2.6875   -1.3667    0.0000 S   0  0  0  0  0  0  0  0  0  0  0  0
    4.7542   -2.1500    0.0000 N   0  0  0  0  0  0  0  0  0  0  0  0
    6.1500   -2.4500    0.0000 C   0  0  0  0  0  0  0  0  0  0  0  0
    7.1042   -1.3917    0.0000 C   0  0  0  0  0  0  0  0  0  0  0  0
    7.3667   -3.5542    0.0000 O   0  5  0  0  0  0  0  0  0  0  0  0
    8.3292   -2.5000    0.0000 O   0  0  0  0  0  0  0  0  0  0  0  0
    5.5417   -1.8917    0.0000 C   0  0  0  0  0  0  0  0  0  0  0  0
    4.3167   -0.7917    0.0000 O   0  0  0  0  0  0  0  0  0  0  0  0
    6.4917   -0.8375    0.0000 C   0  0  0  0  0  0  0  0  0  0  0  0
    5.7042   -1.0917    0.0000 C   0  0  0  0  0  0  0  0  0  0  0  0
    7.8917   -1.1375    0.0000 Cl  0  0  0  0  0  0  0  0  0  0  0  0
    3.5875   -3.3042    0.0000 C   0  0  0  0  0  0  0  0  0  0  0  0
  2  3  1  0  0  0  0
  3 10  1  0  0  0  0
  4  1  1  0  0  0  0
  5  8  1  0  0  0  0
  6  1  2  0  0  0  0
  7  6  1  0  0  0  0
  8  1  1  0  0  0  0
  9  4  1  0  0  0  0
 10 14  2  0  0  0  0
 11 16  1  0  0  0  0
 12  2  1  0  0  0  0
 13  2  2  0  0  0  0
 14  9  1  0  0  0  0
 15  4  2  0  0  0  0
 16 17  2  0  0  0  0
 17 14  1  0  0  0  0
 18 11  1  0  0  0  0
 19  6  1  0  0  0  0
  5  7  2  0  0  0  0
  3 11  2  0  0  0  0
M  CHG  2   2   1  12  -1
M  END
> <IDNUMBER>
F2630-0142

> <Chemical_Name>
N-(4-chloro-3-nitrophenyl)-4-methyl-1,2,3-thiadiazole-5-carboxamide

> <CAS>
881444-12-8

> <PriceCoeff>
1.00

> <MW>
298.71

> <Description>
solid

> <FSP3>
0.10

> <clogP>
1.74

> <TPSA>
126.26

> <Acceptor>
5

> <Donor>
1

> <RotBonds>
3

> <HAC>
19

> <Collection>
General

$$$$
F0777-0561
  -ISIS-  06222321142D

 13 13  0  0  0  0  0  0  0  0999 V2000
   -0.7958    0.2708    0.0000 C   0  0  0  0  0  0  0  0  0  0  0  0
   -1.3333   -0.6542    0.0000 N   0  0  0  0  0  0  0  0  0  0  0  0
   -1.8708   -1.6167    0.0000 C   0  0  0  0  0  0  0  0  0  0  0  0
   -0.2500    0.5708    0.0000 S   0  0  0  0  0  0  0  0  0  0  0  0
   -0.7958   -0.3542    0.0000 N   0  0  0  0  0  0  0  0  0  0  0  0
   -1.8708   -2.2500    0.0000 C   0  0  0  0  0  0  0  0  0  0  0  0
   -1.3333   -1.3000    0.0000 C   0  0  0  0  0  0  0  0  0  0  0  0
   -1.3333    0.5708    0.0000 N   0  0  0  0  0  0  0  0  0  0  0  0
   -1.3333   -2.5500    0.0000 O   0  0  0  0  0  0  0  0  0  0  0  0
   -2.4125   -1.3000    0.0000 C   0  0  0  0  0  0  0  0  0  0  0  0
   -2.4125   -2.5542    0.0000 C   0  0  0  0  0  0  0  0  0  0  0  0
   -2.9500   -1.6167    0.0000 C   0  0  0  0  0  0  0  0  0  0  0  0
   -2.9500   -2.2500    0.0000 C   0  0  0  0  0  0  0  0  0  0  0  0
  2  5  1  0  0  0  0
  3  7  1  0  0  0  0
  4  1  2  0  0  0  0
  5  1  1  0  0  0  0
  6  3  2  0  0  0  0
  7  2  2  0  0  0  0
  8  1  1  0  0  0  0
  9  6  1  0  0  0  0
 10  3  1  0  0  0  0
 11  6  1  0  0  0  0
 12 10  2  0  0  0  0
 13 12  1  0  0  0  0
 13 11  2  0  0  0  0
M  END
> <IDNUMBER>
F0777-0561

> <Chemical_Name>
[(E)-[(2-hydroxyphenyl)methylidene]amino]thiourea

> <CAS>
17149-00-7

> <PriceCoeff>
1.00

> <MW>
195.24

> <Description>
solid

> <FSP3>
0.00

> <clogP>
1.20

> <TPSA>
102.73

> <Acceptor>
3

> <Donor>
4

> <RotBonds>
2

> <HAC>
13

> <Collection>
General

> <Reference_compound>
CHEMBL242113

> <Similarity>
0.8800

$$$$
F3386-1383
  -ISIS-  06222321462D

 21 22  0  0  0  0  0  0  0  0999 V2000
    5.5375   -1.9167    0.0000 S   0  0  3  0  0  0  0  0  0  0  0  0
    6.3625   -1.9042    0.0000 N   0  0  0  0  0  0  0  0  0  0  0  0
    7.1875   -1.9042    0.0000 C   0  0  0  0  0  0  0  0  0  0  0  0
    4.7125   -1.9167    0.0000 C   0  0  0  0  0  0  0  0  0  0  0  0
    4.3167   -2.6375    0.0000 C   0  0  0  0  0  0  0  0  0  0  0  0
    7.5917   -2.6167    0.0000 C   0  0  0  0  0  0  0  0  0  0  0  0
    5.5292   -1.0917    0.0000 O   0  0  0  0  0  0  0  0  0  0  0  0
    5.5417   -2.7417    0.0000 O   0  0  0  0  0  0  0  0  0  0  0  0
    3.4917   -2.6500    0.0000 C   0  0  0  0  0  0  0  0  0  0  0  0
    7.5917   -1.1917    0.0000 C   0  0  0  0  0  0  0  0  0  0  0  0
    3.0667   -1.9375    0.0000 C   0  0  0  0  0  0  0  0  0  0  0  0
    4.2917   -1.2167    0.0000 C   0  0  0  0  0  0  0  0  0  0  0  0
    3.4792   -1.2167    0.0000 C   0  0  0  0  0  0  0  0  0  0  0  0
    8.4125   -1.1875    0.0000 C   0  0  0  0  0  0  0  0  0  0  0  0
    8.4167   -2.6125    0.0000 C   0  0  0  0  0  0  0  0  0  0  0  0
    2.2417   -1.9417    0.0000 Cl  0  0  0  0  0  0  0  0  0  0  0  0
    8.8292   -1.9000    0.0000 C   0  0  0  0  0  0  0  0  0  0  0  0
    3.0875   -3.3667    0.0000 O   0  0  0  0  0  0  0  0  0  0  0  0
    8.8292   -3.3292    0.0000 Cl  0  0  0  0  0  0  0  0  0  0  0  0
    7.1750   -0.4792    0.0000 O   0  0  0  0  0  0  0  0  0  0  0  0
    2.2542   -3.3792    0.0000 C   0  0  0  0  0  0  0  0  0  0  0  0
  2  1  1  0  0  0  0
  3  2  1  0  0  0  0
  4  1  1  0  0  0  0
  5  4  1  0  0  0  0
  6  3  2  0  0  0  0
  7  1  2  0  0  0  0
  8  1  2  0  0  0  0
  9  5  2  0  0  0  0
 10  3  1  0  0  0  0
 11 13  2  0  0  0  0
 12  4  2  0  0  0  0
 13 12  1  0  0  0  0
 14 10  2  0  0  0  0
 15  6  1  0  0  0  0
 16 11  1  0  0  0  0
 17 14  1  0  0  0  0
 18  9  1  0  0  0  0
 19 15  1  0  0  0  0
 20 10  1  0  0  0  0
 21 18  1  0  0  0  0
 11  9  1  0  0  0  0
 17 15  2  0  0  0  0
M  END
> <IDNUMBER>
F3386-1383

> <Chemical_Name>
4-chloro-N-(5-chloro-2-hydroxyphenyl)-3-methoxybenzene-1-sulfonamide

> <CAS>
1172913-35-7

> <PriceCoeff>
1.00

> <MW>
348.20

> <Description>
solid

> <FSP3>
0.08

> <clogP>
3.86

> <TPSA>
84.01

> <Acceptor>
5

> <Donor>
2

> <RotBonds>
4

> <HAC>
21

> <Collection>
General

$$$$
F1814-1155
  -ISIS-  06222321142D

 26 28  0  0  0  0  0  0  0  0999 V2000
   -5.2833    2.1958    0.0000 C   0  0  0  0  0  0  0  0  0  0  0  0
   -6.0292    2.5333    0.0000 S   0  0  0  0  0  0  0  0  0  0  0  0
   -6.5917    1.9083    0.0000 C   0  0  0  0  0  0  0  0  0  0  0  0
   -5.3625    1.3500    0.0000 N   0  0  3  0  0  0  0  0  0  0  0  0
   -3.8708    4.6292    0.0000 N   0  0  3  0  0  0  0  0  0  0  0  0
   -6.1667    1.1833    0.0000 C   0  0  0  0  0  0  0  0  0  0  0  0
   -4.5833    2.5958    0.0000 N   0  0  0  0  0  0  0  0  0  0  0  0
   -3.2000    5.1042    0.0000 C   0  0  0  0  0  0  0  0  0  0  0  0
   -4.5333    5.1042    0.0000 C   0  0  0  0  0  0  0  0  0  0  0  0
   -4.5833    3.3958    0.0000 C   0  0  0  0  0  0  0  0  0  0  0  0
   -3.8708    3.8000    0.0000 C   0  0  0  0  0  0  0  0  0  0  0  0
   -7.4417    1.9083    0.0000 C   0  0  0  0  0  0  0  0  0  0  0  0
   -6.5917    0.4583    0.0000 C   0  0  0  0  0  0  0  0  0  0  0  0
   -3.4583    5.9000    0.0000 C   0  0  0  0  0  0  0  0  0  0  0  0
   -4.2833    5.8917    0.0000 C   0  0  0  0  0  0  0  0  0  0  0  0
   -2.4125    4.8417    0.0000 O   0  0  0  0  0  0  0  0  0  0  0  0
   -5.3208    4.8542    0.0000 O   0  0  0  0  0  0  0  0  0  0  0  0
   -5.2833    3.7958    0.0000 O   0  0  0  0  0  0  0  0  0  0  0  0
   -7.8542    1.1833    0.0000 C   0  0  0  0  0  0  0  0  0  0  0  0
   -7.4417    0.4500    0.0000 C   0  0  0  0  0  0  0  0  0  0  0  0
   -4.7708    0.8083    0.0000 C   0  0  0  0  0  0  0  0  0  0  0  0
   -7.8417    2.6208    0.0000 O   0  0  0  0  0  0  0  0  0  0  0  0
   -6.1875   -0.2500    0.0000 O   0  0  0  0  0  0  0  0  0  0  0  0
   -6.5167   -1.0042    0.0000 C   0  0  0  0  0  0  0  0  0  0  0  0
   -8.6750    2.6250    0.0000 C   0  0  0  0  0  0  0  0  0  0  0  0
   -4.9458    0.0083    0.0000 C   0  0  0  0  0  0  0  0  0  0  0  0
  2  1  1  0  0  0  0
  3  2  1  0  0  0  0
  4  1  1  0  0  0  0
  5 11  1  0  0  0  0
  6  4  1  0  0  0  0
  7  1  2  0  0  0  0
  8  5  1  0  0  0  0
  9  5  1  0  0  0  0
 10  7  1  0  0  0  0
 11 10  1  0  0  0  0
 12  3  1  0  0  0  0
 13  6  1  0  0  0  0
 14  8  1  0  0  0  0
 15  9  1  0  0  0  0
 16  8  2  0  0  0  0
 17  9  2  0  0  0  0
 18 10  2  0  0  0  0
 19 12  2  0  0  0  0
 20 13  2  0  0  0  0
 21  4  1  0  0  0  0
 22 12  1  0  0  0  0
 23 13  1  0  0  0  0
 24 23  1  0  0  0  0
 25 22  1  0  0  0  0
 26 21  1  0  0  0  0
  6  3  2  0  0  0  0
 19 20  1  0  0  0  0
 14 15  1  0  0  0  0
M  END
> <IDNUMBER>
F1814-1155

> <Chemical_Name>
2-(2,5-dioxopyrrolidin-1-yl)-N-[(2Z)-3-ethyl-4,7-dimethoxy-2,3-dihydro-1,3-benzothiazol-2-ylidene]acetamide

> <CAS>
1164563-58-9

> <PriceCoeff>
1.00

> <MW>
377.41

> <Description>
solid

> <FSP3>
0.41

> <clogP>
3.31

> <TPSA>
113.81

> <Acceptor>
5

> <Donor>
0

> <RotBonds>
6

> <HAC>
26

> <Collection>
General

$$$$
F1815-1183
  -ISIS-  06222321452D

 25 27  0  0  0  0  0  0  0  0999 V2000
   -4.5833    2.5583    0.0000 C   0  0  0  0  0  0  0  0  0  0  0  0
   -3.1583    5.0292    0.0000 N   0  0  3  0  0  0  0  0  0  0  0  0
   -4.6750    1.7375    0.0000 N   0  0  3  0  0  0  0  0  0  0  0  0
   -3.8625    2.9833    0.0000 N   0  0  0  0  0  0  0  0  0  0  0  0
   -5.3125    2.8958    0.0000 S   0  0  0  0  0  0  0  0  0  0  0  0
   -5.4708    1.5833    0.0000 C   0  0  0  0  0  0  0  0  0  0  0  0
   -5.8750    2.2958    0.0000 C   0  0  0  0  0  0  0  0  0  0  0  0
   -2.4875    5.5042    0.0000 C   0  0  0  0  0  0  0  0  0  0  0  0
   -3.8208    5.5125    0.0000 C   0  0  0  0  0  0  0  0  0  0  0  0
   -3.8708    3.8000    0.0000 C   0  0  0  0  0  0  0  0  0  0  0  0
   -3.1583    4.2042    0.0000 C   0  0  0  0  0  0  0  0  0  0  0  0
   -5.8958    0.8833    0.0000 C   0  0  0  0  0  0  0  0  0  0  0  0
   -3.5625    6.2917    0.0000 C   0  0  0  0  0  0  0  0  0  0  0  0
   -2.7375    6.3000    0.0000 C   0  0  0  0  0  0  0  0  0  0  0  0
   -4.6000    5.2667    0.0000 O   0  0  0  0  0  0  0  0  0  0  0  0
   -1.7083    5.2500    0.0000 O   0  0  0  0  0  0  0  0  0  0  0  0
   -4.5833    4.2125    0.0000 O   0  0  0  0  0  0  0  0  0  0  0  0
   -4.0583    1.1750    0.0000 C   0  0  0  0  0  0  0  0  0  0  0  0
   -4.2458    0.3708    0.0000 C   0  0  0  0  0  0  0  0  0  0  0  0
   -3.6333   -0.1917    0.0000 C   0  0  0  0  0  0  0  0  0  0  0  0
   -6.6917    2.3208    0.0000 C   0  0  0  0  0  0  0  0  0  0  0  0
   -5.4958    0.1583    0.0000 O   0  0  0  0  0  0  0  0  0  0  0  0
   -7.1167    1.6125    0.0000 C   0  0  0  0  0  0  0  0  0  0  0  0
   -6.7042    0.8875    0.0000 C   0  0  0  0  0  0  0  0  0  0  0  0
   -5.9250   -0.5417    0.0000 C   0  0  0  0  0  0  0  0  0  0  0  0
  2 11  1  0  0  0  0
  3  1  1  0  0  0  0
  4  1  2  0  0  0  0
  5  1  1  0  0  0  0
  6  3  1  0  0  0  0
  7  5  1  0  0  0  0
  8  2  1  0  0  0  0
  9  2  1  0  0  0  0
 10  4  1  0  0  0  0
 11 10  1  0  0  0  0
 12  6  1  0  0  0  0
 13  9  1  0  0  0  0
 14  8  1  0  0  0  0
 15  9  2  0  0  0  0
 16  8  2  0  0  0  0
 17 10  2  0  0  0  0
 18  3  1  0  0  0  0
 19 18  1  0  0  0  0
 20 19  2  0  0  0  0
 21  7  1  0  0  0  0
 22 12  1  0  0  0  0
 23 21  2  0  0  0  0
 24 12  2  0  0  0  0
 25 22  1  0  0  0  0
  6  7  2  0  0  0  0
 23 24  1  0  0  0  0
 14 13  1  0  0  0  0
M  END
> <IDNUMBER>
F1815-1183

> <Chemical_Name>
2-(2,5-dioxopyrrolidin-1-yl)-N-[(2Z)-4-methoxy-3-(prop-2-en-1-yl)-2,3-dihydro-1,3-benzothiazol-2-ylidene]acetamide

> <CAS>
1164535-92-5

> <PriceCoeff>
1.00

> <MW>
359.40

> <Description>
solid

> <FSP3>
0.29

> <clogP>
3.47

> <TPSA>
104.58

> <Acceptor>
4

> <Donor>
0

> <RotBonds>
6

> <HAC>
25

> <Collection>
General

$$$$
F5581-0445
  -ISIS-  06222321462D

 34 38  0  0  0  0  0  0  0  0999 V2000
   -5.3208    3.1083    0.0000 C   0  0  0  0  0  0  0  0  0  0  0  0
   -4.6625    2.7208    0.0000 N   0  0  3  0  0  0  0  0  0  0  0  0
   -2.7250    0.8458    0.0000 N   0  0  3  0  0  0  0  0  0  0  0  0
   -5.3958    3.8583    0.0000 N   0  0  0  0  0  0  0  0  0  0  0  0
   -6.0000    2.8083    0.0000 S   0  0  0  0  0  0  0  0  0  0  0  0
   -4.0208    3.0958    0.0000 C   0  0  0  0  0  0  0  0  0  0  0  0
   -2.7208    1.5958    0.0000 C   0  0  0  0  0  0  0  0  0  0  0  0
   -6.5042    3.3708    0.0000 C   0  0  0  0  0  0  0  0  0  0  0  0
   -2.1458    0.3833    0.0000 C   0  0  0  0  0  0  0  0  0  0  0  0
   -3.3500    0.4333    0.0000 C   0  0  0  0  0  0  0  0  0  0  0  0
   -6.1292    4.0125    0.0000 C   0  0  0  0  0  0  0  0  0  0  0  0
   -5.3208    0.8458    0.0000 N   0  0  3  0  0  0  0  0  0  0  0  0
   -3.3708    2.7208    0.0000 C   0  0  0  0  0  0  0  0  0  0  0  0
   -4.7583    0.3375    0.0000 N   0  0  0  0  0  0  0  0  0  0  0  0
   -4.6708    1.9708    0.0000 C   0  0  0  0  0  0  0  0  0  0  0  0
   -3.3708    1.9708    0.0000 C   0  0  0  0  0  0  0  0  0  0  0  0
   -7.2542    3.3708    0.0000 C   0  0  0  0  0  0  0  0  0  0  0  0
   -5.3208    1.5958    0.0000 C   0  0  0  0  0  0  0  0  0  0  0  0
   -5.8083   -0.2667    0.0000 C   0  0  0  0  0  0  0  0  0  0  0  0
   -4.0208    3.8458    0.0000 O   0  0  0  0  0  0  0  0  0  0  0  0
   -5.9708    0.4708    0.0000 C   0  0  0  0  0  0  0  0  0  0  0  0
   -2.4083   -0.3167    0.0000 C   0  0  0  0  0  0  0  0  0  0  0  0
   -3.1458   -0.2917    0.0000 C   0  0  0  0  0  0  0  0  0  0  0  0
   -1.4208    0.5833    0.0000 O   0  0  0  0  0  0  0  0  0  0  0  0
   -4.0625    0.6958    0.0000 O   0  0  0  0  0  0  0  0  0  0  0  0
   -5.0708   -0.3417    0.0000 C   0  0  0  0  0  0  0  0  0  0  0  0
   -6.5042    4.6542    0.0000 C   0  0  0  0  0  0  0  0  0  0  0  0
   -7.6292    4.0125    0.0000 C   0  0  0  0  0  0  0  0  0  0  0  0
   -7.2542    4.6542    0.0000 C   0  0  0  0  0  0  0  0  0  0  0  0
   -2.0708    1.9708    0.0000 C   0  0  0  0  0  0  0  0  0  0  0  0
   -2.7208    3.0958    0.0000 C   0  0  0  0  0  0  0  0  0  0  0  0
   -8.3792    4.0125    0.0000 O   0  0  0  0  0  0  0  0  0  0  0  0
   -2.0708    2.7208    0.0000 C   0  0  0  0  0  0  0  0  0  0  0  0
   -8.7542    4.6542    0.0000 C   0  0  0  0  0  0  0  0  0  0  0  0
  2  1  1  0  0  0  0
  3  7  1  0  0  0  0
  4  1  2  0  0  0  0
  5  1  1  0  0  0  0
  6  2  1  0  0  0  0
  7 16  1  0  0  0  0
  8  5  1  0  0  0  0
  9  3  1  0  0  0  0
 10  3  1  0  0  0  0
 11  4  1  0  0  0  0
 12 18  1  0  0  0  0
 13  6  1  0  0  0  0
 14 12  1  0  0  0  0
 15  2  1  0  0  0  0
 16 13  2  0  0  0  0
 17  8  1  0  0  0  0
 18 15  1  0  0  0  0
 19 21  2  0  0  0  0
 20  6  2  0  0  0  0
 21 12  1  0  0  0  0
 22  9  1  0  0  0  0
 23 10  1  0  0  0  0
 24  9  2  0  0  0  0
 25 10  2  0  0  0  0
 26 14  2  0  0  0  0
 27 11  1  0  0  0  0
 28 17  2  0  0  0  0
 29 27  2  0  0  0  0
 30 33  1  0  0  0  0
 31 13  1  0  0  0  0
 32 28  1  0  0  0  0
 33 31  2  0  0  0  0
 34 32  1  0  0  0  0
 11  8  2  0  0  0  0
 28 29  1  0  0  0  0
 26 19  1  0  0  0  0
  7 30  2  0  0  0  0
 23 22  1  0  0  0  0
M  END
> <IDNUMBER>
F5581-0445

> <Chemical_Name>
3-(2,5-dioxopyrrolidin-1-yl)-N-(6-methoxy-1,3-benzothiazol-2-yl)-N-[2-(1H-pyrazol-1-yl)ethyl]benzamide

> <CAS>
1170508-90-3

> <PriceCoeff>
1.00

> <MW>
475.52

> <Description>
solid

> <FSP3>
0.21

> <clogP>
1.38

> <TPSA>
125.87

> <Acceptor>
6

> <Donor>
0

> <RotBonds>
8

> <HAC>
34

> <Collection>
General

$$$$
F3350-0588
  -ISIS-  06222321152D

 27 29  0  0  0  0  0  0  0  0999 V2000
    5.0042   -2.5292    0.0000 S   0  0  3  0  0  0  0  0  0  0  0  0
    7.8667   -4.1792    0.0000 N   0  0  3  0  0  0  0  0  0  0  0  0
    4.2917   -2.1292    0.0000 N   0  0  0  0  0  0  0  0  0  0  0  0
    7.9542   -5.0042    0.0000 C   0  0  0  0  0  0  0  0  0  0  0  0
    8.6167   -3.8500    0.0000 C   0  0  0  0  0  0  0  0  0  0  0  0
    3.5792   -1.7167    0.0000 C   0  0  0  0  0  0  0  0  0  0  0  0
    5.7250   -2.9417    0.0000 C   0  0  0  0  0  0  0  0  0  0  0  0
    3.5750   -0.9000    0.0000 C   0  0  0  0  0  0  0  0  0  0  0  0
    7.1500   -3.7667    0.0000 C   0  0  0  0  0  0  0  0  0  0  0  0
    5.4250   -1.8250    0.0000 O   0  0  0  0  0  0  0  0  0  0  0  0
    4.6000   -3.2542    0.0000 O   0  0  0  0  0  0  0  0  0  0  0  0
    2.8542   -0.4875    0.0000 C   0  0  0  0  0  0  0  0  0  0  0  0
    9.1750   -4.4667    0.0000 C   0  0  0  0  0  0  0  0  0  0  0  0
    8.7625   -5.1792    0.0000 C   0  0  0  0  0  0  0  0  0  0  0  0
    7.3375   -5.5542    0.0000 O   0  0  0  0  0  0  0  0  0  0  0  0
    8.7917   -3.0417    0.0000 O   0  0  0  0  0  0  0  0  0  0  0  0
    2.8625   -2.1375    0.0000 C   0  0  0  0  0  0  0  0  0  0  0  0
    5.7250   -3.7667    0.0000 C   0  0  0  0  0  0  0  0  0  0  0  0
    6.4375   -2.5375    0.0000 C   0  0  0  0  0  0  0  0  0  0  0  0
    6.4417   -4.1792    0.0000 C   0  0  0  0  0  0  0  0  0  0  0  0
    7.1500   -2.9500    0.0000 C   0  0  0  0  0  0  0  0  0  0  0  0
    2.1417   -0.9000    0.0000 C   0  0  0  0  0  0  0  0  0  0  0  0
    2.1417   -1.7250    0.0000 C   0  0  0  0  0  0  0  0  0  0  0  0
    4.2792   -0.4792    0.0000 O   0  0  0  0  0  0  0  0  0  0  0  0
    1.4292   -0.4917    0.0000 O   0  0  0  0  0  0  0  0  0  0  0  0
    4.2792    0.3458    0.0000 C   0  0  0  0  0  0  0  0  0  0  0  0
    0.7167   -0.9042    0.0000 C   0  0  0  0  0  0  0  0  0  0  0  0
  2  9  1  0  0  0  0
  3  1  1  0  0  0  0
  4  2  1  0  0  0  0
  5  2  1  0  0  0  0
  6  3  1  0  0  0  0
  7  1  1  0  0  0  0
  8  6  1  0  0  0  0
  9 21  1  0  0  0  0
 10  1  2  0  0  0  0
 11  1  2  0  0  0  0
 12  8  2  0  0  0  0
 13  5  1  0  0  0  0
 14  4  1  0  0  0  0
 15  4  2  0  0  0  0
 16  5  2  0  0  0  0
 17  6  2  0  0  0  0
 18  7  2  0  0  0  0
 19  7  1  0  0  0  0
 20 18  1  0  0  0  0
 21 19  2  0  0  0  0
 22 23  2  0  0  0  0
 23 17  1  0  0  0  0
 24  8  1  0  0  0  0
 25 22  1  0  0  0  0
 26 24  1  0  0  0  0
 27 25  1  0  0  0  0
  9 20  2  0  0  0  0
 22 12  1  0  0  0  0
 13 14  1  0  0  0  0
M  END
> <IDNUMBER>
F3350-0588

> <Chemical_Name>
N-(2,4-dimethoxyphenyl)-4-(2,5-dioxopyrrolidin-1-yl)benzene-1-sulfonamide

> <CAS>
919648-74-1

> <PriceCoeff>
1.00

> <MW>
390.41

> <Description>
solid

> <FSP3>
0.22

> <clogP>
0.80

> <TPSA>
110.39

> <Acceptor>
7

> <Donor>
1

> <RotBonds>
6

> <HAC>
27

> <Collection>
General

$$$$
F2167-9481
  -ISIS-  06222321462D

 19 21  0  0  0  0  0  0  0  0999 V2000
    2.8167    0.3583    0.0000 C   0  0  0  0  0  0  0  0  0  0  0  0
    3.5375   -0.8792    0.0000 C   0  0  0  0  0  0  0  0  0  0  0  0
    3.5292   -0.0542    0.0000 C   0  0  0  0  0  0  0  0  0  0  0  0
    2.1042   -0.8875    0.0000 C   0  0  0  0  0  0  0  0  0  0  0  0
    2.1042   -0.0625    0.0000 C   0  0  0  0  0  0  0  0  0  0  0  0
    2.8250   -1.3000    0.0000 C   0  0  0  0  0  0  0  0  0  0  0  0
    4.2542   -1.2917    0.0000 C   0  0  0  0  0  0  0  0  0  0  0  0
    4.2375    0.3625    0.0000 C   0  0  0  0  0  0  0  0  0  0  0  0
    2.8042    1.1708    0.0000 C   0  0  0  0  0  0  0  0  0  0  0  0
    1.3917   -1.3042    0.0000 C   0  0  0  0  0  0  0  0  0  0  0  0
    4.9667   -0.8750    0.0000 O   0  0  0  0  0  0  0  0  0  0  0  0
    4.2542   -2.1167    0.0000 O   0  0  0  0  0  0  0  0  0  0  0  0
    4.2292    1.1833    0.0000 C   0  0  0  0  0  0  0  0  0  0  0  0
    3.5125    1.5833    0.0000 C   0  0  0  0  0  0  0  0  0  0  0  0
    1.3917    0.3500    0.0000 C   0  0  0  0  0  0  0  0  0  0  0  0
    0.6792   -0.0625    0.0000 C   0  0  0  0  0  0  0  0  0  0  0  0
    0.6792   -0.8917    0.0000 C   0  0  0  0  0  0  0  0  0  0  0  0
    1.3917   -2.1292    0.0000 C   0  0  0  0  0  0  0  0  0  0  0  0
    3.5042    2.4083    0.0000 C   0  0  0  0  0  0  0  0  0  0  0  0
  2  3  1  0  0  0  0
  3  1  1  0  0  0  0
  4  5  1  0  0  0  0
  5  1  1  0  0  0  0
  6  4  1  0  0  0  0
  7  2  1  0  0  0  0
  8  3  2  0  0  0  0
  9  1  2  0  0  0  0
 10  4  2  0  0  0  0
 11  7  2  0  0  0  0
 12  7  1  0  0  0  0
 13 14  2  0  0  0  0
 14  9  1  0  0  0  0
 15  5  2  0  0  0  0
 16 15  1  0  0  0  0
 17 16  2  0  0  0  0
 18 10  1  0  0  0  0
 19 14  1  0  0  0  0
 13  8  1  0  0  0  0
  2  6  2  0  0  0  0
 17 10  1  0  0  0  0
M  END
> <IDNUMBER>
F2167-9481

> <Chemical_Name>
1,6-dimethylphenanthrene-9-carboxylic acid

> <CAS>
2319878-31-2

> <PriceCoeff>
1.00

> <MW>
250.29

> <Description>
solid

> <FSP3>
0.12

> <clogP>
5.23

> <TPSA>
37.30

> <Acceptor>
2

> <Donor>
0

> <RotBonds>
1

> <HAC>
19

> <Collection>
General

> <Reference_compound>
PRI1826

> <Similarity>
0.8210

$$$$
F3385-0999
  -ISIS-  06222321152D

 31 35  0  0  0  0  0  0  0  0999 V2000
    5.2250    0.5833    0.0000 C   0  0  0  0  0  0  0  0  0  0  0  0
    4.5125    0.1708    0.0000 C   0  0  0  0  0  0  0  0  0  0  0  0
    3.8042    0.5833    0.0000 C   0  0  0  0  0  0  0  0  0  0  0  0
    5.2250    1.4083    0.0000 C   0  0  0  0  0  0  0  0  0  0  0  0
    3.8000    1.4000    0.0000 C   0  0  0  0  0  0  0  0  0  0  0  0
    5.9375    0.1750    0.0000 C   0  0  0  0  0  0  0  0  0  0  0  0
    4.5042    1.8208    0.0000 O   0  0  0  0  0  0  0  0  0  0  0  0
    7.3625    0.1750    0.0000 C   0  0  0  0  0  0  0  0  0  0  0  0
    6.6500    0.5833    0.0000 C   0  0  0  0  0  0  0  0  0  0  0  0
    3.0875    0.1625    0.0000 C   0  0  0  0  0  0  0  0  0  0  0  0
    3.0875    1.8208    0.0000 C   0  0  0  0  0  0  0  0  0  0  0  0
    7.3625   -0.6542    0.0000 C   0  0  0  0  0  0  0  0  0  0  0  0
    0.2292    1.8125    0.0000 C   0  0  0  0  0  0  0  0  0  0  0  0
    4.5125   -0.6542    0.0000 O   0  0  0  0  0  0  0  0  0  0  0  0
    8.0792    0.5958    0.0000 O   0  0  0  0  0  0  0  0  0  0  0  0
    5.9375   -0.6542    0.0000 C   0  0  0  0  0  0  0  0  0  0  0  0
    8.0792   -1.0667    0.0000 O   0  0  0  0  0  0  0  0  0  0  0  0
    0.9417    1.4000    0.0000 C   0  0  0  0  0  0  0  0  0  0  0  0
    6.6500   -1.0667    0.0000 C   0  0  0  0  0  0  0  0  0  0  0  0
    0.2292    2.6458    0.0000 O   0  0  0  0  0  0  0  0  0  0  0  0
   -0.4833    1.4000    0.0000 C   0  0  0  0  0  0  0  0  0  0  0  0
    2.3750    1.4000    0.0000 C   0  0  0  0  0  0  0  0  0  0  0  0
    1.6625    1.8125    0.0000 O   0  0  0  0  0  0  0  0  0  0  0  0
    2.3750    0.5750    0.0000 C   0  0  0  0  0  0  0  0  0  0  0  0
    8.8042    0.1833    0.0000 C   0  0  0  0  0  0  0  0  0  0  0  0
    8.8042   -0.6542    0.0000 C   0  0  0  0  0  0  0  0  0  0  0  0
   -0.4833    0.5833    0.0000 C   0  0  0  0  0  0  0  0  0  0  0  0
   -1.1958    1.8208    0.0000 C   0  0  0  0  0  0  0  0  0  0  0  0
   -1.9083    1.4083    0.0000 C   0  0  0  0  0  0  0  0  0  0  0  0
   -1.1958    0.1708    0.0000 C   0  0  0  0  0  0  0  0  0  0  0  0
   -1.9083    0.5833    0.0000 C   0  0  0  0  0  0  0  0  0  0  0  0
  2  1  1  0  0  0  0
  3  2  1  0  0  0  0
  4  1  2  0  0  0  0
  5  7  1  0  0  0  0
  6  1  1  0  0  0  0
  7  4  1  0  0  0  0
  8  9  2  0  0  0  0
  9  6  1  0  0  0  0
 10  3  2  0  0  0  0
 11  5  2  0  0  0  0
 12 19  2  0  0  0  0
 13 18  1  0  0  0  0
 14  2  2  0  0  0  0
 15  8  1  0  0  0  0
 16  6  2  0  0  0  0
 17 12  1  0  0  0  0
 18 23  1  0  0  0  0
 19 16  1  0  0  0  0
 20 13  2  0  0  0  0
 21 13  1  0  0  0  0
 22 11  1  0  0  0  0
 23 22  1  0  0  0  0
 24 10  1  0  0  0  0
 25 15  1  0  0  0  0
 26 17  1  0  0  0  0
 27 21  1  0  0  0  0
 28 21  2  0  0  0  0
 29 28  1  0  0  0  0
 30 27  2  0  0  0  0
 31 29  2  0  0  0  0
  3  5  1  0  0  0  0
 12  8  1  0  0  0  0
 24 22  2  0  0  0  0
 26 25  1  0  0  0  0
 31 30  1  0  0  0  0
M  END
> <IDNUMBER>
F3385-0999

> <Chemical_Name>
3-(2,3-dihydro-1,4-benzodioxin-6-yl)-7-(2-oxo-2-phenylethoxy)-4H-chromen-4-one

> <CAS>
858763-23-2

> <PriceCoeff>
1.00

> <MW>
414.41

> <Description>
solid

> <FSP3>
0.12

> <clogP>
3.98

> <TPSA>
71.06

> <Acceptor>
6

> <Donor>
0

> <RotBonds>
5

> <HAC>
31

> <Collection>
General

> <Reference_compound>
CHEMBL455048

> <Similarity>
0.8390

$$$$
F1086-0006
  -ISIS-  06222321442D

 24 27  0  0  0  0  0  0  0  0999 V2000
    1.8417   -1.2167    0.0000 C   0  0  0  0  0  0  0  0  0  0  0  0
    2.3167   -1.8917    0.0000 C   0  0  0  0  0  0  0  0  0  0  0  0
    3.0000   -0.3792    0.0000 N   0  0  3  0  0  0  0  0  0  0  0  0
    3.1417   -1.8125    0.0000 N   0  0  0  0  0  0  0  0  0  0  0  0
    3.4875   -1.0542    0.0000 C   0  0  0  0  0  0  0  0  0  0  0  0
    2.1750   -0.4667    0.0000 C   0  0  0  0  0  0  0  0  0  0  0  0
    1.8375   -2.5542    0.0000 S   0  0  0  0  0  0  0  0  0  0  0  0
    1.0542   -1.4750    0.0000 C   0  0  0  0  0  0  0  0  0  0  0  0
    1.0542   -2.3000    0.0000 C   0  0  0  0  0  0  0  0  0  0  0  0
    5.6167   -1.5625    0.0000 C   0  0  0  0  0  0  0  0  0  0  0  0
    3.3417    0.3708    0.0000 C   0  0  0  0  0  0  0  0  0  0  0  0
    6.1042   -2.2375    0.0000 C   0  0  0  0  0  0  0  0  0  0  0  0
    1.6917    0.2083    0.0000 O   0  0  0  0  0  0  0  0  0  0  0  0
    4.3125   -0.9750    0.0000 S   0  0  0  0  0  0  0  0  0  0  0  0
    0.3375   -1.0542    0.0000 C   0  0  0  0  0  0  0  0  0  0  0  0
    4.7917   -1.6500    0.0000 C   0  0  0  0  0  0  0  0  0  0  0  0
    0.3375   -2.7167    0.0000 C   0  0  0  0  0  0  0  0  0  0  0  0
    4.1667    0.4500    0.0000 C   0  0  0  0  0  0  0  0  0  0  0  0
    2.8542    1.0458    0.0000 C   0  0  0  0  0  0  0  0  0  0  0  0
   -0.3750   -1.4667    0.0000 C   0  0  0  0  0  0  0  0  0  0  0  0
   -0.3750   -2.3042    0.0000 C   0  0  0  0  0  0  0  0  0  0  0  0
    3.2000    1.7958    0.0000 C   0  0  0  0  0  0  0  0  0  0  0  0
    4.5125    1.2083    0.0000 C   0  0  0  0  0  0  0  0  0  0  0  0
    4.0292    1.8833    0.0000 C   0  0  0  0  0  0  0  0  0  0  0  0
  2  1  2  0  0  0  0
  3  6  1  0  0  0  0
  4  2  1  0  0  0  0
  5  3  1  0  0  0  0
  6  1  1  0  0  0  0
  7  2  1  0  0  0  0
  8  1  1  0  0  0  0
  9  8  2  0  0  0  0
 10 16  1  0  0  0  0
 11  3  1  0  0  0  0
 12 10  3  0  0  0  0
 13  6  2  0  0  0  0
 14  5  1  0  0  0  0
 15  8  1  0  0  0  0
 16 14  1  0  0  0  0
 17  9  1  0  0  0  0
 18 11  2  0  0  0  0
 19 11  1  0  0  0  0
 20 15  1  0  0  0  0
 21 20  1  0  0  0  0
 22 19  2  0  0  0  0
 23 18  1  0  0  0  0
 24 22  1  0  0  0  0
  7  9  1  0  0  0  0
  5  4  2  0  0  0  0
 21 17  1  0  0  0  0
 24 23  2  0  0  0  0
M  END
> <IDNUMBER>
F1086-0006

> <Chemical_Name>
4-phenyl-5-(prop-2-yn-1-ylsulfanyl)-8-thia-4,6-diazatricyclo[7.4.0.0^{2,7}]trideca-1(9),2(7),5-trien-3-one

> <CAS>
249750-75-2

> <PriceCoeff>
1.00

> <MW>
352.47

> <Description>
solid

> <FSP3>
0.26

> <clogP>
5.74

> <TPSA>
86.21

> <Acceptor>
2

> <Donor>
0

> <RotBonds>
4

> <HAC>
24

> <Collection>
General

> <Reference_compound>
CHEMBL577016

> <Similarity>
0.8390

$$$$
F1816-1187
  -ISIS-  06222321442D

 24 26  0  0  0  0  0  0  0  0999 V2000
   -4.5833    2.5500    0.0000 C   0  0  0  0  0  0  0  0  0  0  0  0
   -3.1583    5.0417    0.0000 N   0  0  3  0  0  0  0  0  0  0  0  0
   -4.6750    1.7333    0.0000 N   0  0  3  0  0  0  0  0  0  0  0  0
   -3.8708    2.9708    0.0000 N   0  0  0  0  0  0  0  0  0  0  0  0
   -5.3208    2.8958    0.0000 S   0  0  0  0  0  0  0  0  0  0  0  0
   -5.4833    1.5708    0.0000 C   0  0  0  0  0  0  0  0  0  0  0  0
   -5.8833    2.2958    0.0000 C   0  0  0  0  0  0  0  0  0  0  0  0
   -2.4833    5.5167    0.0000 C   0  0  0  0  0  0  0  0  0  0  0  0
   -3.8208    5.5167    0.0000 C   0  0  0  0  0  0  0  0  0  0  0  0
   -3.8708    3.8000    0.0000 C   0  0  0  0  0  0  0  0  0  0  0  0
   -3.1583    4.2125    0.0000 C   0  0  0  0  0  0  0  0  0  0  0  0
   -4.2458    0.3500    0.0000 C   0  0  0  0  0  0  0  0  0  0  0  0
   -4.4208   -0.4542    0.0000 C   0  0  0  0  0  0  0  0  0  0  0  0
   -5.9083    0.8708    0.0000 C   0  0  0  0  0  0  0  0  0  0  0  0
   -3.5708    6.3042    0.0000 C   0  0  0  0  0  0  0  0  0  0  0  0
   -2.7458    6.3125    0.0000 C   0  0  0  0  0  0  0  0  0  0  0  0
   -4.6083    5.2750    0.0000 O   0  0  0  0  0  0  0  0  0  0  0  0
   -1.6958    5.2625    0.0000 O   0  0  0  0  0  0  0  0  0  0  0  0
   -4.5958    4.2125    0.0000 O   0  0  0  0  0  0  0  0  0  0  0  0
   -4.0583    1.1583    0.0000 C   0  0  0  0  0  0  0  0  0  0  0  0
   -5.5083    0.1458    0.0000 Cl  0  0  0  0  0  0  0  0  0  0  0  0
   -6.7042    2.3083    0.0000 C   0  0  0  0  0  0  0  0  0  0  0  0
   -7.1292    1.6000    0.0000 C   0  0  0  0  0  0  0  0  0  0  0  0
   -6.7167    0.8750    0.0000 C   0  0  0  0  0  0  0  0  0  0  0  0
  2 11  1  0  0  0  0
  3  1  1  0  0  0  0
  4  1  2  0  0  0  0
  5  1  1  0  0  0  0
  6  3  1  0  0  0  0
  7  5  1  0  0  0  0
  8  2  1  0  0  0  0
  9  2  1  0  0  0  0
 10  4  1  0  0  0  0
 11 10  1  0  0  0  0
 12 20  1  0  0  0  0
 13 12  3  0  0  0  0
 14  6  1  0  0  0  0
 15  9  1  0  0  0  0
 16  8  1  0  0  0  0
 17  9  2  0  0  0  0
 18  8  2  0  0  0  0
 19 10  2  0  0  0  0
 20  3  1  0  0  0  0
 21 14  1  0  0  0  0
 22  7  1  0  0  0  0
 23 22  2  0  0  0  0
 24 14  2  0  0  0  0
  6  7  2  0  0  0  0
 23 24  1  0  0  0  0
 16 15  1  0  0  0  0
M  END
> <IDNUMBER>
F1816-1187

> <Chemical_Name>
N-[(2Z)-4-chloro-3-(prop-2-yn-1-yl)-2,3-dihydro-1,3-benzothiazol-2-ylidene]-2-(2,5-dioxopyrrolidin-1-yl)acetamide

> <CAS>
868674-76-4

> <PriceCoeff>
1.00

> <MW>
361.80

> <Description>
solid

> <FSP3>
0.25

> <clogP>
3.59

> <TPSA>
95.35

> <Acceptor>
3

> <Donor>
0

> <RotBonds>
5

> <HAC>
24

> <Collection>
General

$$$$
F2843-0109
  -ISIS-  06222321152D

 25 27  0  0  0  0  0  0  0  0999 V2000
    2.8042   -0.9125    0.0000 N   0  0  3  0  0  0  0  0  0  0  0  0
    3.5167   -0.4917    0.0000 C   0  0  0  0  0  0  0  0  0  0  0  0
    2.0875   -0.5000    0.0000 C   0  0  0  0  0  0  0  0  0  0  0  0
    3.5167    0.3458    0.0000 C   0  0  0  0  0  0  0  0  0  0  0  0
    1.3667   -0.9167    0.0000 N   0  0  3  0  0  0  0  0  0  0  0  0
    4.2375   -0.9000    0.0000 O   0  0  0  0  0  0  0  0  0  0  0  0
    2.8125   -1.7375    0.0000 C   0  0  0  0  0  0  0  0  0  0  0  0
    2.4292    0.1250    0.0000 O   0  0  0  0  0  0  0  0  0  0  0  0
    2.8000    0.7500    0.0000 C   0  0  0  0  0  0  0  0  0  0  0  0
    4.2292    0.7500    0.0000 C   0  0  0  0  0  0  0  0  0  0  0  0
    4.9500    0.3375    0.0000 F   0  0  0  0  0  0  0  0  0  0  0  0
    2.0792    0.3333    0.0000 F   0  0  0  0  0  0  0  0  0  0  0  0
    0.6500   -0.5042    0.0000 C   0  0  0  0  0  0  0  0  0  0  0  0
    1.3667   -1.7500    0.0000 C   0  0  0  0  0  0  0  0  0  0  0  0
    3.5042    1.9833    0.0000 C   0  0  0  0  0  0  0  0  0  0  0  0
    2.7875    1.5708    0.0000 C   0  0  0  0  0  0  0  0  0  0  0  0
    4.2292    1.5750    0.0000 C   0  0  0  0  0  0  0  0  0  0  0  0
    3.5292   -2.1417    0.0000 C   0  0  0  0  0  0  0  0  0  0  0  0
    2.1000   -2.1500    0.0000 C   0  0  0  0  0  0  0  0  0  0  0  0
    0.6500   -2.1625    0.0000 C   0  0  0  0  0  0  0  0  0  0  0  0
   -0.0625   -0.9167    0.0000 C   0  0  0  0  0  0  0  0  0  0  0  0
    2.1000   -2.9750    0.0000 C   0  0  0  0  0  0  0  0  0  0  0  0
    3.5292   -2.9667    0.0000 C   0  0  0  0  0  0  0  0  0  0  0  0
    2.8167   -3.3875    0.0000 C   0  0  0  0  0  0  0  0  0  0  0  0
   -0.0625   -1.7500    0.0000 C   0  0  0  0  0  0  0  0  0  0  0  0
  2  1  1  0  0  0  0
  3  1  1  0  0  0  0
  4  2  1  0  0  0  0
  5  3  1  0  0  0  0
  6  2  2  0  0  0  0
  7  1  1  0  0  0  0
  8  3  2  0  0  0  0
  9  4  2  0  0  0  0
 10  4  1  0  0  0  0
 11 10  1  0  0  0  0
 12  9  1  0  0  0  0
 13  5  1  0  0  0  0
 14  5  1  0  0  0  0
 15 17  1  0  0  0  0
 16  9  1  0  0  0  0
 17 10  2  0  0  0  0
 18  7  2  0  0  0  0
 19  7  1  0  0  0  0
 20 14  1  0  0  0  0
 21 13  1  0  0  0  0
 22 19  2  0  0  0  0
 23 18  1  0  0  0  0
 24 22  1  0  0  0  0
 25 20  1  0  0  0  0
 24 23  2  0  0  0  0
 15 16  2  0  0  0  0
 25 21  1  0  0  0  0
M  END
> <IDNUMBER>
F2843-0109

> <Chemical_Name>
N-(2,6-difluorobenzoyl)-N-phenylpiperidine-1-carboxamide

> <CAS>
899992-39-3

> <PriceCoeff>
1.00

> <MW>
344.36

> <Description>
solid

> <FSP3>
0.26

> <clogP>
3.85

> <TPSA>
40.62

> <Acceptor>
2

> <Donor>
0

> <RotBonds>
5

> <HAC>
25

> <Collection>
General

> <Reference_compound>
CHEMBL2289188

> <Similarity>
0.8010

$$$$
F1381-1222
  -ISIS-  06222321442D

 26 28  0  0  0  0  0  0  0  0999 V2000
   -3.1583    5.0250    0.0000 C   0  0  0  0  0  0  0  0  0  0  0  0
   -5.3083    3.7958    0.0000 N   0  0  3  0  0  0  0  0  0  0  0  0
   -3.8208    5.5125    0.0000 N   0  0  3  0  0  0  0  0  0  0  0  0
   -3.1583    4.2042    0.0000 N   0  0  0  0  0  0  0  0  0  0  0  0
   -2.4958    5.5042    0.0000 S   0  0  0  0  0  0  0  0  0  0  0  0
   -2.7500    6.2792    0.0000 C   0  0  0  0  0  0  0  0  0  0  0  0
   -3.5708    6.2917    0.0000 C   0  0  0  0  0  0  0  0  0  0  0  0
   -6.0417    4.1292    0.0000 C   0  0  0  0  0  0  0  0  0  0  0  0
   -5.3833    2.9833    0.0000 C   0  0  0  0  0  0  0  0  0  0  0  0
   -3.8708    3.8000    0.0000 C   0  0  0  0  0  0  0  0  0  0  0  0
   -4.5958    4.2125    0.0000 C   0  0  0  0  0  0  0  0  0  0  0  0
   -2.3458    8.4250    0.0000 C   0  0  0  0  0  0  0  0  0  0  0  0
   -2.3458    7.0042    0.0000 C   0  0  0  0  0  0  0  0  0  0  0  0
   -2.7583    7.7167    0.0000 C   0  0  0  0  0  0  0  0  0  0  0  0
   -3.9833    7.0042    0.0000 C   0  0  0  0  0  0  0  0  0  0  0  0
   -6.1792    2.8083    0.0000 C   0  0  0  0  0  0  0  0  0  0  0  0
   -6.5917    3.5208    0.0000 C   0  0  0  0  0  0  0  0  0  0  0  0
   -4.7708    2.4333    0.0000 O   0  0  0  0  0  0  0  0  0  0  0  0
   -6.2292    4.9292    0.0000 O   0  0  0  0  0  0  0  0  0  0  0  0
   -3.5708    7.7167    0.0000 C   0  0  0  0  0  0  0  0  0  0  0  0
   -3.8708    2.9833    0.0000 O   0  0  0  0  0  0  0  0  0  0  0  0
   -1.5208    8.4292    0.0000 O   0  0  0  0  0  0  0  0  0  0  0  0
   -4.6000    5.2500    0.0000 C   0  0  0  0  0  0  0  0  0  0  0  0
   -2.7500    9.1292    0.0000 O   0  0  0  0  0  0  0  0  0  0  0  0
   -3.5708    9.1417    0.0000 C   0  0  0  0  0  0  0  0  0  0  0  0
   -3.9833    9.8500    0.0000 C   0  0  0  0  0  0  0  0  0  0  0  0
  2 11  1  0  0  0  0
  3  1  1  0  0  0  0
  4  1  2  0  0  0  0
  5  1  1  0  0  0  0
  6  5  1  0  0  0  0
  7  3  1  0  0  0  0
  8  2  1  0  0  0  0
  9  2  1  0  0  0  0
 10  4  1  0  0  0  0
 11 10  1  0  0  0  0
 12 14  1  0  0  0  0
 13  6  1  0  0  0  0
 14 13  2  0  0  0  0
 15  7  1  0  0  0  0
 16  9  1  0  0  0  0
 17  8  1  0  0  0  0
 18  9  2  0  0  0  0
 19  8  2  0  0  0  0
 20 15  2  0  0  0  0
 21 10  2  0  0  0  0
 22 12  2  0  0  0  0
 23  3  1  0  0  0  0
 24 12  1  0  0  0  0
 25 24  1  0  0  0  0
 26 25  1  0  0  0  0
  7  6  2  0  0  0  0
 20 14  1  0  0  0  0
 16 17  1  0  0  0  0
M  END
> <IDNUMBER>
F1381-1222

> <Chemical_Name>
ethyl (2E)-2-{[2-(2,5-dioxopyrrolidin-1-yl)acetyl]imino}-3-methyl-2,3-dihydro-1,3-benzothiazole-6-carboxylate

> <CAS>
865545-14-8

> <PriceCoeff>
1.00

> <MW>
375.40

> <Description>
solid

> <FSP3>
0.35

> <clogP>
3.28

> <TPSA>
121.65

> <Acceptor>
5

> <Donor>
0

> <RotBonds>
6

> <HAC>
26

> <Collection>
General

$$$$
F0715-0371
  -ISIS-  06222321452D

 28 30  0  0  0  0  0  0  0  0999 V2000
   -1.1208    0.1458    0.0000 C   0  0  0  0  0  0  0  0  0  0  0  0
   -0.6125   -0.7667    0.0000 C   0  0  0  0  0  0  0  0  0  0  0  0
   -1.1958   -0.5042    0.0000 S   0  0  0  0  0  0  0  0  0  0  0  0
   -1.5958    0.5833    0.0000 N   0  0  0  0  0  0  0  0  0  0  0  0
   -0.4708    0.2625    0.0000 N   0  0  3  0  0  0  0  0  0  0  0  0
   -0.1625   -0.3375    0.0000 C   0  0  0  0  0  0  0  0  0  0  0  0
   -4.2708    2.0208    0.0000 N   0  0  3  0  0  0  0  0  0  0  0  0
   -2.2125    0.4000    0.0000 C   0  0  0  0  0  0  0  0  0  0  0  0
   -4.2208    2.6458    0.0000 C   0  0  0  0  0  0  0  0  0  0  0  0
   -4.9083    1.8500    0.0000 C   0  0  0  0  0  0  0  0  0  0  0  0
   -0.4708   -1.4292    0.0000 C   0  0  0  0  0  0  0  0  0  0  0  0
   -3.7625    1.6208    0.0000 C   0  0  0  0  0  0  0  0  0  0  0  0
   -2.7208    0.8000    0.0000 C   0  0  0  0  0  0  0  0  0  0  0  0
   -2.3625   -0.2000    0.0000 O   0  0  0  0  0  0  0  0  0  0  0  0
   -5.2208    2.4000    0.0000 C   0  0  0  0  0  0  0  0  0  0  0  0
   -4.8000    2.8958    0.0000 C   0  0  0  0  0  0  0  0  0  0  0  0
   -5.1583    1.2125    0.0000 O   0  0  0  0  0  0  0  0  0  0  0  0
   -3.6458    2.9625    0.0000 O   0  0  0  0  0  0  0  0  0  0  0  0
   -0.9625   -1.8542    0.0000 O   0  0  0  0  0  0  0  0  0  0  0  0
   -3.8500    0.9708    0.0000 C   0  0  0  0  0  0  0  0  0  0  0  0
   -3.1458    1.8625    0.0000 C   0  0  0  0  0  0  0  0  0  0  0  0
   -3.3333    0.5708    0.0000 C   0  0  0  0  0  0  0  0  0  0  0  0
   -2.6333    1.4500    0.0000 C   0  0  0  0  0  0  0  0  0  0  0  0
   -0.1625    0.8208    0.0000 C   0  0  0  0  0  0  0  0  0  0  0  0
    0.1500   -1.6375    0.0000 O   0  0  0  0  0  0  0  0  0  0  0  0
    0.4792   -0.4375    0.0000 C   0  0  0  0  0  0  0  0  0  0  0  0
    0.6375   -1.2167    0.0000 C   0  0  0  0  0  0  0  0  0  0  0  0
    1.2542   -1.4292    0.0000 C   0  0  0  0  0  0  0  0  0  0  0  0
  2  3  1  0  0  0  0
  3  1  1  0  0  0  0
  4  1  2  0  0  0  0
  5  1  1  0  0  0  0
  6  5  1  0  0  0  0
  7 12  1  0  0  0  0
  8  4  1  0  0  0  0
  9  7  1  0  0  0  0
 10  7  1  0  0  0  0
 11  2  1  0  0  0  0
 12 21  2  0  0  0  0
 13  8  1  0  0  0  0
 14  8  2  0  0  0  0
 15 10  1  0  0  0  0
 16  9  1  0  0  0  0
 17 10  2  0  0  0  0
 18  9  2  0  0  0  0
 19 11  2  0  0  0  0
 20 22  2  0  0  0  0
 21 23  1  0  0  0  0
 22 13  1  0  0  0  0
 23 13  2  0  0  0  0
 24  5  1  0  0  0  0
 25 11  1  0  0  0  0
 26  6  1  0  0  0  0
 27 25  1  0  0  0  0
 28 27  1  0  0  0  0
  2  6  2  0  0  0  0
 20 12  1  0  0  0  0
 16 15  1  0  0  0  0
M  END
> <IDNUMBER>
F0715-0371

> <Chemical_Name>
ethyl (2Z)-2-{[4-(2,5-dioxopyrrolidin-1-yl)benzoyl]imino}-3,4-dimethyl-2,3-dihydro-1,3-thiazole-5-carboxylate

> <CAS>
393838-93-2

> <PriceCoeff>
1.00

> <MW>
401.44

> <Description>
solid

> <FSP3>
0.32

> <clogP>
2.35

> <TPSA>
121.65

> <Acceptor>
5

> <Donor>
0

> <RotBonds>
6

> <HAC>
28

> <Collection>
General

$$$$
F0037-5306
  -ISIS-  06222321142D

 16 18  0  0  0  0  0  0  0  0999 V2000
   -1.4708    0.3208    0.0000 N   0  0  0  0  0  0  0  0  0  0  0  0
   -1.0958    0.9000    0.0000 C   0  0  0  0  0  0  0  0  0  0  0  0
   -1.4708    1.4458    0.0000 O   0  0  0  0  0  0  0  0  0  0  0  0
   -2.1333    0.5458    0.0000 C   0  0  0  0  0  0  0  0  0  0  0  0
   -2.1333    1.2458    0.0000 C   0  0  0  0  0  0  0  0  0  0  0  0
   -0.4000    0.9333    0.0000 C   0  0  0  0  0  0  0  0  0  0  0  0
   -0.0333    0.3458    0.0000 C   0  0  0  0  0  0  0  0  0  0  0  0
   -0.0833    1.5500    0.0000 C   0  0  0  0  0  0  0  0  0  0  0  0
    1.0000    0.9958    0.0000 C   0  0  0  0  0  0  0  0  0  0  0  0
    1.6875    0.9958    0.0000 N   0  0  0  0  0  0  0  0  0  0  0  0
    0.6167    1.5958    0.0000 C   0  0  0  0  0  0  0  0  0  0  0  0
    0.6792    0.3833    0.0000 C   0  0  0  0  0  0  0  0  0  0  0  0
   -2.7333    0.1833    0.0000 C   0  0  0  0  0  0  0  0  0  0  0  0
   -2.7333    1.5833    0.0000 C   0  0  0  0  0  0  0  0  0  0  0  0
   -3.3500    1.2458    0.0000 C   0  0  0  0  0  0  0  0  0  0  0  0
   -3.3500    0.5208    0.0000 C   0  0  0  0  0  0  0  0  0  0  0  0
  2  1  2  0  0  0  0
  3  2  1  0  0  0  0
  4  1  1  0  0  0  0
  5  4  1  0  0  0  0
  6  2  1  0  0  0  0
  7  6  1  0  0  0  0
  8  6  2  0  0  0  0
  9 11  2  0  0  0  0
 10  9  1  0  0  0  0
 11  8  1  0  0  0  0
 12  7  2  0  0  0  0
 13  4  2  0  0  0  0
 14  5  2  0  0  0  0
 15 16  2  0  0  0  0
 16 13  1  0  0  0  0
  5  3  1  0  0  0  0
 14 15  1  0  0  0  0
  9 12  1  0  0  0  0
M  END
> <IDNUMBER>
F0037-5306

> <Chemical_Name>
4-(1,3-benzoxazol-2-yl)aniline

> <CAS>
20934-81-0

> <PriceCoeff>
1.00

> <MW>
210.23

> <Description>
solid

> <FSP3>
0.00

> <clogP>
2.47

> <TPSA>
52.05

> <Acceptor>
3

> <Donor>
1

> <RotBonds>
1

> <HAC>
16

> <Collection>
General

> <Reference_compound>
CHEMBL2269947

> <Similarity>
0.8300

$$$$
F0440-0369
  -ISIS-  06222321142D

 23 26  0  0  0  0  0  0  0  0999 V2000
    0.4500   -2.0292    0.0000 N   0  0  3  0  0  0  0  0  0  0  0  0
    0.9667   -2.2500    0.0000 C   0  0  0  0  0  0  0  0  0  0  0  0
    0.1000   -2.4667    0.0000 C   0  0  0  0  0  0  0  0  0  0  0  0
   -1.0833   -0.7042    0.0000 C   0  0  0  0  0  0  0  0  0  0  0  0
   -0.3000   -1.3667    0.0000 C   0  0  0  0  0  0  0  0  0  0  0  0
   -2.0458   -0.9667    0.0000 C   0  0  0  0  0  0  0  0  0  0  0  0
   -0.4833   -0.8292    0.0000 N   0  0  0  0  0  0  0  0  0  0  0  0
   -1.4833   -1.1292    0.0000 C   0  0  0  0  0  0  0  0  0  0  0  0
    0.2500   -1.5000    0.0000 C   0  0  0  0  0  0  0  0  0  0  0  0
   -2.3000   -0.4667    0.0000 C   0  0  0  0  0  0  0  0  0  0  0  0
   -2.4458   -1.4000    0.0000 C   0  0  0  0  0  0  0  0  0  0  0  0
    0.9292   -2.8042    0.0000 C   0  0  0  0  0  0  0  0  0  0  0  0
    0.4000   -2.9500    0.0000 C   0  0  0  0  0  0  0  0  0  0  0  0
    1.4667   -1.9500    0.0000 O   0  0  0  0  0  0  0  0  0  0  0  0
   -0.4833   -2.4500    0.0000 O   0  0  0  0  0  0  0  0  0  0  0  0
   -1.2208   -0.1667    0.0000 C   0  0  0  0  0  0  0  0  0  0  0  0
   -0.6833   -1.8292    0.0000 O   0  0  0  0  0  0  0  0  0  0  0  0
   -1.9833   -0.0000    0.0000 C   0  0  0  0  0  0  0  0  0  0  0  0
   -2.8625   -0.5667    0.0000 C   0  0  0  0  0  0  0  0  0  0  0  0
   -2.9458   -1.1292    0.0000 C   0  0  0  0  0  0  0  0  0  0  0  0
   -1.3208   -1.6667    0.0000 C   0  0  0  0  0  0  0  0  0  0  0  0
   -1.7000   -2.0667    0.0000 C   0  0  0  0  0  0  0  0  0  0  0  0
   -2.2833   -1.9292    0.0000 C   0  0  0  0  0  0  0  0  0  0  0  0
  2  1  1  0  0  0  0
  3  1  1  0  0  0  0
  4  7  1  0  0  0  0
  5  9  1  0  0  0  0
  6  8  2  0  0  0  0
  7  5  1  0  0  0  0
  8  4  1  0  0  0  0
  9  1  1  0  0  0  0
 10 18  2  0  0  0  0
 11  6  1  0  0  0  0
 12  2  1  0  0  0  0
 13  3  1  0  0  0  0
 14  2  2  0  0  0  0
 15  3  2  0  0  0  0
 16  4  2  0  0  0  0
 17  5  2  0  0  0  0
 18 16  1  0  0  0  0
 19 10  1  0  0  0  0
 20 11  1  0  0  0  0
 21  8  1  0  0  0  0
 22 21  2  0  0  0  0
 23 22  1  0  0  0  0
 13 12  1  0  0  0  0
  6 10  1  0  0  0  0
 11 23  2  0  0  0  0
 19 20  1  0  0  0  0
M  END
> <IDNUMBER>
F0440-0369

> <Chemical_Name>
N-(1,2-dihydroacenaphthylen-5-yl)-2-(2,5-dioxopyrrolidin-1-yl)acetamide

> <CAS>
392324-96-8

> <PriceCoeff>
1.00

> <MW>
308.33

> <Description>
solid

> <FSP3>
0.28

> <clogP>
2.24

> <TPSA>
66.48

> <Acceptor>
3

> <Donor>
1

> <RotBonds>
3

> <HAC>
23

> <Collection>
General

$$$$
F3244-0167
  -ISIS-  06222321462D

 25 28  0  0  0  0  0  0  0  0999 V2000
    4.6792   -2.3917    0.0000 C   0  0  0  0  0  0  0  0  0  0  0  0
    5.9792   -2.1042    0.0000 C   0  0  0  0  0  0  0  0  0  0  0  0
    5.2250   -1.7750    0.0000 O   0  0  0  0  0  0  0  0  0  0  0  0
    5.0917   -3.1042    0.0000 N   0  0  0  0  0  0  0  0  0  0  0  0
    5.9042   -2.9250    0.0000 N   0  0  0  0  0  0  0  0  0  0  0  0
   -0.3083   -4.2542    0.0000 N   0  3  0  0  0  0  0  0  0  0  0  0
    2.5542   -2.5917    0.0000 C   0  0  0  0  0  0  0  0  0  0  0  0
    3.8542   -2.3167    0.0000 C   0  0  0  0  0  0  0  0  0  0  0  0
    3.3125   -2.9292    0.0000 O   0  0  0  0  0  0  0  0  0  0  0  0
    1.8417   -3.0125    0.0000 C   0  0  0  0  0  0  0  0  0  0  0  0
    6.6917   -1.6792    0.0000 C   0  0  0  0  0  0  0  0  0  0  0  0
    1.8417   -3.8417    0.0000 C   0  0  0  0  0  0  0  0  0  0  0  0
    0.4125   -3.8417    0.0000 C   0  0  0  0  0  0  0  0  0  0  0  0
    2.6375   -1.7750    0.0000 C   0  0  0  0  0  0  0  0  0  0  0  0
    3.4292   -1.5917    0.0000 C   0  0  0  0  0  0  0  0  0  0  0  0
    1.1250   -4.2542    0.0000 C   0  0  0  0  0  0  0  0  0  0  0  0
    1.1250   -2.6000    0.0000 C   0  0  0  0  0  0  0  0  0  0  0  0
   -1.0208   -3.8417    0.0000 O   0  5  0  0  0  0  0  0  0  0  0  0
    7.4542   -2.0167    0.0000 O   0  0  0  0  0  0  0  0  0  0  0  0
   -0.3083   -5.0792    0.0000 O   0  0  0  0  0  0  0  0  0  0  0  0
    6.7750   -0.8667    0.0000 C   0  0  0  0  0  0  0  0  0  0  0  0
    0.4125   -3.0125    0.0000 C   0  0  0  0  0  0  0  0  0  0  0  0
    7.9917   -1.4000    0.0000 C   0  0  0  0  0  0  0  0  0  0  0  0
    7.5667   -0.6792    0.0000 C   0  0  0  0  0  0  0  0  0  0  0  0
    2.5542   -4.2542    0.0000 Cl  0  0  0  0  0  0  0  0  0  0  0  0
  2  3  1  0  0  0  0
  3  1  1  0  0  0  0
  4  1  2  0  0  0  0
  5  4  1  0  0  0  0
  6 13  1  0  0  0  0
  7  9  1  0  0  0  0
  8  1  1  0  0  0  0
  9  8  1  0  0  0  0
 10  7  1  0  0  0  0
 11  2  1  0  0  0  0
 12 10  1  0  0  0  0
 13 22  2  0  0  0  0
 14 15  1  0  0  0  0
 15  8  2  0  0  0  0
 16 12  2  0  0  0  0
 17 10  2  0  0  0  0
 18  6  1  0  0  0  0
 19 11  1  0  0  0  0
 20  6  2  0  0  0  0
 21 11  2  0  0  0  0
 22 17  1  0  0  0  0
 23 19  1  0  0  0  0
 24 21  1  0  0  0  0
 25 12  1  0  0  0  0
  2  5  2  0  0  0  0
  7 14  2  0  0  0  0
 24 23  2  0  0  0  0
 13 16  1  0  0  0  0
M  CHG  2   6   1  18  -1
M  END
> <IDNUMBER>
F3244-0167

> <Chemical_Name>
2-[5-(2-chloro-4-nitrophenyl)furan-2-yl]-5-(furan-2-yl)-1,3,4-oxadiazole

> <CAS>
890641-87-9

> <PriceCoeff>
1.00

> <MW>
357.70

> <Description>
solid

> <FSP3>
0.00

> <clogP>
3.87

> <TPSA>
108.34

> <Acceptor>
7

> <Donor>
0

> <RotBonds>
4

> <HAC>
25

> <Collection>
General

$$$$
F0541-0058
  -ISIS-  06222321452D

 27 29  0  0  0  0  0  0  0  0999 V2000
   -3.1750    2.0833    0.0000 C   0  0  0  0  0  0  0  0  0  0  0  0
   -3.4333    1.2958    0.0000 C   0  0  0  0  0  0  0  0  0  0  0  0
   -3.8458    2.5708    0.0000 N   0  0  3  0  0  0  0  0  0  0  0  0
   -4.2708    1.2958    0.0000 C   0  0  0  0  0  0  0  0  0  0  0  0
   -4.5208    2.0833    0.0000 N   0  0  0  0  0  0  0  0  0  0  0  0
   -3.8458    0.0208    0.0000 S   0  0  3  0  0  0  0  0  0  0  0  0
   -2.4458    1.8958    0.0000 N   0  0  0  0  0  0  0  0  0  0  0  0
   -0.0500   -0.2625    0.0000 N   0  3  0  0  0  0  0  0  0  0  0  0
   -0.0208    0.6208    0.0000 C   0  0  0  0  0  0  0  0  0  0  0  0
   -4.5208    0.5083    0.0000 C   0  0  0  0  0  0  0  0  0  0  0  0
   -1.5125    2.4250    0.0000 C   0  0  0  0  0  0  0  0  0  0  0  0
   -3.1750    0.5083    0.0000 C   0  0  0  0  0  0  0  0  0  0  0  0
   -0.7833    1.0750    0.0000 C   0  0  0  0  0  0  0  0  0  0  0  0
   -0.7625    1.9708    0.0000 C   0  0  0  0  0  0  0  0  0  0  0  0
   -3.8458    3.4583    0.0000 C   0  0  3  0  0  0  0  0  0  0  0  0
   -3.2333   -0.3542    0.0000 O   0  0  0  0  0  0  0  0  0  0  0  0
   -4.5625   -0.3917    0.0000 O   0  0  0  0  0  0  0  0  0  0  0  0
    0.7542    1.0500    0.0000 C   0  0  0  0  0  0  0  0  0  0  0  0
   -0.8208   -0.6917    0.0000 O   0  5  0  0  0  0  0  0  0  0  0  0
    0.7167   -0.7167    0.0000 O   0  0  0  0  0  0  0  0  0  0  0  0
   -1.4833    3.2375    0.0000 O   0  0  0  0  0  0  0  0  0  0  0  0
    0.0167    2.3958    0.0000 C   0  0  0  0  0  0  0  0  0  0  0  0
    0.7667    1.9333    0.0000 C   0  0  0  0  0  0  0  0  0  0  0  0
    1.5125    0.5958    0.0000 Cl  0  0  0  0  0  0  0  0  0  0  0  0
   -4.6625    3.7958    0.0000 C   0  0  0  0  0  0  0  0  0  0  0  0
   -3.7250    4.3292    0.0000 C   0  0  0  0  0  0  0  0  0  0  0  0
   -3.1375    3.9958    0.0000 C   0  0  0  0  0  0  0  0  0  0  0  0
  2  1  2  0  0  0  0
  3  1  1  0  0  0  0
  4  2  1  0  0  0  0
  5  3  1  0  0  0  0
  6 12  1  0  0  0  0
  7  1  1  0  0  0  0
  8  9  1  0  0  0  0
  9 13  1  0  0  0  0
 10  4  1  0  0  0  0
 11  7  1  0  0  0  0
 12  2  1  0  0  0  0
 13 14  2  0  0  0  0
 14 11  1  0  0  0  0
 15  3  1  0  0  0  0
 16  6  2  0  0  0  0
 17  6  2  0  0  0  0
 18 23  1  0  0  0  0
 19  8  1  0  0  0  0
 20  8  2  0  0  0  0
 21 11  2  0  0  0  0
 22 14  1  0  0  0  0
 23 22  2  0  0  0  0
 24 18  1  0  0  0  0
 25 15  1  0  0  0  0
 26 15  1  0  0  0  0
 27 15  1  0  0  0  0
  4  5  2  0  0  0  0
  6 10  1  0  0  0  0
 18  9  2  0  0  0  0
M  CHG  2   8   1  19  -1
M  END
> <IDNUMBER>
F0541-0058

> <Chemical_Name>
N-{2-tert-butyl-5,5-dioxo-2H,4H,6H-5lambda6-thieno[3,4-c]pyrazol-3-yl}-4-chloro-3-nitrobenzamide

> <CAS>
449784-39-8

> <PriceCoeff>
1.00

> <MW>
412.85

> <Description>
solid

> <FSP3>
0.38

> <clogP>
0.71

> <TPSA>
132.58

> <Acceptor>
6

> <Donor>
1

> <RotBonds>
3

> <HAC>
27

> <Collection>
General

$$$$
F0326-1085
  -ISIS-  06222321442D

 19 20  0  0  0  0  0  0  0  0999 V2000
   -2.7125    1.2208    0.0000 C   0  0  0  0  0  0  0  0  0  0  0  0
    0.7500   -0.8167    0.0000 N   0  3  0  0  0  0  0  0  0  0  0  0
   -0.0458   -0.8042    0.0000 C   0  0  0  0  0  0  0  0  0  0  0  0
   -3.4625    1.4208    0.0000 S   0  0  0  0  0  0  0  0  0  0  0  0
   -2.3458    0.5500    0.0000 N   0  0  0  0  0  0  0  0  0  0  0  0
   -2.3208    1.9000    0.0000 N   0  0  0  0  0  0  0  0  0  0  0  0
   -2.8125    2.4833    0.0000 N   0  0  0  0  0  0  0  0  0  0  0  0
   -1.5833    0.5500    0.0000 C   0  0  0  0  0  0  0  0  0  0  0  0
   -0.4333   -0.1292    0.0000 C   0  0  0  0  0  0  0  0  0  0  0  0
   -3.5000    2.1708    0.0000 C   0  0  0  0  0  0  0  0  0  0  0  0
   -1.1958   -0.1167    0.0000 C   0  0  0  0  0  0  0  0  0  0  0  0
   -0.4458   -1.4542    0.0000 C   0  0  0  0  0  0  0  0  0  0  0  0
    1.1167   -1.4875    0.0000 O   0  5  0  0  0  0  0  0  0  0  0  0
    1.1500   -0.1500    0.0000 O   0  0  0  0  0  0  0  0  0  0  0  0
   -1.1708    1.2208    0.0000 O   0  0  0  0  0  0  0  0  0  0  0  0
   -1.5833   -0.8000    0.0000 C   0  0  0  0  0  0  0  0  0  0  0  0
   -1.2208   -1.4375    0.0000 C   0  0  0  0  0  0  0  0  0  0  0  0
   -0.0833   -2.1500    0.0000 Cl  0  0  0  0  0  0  0  0  0  0  0  0
   -4.1625    2.5708    0.0000 C   0  0  0  0  0  0  0  0  0  0  0  0
  2  3  1  0  0  0  0
  3  9  1  0  0  0  0
  4  1  1  0  0  0  0
  5  1  1  0  0  0  0
  6  1  2  0  0  0  0
  7  6  1  0  0  0  0
  8  5  1  0  0  0  0
  9 11  2  0  0  0  0
 10  4  1  0  0  0  0
 11  8  1  0  0  0  0
 12 17  1  0  0  0  0
 13  2  1  0  0  0  0
 14  2  2  0  0  0  0
 15  8  2  0  0  0  0
 16 11  1  0  0  0  0
 17 16  2  0  0  0  0
 18 12  1  0  0  0  0
 19 10  1  0  0  0  0
 10  7  2  0  0  0  0
  3 12  2  0  0  0  0
M  CHG  2   2   1  13  -1
M  END
> <IDNUMBER>
F0326-1085

> <Chemical_Name>
4-chloro-N-(5-methyl-1,3,4-thiadiazol-2-yl)-3-nitrobenzamide

> <CAS>
312591-31-4

> <PriceCoeff>
1.00

> <MW>
298.71

> <Description>
solid

> <FSP3>
0.10

> <clogP>
2.02

> <TPSA>
126.26

> <Acceptor>
5

> <Donor>
1

> <RotBonds>
3

> <HAC>
19

> <Collection>
General

$$$$
F3386-1381
  -ISIS-  06222321462D

 22 23  0  0  0  0  0  0  0  0999 V2000
    5.1250   -1.9375    0.0000 S   0  0  3  0  0  0  0  0  0  0  0  0
    4.3000   -1.9417    0.0000 C   0  0  0  0  0  0  0  0  0  0  0  0
    5.9500   -1.9250    0.0000 N   0  0  0  0  0  0  0  0  0  0  0  0
    3.9042   -2.6542    0.0000 C   0  0  0  0  0  0  0  0  0  0  0  0
    6.7750   -1.9250    0.0000 C   0  0  0  0  0  0  0  0  0  0  0  0
    3.8792   -1.2375    0.0000 C   0  0  0  0  0  0  0  0  0  0  0  0
    3.0792   -2.6667    0.0000 C   0  0  0  0  0  0  0  0  0  0  0  0
    5.1292   -2.7625    0.0000 O   0  0  0  0  0  0  0  0  0  0  0  0
    5.1167   -1.1125    0.0000 O   0  0  0  0  0  0  0  0  0  0  0  0
    7.1792   -2.6375    0.0000 C   0  0  0  0  0  0  0  0  0  0  0  0
    3.0667   -1.2417    0.0000 C   0  0  0  0  0  0  0  0  0  0  0  0
    2.6542   -1.9542    0.0000 C   0  0  0  0  0  0  0  0  0  0  0  0
    7.1792   -1.2125    0.0000 C   0  0  0  0  0  0  0  0  0  0  0  0
    8.0000   -1.2042    0.0000 C   0  0  0  0  0  0  0  0  0  0  0  0
    8.0042   -2.6292    0.0000 C   0  0  0  0  0  0  0  0  0  0  0  0
    2.6750   -3.3917    0.0000 Cl  0  0  0  0  0  0  0  0  0  0  0  0
    4.2917   -0.5167    0.0000 O   0  0  0  0  0  0  0  0  0  0  0  0
    8.4167   -1.9167    0.0000 C   0  0  0  0  0  0  0  0  0  0  0  0
    8.4167   -3.3500    0.0000 Cl  0  0  0  0  0  0  0  0  0  0  0  0
    6.7625   -0.5000    0.0000 O   0  0  0  0  0  0  0  0  0  0  0  0
    1.8292   -1.9667    0.0000 C   0  0  0  0  0  0  0  0  0  0  0  0
    5.1167   -0.5125    0.0000 C   0  0  0  0  0  0  0  0  0  0  0  0
  2  1  1  0  0  0  0
  3  1  1  0  0  0  0
  4  2  1  0  0  0  0
  5  3  1  0  0  0  0
  6  2  2  0  0  0  0
  7  4  2  0  0  0  0
  8  1  2  0  0  0  0
  9  1  2  0  0  0  0
 10  5  2  0  0  0  0
 11  6  1  0  0  0  0
 12 11  2  0  0  0  0
 13  5  1  0  0  0  0
 14 13  2  0  0  0  0
 15 10  1  0  0  0  0
 16  7  1  0  0  0  0
 17  6  1  0  0  0  0
 18 14  1  0  0  0  0
 19 15  1  0  0  0  0
 20 13  1  0  0  0  0
 21 12  1  0  0  0  0
 22 17  1  0  0  0  0
  7 12  1  0  0  0  0
 18 15  2  0  0  0  0
M  END
> <IDNUMBER>
F3386-1381

> <Chemical_Name>
5-chloro-N-(5-chloro-2-hydroxyphenyl)-2-methoxy-4-methylbenzene-1-sulfonamide

> <CAS>
1172323-10-2

> <PriceCoeff>
1.00

> <MW>
362.23

> <Description>
solid

> <FSP3>
0.14

> <clogP>
4.11

> <TPSA>
84.01

> <Acceptor>
5

> <Donor>
2

> <RotBonds>
4

> <HAC>
22

> <Collection>
General

$$$$
F0327-0397
  -ISIS-  06222321142D

 34 39  0  0  0  0  0  0  0  0999 V2000
   -0.0208    0.3500    0.0000 C   0  0  0  0  0  0  0  0  0  0  0  0
    0.3792   -0.2500    0.0000 C   0  0  0  0  0  0  0  0  0  0  0  0
    0.2542    1.0208    0.0000 C   0  0  0  0  0  0  0  0  0  0  0  0
    0.9542    1.1625    0.0000 N   0  0  0  0  0  0  0  0  0  0  0  0
    4.4792   -0.8875    0.0000 N   0  0  3  0  0  0  0  0  0  0  0  0
   -0.0833   -0.8500    0.0000 S   0  0  0  0  0  0  0  0  0  0  0  0
   -0.7500    0.1625    0.0000 C   0  0  0  0  0  0  0  0  0  0  0  0
   -0.1125    1.6625    0.0000 S   0  0  0  0  0  0  0  0  0  0  0  0
    1.1167   -0.2500    0.0000 N   0  0  0  0  0  0  0  0  0  0  0  0
   -0.7500   -0.5500    0.0000 C   0  0  0  0  0  0  0  0  0  0  0  0
    1.4792   -0.8875    0.0000 C   0  0  0  0  0  0  0  0  0  0  0  0
    4.9792   -0.3292    0.0000 C   0  0  0  0  0  0  0  0  0  0  0  0
    4.8375   -1.5292    0.0000 C   0  0  0  0  0  0  0  0  0  0  0  0
    1.0500    1.8958    0.0000 C   0  0  0  0  0  0  0  0  0  0  0  0
    0.3542    2.2083    0.0000 C   0  0  0  0  0  0  0  0  0  0  0  0
    3.7167   -0.8875    0.0000 C   0  0  0  0  0  0  0  0  0  0  0  0
    2.2375   -0.8875    0.0000 C   0  0  0  0  0  0  0  0  0  0  0  0
    1.1167   -1.5292    0.0000 O   0  0  0  0  0  0  0  0  0  0  0  0
    5.6542   -0.6292    0.0000 C   0  0  0  0  0  0  0  0  0  0  0  0
    5.5542   -1.3667    0.0000 C   0  0  0  0  0  0  0  0  0  0  0  0
    4.8167    0.4333    0.0000 O   0  0  0  0  0  0  0  0  0  0  0  0
    4.5542   -2.2292    0.0000 O   0  0  0  0  0  0  0  0  0  0  0  0
    3.3542   -0.2500    0.0000 C   0  0  0  0  0  0  0  0  0  0  0  0
    3.3542   -1.5292    0.0000 C   0  0  0  0  0  0  0  0  0  0  0  0
    2.6000   -1.5292    0.0000 C   0  0  0  0  0  0  0  0  0  0  0  0
    2.6000   -0.2500    0.0000 C   0  0  0  0  0  0  0  0  0  0  0  0
   -1.3958    0.5500    0.0000 C   0  0  0  0  0  0  0  0  0  0  0  0
   -1.3958   -0.9292    0.0000 C   0  0  0  0  0  0  0  0  0  0  0  0
    1.6375    2.3208    0.0000 C   0  0  0  0  0  0  0  0  0  0  0  0
    0.2792    2.9333    0.0000 C   0  0  0  0  0  0  0  0  0  0  0  0
   -2.0208    0.1833    0.0000 C   0  0  0  0  0  0  0  0  0  0  0  0
   -2.0208   -0.5542    0.0000 C   0  0  0  0  0  0  0  0  0  0  0  0
    0.8875    3.3708    0.0000 C   0  0  0  0  0  0  0  0  0  0  0  0
    1.5542    3.0625    0.0000 C   0  0  0  0  0  0  0  0  0  0  0  0
  2  1  2  0  0  0  0
  3  1  1  0  0  0  0
  4  3  2  0  0  0  0
  5 16  1  0  0  0  0
  6  2  1  0  0  0  0
  7  1  1  0  0  0  0
  8  3  1  0  0  0  0
  9  2  1  0  0  0  0
 10  7  2  0  0  0  0
 11  9  1  0  0  0  0
 12  5  1  0  0  0  0
 13  5  1  0  0  0  0
 14  4  1  0  0  0  0
 15  8  1  0  0  0  0
 16 23  1  0  0  0  0
 17 11  1  0  0  0  0
 18 11  2  0  0  0  0
 19 12  1  0  0  0  0
 20 13  1  0  0  0  0
 21 12  2  0  0  0  0
 22 13  2  0  0  0  0
 23 26  2  0  0  0  0
 24 25  1  0  0  0  0
 25 17  2  0  0  0  0
 26 17  1  0  0  0  0
 27  7  1  0  0  0  0
 28 10  1  0  0  0  0
 29 14  1  0  0  0  0
 30 15  1  0  0  0  0
 31 27  1  0  0  0  0
 32 31  1  0  0  0  0
 33 30  2  0  0  0  0
 34 29  2  0  0  0  0
  6 10  1  0  0  0  0
 14 15  2  0  0  0  0
 32 28  1  0  0  0  0
 34 33  1  0  0  0  0
 24 16  2  0  0  0  0
 20 19  1  0  0  0  0
M  END
> <IDNUMBER>
F0327-0397

> <Chemical_Name>
N-[3-(1,3-benzothiazol-2-yl)-4,5,6,7-tetrahydro-1-benzothiophen-2-yl]-4-(2,5-dioxopyrrolidin-1-yl)benzamide

> <CAS>
328027-93-6

> <PriceCoeff>
1.00

> <MW>
487.59

> <Description>
solid

> <FSP3>
0.23

> <clogP>
3.30

> <TPSA>
135.85

> <Acceptor>
4

> <Donor>
1

> <RotBonds>
4

> <HAC>
34

> <Collection>
General

$$$$
F0452-5570
  -ISIS-  06222321452D

 32 35  0  0  0  0  0  0  0  0999 V2000
   -0.7000   -0.9667    0.0000 C   0  0  0  0  0  0  0  0  0  0  0  0
   -0.7000   -0.2000    0.0000 N   0  0  3  0  0  0  0  0  0  0  0  0
   -1.3833    0.1708    0.0000 C   0  0  0  0  0  0  0  0  0  0  0  0
    0.0000   -1.2000    0.0000 C   0  0  0  0  0  0  0  0  0  0  0  0
    0.4500   -0.5542    0.0000 C   0  0  0  0  0  0  0  0  0  0  0  0
    0.0000    0.0125    0.0000 N   0  0  0  0  0  0  0  0  0  0  0  0
   -1.3833   -1.3500    0.0000 N   0  0  0  0  0  0  0  0  0  0  0  0
   -2.0625   -0.2042    0.0000 C   0  0  0  0  0  0  0  0  0  0  0  0
   -2.0625   -0.9500    0.0000 C   0  0  0  0  0  0  0  0  0  0  0  0
    1.2000   -0.5542    0.0000 C   0  0  0  0  0  0  0  0  0  0  0  0
   -1.3833    0.9625    0.0000 C   0  0  3  0  0  0  0  0  0  0  0  0
   -2.7500   -1.3500    0.0000 C   0  0  0  0  0  0  0  0  0  0  0  0
    1.6042    0.0958    0.0000 N   0  0  0  0  0  0  0  0  0  0  0  0
   -2.8500   -2.1042    0.0000 S   0  0  0  0  0  0  0  0  0  0  0  0
    2.7542    0.7708    0.0000 C   0  0  0  0  0  0  0  0  0  0  0  0
    3.5500    0.7708    0.0000 C   0  0  0  0  0  0  0  0  0  0  0  0
    2.3667    0.0958    0.0000 C   0  0  0  0  0  0  0  0  0  0  0  0
    0.2500   -1.9500    0.0000 Cl  0  0  0  0  0  0  0  0  0  0  0  0
    1.6042   -1.2500    0.0000 O   0  0  0  0  0  0  0  0  0  0  0  0
   -3.4500   -1.0000    0.0000 C   0  0  0  0  0  0  0  0  0  0  0  0
    3.9500    0.0958    0.0000 C   0  0  0  0  0  0  0  0  0  0  0  0
   -3.6125   -2.2500    0.0000 C   0  0  0  0  0  0  0  0  0  0  0  0
   -3.9708   -1.5667    0.0000 C   0  0  0  0  0  0  0  0  0  0  0  0
   -2.1458    0.9625    0.0000 F   0  0  0  0  0  0  0  0  0  0  0  0
   -1.3833    1.7208    0.0000 F   0  0  0  0  0  0  0  0  0  0  0  0
   -0.5958    0.9625    0.0000 F   0  0  0  0  0  0  0  0  0  0  0  0
    3.5500   -0.5542    0.0000 C   0  0  0  0  0  0  0  0  0  0  0  0
    2.8000   -0.5542    0.0000 C   0  0  0  0  0  0  0  0  0  0  0  0
    3.9167    1.4458    0.0000 O   0  0  0  0  0  0  0  0  0  0  0  0
    4.7000    0.0958    0.0000 O   0  0  0  0  0  0  0  0  0  0  0  0
    3.5500    2.1000    0.0000 C   0  0  0  0  0  0  0  0  0  0  0  0
    5.1000   -0.5542    0.0000 C   0  0  0  0  0  0  0  0  0  0  0  0
  2  1  1  0  0  0  0
  3  2  1  0  0  0  0
  4  1  2  0  0  0  0
  5  4  1  0  0  0  0
  6  2  1  0  0  0  0
  7  1  1  0  0  0  0
  8  9  1  0  0  0  0
  9  7  2  0  0  0  0
 10  5  1  0  0  0  0
 11  3  1  0  0  0  0
 12  9  1  0  0  0  0
 13 10  1  0  0  0  0
 14 12  1  0  0  0  0
 15 17  2  0  0  0  0
 16 15  1  0  0  0  0
 17 13  1  0  0  0  0
 18  4  1  0  0  0  0
 19 10  2  0  0  0  0
 20 12  2  0  0  0  0
 21 27  1  0  0  0  0
 22 14  1  0  0  0  0
 23 20  1  0  0  0  0
 24 11  1  0  0  0  0
 25 11  1  0  0  0  0
 26 11  1  0  0  0  0
 27 28  2  0  0  0  0
 28 17  1  0  0  0  0
 29 16  1  0  0  0  0
 30 21  1  0  0  0  0
 31 29  1  0  0  0  0
 32 30  1  0  0  0  0
  6  5  2  0  0  0  0
  8  3  2  0  0  0  0
 22 23  2  0  0  0  0
 21 16  2  0  0  0  0
M  END
> <IDNUMBER>
F0452-5570

> <Chemical_Name>
3-chloro-N-(3,4-dimethoxyphenyl)-5-(thiophen-2-yl)-7-(trifluoromethyl)pyrazolo[1,5-a]pyrimidine-2-carboxamide

> <CAS>
313247-38-0

> <PriceCoeff>
1.00

> <MW>
482.86

> <Description>
solid

> <FSP3>
0.15

> <clogP>
3.77

> <TPSA>
105.99

> <Acceptor>
5

> <Donor>
1

> <RotBonds>
5

> <HAC>
32

> <Collection>
General

$$$$
F2515-0318
  -ISIS-  06222321462D

 35 39  0  0  0  0  0  0  0  0999 V2000
   -4.5625    2.1500    0.0000 C   0  0  0  0  0  0  0  0  0  0  0  0
   -3.8458    2.5583    0.0000 N   0  0  3  0  0  0  0  0  0  0  0  0
   -0.9833    3.3833    0.0000 N   0  0  3  0  0  0  0  0  0  0  0  0
   -4.6583    1.3250    0.0000 N   0  0  0  0  0  0  0  0  0  0  0  0
   -5.3208    2.4875    0.0000 S   0  0  0  0  0  0  0  0  0  0  0  0
   -3.8458    3.3958    0.0000 C   0  0  0  0  0  0  0  0  0  0  0  0
   -1.7000    3.8000    0.0000 C   0  0  0  0  0  0  0  0  0  0  0  0
   -5.8708    1.8708    0.0000 C   0  0  0  0  0  0  0  0  0  0  0  0
   -0.2208    3.6875    0.0000 C   0  0  0  0  0  0  0  0  0  0  0  0
   -0.9458    2.5583    0.0000 C   0  0  0  0  0  0  0  0  0  0  0  0
   -5.4583    1.1583    0.0000 C   0  0  0  0  0  0  0  0  0  0  0  0
   -3.1333    3.8000    0.0000 C   0  0  0  0  0  0  0  0  0  0  0  0
   -2.4208    3.3958    0.0000 C   0  0  0  0  0  0  0  0  0  0  0  0
   -3.1333    2.1458    0.0000 C   0  0  0  0  0  0  0  0  0  0  0  0
   -6.6917    1.8708    0.0000 C   0  0  0  0  0  0  0  0  0  0  0  0
   -4.5625    3.8000    0.0000 O   0  0  0  0  0  0  0  0  0  0  0  0
    0.3125    3.0583    0.0000 C   0  0  0  0  0  0  0  0  0  0  0  0
   -0.1208    2.3583    0.0000 C   0  0  0  0  0  0  0  0  0  0  0  0
    0.0000    4.4667    0.0000 O   0  0  0  0  0  0  0  0  0  0  0  0
   -1.5750    2.0375    0.0000 O   0  0  0  0  0  0  0  0  0  0  0  0
   -2.4208    0.0833    0.0000 N   0  0  0  0  0  0  0  0  0  0  0  0
   -5.8625    0.4458    0.0000 C   0  0  0  0  0  0  0  0  0  0  0  0
   -3.1333    1.3208    0.0000 C   0  0  0  0  0  0  0  0  0  0  0  0
   -7.1042    1.1500    0.0000 C   0  0  0  0  0  0  0  0  0  0  0  0
   -6.6792    0.4375    0.0000 C   0  0  0  0  0  0  0  0  0  0  0  0
   -1.6958    4.6167    0.0000 C   0  0  0  0  0  0  0  0  0  0  0  0
   -2.4208    0.9083    0.0000 C   0  0  0  0  0  0  0  0  0  0  0  0
   -3.1250    4.6292    0.0000 C   0  0  0  0  0  0  0  0  0  0  0  0
   -7.9167    1.1583    0.0000 O   0  0  0  0  0  0  0  0  0  0  0  0
   -2.4083    5.0292    0.0000 C   0  0  0  0  0  0  0  0  0  0  0  0
   -3.1333   -0.3292    0.0000 C   0  0  0  0  0  0  0  0  0  0  0  0
   -3.8500    0.9083    0.0000 C   0  0  0  0  0  0  0  0  0  0  0  0
   -8.3375    0.4333    0.0000 C   0  0  0  0  0  0  0  0  0  0  0  0
   -3.8500    0.0833    0.0000 C   0  0  0  0  0  0  0  0  0  0  0  0
   -7.9167   -0.2792    0.0000 C   0  0  0  0  0  0  0  0  0  0  0  0
  2  1  1  0  0  0  0
  3  7  1  0  0  0  0
  4  1  2  0  0  0  0
  5  1  1  0  0  0  0
  6  2  1  0  0  0  0
  7 13  1  0  0  0  0
  8  5  1  0  0  0  0
  9  3  1  0  0  0  0
 10  3  1  0  0  0  0
 11  4  1  0  0  0  0
 12  6  1  0  0  0  0
 13 12  2  0  0  0  0
 14  2  1  0  0  0  0
 15  8  1  0  0  0  0
 16  6  2  0  0  0  0
 17  9  1  0  0  0  0
 18 10  1  0  0  0  0
 19  9  2  0  0  0  0
 20 10  2  0  0  0  0
 21 27  2  0  0  0  0
 22 11  1  0  0  0  0
 23 14  1  0  0  0  0
 24 15  2  0  0  0  0
 25 22  2  0  0  0  0
 26 30  1  0  0  0  0
 27 23  1  0  0  0  0
 28 12  1  0  0  0  0
 29 24  1  0  0  0  0
 30 28  2  0  0  0  0
 31 34  2  0  0  0  0
 32 23  2  0  0  0  0
 33 29  1  0  0  0  0
 34 32  1  0  0  0  0
 35 33  1  0  0  0  0
  8 11  2  0  0  0  0
 25 24  1  0  0  0  0
 31 21  1  0  0  0  0
  7 26  2  0  0  0  0
 18 17  1  0  0  0  0
M  END
> <IDNUMBER>
F2515-0318

> <Chemical_Name>
3-(2,5-dioxopyrrolidin-1-yl)-N-(6-ethoxy-1,3-benzothiazol-2-yl)-N-[(pyridin-3-yl)methyl]benzamide

> <CAS>
895015-86-8

> <PriceCoeff>
1.00

> <MW>
486.54

> <Description>
solid

> <FSP3>
0.19

> <clogP>
2.63

> <TPSA>
120.94

> <Acceptor>
6

> <Donor>
1

> <RotBonds>
8

> <HAC>
35

> <Collection>
General

$$$$
F3041-0409
  -ISIS-  06222321152D

 25 27  0  0  0  0  0  0  0  0999 V2000
    4.5667   -4.7917    0.0000 N   0  0  3  0  0  0  0  0  0  0  0  0
    4.7292   -7.7792    0.0000 S   0  0  3  0  0  0  0  0  0  0  0  0
    3.5917   -4.7917    0.0000 C   0  0  0  0  0  0  0  0  0  0  0  0
    4.7292   -5.5292    0.0000 C   0  0  0  0  0  0  0  0  0  0  0  0
    4.0792   -5.9042    0.0000 C   0  0  0  0  0  0  0  0  0  0  0  0
    5.1250   -4.2917    0.0000 C   0  0  0  0  0  0  0  0  0  0  0  0
    3.4375   -5.5292    0.0000 C   0  0  0  0  0  0  0  0  0  0  0  0
    4.7292   -7.0292    0.0000 C   0  0  0  0  0  0  0  0  0  0  0  0
    4.0792   -6.6542    0.0000 C   0  0  0  0  0  0  0  0  0  0  0  0
    4.7292   -8.5292    0.0000 N   0  0  3  0  0  0  0  0  0  0  0  0
    5.3792   -5.9042    0.0000 C   0  0  0  0  0  0  0  0  0  0  0  0
    5.3792   -6.6542    0.0000 C   0  0  0  0  0  0  0  0  0  0  0  0
    5.4792   -7.7792    0.0000 O   0  0  0  0  0  0  0  0  0  0  0  0
    3.9792   -7.7792    0.0000 O   0  0  0  0  0  0  0  0  0  0  0  0
    3.0417   -4.2917    0.0000 O   0  0  0  0  0  0  0  0  0  0  0  0
    4.9625   -3.5625    0.0000 C   0  0  0  0  0  0  0  0  0  0  0  0
    5.8292   -4.5167    0.0000 O   0  0  0  0  0  0  0  0  0  0  0  0
    2.7875   -5.9042    0.0000 C   0  0  0  0  0  0  0  0  0  0  0  0
    3.4375   -7.0292    0.0000 C   0  0  0  0  0  0  0  0  0  0  0  0
    2.7875   -6.6542    0.0000 C   0  0  0  0  0  0  0  0  0  0  0  0
    5.5167   -3.0542    0.0000 C   0  0  3  0  0  0  0  0  0  0  0  0
    4.0792   -8.9042    0.0000 C   0  0  0  0  0  0  0  0  0  0  0  0
    5.3792   -8.9042    0.0000 C   0  0  0  0  0  0  0  0  0  0  0  0
    6.2250   -3.2875    0.0000 C   0  0  0  0  0  0  0  0  0  0  0  0
    5.3542   -2.3292    0.0000 C   0  0  0  0  0  0  0  0  0  0  0  0
  2  8  1  0  0  0  0
  3  1  1  0  0  0  0
  4  1  1  0  0  0  0
  5  4  1  0  0  0  0
  6  1  1  0  0  0  0
  7  3  1  0  0  0  0
  8 12  2  0  0  0  0
  9  5  1  0  0  0  0
 10  2  1  0  0  0  0
 11  4  2  0  0  0  0
 12 11  1  0  0  0  0
 13  2  2  0  0  0  0
 14  2  2  0  0  0  0
 15  3  2  0  0  0  0
 16  6  1  0  0  0  0
 17  6  2  0  0  0  0
 18  7  1  0  0  0  0
 19  9  2  0  0  0  0
 20 18  2  0  0  0  0
 21 16  1  0  0  0  0
 22 10  1  0  0  0  0
 23 10  1  0  0  0  0
 24 21  1  0  0  0  0
 25 21  1  0  0  0  0
  7  5  2  0  0  0  0
  8  9  1  0  0  0  0
 19 20  1  0  0  0  0
M  END
> <IDNUMBER>
F3041-0409

> <Chemical_Name>
N,N-dimethyl-2-(3-methylbutanoyl)-3-oxo-2-azatricyclo[6.3.1.0^{4,12}]dodeca-1(11),4(12),5,7,9-pentaene-9-sulfonamide

> <CAS>
881477-17-4

> <PriceCoeff>
1.00

> <MW>
360.43

> <Description>
solid

> <FSP3>
0.33

> <clogP>
2.82

> <TPSA>
83.14

> <Acceptor>
4

> <Donor>
0

> <RotBonds>
5

> <HAC>
25

> <Collection>
General

$$$$
F2791-0178
  -ISIS-  06222321462D

 31 34  0  0  0  0  0  0  0  0999 V2000
    1.6917    6.2750    0.0000 N   0  3  0  0  0  0  0  0  0  0  0  0
    0.9792    5.8542    0.0000 C   0  0  0  0  0  0  0  0  0  0  0  0
    0.2667    3.7958    0.0000 C   0  0  0  0  0  0  0  0  0  0  0  0
   -0.4500    3.3833    0.0000 N   0  0  3  0  0  0  0  0  0  0  0  0
   -3.9250    1.9083    0.0000 N   0  0  0  0  0  0  0  0  0  0  0  0
   -3.2333    2.3625    0.0000 N   0  0  0  0  0  0  0  0  0  0  0  0
    0.9792    5.0292    0.0000 C   0  0  0  0  0  0  0  0  0  0  0  0
   -1.8833    2.5500    0.0000 N   0  0  3  0  0  0  0  0  0  0  0  0
   -4.5625    0.6375    0.0000 N   0  0  3  0  0  0  0  0  0  0  0  0
    0.2667    4.6167    0.0000 C   0  0  0  0  0  0  0  0  0  0  0  0
   -2.4958    1.9958    0.0000 C   0  0  0  0  0  0  0  0  0  0  0  0
   -3.8750    1.0958    0.0000 C   0  0  0  0  0  0  0  0  0  0  0  0
    0.2625    6.2667    0.0000 C   0  0  0  0  0  0  0  0  0  0  0  0
    2.4125    5.8667    0.0000 O   0  5  0  0  0  0  0  0  0  0  0  0
    1.6917    7.1042    0.0000 O   0  0  0  0  0  0  0  0  0  0  0  0
   -1.1708    3.7958    0.0000 C   0  0  0  0  0  0  0  0  0  0  0  0
   -0.4500    2.5500    0.0000 C   0  0  0  0  0  0  0  0  0  0  0  0
   -1.8833    3.3833    0.0000 C   0  0  0  0  0  0  0  0  0  0  0  0
   -1.1708    2.1458    0.0000 C   0  0  0  0  0  0  0  0  0  0  0  0
    0.9792    3.3833    0.0000 O   0  0  0  0  0  0  0  0  0  0  0  0
   -5.2958    1.0083    0.0000 C   0  0  0  0  0  0  0  0  0  0  0  0
   -4.5083   -0.1875    0.0000 C   0  0  0  0  0  0  0  0  0  0  0  0
   -0.4500    5.0292    0.0000 C   0  0  0  0  0  0  0  0  0  0  0  0
   -2.4458    1.1750    0.0000 C   0  0  0  0  0  0  0  0  0  0  0  0
   -3.1333    0.7208    0.0000 C   0  0  0  0  0  0  0  0  0  0  0  0
   -0.4500    5.8542    0.0000 C   0  0  0  0  0  0  0  0  0  0  0  0
    0.2542    7.1042    0.0000 Cl  0  0  0  0  0  0  0  0  0  0  0  0
   -5.9875    0.5500    0.0000 C   0  0  0  0  0  0  0  0  0  0  0  0
   -5.2083   -0.6417    0.0000 C   0  0  0  0  0  0  0  0  0  0  0  0
   -5.9458   -0.2750    0.0000 C   0  0  3  0  0  0  0  0  0  0  0  0
   -6.6292   -0.7250    0.0000 C   0  0  0  0  0  0  0  0  0  0  0  0
  2  1  1  0  0  0  0
  3 10  1  0  0  0  0
  4  3  1  0  0  0  0
  5  6  1  0  0  0  0
  6 11  2  0  0  0  0
  7  2  2  0  0  0  0
  8 19  1  0  0  0  0
  9 12  1  0  0  0  0
 10  7  1  0  0  0  0
 11  8  1  0  0  0  0
 12 25  1  0  0  0  0
 13  2  1  0  0  0  0
 14  1  1  0  0  0  0
 15  1  2  0  0  0  0
 16  4  1  0  0  0  0
 17  4  1  0  0  0  0
 18 16  1  0  0  0  0
 19 17  1  0  0  0  0
 20  3  2  0  0  0  0
 21  9  1  0  0  0  0
 22  9  1  0  0  0  0
 23 26  1  0  0  0  0
 24 11  1  0  0  0  0
 25 24  2  0  0  0  0
 26 13  2  0  0  0  0
 27 13  1  0  0  0  0
 28 21  1  0  0  0  0
 29 22  1  0  0  0  0
 30 29  1  0  0  0  0
 31 30  1  0  0  0  0
 10 23  2  0  0  0  0
  8 18  1  0  0  0  0
 12  5  2  0  0  0  0
 30 28  1  0  0  0  0
M  CHG  2   1   1  14  -1
M  END
> <IDNUMBER>
F2791-0178

> <Chemical_Name>
3-[4-(4-chloro-3-nitrobenzoyl)piperazin-1-yl]-6-(4-methylpiperidin-1-yl)pyridazine

> <CAS>
899953-54-9

> <PriceCoeff>
1.00

> <MW>
444.91

> <Description>
solid

> <FSP3>
0.48

> <clogP>
3.54

> <TPSA>
95.71

> <Acceptor>
5

> <Donor>
2

> <RotBonds>
5

> <HAC>
31

> <Collection>
General

$$$$
F3325-0013
  -ISIS-  06222321462D

 18 19  0  0  0  0  0  0  0  0999 V2000
   -0.4875   -1.8042    0.0000 N   0  0  3  0  0  0  0  0  0  0  0  0
   -0.0333   -2.4917    0.0000 C   0  0  0  0  0  0  0  0  0  0  0  0
    0.0292   -1.1542    0.0000 C   0  0  0  0  0  0  0  0  0  0  0  0
    0.7625   -2.2750    0.0000 C   0  0  3  0  0  0  0  0  0  0  0  0
    0.8000   -1.4542    0.0000 C   0  0  0  0  0  0  0  0  0  0  0  0
    1.4042   -2.7917    0.0000 N   0  0  3  0  0  0  0  0  0  0  0  0
    2.6792   -3.8250    0.0000 N   0  0  3  0  0  0  0  0  0  0  0  0
   -0.3333   -3.2625    0.0000 O   0  0  0  0  0  0  0  0  0  0  0  0
   -0.1875   -0.3625    0.0000 O   0  0  0  0  0  0  0  0  0  0  0  0
    1.2750   -3.6042    0.0000 C   0  0  0  0  0  0  0  0  0  0  0  0
    2.1667   -2.4875    0.0000 C   0  0  0  0  0  0  0  0  0  0  0  0
   -1.3125   -1.7625    0.0000 C   0  0  0  0  0  0  0  0  0  0  0  0
   -1.6875   -1.0292    0.0000 C   0  0  0  0  0  0  0  0  0  0  0  0
    2.8125   -3.0042    0.0000 C   0  0  0  0  0  0  0  0  0  0  0  0
    1.9125   -4.1167    0.0000 C   0  0  0  0  0  0  0  0  0  0  0  0
   -2.5125   -0.9875    0.0000 C   0  0  0  0  0  0  0  0  0  0  0  0
    3.3250   -4.3417    0.0000 C   0  0  0  0  0  0  0  0  0  0  0  0
    4.0917   -4.0500    0.0000 C   0  0  0  0  0  0  0  0  0  0  0  0
  2  1  1  0  0  0  0
  3  1  1  0  0  0  0
  4  2  1  0  0  0  0
  5  3  1  0  0  0  0
  6  4  1  0  0  0  0
  7 14  1  0  0  0  0
  8  2  2  0  0  0  0
  9  3  2  0  0  0  0
 10  6  1  0  0  0  0
 11  6  1  0  0  0  0
 12  1  1  0  0  0  0
 13 12  1  0  0  0  0
 14 11  1  0  0  0  0
 15 10  1  0  0  0  0
 16 13  2  0  0  0  0
 17  7  1  0  0  0  0
 18 17  1  0  0  0  0
  4  5  1  0  0  0  0
 15  7  1  0  0  0  0
M  END
> <IDNUMBER>
F3325-0013

> <Chemical_Name>
1-allyl-3-(4-ethylpiperazin-1-yl)pyrrolidine-2,5-dione

> <CAS>
881484-13-5

> <PriceCoeff>
1.50

> <MW>
251.32

> <Description>
solid

> <FSP3>
0.69

> <clogP>
0.81

> <TPSA>
43.86

> <Acceptor>
4

> <Donor>
2

> <RotBonds>
4

> <HAC>
18

> <Collection>
Advanced

$$$$
F1816-1184
  -ISIS-  06222321452D

 26 28  0  0  0  0  0  0  0  0999 V2000
   -4.5833    2.5500    0.0000 C   0  0  0  0  0  0  0  0  0  0  0  0
   -3.1583    5.0417    0.0000 N   0  0  3  0  0  0  0  0  0  0  0  0
   -4.6833    1.7333    0.0000 N   0  0  3  0  0  0  0  0  0  0  0  0
   -3.8708    2.9708    0.0000 N   0  0  0  0  0  0  0  0  0  0  0  0
   -5.3208    2.8958    0.0000 S   0  0  0  0  0  0  0  0  0  0  0  0
   -5.4875    1.5750    0.0000 C   0  0  0  0  0  0  0  0  0  0  0  0
   -5.8958    2.2958    0.0000 C   0  0  0  0  0  0  0  0  0  0  0  0
   -2.4833    5.5167    0.0000 C   0  0  0  0  0  0  0  0  0  0  0  0
   -3.8208    5.5167    0.0000 C   0  0  0  0  0  0  0  0  0  0  0  0
   -3.8708    3.8000    0.0000 C   0  0  0  0  0  0  0  0  0  0  0  0
   -3.1583    4.2125    0.0000 C   0  0  0  0  0  0  0  0  0  0  0  0
   -4.2500    0.3500    0.0000 C   0  0  0  0  0  0  0  0  0  0  0  0
   -4.4333   -0.4625    0.0000 C   0  0  0  0  0  0  0  0  0  0  0  0
   -5.9125    0.8708    0.0000 C   0  0  0  0  0  0  0  0  0  0  0  0
   -3.5708    6.3042    0.0000 C   0  0  0  0  0  0  0  0  0  0  0  0
   -2.7458    6.3125    0.0000 C   0  0  0  0  0  0  0  0  0  0  0  0
   -4.6083    5.2750    0.0000 O   0  0  0  0  0  0  0  0  0  0  0  0
   -1.6958    5.2625    0.0000 O   0  0  0  0  0  0  0  0  0  0  0  0
   -4.5958    4.2042    0.0000 O   0  0  0  0  0  0  0  0  0  0  0  0
   -4.0625    1.1583    0.0000 C   0  0  0  0  0  0  0  0  0  0  0  0
   -6.7042    2.3125    0.0000 C   0  0  0  0  0  0  0  0  0  0  0  0
   -5.5208    0.1375    0.0000 O   0  0  0  0  0  0  0  0  0  0  0  0
   -7.1417    1.6083    0.0000 C   0  0  0  0  0  0  0  0  0  0  0  0
   -6.7292    0.8833    0.0000 C   0  0  0  0  0  0  0  0  0  0  0  0
   -5.9458   -0.5667    0.0000 C   0  0  0  0  0  0  0  0  0  0  0  0
   -5.5625   -1.2792    0.0000 C   0  0  0  0  0  0  0  0  0  0  0  0
  2 11  1  0  0  0  0
  3  1  1  0  0  0  0
  4  1  2  0  0  0  0
  5  1  1  0  0  0  0
  6  3  1  0  0  0  0
  7  5  1  0  0  0  0
  8  2  1  0  0  0  0
  9  2  1  0  0  0  0
 10  4  1  0  0  0  0
 11 10  1  0  0  0  0
 12 20  1  0  0  0  0
 13 12  3  0  0  0  0
 14  6  1  0  0  0  0
 15  9  1  0  0  0  0
 16  8  1  0  0  0  0
 17  9  2  0  0  0  0
 18  8  2  0  0  0  0
 19 10  2  0  0  0  0
 20  3  1  0  0  0  0
 21  7  1  0  0  0  0
 22 14  1  0  0  0  0
 23 21  2  0  0  0  0
 24 14  2  0  0  0  0
 25 22  1  0  0  0  0
 26 25  1  0  0  0  0
  6  7  2  0  0  0  0
 23 24  1  0  0  0  0
 16 15  1  0  0  0  0
M  END
> <IDNUMBER>
F1816-1184

> <Chemical_Name>
2-(2,5-dioxopyrrolidin-1-yl)-N-[(2Z)-4-ethoxy-3-(prop-2-yn-1-yl)-2,3-dihydro-1,3-benzothiazol-2-ylidene]acetamide

> <CAS>
868674-74-2

> <PriceCoeff>
1.00

> <MW>
371.41

> <Description>
solid

> <FSP3>
0.33

> <clogP>
3.33

> <TPSA>
104.58

> <Acceptor>
4

> <Donor>
0

> <RotBonds>
7

> <HAC>
26

> <Collection>
General

$$$$
F6169-0499
  -ISIS-  06222321462D

 27 29  0  0  0  0  0  0  0  0999 V2000
   -1.7208    4.2750    0.0000 N   0  0  3  0  0  0  0  0  0  0  0  0
   -1.7708    5.0917    0.0000 N   0  0  0  0  0  0  0  0  0  0  0  0
   -1.0708    5.5417    0.0000 C   0  0  0  0  0  0  0  0  0  0  0  0
   -5.7208    1.6208    0.0000 N   0  3  0  0  0  0  0  0  0  0  0  0
   -5.5708    2.4333    0.0000 C   0  0  0  0  0  0  0  0  0  0  0  0
   -2.4208    3.8333    0.0000 C   0  0  3  0  0  0  0  0  0  0  0  0
   -3.1583    4.2125    0.0000 C   0  0  0  0  0  0  0  0  0  0  0  0
   -1.1208    6.3667    0.0000 N   0  0  3  0  0  0  0  0  0  0  0  0
   -0.9958    3.9000    0.0000 C   0  0  0  0  0  0  0  0  0  0  0  0
   -0.3375    5.1667    0.0000 C   0  0  0  0  0  0  0  0  0  0  0  0
   -0.4708    6.8792    0.0000 N   0  0  0  0  0  0  0  0  0  0  0  0
   -0.3000    4.3417    0.0000 C   0  0  0  0  0  0  0  0  0  0  0  0
   -3.8458    3.7708    0.0000 N   0  0  0  0  0  0  0  0  0  0  0  0
   -4.7833    2.6958    0.0000 C   0  0  0  0  0  0  0  0  0  0  0  0
   -6.1792    2.9583    0.0000 C   0  0  0  0  0  0  0  0  0  0  0  0
   -6.5000    1.3458    0.0000 O   0  5  0  0  0  0  0  0  0  0  0  0
   -1.8083    6.8167    0.0000 C   0  0  0  0  0  0  0  0  0  0  0  0
   -5.1083    1.0708    0.0000 O   0  0  0  0  0  0  0  0  0  0  0  0
   -4.6250    3.5000    0.0000 C   0  0  0  0  0  0  0  0  0  0  0  0
   -1.5875    7.6042    0.0000 C   0  0  0  0  0  0  0  0  0  0  0  0
   -3.1958    5.0292    0.0000 O   0  0  0  0  0  0  0  0  0  0  0  0
   -0.9583    3.0833    0.0000 O   0  0  0  0  0  0  0  0  0  0  0  0
   -0.7708    7.6542    0.0000 C   0  0  0  0  0  0  0  0  0  0  0  0
   -6.0292    3.7750    0.0000 C   0  0  0  0  0  0  0  0  0  0  0  0
   -5.2500    4.0417    0.0000 C   0  0  0  0  0  0  0  0  0  0  0  0
   -6.9667    2.6958    0.0000 Cl  0  0  0  0  0  0  0  0  0  0  0  0
   -2.3833    3.0167    0.0000 C   0  0  0  0  0  0  0  0  0  0  0  0
  2  1  1  0  0  0  0
  3  2  2  0  0  0  0
  4  5  1  0  0  0  0
  5 14  2  0  0  0  0
  6  1  1  0  0  0  0
  7  6  1  0  0  0  0
  8  3  1  0  0  0  0
  9  1  1  0  0  0  0
 10 12  2  0  0  0  0
 11  8  1  0  0  0  0
 12  9  1  0  0  0  0
 13  7  1  0  0  0  0
 14 19  1  0  0  0  0
 15 24  2  0  0  0  0
 16  4  1  0  0  0  0
 17  8  1  0  0  0  0
 18  4  2  0  0  0  0
 19 13  1  0  0  0  0
 20 17  2  0  0  0  0
 21  7  2  0  0  0  0
 22  9  2  0  0  0  0
 23 11  2  0  0  0  0
 24 25  1  0  0  0  0
 25 19  2  0  0  0  0
 26 15  1  0  0  0  0
 27  6  1  0  0  0  0
  3 10  1  0  0  0  0
 23 20  1  0  0  0  0
 15  5  1  0  0  0  0
M  CHG  2   4   1  16  -1
M  END
> <IDNUMBER>
F6169-0499

> <Chemical_Name>
N-(4-chloro-3-nitrophenyl)-2-[6-oxo-3-(1H-pyrazol-1-yl)-1,6-dihydropyridazin-1-yl]propanamide

> <CAS>
1334372-56-3

> <PriceCoeff>
1.00

> <MW>
388.77

> <Description>
solid

> <FSP3>
0.12

> <clogP>
0.76

> <TPSA>
122.73

> <Acceptor>
5

> <Donor>
2

> <RotBonds>
5

> <HAC>
27

> <Collection>
General

$$$$
F0348-1184
  -ISIS-  06222321142D

 22 23  0  0  0  0  0  0  0  0999 V2000
   -3.5958    0.3500    0.0000 C   0  0  0  0  0  0  0  0  0  0  0  0
   -3.5958    1.2958    0.0000 C   0  0  0  0  0  0  0  0  0  0  0  0
   -2.7708   -0.1042    0.0000 N   0  0  0  0  0  0  0  0  0  0  0  0
   -1.9708    0.3500    0.0000 N   0  0  3  0  0  0  0  0  0  0  0  0
   -1.9708    1.2958    0.0000 C   0  0  0  0  0  0  0  0  0  0  0  0
   -4.3958   -0.1042    0.0000 N   0  3  0  0  0  0  0  0  0  0  0  0
   -1.1208   -0.1500    0.0000 C   0  0  0  0  0  0  0  0  0  0  0  0
   -0.2458    0.3333    0.0000 C   0  0  0  0  0  0  0  0  0  0  0  0
   -5.1708    0.3500    0.0000 O   0  5  0  0  0  0  0  0  0  0  0  0
   -4.3958   -1.0292    0.0000 O   0  0  0  0  0  0  0  0  0  0  0  0
   -4.4583    1.7958    0.0000 Cl  0  0  0  0  0  0  0  0  0  0  0  0
    0.6000   -0.2000    0.0000 N   0  0  0  0  0  0  0  0  0  0  0  0
   -0.2458    1.3333    0.0000 O   0  0  0  0  0  0  0  0  0  0  0  0
   -1.1208    1.7833    0.0000 C   0  0  0  0  0  0  0  0  0  0  0  0
    1.4667    0.2625    0.0000 C   0  0  0  0  0  0  0  0  0  0  0  0
    4.0792   -1.3000    0.0000 C   0  0  0  0  0  0  0  0  0  0  0  0
    2.3167   -0.2542    0.0000 C   0  0  0  0  0  0  0  0  0  0  0  0
    4.9542   -1.7792    0.0000 Cl  0  0  0  0  0  0  0  0  0  0  0  0
    3.2000   -1.8042    0.0000 C   0  0  0  0  0  0  0  0  0  0  0  0
    4.0667   -0.3000    0.0000 C   0  0  0  0  0  0  0  0  0  0  0  0
    2.3167   -1.2792    0.0000 C   0  0  0  0  0  0  0  0  0  0  0  0
    3.2000    0.2208    0.0000 C   0  0  0  0  0  0  0  0  0  0  0  0
  2  1  1  0  0  0  0
  3  1  2  0  0  0  0
  4  3  1  0  0  0  0
  5  2  2  0  0  0  0
  6  1  1  0  0  0  0
  7  4  1  0  0  0  0
  8  7  1  0  0  0  0
  9  6  1  0  0  0  0
 10  6  2  0  0  0  0
 11  2  1  0  0  0  0
 12  8  1  0  0  0  0
 13  8  2  0  0  0  0
 14  5  1  0  0  0  0
 15 12  1  0  0  0  0
 16 20  1  0  0  0  0
 17 15  1  0  0  0  0
 18 16  1  0  0  0  0
 19 21  1  0  0  0  0
 20 22  2  0  0  0  0
 21 17  2  0  0  0  0
 22 17  1  0  0  0  0
  4  5  1  0  0  0  0
 16 19  2  0  0  0  0
M  CHG  2   6   1   9  -1
M  END
> <IDNUMBER>
F0348-1184

> <Chemical_Name>
2-(4-chloro-5-methyl-3-nitro-1H-pyrazol-1-yl)-N-[(4-chlorophenyl)methyl]acetamide

> <CAS>
353455-65-9

> <PriceCoeff>
1.00

> <MW>
343.17

> <Description>
solid

> <FSP3>
0.23

> <clogP>
2.74

> <TPSA>
90.06

> <Acceptor>
4

> <Donor>
1

> <RotBonds>
5

> <HAC>
22

> <Collection>
General

$$$$
F0327-0318
  -ISIS-  06222321442D

 27 30  0  0  0  0  0  0  0  0999 V2000
    0.2167   -2.2792    0.0000 N   0  0  3  0  0  0  0  0  0  0  0  0
   -1.6833    1.8000    0.0000 C   0  0  0  0  0  0  0  0  0  0  0  0
   -1.6208    1.0833    0.0000 N   0  0  0  0  0  0  0  0  0  0  0  0
   -1.0208    2.1000    0.0000 S   0  0  0  0  0  0  0  0  0  0  0  0
   -0.5208   -2.3375    0.0000 C   0  0  0  0  0  0  0  0  0  0  0  0
    0.4792   -2.9542    0.0000 C   0  0  0  0  0  0  0  0  0  0  0  0
   -0.5458    1.5625    0.0000 C   0  0  0  0  0  0  0  0  0  0  0  0
    1.6792    0.2833    0.0000 C   0  0  0  0  0  0  0  0  0  0  0  0
   -0.9000    0.9208    0.0000 C   0  0  0  0  0  0  0  0  0  0  0  0
    1.3167    0.9208    0.0000 N   0  0  0  0  0  0  0  0  0  0  0  0
    0.5792   -1.6375    0.0000 C   0  0  0  0  0  0  0  0  0  0  0  0
    0.2000    1.5625    0.0000 C   0  0  0  0  0  0  0  0  0  0  0  0
    1.3167   -0.3542    0.0000 C   0  0  0  0  0  0  0  0  0  0  0  0
    0.5792    0.9208    0.0000 C   0  0  0  0  0  0  0  0  0  0  0  0
   -0.0833   -3.4167    0.0000 C   0  0  0  0  0  0  0  0  0  0  0  0
   -0.7000   -3.0375    0.0000 C   0  0  0  0  0  0  0  0  0  0  0  0
    2.4167    0.2833    0.0000 O   0  0  0  0  0  0  0  0  0  0  0  0
    1.2000   -3.1167    0.0000 O   0  0  0  0  0  0  0  0  0  0  0  0
   -1.0000   -1.7542    0.0000 O   0  0  0  0  0  0  0  0  0  0  0  0
   -2.3458    2.1833    0.0000 S   0  0  0  0  0  0  0  0  0  0  0  0
   -0.5458    0.2833    0.0000 C   0  0  0  0  0  0  0  0  0  0  0  0
    1.3167   -1.6375    0.0000 C   0  0  0  0  0  0  0  0  0  0  0  0
    0.2167   -1.0000    0.0000 C   0  0  0  0  0  0  0  0  0  0  0  0
    1.6792   -1.0000    0.0000 C   0  0  0  0  0  0  0  0  0  0  0  0
    0.5792   -0.3542    0.0000 C   0  0  0  0  0  0  0  0  0  0  0  0
    0.2000    0.2833    0.0000 C   0  0  0  0  0  0  0  0  0  0  0  0
   -2.3458    2.9208    0.0000 C   0  0  0  0  0  0  0  0  0  0  0  0
  2  4  1  0  0  0  0
  3  9  1  0  0  0  0
  4  7  1  0  0  0  0
  5  1  1  0  0  0  0
  6  1  1  0  0  0  0
  7 12  1  0  0  0  0
  8 13  1  0  0  0  0
  9 21  1  0  0  0  0
 10  8  1  0  0  0  0
 11  1  1  0  0  0  0
 12 14  2  0  0  0  0
 13 25  2  0  0  0  0
 14 10  1  0  0  0  0
 15  6  1  0  0  0  0
 16  5  1  0  0  0  0
 17  8  2  0  0  0  0
 18  6  2  0  0  0  0
 19  5  2  0  0  0  0
 20  2  1  0  0  0  0
 21 26  2  0  0  0  0
 22 11  1  0  0  0  0
 23 11  2  0  0  0  0
 24 22  2  0  0  0  0
 25 23  1  0  0  0  0
 26 14  1  0  0  0  0
 27 20  1  0  0  0  0
 16 15  1  0  0  0  0
 24 13  1  0  0  0  0
  7  9  2  0  0  0  0
  2  3  2  0  0  0  0
M  END
> <IDNUMBER>
F0327-0318

> <Chemical_Name>
4-(2,5-dioxopyrrolidin-1-yl)-N-[2-(methylsulfanyl)-1,3-benzothiazol-6-yl]benzamide

> <CAS>
330200-77-6

> <PriceCoeff>
1.00

> <MW>
397.47

> <Description>
solid

> <FSP3>
0.16

> <clogP>
2.55

> <TPSA>
132.91

> <Acceptor>
4

> <Donor>
1

> <RotBonds>
4

> <HAC>
27

> <Collection>
General

$$$$
F0440-0379
  -ISIS-  06222321452D

 28 30  0  0  0  0  0  0  0  0999 V2000
    0.7500   -1.4000    0.0000 C   0  0  0  0  0  0  0  0  0  0  0  0
    1.1167   -1.6167    0.0000 S   0  0  3  0  0  0  0  0  0  0  0  0
    0.6542   -0.9792    0.0000 S   0  0  0  0  0  0  0  0  0  0  0  0
    0.2792    0.5708    0.0000 N   0  0  3  0  0  0  0  0  0  0  0  0
    0.2500   -0.9167    0.0000 C   0  0  0  0  0  0  0  0  0  0  0  0
    2.6000   -2.4792    0.0000 N   0  3  0  0  0  0  0  0  0  0  0  0
    0.0542   -1.3000    0.0000 N   0  0  0  0  0  0  0  0  0  0  0  0
    0.0500   -0.5167    0.0000 N   0  0  0  0  0  0  0  0  0  0  0  0
    0.3542   -1.6000    0.0000 C   0  0  0  0  0  0  0  0  0  0  0  0
    0.1542    0.9708    0.0000 C   0  0  0  0  0  0  0  0  0  0  0  0
    0.7167    0.5500    0.0000 C   0  0  0  0  0  0  0  0  0  0  0  0
    0.2542   -0.1542    0.0000 C   0  0  0  0  0  0  0  0  0  0  0  0
    0.0542    0.2125    0.0000 C   0  0  0  0  0  0  0  0  0  0  0  0
    1.5000   -1.8542    0.0000 C   0  0  0  0  0  0  0  0  0  0  0  0
    2.2167   -2.2792    0.0000 C   0  0  0  0  0  0  0  0  0  0  0  0
    1.3500   -1.2500    0.0000 O   0  0  0  0  0  0  0  0  0  0  0  0
    0.8792   -2.0000    0.0000 O   0  0  0  0  0  0  0  0  0  0  0  0
    2.6167   -2.9167    0.0000 O   0  5  0  0  0  0  0  0  0  0  0  0
    2.9792   -2.2542    0.0000 O   0  0  0  0  0  0  0  0  0  0  0  0
    0.5000    1.2125    0.0000 C   0  0  0  0  0  0  0  0  0  0  0  0
    0.8500    0.9500    0.0000 C   0  0  0  0  0  0  0  0  0  0  0  0
   -0.2500    1.0958    0.0000 O   0  0  0  0  0  0  0  0  0  0  0  0
    0.9792    0.2125    0.0000 O   0  0  0  0  0  0  0  0  0  0  0  0
    0.6792   -0.1792    0.0000 O   0  0  0  0  0  0  0  0  0  0  0  0
    1.5000   -2.2792    0.0000 C   0  0  0  0  0  0  0  0  0  0  0  0
    1.8542   -1.6500    0.0000 C   0  0  0  0  0  0  0  0  0  0  0  0
    2.2167   -1.8542    0.0000 C   0  0  0  0  0  0  0  0  0  0  0  0
    1.8542   -2.5000    0.0000 C   0  0  0  0  0  0  0  0  0  0  0  0
  2  1  1  0  0  0  0
  3  1  1  0  0  0  0
  4 13  1  0  0  0  0
  5  3  1  0  0  0  0
  6 15  1  0  0  0  0
  7  9  1  0  0  0  0
  8  5  1  0  0  0  0
  9  1  2  0  0  0  0
 10  4  1  0  0  0  0
 11  4  1  0  0  0  0
 12  8  1  0  0  0  0
 13 12  1  0  0  0  0
 14  2  1  0  0  0  0
 15 27  1  0  0  0  0
 16  2  2  0  0  0  0
 17  2  2  0  0  0  0
 18  6  1  0  0  0  0
 19  6  2  0  0  0  0
 20 10  1  0  0  0  0
 21 11  1  0  0  0  0
 22 10  2  0  0  0  0
 23 11  2  0  0  0  0
 24 12  2  0  0  0  0
 25 14  2  0  0  0  0
 26 14  1  0  0  0  0
 27 26  2  0  0  0  0
 28 25  1  0  0  0  0
  5  7  2  0  0  0  0
 15 28  2  0  0  0  0
 21 20  1  0  0  0  0
M  CHG  2   6   1  18  -1
M  END
> <IDNUMBER>
F0440-0379

> <Chemical_Name>
2-(2,5-dioxopyrrolidin-1-yl)-N-[5-(4-nitrobenzenesulfonyl)-1,3-thiazol-2-yl]acetamide

> <CAS>
361167-77-3

> <PriceCoeff>
1.00

> <MW>
424.41

> <Description>
solid

> <FSP3>
0.20

> <clogP>
0.60

> <TPSA>
193.27

> <Acceptor>
8

> <Donor>
1

> <RotBonds>
6

> <HAC>
28

> <Collection>
General

$$$$
F2701-0046
  -ISIS-  06222321152D

 33 36  0  0  0  0  0  0  0  0999 V2000
   -0.5083    1.5250    0.0000 C   0  0  0  0  0  0  0  0  0  0  0  0
   -0.7708    2.3000    0.0000 C   0  0  0  0  0  0  0  0  0  0  0  0
   -1.8458    1.5208    0.0000 C   0  0  0  0  0  0  0  0  0  0  0  0
   -1.5958    2.3000    0.0000 C   0  0  0  0  0  0  0  0  0  0  0  0
   -1.1750    1.0333    0.0000 S   0  0  0  0  0  0  0  0  0  0  0  0
    4.6917   -2.4167    0.0000 N   0  0  3  0  0  0  0  0  0  0  0  0
    1.5625    0.5500    0.0000 N   0  0  0  0  0  0  0  0  0  0  0  0
   -3.2083    1.9583    0.0000 N   0  0  3  0  0  0  0  0  0  0  0  0
   -4.0208    1.7875    0.0000 C   0  0  0  0  0  0  0  0  0  0  0  0
    1.5292   -0.4167    0.0000 C   0  0  0  0  0  0  0  0  0  0  0  0
    5.5542   -2.0292    0.0000 C   0  0  0  0  0  0  0  0  0  0  0  0
    4.8000   -3.3375    0.0000 C   0  0  0  0  0  0  0  0  0  0  0  0
   -0.2833    2.9833    0.0000 C   0  0  0  0  0  0  0  0  0  0  0  0
   -2.6500    1.3458    0.0000 C   0  0  0  0  0  0  0  0  0  0  0  0
   -2.1458    2.9083    0.0000 C   0  0  0  0  0  0  0  0  0  0  0  0
    3.9042   -1.9125    0.0000 C   0  0  0  0  0  0  0  0  0  0  0  0
    2.3167   -0.9125    0.0000 C   0  0  0  0  0  0  0  0  0  0  0  0
   -2.9458    2.7333    0.0000 C   0  0  0  0  0  0  0  0  0  0  0  0
   -4.2875    1.0125    0.0000 O   0  0  0  0  0  0  0  0  0  0  0  0
    0.6792   -0.8667    0.0000 O   0  0  0  0  0  0  0  0  0  0  0  0
    6.1792   -2.7292    0.0000 C   0  0  0  0  0  0  0  0  0  0  0  0
    5.7125   -3.5292    0.0000 C   0  0  0  0  0  0  0  0  0  0  0  0
    5.7542   -1.1000    0.0000 O   0  0  0  0  0  0  0  0  0  0  0  0
    4.1000   -3.9667    0.0000 O   0  0  0  0  0  0  0  0  0  0  0  0
   -1.0958    3.8000    0.0000 O   0  0  0  0  0  0  0  0  0  0  0  0
    3.9417   -0.9667    0.0000 C   0  0  0  0  0  0  0  0  0  0  0  0
    3.0750   -2.3375    0.0000 C   0  0  0  0  0  0  0  0  0  0  0  0
    2.2917   -1.8417    0.0000 C   0  0  0  0  0  0  0  0  0  0  0  0
    3.1542   -0.4667    0.0000 C   0  0  0  0  0  0  0  0  0  0  0  0
   -4.5625    2.4083    0.0000 O   0  0  0  0  0  0  0  0  0  0  0  0
    0.6500    3.0458    0.0000 O   0  0  0  0  0  0  0  0  0  0  0  0
   -4.2958    3.1833    0.0000 C   0  0  0  0  0  0  0  0  0  0  0  0
    1.0542    3.8833    0.0000 C   0  0  0  0  0  0  0  0  0  0  0  0
  2  1  2  0  0  0  0
  3  5  1  0  0  0  0
  4  2  1  0  0  0  0
  5  1  1  0  0  0  0
  6 16  1  0  0  0  0
  7  1  1  0  0  0  0
  8 14  1  0  0  0  0
  9  8  1  0  0  0  0
 10  7  1  0  0  0  0
 11  6  1  0  0  0  0
 12  6  1  0  0  0  0
 13  2  1  0  0  0  0
 14  3  1  0  0  0  0
 15  4  1  0  0  0  0
 16 26  1  0  0  0  0
 17 10  1  0  0  0  0
 18 15  1  0  0  0  0
 19  9  2  0  0  0  0
 20 10  2  0  0  0  0
 21 11  1  0  0  0  0
 22 12  1  0  0  0  0
 23 11  2  0  0  0  0
 24 12  2  0  0  0  0
 25 13  2  0  0  0  0
 26 29  2  0  0  0  0
 27 28  1  0  0  0  0
 28 17  2  0  0  0  0
 29 17  1  0  0  0  0
 30  9  1  0  0  0  0
 31 13  1  0  0  0  0
 32 30  1  0  0  0  0
 33 31  1  0  0  0  0
  4  3  2  0  0  0  0
  8 18  1  0  0  0  0
 16 27  2  0  0  0  0
 22 21  1  0  0  0  0
M  END
> <IDNUMBER>
F2701-0046

> <Chemical_Name>
3,6-dimethyl 2-[4-(2,5-dioxopyrrolidin-1-yl)benzamido]-4H,5H,6H,7H-thieno[2,3-c]pyridine-3,6-dicarboxylate

> <CAS>
886939-16-8

> <PriceCoeff>
1.00

> <MW>
471.48

> <Description>
solid

> <FSP3>
0.32

> <clogP>
1.31

> <TPSA>
150.56

> <Acceptor>
7

> <Donor>
1

> <RotBonds>
7

> <HAC>
33

> <Collection>
General

$$$$
F2701-0060
  -ISIS-  06222321152D

 33 36  0  0  0  0  0  0  0  0999 V2000
   -0.5083    1.5250    0.0000 C   0  0  0  0  0  0  0  0  0  0  0  0
   -0.7708    2.3000    0.0000 C   0  0  0  0  0  0  0  0  0  0  0  0
   -1.8458    1.5208    0.0000 C   0  0  0  0  0  0  0  0  0  0  0  0
    3.0417   -3.2792    0.0000 N   0  0  3  0  0  0  0  0  0  0  0  0
   -1.5958    2.3000    0.0000 C   0  0  0  0  0  0  0  0  0  0  0  0
   -1.1750    1.0333    0.0000 S   0  0  0  0  0  0  0  0  0  0  0  0
    1.5625    0.5500    0.0000 N   0  0  0  0  0  0  0  0  0  0  0  0
   -3.2083    1.9583    0.0000 N   0  0  3  0  0  0  0  0  0  0  0  0
    3.0792   -2.3417    0.0000 C   0  0  0  0  0  0  0  0  0  0  0  0
    1.5292   -0.4167    0.0000 C   0  0  0  0  0  0  0  0  0  0  0  0
   -4.0208    1.7875    0.0000 C   0  0  0  0  0  0  0  0  0  0  0  0
    3.7542   -3.8875    0.0000 C   0  0  0  0  0  0  0  0  0  0  0  0
    2.2417   -3.7625    0.0000 C   0  0  0  0  0  0  0  0  0  0  0  0
   -0.2833    2.9833    0.0000 C   0  0  0  0  0  0  0  0  0  0  0  0
   -2.6500    1.3458    0.0000 C   0  0  0  0  0  0  0  0  0  0  0  0
   -2.1458    2.9083    0.0000 C   0  0  0  0  0  0  0  0  0  0  0  0
    2.2917   -1.8417    0.0000 C   0  0  0  0  0  0  0  0  0  0  0  0
    2.3167   -0.9125    0.0000 C   0  0  0  0  0  0  0  0  0  0  0  0
   -2.9458    2.7333    0.0000 C   0  0  0  0  0  0  0  0  0  0  0  0
   -4.2875    1.0125    0.0000 O   0  0  0  0  0  0  0  0  0  0  0  0
    0.6792   -0.8667    0.0000 O   0  0  0  0  0  0  0  0  0  0  0  0
    3.4042   -4.7500    0.0000 C   0  0  0  0  0  0  0  0  0  0  0  0
    2.4750   -4.6917    0.0000 C   0  0  0  0  0  0  0  0  0  0  0  0
    4.6667   -3.6792    0.0000 O   0  0  0  0  0  0  0  0  0  0  0  0
    1.3792   -3.4042    0.0000 O   0  0  0  0  0  0  0  0  0  0  0  0
   -1.0958    3.8000    0.0000 O   0  0  0  0  0  0  0  0  0  0  0  0
   -4.5625    2.4083    0.0000 O   0  0  0  0  0  0  0  0  0  0  0  0
    0.6500    3.0458    0.0000 O   0  0  0  0  0  0  0  0  0  0  0  0
    3.9042   -1.9125    0.0000 C   0  0  0  0  0  0  0  0  0  0  0  0
    3.1542   -0.4667    0.0000 C   0  0  0  0  0  0  0  0  0  0  0  0
    3.9417   -0.9667    0.0000 C   0  0  0  0  0  0  0  0  0  0  0  0
   -4.2958    3.1833    0.0000 C   0  0  0  0  0  0  0  0  0  0  0  0
    1.0542    3.8833    0.0000 C   0  0  0  0  0  0  0  0  0  0  0  0
  2  1  2  0  0  0  0
  3  6  1  0  0  0  0
  4  9  1  0  0  0  0
  5  2  1  0  0  0  0
  6  1  1  0  0  0  0
  7  1  1  0  0  0  0
  8 15  1  0  0  0  0
  9 17  1  0  0  0  0
 10  7  1  0  0  0  0
 11  8  1  0  0  0  0
 12  4  1  0  0  0  0
 13  4  1  0  0  0  0
 14  2  1  0  0  0  0
 15  3  1  0  0  0  0
 16  5  1  0  0  0  0
 17 18  2  0  0  0  0
 18 10  1  0  0  0  0
 19 16  1  0  0  0  0
 20 11  2  0  0  0  0
 21 10  2  0  0  0  0
 22 12  1  0  0  0  0
 23 13  1  0  0  0  0
 24 12  2  0  0  0  0
 25 13  2  0  0  0  0
 26 14  2  0  0  0  0
 27 11  1  0  0  0  0
 28 14  1  0  0  0  0
 29 31  1  0  0  0  0
 30 18  1  0  0  0  0
 31 30  2  0  0  0  0
 32 27  1  0  0  0  0
 33 28  1  0  0  0  0
  5  3  2  0  0  0  0
  8 19  1  0  0  0  0
  9 29  2  0  0  0  0
 23 22  1  0  0  0  0
M  END
> <IDNUMBER>
F2701-0060

> <Chemical_Name>
3,6-dimethyl 2-[3-(2,5-dioxopyrrolidin-1-yl)benzamido]-4H,5H,6H,7H-thieno[2,3-c]pyridine-3,6-dicarboxylate

> <CAS>
886939-77-1

> <PriceCoeff>
1.00

> <MW>
471.48

> <Description>
solid

> <FSP3>
0.32

> <clogP>
1.31

> <TPSA>
150.56

> <Acceptor>
7

> <Donor>
1

> <RotBonds>
7

> <HAC>
33

> <Collection>
General

$$$$
F0700-0137
  -ISIS-  06222321452D

 24 27  0  0  0  0  0  0  0  0999 V2000
    2.1667   -0.4792    0.0000 C   0  0  0  0  0  0  0  0  0  0  0  0
    4.6375   -1.9417    0.0000 N   0  0  3  0  0  0  0  0  0  0  0  0
    0.9042   -0.0417    0.0000 C   0  0  0  0  0  0  0  0  0  0  0  0
    0.2042    0.4083    0.0000 C   0  0  0  0  0  0  0  0  0  0  0  0
    1.6917   -1.0875    0.0000 N   0  0  0  0  0  0  0  0  0  0  0  0
    1.7042    0.2083    0.0000 S   0  0  0  0  0  0  0  0  0  0  0  0
   -1.1458    0.5833    0.0000 N   0  0  0  0  0  0  0  0  0  0  0  0
    0.0542    1.2208    0.0000 S   0  0  0  0  0  0  0  0  0  0  0  0
    2.9750   -0.4792    0.0000 N   0  0  0  0  0  0  0  0  0  0  0  0
    0.8875   -0.8167    0.0000 C   0  0  0  0  0  0  0  0  0  0  0  0
   -0.5333    0.0458    0.0000 C   0  0  0  0  0  0  0  0  0  0  0  0
    5.4500   -2.1375    0.0000 C   0  0  0  0  0  0  0  0  0  0  0  0
    4.2167   -2.6292    0.0000 C   0  0  0  0  0  0  0  0  0  0  0  0
   -0.7833    1.3458    0.0000 C   0  0  0  0  0  0  0  0  0  0  0  0
    3.4042   -1.1792    0.0000 C   0  0  0  0  0  0  0  0  0  0  0  0
    4.2292   -1.2042    0.0000 C   0  0  0  0  0  0  0  0  0  0  0  0
    4.7667   -3.2500    0.0000 C   0  0  0  0  0  0  0  0  0  0  0  0
    5.5167   -2.9167    0.0000 C   0  0  0  0  0  0  0  0  0  0  0  0
    0.1625   -1.2375    0.0000 C   0  0  0  0  0  0  0  0  0  0  0  0
   -0.5583   -0.8375    0.0000 C   0  0  0  0  0  0  0  0  0  0  0  0
    3.3750   -2.7375    0.0000 O   0  0  0  0  0  0  0  0  0  0  0  0
    6.1167   -1.6042    0.0000 O   0  0  0  0  0  0  0  0  0  0  0  0
    2.9667   -1.8792    0.0000 O   0  0  0  0  0  0  0  0  0  0  0  0
   -1.1750    2.0708    0.0000 C   0  0  0  0  0  0  0  0  0  0  0  0
  2 16  1  0  0  0  0
  3  6  1  0  0  0  0
  4  3  1  0  0  0  0
  5  1  2  0  0  0  0
  6  1  1  0  0  0  0
  7 11  1  0  0  0  0
  8  4  1  0  0  0  0
  9  1  1  0  0  0  0
 10  5  1  0  0  0  0
 11  4  2  0  0  0  0
 12  2  1  0  0  0  0
 13  2  1  0  0  0  0
 14  8  1  0  0  0  0
 15  9  1  0  0  0  0
 16 15  1  0  0  0  0
 17 13  1  0  0  0  0
 18 12  1  0  0  0  0
 19 10  1  0  0  0  0
 20 19  2  0  0  0  0
 21 13  2  0  0  0  0
 22 12  2  0  0  0  0
 23 15  2  0  0  0  0
 24 14  1  0  0  0  0
  3 10  2  0  0  0  0
 11 20  1  0  0  0  0
  7 14  2  0  0  0  0
 17 18  1  0  0  0  0
M  END
> <IDNUMBER>
F0700-0137

> <Chemical_Name>
2-(2,5-dioxopyrrolidin-1-yl)-N-{11-methyl-3,12-dithia-5,10-diazatricyclo[7.3.0.0^{2,6}]dodeca-1(9),2(6),4,7,10-pentaen-4-yl}acetamide

> <CAS>
361479-44-9

> <PriceCoeff>
1.00

> <MW>
360.41

> <Description>
solid

> <FSP3>
0.27

> <clogP>
2.00

> <TPSA>
148.74

> <Acceptor>
5

> <Donor>
1

> <RotBonds>
3

> <HAC>
24

> <Collection>
General

$$$$
F0447-0399
  -ISIS-  06222321142D

 34 37  0  0  0  0  0  0  0  0999 V2000
   -3.0458    1.0833    0.0000 N   0  0  3  0  0  0  0  0  0  0  0  0
    2.9000    1.0625    0.0000 N   0  0  3  0  0  0  0  0  0  0  0  0
    2.7292    1.5625    0.0000 C   0  0  0  0  0  0  0  0  0  0  0  0
    3.4292    1.0458    0.0000 C   0  0  0  0  0  0  0  0  0  0  0  0
   -3.5625    1.1833    0.0000 C   0  0  0  0  0  0  0  0  0  0  0  0
   -2.7833    1.5625    0.0000 C   0  0  0  0  0  0  0  0  0  0  0  0
    2.1000    0.6000    0.0000 C   0  0  0  0  0  0  0  0  0  0  0  0
   -2.2458    0.6458    0.0000 C   0  0  0  0  0  0  0  0  0  0  0  0
   -2.7833    0.6208    0.0000 C   0  0  0  0  0  0  0  0  0  0  0  0
    2.6042    0.6000    0.0000 C   0  0  0  0  0  0  0  0  0  0  0  0
    1.8042    0.1458    0.0000 N   0  0  0  0  0  0  0  0  0  0  0  0
   -1.9708    0.1833    0.0000 N   0  0  0  0  0  0  0  0  0  0  0  0
    0.2000    0.1625    0.0000 C   0  0  0  0  0  0  0  0  0  0  0  0
   -0.3458    0.1625    0.0000 C   0  0  0  0  0  0  0  0  0  0  0  0
   -3.1458    1.9458    0.0000 C   0  0  0  0  0  0  0  0  0  0  0  0
    3.6000    1.5625    0.0000 C   0  0  0  0  0  0  0  0  0  0  0  0
   -3.6458    1.7208    0.0000 C   0  0  0  0  0  0  0  0  0  0  0  0
    3.1667    1.8625    0.0000 C   0  0  0  0  0  0  0  0  0  0  0  0
   -3.9458    0.8208    0.0000 O   0  0  0  0  0  0  0  0  0  0  0  0
   -2.2458    1.6458    0.0000 O   0  0  0  0  0  0  0  0  0  0  0  0
    2.2042    1.7625    0.0000 O   0  0  0  0  0  0  0  0  0  0  0  0
    3.7500    0.6000    0.0000 O   0  0  0  0  0  0  0  0  0  0  0  0
    1.8292    1.0833    0.0000 O   0  0  0  0  0  0  0  0  0  0  0  0
   -1.9708    1.1000    0.0000 O   0  0  0  0  0  0  0  0  0  0  0  0
   -0.6208   -0.3000    0.0000 C   0  0  0  0  0  0  0  0  0  0  0  0
    0.4500   -0.3042    0.0000 C   0  0  0  0  0  0  0  0  0  0  0  0
   -0.6000    0.6458    0.0000 C   0  0  0  0  0  0  0  0  0  0  0  0
    0.4500    0.6208    0.0000 C   0  0  0  0  0  0  0  0  0  0  0  0
    1.2667    0.1458    0.0000 C   0  0  0  0  0  0  0  0  0  0  0  0
   -1.4208    0.1833    0.0000 C   0  0  0  0  0  0  0  0  0  0  0  0
    1.0042    0.6000    0.0000 C   0  0  0  0  0  0  0  0  0  0  0  0
   -1.1625   -0.3000    0.0000 C   0  0  0  0  0  0  0  0  0  0  0  0
   -1.1458    0.6458    0.0000 C   0  0  0  0  0  0  0  0  0  0  0  0
    1.0000   -0.3292    0.0000 C   0  0  0  0  0  0  0  0  0  0  0  0
  2 10  1  0  0  0  0
  3  2  1  0  0  0  0
  4  2  1  0  0  0  0
  5  1  1  0  0  0  0
  6  1  1  0  0  0  0
  7 11  1  0  0  0  0
  8  9  1  0  0  0  0
  9  1  1  0  0  0  0
 10  7  1  0  0  0  0
 11 29  1  0  0  0  0
 12  8  1  0  0  0  0
 13 14  1  0  0  0  0
 14 27  2  0  0  0  0
 15  6  1  0  0  0  0
 16  4  1  0  0  0  0
 17  5  1  0  0  0  0
 18  3  1  0  0  0  0
 19  5  2  0  0  0  0
 20  6  2  0  0  0  0
 21  3  2  0  0  0  0
 22  4  2  0  0  0  0
 23  7  2  0  0  0  0
 24  8  2  0  0  0  0
 25 32  2  0  0  0  0
 26 13  2  0  0  0  0
 27 33  1  0  0  0  0
 28 13  1  0  0  0  0
 29 31  1  0  0  0  0
 30 12  1  0  0  0  0
 31 28  2  0  0  0  0
 32 30  1  0  0  0  0
 33 30  2  0  0  0  0
 34 26  1  0  0  0  0
 15 17  1  0  0  0  0
 14 25  1  0  0  0  0
 29 34  2  0  0  0  0
 18 16  1  0  0  0  0
M  END
> <IDNUMBER>
F0447-0399

> <Chemical_Name>
2-(2,5-dioxopyrrolidin-1-yl)-N-{4'-[2-(2,5-dioxopyrrolidin-1-yl)acetamido]-[1,1'-biphenyl]-4-yl}acetamide

> <CAS>
476318-12-4

> <PriceCoeff>
1.00

> <MW>
462.45

> <Description>
solid

> <FSP3>
0.25

> <clogP>
0.97

> <TPSA>
132.96

> <Acceptor>
6

> <Donor>
2

> <RotBonds>
7

> <HAC>
34

> <Collection>
General

$$$$
F3386-1387
  -ISIS-  06222321152D

 23 24  0  0  0  0  0  0  0  0999 V2000
    5.5375   -1.9167    0.0000 S   0  0  3  0  0  0  0  0  0  0  0  0
    4.7125   -1.9167    0.0000 C   0  0  0  0  0  0  0  0  0  0  0  0
    6.3625   -1.9042    0.0000 N   0  0  0  0  0  0  0  0  0  0  0  0
    4.3167   -2.6375    0.0000 C   0  0  0  0  0  0  0  0  0  0  0  0
    7.1875   -1.9042    0.0000 C   0  0  0  0  0  0  0  0  0  0  0  0
    4.2917   -1.2167    0.0000 C   0  0  0  0  0  0  0  0  0  0  0  0
    3.4792   -1.2167    0.0000 C   0  0  0  0  0  0  0  0  0  0  0  0
    3.4917   -2.6500    0.0000 C   0  0  0  0  0  0  0  0  0  0  0  0
    3.0667   -1.9375    0.0000 C   0  0  0  0  0  0  0  0  0  0  0  0
    5.5417   -2.7417    0.0000 O   0  0  0  0  0  0  0  0  0  0  0  0
    5.5292   -1.0917    0.0000 O   0  0  0  0  0  0  0  0  0  0  0  0
    7.5917   -2.6167    0.0000 C   0  0  0  0  0  0  0  0  0  0  0  0
    7.5917   -1.1917    0.0000 C   0  0  0  0  0  0  0  0  0  0  0  0
    8.4125   -1.1875    0.0000 C   0  0  0  0  0  0  0  0  0  0  0  0
    8.4167   -2.6125    0.0000 C   0  0  0  0  0  0  0  0  0  0  0  0
    2.2417   -1.9417    0.0000 Cl  0  0  0  0  0  0  0  0  0  0  0  0
    4.7042   -0.4917    0.0000 O   0  0  0  0  0  0  0  0  0  0  0  0
    3.0875   -3.3667    0.0000 O   0  0  0  0  0  0  0  0  0  0  0  0
    8.8292   -1.9000    0.0000 C   0  0  0  0  0  0  0  0  0  0  0  0
    8.8292   -3.3292    0.0000 Cl  0  0  0  0  0  0  0  0  0  0  0  0
    7.1750   -0.4792    0.0000 O   0  0  0  0  0  0  0  0  0  0  0  0
    5.5292   -0.4917    0.0000 C   0  0  0  0  0  0  0  0  0  0  0  0
    2.2542   -3.3792    0.0000 C   0  0  0  0  0  0  0  0  0  0  0  0
  2  1  1  0  0  0  0
  3  1  1  0  0  0  0
  4  2  1  0  0  0  0
  5  3  1  0  0  0  0
  6  2  2  0  0  0  0
  7  6  1  0  0  0  0
  8  4  2  0  0  0  0
  9  7  2  0  0  0  0
 10  1  2  0  0  0  0
 11  1  2  0  0  0  0
 12  5  2  0  0  0  0
 13  5  1  0  0  0  0
 14 13  2  0  0  0  0
 15 12  1  0  0  0  0
 16  9  1  0  0  0  0
 17  6  1  0  0  0  0
 18  8  1  0  0  0  0
 19 14  1  0  0  0  0
 20 15  1  0  0  0  0
 21 13  1  0  0  0  0
 22 17  1  0  0  0  0
 23 18  1  0  0  0  0
  8  9  1  0  0  0  0
 19 15  2  0  0  0  0
M  END
> <IDNUMBER>
F3386-1387

> <Chemical_Name>
4-chloro-N-(5-chloro-2-hydroxyphenyl)-2,5-dimethoxybenzene-1-sulfonamide

> <CAS>
1171464-44-0

> <PriceCoeff>
1.00

> <MW>
378.23

> <Description>
solid

> <FSP3>
0.14

> <clogP>
3.37

> <TPSA>
93.24

> <Acceptor>
6

> <Donor>
2

> <RotBonds>
5

> <HAC>
23

> <Collection>
General

$$$$
F5834-4449
  -ISIS-  06222321442D

 31 34  0  0  0  0  0  0  0  0999 V2000
   -4.5833    3.8000    0.0000 S   0  0  3  0  0  0  0  0  0  0  0  0
   -6.7167    3.3583    0.0000 N   0  0  3  0  0  0  0  0  0  0  0  0
   -2.4708    6.4792    0.0000 C   0  0  0  0  0  0  0  0  0  0  0  0
   -3.1458    6.3000    0.0000 C   0  0  0  0  0  0  0  0  0  0  0  0
   -2.1875    7.2417    0.0000 N   0  0  0  0  0  0  0  0  0  0  0  0
   -4.0375    7.4042    0.0000 O   0  0  0  0  0  0  0  0  0  0  0  0
   -3.8708    6.7167    0.0000 C   0  0  0  0  0  0  0  0  0  0  0  0
   -2.6458    7.9500    0.0000 C   0  0  0  0  0  0  0  0  0  0  0  0
   -7.4417    3.7583    0.0000 C   0  0  0  0  0  0  0  0  0  0  0  0
   -6.7042    2.5208    0.0000 C   0  0  0  0  0  0  0  0  0  0  0  0
   -5.2875    3.3833    0.0000 C   0  0  0  0  0  0  0  0  0  0  0  0
   -3.5083    8.0250    0.0000 C   0  0  0  0  0  0  0  0  0  0  0  0
   -6.0042    3.7833    0.0000 C   0  0  0  0  0  0  0  0  0  0  0  0
   -3.8625    4.2125    0.0000 N   0  0  0  0  0  0  0  0  0  0  0  0
   -3.1375    5.4625    0.0000 C   0  0  0  0  0  0  0  0  0  0  0  0
   -4.1583    3.1083    0.0000 O   0  0  0  0  0  0  0  0  0  0  0  0
   -5.0083    4.5042    0.0000 O   0  0  0  0  0  0  0  0  0  0  0  0
   -1.9125    5.8667    0.0000 O   0  0  0  0  0  0  0  0  0  0  0  0
   -3.8625    5.0417    0.0000 C   0  0  0  0  0  0  0  0  0  0  0  0
   -2.1500    8.6542    0.0000 C   0  0  0  0  0  0  0  0  0  0  0  0
   -5.9833    2.1208    0.0000 O   0  0  0  0  0  0  0  0  0  0  0  0
   -7.4667    4.5792    0.0000 O   0  0  0  0  0  0  0  0  0  0  0  0
   -4.5958    6.3000    0.0000 C   0  0  0  0  0  0  0  0  0  0  0  0
   -3.8708    8.8042    0.0000 C   0  0  0  0  0  0  0  0  0  0  0  0
   -2.5208    9.4292    0.0000 C   0  0  0  0  0  0  0  0  0  0  0  0
   -4.5958    5.4625    0.0000 C   0  0  0  0  0  0  0  0  0  0  0  0
   -3.3833    9.5042    0.0000 C   0  0  0  0  0  0  0  0  0  0  0  0
   -7.4042    2.0958    0.0000 C   0  0  0  0  0  0  0  0  0  0  0  0
   -8.1542    3.3208    0.0000 C   0  0  0  0  0  0  0  0  0  0  0  0
   -8.1292    2.4875    0.0000 C   0  0  0  0  0  0  0  0  0  0  0  0
   -2.0375   10.1167    0.0000 C   0  0  0  0  0  0  0  0  0  0  0  0
  2 13  1  0  0  0  0
  3  4  1  0  0  0  0
  4 15  1  0  0  0  0
  5  3  1  0  0  0  0
  6  7  1  0  0  0  0
  7 23  1  0  0  0  0
  8  5  1  0  0  0  0
  9  2  1  0  0  0  0
 10  2  1  0  0  0  0
 11  1  1  0  0  0  0
 12  6  1  0  0  0  0
 13 11  1  0  0  0  0
 14  1  1  0  0  0  0
 15 19  2  0  0  0  0
 16  1  2  0  0  0  0
 17  1  2  0  0  0  0
 18  3  2  0  0  0  0
 19 14  1  0  0  0  0
 20  8  1  0  0  0  0
 21 10  2  0  0  0  0
 22  9  2  0  0  0  0
 23 26  2  0  0  0  0
 24 12  1  0  0  0  0
 25 20  2  0  0  0  0
 26 19  1  0  0  0  0
 27 24  2  0  0  0  0
 28 10  1  0  0  0  0
 29  9  1  0  0  0  0
 30 28  1  0  0  0  0
 31 25  1  0  0  0  0
  4  7  2  0  0  0  0
 30 29  1  0  0  0  0
 12  8  2  0  0  0  0
 27 25  1  0  0  0  0
M  END
> <IDNUMBER>
F5834-4449

> <Chemical_Name>
2-(2,6-dioxopiperidin-1-yl)-N-{6-methyl-10-oxo-2-oxa-9-azatricyclo[9.4.0.0^{3,8}]pentadeca-1(11),3(8),4,6,12,14-hexaen-13-yl}ethane-1-sulfonamide

> <CAS>
1207055-97-7

> <PriceCoeff>
1.00

> <MW>
443.47

> <Description>
solid

> <FSP3>
0.29

> <clogP>
2.60

> <TPSA>
130.26

> <Acceptor>
7

> <Donor>
2

> <RotBonds>
5

> <HAC>
31

> <Collection>
General

$$$$
F0345-4219
  -ISIS-  06222321452D

 24 25  0  0  0  0  0  0  0  0999 V2000
   -3.1833   -0.0042    0.0000 C   0  0  0  0  0  0  0  0  0  0  0  0
   -3.1833    1.1333    0.0000 C   0  0  0  0  0  0  0  0  0  0  0  0
   -2.1833   -0.6000    0.0000 N   0  0  0  0  0  0  0  0  0  0  0  0
   -1.1958   -0.0042    0.0000 N   0  0  3  0  0  0  0  0  0  0  0  0
   -1.1958    1.1333    0.0000 C   0  0  0  0  0  0  0  0  0  0  0  0
   -4.1708   -0.6000    0.0000 N   0  3  0  0  0  0  0  0  0  0  0  0
   -0.1333   -0.6500    0.0000 C   0  0  0  0  0  0  0  0  0  0  0  0
    0.9500   -0.0500    0.0000 C   0  0  0  0  0  0  0  0  0  0  0  0
    4.1000   -0.7667    0.0000 C   0  0  0  0  0  0  0  0  0  0  0  0
    5.2292   -0.1500    0.0000 C   0  0  0  0  0  0  0  0  0  0  0  0
   -5.1458   -0.0042    0.0000 O   0  5  0  0  0  0  0  0  0  0  0  0
    1.9792   -0.7000    0.0000 N   0  0  0  0  0  0  0  0  0  0  0  0
   -4.1708   -1.7292    0.0000 O   0  0  0  0  0  0  0  0  0  0  0  0
   -4.2458    1.7458    0.0000 Cl  0  0  0  0  0  0  0  0  0  0  0  0
    3.0542   -0.1042    0.0000 C   0  0  0  0  0  0  0  0  0  0  0  0
    5.2292    1.0333    0.0000 C   0  0  0  0  0  0  0  0  0  0  0  0
    0.9292    1.1958    0.0000 O   0  0  0  0  0  0  0  0  0  0  0  0
    4.1792    1.6958    0.0000 C   0  0  0  0  0  0  0  0  0  0  0  0
   -0.1333    1.7458    0.0000 C   0  0  0  0  0  0  0  0  0  0  0  0
    3.0542    1.1000    0.0000 C   0  0  0  0  0  0  0  0  0  0  0  0
    6.3292   -0.7000    0.0000 O   0  0  0  0  0  0  0  0  0  0  0  0
    6.3292    1.5833    0.0000 O   0  0  0  0  0  0  0  0  0  0  0  0
    6.4000   -1.9042    0.0000 C   0  0  0  0  0  0  0  0  0  0  0  0
    7.3500    0.9208    0.0000 C   0  0  0  0  0  0  0  0  0  0  0  0
  2  1  1  0  0  0  0
  3  1  2  0  0  0  0
  4  3  1  0  0  0  0
  5  2  2  0  0  0  0
  6  1  1  0  0  0  0
  7  4  1  0  0  0  0
  8  7  1  0  0  0  0
  9 15  2  0  0  0  0
 10  9  1  0  0  0  0
 11  6  1  0  0  0  0
 12  8  1  0  0  0  0
 13  6  2  0  0  0  0
 14  2  1  0  0  0  0
 15 12  1  0  0  0  0
 16 18  1  0  0  0  0
 17  8  2  0  0  0  0
 18 20  2  0  0  0  0
 19  5  1  0  0  0  0
 20 15  1  0  0  0  0
 21 10  1  0  0  0  0
 22 16  1  0  0  0  0
 23 21  1  0  0  0  0
 24 22  1  0  0  0  0
  4  5  1  0  0  0  0
 16 10  2  0  0  0  0
M  CHG  2   6   1  11  -1
M  END
> <IDNUMBER>
F0345-4219

> <Chemical_Name>
2-(4-chloro-5-methyl-3-nitro-1H-pyrazol-1-yl)-N-(3,4-dimethoxyphenyl)acetamide

> <CAS>
353455-68-2

> <PriceCoeff>
1.00

> <MW>
354.75

> <Description>
solid

> <FSP3>
0.29

> <clogP>
1.75

> <TPSA>
108.52

> <Acceptor>
6

> <Donor>
1

> <RotBonds>
6

> <HAC>
24

> <Collection>
General

$$$$
F1366-1560
  -ISIS-  06222321142D

 27 29  0  0  0  0  0  0  0  0999 V2000
   -1.1625    2.3833    0.0000 C   0  0  0  0  0  0  0  0  0  0  0  0
   -1.6458    1.7208    0.0000 N   0  0  3  0  0  0  0  0  0  0  0  0
    1.3000    3.7958    0.0000 N   0  0  3  0  0  0  0  0  0  0  0  0
   -0.3375    2.3750    0.0000 N   0  0  0  0  0  0  0  0  0  0  0  0
   -1.6458    3.0500    0.0000 S   0  0  0  0  0  0  0  0  0  0  0  0
   -2.4333    2.7958    0.0000 C   0  0  0  0  0  0  0  0  0  0  0  0
   -2.4333    1.9708    0.0000 C   0  0  0  0  0  0  0  0  0  0  0  0
    2.1042    3.8708    0.0000 C   0  0  0  0  0  0  0  0  0  0  0  0
    0.9625    4.5292    0.0000 C   0  0  0  0  0  0  0  0  0  0  0  0
    0.0750    3.0875    0.0000 C   0  0  0  0  0  0  0  0  0  0  0  0
    0.8875    3.0875    0.0000 C   0  0  0  0  0  0  0  0  0  0  0  0
   -1.7625    0.9083    0.0000 C   0  0  0  0  0  0  0  0  0  0  0  0
   -3.1458    3.2083    0.0000 C   0  0  0  0  0  0  0  0  0  0  0  0
   -3.1458    1.5583    0.0000 C   0  0  0  0  0  0  0  0  0  0  0  0
   -2.5208    0.6083    0.0000 C   0  0  0  0  0  0  0  0  0  0  0  0
    1.5625    5.0750    0.0000 C   0  0  0  0  0  0  0  0  0  0  0  0
    2.2750    4.6667    0.0000 C   0  0  0  0  0  0  0  0  0  0  0  0
    0.1667    4.7042    0.0000 O   0  0  0  0  0  0  0  0  0  0  0  0
    2.6417    3.2708    0.0000 O   0  0  0  0  0  0  0  0  0  0  0  0
   -0.3375    3.8000    0.0000 O   0  0  0  0  0  0  0  0  0  0  0  0
   -2.6333   -0.2000    0.0000 O   0  0  0  0  0  0  0  0  0  0  0  0
   -3.8583    2.7958    0.0000 C   0  0  0  0  0  0  0  0  0  0  0  0
   -3.8583    1.9708    0.0000 C   0  0  0  0  0  0  0  0  0  0  0  0
   -3.1583    1.1083    0.0000 O   0  0  0  0  0  0  0  0  0  0  0  0
   -4.5625    3.2083    0.0000 O   0  0  0  0  0  0  0  0  0  0  0  0
   -3.9125    0.8083    0.0000 C   0  0  0  0  0  0  0  0  0  0  0  0
   -5.2708    2.8000    0.0000 C   0  0  0  0  0  0  0  0  0  0  0  0
  2  1  1  0  0  0  0
  3 11  1  0  0  0  0
  4  1  2  0  0  0  0
  5  1  1  0  0  0  0
  6  5  1  0  0  0  0
  7  2  1  0  0  0  0
  8  3  1  0  0  0  0
  9  3  1  0  0  0  0
 10  4  1  0  0  0  0
 11 10  1  0  0  0  0
 12  2  1  0  0  0  0
 13  6  1  0  0  0  0
 14  7  1  0  0  0  0
 15 12  1  0  0  0  0
 16  9  1  0  0  0  0
 17  8  1  0  0  0  0
 18  9  2  0  0  0  0
 19  8  2  0  0  0  0
 20 10  2  0  0  0  0
 21 15  2  0  0  0  0
 22 13  2  0  0  0  0
 23 14  2  0  0  0  0
 24 15  1  0  0  0  0
 25 22  1  0  0  0  0
 26 24  1  0  0  0  0
 27 25  1  0  0  0  0
  6  7  2  0  0  0  0
 22 23  1  0  0  0  0
 16 17  1  0  0  0  0
M  END
> <IDNUMBER>
F1366-1560

> <Chemical_Name>
methyl 2-[(2Z)-2-{[2-(2,5-dioxopyrrolidin-1-yl)acetyl]imino}-6-methoxy-2,3-dihydro-1,3-benzothiazol-3-yl]acetate

> <CAS>
897734-54-2

> <PriceCoeff>
1.00

> <MW>
391.40

> <Description>
solid

> <FSP3>
0.35

> <clogP>
2.26

> <TPSA>
130.88

> <Acceptor>
6

> <Donor>
0

> <RotBonds>
7

> <HAC>
27

> <Collection>
General

$$$$
F2252-0237
  -ISIS-  06222321142D

 33 37  0  0  0  0  0  0  0  0999 V2000
    0.8167   -2.8792    0.0000 N   0  0  3  0  0  0  0  0  0  0  0  0
   -1.3708    2.4250    0.0000 C   0  0  0  0  0  0  0  0  0  0  0  0
   -0.5875    2.1708    0.0000 C   0  0  0  0  0  0  0  0  0  0  0  0
    0.4917    1.3833    0.0000 C   0  0  0  0  0  0  0  0  0  0  0  0
   -0.3333    1.3833    0.0000 N   0  0  0  0  0  0  0  0  0  0  0  0
   -2.0375    2.0083    0.0000 O   0  0  0  0  0  0  0  0  0  0  0  0
    0.9750    0.7208    0.0000 N   0  0  0  0  0  0  0  0  0  0  0  0
    1.1875   -2.1417    0.0000 C   0  0  0  0  0  0  0  0  0  0  0  0
   -2.7083    2.4250    0.0000 C   0  0  0  0  0  0  0  0  0  0  0  0
    0.6375   -0.0292    0.0000 C   0  0  0  0  0  0  0  0  0  0  0  0
   -1.6250    3.2125    0.0000 C   0  0  0  0  0  0  0  0  0  0  0  0
    1.1750   -3.6250    0.0000 C   0  0  0  0  0  0  0  0  0  0  0  0
    0.0042   -2.9792    0.0000 C   0  0  0  0  0  0  0  0  0  0  0  0
    0.7417    2.1708    0.0000 S   0  0  0  0  0  0  0  0  0  0  0  0
   -2.4500    3.2208    0.0000 C   0  0  0  0  0  0  0  0  0  0  0  0
    0.0792    2.6583    0.0000 C   0  0  0  0  0  0  0  0  0  0  0  0
    0.7292   -1.4542    0.0000 C   0  0  0  0  0  0  0  0  0  0  0  0
    1.0917   -0.7167    0.0000 C   0  0  0  0  0  0  0  0  0  0  0  0
   -0.1833   -0.0625    0.0000 O   0  0  0  0  0  0  0  0  0  0  0  0
   -3.5208    2.2583    0.0000 C   0  0  0  0  0  0  0  0  0  0  0  0
    0.5792   -4.1917    0.0000 C   0  0  0  0  0  0  0  0  0  0  0  0
   -0.1458   -3.8042    0.0000 C   0  0  0  0  0  0  0  0  0  0  0  0
    1.9750   -3.7875    0.0000 O   0  0  0  0  0  0  0  0  0  0  0  0
   -0.5583   -2.3792    0.0000 O   0  0  0  0  0  0  0  0  0  0  0  0
    2.0042   -2.0917    0.0000 C   0  0  0  0  0  0  0  0  0  0  0  0
   -3.7708    1.4708    0.0000 O   0  0  0  0  0  0  0  0  0  0  0  0
   -3.0083    3.8333    0.0000 C   0  0  0  0  0  0  0  0  0  0  0  0
    1.9167   -0.6667    0.0000 C   0  0  0  0  0  0  0  0  0  0  0  0
    2.3750   -1.3542    0.0000 C   0  0  0  0  0  0  0  0  0  0  0  0
   -3.8208    3.6708    0.0000 C   0  0  0  0  0  0  0  0  0  0  0  0
   -4.0708    2.8708    0.0000 C   0  0  0  0  0  0  0  0  0  0  0  0
   -4.5833    1.3000    0.0000 C   0  0  0  0  0  0  0  0  0  0  0  0
   -5.1250    1.9083    0.0000 C   0  0  0  0  0  0  0  0  0  0  0  0
  2  3  1  0  0  0  0
  3  5  1  0  0  0  0
  4  7  1  0  0  0  0
  5  4  2  0  0  0  0
  6  2  1  0  0  0  0
  7 10  1  0  0  0  0
  8  1  1  0  0  0  0
  9  6  1  0  0  0  0
 10 18  1  0  0  0  0
 11  2  2  0  0  0  0
 12  1  1  0  0  0  0
 13  1  1  0  0  0  0
 14  4  1  0  0  0  0
 15 11  1  0  0  0  0
 16 14  1  0  0  0  0
 17  8  1  0  0  0  0
 18 17  2  0  0  0  0
 19 10  2  0  0  0  0
 20  9  1  0  0  0  0
 21 12  1  0  0  0  0
 22 13  1  0  0  0  0
 23 12  2  0  0  0  0
 24 13  2  0  0  0  0
 25  8  2  0  0  0  0
 26 20  1  0  0  0  0
 27 15  1  0  0  0  0
 28 29  2  0  0  0  0
 29 25  1  0  0  0  0
 30 27  2  0  0  0  0
 31 20  2  0  0  0  0
 32 26  1  0  0  0  0
 33 32  1  0  0  0  0
 21 22  1  0  0  0  0
 18 28  1  0  0  0  0
 16  3  2  0  0  0  0
  9 15  2  0  0  0  0
 30 31  1  0  0  0  0
M  END
> <IDNUMBER>
F2252-0237

> <Chemical_Name>
3-(2,5-dioxopyrrolidin-1-yl)-N-[4-(7-ethoxy-1-benzofuran-2-yl)-1,3-thiazol-2-yl]benzamide

> <CAS>
921570-18-5

> <PriceCoeff>
1.00

> <MW>
461.49

> <Description>
solid

> <FSP3>
0.17

> <clogP>
3.34

> <TPSA>
129.98

> <Acceptor>
6

> <Donor>
1

> <RotBonds>
6

> <HAC>
33

> <Collection>
General

$$$$
F0371-0083
  -ISIS-  06222321452D

 25 26  0  0  0  0  0  0  0  0999 V2000
    0.8042    0.8208    0.0000 C   0  0  0  0  0  0  0  0  0  0  0  0
   -1.1833    0.1625    0.0000 C   0  0  0  0  0  0  0  0  0  0  0  0
    1.2042    0.1458    0.0000 N   0  3  0  0  0  0  0  0  0  0  0  0
   -1.5625   -0.5292    0.0000 N   0  0  0  0  0  0  0  0  0  0  0  0
   -1.5500    0.8333    0.0000 N   0  0  0  0  0  0  0  0  0  0  0  0
    1.2042    2.8833    0.0000 N   0  3  0  0  0  0  0  0  0  0  0  0
   -2.7625    0.1458    0.0000 N   0  0  0  0  0  0  0  0  0  0  0  0
   -2.3500   -0.5292    0.0000 C   0  0  0  0  0  0  0  0  0  0  0  0
   -2.3708    0.8208    0.0000 C   0  0  0  0  0  0  0  0  0  0  0  0
    1.2000    1.5000    0.0000 C   0  0  0  0  0  0  0  0  0  0  0  0
    0.0167    0.8208    0.0000 C   0  0  0  0  0  0  0  0  0  0  0  0
    0.8000    2.1958    0.0000 C   0  0  0  0  0  0  0  0  0  0  0  0
   -0.3833    0.1625    0.0000 S   0  0  0  0  0  0  0  0  0  0  0  0
    0.8042   -0.5292    0.0000 O   0  5  0  0  0  0  0  0  0  0  0  0
    1.9792    2.8833    0.0000 O   0  5  0  0  0  0  0  0  0  0  0  0
    1.9875    0.1458    0.0000 O   0  0  0  0  0  0  0  0  0  0  0  0
    0.8042    3.5708    0.0000 O   0  0  0  0  0  0  0  0  0  0  0  0
   -0.3833    1.5000    0.0000 C   0  0  0  0  0  0  0  0  0  0  0  0
    0.0000    2.1708    0.0000 C   0  0  0  0  0  0  0  0  0  0  0  0
   -2.7625   -1.2042    0.0000 N   0  0  0  0  0  0  0  0  0  0  0  0
   -2.8000    1.4833    0.0000 N   0  0  0  0  0  0  0  0  0  0  0  0
   -2.3833   -1.9167    0.0000 C   0  0  0  0  0  0  0  0  0  0  0  0
   -3.5833    1.4333    0.0000 C   0  0  0  0  0  0  0  0  0  0  0  0
   -2.7833   -2.5792    0.0000 C   0  0  0  0  0  0  0  0  0  0  0  0
   -3.9958    2.0833    0.0000 C   0  0  0  0  0  0  0  0  0  0  0  0
  2 13  1  0  0  0  0
  3  1  1  0  0  0  0
  4  2  2  0  0  0  0
  5  2  1  0  0  0  0
  6 12  1  0  0  0  0
  7  9  1  0  0  0  0
  8  4  1  0  0  0  0
  9  5  2  0  0  0  0
 10  1  2  0  0  0  0
 11  1  1  0  0  0  0
 12 10  1  0  0  0  0
 13 11  1  0  0  0  0
 14  3  1  0  0  0  0
 15  6  1  0  0  0  0
 16  3  2  0  0  0  0
 17  6  2  0  0  0  0
 18 11  2  0  0  0  0
 19 18  1  0  0  0  0
 20  8  1  0  0  0  0
 21  9  1  0  0  0  0
 22 20  1  0  0  0  0
 23 21  1  0  0  0  0
 24 22  1  0  0  0  0
 25 23  1  0  0  0  0
 12 19  2  0  0  0  0
  7  8  2  0  0  0  0
M  CHG  4   3   1   6   1  14  -1  15  -1
M  END
> <IDNUMBER>
F0371-0083

> <Chemical_Name>
6-[(2,4-dinitrophenyl)sulfanyl]-N2,N4-diethyl-1,3,5-triazine-2,4-diamine

> <CAS>
325994-34-1

> <PriceCoeff>
1.00

> <MW>
365.37

> <Description>
solid

> <FSP3>
0.31

> <clogP>
4.16

> <TPSA>
174.31

> <Acceptor>
7

> <Donor>
2

> <RotBonds>
8

> <HAC>
25

> <Collection>
General

$$$$
F0326-1109
  -ISIS-  06222321142D

 21 22  0  0  0  0  0  0  0  0999 V2000
   -3.4625    1.4208    0.0000 S   0  0  0  0  0  0  0  0  0  0  0  0
   -2.7125    1.2208    0.0000 C   0  0  0  0  0  0  0  0  0  0  0  0
    0.7500   -0.8167    0.0000 N   0  3  0  0  0  0  0  0  0  0  0  0
   -0.0458   -0.8042    0.0000 C   0  0  0  0  0  0  0  0  0  0  0  0
   -2.8125    2.4833    0.0000 N   0  0  0  0  0  0  0  0  0  0  0  0
   -3.5000    2.1708    0.0000 C   0  0  0  0  0  0  0  0  0  0  0  0
   -2.3458    0.5500    0.0000 N   0  0  0  0  0  0  0  0  0  0  0  0
   -2.3208    1.9000    0.0000 N   0  0  0  0  0  0  0  0  0  0  0  0
   -1.5833    0.5500    0.0000 C   0  0  0  0  0  0  0  0  0  0  0  0
   -0.4333   -0.1292    0.0000 C   0  0  0  0  0  0  0  0  0  0  0  0
   -1.1958   -0.1167    0.0000 C   0  0  0  0  0  0  0  0  0  0  0  0
   -0.4458   -1.4542    0.0000 C   0  0  0  0  0  0  0  0  0  0  0  0
    1.1167   -1.4875    0.0000 O   0  5  0  0  0  0  0  0  0  0  0  0
    1.1500   -0.1500    0.0000 O   0  0  0  0  0  0  0  0  0  0  0  0
   -1.1708    1.2208    0.0000 O   0  0  0  0  0  0  0  0  0  0  0  0
   -1.5833   -0.8000    0.0000 C   0  0  0  0  0  0  0  0  0  0  0  0
   -1.2208   -1.4375    0.0000 C   0  0  0  0  0  0  0  0  0  0  0  0
   -4.1625    2.5708    0.0000 C   0  0  3  0  0  0  0  0  0  0  0  0
   -0.0833   -2.1500    0.0000 Cl  0  0  0  0  0  0  0  0  0  0  0  0
   -4.1708    3.3458    0.0000 C   0  0  0  0  0  0  0  0  0  0  0  0
   -4.8625    2.5000    0.0000 C   0  0  0  0  0  0  0  0  0  0  0  0
  2  1  1  0  0  0  0
  3  4  1  0  0  0  0
  4 10  1  0  0  0  0
  5  6  2  0  0  0  0
  6  1  1  0  0  0  0
  7  2  1  0  0  0  0
  8  2  2  0  0  0  0
  9  7  1  0  0  0  0
 10 11  2  0  0  0  0
 11  9  1  0  0  0  0
 12 17  1  0  0  0  0
 13  3  1  0  0  0  0
 14  3  2  0  0  0  0
 15  9  2  0  0  0  0
 16 11  1  0  0  0  0
 17 16  2  0  0  0  0
 18  6  1  0  0  0  0
 19 12  1  0  0  0  0
 20 18  1  0  0  0  0
 21 18  1  0  0  0  0
  8  5  1  0  0  0  0
  4 12  2  0  0  0  0
M  CHG  2   3   1  13  -1
M  END
> <IDNUMBER>
F0326-1109

> <Chemical_Name>
4-chloro-3-nitro-N-[5-(propan-2-yl)-1,3,4-thiadiazol-2-yl]benzamide

> <CAS>
339203-04-2

> <PriceCoeff>
1.00

> <MW>
326.76

> <Description>
solid

> <FSP3>
0.25

> <clogP>
2.94

> <TPSA>
126.26

> <Acceptor>
5

> <Donor>
1

> <RotBonds>
4

> <HAC>
21

> <Collection>
General

$$$$
F0440-0360
  -ISIS-  06222321142D

 27 30  0  0  0  0  0  0  0  0999 V2000
   -3.6500   -0.5500    0.0000 C   0  0  0  0  0  0  0  0  0  0  0  0
    0.2000   -1.2042    0.0000 N   0  0  3  0  0  0  0  0  0  0  0  0
   -4.0208   -1.0667    0.0000 N   0  0  0  0  0  0  0  0  0  0  0  0
   -3.0333   -0.5000    0.0000 C   0  0  0  0  0  0  0  0  0  0  0  0
   -4.0208   -0.0500    0.0000 S   0  0  0  0  0  0  0  0  0  0  0  0
    0.8167   -1.3000    0.0000 C   0  0  0  0  0  0  0  0  0  0  0  0
   -0.0500   -1.8000    0.0000 C   0  0  0  0  0  0  0  0  0  0  0  0
   -2.6708   -1.0000    0.0000 C   0  0  0  0  0  0  0  0  0  0  0  0
   -4.6125   -0.9000    0.0000 C   0  0  0  0  0  0  0  0  0  0  0  0
   -0.7958   -0.7667    0.0000 C   0  0  0  0  0  0  0  0  0  0  0  0
   -4.6125   -0.2500    0.0000 C   0  0  0  0  0  0  0  0  0  0  0  0
   -0.1500   -0.7042    0.0000 C   0  0  0  0  0  0  0  0  0  0  0  0
   -2.0500   -0.9292    0.0000 C   0  0  0  0  0  0  0  0  0  0  0  0
   -2.7708    0.0833    0.0000 C   0  0  0  0  0  0  0  0  0  0  0  0
   -1.1708   -0.2667    0.0000 N   0  0  0  0  0  0  0  0  0  0  0  0
   -1.7958   -0.3500    0.0000 C   0  0  0  0  0  0  0  0  0  0  0  0
    0.9542   -1.9000    0.0000 C   0  0  0  0  0  0  0  0  0  0  0  0
    0.4000   -2.2000    0.0000 C   0  0  0  0  0  0  0  0  0  0  0  0
    1.2542   -0.8042    0.0000 O   0  0  0  0  0  0  0  0  0  0  0  0
   -0.6708   -1.9292    0.0000 O   0  0  0  0  0  0  0  0  0  0  0  0
   -1.0333   -1.3500    0.0000 O   0  0  0  0  0  0  0  0  0  0  0  0
   -2.1500    0.1458    0.0000 C   0  0  0  0  0  0  0  0  0  0  0  0
   -2.9125   -1.5667    0.0000 O   0  0  0  0  0  0  0  0  0  0  0  0
   -5.1583   -1.2000    0.0000 C   0  0  0  0  0  0  0  0  0  0  0  0
   -5.1583    0.0625    0.0000 C   0  0  0  0  0  0  0  0  0  0  0  0
   -5.6958   -0.9000    0.0000 C   0  0  0  0  0  0  0  0  0  0  0  0
   -5.6958   -0.2500    0.0000 C   0  0  0  0  0  0  0  0  0  0  0  0
  2 12  1  0  0  0  0
  3  1  2  0  0  0  0
  4  1  1  0  0  0  0
  5  1  1  0  0  0  0
  6  2  1  0  0  0  0
  7  2  1  0  0  0  0
  8  4  1  0  0  0  0
  9  3  1  0  0  0  0
 10 15  1  0  0  0  0
 11  5  1  0  0  0  0
 12 10  1  0  0  0  0
 13  8  2  0  0  0  0
 14  4  2  0  0  0  0
 15 16  1  0  0  0  0
 16 22  2  0  0  0  0
 17  6  1  0  0  0  0
 18  7  1  0  0  0  0
 19  6  2  0  0  0  0
 20  7  2  0  0  0  0
 21 10  2  0  0  0  0
 22 14  1  0  0  0  0
 23  8  1  0  0  0  0
 24  9  1  0  0  0  0
 25 11  1  0  0  0  0
 26 24  2  0  0  0  0
 27 25  2  0  0  0  0
 11  9  2  0  0  0  0
 27 26  1  0  0  0  0
 16 13  1  0  0  0  0
 18 17  1  0  0  0  0
M  END
> <IDNUMBER>
F0440-0360

> <Chemical_Name>
N-[4-(1,3-benzothiazol-2-yl)-3-hydroxyphenyl]-2-(2,5-dioxopyrrolidin-1-yl)acetamide

> <CAS>
392324-86-6

> <PriceCoeff>
1.00

> <MW>
381.41

> <Description>
solid

> <FSP3>
0.16

> <clogP>
2.06

> <TPSA>
127.84

> <Acceptor>
5

> <Donor>
2

> <RotBonds>
4

> <HAC>
27

> <Collection>
General

$$$$
F2018-4416
  -ISIS-  06222304352D

 31 33  0  0  0  0  0  0  0  0999 V2000
   -3.1583    2.9833    0.0000 C   0  0  0  0  0  0  0  0  0  0  0  0
   -0.2958    2.9833    0.0000 N   0  0  3  0  0  0  0  0  0  0  0  0
   -3.9125    2.6458    0.0000 N   0  0  0  0  0  0  0  0  0  0  0  0
   -2.4375    2.5625    0.0000 N   0  0  3  0  0  0  0  0  0  0  0  0
   -3.2458    3.8083    0.0000 S   0  0  0  0  0  0  0  0  0  0  0  0
   -1.7250    2.9833    0.0000 C   0  0  0  0  0  0  0  0  0  0  0  0
   -4.4708    3.2583    0.0000 C   0  0  0  0  0  0  0  0  0  0  0  0
   -1.0125    2.5625    0.0000 C   0  0  0  0  0  0  0  0  0  0  0  0
   -4.0583    3.9708    0.0000 C   0  0  0  0  0  0  0  0  0  0  0  0
   -0.2125    3.8000    0.0000 C   0  0  0  0  0  0  0  0  0  0  0  0
    0.4542    2.6458    0.0000 C   0  0  0  0  0  0  0  0  0  0  0  0
   -5.2833    3.2500    0.0000 C   0  0  0  0  0  0  0  0  0  0  0  0
   -4.4708    4.6792    0.0000 C   0  0  0  0  0  0  0  0  0  0  0  0
   -5.7083    3.9583    0.0000 C   0  0  0  0  0  0  0  0  0  0  0  0
   -5.2958    4.6667    0.0000 C   0  0  0  0  0  0  0  0  0  0  0  0
   -2.4375    1.7375    0.0000 C   0  0  0  0  0  0  0  0  0  0  0  0
   -5.8500    5.2792    0.0000 O   0  0  0  0  0  0  0  0  0  0  0  0
   -6.5042    4.1250    0.0000 O   0  0  0  0  0  0  0  0  0  0  0  0
   -1.7250    3.8000    0.0000 O   0  0  0  0  0  0  0  0  0  0  0  0
   -6.5917    4.9417    0.0000 C   0  0  0  0  0  0  0  0  0  0  0  0
    0.5917    3.9708    0.0000 C   0  0  0  0  0  0  0  0  0  0  0  0
    1.0125    3.2583    0.0000 C   0  0  0  0  0  0  0  0  0  0  0  0
   -0.8125    4.3417    0.0000 O   0  0  0  0  0  0  0  0  0  0  0  0
    0.6292    1.8333    0.0000 O   0  0  0  0  0  0  0  0  0  0  0  0
   -3.1583    1.3250    0.0000 C   0  0  0  0  0  0  0  0  0  0  0  0
   -3.1583    0.5000    0.0000 N   0  0  3  0  0  0  0  0  0  0  0  0
   -3.8708    0.0875    0.0000 C   0  0  0  0  0  0  0  0  0  0  0  0
   -2.4375    0.0875    0.0000 C   0  0  0  0  0  0  0  0  0  0  0  0
   -4.5833    0.5000    0.0000 C   0  0  0  0  0  0  0  0  0  0  0  0
   -2.4375   -0.7375    0.0000 C   0  0  0  0  0  0  0  0  0  0  0  0
    2.4000    2.4208    0.0000 Cl  0  0  0  0  0  0  0  0  0  0  0  0
  3  1  2  0  0  0  0
  4  1  1  0  0  0  0
  5  1  1  0  0  0  0
  6  4  1  0  0  0  0
  7  3  1  0  0  0  0
  8  6  1  0  0  0  0
  9  5  1  0  0  0  0
 10  2  1  0  0  0  0
 11  2  1  0  0  0  0
 12  7  1  0  0  0  0
 13  9  1  0  0  0  0
 14 12  2  0  0  0  0
 15 13  2  0  0  0  0
 16  4  1  0  0  0  0
 17 15  1  0  0  0  0
 18 14  1  0  0  0  0
 19  6  2  0  0  0  0
 20 17  1  0  0  0  0
 21 10  1  0  0  0  0
 22 11  1  0  0  0  0
 23 10  2  0  0  0  0
 24 11  2  0  0  0  0
 25 16  1  0  0  0  0
 26 25  1  0  0  0  0
 27 26  1  0  0  0  0
 28 26  1  0  0  0  0
 29 27  1  0  0  0  0
 30 28  1  0  0  0  0
  9  7  2  0  0  0  0
 15 14  1  0  0  0  0
 18 20  1  0  0  0  0
 21 22  1  0  0  0  0
  2  8  1  0  0  0  0
M  END
> <IDNUMBER>
F2018-4416

> <Chemical_Name>
N-[2-(diethylamino)ethyl]-N-{4,6-dioxa-10-thia-12-azatricyclo[7.3.0.0^{3,7}]dodeca-1(9),2,7,11-tetraen-11-yl}-2-(2,5-dioxopyrrolidin-1-yl)acetamide hydrochloride

> <CAS>
1052537-05-9

> <PriceCoeff>
1.00

> <MW>
432.49

> <Description>
solid

> <FSP3>
0.50

> <clogP>
2.91

> <TPSA>
120.52

> <Acceptor>
6

> <Donor>
1

> <RotBonds>
9

> <HAC>
30

> <Collection>
General

$$$$
F6617-5677
  -ISIS-  06222321472D

 13 14  0  0  0  0  0  0  0  0999 V2000
    7.0042   -4.5667    0.0000 N   0  0  0  0  0  0  0  0  0  0  0  0
    6.3417   -5.0542    0.0000 C   0  0  0  0  0  0  0  0  0  0  0  0
    5.9167   -3.7917    0.0000 N   0  0  0  0  0  0  0  0  0  0  0  0
    5.6667   -4.5750    0.0000 O   0  0  0  0  0  0  0  0  0  0  0  0
    6.7417   -3.7875    0.0000 C   0  0  0  0  0  0  0  0  0  0  0  0
    5.6292   -6.2917    0.0000 N   0  0  0  0  0  0  0  0  0  0  0  0
    6.3417   -5.8792    0.0000 C   0  0  0  0  0  0  0  0  0  0  0  0
    5.6292   -7.1250    0.0000 C   0  0  0  0  0  0  0  0  0  0  0  0
    4.9167   -7.5292    0.0000 Cl  0  0  0  0  0  0  0  0  0  0  0  0
    7.0625   -6.2917    0.0000 C   0  0  0  0  0  0  0  0  0  0  0  0
    7.2292   -3.1167    0.0000 C   0  0  0  0  0  0  0  0  0  0  0  0
    7.0625   -7.1250    0.0000 C   0  0  0  0  0  0  0  0  0  0  0  0
    6.3417   -7.5375    0.0000 C   0  0  0  0  0  0  0  0  0  0  0  0
  2  1  2  0  0  0  0
  3  5  2  0  0  0  0
  4  2  1  0  0  0  0
  5  1  1  0  0  0  0
  6  7  1  0  0  0  0
  7  2  1  0  0  0  0
  8  6  2  0  0  0  0
  9  8  1  0  0  0  0
 10  7  2  0  0  0  0
 11  5  1  0  0  0  0
 12 10  1  0  0  0  0
 13 12  2  0  0  0  0
  3  4  1  0  0  0  0
  8 13  1  0  0  0  0
M  END
> <IDNUMBER>
F6617-5677

> <Chemical_Name>
2-chloro-6-(3-methyl-1,2,4-oxadiazol-5-yl)pyridine

> <CAS>
1866112-74-4

> <PriceCoeff>
1.00

> <MW>
195.61

> <Description>
solid

> <FSP3>
0.12

> <clogP>
1.42

> <TPSA>
51.81

> <Acceptor>
4

> <Donor>
1

> <RotBonds>
1

> <HAC>
13

> <Collection>
General

> <Reference_compound>
CHEMBL2268705

> <Similarity>
0.8590

$$$$
F0700-0136
  -ISIS-  06222321142D

 27 30  0  0  0  0  0  0  0  0999 V2000
   -2.5333    1.0958    0.0000 C   0  0  0  0  0  0  0  0  0  0  0  0
    0.9542    2.6625    0.0000 N   0  0  3  0  0  0  0  0  0  0  0  0
   -2.8708    0.5958    0.0000 N   0  0  0  0  0  0  0  0  0  0  0  0
   -1.8958    1.0958    0.0000 C   0  0  0  0  0  0  0  0  0  0  0  0
   -2.8833    1.6000    0.0000 S   0  0  0  0  0  0  0  0  0  0  0  0
    1.4000    3.1208    0.0000 C   0  0  0  0  0  0  0  0  0  0  0  0
    1.2667    2.1000    0.0000 C   0  0  0  0  0  0  0  0  0  0  0  0
   -3.4958    0.7625    0.0000 C   0  0  0  0  0  0  0  0  0  0  0  0
   -0.0125    2.1333    0.0000 C   0  0  0  0  0  0  0  0  0  0  0  0
   -3.5000    1.4125    0.0000 C   0  0  0  0  0  0  0  0  0  0  0  0
    0.3292    2.6625    0.0000 C   0  0  0  0  0  0  0  0  0  0  0  0
   -1.5833    0.5458    0.0000 C   0  0  0  0  0  0  0  0  0  0  0  0
   -1.5625    1.6458    0.0000 C   0  0  0  0  0  0  0  0  0  0  0  0
   -0.6208    2.1500    0.0000 N   0  0  0  0  0  0  0  0  0  0  0  0
   -0.9458    1.6208    0.0000 C   0  0  0  0  0  0  0  0  0  0  0  0
    1.8875    2.2208    0.0000 C   0  0  0  0  0  0  0  0  0  0  0  0
    1.9792    2.8458    0.0000 C   0  0  0  0  0  0  0  0  0  0  0  0
    1.0042    1.5125    0.0000 O   0  0  0  0  0  0  0  0  0  0  0  0
    1.2875    3.7708    0.0000 O   0  0  0  0  0  0  0  0  0  0  0  0
    0.3042    1.6000    0.0000 O   0  0  0  0  0  0  0  0  0  0  0  0
   -0.9708    0.5458    0.0000 C   0  0  0  0  0  0  0  0  0  0  0  0
   -0.6458    1.0833    0.0000 C   0  0  0  0  0  0  0  0  0  0  0  0
   -1.8958   -0.0042    0.0000 O   0  0  0  0  0  0  0  0  0  0  0  0
   -4.0208    0.4458    0.0000 C   0  0  0  0  0  0  0  0  0  0  0  0
   -4.0458    1.7458    0.0000 C   0  0  0  0  0  0  0  0  0  0  0  0
   -4.6000    1.4125    0.0000 C   0  0  0  0  0  0  0  0  0  0  0  0
   -4.5958    0.7500    0.0000 C   0  0  0  0  0  0  0  0  0  0  0  0
  2 11  1  0  0  0  0
  3  1  2  0  0  0  0
  4  1  1  0  0  0  0
  5  1  1  0  0  0  0
  6  2  1  0  0  0  0
  7  2  1  0  0  0  0
  8  3  1  0  0  0  0
  9 14  1  0  0  0  0
 10  5  1  0  0  0  0
 11  9  1  0  0  0  0
 12  4  2  0  0  0  0
 13  4  1  0  0  0  0
 14 15  1  0  0  0  0
 15 13  2  0  0  0  0
 16  7  1  0  0  0  0
 17  6  1  0  0  0  0
 18  7  2  0  0  0  0
 19  6  2  0  0  0  0
 20  9  2  0  0  0  0
 21 12  1  0  0  0  0
 22 15  1  0  0  0  0
 23 12  1  0  0  0  0
 24  8  1  0  0  0  0
 25 10  1  0  0  0  0
 26 25  2  0  0  0  0
 27 24  2  0  0  0  0
 10  8  2  0  0  0  0
 21 22  2  0  0  0  0
 26 27  1  0  0  0  0
 17 16  1  0  0  0  0
M  END
> <IDNUMBER>
F0700-0136

> <Chemical_Name>
N-[3-(1,3-benzothiazol-2-yl)-4-hydroxyphenyl]-2-(2,5-dioxopyrrolidin-1-yl)acetamide

> <CAS>
393837-52-0

> <PriceCoeff>
1.00

> <MW>
381.41

> <Description>
solid

> <FSP3>
0.16

> <clogP>
2.06

> <TPSA>
127.84

> <Acceptor>
5

> <Donor>
2

> <RotBonds>
4

> <HAC>
27

> <Collection>
General

$$$$
F2593-0414
  -ISIS-  06222321442D

 25 27  0  0  0  0  0  0  0  0999 V2000
   -2.2958    3.8000    0.0000 C   0  0  0  0  0  0  0  0  0  0  0  0
   -2.4625    2.9958    0.0000 N   0  0  3  0  0  0  0  0  0  0  0  0
   -3.2500    2.7458    0.0000 C   0  0  0  0  0  0  0  0  0  0  0  0
   -1.5083    4.0417    0.0000 N   0  0  0  0  0  0  0  0  0  0  0  0
   -3.5083    1.9583    0.0000 N   0  0  0  0  0  0  0  0  0  0  0  0
   -1.8583    2.4458    0.0000 C   0  0  0  0  0  0  0  0  0  0  0  0
   -0.3708    5.9042    0.0000 C   0  0  0  0  0  0  0  0  0  0  0  0
   -0.5458    5.1042    0.0000 C   0  0  0  0  0  0  0  0  0  0  0  0
   -2.9083    4.3417    0.0000 O   0  0  0  0  0  0  0  0  0  0  0  0
   -1.3333    4.8542    0.0000 C   0  0  0  0  0  0  0  0  0  0  0  0
   -0.9833    6.4667    0.0000 C   0  0  0  0  0  0  0  0  0  0  0  0
   -2.0333    1.6375    0.0000 C   0  0  0  0  0  0  0  0  0  0  0  0
   -1.0708    2.7083    0.0000 C   0  0  0  0  0  0  0  0  0  0  0  0
   -1.7708    6.2167    0.0000 C   0  0  0  0  0  0  0  0  0  0  0  0
    0.4167    6.1667    0.0000 Cl  0  0  0  0  0  0  0  0  0  0  0  0
   -1.9458    5.4042    0.0000 C   0  0  0  0  0  0  0  0  0  0  0  0
   -0.8083    7.2667    0.0000 Cl  0  0  0  0  0  0  0  0  0  0  0  0
   -0.6333    1.3458    0.0000 C   0  0  0  0  0  0  0  0  0  0  0  0
   -0.4625    2.1583    0.0000 C   0  0  0  0  0  0  0  0  0  0  0  0
   -1.4125    1.0875    0.0000 C   0  0  0  0  0  0  0  0  0  0  0  0
   -3.9208    3.2333    0.0000 C   0  0  0  0  0  0  0  0  0  0  0  0
   -4.3333    1.9583    0.0000 C   0  0  0  0  0  0  0  0  0  0  0  0
   -0.0125    0.7875    0.0000 O   0  0  0  0  0  0  0  0  0  0  0  0
   -0.1750   -0.0167    0.0000 C   0  0  0  0  0  0  0  0  0  0  0  0
   -4.5833    2.7458    0.0000 C   0  0  0  0  0  0  0  0  0  0  0  0
  2  1  1  0  0  0  0
  3  2  1  0  0  0  0
  4  1  1  0  0  0  0
  5  3  2  0  0  0  0
  6  2  1  0  0  0  0
  7  8  2  0  0  0  0
  8 10  1  0  0  0  0
  9  1  2  0  0  0  0
 10  4  1  0  0  0  0
 11 14  2  0  0  0  0
 12  6  2  0  0  0  0
 13  6  1  0  0  0  0
 14 16  1  0  0  0  0
 15  7  1  0  0  0  0
 16 10  2  0  0  0  0
 17 11  1  0  0  0  0
 18 19  1  0  0  0  0
 19 13  2  0  0  0  0
 20 12  1  0  0  0  0
 21  3  1  0  0  0  0
 22  5  1  0  0  0  0
 23 18  1  0  0  0  0
 24 23  1  0  0  0  0
 25 21  1  0  0  0  0
 20 18  2  0  0  0  0
 22 25  1  0  0  0  0
 11  7  1  0  0  0  0
M  END
> <IDNUMBER>
F2593-0414

> <Chemical_Name>
1-(3,4-dichlorophenyl)-3-(3,4-dihydro-2H-pyrrol-5-yl)-3-(4-methoxyphenyl)urea

> <CAS>
634164-39-9

> <PriceCoeff>
1.00

> <MW>
378.25

> <Description>
solid

> <FSP3>
0.22

> <clogP>
4.50

> <TPSA>
53.93

> <Acceptor>
3

> <Donor>
1

> <RotBonds>
5

> <HAC>
25

> <Collection>
General

$$$$
F2614-0760
  -ISIS-  06222321142D

 27 29  0  0  0  0  0  0  0  0999 V2000
   -1.5000    2.1083    0.0000 C   0  0  0  0  0  0  0  0  0  0  0  0
   -2.0875    2.5500    0.0000 S   0  0  0  0  0  0  0  0  0  0  0  0
   -2.7083    2.1125    0.0000 C   0  0  0  0  0  0  0  0  0  0  0  0
   -1.7250    1.3958    0.0000 N   0  0  3  0  0  0  0  0  0  0  0  0
    0.2500    4.0417    0.0000 N   0  0  3  0  0  0  0  0  0  0  0  0
   -2.4750    1.4000    0.0000 C   0  0  0  0  0  0  0  0  0  0  0  0
   -0.7833    2.3458    0.0000 N   0  0  0  0  0  0  0  0  0  0  0  0
    0.8917    4.4167    0.0000 C   0  0  0  0  0  0  0  0  0  0  0  0
   -0.3083    4.5417    0.0000 C   0  0  0  0  0  0  0  0  0  0  0  0
   -0.6208    3.0833    0.0000 C   0  0  0  0  0  0  0  0  0  0  0  0
    0.0917    3.3125    0.0000 C   0  0  0  0  0  0  0  0  0  0  0  0
   -3.4333    2.2750    0.0000 C   0  0  0  0  0  0  0  0  0  0  0  0
   -2.9833    0.8458    0.0000 C   0  0  0  0  0  0  0  0  0  0  0  0
    0.0000    5.2167    0.0000 C   0  0  0  0  0  0  0  0  0  0  0  0
    0.7375    5.1542    0.0000 C   0  0  0  0  0  0  0  0  0  0  0  0
   -1.0458    4.3917    0.0000 O   0  0  0  0  0  0  0  0  0  0  0  0
    1.5875    4.1042    0.0000 O   0  0  0  0  0  0  0  0  0  0  0  0
   -1.1833    3.5833    0.0000 O   0  0  0  0  0  0  0  0  0  0  0  0
   -3.9375    1.7208    0.0000 C   0  0  0  0  0  0  0  0  0  0  0  0
   -3.7083    1.0083    0.0000 C   0  0  0  0  0  0  0  0  0  0  0  0
   -1.2875    0.7833    0.0000 C   0  0  0  0  0  0  0  0  0  0  0  0
   -3.6583    2.9958    0.0000 O   0  0  0  0  0  0  0  0  0  0  0  0
   -2.7583    0.1250    0.0000 O   0  0  0  0  0  0  0  0  0  0  0  0
   -4.3958    3.1708    0.0000 C   0  0  0  0  0  0  0  0  0  0  0  0
   -3.2625   -0.4250    0.0000 C   0  0  0  0  0  0  0  0  0  0  0  0
   -1.5958    0.1000    0.0000 C   0  0  0  0  0  0  0  0  0  0  0  0
   -1.1583   -0.5042    0.0000 C   0  0  0  0  0  0  0  0  0  0  0  0
  2  1  1  0  0  0  0
  3  2  1  0  0  0  0
  4  1  1  0  0  0  0
  5 11  1  0  0  0  0
  6  4  1  0  0  0  0
  7  1  2  0  0  0  0
  8  5  1  0  0  0  0
  9  5  1  0  0  0  0
 10  7  1  0  0  0  0
 11 10  1  0  0  0  0
 12  3  1  0  0  0  0
 13  6  1  0  0  0  0
 14  9  1  0  0  0  0
 15  8  1  0  0  0  0
 16  9  2  0  0  0  0
 17  8  2  0  0  0  0
 18 10  2  0  0  0  0
 19 12  2  0  0  0  0
 20 13  2  0  0  0  0
 21  4  1  0  0  0  0
 22 12  1  0  0  0  0
 23 13  1  0  0  0  0
 24 22  1  0  0  0  0
 25 23  1  0  0  0  0
 26 21  1  0  0  0  0
 27 26  1  0  0  0  0
  3  6  2  0  0  0  0
 20 19  1  0  0  0  0
 14 15  1  0  0  0  0
M  END
> <IDNUMBER>
F2614-0760

> <Chemical_Name>
N-[(2Z)-4,7-dimethoxy-3-propyl-2,3-dihydro-1,3-benzothiazol-2-ylidene]-2-(2,5-dioxopyrrolidin-1-yl)acetamide

> <CAS>
898375-95-6

> <PriceCoeff>
1.00

> <MW>
391.44

> <Description>
solid

> <FSP3>
0.44

> <clogP>
3.84

> <TPSA>
113.81

> <Acceptor>
5

> <Donor>
0

> <RotBonds>
7

> <HAC>
27

> <Collection>
General

$$$$
F1359-1692
  -ISIS-  06222321142D

 27 29  0  0  0  0  0  0  0  0999 V2000
   -1.1625    2.3833    0.0000 C   0  0  0  0  0  0  0  0  0  0  0  0
    1.3167    3.8083    0.0000 N   0  0  3  0  0  0  0  0  0  0  0  0
   -1.6458    1.7208    0.0000 N   0  0  3  0  0  0  0  0  0  0  0  0
   -0.3375    2.3750    0.0000 N   0  0  0  0  0  0  0  0  0  0  0  0
   -1.6458    3.0500    0.0000 S   0  0  0  0  0  0  0  0  0  0  0  0
   -2.4333    2.7958    0.0000 C   0  0  0  0  0  0  0  0  0  0  0  0
   -2.4333    1.9708    0.0000 C   0  0  0  0  0  0  0  0  0  0  0  0
    2.1292    3.8833    0.0000 C   0  0  0  0  0  0  0  0  0  0  0  0
    0.9792    4.5417    0.0000 C   0  0  0  0  0  0  0  0  0  0  0  0
    0.0750    3.0875    0.0000 C   0  0  0  0  0  0  0  0  0  0  0  0
    0.9000    3.0875    0.0000 C   0  0  0  0  0  0  0  0  0  0  0  0
   -3.1458    3.2083    0.0000 C   0  0  0  0  0  0  0  0  0  0  0  0
   -3.1458    1.5583    0.0000 C   0  0  0  0  0  0  0  0  0  0  0  0
    1.5917    5.0917    0.0000 C   0  0  0  0  0  0  0  0  0  0  0  0
    2.3125    4.6917    0.0000 C   0  0  0  0  0  0  0  0  0  0  0  0
    0.1792    4.7292    0.0000 O   0  0  0  0  0  0  0  0  0  0  0  0
    2.6875    3.2708    0.0000 O   0  0  0  0  0  0  0  0  0  0  0  0
   -0.3375    3.8000    0.0000 O   0  0  0  0  0  0  0  0  0  0  0  0
   -3.8583    2.7958    0.0000 C   0  0  0  0  0  0  0  0  0  0  0  0
   -1.3958    0.9333    0.0000 C   0  0  0  0  0  0  0  0  0  0  0  0
   -3.8583    1.9708    0.0000 C   0  0  0  0  0  0  0  0  0  0  0  0
   -4.5833    3.2125    0.0000 O   0  0  0  0  0  0  0  0  0  0  0  0
   -2.7500    0.4875    0.0000 O   0  0  0  0  0  0  0  0  0  0  0  0
   -1.9458    0.3208    0.0000 C   0  0  0  0  0  0  0  0  0  0  0  0
   -5.2958    2.8000    0.0000 C   0  0  0  0  0  0  0  0  0  0  0  0
   -3.3083   -0.1250    0.0000 C   0  0  0  0  0  0  0  0  0  0  0  0
   -5.2958    1.9750    0.0000 C   0  0  0  0  0  0  0  0  0  0  0  0
  2 11  1  0  0  0  0
  3  1  1  0  0  0  0
  4  1  2  0  0  0  0
  5  1  1  0  0  0  0
  6  5  1  0  0  0  0
  7  3  1  0  0  0  0
  8  2  1  0  0  0  0
  9  2  1  0  0  0  0
 10  4  1  0  0  0  0
 11 10  1  0  0  0  0
 12  6  1  0  0  0  0
 13  7  1  0  0  0  0
 14  9  1  0  0  0  0
 15  8  1  0  0  0  0
 16  9  2  0  0  0  0
 17  8  2  0  0  0  0
 18 10  2  0  0  0  0
 19 12  2  0  0  0  0
 20  3  1  0  0  0  0
 21 13  2  0  0  0  0
 22 19  1  0  0  0  0
 23 24  1  0  0  0  0
 24 20  1  0  0  0  0
 25 22  1  0  0  0  0
 26 23  1  0  0  0  0
 27 25  1  0  0  0  0
  7  6  2  0  0  0  0
 21 19  1  0  0  0  0
 15 14  1  0  0  0  0
M  END
> <IDNUMBER>
F1359-1692

> <Chemical_Name>
2-(2,5-dioxopyrrolidin-1-yl)-N-[(2Z)-6-ethoxy-3-(2-methoxyethyl)-2,3-dihydro-1,3-benzothiazol-2-ylidene]acetamide

> <CAS>
865161-96-2

> <PriceCoeff>
1.00

> <MW>
391.44

> <Description>
solid

> <FSP3>
0.44

> <clogP>
2.99

> <TPSA>
113.81

> <Acceptor>
5

> <Donor>
0

> <RotBonds>
8

> <HAC>
27

> <Collection>
General

$$$$
F1366-0636
  -ISIS-  06222321142D

 26 28  0  0  0  0  0  0  0  0999 V2000
   -1.1625    2.3833    0.0000 C   0  0  0  0  0  0  0  0  0  0  0  0
   -1.6458    1.7208    0.0000 N   0  0  3  0  0  0  0  0  0  0  0  0
    1.3000    3.7958    0.0000 N   0  0  3  0  0  0  0  0  0  0  0  0
   -0.3375    2.3750    0.0000 N   0  0  0  0  0  0  0  0  0  0  0  0
   -1.6458    3.0500    0.0000 S   0  0  0  0  0  0  0  0  0  0  0  0
   -2.4333    2.7958    0.0000 C   0  0  0  0  0  0  0  0  0  0  0  0
   -2.4333    1.9708    0.0000 C   0  0  0  0  0  0  0  0  0  0  0  0
    2.1042    3.8708    0.0000 C   0  0  0  0  0  0  0  0  0  0  0  0
    0.9625    4.5292    0.0000 C   0  0  0  0  0  0  0  0  0  0  0  0
    0.0750    3.0875    0.0000 C   0  0  0  0  0  0  0  0  0  0  0  0
    0.8875    3.0875    0.0000 C   0  0  0  0  0  0  0  0  0  0  0  0
   -1.7625    0.9083    0.0000 C   0  0  0  0  0  0  0  0  0  0  0  0
   -3.1458    3.2083    0.0000 C   0  0  0  0  0  0  0  0  0  0  0  0
   -3.1458    1.5583    0.0000 C   0  0  0  0  0  0  0  0  0  0  0  0
   -2.5208    0.6083    0.0000 C   0  0  0  0  0  0  0  0  0  0  0  0
    1.5625    5.0750    0.0000 C   0  0  0  0  0  0  0  0  0  0  0  0
    2.2750    4.6667    0.0000 C   0  0  0  0  0  0  0  0  0  0  0  0
    0.1667    4.7042    0.0000 O   0  0  0  0  0  0  0  0  0  0  0  0
    2.6417    3.2708    0.0000 O   0  0  0  0  0  0  0  0  0  0  0  0
   -0.3375    3.8000    0.0000 O   0  0  0  0  0  0  0  0  0  0  0  0
   -2.6333   -0.2000    0.0000 O   0  0  0  0  0  0  0  0  0  0  0  0
   -3.8583    2.7958    0.0000 C   0  0  0  0  0  0  0  0  0  0  0  0
   -3.8583    1.9708    0.0000 C   0  0  0  0  0  0  0  0  0  0  0  0
   -3.1583    1.1083    0.0000 O   0  0  0  0  0  0  0  0  0  0  0  0
   -4.5625    3.2083    0.0000 Cl  0  0  0  0  0  0  0  0  0  0  0  0
   -3.9125    0.8083    0.0000 C   0  0  0  0  0  0  0  0  0  0  0  0
  2  1  1  0  0  0  0
  3 11  1  0  0  0  0
  4  1  2  0  0  0  0
  5  1  1  0  0  0  0
  6  5  1  0  0  0  0
  7  2  1  0  0  0  0
  8  3  1  0  0  0  0
  9  3  1  0  0  0  0
 10  4  1  0  0  0  0
 11 10  1  0  0  0  0
 12  2  1  0  0  0  0
 13  6  1  0  0  0  0
 14  7  1  0  0  0  0
 15 12  1  0  0  0  0
 16  9  1  0  0  0  0
 17  8  1  0  0  0  0
 18  9  2  0  0  0  0
 19  8  2  0  0  0  0
 20 10  2  0  0  0  0
 21 15  2  0  0  0  0
 22 13  2  0  0  0  0
 23 14  2  0  0  0  0
 24 15  1  0  0  0  0
 25 22  1  0  0  0  0
 26 24  1  0  0  0  0
  6  7  2  0  0  0  0
 22 23  1  0  0  0  0
 16 17  1  0  0  0  0
M  END
> <IDNUMBER>
F1366-0636

> <Chemical_Name>
methyl 2-[(2Z)-6-chloro-2-{[2-(2,5-dioxopyrrolidin-1-yl)acetyl]imino}-2,3-dihydro-1,3-benzothiazol-3-yl]acetate

> <CAS>
941917-29-9

> <PriceCoeff>
1.00

> <MW>
395.82

> <Description>
solid

> <FSP3>
0.31

> <clogP>
3.05

> <TPSA>
121.65

> <Acceptor>
5

> <Donor>
0

> <RotBonds>
6

> <HAC>
26

> <Collection>
General

$$$$
F5882-3004
  -ISIS-  06222321152D

 23 25  0  0  0  0  0  0  0  0999 V2000
    7.6042   -6.4625    0.0000 C   0  0  0  0  0  0  0  0  0  0  0  0
    8.3167   -6.8667    0.0000 N   0  0  3  0  0  0  0  0  0  0  0  0
    6.8917   -6.8792    0.0000 N   0  0  0  0  0  0  0  0  0  0  0  0
   10.4792   -8.9042    0.0000 C   0  0  0  0  0  0  0  0  0  0  0  0
    9.7542   -7.6750    0.0000 N   0  0  3  0  0  0  0  0  0  0  0  0
    5.4500   -5.2500    0.0000 C   0  0  0  0  0  0  0  0  0  0  0  0
    6.1667   -5.6542    0.0000 C   0  0  0  0  0  0  0  0  0  0  0  0
   10.0792  -10.1792    0.0000 S   0  0  0  0  0  0  0  0  0  0  0  0
    6.1750   -6.4792    0.0000 C   0  0  0  0  0  0  0  0  0  0  0  0
    7.5917   -5.6375    0.0000 O   0  0  0  0  0  0  0  0  0  0  0  0
    9.8167   -9.4000    0.0000 C   0  0  0  0  0  0  0  0  0  0  0  0
    4.7375   -5.6667    0.0000 C   0  0  0  0  0  0  0  0  0  0  0  0
   11.1542   -9.3917    0.0000 C   0  0  0  0  0  0  0  0  0  0  0  0
    8.3292   -7.6875    0.0000 C   0  0  0  0  0  0  0  0  0  0  0  0
    9.0292   -6.4500    0.0000 C   0  0  0  0  0  0  0  0  0  0  0  0
   10.4750   -8.0792    0.0000 C   0  0  0  0  0  0  0  0  0  0  0  0
   10.9042  -10.1792    0.0000 C   0  0  0  0  0  0  0  0  0  0  0  0
    4.7417   -6.4917    0.0000 C   0  0  0  0  0  0  0  0  0  0  0  0
    9.0417   -8.0917    0.0000 C   0  0  0  0  0  0  0  0  0  0  0  0
    9.7542   -6.8500    0.0000 C   0  0  0  0  0  0  0  0  0  0  0  0
    5.4417   -4.4250    0.0000 Cl  0  0  0  0  0  0  0  0  0  0  0  0
    5.4625   -6.9000    0.0000 C   0  0  0  0  0  0  0  0  0  0  0  0
    4.0167   -5.2625    0.0000 Cl  0  0  0  0  0  0  0  0  0  0  0  0
  2  1  1  0  0  0  0
  3  1  1  0  0  0  0
  4 16  1  0  0  0  0
  5 20  1  0  0  0  0
  6  7  1  0  0  0  0
  7  9  2  0  0  0  0
  8 11  1  0  0  0  0
  9  3  1  0  0  0  0
 10  1  2  0  0  0  0
 11  4  2  0  0  0  0
 12 18  1  0  0  0  0
 13  4  1  0  0  0  0
 14  2  1  0  0  0  0
 15  2  1  0  0  0  0
 16  5  1  0  0  0  0
 17 13  2  0  0  0  0
 18 22  2  0  0  0  0
 19 14  1  0  0  0  0
 20 15  1  0  0  0  0
 21  6  1  0  0  0  0
 22  9  1  0  0  0  0
 23 12  1  0  0  0  0
 19  5  1  0  0  0  0
  6 12  2  0  0  0  0
  8 17  1  0  0  0  0
M  END
> <IDNUMBER>
F5882-3004

> <Chemical_Name>
N-(3,4-dichlorophenyl)-4-[(thiophen-3-yl)methyl]piperazine-1-carboxamide

> <CAS>
1226444-53-6

> <PriceCoeff>
1.00

> <MW>
370.30

> <Description>
solid

> <FSP3>
0.31

> <clogP>
4.45

> <TPSA>
63.82

> <Acceptor>
1

> <Donor>
2

> <RotBonds>
4

> <HAC>
23

> <Collection>
General

$$$$
F2018-3527
  -ISIS-  06222304352D

 29 30  0  0  0  0  0  0  0  0999 V2000
   -3.1583    2.9833    0.0000 C   0  0  0  0  0  0  0  0  0  0  0  0
   -0.2958    2.9833    0.0000 N   0  0  3  0  0  0  0  0  0  0  0  0
   -2.4375    2.5625    0.0000 N   0  0  3  0  0  0  0  0  0  0  0  0
   -3.9125    2.6458    0.0000 N   0  0  0  0  0  0  0  0  0  0  0  0
   -3.2458    3.8083    0.0000 S   0  0  0  0  0  0  0  0  0  0  0  0
   -1.7250    2.9833    0.0000 C   0  0  0  0  0  0  0  0  0  0  0  0
   -1.0125    2.5625    0.0000 C   0  0  0  0  0  0  0  0  0  0  0  0
   -0.2125    3.8000    0.0000 C   0  0  0  0  0  0  0  0  0  0  0  0
    0.4542    2.6458    0.0000 C   0  0  0  0  0  0  0  0  0  0  0  0
   -4.0583    3.9708    0.0000 C   0  0  0  0  0  0  0  0  0  0  0  0
   -4.4708    3.2583    0.0000 C   0  0  0  0  0  0  0  0  0  0  0  0
   -2.4375    1.7375    0.0000 C   0  0  0  0  0  0  0  0  0  0  0  0
   -4.4708    4.6667    0.0000 C   0  0  0  0  0  0  0  0  0  0  0  0
   -1.7250    3.8000    0.0000 O   0  0  0  0  0  0  0  0  0  0  0  0
    0.5917    3.9708    0.0000 C   0  0  0  0  0  0  0  0  0  0  0  0
    1.0125    3.2583    0.0000 C   0  0  0  0  0  0  0  0  0  0  0  0
   -0.8125    4.3417    0.0000 O   0  0  0  0  0  0  0  0  0  0  0  0
    0.6292    1.8333    0.0000 O   0  0  0  0  0  0  0  0  0  0  0  0
   -5.2833    3.2458    0.0000 C   0  0  0  0  0  0  0  0  0  0  0  0
   -5.2958    4.6667    0.0000 C   0  0  0  0  0  0  0  0  0  0  0  0
   -3.1583    1.3250    0.0000 C   0  0  0  0  0  0  0  0  0  0  0  0
   -3.1583    0.5000    0.0000 N   0  0  3  0  0  0  0  0  0  0  0  0
   -5.6958    3.9583    0.0000 C   0  0  0  0  0  0  0  0  0  0  0  0
   -5.7208    5.3917    0.0000 Br  0  0  0  0  0  0  0  0  0  0  0  0
   -3.8708    0.0875    0.0000 C   0  0  0  0  0  0  0  0  0  0  0  0
   -2.4375    0.0875    0.0000 C   0  0  0  0  0  0  0  0  0  0  0  0
   -4.5833    0.5000    0.0000 C   0  0  0  0  0  0  0  0  0  0  0  0
   -2.4375   -0.7375    0.0000 C   0  0  0  0  0  0  0  0  0  0  0  0
    2.4000    2.4792    0.0000 Cl  0  0  0  0  0  0  0  0  0  0  0  0
  3  1  1  0  0  0  0
  4  1  2  0  0  0  0
  5  1  1  0  0  0  0
  6  3  1  0  0  0  0
  7  6  1  0  0  0  0
  8  2  1  0  0  0  0
  9  2  1  0  0  0  0
 10  5  1  0  0  0  0
 11  4  1  0  0  0  0
 12  3  1  0  0  0  0
 13 10  1  0  0  0  0
 14  6  2  0  0  0  0
 15  8  1  0  0  0  0
 16  9  1  0  0  0  0
 17  8  2  0  0  0  0
 18  9  2  0  0  0  0
 19 11  1  0  0  0  0
 20 13  2  0  0  0  0
 21 12  1  0  0  0  0
 22 21  1  0  0  0  0
 23 19  2  0  0  0  0
 24 20  1  0  0  0  0
 25 22  1  0  0  0  0
 26 22  1  0  0  0  0
 27 25  1  0  0  0  0
 28 26  1  0  0  0  0
 10 11  2  0  0  0  0
 23 20  1  0  0  0  0
 15 16  1  0  0  0  0
  2  7  1  0  0  0  0
M  END
> <IDNUMBER>
F2018-3527

> <Chemical_Name>
N-(6-bromo-1,3-benzothiazol-2-yl)-N-[2-(diethylamino)ethyl]-2-(2,5-dioxopyrrolidin-1-yl)acetamide hydrochloride

> <CAS>
1215610-36-8

> <PriceCoeff>
1.00

> <MW>
467.38

> <Description>
solid

> <FSP3>
0.47

> <clogP>
3.25

> <TPSA>
102.06

> <Acceptor>
4

> <Donor>
1

> <RotBonds>
9

> <HAC>
28

> <Collection>
General

$$$$
F3386-1377
  -ISIS-  06222321442D

 21 22  0  0  0  0  0  0  0  0999 V2000
    5.2375   -1.9167    0.0000 S   0  0  3  0  0  0  0  0  0  0  0  0
    4.4125   -1.9167    0.0000 C   0  0  0  0  0  0  0  0  0  0  0  0
    6.0625   -1.9042    0.0000 N   0  0  0  0  0  0  0  0  0  0  0  0
    6.8875   -1.9042    0.0000 C   0  0  0  0  0  0  0  0  0  0  0  0
    4.0167   -2.6375    0.0000 C   0  0  0  0  0  0  0  0  0  0  0  0
    5.2417   -2.7417    0.0000 O   0  0  0  0  0  0  0  0  0  0  0  0
    5.2292   -1.0917    0.0000 O   0  0  0  0  0  0  0  0  0  0  0  0
    7.2917   -2.6167    0.0000 C   0  0  0  0  0  0  0  0  0  0  0  0
    3.9917   -1.2167    0.0000 C   0  0  0  0  0  0  0  0  0  0  0  0
    7.2917   -1.1917    0.0000 C   0  0  0  0  0  0  0  0  0  0  0  0
    3.1792   -1.2167    0.0000 C   0  0  0  0  0  0  0  0  0  0  0  0
    8.1125   -1.1875    0.0000 C   0  0  0  0  0  0  0  0  0  0  0  0
    3.1917   -2.6500    0.0000 C   0  0  0  0  0  0  0  0  0  0  0  0
    8.1167   -2.6125    0.0000 C   0  0  0  0  0  0  0  0  0  0  0  0
    2.7667   -1.9375    0.0000 C   0  0  0  0  0  0  0  0  0  0  0  0
    8.5292   -1.9000    0.0000 C   0  0  0  0  0  0  0  0  0  0  0  0
    8.5292   -3.3292    0.0000 Cl  0  0  0  0  0  0  0  0  0  0  0  0
    2.7875   -3.3667    0.0000 Br  0  0  0  0  0  0  0  0  0  0  0  0
    6.8750   -0.4792    0.0000 O   0  0  0  0  0  0  0  0  0  0  0  0
    4.4042   -0.4917    0.0000 O   0  0  0  0  0  0  0  0  0  0  0  0
    5.2292   -0.4917    0.0000 C   0  0  0  0  0  0  0  0  0  0  0  0
  2  1  1  0  0  0  0
  3  1  1  0  0  0  0
  4  3  1  0  0  0  0
  5  2  1  0  0  0  0
  6  1  2  0  0  0  0
  7  1  2  0  0  0  0
  8  4  2  0  0  0  0
  9  2  2  0  0  0  0
 10  4  1  0  0  0  0
 11  9  1  0  0  0  0
 12 10  2  0  0  0  0
 13  5  2  0  0  0  0
 14  8  1  0  0  0  0
 15 11  2  0  0  0  0
 16 12  1  0  0  0  0
 17 14  1  0  0  0  0
 18 13  1  0  0  0  0
 19 10  1  0  0  0  0
 20  9  1  0  0  0  0
 21 20  1  0  0  0  0
 15 13  1  0  0  0  0
 16 14  2  0  0  0  0
M  END
> <IDNUMBER>
F3386-1377

> <Chemical_Name>
5-bromo-N-(5-chloro-2-hydroxyphenyl)-2-methoxybenzene-1-sulfonamide

> <CAS>
1170183-98-8

> <PriceCoeff>
1.00

> <MW>
392.65

> <Description>
solid

> <FSP3>
0.08

> <clogP>
3.76

> <TPSA>
84.01

> <Acceptor>
5

> <Donor>
2

> <RotBonds>
4

> <HAC>
21

> <Collection>
General

$$$$
F0440-0348
  -ISIS-  06222321142D

 26 29  0  0  0  0  0  0  0  0999 V2000
    1.8667   -0.5500    0.0000 N   0  0  3  0  0  0  0  0  0  0  0  0
   -0.3000   -1.8292    0.0000 C   0  0  0  0  0  0  0  0  0  0  0  0
   -0.7000   -2.4042    0.0000 N   0  0  0  0  0  0  0  0  0  0  0  0
   -1.4000   -2.2000    0.0000 C   0  0  0  0  0  0  0  0  0  0  0  0
    0.4292   -1.8042    0.0000 N   0  0  0  0  0  0  0  0  0  0  0  0
    1.6500    0.1208    0.0000 C   0  0  0  0  0  0  0  0  0  0  0  0
    2.6042   -0.5500    0.0000 C   0  0  0  0  0  0  0  0  0  0  0  0
   -0.7000   -1.2500    0.0000 S   0  0  0  0  0  0  0  0  0  0  0  0
    0.8000   -1.2000    0.0000 C   0  0  0  0  0  0  0  0  0  0  0  0
   -1.4000   -1.4667    0.0000 C   0  0  0  0  0  0  0  0  0  0  0  0
   -2.0458   -2.5500    0.0000 C   0  0  0  0  0  0  0  0  0  0  0  0
    1.5042   -1.2000    0.0000 C   0  0  0  0  0  0  0  0  0  0  0  0
   -2.6833   -2.2000    0.0000 C   0  0  0  0  0  0  0  0  0  0  0  0
   -3.3000   -2.5500    0.0000 C   0  0  0  0  0  0  0  0  0  0  0  0
    2.2500    0.5458    0.0000 C   0  0  0  0  0  0  0  0  0  0  0  0
    2.8292    0.1208    0.0000 C   0  0  0  0  0  0  0  0  0  0  0  0
    0.9667    0.3833    0.0000 O   0  0  0  0  0  0  0  0  0  0  0  0
    3.0500   -1.1500    0.0000 O   0  0  0  0  0  0  0  0  0  0  0  0
    0.4042   -0.5500    0.0000 O   0  0  0  0  0  0  0  0  0  0  0  0
   -2.0458   -3.2667    0.0000 C   0  0  0  0  0  0  0  0  0  0  0  0
   -3.3000   -3.2667    0.0000 C   0  0  0  0  0  0  0  0  0  0  0  0
   -2.6833   -3.6292    0.0000 C   0  0  0  0  0  0  0  0  0  0  0  0
   -3.9458   -2.2000    0.0000 C   0  0  0  0  0  0  0  0  0  0  0  0
   -3.9458   -3.6292    0.0000 C   0  0  0  0  0  0  0  0  0  0  0  0
   -4.5833   -2.5500    0.0000 C   0  0  0  0  0  0  0  0  0  0  0  0
   -4.5833   -3.2667    0.0000 C   0  0  0  0  0  0  0  0  0  0  0  0
  2  5  1  0  0  0  0
  3  2  2  0  0  0  0
  4  3  1  0  0  0  0
  5  9  1  0  0  0  0
  6  1  1  0  0  0  0
  7  1  1  0  0  0  0
  8  2  1  0  0  0  0
  9 12  1  0  0  0  0
 10  8  1  0  0  0  0
 11  4  1  0  0  0  0
 12  1  1  0  0  0  0
 13 11  2  0  0  0  0
 14 13  1  0  0  0  0
 15  6  1  0  0  0  0
 16  7  1  0  0  0  0
 17  6  2  0  0  0  0
 18  7  2  0  0  0  0
 19  9  2  0  0  0  0
 20 11  1  0  0  0  0
 21 22  1  0  0  0  0
 22 20  2  0  0  0  0
 23 14  1  0  0  0  0
 24 21  1  0  0  0  0
 25 23  2  0  0  0  0
 26 24  2  0  0  0  0
 16 15  1  0  0  0  0
 10  4  2  0  0  0  0
 21 14  2  0  0  0  0
 26 25  1  0  0  0  0
M  END
> <IDNUMBER>
F0440-0348

> <Chemical_Name>
2-(2,5-dioxopyrrolidin-1-yl)-N-[4-(naphthalen-2-yl)-1,3-thiazol-2-yl]acetamide

> <CAS>
476308-67-5

> <PriceCoeff>
1.00

> <MW>
365.41

> <Description>
solid

> <FSP3>
0.16

> <clogP>
3.12

> <TPSA>
107.61

> <Acceptor>
4

> <Donor>
1

> <RotBonds>
4

> <HAC>
26

> <Collection>
General

$$$$
F0758-0104
  -ISIS-  06222321142D

 21 23  0  0  0  0  0  0  0  0999 V2000
    0.9292    1.2458    0.0000 C   0  0  0  0  0  0  0  0  0  0  0  0
    0.4875    0.4625    0.0000 C   0  0  0  0  0  0  0  0  0  0  0  0
   -0.4125    0.4833    0.0000 C   0  0  0  0  0  0  0  0  0  0  0  0
    0.4875    2.0208    0.0000 C   0  0  0  0  0  0  0  0  0  0  0  0
   -0.8500    1.2458    0.0000 C   0  0  0  0  0  0  0  0  0  0  0  0
   -0.4125    2.0208    0.0000 O   0  0  0  0  0  0  0  0  0  0  0  0
   -1.7500    1.2625    0.0000 C   0  0  0  0  0  0  0  0  0  0  0  0
   -0.8708   -0.3000    0.0000 C   0  0  0  0  0  0  0  0  0  0  0  0
   -3.5208   -0.2500    0.0000 C   0  0  0  0  0  0  0  0  0  0  0  0
    1.8042    1.2458    0.0000 C   0  0  0  0  0  0  0  0  0  0  0  0
    0.9500   -0.3167    0.0000 O   0  0  0  0  0  0  0  0  0  0  0  0
   -2.1958    0.4833    0.0000 C   0  0  0  0  0  0  0  0  0  0  0  0
   -3.0708    0.5000    0.0000 O   0  0  0  0  0  0  0  0  0  0  0  0
   -4.4125   -0.2875    0.0000 O   0  0  0  0  0  0  0  0  0  0  0  0
   -1.7500   -0.3000    0.0000 C   0  0  0  0  0  0  0  0  0  0  0  0
   -3.1458   -1.0375    0.0000 C   0  0  0  0  0  0  0  0  0  0  0  0
    2.2542    0.4708    0.0000 C   0  0  0  0  0  0  0  0  0  0  0  0
    2.2542    2.0208    0.0000 C   0  0  0  0  0  0  0  0  0  0  0  0
    3.1500    2.0208    0.0000 C   0  0  0  0  0  0  0  0  0  0  0  0
    3.1500    0.4708    0.0000 C   0  0  0  0  0  0  0  0  0  0  0  0
    3.5875    1.2458    0.0000 C   0  0  0  0  0  0  0  0  0  0  0  0
  2  1  1  0  0  0  0
  3  2  1  0  0  0  0
  4  1  2  0  0  0  0
  5  6  1  0  0  0  0
  6  4  1  0  0  0  0
  7  5  1  0  0  0  0
  8  3  1  0  0  0  0
  9 13  1  0  0  0  0
 10  1  1  0  0  0  0
 11  2  2  0  0  0  0
 12  7  2  0  0  0  0
 13 12  1  0  0  0  0
 14  9  2  0  0  0  0
 15  8  2  0  0  0  0
 16  9  1  0  0  0  0
 17 10  2  0  0  0  0
 18 10  1  0  0  0  0
 19 18  2  0  0  0  0
 20 17  1  0  0  0  0
 21 19  1  0  0  0  0
  3  5  2  0  0  0  0
 20 21  2  0  0  0  0
 15 12  1  0  0  0  0
M  END
> <IDNUMBER>
F0758-0104

> <Chemical_Name>
4-oxo-3-phenyl-4H-chromen-7-yl acetate

> <CAS>
13020-22-9

> <PriceCoeff>
1.00

> <MW>
280.27

> <Description>
solid

> <FSP3>
0.06

> <clogP>
2.52

> <TPSA>
52.60

> <Acceptor>
4

> <Donor>
0

> <RotBonds>
3

> <HAC>
21

> <Collection>
General

> <Reference_compound>
CHEMBL463936

> <Similarity>
0.8220

$$$$
F1198-0001
  -ISIS-  06222321452D

 29 31  0  0  0  0  0  0  0  0999 V2000
   -0.5000    1.0500    0.0000 C   0  0  0  0  0  0  0  0  0  0  0  0
   -0.2458    0.2708    0.0000 C   0  0  0  0  0  0  0  0  0  0  0  0
    0.8542    1.4958    0.0000 N   0  0  3  0  0  0  0  0  0  0  0  0
    1.1125    0.7083    0.0000 C   0  0  0  0  0  0  0  0  0  0  0  0
    0.5542    0.0958    0.0000 N   0  0  0  0  0  0  0  0  0  0  0  0
    0.0417    1.6625    0.0000 C   0  0  0  0  0  0  0  0  0  0  0  0
   -0.9125   -0.2167    0.0000 S   0  0  0  0  0  0  0  0  0  0  0  0
   -1.3250    1.0500    0.0000 C   0  0  0  0  0  0  0  0  0  0  0  0
   -1.5833    0.2625    0.0000 C   0  0  0  0  0  0  0  0  0  0  0  0
    1.9167    0.5458    0.0000 S   0  0  0  0  0  0  0  0  0  0  0  0
    2.9792   -0.4125    0.0000 C   0  0  0  0  0  0  0  0  0  0  0  0
    1.4042    2.1125    0.0000 C   0  0  0  0  0  0  0  0  0  0  0  0
   -0.2125    2.4583    0.0000 O   0  0  0  0  0  0  0  0  0  0  0  0
    3.5292    0.2000    0.0000 N   0  0  3  0  0  0  0  0  0  0  0  0
    2.1750   -0.2417    0.0000 C   0  0  0  0  0  0  0  0  0  0  0  0
    3.2417   -1.1917    0.0000 O   0  0  0  0  0  0  0  0  0  0  0  0
   -1.8125    1.7208    0.0000 C   0  0  0  0  0  0  0  0  0  0  0  0
   -2.3708    0.0083    0.0000 C   0  0  0  0  0  0  0  0  0  0  0  0
    3.5667    2.3833    0.0000 O   0  0  0  0  0  0  0  0  0  0  0  0
    5.7000    0.4750    0.0000 O   0  0  0  0  0  0  0  0  0  0  0  0
    4.3417    0.0333    0.0000 C   0  0  0  0  0  0  0  0  0  0  0  0
    3.2792    0.9833    0.0000 C   0  0  0  0  0  0  0  0  0  0  0  0
    2.2125    1.9458    0.0000 C   0  0  0  0  0  0  0  0  0  0  0  0
    1.1417    2.8958    0.0000 C   0  0  0  0  0  0  0  0  0  0  0  0
    4.8917    0.6458    0.0000 C   0  0  0  0  0  0  0  0  0  0  0  0
    3.8292    1.6000    0.0000 C   0  0  0  0  0  0  0  0  0  0  0  0
    1.6917    3.5083    0.0000 C   0  0  0  0  0  0  0  0  0  0  0  0
    2.7625    2.5583    0.0000 C   0  0  0  0  0  0  0  0  0  0  0  0
    2.5042    3.3458    0.0000 C   0  0  0  0  0  0  0  0  0  0  0  0
  2  1  2  0  0  0  0
  3  6  1  0  0  0  0
  4  3  1  0  0  0  0
  5  2  1  0  0  0  0
  6  1  1  0  0  0  0
  7  2  1  0  0  0  0
  8  1  1  0  0  0  0
  9  8  2  0  0  0  0
 10  4  1  0  0  0  0
 11 15  1  0  0  0  0
 12  3  1  0  0  0  0
 13  6  2  0  0  0  0
 14 11  1  0  0  0  0
 15 10  1  0  0  0  0
 16 11  2  0  0  0  0
 17  8  1  0  0  0  0
 18  9  1  0  0  0  0
 19 26  1  0  0  0  0
 20 25  1  0  0  0  0
 21 14  1  0  0  0  0
 22 14  1  0  0  0  0
 23 12  2  0  0  0  0
 24 12  1  0  0  0  0
 25 21  1  0  0  0  0
 26 22  1  0  0  0  0
 27 24  2  0  0  0  0
 28 23  1  0  0  0  0
 29 27  1  0  0  0  0
  9  7  1  0  0  0  0
  5  4  2  0  0  0  0
 28 29  2  0  0  0  0
M  END
> <IDNUMBER>
F1198-0001

> <Chemical_Name>
2-({5,6-dimethyl-4-oxo-3-phenyl-3H,4H-thieno[2,3-d]pyrimidin-2-yl}sulfanyl)-N,N-bis(2-hydroxyethyl)acetamide

> <CAS>
457952-22-6

> <PriceCoeff>
1.00

> <MW>
433.54

> <Description>
solid

> <FSP3>
0.35

> <clogP>
3.10

> <TPSA>
146.98

> <Acceptor>
5

> <Donor>
2

> <RotBonds>
9

> <HAC>
29

> <Collection>
General

> <Reference_compound>
CHEMBL577016

> <Similarity>
0.8180

$$$$
F5017-2080
  -ISIS-  06222321462D

 30 32  0  0  0  0  0  0  0  0999 V2000
   -4.5833    3.8000    0.0000 S   0  0  3  0  0  0  0  0  0  0  0  0
   -6.7167    3.3583    0.0000 N   0  0  3  0  0  0  0  0  0  0  0  0
   -0.9958    6.7000    0.0000 C   0  0  0  0  0  0  0  0  0  0  0  0
   -1.7125    6.2792    0.0000 N   0  0  3  0  0  0  0  0  0  0  0  0
   -7.4417    3.7583    0.0000 C   0  0  0  0  0  0  0  0  0  0  0  0
   -6.7042    2.5208    0.0000 C   0  0  0  0  0  0  0  0  0  0  0  0
   -5.2875    3.3833    0.0000 C   0  0  0  0  0  0  0  0  0  0  0  0
   -6.0042    3.7833    0.0000 C   0  0  0  0  0  0  0  0  0  0  0  0
   -0.2750    6.2917    0.0000 O   0  0  0  0  0  0  0  0  0  0  0  0
   -3.8625    4.2125    0.0000 N   0  0  0  0  0  0  0  0  0  0  0  0
   -4.1583    3.1083    0.0000 O   0  0  0  0  0  0  0  0  0  0  0  0
   -5.0083    4.5042    0.0000 O   0  0  0  0  0  0  0  0  0  0  0  0
   -1.0000    7.5250    0.0000 O   0  0  0  0  0  0  0  0  0  0  0  0
   -2.4208    6.6917    0.0000 C   0  0  0  0  0  0  0  0  0  0  0  0
   -1.7083    5.4542    0.0000 C   0  0  0  0  0  0  0  0  0  0  0  0
   -7.4667    4.5792    0.0000 O   0  0  0  0  0  0  0  0  0  0  0  0
   -5.9833    2.1208    0.0000 O   0  0  0  0  0  0  0  0  0  0  0  0
    0.4417    6.7042    0.0000 C   0  0  0  0  0  0  0  0  0  0  0  0
   -3.8625    5.0292    0.0000 C   0  0  0  0  0  0  0  0  0  0  0  0
   -2.4250    5.0417    0.0000 C   0  0  0  0  0  0  0  0  0  0  0  0
   -3.1375    6.2750    0.0000 C   0  0  0  0  0  0  0  0  0  0  0  0
   -3.1458    5.4500    0.0000 C   0  0  3  0  0  0  0  0  0  0  0  0
   -7.4042    2.0958    0.0000 C   0  0  0  0  0  0  0  0  0  0  0  0
   -8.1542    3.3208    0.0000 C   0  0  0  0  0  0  0  0  0  0  0  0
   -8.1292    2.4875    0.0000 C   0  0  0  0  0  0  0  0  0  0  0  0
    0.4417    7.5292    0.0000 C   0  0  0  0  0  0  0  0  0  0  0  0
    1.1625    6.2917    0.0000 C   0  0  0  0  0  0  0  0  0  0  0  0
    1.8792    6.7042    0.0000 C   0  0  0  0  0  0  0  0  0  0  0  0
    1.1542    7.9500    0.0000 C   0  0  0  0  0  0  0  0  0  0  0  0
    1.8667    7.5292    0.0000 C   0  0  0  0  0  0  0  0  0  0  0  0
  2  8  1  0  0  0  0
  3  4  1  0  0  0  0
  4 14  1  0  0  0  0
  5  2  1  0  0  0  0
  6  2  1  0  0  0  0
  7  1  1  0  0  0  0
  8  7  1  0  0  0  0
  9  3  1  0  0  0  0
 10  1  1  0  0  0  0
 11  1  2  0  0  0  0
 12  1  2  0  0  0  0
 13  3  2  0  0  0  0
 14 21  1  0  0  0  0
 15 20  1  0  0  0  0
 16  5  2  0  0  0  0
 17  6  2  0  0  0  0
 18  9  1  0  0  0  0
 19 10  1  0  0  0  0
 20 22  1  0  0  0  0
 21 22  1  0  0  0  0
 22 19  1  0  0  0  0
 23  6  1  0  0  0  0
 24  5  1  0  0  0  0
 25 23  1  0  0  0  0
 26 18  1  0  0  0  0
 27 18  2  0  0  0  0
 28 27  1  0  0  0  0
 29 26  2  0  0  0  0
 30 28  2  0  0  0  0
 15  4  1  0  0  0  0
 24 25  1  0  0  0  0
 30 29  1  0  0  0  0
M  END
> <IDNUMBER>
F5017-2080

> <Chemical_Name>
phenyl 4-{[2-(2,6-dioxopiperidin-1-yl)ethanesulfonamido]methyl}piperidine-1-carboxylate

> <CAS>
1235321-83-1

> <PriceCoeff>
1.00

> <MW>
437.51

> <Description>
oil

> <FSP3>
0.55

> <clogP>
1.45

> <TPSA>
121.47

> <Acceptor>
6

> <Donor>
1

> <RotBonds>
9

> <HAC>
30

> <Collection>
General

$$$$
F1558-0186
  -ISIS-  06222321142D

 16 18  0  0  0  0  0  0  0  0999 V2000
   -1.1500    0.6250    0.0000 C   0  0  0  0  0  0  0  0  0  0  0  0
   -1.6708    1.3458    0.0000 N   0  0  0  0  0  0  0  0  0  0  0  0
   -1.6708   -0.0917    0.0000 N   0  0  0  0  0  0  0  0  0  0  0  0
   -2.5208    1.0708    0.0000 C   0  0  0  0  0  0  0  0  0  0  0  0
   -2.5208    0.1708    0.0000 C   0  0  0  0  0  0  0  0  0  0  0  0
   -0.2708    0.6250    0.0000 C   0  0  0  0  0  0  0  0  0  0  0  0
    0.1667    1.3958    0.0000 C   0  0  0  0  0  0  0  0  0  0  0  0
    0.1667   -0.1417    0.0000 C   0  0  0  0  0  0  0  0  0  0  0  0
    1.0375    1.3958    0.0000 C   0  0  0  0  0  0  0  0  0  0  0  0
    1.0500   -0.1417    0.0000 C   0  0  0  0  0  0  0  0  0  0  0  0
    1.4875    0.6250    0.0000 C   0  0  0  0  0  0  0  0  0  0  0  0
   -3.2875    1.5125    0.0000 C   0  0  0  0  0  0  0  0  0  0  0  0
   -3.2875   -0.2667    0.0000 C   0  0  0  0  0  0  0  0  0  0  0  0
    2.3667    0.6333    0.0000 C   0  0  0  0  0  0  0  0  0  0  0  0
   -4.0500    0.1708    0.0000 C   0  0  0  0  0  0  0  0  0  0  0  0
   -4.0500    1.0625    0.0000 C   0  0  0  0  0  0  0  0  0  0  0  0
  2  1  2  0  0  0  0
  3  1  1  0  0  0  0
  4  2  1  0  0  0  0
  5  3  1  0  0  0  0
  6  1  1  0  0  0  0
  7  6  1  0  0  0  0
  8  6  2  0  0  0  0
  9  7  2  0  0  0  0
 10  8  1  0  0  0  0
 11 10  2  0  0  0  0
 12  4  2  0  0  0  0
 13  5  2  0  0  0  0
 14 11  1  0  0  0  0
 15 13  1  0  0  0  0
 16 12  1  0  0  0  0
  4  5  1  0  0  0  0
  9 11  1  0  0  0  0
 16 15  2  0  0  0  0
M  END
> <IDNUMBER>
F1558-0186

> <Chemical_Name>
2-(4-methylphenyl)-1H-1,3-benzodiazole

> <CAS>
120-03-6

> <PriceCoeff>
1.00

> <MW>
208.26

> <Description>
solid

> <FSP3>
0.07

> <clogP>
4.16

> <TPSA>
28.68

> <Acceptor>
2

> <Donor>
2

> <RotBonds>
1

> <HAC>
16

> <Collection>
General

> <Reference_compound>
CHEMBL379376

> <Similarity>
0.8210

$$$$
F2018-4543
  -ISIS-  06222304352D

 32 34  0  0  0  0  0  0  0  0999 V2000
   -3.1583    2.9833    0.0000 C   0  0  0  0  0  0  0  0  0  0  0  0
   -0.2958    2.9833    0.0000 N   0  0  3  0  0  0  0  0  0  0  0  0
   -3.9125    2.6458    0.0000 N   0  0  0  0  0  0  0  0  0  0  0  0
   -2.4375    2.5625    0.0000 N   0  0  3  0  0  0  0  0  0  0  0  0
   -3.2458    3.8083    0.0000 S   0  0  0  0  0  0  0  0  0  0  0  0
   -1.7250    2.9833    0.0000 C   0  0  0  0  0  0  0  0  0  0  0  0
   -4.4708    3.2583    0.0000 C   0  0  0  0  0  0  0  0  0  0  0  0
   -1.0125    2.5625    0.0000 C   0  0  0  0  0  0  0  0  0  0  0  0
   -4.0583    3.9708    0.0000 C   0  0  0  0  0  0  0  0  0  0  0  0
   -0.2125    3.8000    0.0000 C   0  0  0  0  0  0  0  0  0  0  0  0
    0.4542    2.6458    0.0000 C   0  0  0  0  0  0  0  0  0  0  0  0
   -5.2833    3.2583    0.0000 C   0  0  0  0  0  0  0  0  0  0  0  0
   -4.4708    4.6667    0.0000 C   0  0  0  0  0  0  0  0  0  0  0  0
   -5.6958    3.9625    0.0000 C   0  0  0  0  0  0  0  0  0  0  0  0
   -5.2875    4.6792    0.0000 C   0  0  0  0  0  0  0  0  0  0  0  0
   -2.4375    1.7375    0.0000 C   0  0  0  0  0  0  0  0  0  0  0  0
   -1.7250    3.8000    0.0000 O   0  0  0  0  0  0  0  0  0  0  0  0
   -5.7083    5.3875    0.0000 O   0  0  0  0  0  0  0  0  0  0  0  0
   -6.5167    3.9583    0.0000 O   0  0  0  0  0  0  0  0  0  0  0  0
    0.5917    3.9708    0.0000 C   0  0  0  0  0  0  0  0  0  0  0  0
    1.0125    3.2583    0.0000 C   0  0  0  0  0  0  0  0  0  0  0  0
   -0.8125    4.3417    0.0000 O   0  0  0  0  0  0  0  0  0  0  0  0
    0.6292    1.8333    0.0000 O   0  0  0  0  0  0  0  0  0  0  0  0
   -3.1583    1.3250    0.0000 C   0  0  0  0  0  0  0  0  0  0  0  0
   -3.1583    0.5000    0.0000 N   0  0  3  0  0  0  0  0  0  0  0  0
   -6.9375    4.6667    0.0000 C   0  0  0  0  0  0  0  0  0  0  0  0
   -6.5292    5.3875    0.0000 C   0  0  0  0  0  0  0  0  0  0  0  0
   -2.4375    0.0875    0.0000 C   0  0  0  0  0  0  0  0  0  0  0  0
   -3.8708    0.0875    0.0000 C   0  0  0  0  0  0  0  0  0  0  0  0
   -2.4375   -0.7375    0.0000 C   0  0  0  0  0  0  0  0  0  0  0  0
   -4.5833    0.5000    0.0000 C   0  0  0  0  0  0  0  0  0  0  0  0
    2.4000    2.4750    0.0000 Cl  0  0  0  0  0  0  0  0  0  0  0  0
  3  1  2  0  0  0  0
  4  1  1  0  0  0  0
  5  1  1  0  0  0  0
  6  4  1  0  0  0  0
  7  3  1  0  0  0  0
  8  6  1  0  0  0  0
  9  5  1  0  0  0  0
 10  2  1  0  0  0  0
 11  2  1  0  0  0  0
 12  7  1  0  0  0  0
 13  9  1  0  0  0  0
 14 12  2  0  0  0  0
 15 13  2  0  0  0  0
 16  4  1  0  0  0  0
 17  6  2  0  0  0  0
 18 15  1  0  0  0  0
 19 14  1  0  0  0  0
 20 10  1  0  0  0  0
 21 11  1  0  0  0  0
 22 10  2  0  0  0  0
 23 11  2  0  0  0  0
 24 16  1  0  0  0  0
 25 24  1  0  0  0  0
 26 19  1  0  0  0  0
 27 18  1  0  0  0  0
 28 25  1  0  0  0  0
 29 25  1  0  0  0  0
 30 28  1  0  0  0  0
 31 29  1  0  0  0  0
  9  7  2  0  0  0  0
 15 14  1  0  0  0  0
 26 27  1  0  0  0  0
 20 21  1  0  0  0  0
  2  8  1  0  0  0  0
M  END
> <IDNUMBER>
F2018-4543

> <Chemical_Name>
N-[2-(diethylamino)ethyl]-N-{10,13-dioxa-4-thia-6-azatricyclo[7.4.0.0^{3,7}]trideca-1,3(7),5,8-tetraen-5-yl}-2-(2,5-dioxopyrrolidin-1-yl)acetamide hydrochloride

> <CAS>
1216476-32-2

> <PriceCoeff>
1.00

> <MW>
446.52

> <Description>
solid

> <FSP3>
0.52

> <clogP>
2.87

> <TPSA>
120.52

> <Acceptor>
6

> <Donor>
1

> <RotBonds>
9

> <HAC>
31

> <Collection>
General

$$$$
F0049-0055
  -ISIS-  06222321452D

 24 25  0  0  0  0  0  0  0  0999 V2000
    0.4000    0.2500    0.0000 S   0  0  3  0  0  0  0  0  0  0  0  0
   -0.3625    2.4125    0.0000 C   0  0  0  0  0  0  0  0  0  0  0  0
   -1.1208    2.8708    0.0000 N   0  3  0  0  0  0  0  0  0  0  0  0
   -0.3625    1.5333    0.0000 C   0  0  0  0  0  0  0  0  0  0  0  0
    0.4000    1.1125    0.0000 C   0  0  0  0  0  0  0  0  0  0  0  0
    0.4000   -0.6292    0.0000 N   0  0  0  0  0  0  0  0  0  0  0  0
    2.6000   -1.9292    0.0000 N   0  0  0  0  0  0  0  0  0  0  0  0
    2.6167   -1.0667    0.0000 C   0  0  3  0  0  0  0  0  0  0  0  0
    1.8542   -2.3292    0.0000 C   0  0  3  0  0  0  0  0  0  0  0  0
    1.1375   -1.0500    0.0000 C   0  0  3  0  0  0  0  0  0  0  0  0
    1.2542    0.2500    0.0000 O   0  0  0  0  0  0  0  0  0  0  0  0
   -0.4833    0.2500    0.0000 O   0  0  0  0  0  0  0  0  0  0  0  0
    0.4000    2.8333    0.0000 C   0  0  0  0  0  0  0  0  0  0  0  0
   -1.8833    2.4583    0.0000 O   0  5  0  0  0  0  0  0  0  0  0  0
   -1.1208    3.7125    0.0000 O   0  0  0  0  0  0  0  0  0  0  0  0
    1.1167   -1.9042    0.0000 C   0  0  0  0  0  0  0  0  0  0  0  0
    1.8792   -0.6292    0.0000 C   0  0  0  0  0  0  0  0  0  0  0  0
    1.1375    1.5333    0.0000 C   0  0  0  0  0  0  0  0  0  0  0  0
    1.1375    2.3958    0.0000 C   0  0  0  0  0  0  0  0  0  0  0  0
    0.4000    3.6958    0.0000 Cl  0  0  0  0  0  0  0  0  0  0  0  0
    2.7542   -0.2292    0.0000 C   0  0  0  0  0  0  0  0  0  0  0  0
    3.4792   -1.0667    0.0000 C   0  0  0  0  0  0  0  0  0  0  0  0
    1.7000   -3.1875    0.0000 C   0  0  0  0  0  0  0  0  0  0  0  0
    2.2792   -3.0875    0.0000 C   0  0  0  0  0  0  0  0  0  0  0  0
  2  4  1  0  0  0  0
  3  2  1  0  0  0  0
  4  5  2  0  0  0  0
  5  1  1  0  0  0  0
  6  1  1  0  0  0  0
  7  8  1  0  0  0  0
  8 17  1  0  0  0  0
  9 16  1  0  0  0  0
 10  6  1  0  0  0  0
 11  1  2  0  0  0  0
 12  1  2  0  0  0  0
 13 19  1  0  0  0  0
 14  3  1  0  0  0  0
 15  3  2  0  0  0  0
 16 10  1  0  0  0  0
 17 10  1  0  0  0  0
 18  5  1  0  0  0  0
 19 18  2  0  0  0  0
 20 13  1  0  0  0  0
 21  8  1  0  0  0  0
 22  8  1  0  0  0  0
 23  9  1  0  0  0  0
 24  9  1  0  0  0  0
  7  9  1  0  0  0  0
  2 13  2  0  0  0  0
M  CHG  2   3   1  14  -1
M  END
> <IDNUMBER>
F0049-0055

> <Chemical_Name>
4-chloro-3-nitro-N-(2,2,6,6-tetramethylpiperidin-4-yl)benzene-1-sulfonamide

> <CAS>
403846-53-7

> <PriceCoeff>
1.00

> <MW>
375.87

> <Description>
solid

> <FSP3>
0.60

> <clogP>
3.67

> <TPSA>
109.72

> <Acceptor>
4

> <Donor>
2

> <RotBonds>
4

> <HAC>
24

> <Collection>
General

$$$$
F1815-1184
  -ISIS-  06222321452D

 26 28  0  0  0  0  0  0  0  0999 V2000
   -4.5958    2.5625    0.0000 C   0  0  0  0  0  0  0  0  0  0  0  0
   -3.1583    5.0292    0.0000 N   0  0  3  0  0  0  0  0  0  0  0  0
   -4.6875    1.7458    0.0000 N   0  0  3  0  0  0  0  0  0  0  0  0
   -3.8625    2.9833    0.0000 N   0  0  0  0  0  0  0  0  0  0  0  0
   -5.3208    2.9000    0.0000 S   0  0  0  0  0  0  0  0  0  0  0  0
   -5.4833    1.5875    0.0000 C   0  0  0  0  0  0  0  0  0  0  0  0
   -5.8833    2.3083    0.0000 C   0  0  0  0  0  0  0  0  0  0  0  0
   -2.4875    5.5042    0.0000 C   0  0  0  0  0  0  0  0  0  0  0  0
   -3.8208    5.5125    0.0000 C   0  0  0  0  0  0  0  0  0  0  0  0
   -3.8708    3.8000    0.0000 C   0  0  0  0  0  0  0  0  0  0  0  0
   -3.1583    4.2042    0.0000 C   0  0  0  0  0  0  0  0  0  0  0  0
   -5.9083    0.8833    0.0000 C   0  0  0  0  0  0  0  0  0  0  0  0
   -3.5625    6.2917    0.0000 C   0  0  0  0  0  0  0  0  0  0  0  0
   -2.7375    6.3000    0.0000 C   0  0  0  0  0  0  0  0  0  0  0  0
   -4.6000    5.2667    0.0000 O   0  0  0  0  0  0  0  0  0  0  0  0
   -1.7083    5.2500    0.0000 O   0  0  0  0  0  0  0  0  0  0  0  0
   -4.5833    4.2167    0.0000 O   0  0  0  0  0  0  0  0  0  0  0  0
   -4.0708    1.1708    0.0000 C   0  0  0  0  0  0  0  0  0  0  0  0
   -4.2583    0.3708    0.0000 C   0  0  0  0  0  0  0  0  0  0  0  0
   -3.6500   -0.2000    0.0000 C   0  0  0  0  0  0  0  0  0  0  0  0
   -6.7000    2.3333    0.0000 C   0  0  0  0  0  0  0  0  0  0  0  0
   -5.5208    0.1583    0.0000 O   0  0  0  0  0  0  0  0  0  0  0  0
   -7.1292    1.6208    0.0000 C   0  0  0  0  0  0  0  0  0  0  0  0
   -6.7167    0.9000    0.0000 C   0  0  0  0  0  0  0  0  0  0  0  0
   -5.9458   -0.5417    0.0000 C   0  0  0  0  0  0  0  0  0  0  0  0
   -5.5708   -1.2542    0.0000 C   0  0  0  0  0  0  0  0  0  0  0  0
  2 11  1  0  0  0  0
  3  1  1  0  0  0  0
  4  1  2  0  0  0  0
  5  1  1  0  0  0  0
  6  3  1  0  0  0  0
  7  5  1  0  0  0  0
  8  2  1  0  0  0  0
  9  2  1  0  0  0  0
 10  4  1  0  0  0  0
 11 10  1  0  0  0  0
 12  6  1  0  0  0  0
 13  9  1  0  0  0  0
 14  8  1  0  0  0  0
 15  9  2  0  0  0  0
 16  8  2  0  0  0  0
 17 10  2  0  0  0  0
 18  3  1  0  0  0  0
 19 18  1  0  0  0  0
 20 19  2  0  0  0  0
 21  7  1  0  0  0  0
 22 12  1  0  0  0  0
 23 21  2  0  0  0  0
 24 12  2  0  0  0  0
 25 22  1  0  0  0  0
 26 25  1  0  0  0  0
  6  7  2  0  0  0  0
 23 24  1  0  0  0  0
 14 13  1  0  0  0  0
M  END
> <IDNUMBER>
F1815-1184

> <Chemical_Name>
2-(2,5-dioxopyrrolidin-1-yl)-N-[(2Z)-4-ethoxy-3-(prop-2-en-1-yl)-2,3-dihydro-1,3-benzothiazol-2-ylidene]acetamide

> <CAS>
868376-69-6

> <PriceCoeff>
1.00

> <MW>
373.43

> <Description>
solid

> <FSP3>
0.33

> <clogP>
4.00

> <TPSA>
104.58

> <Acceptor>
4

> <Donor>
0

> <RotBonds>
7

> <HAC>
26

> <Collection>
General

$$$$
F1365-1692
  -ISIS-  06222321142D

 26 28  0  0  0  0  0  0  0  0999 V2000
   -1.1625    2.3833    0.0000 C   0  0  0  0  0  0  0  0  0  0  0  0
    1.3167    3.8083    0.0000 N   0  0  3  0  0  0  0  0  0  0  0  0
   -1.6458    1.7208    0.0000 N   0  0  3  0  0  0  0  0  0  0  0  0
   -0.3375    2.3750    0.0000 N   0  0  0  0  0  0  0  0  0  0  0  0
   -1.6458    3.0500    0.0000 S   0  0  0  0  0  0  0  0  0  0  0  0
   -2.4333    2.7958    0.0000 C   0  0  0  0  0  0  0  0  0  0  0  0
   -2.4333    1.9708    0.0000 C   0  0  0  0  0  0  0  0  0  0  0  0
    2.1292    3.8833    0.0000 C   0  0  0  0  0  0  0  0  0  0  0  0
    0.9792    4.5417    0.0000 C   0  0  0  0  0  0  0  0  0  0  0  0
    0.0750    3.0875    0.0000 C   0  0  0  0  0  0  0  0  0  0  0  0
    0.9000    3.0875    0.0000 C   0  0  0  0  0  0  0  0  0  0  0  0
   -3.1458    3.2083    0.0000 C   0  0  0  0  0  0  0  0  0  0  0  0
   -3.1458    1.5583    0.0000 C   0  0  0  0  0  0  0  0  0  0  0  0
    1.5917    5.0917    0.0000 C   0  0  0  0  0  0  0  0  0  0  0  0
    2.3125    4.6917    0.0000 C   0  0  0  0  0  0  0  0  0  0  0  0
    0.1792    4.7292    0.0000 O   0  0  0  0  0  0  0  0  0  0  0  0
    2.6875    3.2708    0.0000 O   0  0  0  0  0  0  0  0  0  0  0  0
   -0.3375    3.8000    0.0000 O   0  0  0  0  0  0  0  0  0  0  0  0
   -1.9458    0.3208    0.0000 C   0  0  0  0  0  0  0  0  0  0  0  0
   -1.3958    0.9333    0.0000 C   0  0  0  0  0  0  0  0  0  0  0  0
   -3.8583    2.7958    0.0000 C   0  0  0  0  0  0  0  0  0  0  0  0
   -2.7500    0.4875    0.0000 C   0  0  0  0  0  0  0  0  0  0  0  0
   -3.8583    1.9708    0.0000 C   0  0  0  0  0  0  0  0  0  0  0  0
   -4.5833    3.2125    0.0000 O   0  0  0  0  0  0  0  0  0  0  0  0
   -5.2958    2.8000    0.0000 C   0  0  0  0  0  0  0  0  0  0  0  0
   -5.2958    1.9750    0.0000 C   0  0  0  0  0  0  0  0  0  0  0  0
  2 11  1  0  0  0  0
  3  1  1  0  0  0  0
  4  1  2  0  0  0  0
  5  1  1  0  0  0  0
  6  5  1  0  0  0  0
  7  3  1  0  0  0  0
  8  2  1  0  0  0  0
  9  2  1  0  0  0  0
 10  4  1  0  0  0  0
 11 10  1  0  0  0  0
 12  6  1  0  0  0  0
 13  7  1  0  0  0  0
 14  9  1  0  0  0  0
 15  8  1  0  0  0  0
 16  9  2  0  0  0  0
 17  8  2  0  0  0  0
 18 10  2  0  0  0  0
 19 20  1  0  0  0  0
 20  3  1  0  0  0  0
 21 12  2  0  0  0  0
 22 19  2  0  0  0  0
 23 13  2  0  0  0  0
 24 21  1  0  0  0  0
 25 24  1  0  0  0  0
 26 25  1  0  0  0  0
  7  6  2  0  0  0  0
 23 21  1  0  0  0  0
 15 14  1  0  0  0  0
M  END
> <IDNUMBER>
F1365-1692

> <Chemical_Name>
2-(2,5-dioxopyrrolidin-1-yl)-N-[(2Z)-6-ethoxy-3-(prop-2-en-1-yl)-2,3-dihydro-1,3-benzothiazol-2-ylidene]acetamide

> <CAS>
865180-79-6

> <PriceCoeff>
1.00

> <MW>
373.43

> <Description>
solid

> <FSP3>
0.33

> <clogP>
4.00

> <TPSA>
104.58

> <Acceptor>
4

> <Donor>
0

> <RotBonds>
7

> <HAC>
26

> <Collection>
General

$$$$
F0817-0238
  -ISIS-  06222321142D

 31 35  0  0  0  0  0  0  0  0999 V2000
    2.3542    0.0333    0.0000 N   0  0  3  0  0  0  0  0  0  0  0  0
   -4.6333   -0.5000    0.0000 N   0  0  0  0  0  0  0  0  0  0  0  0
   -4.2708    0.2708    0.0000 C   0  0  0  0  0  0  0  0  0  0  0  0
   -4.8958    0.8333    0.0000 O   0  0  0  0  0  0  0  0  0  0  0  0
    1.7500    0.6125    0.0000 C   0  0  0  0  0  0  0  0  0  0  0  0
    2.2792   -0.8000    0.0000 C   0  0  0  0  0  0  0  0  0  0  0  0
    3.1792    0.1625    0.0000 C   0  0  0  0  0  0  0  0  0  0  0  0
   -0.4708    0.7000    0.0000 C   0  0  0  0  0  0  0  0  0  0  0  0
   -5.4708   -0.3875    0.0000 C   0  0  0  0  0  0  0  0  0  0  0  0
   -5.6125    0.4500    0.0000 C   0  0  0  0  0  0  0  0  0  0  0  0
   -1.0708    1.2708    0.0000 N   0  0  0  0  0  0  0  0  0  0  0  0
    0.9375    0.3625    0.0000 C   0  0  0  0  0  0  0  0  0  0  0  0
    0.3292    0.9458    0.0000 C   0  0  0  0  0  0  0  0  0  0  0  0
   -3.4500    0.5500    0.0000 C   0  0  0  0  0  0  0  0  0  0  0  0
   -0.6708   -0.1042    0.0000 O   0  0  0  0  0  0  0  0  0  0  0  0
    3.5792   -0.5542    0.0000 C   0  0  0  0  0  0  0  0  0  0  0  0
    3.0042   -1.1500    0.0000 C   0  0  0  0  0  0  0  0  0  0  0  0
    3.5792    0.9458    0.0000 O   0  0  0  0  0  0  0  0  0  0  0  0
    1.5167   -1.2500    0.0000 O   0  0  0  0  0  0  0  0  0  0  0  0
   -2.8458   -0.0292    0.0000 C   0  0  0  0  0  0  0  0  0  0  0  0
   -3.2833    1.3625    0.0000 C   0  0  0  0  0  0  0  0  0  0  0  0
   -1.8625    1.0458    0.0000 C   0  0  0  0  0  0  0  0  0  0  0  0
   -2.0333    0.2333    0.0000 C   0  0  0  0  0  0  0  0  0  0  0  0
   -2.4708    1.6208    0.0000 C   0  0  0  0  0  0  0  0  0  0  0  0
    1.9500    1.4208    0.0000 C   0  0  0  0  0  0  0  0  0  0  0  0
    0.5167    1.7458    0.0000 C   0  0  0  0  0  0  0  0  0  0  0  0
    1.3292    1.9833    0.0000 C   0  0  0  0  0  0  0  0  0  0  0  0
   -6.0917   -0.9500    0.0000 C   0  0  0  0  0  0  0  0  0  0  0  0
   -6.4042    0.7208    0.0000 C   0  0  0  0  0  0  0  0  0  0  0  0
   -7.0542    0.2000    0.0000 C   0  0  0  0  0  0  0  0  0  0  0  0
   -6.9167   -0.6500    0.0000 C   0  0  0  0  0  0  0  0  0  0  0  0
  2  3  2  0  0  0  0
  3 14  1  0  0  0  0
  4  3  1  0  0  0  0
  5  1  1  0  0  0  0
  6  1  1  0  0  0  0
  7  1  1  0  0  0  0
  8 13  1  0  0  0  0
  9  2  1  0  0  0  0
 10  4  1  0  0  0  0
 11  8  1  0  0  0  0
 12  5  1  0  0  0  0
 13 12  2  0  0  0  0
 14 21  2  0  0  0  0
 15  8  2  0  0  0  0
 16  7  1  0  0  0  0
 17  6  1  0  0  0  0
 18  7  2  0  0  0  0
 19  6  2  0  0  0  0
 20 23  2  0  0  0  0
 21 24  1  0  0  0  0
 22 11  1  0  0  0  0
 23 22  1  0  0  0  0
 24 22  2  0  0  0  0
 25  5  2  0  0  0  0
 26 27  2  0  0  0  0
 27 25  1  0  0  0  0
 28  9  1  0  0  0  0
 29 10  1  0  0  0  0
 30 29  2  0  0  0  0
 31 28  2  0  0  0  0
 17 16  1  0  0  0  0
 13 26  1  0  0  0  0
 14 20  1  0  0  0  0
 10  9  2  0  0  0  0
 30 31  1  0  0  0  0
M  END
> <IDNUMBER>
F0817-0238

> <Chemical_Name>
N-[4-(1,3-benzoxazol-2-yl)phenyl]-3-(2,5-dioxopyrrolidin-1-yl)benzamide

> <CAS>
404841-55-0

> <PriceCoeff>
1.00

> <MW>
411.41

> <Description>
solid

> <FSP3>
0.08

> <clogP>
2.33

> <TPSA>
92.51

> <Acceptor>
5

> <Donor>
1

> <RotBonds>
4

> <HAC>
31

> <Collection>
General

$$$$
F3115-0077
  -ISIS-  06222321152D

 25 27  0  0  0  0  0  0  0  0999 V2000
    4.7917   -6.6042    0.0000 N   0  0  3  0  0  0  0  0  0  0  0  0
    5.2792   -5.9375    0.0000 C   0  0  0  0  0  0  0  0  0  0  0  0
    5.2875   -7.2750    0.0000 C   0  0  0  0  0  0  0  0  0  0  0  0
    6.0667   -7.0167    0.0000 C   0  0  3  0  0  0  0  0  0  0  0  0
    6.0667   -6.1875    0.0000 C   0  0  0  0  0  0  0  0  0  0  0  0
    6.7375   -7.4917    0.0000 N   0  0  0  0  0  0  0  0  0  0  0  0
    8.1542   -7.6375    0.0000 C   0  0  0  0  0  0  0  0  0  0  0  0
    7.4917   -7.1542    0.0000 N   0  0  0  0  0  0  0  0  0  0  0  0
    3.9667   -6.6125    0.0000 C   0  0  0  0  0  0  0  0  0  0  0  0
    5.0167   -5.1542    0.0000 O   0  0  0  0  0  0  0  0  0  0  0  0
    5.0292   -8.0542    0.0000 O   0  0  0  0  0  0  0  0  0  0  0  0
    8.0792   -8.4542    0.0000 O   0  0  0  0  0  0  0  0  0  0  0  0
    8.9125   -7.3000    0.0000 C   0  0  0  0  0  0  0  0  0  0  0  0
    3.5542   -5.9000    0.0000 C   0  0  0  0  0  0  0  0  0  0  0  0
    3.5667   -7.3292    0.0000 C   0  0  0  0  0  0  0  0  0  0  0  0
    2.3167   -6.6167    0.0000 C   0  0  0  0  0  0  0  0  0  0  0  0
    2.7417   -7.3292    0.0000 C   0  0  0  0  0  0  0  0  0  0  0  0
    2.7292   -5.9042    0.0000 C   0  0  0  0  0  0  0  0  0  0  0  0
    1.5000   -6.6250    0.0000 O   0  0  0  0  0  0  0  0  0  0  0  0
    9.5792   -7.7792    0.0000 C   0  0  0  0  0  0  0  0  0  0  0  0
    8.9875   -6.4792    0.0000 C   0  0  0  0  0  0  0  0  0  0  0  0
    1.0792   -5.9125    0.0000 C   0  0  0  0  0  0  0  0  0  0  0  0
   10.3292   -7.4417    0.0000 C   0  0  0  0  0  0  0  0  0  0  0  0
    9.7375   -6.1417    0.0000 C   0  0  0  0  0  0  0  0  0  0  0  0
   10.4125   -6.6250    0.0000 C   0  0  0  0  0  0  0  0  0  0  0  0
  2  1  1  0  0  0  0
  3  1  1  0  0  0  0
  4  3  1  0  0  0  0
  5  2  1  0  0  0  0
  6  4  1  0  0  0  0
  7  8  1  0  0  0  0
  8  6  1  0  0  0  0
  9  1  1  0  0  0  0
 10  2  2  0  0  0  0
 11  3  2  0  0  0  0
 12  7  2  0  0  0  0
 13  7  1  0  0  0  0
 14  9  2  0  0  0  0
 15  9  1  0  0  0  0
 16 17  1  0  0  0  0
 17 15  2  0  0  0  0
 18 14  1  0  0  0  0
 19 16  1  0  0  0  0
 20 13  2  0  0  0  0
 21 13  1  0  0  0  0
 22 19  1  0  0  0  0
 23 20  1  0  0  0  0
 24 21  2  0  0  0  0
 25 24  1  0  0  0  0
  4  5  1  0  0  0  0
 16 18  2  0  0  0  0
 25 23  2  0  0  0  0
M  END
> <IDNUMBER>
F3115-0077

> <Chemical_Name>
N'-[1-(4-methoxyphenyl)-2,5-dioxopyrrolidin-3-yl]benzohydrazide

> <CAS>
360784-29-8

> <PriceCoeff>
1.00

> <MW>
339.35

> <Description>
solid

> <FSP3>
0.17

> <clogP>
1.91

> <TPSA>
87.74

> <Acceptor>
4

> <Donor>
2

> <RotBonds>
5

> <HAC>
25

> <Collection>
General

$$$$
F3375-2581
  -ISIS-  06222321152D

 24 26  0  0  0  0  0  0  0  0999 V2000
    2.1917   -2.7792    0.0000 C   0  0  0  0  0  0  0  0  0  0  0  0
    2.5292   -2.0250    0.0000 C   0  0  0  0  0  0  0  0  0  0  0  0
    1.3917   -2.9542    0.0000 C   0  0  0  0  0  0  0  0  0  0  0  0
   -1.5458   -5.4417    0.0000 N   0  3  0  0  0  0  0  0  0  0  0  0
    1.3042   -3.7792    0.0000 C   0  0  0  0  0  0  0  0  0  0  0  0
    2.6125   -3.5000    0.0000 C   0  0  0  0  0  0  0  0  0  0  0  0
   -0.8333   -5.0250    0.0000 C   0  0  0  0  0  0  0  0  0  0  0  0
    2.0625   -4.1125    0.0000 O   0  0  0  0  0  0  0  0  0  0  0  0
    3.3500   -1.9375    0.0000 N   0  0  3  0  0  0  0  0  0  0  0  0
   -0.8333   -4.1917    0.0000 C   0  0  0  0  0  0  0  0  0  0  0  0
    0.6000   -4.1917    0.0000 C   0  0  0  0  0  0  0  0  0  0  0  0
   -0.1208   -5.4375    0.0000 C   0  0  0  0  0  0  0  0  0  0  0  0
   -0.1208   -3.7792    0.0000 C   0  0  0  0  0  0  0  0  0  0  0  0
   -2.2625   -5.0292    0.0000 O   0  5  0  0  0  0  0  0  0  0  0  0
   -1.5458   -6.2667    0.0000 O   0  0  0  0  0  0  0  0  0  0  0  0
    2.0417   -1.3625    0.0000 O   0  0  0  0  0  0  0  0  0  0  0  0
    0.6000   -5.0250    0.0000 C   0  0  0  0  0  0  0  0  0  0  0  0
    4.9875   -1.7667    0.0000 O   0  0  0  0  0  0  0  0  0  0  0  0
   -1.5458   -3.7792    0.0000 Cl  0  0  0  0  0  0  0  0  0  0  0  0
    3.4292   -3.5792    0.0000 C   0  0  0  0  0  0  0  0  0  0  0  0
    3.8292   -2.6042    0.0000 C   0  0  0  0  0  0  0  0  0  0  0  0
    3.6792   -1.1792    0.0000 C   0  0  0  0  0  0  0  0  0  0  0  0
    4.5000   -1.0917    0.0000 C   0  0  0  0  0  0  0  0  0  0  0  0
    4.6500   -2.5167    0.0000 C   0  0  0  0  0  0  0  0  0  0  0  0
  2  1  1  0  0  0  0
  3  1  1  0  0  0  0
  4  7  1  0  0  0  0
  5  3  2  0  0  0  0
  6  1  2  0  0  0  0
  7 12  1  0  0  0  0
  8  6  1  0  0  0  0
  9  2  1  0  0  0  0
 10 13  1  0  0  0  0
 11  5  1  0  0  0  0
 12 17  2  0  0  0  0
 13 11  2  0  0  0  0
 14  4  1  0  0  0  0
 15  4  2  0  0  0  0
 16  2  2  0  0  0  0
 17 11  1  0  0  0  0
 18 23  1  0  0  0  0
 19 10  1  0  0  0  0
 20  6  1  0  0  0  0
 21  9  1  0  0  0  0
 22  9  1  0  0  0  0
 23 22  1  0  0  0  0
 24 21  1  0  0  0  0
  5  8  1  0  0  0  0
 24 18  1  0  0  0  0
 10  7  2  0  0  0  0
M  CHG  2   4   1  14  -1
M  END
> <IDNUMBER>
F3375-2581

> <Chemical_Name>
4-[5-(3-chloro-4-nitrophenyl)-2-methylfuran-3-carbonyl]morpholine

> <CAS>
874467-05-7

> <PriceCoeff>
1.00

> <MW>
350.75

> <Description>
solid

> <FSP3>
0.31

> <clogP>
2.89

> <TPSA>
85.82

> <Acceptor>
5

> <Donor>
0

> <RotBonds>
4

> <HAC>
24

> <Collection>
General

$$$$
F6274-0445
  -ISIS-  06222321152D

 30 34  0  0  0  0  0  0  0  0999 V2000
    4.4750   -7.9292    0.0000 C   0  0  0  0  0  0  0  0  0  0  0  0
   -1.5458   -8.9167    0.0000 N   0  0  3  0  0  0  0  0  0  0  0  0
    5.2292   -8.2667    0.0000 N   0  0  0  0  0  0  0  0  0  0  0  0
    3.7625   -8.3417    0.0000 N   0  0  3  0  0  0  0  0  0  0  0  0
    4.5625   -7.1042    0.0000 S   0  0  0  0  0  0  0  0  0  0  0  0
   -0.8250   -9.3292    0.0000 C   0  0  0  0  0  0  0  0  0  0  0  0
    5.3792   -6.9375    0.0000 C   0  0  0  0  0  0  0  0  0  0  0  0
   -1.5875   -8.0917    0.0000 C   0  0  0  0  0  0  0  0  0  0  0  0
   -2.3083   -9.2250    0.0000 C   0  0  0  0  0  0  0  0  0  0  0  0
    1.3250   -8.9167    0.0000 C   0  0  0  0  0  0  0  0  0  0  0  0
    5.7875   -7.6542    0.0000 C   0  0  0  0  0  0  0  0  0  0  0  0
    2.7542   -8.9167    0.0000 C   0  0  3  0  0  0  0  0  0  0  0  0
    2.0417   -9.3292    0.0000 O   0  0  0  0  0  0  0  0  0  0  0  0
   -0.1083   -8.9167    0.0000 C   0  0  0  0  0  0  0  0  0  0  0  0
    0.6042   -9.3292    0.0000 C   0  0  0  0  0  0  0  0  0  0  0  0
    2.9667   -8.1292    0.0000 C   0  0  0  0  0  0  0  0  0  0  0  0
    3.5542   -9.1292    0.0000 C   0  0  0  0  0  0  0  0  0  0  0  0
    5.8000   -6.2292    0.0000 C   0  0  0  0  0  0  0  0  0  0  0  0
   -2.4083   -7.8917    0.0000 C   0  0  0  0  0  0  0  0  0  0  0  0
   -2.8458   -8.5917    0.0000 C   0  0  0  0  0  0  0  0  0  0  0  0
    1.3167   -8.0875    0.0000 O   0  0  0  0  0  0  0  0  0  0  0  0
   -2.5250  -10.0167    0.0000 O   0  0  0  0  0  0  0  0  0  0  0  0
   -0.9583   -7.5625    0.0000 O   0  0  0  0  0  0  0  0  0  0  0  0
    6.6125   -7.6625    0.0000 C   0  0  0  0  0  0  0  0  0  0  0  0
    6.6250   -6.2375    0.0000 C   0  0  0  0  0  0  0  0  0  0  0  0
    7.0292   -6.9542    0.0000 C   0  0  0  0  0  0  0  0  0  0  0  0
    7.0417   -5.5250    0.0000 F   0  0  0  0  0  0  0  0  0  0  0  0
   -0.8250  -10.1542    0.0000 C   0  0  0  0  0  0  0  0  0  0  0  0
    0.6042  -10.1542    0.0000 C   0  0  0  0  0  0  0  0  0  0  0  0
   -0.1125  -10.5750    0.0000 C   0  0  0  0  0  0  0  0  0  0  0  0
  2  6  1  0  0  0  0
  3  1  2  0  0  0  0
  4  1  1  0  0  0  0
  5  1  1  0  0  0  0
  6 14  1  0  0  0  0
  7  5  1  0  0  0  0
  8  2  1  0  0  0  0
  9  2  1  0  0  0  0
 10 13  1  0  0  0  0
 11  3  1  0  0  0  0
 12 17  1  0  0  0  0
 13 12  1  0  0  0  0
 14 15  2  0  0  0  0
 15 10  1  0  0  0  0
 16  4  1  0  0  0  0
 17  4  1  0  0  0  0
 18  7  2  0  0  0  0
 19  8  1  0  0  0  0
 20  9  1  0  0  0  0
 21 10  2  0  0  0  0
 22  9  2  0  0  0  0
 23  8  2  0  0  0  0
 24 11  2  0  0  0  0
 25 18  1  0  0  0  0
 26 24  1  0  0  0  0
 27 25  1  0  0  0  0
 28 30  1  0  0  0  0
 29 15  1  0  0  0  0
 30 29  2  0  0  0  0
 12 16  1  0  0  0  0
  7 11  1  0  0  0  0
 25 26  2  0  0  0  0
  6 28  2  0  0  0  0
 20 19  1  0  0  0  0
M  END
> <IDNUMBER>
F6274-0445

> <Chemical_Name>
1-(6-fluoro-1,3-benzothiazol-2-yl)azetidin-3-yl 3-(2,5-dioxopyrrolidin-1-yl)benzoate

> <CAS>
1396759-81-1

> <PriceCoeff>
1.00

> <MW>
425.43

> <Description>
solid

> <FSP3>
0.24

> <clogP>
2.66

> <TPSA>
108.05

> <Acceptor>
5

> <Donor>
1

> <RotBonds>
5

> <HAC>
30

> <Collection>
General

$$$$
F0472-0083
  -ISIS-  06222321142D

 20 22  0  0  0  0  0  0  0  0999 V2000
    5.8000   -3.7167    0.0000 C   0  0  0  0  0  0  0  0  0  0  0  0
    5.0667   -3.3000    0.0000 C   0  0  0  0  0  0  0  0  0  0  0  0
    5.8000   -4.5500    0.0000 C   0  0  0  0  0  0  0  0  0  0  0  0
    5.1000   -4.9542    0.0000 O   0  0  0  0  0  0  0  0  0  0  0  0
    4.3542   -3.7500    0.0000 C   0  0  0  0  0  0  0  0  0  0  0  0
    6.5042   -3.3000    0.0000 C   0  0  0  0  0  0  0  0  0  0  0  0
    4.3542   -4.5542    0.0000 C   0  0  0  0  0  0  0  0  0  0  0  0
    7.9500   -3.3000    0.0000 C   0  0  0  0  0  0  0  0  0  0  0  0
    7.2500   -3.7042    0.0000 N   0  0  0  0  0  0  0  0  0  0  0  0
    8.6542   -3.7000    0.0000 N   0  0  0  0  0  0  0  0  0  0  0  0
    7.9167   -2.4542    0.0000 N   0  0  0  0  0  0  0  0  0  0  0  0
    6.5167   -4.9500    0.0000 O   0  0  0  0  0  0  0  0  0  0  0  0
    5.0667   -2.5000    0.0000 O   0  0  0  0  0  0  0  0  0  0  0  0
    3.6500   -3.3167    0.0000 C   0  0  0  0  0  0  0  0  0  0  0  0
    9.3542   -2.4500    0.0000 C   0  0  0  0  0  0  0  0  0  0  0  0
    3.6500   -5.0000    0.0000 C   0  0  0  0  0  0  0  0  0  0  0  0
    8.6500   -2.0500    0.0000 C   0  0  0  0  0  0  0  0  0  0  0  0
    9.3667   -3.2542    0.0000 C   0  0  0  0  0  0  0  0  0  0  0  0
    2.9500   -3.7500    0.0000 C   0  0  0  0  0  0  0  0  0  0  0  0
    2.9500   -4.5542    0.0000 C   0  0  0  0  0  0  0  0  0  0  0  0
  2  1  2  0  0  0  0
  3  1  1  0  0  0  0
  4  3  1  0  0  0  0
  5  2  1  0  0  0  0
  6  1  1  0  0  0  0
  7  4  1  0  0  0  0
  8  9  1  0  0  0  0
  9  6  2  0  0  0  0
 10  8  2  0  0  0  0
 11  8  1  0  0  0  0
 12  3  2  0  0  0  0
 13  2  1  0  0  0  0
 14  5  2  0  0  0  0
 15 17  1  0  0  0  0
 16  7  2  0  0  0  0
 17 11  2  0  0  0  0
 18 10  1  0  0  0  0
 19 14  1  0  0  0  0
 20 16  1  0  0  0  0
  5  7  1  0  0  0  0
 18 15  2  0  0  0  0
 19 20  2  0  0  0  0
M  END
> <IDNUMBER>
F0472-0083

> <Chemical_Name>
4-hydroxy-3-[(1E)-[(pyrimidin-2-yl)imino]methyl]-2H-chromen-2-one

> <CAS>
325474-55-3

> <PriceCoeff>
1.00

> <MW>
267.24

> <Description>
solid

> <FSP3>
0.00

> <clogP>
1.02

> <TPSA>
84.67

> <Acceptor>
6

> <Donor>
2

> <RotBonds>
2

> <HAC>
20

> <Collection>
General

$$$$
F1359-0768
  -ISIS-  06222321142D

 25 27  0  0  0  0  0  0  0  0999 V2000
   -1.1625    2.3833    0.0000 C   0  0  0  0  0  0  0  0  0  0  0  0
    1.3167    3.8083    0.0000 N   0  0  3  0  0  0  0  0  0  0  0  0
   -1.6458    1.7208    0.0000 N   0  0  3  0  0  0  0  0  0  0  0  0
   -0.3375    2.3750    0.0000 N   0  0  0  0  0  0  0  0  0  0  0  0
   -1.6458    3.0500    0.0000 S   0  0  0  0  0  0  0  0  0  0  0  0
   -2.4333    2.7958    0.0000 C   0  0  0  0  0  0  0  0  0  0  0  0
   -2.4333    1.9708    0.0000 C   0  0  0  0  0  0  0  0  0  0  0  0
    2.1292    3.8833    0.0000 C   0  0  0  0  0  0  0  0  0  0  0  0
    0.9792    4.5417    0.0000 C   0  0  0  0  0  0  0  0  0  0  0  0
    0.0750    3.0875    0.0000 C   0  0  0  0  0  0  0  0  0  0  0  0
    0.9000    3.0875    0.0000 C   0  0  0  0  0  0  0  0  0  0  0  0
   -3.1458    3.2083    0.0000 C   0  0  0  0  0  0  0  0  0  0  0  0
   -3.1458    1.5583    0.0000 C   0  0  0  0  0  0  0  0  0  0  0  0
    1.5917    5.0917    0.0000 C   0  0  0  0  0  0  0  0  0  0  0  0
    2.3125    4.6917    0.0000 C   0  0  0  0  0  0  0  0  0  0  0  0
    0.1792    4.7292    0.0000 O   0  0  0  0  0  0  0  0  0  0  0  0
    2.6875    3.2708    0.0000 O   0  0  0  0  0  0  0  0  0  0  0  0
   -0.3375    3.8000    0.0000 O   0  0  0  0  0  0  0  0  0  0  0  0
   -3.8583    2.7958    0.0000 C   0  0  0  0  0  0  0  0  0  0  0  0
   -1.3958    0.9333    0.0000 C   0  0  0  0  0  0  0  0  0  0  0  0
   -3.8583    1.9708    0.0000 C   0  0  0  0  0  0  0  0  0  0  0  0
   -4.5833    3.2125    0.0000 Br  0  0  0  0  0  0  0  0  0  0  0  0
   -2.7500    0.4875    0.0000 O   0  0  0  0  0  0  0  0  0  0  0  0
   -1.9458    0.3208    0.0000 C   0  0  0  0  0  0  0  0  0  0  0  0
   -3.3083   -0.1250    0.0000 C   0  0  0  0  0  0  0  0  0  0  0  0
  2 11  1  0  0  0  0
  3  1  1  0  0  0  0
  4  1  2  0  0  0  0
  5  1  1  0  0  0  0
  6  5  1  0  0  0  0
  7  3  1  0  0  0  0
  8  2  1  0  0  0  0
  9  2  1  0  0  0  0
 10  4  1  0  0  0  0
 11 10  1  0  0  0  0
 12  6  1  0  0  0  0
 13  7  1  0  0  0  0
 14  9  1  0  0  0  0
 15  8  1  0  0  0  0
 16  9  2  0  0  0  0
 17  8  2  0  0  0  0
 18 10  2  0  0  0  0
 19 12  2  0  0  0  0
 20  3  1  0  0  0  0
 21 13  2  0  0  0  0
 22 19  1  0  0  0  0
 23 24  1  0  0  0  0
 24 20  1  0  0  0  0
 25 23  1  0  0  0  0
  7  6  2  0  0  0  0
 21 19  1  0  0  0  0
 15 14  1  0  0  0  0
M  END
> <IDNUMBER>
F1359-0768

> <Chemical_Name>
N-[(2Z)-6-bromo-3-(2-methoxyethyl)-2,3-dihydro-1,3-benzothiazol-2-ylidene]-2-(2,5-dioxopyrrolidin-1-yl)acetamide

> <CAS>
864976-23-8

> <PriceCoeff>
1.00

> <MW>
426.28

> <Description>
solid

> <FSP3>
0.38

> <clogP>
3.40

> <TPSA>
104.58

> <Acceptor>
4

> <Donor>
0

> <RotBonds>
6

> <HAC>
25

> <Collection>
General

$$$$
F0349-0376
  -ISIS-  06222321142D

 23 24  0  0  0  0  0  0  0  0999 V2000
   -3.1833   -0.0042    0.0000 C   0  0  0  0  0  0  0  0  0  0  0  0
   -3.1833    1.1333    0.0000 C   0  0  0  0  0  0  0  0  0  0  0  0
   -2.1833   -0.6000    0.0000 N   0  0  0  0  0  0  0  0  0  0  0  0
   -1.1958   -0.0042    0.0000 N   0  0  3  0  0  0  0  0  0  0  0  0
   -1.1958    1.1333    0.0000 C   0  0  0  0  0  0  0  0  0  0  0  0
   -4.1708   -0.6000    0.0000 N   0  3  0  0  0  0  0  0  0  0  0  0
   -0.1333   -0.6500    0.0000 C   0  0  0  0  0  0  0  0  0  0  0  0
    0.9500   -0.0500    0.0000 C   0  0  0  0  0  0  0  0  0  0  0  0
    1.9792   -0.7000    0.0000 N   0  0  0  0  0  0  0  0  0  0  0  0
    3.0542   -0.1042    0.0000 C   0  0  0  0  0  0  0  0  0  0  0  0
    3.0542    1.1000    0.0000 C   0  0  0  0  0  0  0  0  0  0  0  0
   -5.1458   -0.0042    0.0000 O   0  5  0  0  0  0  0  0  0  0  0  0
    4.1792    1.6958    0.0000 C   0  0  0  0  0  0  0  0  0  0  0  0
   -4.1708   -1.7292    0.0000 O   0  0  0  0  0  0  0  0  0  0  0  0
   -4.2458    1.7458    0.0000 Br  0  0  0  0  0  0  0  0  0  0  0  0
    0.9292    1.1958    0.0000 O   0  0  0  0  0  0  0  0  0  0  0  0
    4.1000   -0.7667    0.0000 C   0  0  0  0  0  0  0  0  0  0  0  0
    5.2292    1.0333    0.0000 C   0  0  0  0  0  0  0  0  0  0  0  0
   -0.1333    1.7458    0.0000 C   0  0  0  0  0  0  0  0  0  0  0  0
    5.2292   -0.1500    0.0000 C   0  0  0  0  0  0  0  0  0  0  0  0
    2.0000    1.7000    0.0000 O   0  0  0  0  0  0  0  0  0  0  0  0
    6.3292    1.5833    0.0000 Cl  0  0  0  0  0  0  0  0  0  0  0  0
    2.0000    2.9125    0.0000 C   0  0  0  0  0  0  0  0  0  0  0  0
  2  1  1  0  0  0  0
  3  1  2  0  0  0  0
  4  3  1  0  0  0  0
  5  2  2  0  0  0  0
  6  1  1  0  0  0  0
  7  4  1  0  0  0  0
  8  7  1  0  0  0  0
  9  8  1  0  0  0  0
 10  9  1  0  0  0  0
 11 10  1  0  0  0  0
 12  6  1  0  0  0  0
 13 11  2  0  0  0  0
 14  6  2  0  0  0  0
 15  2  1  0  0  0  0
 16  8  2  0  0  0  0
 17 10  2  0  0  0  0
 18 20  2  0  0  0  0
 19  5  1  0  0  0  0
 20 17  1  0  0  0  0
 21 11  1  0  0  0  0
 22 18  1  0  0  0  0
 23 21  1  0  0  0  0
  5  4  1  0  0  0  0
 13 18  1  0  0  0  0
M  CHG  2   6   1  12  -1
M  END
> <IDNUMBER>
F0349-0376

> <Chemical_Name>
2-(4-bromo-5-methyl-3-nitro-1H-pyrazol-1-yl)-N-(4-chloro-2-methoxyphenyl)acetamide

> <CAS>
353455-46-6

> <PriceCoeff>
1.00

> <MW>
403.62

> <Description>
solid

> <FSP3>
0.23

> <clogP>
2.50

> <TPSA>
99.29

> <Acceptor>
5

> <Donor>
1

> <RotBonds>
5

> <HAC>
23

> <Collection>
General

$$$$
F3271-0041
  -ISIS-  06222321152D

 26 28  0  0  0  0  0  0  0  0999 V2000
    5.4167  -10.1167    0.0000 C   0  0  0  0  0  0  0  0  0  0  0  0
    0.6375  -11.2167    0.0000 N   0  3  0  0  0  0  0  0  0  0  0  0
    3.9917  -10.1250    0.0000 C   0  0  0  0  0  0  0  0  0  0  0  0
    4.7042  -10.6417    0.0000 O   0  0  0  0  0  0  0  0  0  0  0  0
    6.2625  -10.3917    0.0000 C   0  0  0  0  0  0  0  0  0  0  0  0
    3.1542  -10.3917    0.0000 C   0  0  0  0  0  0  0  0  0  0  0  0
    6.9167   -9.8000    0.0000 N   0  0  3  0  0  0  0  0  0  0  0  0
    8.2292   -8.6250    0.0000 N   0  0  3  0  0  0  0  0  0  0  0  0
    2.9750  -11.2542    0.0000 C   0  0  0  0  0  0  0  0  0  0  0  0
    1.4750  -10.9417    0.0000 C   0  0  0  0  0  0  0  0  0  0  0  0
    5.1417   -9.2792    0.0000 C   0  0  0  0  0  0  0  0  0  0  0  0
    4.2625   -9.2792    0.0000 C   0  0  0  0  0  0  0  0  0  0  0  0
    2.1292  -11.5375    0.0000 C   0  0  0  0  0  0  0  0  0  0  0  0
    8.8875   -8.0292    0.0000 C   0  0  0  0  0  0  0  0  0  0  0  0
    2.5000   -9.8042    0.0000 C   0  0  0  0  0  0  0  0  0  0  0  0
   -0.0208  -10.6292    0.0000 O   0  5  0  0  0  0  0  0  0  0  0  0
    6.4417  -11.2542    0.0000 S   0  0  0  0  0  0  0  0  0  0  0  0
    0.4542  -12.0792    0.0000 O   0  0  0  0  0  0  0  0  0  0  0  0
    6.7292   -8.9417    0.0000 C   0  0  0  0  0  0  0  0  0  0  0  0
    7.7542  -10.0792    0.0000 C   0  0  0  0  0  0  0  0  0  0  0  0
    8.4042   -9.4917    0.0000 C   0  0  0  0  0  0  0  0  0  0  0  0
    7.3875   -8.3500    0.0000 C   0  0  0  0  0  0  0  0  0  0  0  0
    1.6625  -10.0792    0.0000 C   0  0  0  0  0  0  0  0  0  0  0  0
    9.7250   -8.3042    0.0000 O   0  0  0  0  0  0  0  0  0  0  0  0
    3.6375  -11.8417    0.0000 Cl  0  0  0  0  0  0  0  0  0  0  0  0
    8.7042   -7.1667    0.0000 C   0  0  0  0  0  0  0  0  0  0  0  0
  2 10  1  0  0  0  0
  3  4  1  0  0  0  0
  4  1  1  0  0  0  0
  5  1  1  0  0  0  0
  6  3  1  0  0  0  0
  7  5  1  0  0  0  0
  8 21  1  0  0  0  0
  9  6  1  0  0  0  0
 10 23  2  0  0  0  0
 11  1  2  0  0  0  0
 12 11  1  0  0  0  0
 13  9  2  0  0  0  0
 14  8  1  0  0  0  0
 15  6  2  0  0  0  0
 16  2  1  0  0  0  0
 17  5  2  0  0  0  0
 18  2  2  0  0  0  0
 19  7  1  0  0  0  0
 20  7  1  0  0  0  0
 21 20  1  0  0  0  0
 22 19  1  0  0  0  0
 23 15  1  0  0  0  0
 24 14  2  0  0  0  0
 25  9  1  0  0  0  0
 26 14  1  0  0  0  0
 12  3  2  0  0  0  0
 22  8  1  0  0  0  0
 13 10  1  0  0  0  0
M  CHG  2   2   1  16  -1
M  END
> <IDNUMBER>
F3271-0041

> <Chemical_Name>
1-{4-[5-(2-chloro-4-nitrophenyl)furan-2-carbothioyl]piperazin-1-yl}ethan-1-one

> <CAS>
714247-81-1

> <PriceCoeff>
1.00

> <MW>
393.84

> <Description>
solid

> <FSP3>
0.29

> <clogP>
2.56

> <TPSA>
111.92

> <Acceptor>
5

> <Donor>
1

> <RotBonds>
5

> <HAC>
26

> <Collection>
General

$$$$
F0700-0168
  -ISIS-  06222321452D

 26 29  0  0  0  0  0  0  0  0999 V2000
    3.8500   -0.0292    0.0000 N   0  0  3  0  0  0  0  0  0  0  0  0
    0.2292    1.0208    0.0000 N   0  0  0  0  0  0  0  0  0  0  0  0
    3.2667   -0.0292    0.0000 C   0  0  0  0  0  0  0  0  0  0  0  0
    0.6000    1.4958    0.0000 C   0  0  0  0  0  0  0  0  0  0  0  0
    0.2542    1.9708    0.0000 S   0  0  0  0  0  0  0  0  0  0  0  0
    4.1792    0.4833    0.0000 C   0  0  0  0  0  0  0  0  0  0  0  0
    4.2500   -0.4875    0.0000 C   0  0  0  0  0  0  0  0  0  0  0  0
    2.0792    0.9958    0.0000 C   0  0  0  0  0  0  0  0  0  0  0  0
   -0.3333    1.2208    0.0000 C   0  0  0  0  0  0  0  0  0  0  0  0
   -0.3000    1.8208    0.0000 C   0  0  0  0  0  0  0  0  0  0  0  0
    2.9667    0.4708    0.0000 C   0  0  0  0  0  0  0  0  0  0  0  0
    2.3792    0.4833    0.0000 C   0  0  0  0  0  0  0  0  0  0  0  0
    1.5000    0.9708    0.0000 O   0  0  0  0  0  0  0  0  0  0  0  0
    4.8000   -0.2292    0.0000 C   0  0  0  0  0  0  0  0  0  0  0  0
    4.7375    0.3458    0.0000 C   0  0  0  0  0  0  0  0  0  0  0  0
    4.1000   -1.0792    0.0000 O   0  0  0  0  0  0  0  0  0  0  0  0
    3.9292    1.0458    0.0000 O   0  0  0  0  0  0  0  0  0  0  0  0
    2.3667    1.5000    0.0000 O   0  0  0  0  0  0  0  0  0  0  0  0
    1.2000    1.4958    0.0000 C   0  0  0  0  0  0  0  0  0  0  0  0
    2.9667   -0.5542    0.0000 C   0  0  0  0  0  0  0  0  0  0  0  0
    2.0875   -0.0292    0.0000 C   0  0  0  0  0  0  0  0  0  0  0  0
    2.3667   -0.5542    0.0000 C   0  0  0  0  0  0  0  0  0  0  0  0
   -0.8500    0.9625    0.0000 C   0  0  0  0  0  0  0  0  0  0  0  0
   -0.8000    2.1500    0.0000 C   0  0  0  0  0  0  0  0  0  0  0  0
   -1.3458    1.8833    0.0000 C   0  0  0  0  0  0  0  0  0  0  0  0
   -1.3708    1.2500    0.0000 C   0  0  0  0  0  0  0  0  0  0  0  0
  2  4  2  0  0  0  0
  3  1  1  0  0  0  0
  4 19  1  0  0  0  0
  5  4  1  0  0  0  0
  6  1  1  0  0  0  0
  7  1  1  0  0  0  0
  8 12  1  0  0  0  0
  9  2  1  0  0  0  0
 10  5  1  0  0  0  0
 11  3  2  0  0  0  0
 12 11  1  0  0  0  0
 13  8  1  0  0  0  0
 14  7  1  0  0  0  0
 15  6  1  0  0  0  0
 16  7  2  0  0  0  0
 17  6  2  0  0  0  0
 18  8  2  0  0  0  0
 19 13  1  0  0  0  0
 20  3  1  0  0  0  0
 21 22  1  0  0  0  0
 22 20  2  0  0  0  0
 23  9  1  0  0  0  0
 24 10  1  0  0  0  0
 25 24  2  0  0  0  0
 26 23  2  0  0  0  0
 15 14  1  0  0  0  0
 21 12  2  0  0  0  0
 10  9  2  0  0  0  0
 25 26  1  0  0  0  0
M  END
> <IDNUMBER>
F0700-0168

> <Chemical_Name>
(1,3-benzothiazol-2-yl)methyl 3-(2,5-dioxopyrrolidin-1-yl)benzoate

> <CAS>
393837-60-0

> <PriceCoeff>
1.00

> <MW>
366.39

> <Description>
solid

> <FSP3>
0.16

> <clogP>
2.21

> <TPSA>
104.81

> <Acceptor>
5

> <Donor>
0

> <RotBonds>
5

> <HAC>
26

> <Collection>
General

$$$$
F3342-0153
  -ISIS-  06222304352D

 37 39  0  0  0  0  0  0  0  0999 V2000
    4.4292   -4.9542    0.0000 S   0  0  3  0  0  0  0  0  0  0  0  0
    5.1500   -5.3667    0.0000 N   0  0  3  0  0  0  0  0  0  0  0  0
    3.7167   -5.3750    0.0000 C   0  0  0  0  0  0  0  0  0  0  0  0
    5.8625   -4.9542    0.0000 C   0  0  0  0  0  0  0  0  0  0  0  0
    4.6500   -5.7542    0.0000 O   0  0  0  0  0  0  0  0  0  0  0  0
    4.4292   -4.1292    0.0000 O   0  0  0  0  0  0  0  0  0  0  0  0
    5.1500   -6.1917    0.0000 C   0  0  0  0  0  0  0  0  0  0  0  0
    8.0042   -5.3542    0.0000 N   0  0  3  0  0  0  0  0  0  0  0  0
    6.5792   -5.3625    0.0000 C   0  0  3  0  0  0  0  0  0  0  0  0
    7.2917   -4.9417    0.0000 C   0  0  0  0  0  0  0  0  0  0  0  0
    3.0042   -4.9625    0.0000 C   0  0  0  0  0  0  0  0  0  0  0  0
    3.7167   -6.2042    0.0000 C   0  0  0  0  0  0  0  0  0  0  0  0
    4.4417   -6.6042    0.0000 C   0  0  0  0  0  0  0  0  0  0  0  0
    5.8667   -6.5917    0.0000 C   0  0  0  0  0  0  0  0  0  0  0  0
    5.1542   -7.8417    0.0000 C   0  0  0  0  0  0  0  0  0  0  0  0
    5.8750   -7.4167    0.0000 C   0  0  0  0  0  0  0  0  0  0  0  0
    4.4417   -7.4292    0.0000 C   0  0  0  0  0  0  0  0  0  0  0  0
    3.0042   -6.6167    0.0000 C   0  0  0  0  0  0  0  0  0  0  0  0
    2.2917   -5.3750    0.0000 C   0  0  0  0  0  0  0  0  0  0  0  0
    2.2917   -6.2042    0.0000 C   0  0  0  0  0  0  0  0  0  0  0  0
    6.5792   -6.1875    0.0000 O   0  0  0  0  0  0  0  0  0  0  0  0
    5.1625   -8.6667    0.0000 F   0  0  0  0  0  0  0  0  0  0  0  0
    8.0042   -6.1792    0.0000 C   0  0  0  0  0  0  0  0  0  0  0  0
    8.7167   -4.9417    0.0000 C   0  0  0  0  0  0  0  0  0  0  0  0
    1.5750   -6.6167    0.0000 C   0  0  0  0  0  0  0  0  0  0  0  0
    9.4292   -5.3542    0.0000 C   0  0  0  0  0  0  0  0  0  0  0  0
    8.7167   -6.5917    0.0000 C   0  0  0  0  0  0  0  0  0  0  0  0
    9.4292   -6.1792    0.0000 C   0  0  0  0  0  0  0  0  0  0  0  0
   12.5829   -5.9032    0.0000 C   0  0  0  0  0  0  0  0  0  0  0  0
   12.2811   -5.1309    0.0000 O   0  0  0  0  0  0  0  0  0  0  0  0
   12.0637   -6.5495    0.0000 C   0  0  0  0  0  0  0  0  0  0  0  0
   13.3969   -6.0230    0.0000 O   0  0  0  0  0  0  0  0  0  0  0  0
   11.2428   -6.4234    0.0000 C   0  0  0  0  0  0  0  0  0  0  0  0
   12.3615   -7.3233    0.0000 C   0  0  0  0  0  0  0  0  0  0  0  0
   10.7221   -7.0658    0.0000 C   0  0  0  0  0  0  0  0  0  0  0  0
   11.8385   -7.9711    0.0000 C   0  0  0  0  0  0  0  0  0  0  0  0
   11.0200   -7.8397    0.0000 C   0  0  0  0  0  0  0  0  0  0  0  0
 11  3  2  0  0  0  0
 12  3  1  0  0  0  0
 13  7  2  0  0  0  0
 14  7  1  0  0  0  0
 15 16  1  0  0  0  0
 16 14  2  0  0  0  0
 17 13  1  0  0  0  0
 18 12  2  0  0  0  0
 19 11  1  0  0  0  0
 20 18  1  0  0  0  0
 21  9  1  0  0  0  0
 22 15  1  0  0  0  0
 23  8  1  0  0  0  0
 24  8  1  0  0  0  0
 25 20  1  0  0  0  0
 26 24  1  0  0  0  0
 27 23  1  0  0  0  0
 28 26  1  0  0  0  0
 20 19  2  0  0  0  0
 15 17  2  0  0  0  0
 28 27  1  0  0  0  0
  2  1  1  0  0  0  0
  3  1  1  0  0  0  0
  4  2  1  0  0  0  0
  5  1  2  0  0  0  0
  6  1  2  0  0  0  0
  7  2  1  0  0  0  0
  8 10  1  0  0  0  0
  9  4  1  0  0  0  0
 10  9  1  0  0  0  0
 30 29  2  0  0  0  0
 31 29  1  0  0  0  0
 32 29  1  0  0  0  0
 33 31  2  0  0  0  0
 34 31  1  0  0  0  0
 35 33  1  0  0  0  0
 36 34  2  0  0  0  0
 37 36  1  0  0  0  0
 37 35  2  0  0  0  0
M  END
> <IDNUMBER>
F3342-0153

> <Chemical_Name>
N-(4-fluorophenyl)-N-[2-hydroxy-3-(piperidin-1-yl)propyl]-4-methylbenzene-1-sulfonamide; benzoic acid

> <CAS>
1331304-89-2

> <PriceCoeff>
1.00

> <MW>
406.51

> <Description>
solid

> <FSP3>
0.43

> <clogP>
4.36

> <TPSA>
69.23

> <Acceptor>
4

> <Donor>
2

> <RotBonds>
7

> <HAC>
28

> <Collection>
General

> <Reference_compound>
PRI1826

> <Similarity>
0.8570

$$$$
F1911-8405
  -ISIS-  06222321452D

 17 18  0  0  0  0  0  0  0  0999 V2000
    2.2875  -14.5792    0.0000 C   0  0  0  0  0  0  0  0  0  0  0  0
    1.5667  -14.1667    0.0000 C   0  0  0  0  0  0  0  0  0  0  0  0
    2.2917  -15.4042    0.0000 O   0  0  0  0  0  0  0  0  0  0  0  0
   -0.5750  -12.9417    0.0000 O   0  0  0  0  0  0  0  0  0  0  0  0
    0.8542  -14.5875    0.0000 C   0  0  0  0  0  0  0  0  0  0  0  0
    1.5625  -13.3417    0.0000 C   0  0  0  0  0  0  0  0  0  0  0  0
    0.1417  -13.3542    0.0000 C   0  0  0  0  0  0  0  0  0  0  0  0
    3.0000  -14.1667    0.0000 O   0  0  0  0  0  0  0  0  0  0  0  0
    0.8417  -12.9375    0.0000 C   0  0  0  0  0  0  0  0  0  0  0  0
    0.1417  -14.1792    0.0000 C   0  0  0  0  0  0  0  0  0  0  0  0
   -1.2875  -13.3625    0.0000 C   0  0  0  0  0  0  0  0  0  0  0  0
    3.7125  -14.5750    0.0000 C   0  0  0  0  0  0  0  0  0  0  0  0
   -2.0083  -12.9500    0.0000 C   0  0  0  0  0  0  0  0  0  0  0  0
   -1.2875  -14.1917    0.0000 C   0  0  0  0  0  0  0  0  0  0  0  0
   -2.7208  -13.3625    0.0000 C   0  0  0  0  0  0  0  0  0  0  0  0
   -2.0083  -14.6042    0.0000 C   0  0  0  0  0  0  0  0  0  0  0  0
   -2.7208  -14.1917    0.0000 C   0  0  0  0  0  0  0  0  0  0  0  0
  2  1  1  0  0  0  0
  3  1  2  0  0  0  0
  4  7  1  0  0  0  0
  5  2  2  0  0  0  0
  6  2  1  0  0  0  0
  7  9  1  0  0  0  0
  8  1  1  0  0  0  0
  9  6  2  0  0  0  0
 10  5  1  0  0  0  0
 11  4  1  0  0  0  0
 12  8  1  0  0  0  0
 13 11  2  0  0  0  0
 14 11  1  0  0  0  0
 15 13  1  0  0  0  0
 16 14  2  0  0  0  0
 17 16  1  0  0  0  0
  7 10  2  0  0  0  0
 15 17  2  0  0  0  0
M  END
> <IDNUMBER>
F1911-8405

> <Chemical_Name>
methyl 4-phenoxybenzoate

> <CAS>
21218-94-0

> <PriceCoeff>
1.00

> <MW>
228.25

> <Description>
solid

> <FSP3>
0.07

> <clogP>
4.21

> <TPSA>
35.53

> <Acceptor>
3

> <Donor>
0

> <RotBonds>
4

> <HAC>
17

> <Collection>
General

> <Reference_compound>
CHEMBL21932

> <Similarity>
0.8350

$$$$
F0200-0014
  -ISIS-  06222321142D

 25 27  0  0  0  0  0  0  0  0999 V2000
   -0.8833    2.0958    0.0000 N   0  0  3  0  0  0  0  0  0  0  0  0
   -0.4958    2.6125    0.0000 C   0  0  0  0  0  0  0  0  0  0  0  0
   -0.5208    1.5833    0.0000 C   0  0  0  0  0  0  0  0  0  0  0  0
    0.1000    1.7458    0.0000 C   0  0  3  0  0  0  0  0  0  0  0  0
    0.1292    2.4000    0.0000 C   0  0  0  0  0  0  0  0  0  0  0  0
    1.7792    1.4500    0.0000 C   0  0  0  0  0  0  0  0  0  0  0  0
   -1.5333    2.0958    0.0000 C   0  0  0  0  0  0  0  0  0  0  0  0
    0.6542    1.4333    0.0000 S   0  0  0  0  0  0  0  0  0  0  0  0
    1.2042    1.7625    0.0000 C   0  0  0  0  0  0  0  0  0  0  0  0
    1.7792    0.8125    0.0000 C   0  0  0  0  0  0  0  0  0  0  0  0
   -0.6958    3.2458    0.0000 O   0  0  0  0  0  0  0  0  0  0  0  0
   -0.7000    1.0958    0.0000 O   0  0  0  0  0  0  0  0  0  0  0  0
   -1.8458    1.5333    0.0000 C   0  0  0  0  0  0  0  0  0  0  0  0
    2.3292    0.4958    0.0000 O   0  0  0  0  0  0  0  0  0  0  0  0
    1.2375    0.4625    0.0000 O   0  0  0  0  0  0  0  0  0  0  0  0
    2.3375    1.7958    0.0000 C   0  0  0  0  0  0  0  0  0  0  0  0
   -1.4958    0.9958    0.0000 O   0  0  0  0  0  0  0  0  0  0  0  0
   -1.8625    2.6500    0.0000 C   0  0  0  0  0  0  0  0  0  0  0  0
    1.2000    2.4000    0.0000 C   0  0  0  0  0  0  0  0  0  0  0  0
   -2.5000    1.5125    0.0000 C   0  0  0  0  0  0  0  0  0  0  0  0
   -1.7625    0.4000    0.0000 C   0  0  0  0  0  0  0  0  0  0  0  0
    2.3167    2.4458    0.0000 C   0  0  0  0  0  0  0  0  0  0  0  0
   -2.5333    2.6458    0.0000 C   0  0  0  0  0  0  0  0  0  0  0  0
    1.7375    2.7500    0.0000 C   0  0  0  0  0  0  0  0  0  0  0  0
   -2.8458    2.0708    0.0000 C   0  0  0  0  0  0  0  0  0  0  0  0
  2  1  1  0  0  0  0
  3  1  1  0  0  0  0
  4  3  1  0  0  0  0
  5  2  1  0  0  0  0
  6  9  1  0  0  0  0
  7  1  1  0  0  0  0
  8  4  1  0  0  0  0
  9  8  1  0  0  0  0
 10  6  1  0  0  0  0
 11  2  2  0  0  0  0
 12  3  2  0  0  0  0
 13  7  2  0  0  0  0
 14 10  2  0  0  0  0
 15 10  1  0  0  0  0
 16  6  2  0  0  0  0
 17 13  1  0  0  0  0
 18  7  1  0  0  0  0
 19  9  2  0  0  0  0
 20 13  1  0  0  0  0
 21 17  1  0  0  0  0
 22 24  2  0  0  0  0
 23 18  2  0  0  0  0
 24 19  1  0  0  0  0
 25 23  1  0  0  0  0
  5  4  1  0  0  0  0
 25 20  2  0  0  0  0
 22 16  1  0  0  0  0
M  END
> <IDNUMBER>
F0200-0014

> <Chemical_Name>
2-{[1-(2-methoxyphenyl)-2,5-dioxopyrrolidin-3-yl]sulfanyl}benzoic acid

> <CAS>
301683-27-2

> <PriceCoeff>
1.00

> <MW>
357.38

> <Description>
solid

> <FSP3>
0.17

> <clogP>
2.16

> <TPSA>
109.21

> <Acceptor>
5

> <Donor>
0

> <RotBonds>
5

> <HAC>
25

> <Collection>
General

$$$$
F1359-0372
  -ISIS-  06222321142D

 28 30  0  0  0  0  0  0  0  0999 V2000
   -1.1625    2.3833    0.0000 C   0  0  0  0  0  0  0  0  0  0  0  0
    1.3167    3.8083    0.0000 N   0  0  3  0  0  0  0  0  0  0  0  0
   -1.6458    1.7208    0.0000 N   0  0  3  0  0  0  0  0  0  0  0  0
   -0.3375    2.3750    0.0000 N   0  0  0  0  0  0  0  0  0  0  0  0
   -1.6458    3.0500    0.0000 S   0  0  0  0  0  0  0  0  0  0  0  0
   -2.4333    2.7958    0.0000 C   0  0  0  0  0  0  0  0  0  0  0  0
   -2.4333    1.9708    0.0000 C   0  0  0  0  0  0  0  0  0  0  0  0
    2.1292    3.8833    0.0000 C   0  0  0  0  0  0  0  0  0  0  0  0
    0.9792    4.5417    0.0000 C   0  0  0  0  0  0  0  0  0  0  0  0
    0.0750    3.0875    0.0000 C   0  0  0  0  0  0  0  0  0  0  0  0
    0.9000    3.0875    0.0000 C   0  0  0  0  0  0  0  0  0  0  0  0
   -4.5833    3.2125    0.0000 C   0  0  0  0  0  0  0  0  0  0  0  0
   -3.1458    3.2083    0.0000 C   0  0  0  0  0  0  0  0  0  0  0  0
   -3.8583    2.7958    0.0000 C   0  0  0  0  0  0  0  0  0  0  0  0
   -3.1458    1.5583    0.0000 C   0  0  0  0  0  0  0  0  0  0  0  0
    1.5917    5.0917    0.0000 C   0  0  0  0  0  0  0  0  0  0  0  0
    2.3125    4.6917    0.0000 C   0  0  0  0  0  0  0  0  0  0  0  0
    0.1792    4.7292    0.0000 O   0  0  0  0  0  0  0  0  0  0  0  0
    2.6875    3.2708    0.0000 O   0  0  0  0  0  0  0  0  0  0  0  0
   -3.8583    1.9708    0.0000 C   0  0  0  0  0  0  0  0  0  0  0  0
   -0.3375    3.8000    0.0000 O   0  0  0  0  0  0  0  0  0  0  0  0
   -5.2875    2.8000    0.0000 O   0  0  0  0  0  0  0  0  0  0  0  0
   -1.3958    0.9333    0.0000 C   0  0  0  0  0  0  0  0  0  0  0  0
   -4.5708    4.0292    0.0000 O   0  0  0  0  0  0  0  0  0  0  0  0
   -2.7500    0.4875    0.0000 O   0  0  0  0  0  0  0  0  0  0  0  0
   -1.9458    0.3208    0.0000 C   0  0  0  0  0  0  0  0  0  0  0  0
   -5.2875    4.4417    0.0000 C   0  0  0  0  0  0  0  0  0  0  0  0
   -3.3083   -0.1250    0.0000 C   0  0  0  0  0  0  0  0  0  0  0  0
  2 11  1  0  0  0  0
  3  1  1  0  0  0  0
  4  1  2  0  0  0  0
  5  1  1  0  0  0  0
  6  5  1  0  0  0  0
  7  3  1  0  0  0  0
  8  2  1  0  0  0  0
  9  2  1  0  0  0  0
 10  4  1  0  0  0  0
 11 10  1  0  0  0  0
 12 14  1  0  0  0  0
 13  6  1  0  0  0  0
 14 13  2  0  0  0  0
 15  7  1  0  0  0  0
 16  9  1  0  0  0  0
 17  8  1  0  0  0  0
 18  9  2  0  0  0  0
 19  8  2  0  0  0  0
 20 15  2  0  0  0  0
 21 10  2  0  0  0  0
 22 12  2  0  0  0  0
 23  3  1  0  0  0  0
 24 12  1  0  0  0  0
 25 26  1  0  0  0  0
 26 23  1  0  0  0  0
 27 24  1  0  0  0  0
 28 25  1  0  0  0  0
  7  6  2  0  0  0  0
 20 14  1  0  0  0  0
 17 16  1  0  0  0  0
M  END
> <IDNUMBER>
F1359-0372

> <Chemical_Name>
methyl (2Z)-2-{[2-(2,5-dioxopyrrolidin-1-yl)acetyl]imino}-3-(2-methoxyethyl)-2,3-dihydro-1,3-benzothiazole-6-carboxylate

> <CAS>
864975-43-9

> <PriceCoeff>
1.00

> <MW>
405.42

> <Description>
solid

> <FSP3>
0.39

> <clogP>
2.51

> <TPSA>
130.88

> <Acceptor>
6

> <Donor>
0

> <RotBonds>
8

> <HAC>
28

> <Collection>
General

$$$$
F6660-4205
  -ISIS-  06222321162D

 11 12  0  0  0  0  0  0  0  0999 V2000
    5.4792   -3.5167    0.0000 C   0  0  0  0  0  0  0  0  0  0  0  0
    6.1542   -4.0042    0.0000 N   0  0  0  0  0  0  0  0  0  0  0  0
    6.5667   -2.7375    0.0000 N   0  0  0  0  0  0  0  0  0  0  0  0
    5.7417   -2.7292    0.0000 O   0  0  0  0  0  0  0  0  0  0  0  0
    4.6917   -3.7750    0.0000 C   0  0  0  0  0  0  0  0  0  0  0  0
    6.8292   -3.5250    0.0000 C   0  0  0  0  0  0  0  0  0  0  0  0
    4.4375   -4.5667    0.0000 N   0  0  0  0  0  0  0  0  0  0  0  0
    4.0250   -3.2875    0.0000 C   0  0  0  0  0  0  0  0  0  0  0  0
    3.6125   -4.5667    0.0000 C   0  0  0  0  0  0  0  0  0  0  0  0
    3.3542   -3.7750    0.0000 C   0  0  0  0  0  0  0  0  0  0  0  0
    7.6125   -3.7792    0.0000 C   0  0  0  0  0  0  0  0  0  0  0  0
  2  1  2  0  0  0  0
  3  4  1  0  0  0  0
  4  1  1  0  0  0  0
  5  1  1  0  0  0  0
  6  2  1  0  0  0  0
  7  5  1  0  0  0  0
  8  5  2  0  0  0  0
  9  7  1  0  0  0  0
 10  8  1  0  0  0  0
 11  6  1  0  0  0  0
  6  3  2  0  0  0  0
 10  9  2  0  0  0  0
M  END
> <IDNUMBER>
F6660-4205

> <Chemical_Name>
3-methyl-5-(1H-pyrrol-2-yl)-1,2,4-oxadiazole

> <CAS>
1239752-45-4

> <PriceCoeff>
1.00

> <MW>
149.15

> <Description>
solid

> <FSP3>
0.14

> <clogP>
0.87

> <TPSA>
54.71

> <Acceptor>
3

> <Donor>
1

> <RotBonds>
1

> <HAC>
11

> <Collection>
General

> <Reference_compound>
CHEMBL2268705

> <Similarity>
0.9190

$$$$
F0017-0031
  -ISIS-  06222304342D

 35 37  0  0  0  0  0  0  0  0999 V2000
    2.6625    0.3208    0.0000 C   0  0  0  0  0  0  0  0  0  0  0  0
    1.8792    0.3625    0.0000 N   0  0  0  0  0  0  0  0  0  0  0  0
    3.0125    1.0333    0.0000 N   0  0  0  0  0  0  0  0  0  0  0  0
    1.6917    1.1750    0.0000 C   0  0  0  0  0  0  0  0  0  0  0  0
    2.4167    1.5833    0.0000 C   0  0  0  0  0  0  0  0  0  0  0  0
    3.0500   -0.4042    0.0000 S   0  0  0  0  0  0  0  0  0  0  0  0
    3.0667   -1.8542    0.0000 C   0  0  0  0  0  0  0  0  0  0  0  0
    2.6500   -1.1292    0.0000 C   0  0  0  0  0  0  0  0  0  0  0  0
    3.9042   -1.8542    0.0000 O   0  0  0  0  0  0  0  0  0  0  0  0
    2.6417   -2.5667    0.0000 C   0  0  0  0  0  0  0  0  0  0  0  0
    0.9542    1.6125    0.0000 C   0  0  0  0  0  0  0  0  0  0  0  0
    2.4167    2.4583    0.0000 C   0  0  0  0  0  0  0  0  0  0  0  0
    3.0500   -3.2792    0.0000 C   0  0  0  0  0  0  0  0  0  0  0  0
    1.8292   -2.5542    0.0000 C   0  0  0  0  0  0  0  0  0  0  0  0
    0.9542    2.4583    0.0000 C   0  0  0  0  0  0  0  0  0  0  0  0
    1.6917    2.8708    0.0000 C   0  0  0  0  0  0  0  0  0  0  0  0
    1.4125   -3.2792    0.0000 C   0  0  0  0  0  0  0  0  0  0  0  0
    2.6500   -4.0042    0.0000 C   0  0  0  0  0  0  0  0  0  0  0  0
    1.8042   -4.0042    0.0000 C   0  0  0  0  0  0  0  0  0  0  0  0
    6.9542    0.0416    0.0000 C   0  0  0  0  0  0  0  0  0  0  0  0
    6.7875   -1.3542    0.0000 C   0  0  0  0  0  0  0  0  0  0  0  0
    6.4750   -0.6084    0.0000 C   0  0  0  0  0  0  0  0  0  0  0  0
    6.6167    0.8166    0.0000 N   0  3  0  0  0  0  0  0  0  0  0  0
    6.2667   -2.0334    0.0000 N   0  3  0  0  0  0  0  0  0  0  0  0
    8.9292   -0.8834    0.0000 N   0  3  0  0  0  0  0  0  0  0  0  0
    8.1042   -0.7959    0.0000 C   0  0  0  0  0  0  0  0  0  0  0  0
    7.6125   -1.4834    0.0000 C   0  0  0  0  0  0  0  0  0  0  0  0
    7.7792   -0.0584    0.0000 C   0  0  0  0  0  0  0  0  0  0  0  0
    5.4583   -1.9167    0.0000 O   0  5  0  0  0  0  0  0  0  0  0  0
    7.1125    1.4708    0.0000 O   0  5  0  0  0  0  0  0  0  0  0  0
    9.2792   -1.6209    0.0000 O   0  5  0  0  0  0  0  0  0  0  0  0
    5.8167    0.8916    0.0000 O   0  0  0  0  0  0  0  0  0  0  0  0
    6.5917   -2.7959    0.0000 O   0  0  0  0  0  0  0  0  0  0  0  0
    9.4042   -0.1959    0.0000 O   0  0  0  0  0  0  0  0  0  0  0  0
    5.6458   -0.5084    0.0000 O   0  0  0  0  0  0  0  0  0  0  0  0
 18 13  1  0  0  0  0
 19 17  1  0  0  0  0
  5  4  2  0  0  0  0
 16 15  1  0  0  0  0
 19 18  2  0  0  0  0
  2  1  2  0  0  0  0
  3  1  1  0  0  0  0
  4  2  1  0  0  0  0
  5  3  1  0  0  0  0
  6  1  1  0  0  0  0
  7  8  1  0  0  0  0
  8  6  1  0  0  0  0
  9  7  2  0  0  0  0
 10  7  1  0  0  0  0
 11  4  1  0  0  0  0
 12  5  1  0  0  0  0
 13 10  2  0  0  0  0
 14 10  1  0  0  0  0
 15 11  2  0  0  0  0
 16 12  2  0  0  0  0
 17 14  2  0  0  0  0
 21 22  2  0  0  0  0
 22 20  1  0  0  0  0
 23 20  1  0  0  0  0
 24 21  1  0  0  0  0
 25 26  1  0  0  0  0
 26 28  1  0  0  0  0
 27 26  2  0  0  0  0
 28 20  2  0  0  0  0
 29 24  1  0  0  0  0
 30 23  1  0  0  0  0
 31 25  1  0  0  0  0
 32 23  2  0  0  0  0
 33 24  2  0  0  0  0
 34 25  2  0  0  0  0
 35 22  1  0  0  0  0
 21 27  1  0  0  0  0
M  CHG  6  23   1  24   1  25   1  29  -1  30  -1  31  -1
M  END
> <IDNUMBER>
F0017-0031

> <Chemical_Name>
2,4,6-trinitrophenol; 2-(1H-1,3-benzodiazol-2-ylsulfanyl)-1-phenylethan-1-one

> <CAS>
1158468-89-3

> <PriceCoeff>
1.00

> <MW>
268.33

> <Description>
solid

> <FSP3>
0.07

> <clogP>
3.66

> <TPSA>
71.05

> <Acceptor>
3

> <Donor>
2

> <RotBonds>
4

> <HAC>
19

> <Collection>
General

> <Reference_compound>
CHEMBL273386

> <Similarity>
0.9070

$$$$
F0700-0154
  -ISIS-  06222321142D

 27 30  0  0  0  0  0  0  0  0999 V2000
    1.8000    1.5458    0.0000 N   0  0  3  0  0  0  0  0  0  0  0  0
   -2.8500   -0.8000    0.0000 C   0  0  0  0  0  0  0  0  0  0  0  0
   -2.7500   -0.2042    0.0000 N   0  0  0  0  0  0  0  0  0  0  0  0
   -2.2958   -1.0792    0.0000 S   0  0  0  0  0  0  0  0  0  0  0  0
    1.5042    1.0000    0.0000 C   0  0  0  0  0  0  0  0  0  0  0  0
    1.5500    2.1125    0.0000 C   0  0  0  0  0  0  0  0  0  0  0  0
    2.4042    1.5958    0.0000 C   0  0  0  0  0  0  0  0  0  0  0  0
   -1.8500   -0.6542    0.0000 C   0  0  0  0  0  0  0  0  0  0  0  0
    0.0042    0.3958    0.0000 C   0  0  0  0  0  0  0  0  0  0  0  0
   -2.1333   -0.1042    0.0000 C   0  0  0  0  0  0  0  0  0  0  0  0
   -0.2833   -0.1375    0.0000 N   0  0  0  0  0  0  0  0  0  0  0  0
    0.8875    0.9708    0.0000 C   0  0  0  0  0  0  0  0  0  0  0  0
    0.6292    0.4125    0.0000 C   0  0  0  0  0  0  0  0  0  0  0  0
   -1.2458   -0.6667    0.0000 C   0  0  0  0  0  0  0  0  0  0  0  0
   -0.8958   -0.1375    0.0000 C   0  0  0  0  0  0  0  0  0  0  0  0
   -0.3208    0.9208    0.0000 O   0  0  0  0  0  0  0  0  0  0  0  0
    2.5542    2.1958    0.0000 C   0  0  0  0  0  0  0  0  0  0  0  0
    2.0542    2.5208    0.0000 C   0  0  0  0  0  0  0  0  0  0  0  0
    2.8042    1.1458    0.0000 O   0  0  0  0  0  0  0  0  0  0  0  0
    0.9500    2.2500    0.0000 O   0  0  0  0  0  0  0  0  0  0  0  0
   -3.4125   -1.0792    0.0000 S   0  0  0  0  0  0  0  0  0  0  0  0
   -1.8125    0.4208    0.0000 C   0  0  0  0  0  0  0  0  0  0  0  0
   -1.1833    0.3708    0.0000 C   0  0  0  0  0  0  0  0  0  0  0  0
    1.8500    0.4500    0.0000 C   0  0  0  0  0  0  0  0  0  0  0  0
    0.9542   -0.0917    0.0000 C   0  0  0  0  0  0  0  0  0  0  0  0
    1.5542   -0.0875    0.0000 C   0  0  0  0  0  0  0  0  0  0  0  0
   -3.9208   -0.7292    0.0000 C   0  0  0  0  0  0  0  0  0  0  0  0
  2  4  1  0  0  0  0
  3 10  1  0  0  0  0
  4  8  1  0  0  0  0
  5  1  1  0  0  0  0
  6  1  1  0  0  0  0
  7  1  1  0  0  0  0
  8 14  1  0  0  0  0
  9 13  1  0  0  0  0
 10 22  1  0  0  0  0
 11  9  1  0  0  0  0
 12  5  2  0  0  0  0
 13 12  1  0  0  0  0
 14 15  2  0  0  0  0
 15 11  1  0  0  0  0
 16  9  2  0  0  0  0
 17  7  1  0  0  0  0
 18  6  1  0  0  0  0
 19  7  2  0  0  0  0
 20  6  2  0  0  0  0
 21  2  1  0  0  0  0
 22 23  2  0  0  0  0
 23 15  1  0  0  0  0
 24  5  1  0  0  0  0
 25 26  1  0  0  0  0
 26 24  2  0  0  0  0
 27 21  1  0  0  0  0
 18 17  1  0  0  0  0
 13 25  2  0  0  0  0
  8 10  2  0  0  0  0
  2  3  2  0  0  0  0
M  END
> <IDNUMBER>
F0700-0154

> <Chemical_Name>
3-(2,5-dioxopyrrolidin-1-yl)-N-[2-(methylsulfanyl)-1,3-benzothiazol-6-yl]benzamide

> <CAS>
361479-46-1

> <PriceCoeff>
1.00

> <MW>
397.47

> <Description>
solid

> <FSP3>
0.16

> <clogP>
2.55

> <TPSA>
132.91

> <Acceptor>
4

> <Donor>
1

> <RotBonds>
4

> <HAC>
27

> <Collection>
General

$$$$
F1558-0154
  -ISIS-  06222321452D

 16 18  0  0  0  0  0  0  0  0999 V2000
    4.4500   -3.6500    0.0000 C   0  0  0  0  0  0  0  0  0  0  0  0
    2.1667   -0.5250    0.0000 N   0  0  0  0  0  0  0  0  0  0  0  0
    2.1667   -6.8167    0.0000 N   0  0  0  0  0  0  0  0  0  0  0  0
   -1.5250   -1.7167    0.0000 C   0  0  0  0  0  0  0  0  0  0  0  0
   -1.5250   -5.6250    0.0000 C   0  0  0  0  0  0  0  0  0  0  0  0
    8.3167   -3.6500    0.0000 C   0  0  0  0  0  0  0  0  0  0  0  0
   10.2167   -0.3125    0.0000 C   0  0  0  0  0  0  0  0  0  0  0  0
   14.0250   -0.3125    0.0000 C   0  0  0  0  0  0  0  0  0  0  0  0
   10.2167   -6.9917    0.0000 C   0  0  0  0  0  0  0  0  0  0  0  0
   -4.9083    0.2208    0.0000 C   0  0  0  0  0  0  0  0  0  0  0  0
   14.0792   -6.9917    0.0000 C   0  0  0  0  0  0  0  0  0  0  0  0
   -4.9083   -7.5542    0.0000 C   0  0  0  0  0  0  0  0  0  0  0  0
   16.0000   -3.6500    0.0000 C   0  0  0  0  0  0  0  0  0  0  0  0
   15.9542    3.0500    0.0000 C   0  0  0  0  0  0  0  0  0  0  0  0
   -8.2417   -1.7542    0.0000 C   0  0  0  0  0  0  0  0  0  0  0  0
   -8.2417   -5.6250    0.0000 C   0  0  0  0  0  0  0  0  0  0  0  0
  2  1  2  0  0  0  0
  3  1  1  0  0  0  0
  4  2  1  0  0  0  0
  5  3  1  0  0  0  0
  6  1  1  0  0  0  0
  7  6  1  0  0  0  0
  8  7  2  0  0  0  0
  9  6  2  0  0  0  0
 10  4  2  0  0  0  0
 11  9  1  0  0  0  0
 12  5  2  0  0  0  0
 13 11  2  0  0  0  0
 14  8  1  0  0  0  0
 15 10  1  0  0  0  0
 16 12  1  0  0  0  0
  4  5  1  0  0  0  0
  8 13  1  0  0  0  0
 15 16  2  0  0  0  0
M  END
> <IDNUMBER>
F1558-0154

> <Chemical_Name>
2-(3-methylphenyl)-1H-1,3-benzodiazole

> <CAS>
6528-83-2

> <PriceCoeff>
1.00

> <MW>
208.26

> <Description>
solid

> <FSP3>
0.07

> <clogP>
4.16

> <TPSA>
28.68

> <Acceptor>
2

> <Donor>
2

> <RotBonds>
1

> <HAC>
16

> <Collection>
General

> <Reference_compound>
CHEMBL379376

> <Similarity>
0.8070

$$$$
F1011-0198
  -ISIS-  06222321142D

 26 29  0  0  0  0  0  0  0  0999 V2000
    4.4625  -12.9917    0.0000 N   0  0  3  0  0  0  0  0  0  0  0  0
    6.6000  -14.2250    0.0000 N   0  0  3  0  0  0  0  0  0  0  0  0
    5.1417  -11.8125    0.0000 C   0  0  0  0  0  0  0  0  0  0  0  0
    3.7792  -11.8125    0.0000 C   0  0  0  0  0  0  0  0  0  0  0  0
    5.1417  -12.6000    0.0000 C   0  0  0  0  0  0  0  0  0  0  0  0
    3.7792  -12.6000    0.0000 C   0  0  0  0  0  0  0  0  0  0  0  0
    7.3417  -13.8917    0.0000 C   0  0  0  0  0  0  0  0  0  0  0  0
    6.6792  -15.0417    0.0000 C   0  0  0  0  0  0  0  0  0  0  0  0
    4.4625  -13.8167    0.0000 C   0  0  0  0  0  0  0  0  0  0  0  0
    5.8875  -13.8125    0.0000 C   0  0  0  0  0  0  0  0  0  0  0  0
    5.8167  -12.9917    0.0000 C   0  0  0  0  0  0  0  0  0  0  0  0
    3.1042  -12.9917    0.0000 C   0  0  0  0  0  0  0  0  0  0  0  0
    5.8167  -11.4167    0.0000 C   0  0  0  0  0  0  0  0  0  0  0  0
    3.1042  -11.4167    0.0000 C   0  0  0  0  0  0  0  0  0  0  0  0
    5.1750  -14.2292    0.0000 C   0  0  3  0  0  0  0  0  0  0  0  0
    7.4792  -15.2167    0.0000 C   0  0  0  0  0  0  0  0  0  0  0  0
    7.8917  -14.5042    0.0000 C   0  0  0  0  0  0  0  0  0  0  0  0
    7.5167  -13.0792    0.0000 O   0  0  0  0  0  0  0  0  0  0  0  0
    6.0667  -15.5917    0.0000 O   0  0  0  0  0  0  0  0  0  0  0  0
    6.5042  -11.8125    0.0000 C   0  0  0  0  0  0  0  0  0  0  0  0
    2.4250  -11.8125    0.0000 C   0  0  0  0  0  0  0  0  0  0  0  0
    2.4250  -12.6000    0.0000 C   0  0  0  0  0  0  0  0  0  0  0  0
    6.5042  -12.6000    0.0000 C   0  0  0  0  0  0  0  0  0  0  0  0
    1.7042  -11.3917    0.0000 Cl  0  0  0  0  0  0  0  0  0  0  0  0
    7.2167  -11.3917    0.0000 Cl  0  0  0  0  0  0  0  0  0  0  0  0
    5.1667  -15.0542    0.0000 O   0  0  0  0  0  0  0  0  0  0  0  0
  2 10  1  0  0  0  0
  3  5  2  0  0  0  0
  4  6  2  0  0  0  0
  5  1  1  0  0  0  0
  6  1  1  0  0  0  0
  7  2  1  0  0  0  0
  8  2  1  0  0  0  0
  9  1  1  0  0  0  0
 10 15  1  0  0  0  0
 11  5  1  0  0  0  0
 12  6  1  0  0  0  0
 13  3  1  0  0  0  0
 14  4  1  0  0  0  0
 15  9  1  0  0  0  0
 16  8  1  0  0  0  0
 17  7  1  0  0  0  0
 18  7  2  0  0  0  0
 19  8  2  0  0  0  0
 20 23  1  0  0  0  0
 21 22  1  0  0  0  0
 22 12  2  0  0  0  0
 23 11  2  0  0  0  0
 24 21  1  0  0  0  0
 25 20  1  0  0  0  0
 26 15  1  0  0  0  0
  4  3  1  0  0  0  0
 21 14  2  0  0  0  0
 13 20  2  0  0  0  0
 16 17  1  0  0  0  0
M  END
> <IDNUMBER>
F1011-0198

> <Chemical_Name>
1-[3-(3,6-dichloro-9H-carbazol-9-yl)-2-hydroxypropyl]pyrrolidine-2,5-dione

> <CAS>
314052-84-1

> <PriceCoeff>
1.00

> <MW>
391.25

> <Description>
solid

> <FSP3>
0.26

> <clogP>
4.06

> <TPSA>
62.54

> <Acceptor>
3

> <Donor>
1

> <RotBonds>
4

> <HAC>
26

> <Collection>
General

$$$$
F3023-0825
  -ISIS-  06222321462D

 26 28  0  0  0  0  0  0  0  0999 V2000
    2.1750    0.3833    0.0000 N   0  0  3  0  0  0  0  0  0  0  0  0
    2.6000   -0.1917    0.0000 C   0  0  0  0  0  0  0  0  0  0  0  0
    2.5917    0.9625    0.0000 C   0  0  0  0  0  0  0  0  0  0  0  0
    3.2792    0.0333    0.0000 C   0  0  3  0  0  0  0  0  0  0  0  0
    3.2750    0.7458    0.0000 C   0  0  0  0  0  0  0  0  0  0  0  0
    1.4625    0.3833    0.0000 C   0  0  0  0  0  0  0  0  0  0  0  0
    3.8542   -0.3792    0.0000 N   0  0  3  0  0  0  0  0  0  0  0  0
    5.0042   -1.2250    0.0000 N   0  0  3  0  0  0  0  0  0  0  0  0
    5.5875   -1.6375    0.0000 C   0  0  0  0  0  0  0  0  0  0  0  0
    1.1167   -0.2417    0.0000 C   0  0  0  0  0  0  0  0  0  0  0  0
    2.3792   -0.8667    0.0000 O   0  0  0  0  0  0  0  0  0  0  0  0
    1.1042    0.9958    0.0000 C   0  0  0  0  0  0  0  0  0  0  0  0
    2.3667    1.6333    0.0000 O   0  0  0  0  0  0  0  0  0  0  0  0
    5.0792   -0.5125    0.0000 C   0  0  0  0  0  0  0  0  0  0  0  0
    4.3542   -1.5125    0.0000 C   0  0  0  0  0  0  0  0  0  0  0  0
    4.5042   -0.0917    0.0000 C   0  0  0  0  0  0  0  0  0  0  0  0
    3.7792   -1.0917    0.0000 C   0  0  0  0  0  0  0  0  0  0  0  0
    5.5125   -2.3417    0.0000 O   0  0  0  0  0  0  0  0  0  0  0  0
    0.4042   -0.2417    0.0000 C   0  0  0  0  0  0  0  0  0  0  0  0
    0.0417    0.3708    0.0000 C   0  0  0  0  0  0  0  0  0  0  0  0
    6.2375   -1.3500    0.0000 O   0  0  0  0  0  0  0  0  0  0  0  0
    0.3917    0.9958    0.0000 C   0  0  0  0  0  0  0  0  0  0  0  0
   -0.6708    0.3625    0.0000 I   0  0  0  0  0  0  0  0  0  0  0  0
    1.4750   -0.8542    0.0000 C   0  0  0  0  0  0  0  0  0  0  0  0
    6.8125   -1.7625    0.0000 C   0  0  0  0  0  0  0  0  0  0  0  0
    7.4667   -1.4750    0.0000 C   0  0  0  0  0  0  0  0  0  0  0  0
  2  1  1  0  0  0  0
  3  1  1  0  0  0  0
  4  2  1  0  0  0  0
  5  3  1  0  0  0  0
  6  1  1  0  0  0  0
  7  4  1  0  0  0  0
  8 15  1  0  0  0  0
  9  8  1  0  0  0  0
 10  6  1  0  0  0  0
 11  2  2  0  0  0  0
 12  6  2  0  0  0  0
 13  3  2  0  0  0  0
 14 16  1  0  0  0  0
 15 17  1  0  0  0  0
 16  7  1  0  0  0  0
 17  7  1  0  0  0  0
 18  9  2  0  0  0  0
 19 10  2  0  0  0  0
 20 22  2  0  0  0  0
 21  9  1  0  0  0  0
 22 12  1  0  0  0  0
 23 20  1  0  0  0  0
 24 10  1  0  0  0  0
 25 21  1  0  0  0  0
 26 25  1  0  0  0  0
  5  4  1  0  0  0  0
 20 19  1  0  0  0  0
  8 14  1  0  0  0  0
M  END
> <IDNUMBER>
F3023-0825

> <Chemical_Name>
ethyl 4-[1-(4-iodo-2-methylphenyl)-2,5-dioxopyrrolidin-3-yl]piperazine-1-carboxylate

> <CAS>
857494-11-2

> <PriceCoeff>
1.00

> <MW>
471.29

> <Description>
solid

> <FSP3>
0.50

> <clogP>
3.88

> <TPSA>
70.16

> <Acceptor>
4

> <Donor>
1

> <RotBonds>
5

> <HAC>
26

> <Collection>
General

$$$$
F0327-0315
  -ISIS-  06222321142D

 32 36  0  0  0  0  0  0  0  0999 V2000
   -2.3125   -3.2375    0.0000 C   0  0  0  0  0  0  0  0  0  0  0  0
   -2.7958   -3.9375    0.0000 N   0  0  0  0  0  0  0  0  0  0  0  0
    1.1042    2.3833    0.0000 N   0  0  3  0  0  0  0  0  0  0  0  0
   -1.4333   -3.1542    0.0000 C   0  0  0  0  0  0  0  0  0  0  0  0
   -2.7958   -2.5375    0.0000 S   0  0  0  0  0  0  0  0  0  0  0  0
    0.7292    3.1458    0.0000 C   0  0  0  0  0  0  0  0  0  0  0  0
    1.9667    2.5000    0.0000 C   0  0  0  0  0  0  0  0  0  0  0  0
   -0.3500   -0.7792    0.0000 C   0  0  0  0  0  0  0  0  0  0  0  0
   -3.6125   -3.6792    0.0000 C   0  0  0  0  0  0  0  0  0  0  0  0
   -3.6125   -2.8000    0.0000 C   0  0  0  0  0  0  0  0  0  0  0  0
    0.1500   -1.5000    0.0000 N   0  0  0  0  0  0  0  0  0  0  0  0
    0.7292    1.5833    0.0000 C   0  0  0  0  0  0  0  0  0  0  0  0
   -0.9500   -3.8792    0.0000 C   0  0  0  0  0  0  0  0  0  0  0  0
   -1.0708   -2.3542    0.0000 C   0  0  0  0  0  0  0  0  0  0  0  0
    0.0042   -0.0000    0.0000 C   0  0  0  0  0  0  0  0  0  0  0  0
   -0.2125   -2.3000    0.0000 C   0  0  0  0  0  0  0  0  0  0  0  0
    2.1042    3.3458    0.0000 C   0  0  0  0  0  0  0  0  0  0  0  0
    1.3667    3.7458    0.0000 C   0  0  0  0  0  0  0  0  0  0  0  0
   -1.2125   -0.8792    0.0000 O   0  0  0  0  0  0  0  0  0  0  0  0
   -0.1500    3.3000    0.0000 O   0  0  0  0  0  0  0  0  0  0  0  0
    2.5667    1.8833    0.0000 O   0  0  0  0  0  0  0  0  0  0  0  0
    1.2500    0.8833    0.0000 C   0  0  0  0  0  0  0  0  0  0  0  0
   -0.1125    1.5000    0.0000 C   0  0  0  0  0  0  0  0  0  0  0  0
    0.8667    0.0833    0.0000 C   0  0  0  0  0  0  0  0  0  0  0  0
   -0.4958    0.7208    0.0000 C   0  0  0  0  0  0  0  0  0  0  0  0
   -0.0708   -3.8000    0.0000 C   0  0  0  0  0  0  0  0  0  0  0  0
    0.2875   -3.0167    0.0000 C   0  0  0  0  0  0  0  0  0  0  0  0
   -1.3333   -4.6792    0.0000 O   0  0  0  0  0  0  0  0  0  0  0  0
   -4.3708   -4.1167    0.0000 C   0  0  0  0  0  0  0  0  0  0  0  0
   -4.3708   -2.3792    0.0000 C   0  0  0  0  0  0  0  0  0  0  0  0
   -5.1333   -2.8000    0.0000 C   0  0  0  0  0  0  0  0  0  0  0  0
   -5.1333   -3.6792    0.0000 C   0  0  0  0  0  0  0  0  0  0  0  0
  2  1  2  0  0  0  0
  3 12  1  0  0  0  0
  4  1  1  0  0  0  0
  5  1  1  0  0  0  0
  6  3  1  0  0  0  0
  7  3  1  0  0  0  0
  8 11  1  0  0  0  0
  9  2  1  0  0  0  0
 10  5  1  0  0  0  0
 11 16  1  0  0  0  0
 12 23  1  0  0  0  0
 13  4  2  0  0  0  0
 14  4  1  0  0  0  0
 15  8  1  0  0  0  0
 16 14  2  0  0  0  0
 17  7  1  0  0  0  0
 18  6  1  0  0  0  0
 19  8  2  0  0  0  0
 20  6  2  0  0  0  0
 21  7  2  0  0  0  0
 22 24  1  0  0  0  0
 23 25  2  0  0  0  0
 24 15  2  0  0  0  0
 25 15  1  0  0  0  0
 26 13  1  0  0  0  0
 27 16  1  0  0  0  0
 28 13  1  0  0  0  0
 29  9  1  0  0  0  0
 30 10  1  0  0  0  0
 31 30  2  0  0  0  0
 32 29  2  0  0  0  0
  9 10  2  0  0  0  0
 26 27  2  0  0  0  0
 31 32  1  0  0  0  0
 22 12  2  0  0  0  0
 18 17  1  0  0  0  0
M  END
> <IDNUMBER>
F0327-0315

> <Chemical_Name>
N-[3-(1,3-benzothiazol-2-yl)-4-hydroxyphenyl]-4-(2,5-dioxopyrrolidin-1-yl)benzamide

> <CAS>
313405-85-5

> <PriceCoeff>
1.00

> <MW>
443.47

> <Description>
solid

> <FSP3>
0.08

> <clogP>
2.24

> <TPSA>
127.84

> <Acceptor>
5

> <Donor>
2

> <RotBonds>
4

> <HAC>
32

> <Collection>
General

$$$$
F1365-0372
  -ISIS-  06222321452D

 27 29  0  0  0  0  0  0  0  0999 V2000
   -1.1625    2.3833    0.0000 C   0  0  0  0  0  0  0  0  0  0  0  0
    1.3167    3.8083    0.0000 N   0  0  3  0  0  0  0  0  0  0  0  0
   -1.6458    1.7208    0.0000 N   0  0  3  0  0  0  0  0  0  0  0  0
   -0.3375    2.3750    0.0000 N   0  0  0  0  0  0  0  0  0  0  0  0
   -1.6458    3.0500    0.0000 S   0  0  0  0  0  0  0  0  0  0  0  0
   -2.4333    2.7958    0.0000 C   0  0  0  0  0  0  0  0  0  0  0  0
   -2.4333    1.9708    0.0000 C   0  0  0  0  0  0  0  0  0  0  0  0
    2.1292    3.8833    0.0000 C   0  0  0  0  0  0  0  0  0  0  0  0
    0.9792    4.5417    0.0000 C   0  0  0  0  0  0  0  0  0  0  0  0
    0.0750    3.0875    0.0000 C   0  0  0  0  0  0  0  0  0  0  0  0
    0.9000    3.0875    0.0000 C   0  0  0  0  0  0  0  0  0  0  0  0
   -4.5833    3.2125    0.0000 C   0  0  0  0  0  0  0  0  0  0  0  0
   -3.1458    3.2083    0.0000 C   0  0  0  0  0  0  0  0  0  0  0  0
   -3.8583    2.7958    0.0000 C   0  0  0  0  0  0  0  0  0  0  0  0
   -3.1458    1.5583    0.0000 C   0  0  0  0  0  0  0  0  0  0  0  0
    1.5917    5.0917    0.0000 C   0  0  0  0  0  0  0  0  0  0  0  0
    2.3125    4.6917    0.0000 C   0  0  0  0  0  0  0  0  0  0  0  0
    0.1792    4.7292    0.0000 O   0  0  0  0  0  0  0  0  0  0  0  0
    2.6875    3.2708    0.0000 O   0  0  0  0  0  0  0  0  0  0  0  0
   -3.8583    1.9708    0.0000 C   0  0  0  0  0  0  0  0  0  0  0  0
   -0.3375    3.8000    0.0000 O   0  0  0  0  0  0  0  0  0  0  0  0
   -5.2875    2.8000    0.0000 O   0  0  0  0  0  0  0  0  0  0  0  0
   -1.9458    0.3208    0.0000 C   0  0  0  0  0  0  0  0  0  0  0  0
   -1.3958    0.9333    0.0000 C   0  0  0  0  0  0  0  0  0  0  0  0
   -2.7500    0.4875    0.0000 C   0  0  0  0  0  0  0  0  0  0  0  0
   -4.5708    4.0292    0.0000 O   0  0  0  0  0  0  0  0  0  0  0  0
   -5.2875    4.4417    0.0000 C   0  0  0  0  0  0  0  0  0  0  0  0
  2 11  1  0  0  0  0
  3  1  1  0  0  0  0
  4  1  2  0  0  0  0
  5  1  1  0  0  0  0
  6  5  1  0  0  0  0
  7  3  1  0  0  0  0
  8  2  1  0  0  0  0
  9  2  1  0  0  0  0
 10  4  1  0  0  0  0
 11 10  1  0  0  0  0
 12 14  1  0  0  0  0
 13  6  1  0  0  0  0
 14 13  2  0  0  0  0
 15  7  1  0  0  0  0
 16  9  1  0  0  0  0
 17  8  1  0  0  0  0
 18  9  2  0  0  0  0
 19  8  2  0  0  0  0
 20 15  2  0  0  0  0
 21 10  2  0  0  0  0
 22 12  2  0  0  0  0
 23 24  1  0  0  0  0
 24  3  1  0  0  0  0
 25 23  2  0  0  0  0
 26 12  1  0  0  0  0
 27 26  1  0  0  0  0
  7  6  2  0  0  0  0
 20 14  1  0  0  0  0
 17 16  1  0  0  0  0
M  END
> <IDNUMBER>
F1365-0372

> <Chemical_Name>
methyl (2Z)-2-{[2-(2,5-dioxopyrrolidin-1-yl)acetyl]imino}-3-(prop-2-en-1-yl)-2,3-dihydro-1,3-benzothiazole-6-carboxylate

> <CAS>
865174-97-6

> <PriceCoeff>
1.00

> <MW>
387.41

> <Description>
solid

> <FSP3>
0.28

> <clogP>
3.52

> <TPSA>
121.65

> <Acceptor>
5

> <Donor>
0

> <RotBonds>
7

> <HAC>
27

> <Collection>
General

$$$$
F1799-0413
  -ISIS-  06222321442D

 25 27  0  0  0  0  0  0  0  0999 V2000
    2.2417   -2.1667    0.0000 N   0  0  3  0  0  0  0  0  0  0  0  0
    2.0042   -2.8792    0.0000 C   0  0  0  0  0  0  0  0  0  0  0  0
    1.6375   -1.7292    0.0000 C   0  0  0  0  0  0  0  0  0  0  0  0
    1.0292   -2.1667    0.0000 C   0  0  3  0  0  0  0  0  0  0  0  0
    1.2625   -2.8792    0.0000 C   0  0  0  0  0  0  0  0  0  0  0  0
   -0.5583   -0.9667    0.0000 C   0  0  0  0  0  0  0  0  0  0  0  0
    0.3167   -1.9375    0.0000 N   0  0  0  0  0  0  0  0  0  0  0  0
    0.1542   -1.2042    0.0000 N   0  0  0  0  0  0  0  0  0  0  0  0
    2.9542   -1.9375    0.0000 C   0  0  0  0  0  0  0  0  0  0  0  0
   -0.7083   -0.2375    0.0000 C   0  0  0  0  0  0  0  0  0  0  0  0
    2.4417   -3.4875    0.0000 O   0  0  0  0  0  0  0  0  0  0  0  0
    1.6292   -0.9792    0.0000 O   0  0  0  0  0  0  0  0  0  0  0  0
   -1.1125   -1.4667    0.0000 O   0  0  0  0  0  0  0  0  0  0  0  0
   -1.4250   -0.0042    0.0000 C   0  0  0  0  0  0  0  0  0  0  0  0
    3.5125   -2.4375    0.0000 C   0  0  0  0  0  0  0  0  0  0  0  0
    3.1125   -1.2042    0.0000 C   0  0  0  0  0  0  0  0  0  0  0  0
    4.3792   -1.4667    0.0000 C   0  0  0  0  0  0  0  0  0  0  0  0
    3.8250   -0.9667    0.0000 C   0  0  0  0  0  0  0  0  0  0  0  0
    4.2250   -2.2042    0.0000 C   0  0  0  0  0  0  0  0  0  0  0  0
    5.0917   -1.2417    0.0000 Cl  0  0  0  0  0  0  0  0  0  0  0  0
   -0.1583    0.2625    0.0000 C   0  0  0  0  0  0  0  0  0  0  0  0
   -1.9833   -0.5042    0.0000 C   0  0  0  0  0  0  0  0  0  0  0  0
   -1.5833    0.7333    0.0000 C   0  0  0  0  0  0  0  0  0  0  0  0
   -0.3083    1.0000    0.0000 C   0  0  0  0  0  0  0  0  0  0  0  0
   -1.0208    1.2333    0.0000 C   0  0  0  0  0  0  0  0  0  0  0  0
  2  1  1  0  0  0  0
  3  1  1  0  0  0  0
  4  3  1  0  0  0  0
  5  2  1  0  0  0  0
  6  8  1  0  0  0  0
  7  4  1  0  0  0  0
  8  7  1  0  0  0  0
  9  1  1  0  0  0  0
 10  6  1  0  0  0  0
 11  2  2  0  0  0  0
 12  3  2  0  0  0  0
 13  6  2  0  0  0  0
 14 10  2  0  0  0  0
 15  9  1  0  0  0  0
 16  9  2  0  0  0  0
 17 18  2  0  0  0  0
 18 16  1  0  0  0  0
 19 15  2  0  0  0  0
 20 17  1  0  0  0  0
 21 10  1  0  0  0  0
 22 14  1  0  0  0  0
 23 14  1  0  0  0  0
 24 21  2  0  0  0  0
 25 24  1  0  0  0  0
  5  4  1  0  0  0  0
 17 19  1  0  0  0  0
 23 25  2  0  0  0  0
M  END
> <IDNUMBER>
F1799-0413

> <Chemical_Name>
N'-[1-(4-chlorophenyl)-2,5-dioxopyrrolidin-3-yl]-2-methylbenzohydrazide

> <CAS>
485394-86-3

> <PriceCoeff>
1.00

> <MW>
357.79

> <Description>
solid

> <FSP3>
0.17

> <clogP>
2.98

> <TPSA>
78.51

> <Acceptor>
3

> <Donor>
2

> <RotBonds>
4

> <HAC>
25

> <Collection>
General

$$$$
F0700-0156
  -ISIS-  06222321452D

 32 36  0  0  0  0  0  0  0  0999 V2000
   -0.8625   -0.1167    0.0000 C   0  0  0  0  0  0  0  0  0  0  0  0
    3.1792   -0.1875    0.0000 N   0  0  3  0  0  0  0  0  0  0  0  0
   -1.2125   -0.5667    0.0000 N   0  0  0  0  0  0  0  0  0  0  0  0
   -0.2958   -0.1292    0.0000 C   0  0  0  0  0  0  0  0  0  0  0  0
   -1.1625    0.3500    0.0000 S   0  0  0  0  0  0  0  0  0  0  0  0
    2.6000   -0.1792    0.0000 C   0  0  0  0  0  0  0  0  0  0  0  0
    3.5042   -0.6542    0.0000 C   0  0  0  0  0  0  0  0  0  0  0  0
    3.5667    0.2708    0.0000 C   0  0  0  0  0  0  0  0  0  0  0  0
    1.4375    0.8708    0.0000 C   0  0  0  0  0  0  0  0  0  0  0  0
   -1.7625   -0.3542    0.0000 C   0  0  0  0  0  0  0  0  0  0  0  0
   -1.7333    0.2125    0.0000 C   0  0  0  0  0  0  0  0  0  0  0  0
    0.8500    0.8708    0.0000 N   0  0  0  0  0  0  0  0  0  0  0  0
    2.3167    0.3500    0.0000 C   0  0  0  0  0  0  0  0  0  0  0  0
    1.7292    0.3625    0.0000 C   0  0  0  0  0  0  0  0  0  0  0  0
    0.0000   -0.6375    0.0000 C   0  0  0  0  0  0  0  0  0  0  0  0
   -0.0125    0.3708    0.0000 C   0  0  0  0  0  0  0  0  0  0  0  0
    0.5667    0.3708    0.0000 C   0  0  0  0  0  0  0  0  0  0  0  0
    1.7292    1.3833    0.0000 O   0  0  0  0  0  0  0  0  0  0  0  0
    4.0875    0.0458    0.0000 C   0  0  0  0  0  0  0  0  0  0  0  0
    4.0667   -0.5292    0.0000 C   0  0  0  0  0  0  0  0  0  0  0  0
    3.4292    0.8333    0.0000 O   0  0  0  0  0  0  0  0  0  0  0  0
    3.3000   -1.2167    0.0000 O   0  0  0  0  0  0  0  0  0  0  0  0
    0.5667   -0.6292    0.0000 C   0  0  0  0  0  0  0  0  0  0  0  0
    0.8542   -0.1292    0.0000 C   0  0  0  0  0  0  0  0  0  0  0  0
   -0.3500   -1.0292    0.0000 O   0  0  0  0  0  0  0  0  0  0  0  0
    2.3042   -0.6292    0.0000 C   0  0  0  0  0  0  0  0  0  0  0  0
    1.4292   -0.1542    0.0000 C   0  0  0  0  0  0  0  0  0  0  0  0
    1.7167   -0.6500    0.0000 C   0  0  0  0  0  0  0  0  0  0  0  0
   -2.2708   -0.6167    0.0000 C   0  0  0  0  0  0  0  0  0  0  0  0
   -2.2000    0.5333    0.0000 C   0  0  0  0  0  0  0  0  0  0  0  0
   -2.7208    0.2708    0.0000 C   0  0  0  0  0  0  0  0  0  0  0  0
   -2.7500   -0.3000    0.0000 C   0  0  0  0  0  0  0  0  0  0  0  0
  2  6  1  0  0  0  0
  3  1  2  0  0  0  0
  4  1  1  0  0  0  0
  5  1  1  0  0  0  0
  6 13  2  0  0  0  0
  7  2  1  0  0  0  0
  8  2  1  0  0  0  0
  9 12  1  0  0  0  0
 10  3  1  0  0  0  0
 11  5  1  0  0  0  0
 12 17  1  0  0  0  0
 13 14  1  0  0  0  0
 14  9  1  0  0  0  0
 15  4  2  0  0  0  0
 16  4  1  0  0  0  0
 17 16  2  0  0  0  0
 18  9  2  0  0  0  0
 19  8  1  0  0  0  0
 20  7  1  0  0  0  0
 21  8  2  0  0  0  0
 22  7  2  0  0  0  0
 23 15  1  0  0  0  0
 24 17  1  0  0  0  0
 25 15  1  0  0  0  0
 26 28  2  0  0  0  0
 27 14  2  0  0  0  0
 28 27  1  0  0  0  0
 29 10  1  0  0  0  0
 30 11  1  0  0  0  0
 31 30  2  0  0  0  0
 32 29  2  0  0  0  0
 11 10  2  0  0  0  0
 23 24  2  0  0  0  0
 31 32  1  0  0  0  0
  6 26  1  0  0  0  0
 19 20  1  0  0  0  0
M  END
> <IDNUMBER>
F0700-0156

> <Chemical_Name>
N-[3-(1,3-benzothiazol-2-yl)-4-hydroxyphenyl]-3-(2,5-dioxopyrrolidin-1-yl)benzamide

> <CAS>
361479-48-3

> <PriceCoeff>
1.00

> <MW>
443.47

> <Description>
solid

> <FSP3>
0.08

> <clogP>
2.24

> <TPSA>
127.84

> <Acceptor>
5

> <Donor>
2

> <RotBonds>
4

> <HAC>
32

> <Collection>
General

$$$$
F1791-1068
  -ISIS-  06222321452D

 24 26  0  0  0  0  0  0  0  0999 V2000
    4.5667    0.4083    0.0000 N   0  0  3  0  0  0  0  0  0  0  0  0
    5.0792    1.1125    0.0000 C   0  0  0  0  0  0  0  0  0  0  0  0
    5.0792   -0.2917    0.0000 C   0  0  0  0  0  0  0  0  0  0  0  0
    5.9042   -0.0250    0.0000 C   0  0  3  0  0  0  0  0  0  0  0  0
    5.9042    0.8458    0.0000 C   0  0  0  0  0  0  0  0  0  0  0  0
    8.0667   -0.9167    0.0000 C   0  0  0  0  0  0  0  0  0  0  0  0
    6.6125   -0.5375    0.0000 S   0  0  0  0  0  0  0  0  0  0  0  0
    7.4500   -0.3042    0.0000 C   0  0  0  0  0  0  0  0  0  0  0  0
    7.8417   -1.7625    0.0000 C   0  0  0  0  0  0  0  0  0  0  0  0
    3.7000    0.4083    0.0000 C   0  0  0  0  0  0  0  0  0  0  0  0
    4.8042    1.9458    0.0000 O   0  0  0  0  0  0  0  0  0  0  0  0
    4.8042   -1.1167    0.0000 O   0  0  0  0  0  0  0  0  0  0  0  0
    8.4667   -2.3750    0.0000 O   0  0  0  0  0  0  0  0  0  0  0  0
    3.2667   -0.3417    0.0000 C   0  0  0  0  0  0  0  0  0  0  0  0
    3.2667    1.1625    0.0000 C   0  0  0  0  0  0  0  0  0  0  0  0
    7.0042   -1.9917    0.0000 O   0  0  0  0  0  0  0  0  0  0  0  0
    1.9667    0.4083    0.0000 C   0  0  0  0  0  0  0  0  0  0  0  0
    2.4000   -0.3417    0.0000 C   0  0  0  0  0  0  0  0  0  0  0  0
    2.3917    1.1583    0.0000 C   0  0  0  0  0  0  0  0  0  0  0  0
    8.9000   -0.6875    0.0000 C   0  0  0  0  0  0  0  0  0  0  0  0
    1.0917    0.4083    0.0000 O   0  0  0  0  0  0  0  0  0  0  0  0
    7.6625    0.5333    0.0000 C   0  0  0  0  0  0  0  0  0  0  0  0
    9.1167    0.1583    0.0000 C   0  0  0  0  0  0  0  0  0  0  0  0
    8.4917    0.7625    0.0000 C   0  0  0  0  0  0  0  0  0  0  0  0
  2  1  1  0  0  0  0
  3  1  1  0  0  0  0
  4  3  1  0  0  0  0
  5  2  1  0  0  0  0
  6  8  2  0  0  0  0
  7  4  1  0  0  0  0
  8  7  1  0  0  0  0
  9  6  1  0  0  0  0
 10  1  1  0  0  0  0
 11  2  2  0  0  0  0
 12  3  2  0  0  0  0
 13  9  2  0  0  0  0
 14 10  1  0  0  0  0
 15 10  2  0  0  0  0
 16  9  1  0  0  0  0
 17 19  2  0  0  0  0
 18 14  2  0  0  0  0
 19 15  1  0  0  0  0
 20  6  1  0  0  0  0
 21 17  1  0  0  0  0
 22  8  1  0  0  0  0
 23 24  1  0  0  0  0
 24 22  2  0  0  0  0
  5  4  1  0  0  0  0
 17 18  1  0  0  0  0
 23 20  2  0  0  0  0
M  END
> <IDNUMBER>
F1791-1068

> <Chemical_Name>
2-{[1-(4-hydroxyphenyl)-2,5-dioxopyrrolidin-3-yl]sulfanyl}benzoic acid

> <CAS>
670255-06-8

> <PriceCoeff>
1.00

> <MW>
343.35

> <Description>
solid

> <FSP3>
0.12

> <clogP>
1.40

> <TPSA>
120.21

> <Acceptor>
5

> <Donor>
1

> <RotBonds>
4

> <HAC>
24

> <Collection>
General

$$$$
F0725-0495
  -ISIS-  06222321142D

 31 35  0  0  0  0  0  0  0  0999 V2000
    0.4167    1.6958    0.0000 C   0  0  0  0  0  0  0  0  0  0  0  0
    4.0542    2.7333    0.0000 N   0  0  3  0  0  0  0  0  0  0  0  0
    0.0167    1.2208    0.0000 N   0  0  0  0  0  0  0  0  0  0  0  0
    0.1167    2.2083    0.0000 S   0  0  0  0  0  0  0  0  0  0  0  0
    4.6667    2.7958    0.0000 C   0  0  0  0  0  0  0  0  0  0  0  0
    3.8167    3.3208    0.0000 C   0  0  0  0  0  0  0  0  0  0  0  0
    2.8375    0.6458    0.0000 C   0  0  0  0  0  0  0  0  0  0  0  0
   -0.5333    1.4625    0.0000 C   0  0  0  0  0  0  0  0  0  0  0  0
   -0.4708    2.0708    0.0000 C   0  0  0  0  0  0  0  0  0  0  0  0
    2.2292    0.6458    0.0000 N   0  0  0  0  0  0  0  0  0  0  0  0
    1.0292    1.7000    0.0000 C   0  0  0  0  0  0  0  0  0  0  0  0
    3.7500    2.2333    0.0000 C   0  0  0  0  0  0  0  0  0  0  0  0
    3.1375    1.1625    0.0000 C   0  0  0  0  0  0  0  0  0  0  0  0
    1.9167    1.1708    0.0000 C   0  0  0  0  0  0  0  0  0  0  0  0
    1.3292    1.1833    0.0000 C   0  0  0  0  0  0  0  0  0  0  0  0
    4.3000    3.7125    0.0000 C   0  0  0  0  0  0  0  0  0  0  0  0
    4.8042    3.4208    0.0000 C   0  0  0  0  0  0  0  0  0  0  0  0
    3.1375    0.1000    0.0000 O   0  0  0  0  0  0  0  0  0  0  0  0
    5.0667    2.3000    0.0000 O   0  0  0  0  0  0  0  0  0  0  0  0
    3.2042    3.4458    0.0000 O   0  0  0  0  0  0  0  0  0  0  0  0
    4.0542    1.7000    0.0000 C   0  0  0  0  0  0  0  0  0  0  0  0
    3.1292    2.2208    0.0000 C   0  0  0  0  0  0  0  0  0  0  0  0
    2.8292    1.6958    0.0000 C   0  0  0  0  0  0  0  0  0  0  0  0
    3.7542    1.1833    0.0000 C   0  0  0  0  0  0  0  0  0  0  0  0
    1.3167    2.2125    0.0000 C   0  0  0  0  0  0  0  0  0  0  0  0
    1.9042    2.2208    0.0000 C   0  0  0  0  0  0  0  0  0  0  0  0
   -1.1000    1.2208    0.0000 C   0  0  0  0  0  0  0  0  0  0  0  0
   -0.9958    2.4125    0.0000 C   0  0  0  0  0  0  0  0  0  0  0  0
    2.2500    1.6958    0.0000 C   0  0  0  0  0  0  0  0  0  0  0  0
   -1.5458    2.1958    0.0000 C   0  0  0  0  0  0  0  0  0  0  0  0
   -1.6125    1.5708    0.0000 C   0  0  0  0  0  0  0  0  0  0  0  0
  2 12  1  0  0  0  0
  3  1  2  0  0  0  0
  4  1  1  0  0  0  0
  5  2  1  0  0  0  0
  6  2  1  0  0  0  0
  7 10  1  0  0  0  0
  8  3  1  0  0  0  0
  9  4  1  0  0  0  0
 10 14  1  0  0  0  0
 11  1  1  0  0  0  0
 12 21  1  0  0  0  0
 13  7  1  0  0  0  0
 14 15  1  0  0  0  0
 15 11  2  0  0  0  0
 16  6  1  0  0  0  0
 17  5  1  0  0  0  0
 18  7  2  0  0  0  0
 19  5  2  0  0  0  0
 20  6  2  0  0  0  0
 21 24  2  0  0  0  0
 22 23  1  0  0  0  0
 23 13  2  0  0  0  0
 24 13  1  0  0  0  0
 25 11  1  0  0  0  0
 26 25  2  0  0  0  0
 27  8  1  0  0  0  0
 28  9  1  0  0  0  0
 29 26  1  0  0  0  0
 30 28  2  0  0  0  0
 31 27  2  0  0  0  0
  9  8  2  0  0  0  0
 29 14  2  0  0  0  0
 30 31  1  0  0  0  0
 12 22  2  0  0  0  0
 16 17  1  0  0  0  0
M  END
> <IDNUMBER>
F0725-0495

> <Chemical_Name>
N-[3-(1,3-benzothiazol-2-yl)phenyl]-4-(2,5-dioxopyrrolidin-1-yl)benzamide

> <CAS>
448240-53-7

> <PriceCoeff>
1.00

> <MW>
427.48

> <Description>
solid

> <FSP3>
0.08

> <clogP>
3.01

> <TPSA>
107.61

> <Acceptor>
4

> <Donor>
1

> <RotBonds>
4

> <HAC>
31

> <Collection>
General

$$$$
F0816-0636
  -ISIS-  06222321142D

 31 35  0  0  0  0  0  0  0  0999 V2000
    2.9000   -0.2542    0.0000 N   0  0  3  0  0  0  0  0  0  0  0  0
   -1.4208    1.3208    0.0000 C   0  0  0  0  0  0  0  0  0  0  0  0
   -1.7458    0.8458    0.0000 N   0  0  0  0  0  0  0  0  0  0  0  0
   -1.7458    1.7625    0.0000 S   0  0  0  0  0  0  0  0  0  0  0  0
    2.6167    0.2458    0.0000 C   0  0  0  0  0  0  0  0  0  0  0  0
    2.7375   -0.8167    0.0000 C   0  0  0  0  0  0  0  0  0  0  0  0
    3.4792   -0.2542    0.0000 C   0  0  0  0  0  0  0  0  0  0  0  0
    1.1792    0.7458    0.0000 C   0  0  0  0  0  0  0  0  0  0  0  0
   -2.2833    1.0208    0.0000 C   0  0  0  0  0  0  0  0  0  0  0  0
   -2.2833    1.6000    0.0000 C   0  0  0  0  0  0  0  0  0  0  0  0
    0.9000    1.2458    0.0000 N   0  0  0  0  0  0  0  0  0  0  0  0
    2.0375    0.2458    0.0000 C   0  0  0  0  0  0  0  0  0  0  0  0
    1.7542    0.7458    0.0000 C   0  0  0  0  0  0  0  0  0  0  0  0
   -0.8458    1.2833    0.0000 C   0  0  0  0  0  0  0  0  0  0  0  0
    0.9000    0.2458    0.0000 O   0  0  0  0  0  0  0  0  0  0  0  0
    3.2000   -1.1375    0.0000 C   0  0  0  0  0  0  0  0  0  0  0  0
    3.6375   -0.8167    0.0000 C   0  0  0  0  0  0  0  0  0  0  0  0
    2.1792   -1.0167    0.0000 O   0  0  0  0  0  0  0  0  0  0  0  0
    3.8167    0.2208    0.0000 O   0  0  0  0  0  0  0  0  0  0  0  0
   -0.5625    0.7833    0.0000 C   0  0  0  0  0  0  0  0  0  0  0  0
   -0.5208    1.7625    0.0000 C   0  0  0  0  0  0  0  0  0  0  0  0
    0.3167    1.2458    0.0000 C   0  0  0  0  0  0  0  0  0  0  0  0
    0.0542    1.7458    0.0000 C   0  0  0  0  0  0  0  0  0  0  0  0
    0.0000    0.7625    0.0000 C   0  0  0  0  0  0  0  0  0  0  0  0
    2.9000    0.7458    0.0000 C   0  0  0  0  0  0  0  0  0  0  0  0
    2.0375    1.2458    0.0000 C   0  0  0  0  0  0  0  0  0  0  0  0
    2.6167    1.2458    0.0000 C   0  0  0  0  0  0  0  0  0  0  0  0
   -2.7833    0.7208    0.0000 C   0  0  0  0  0  0  0  0  0  0  0  0
   -2.7833    1.8833    0.0000 C   0  0  0  0  0  0  0  0  0  0  0  0
   -3.2833    1.6000    0.0000 C   0  0  0  0  0  0  0  0  0  0  0  0
   -3.2833    1.0208    0.0000 C   0  0  0  0  0  0  0  0  0  0  0  0
  2 14  1  0  0  0  0
  3  2  2  0  0  0  0
  4  2  1  0  0  0  0
  5  1  1  0  0  0  0
  6  1  1  0  0  0  0
  7  1  1  0  0  0  0
  8 13  1  0  0  0  0
  9  3  1  0  0  0  0
 10  4  1  0  0  0  0
 11  8  1  0  0  0  0
 12  5  1  0  0  0  0
 13 12  2  0  0  0  0
 14 20  2  0  0  0  0
 15  8  2  0  0  0  0
 16  6  1  0  0  0  0
 17  7  1  0  0  0  0
 18  6  2  0  0  0  0
 19  7  2  0  0  0  0
 20 24  1  0  0  0  0
 21 23  2  0  0  0  0
 22 11  1  0  0  0  0
 23 22  1  0  0  0  0
 24 22  2  0  0  0  0
 25  5  2  0  0  0  0
 26 27  2  0  0  0  0
 27 25  1  0  0  0  0
 28  9  1  0  0  0  0
 29 10  1  0  0  0  0
 30 29  2  0  0  0  0
 31 28  2  0  0  0  0
 17 16  1  0  0  0  0
 13 26  1  0  0  0  0
 21 14  1  0  0  0  0
  9 10  2  0  0  0  0
 31 30  1  0  0  0  0
M  END
> <IDNUMBER>
F0816-0636

> <Chemical_Name>
N-[4-(1,3-benzothiazol-2-yl)phenyl]-3-(2,5-dioxopyrrolidin-1-yl)benzamide

> <CAS>
477538-30-0

> <PriceCoeff>
1.00

> <MW>
427.48

> <Description>
solid

> <FSP3>
0.08

> <clogP>
3.01

> <TPSA>
107.61

> <Acceptor>
4

> <Donor>
1

> <RotBonds>
4

> <HAC>
31

> <Collection>
General

$$$$
F0838-0508
  -ISIS-  06222321142D

 22 24  0  0  0  0  0  0  0  0999 V2000
    0.3292   -0.8667    0.0000 C   0  0  0  0  0  0  0  0  0  0  0  0
   -0.9583    0.6333    0.0000 C   0  0  0  0  0  0  0  0  0  0  0  0
   -0.3083    1.7583    0.0000 N   0  3  0  0  0  0  0  0  0  0  0  0
   -0.9583    1.3833    0.0000 C   0  0  0  0  0  0  0  0  0  0  0  0
   -0.3083    0.2583    0.0000 C   0  0  0  0  0  0  0  0  0  0  0  0
    0.4000   -1.6167    0.0000 N   0  0  0  0  0  0  0  0  0  0  0  0
   -0.3208   -0.4917    0.0000 N   0  0  0  0  0  0  0  0  0  0  0  0
    1.0250   -0.5792    0.0000 S   0  0  0  0  0  0  0  0  0  0  0  0
    1.1417   -1.7917    0.0000 C   0  0  0  0  0  0  0  0  0  0  0  0
    1.5250   -1.1417    0.0000 C   0  0  0  0  0  0  0  0  0  0  0  0
   -1.6208    1.7708    0.0000 C   0  0  0  0  0  0  0  0  0  0  0  0
   -1.6208    0.2583    0.0000 C   0  0  0  0  0  0  0  0  0  0  0  0
   -0.3083    2.4875    0.0000 O   0  5  0  0  0  0  0  0  0  0  0  0
    0.3417    1.3833    0.0000 O   0  0  0  0  0  0  0  0  0  0  0  0
    0.3292    0.6208    0.0000 O   0  0  0  0  0  0  0  0  0  0  0  0
   -2.2708    1.3833    0.0000 C   0  0  0  0  0  0  0  0  0  0  0  0
   -2.2708    0.6333    0.0000 C   0  0  0  0  0  0  0  0  0  0  0  0
   -2.9208    1.7708    0.0000 Cl  0  0  0  0  0  0  0  0  0  0  0  0
    1.5125   -2.4042    0.0000 C   0  0  0  0  0  0  0  0  0  0  0  0
    2.2750   -1.1417    0.0000 C   0  0  0  0  0  0  0  0  0  0  0  0
    2.2542   -2.4042    0.0000 C   0  0  0  0  0  0  0  0  0  0  0  0
    2.6417   -1.7917    0.0000 C   0  0  0  0  0  0  0  0  0  0  0  0
  2  5  1  0  0  0  0
  3  4  1  0  0  0  0
  4  2  1  0  0  0  0
  5  7  1  0  0  0  0
  6  1  2  0  0  0  0
  7  1  1  0  0  0  0
  8  1  1  0  0  0  0
  9  6  1  0  0  0  0
 10  8  1  0  0  0  0
 11  4  2  0  0  0  0
 12  2  2  0  0  0  0
 13  3  1  0  0  0  0
 14  3  2  0  0  0  0
 15  5  2  0  0  0  0
 16 17  2  0  0  0  0
 17 12  1  0  0  0  0
 18 16  1  0  0  0  0
 19  9  1  0  0  0  0
 20 10  1  0  0  0  0
 21 19  2  0  0  0  0
 22 20  2  0  0  0  0
  9 10  2  0  0  0  0
 21 22  1  0  0  0  0
 11 16  1  0  0  0  0
M  CHG  2   3   1  13  -1
M  END
> <IDNUMBER>
F0838-0508

> <Chemical_Name>
N-(1,3-benzothiazol-2-yl)-4-chloro-2-nitrobenzamide

> <CAS>
330215-59-3

> <PriceCoeff>
1.00

> <MW>
333.75

> <Description>
solid

> <FSP3>
0.00

> <clogP>
3.16

> <TPSA>
113.37

> <Acceptor>
4

> <Donor>
1

> <RotBonds>
3

> <HAC>
22

> <Collection>
General

$$$$
F1065-0275
  -ISIS-  06222321142D

 24 26  0  0  0  0  0  0  0  0999 V2000
   -1.8458   -0.0667    0.0000 N   0  0  3  0  0  0  0  0  0  0  0  0
   -1.4625    1.1125    0.0000 C   0  0  0  0  0  0  0  0  0  0  0  0
   -0.8625   -0.7500    0.0000 C   0  0  0  0  0  0  0  0  0  0  0  0
    0.1375   -0.0500    0.0000 C   0  0  3  0  0  0  0  0  0  0  0  0
   -0.2500    1.1125    0.0000 C   0  0  0  0  0  0  0  0  0  0  0  0
    3.3792    0.0708    0.0000 C   0  0  0  0  0  0  0  0  0  0  0  0
   -2.9833   -0.5042    0.0000 C   0  0  0  0  0  0  0  0  0  0  0  0
    1.2875   -0.4042    0.0000 S   0  0  0  0  0  0  0  0  0  0  0  0
    2.2042    0.4458    0.0000 C   0  0  0  0  0  0  0  0  0  0  0  0
    3.6667   -1.1000    0.0000 C   0  0  0  0  0  0  0  0  0  0  0  0
   -2.2125    2.1208    0.0000 O   0  0  0  0  0  0  0  0  0  0  0  0
   -0.7958   -1.9875    0.0000 O   0  0  0  0  0  0  0  0  0  0  0  0
   -3.1625   -1.7000    0.0000 C   0  0  0  0  0  0  0  0  0  0  0  0
    2.8000   -1.9500    0.0000 O   0  0  0  0  0  0  0  0  0  0  0  0
    4.8500   -1.4167    0.0000 O   0  0  0  0  0  0  0  0  0  0  0  0
    4.2542    0.9208    0.0000 C   0  0  0  0  0  0  0  0  0  0  0  0
   -3.9458    0.2708    0.0000 C   0  0  0  0  0  0  0  0  0  0  0  0
    1.9042    1.6333    0.0000 C   0  0  0  0  0  0  0  0  0  0  0  0
   -2.2208   -2.4542    0.0000 C   0  0  0  0  0  0  0  0  0  0  0  0
   -4.3208   -2.1292    0.0000 C   0  0  0  0  0  0  0  0  0  0  0  0
    3.9542    2.1125    0.0000 C   0  0  0  0  0  0  0  0  0  0  0  0
   -5.0833   -0.1792    0.0000 C   0  0  0  0  0  0  0  0  0  0  0  0
    2.8042    2.4625    0.0000 C   0  0  0  0  0  0  0  0  0  0  0  0
   -5.2708   -1.3292    0.0000 C   0  0  0  0  0  0  0  0  0  0  0  0
  2  1  1  0  0  0  0
  3  1  1  0  0  0  0
  4  3  1  0  0  0  0
  5  2  1  0  0  0  0
  6  9  1  0  0  0  0
  7  1  1  0  0  0  0
  8  4  1  0  0  0  0
  9  8  1  0  0  0  0
 10  6  1  0  0  0  0
 11  2  2  0  0  0  0
 12  3  2  0  0  0  0
 13  7  1  0  0  0  0
 14 10  2  0  0  0  0
 15 10  1  0  0  0  0
 16  6  2  0  0  0  0
 17  7  2  0  0  0  0
 18  9  2  0  0  0  0
 19 13  1  0  0  0  0
 20 13  2  0  0  0  0
 21 23  2  0  0  0  0
 22 17  1  0  0  0  0
 23 18  1  0  0  0  0
 24 22  2  0  0  0  0
  5  4  1  0  0  0  0
 20 24  1  0  0  0  0
 16 21  1  0  0  0  0
M  END
> <IDNUMBER>
F1065-0275

> <Chemical_Name>
2-{[1-(2-methylphenyl)-2,5-dioxopyrrolidin-3-yl]sulfanyl}benzoic acid

> <CAS>
301683-43-2

> <PriceCoeff>
1.00

> <MW>
341.38

> <Description>
solid

> <FSP3>
0.17

> <clogP>
2.17

> <TPSA>
99.98

> <Acceptor>
4

> <Donor>
0

> <RotBonds>
4

> <HAC>
24

> <Collection>
General

$$$$
F1819-1181
  -ISIS-  06222321142D

 28 30  0  0  0  0  0  0  0  0999 V2000
   -4.5833    2.5500    0.0000 C   0  0  0  0  0  0  0  0  0  0  0  0
   -4.6750    1.7333    0.0000 N   0  0  3  0  0  0  0  0  0  0  0  0
   -5.3208    2.8958    0.0000 S   0  0  0  0  0  0  0  0  0  0  0  0
   -3.1583    5.0417    0.0000 N   0  0  3  0  0  0  0  0  0  0  0  0
   -3.8708    2.9708    0.0000 N   0  0  0  0  0  0  0  0  0  0  0  0
   -5.4833    1.5708    0.0000 C   0  0  0  0  0  0  0  0  0  0  0  0
   -5.8833    2.2958    0.0000 C   0  0  0  0  0  0  0  0  0  0  0  0
   -2.4833    5.5167    0.0000 C   0  0  0  0  0  0  0  0  0  0  0  0
   -3.8208    5.5167    0.0000 C   0  0  0  0  0  0  0  0  0  0  0  0
   -3.8708    3.8000    0.0000 C   0  0  0  0  0  0  0  0  0  0  0  0
   -6.7042    2.3083    0.0000 C   0  0  0  0  0  0  0  0  0  0  0  0
   -3.1583    4.2125    0.0000 C   0  0  0  0  0  0  0  0  0  0  0  0
   -4.0583    1.1625    0.0000 C   0  0  0  0  0  0  0  0  0  0  0  0
   -5.9083    0.8708    0.0000 C   0  0  0  0  0  0  0  0  0  0  0  0
   -4.2458    0.3500    0.0000 C   0  0  0  0  0  0  0  0  0  0  0  0
   -7.1292    1.6000    0.0000 C   0  0  0  0  0  0  0  0  0  0  0  0
   -3.5708    6.3042    0.0000 C   0  0  0  0  0  0  0  0  0  0  0  0
   -2.7458    6.3125    0.0000 C   0  0  0  0  0  0  0  0  0  0  0  0
   -4.6083    5.2750    0.0000 O   0  0  0  0  0  0  0  0  0  0  0  0
   -1.6958    5.2625    0.0000 O   0  0  0  0  0  0  0  0  0  0  0  0
   -4.5958    4.2125    0.0000 O   0  0  0  0  0  0  0  0  0  0  0  0
   -6.7167    0.8833    0.0000 C   0  0  0  0  0  0  0  0  0  0  0  0
   -5.0333    0.1083    0.0000 O   0  0  0  0  0  0  0  0  0  0  0  0
   -3.6458   -0.2042    0.0000 O   0  0  0  0  0  0  0  0  0  0  0  0
   -7.1042    3.0333    0.0000 C   0  0  0  0  0  0  0  0  0  0  0  0
   -7.1167    0.1583    0.0000 C   0  0  0  0  0  0  0  0  0  0  0  0
   -3.8250   -1.0042    0.0000 C   0  0  0  0  0  0  0  0  0  0  0  0
   -3.2208   -1.5667    0.0000 C   0  0  0  0  0  0  0  0  0  0  0  0
  2  1  1  0  0  0  0
  3  1  1  0  0  0  0
  4 12  1  0  0  0  0
  5  1  2  0  0  0  0
  6  2  1  0  0  0  0
  7  3  1  0  0  0  0
  8  4  1  0  0  0  0
  9  4  1  0  0  0  0
 10  5  1  0  0  0  0
 11  7  1  0  0  0  0
 12 10  1  0  0  0  0
 13  2  1  0  0  0  0
 14  6  1  0  0  0  0
 15 13  1  0  0  0  0
 16 11  2  0  0  0  0
 17  9  1  0  0  0  0
 18  8  1  0  0  0  0
 19  9  2  0  0  0  0
 20  8  2  0  0  0  0
 21 10  2  0  0  0  0
 22 14  2  0  0  0  0
 23 15  2  0  0  0  0
 24 15  1  0  0  0  0
 25 11  1  0  0  0  0
 26 22  1  0  0  0  0
 27 24  1  0  0  0  0
 28 27  1  0  0  0  0
  6  7  2  0  0  0  0
 16 22  1  0  0  0  0
 18 17  1  0  0  0  0
M  END
> <IDNUMBER>
F1819-1181

> <Chemical_Name>
ethyl 2-[(2Z)-2-{[2-(2,5-dioxopyrrolidin-1-yl)acetyl]imino}-5,7-dimethyl-2,3-dihydro-1,3-benzothiazol-3-yl]acetate

> <CAS>
1322256-78-9

> <PriceCoeff>
1.00

> <MW>
403.45

> <Description>
solid

> <FSP3>
0.42

> <clogP>
3.86

> <TPSA>
121.65

> <Acceptor>
5

> <Donor>
0

> <RotBonds>
7

> <HAC>
28

> <Collection>
General

$$$$
F0466-0059
  -ISIS-  06222321452D

 28 31  0  0  0  0  0  0  0  0999 V2000
   -1.0458    1.5208    0.0000 C   0  0  0  0  0  0  0  0  0  0  0  0
   -0.5125    1.5125    0.0000 C   0  0  0  0  0  0  0  0  0  0  0  0
   -1.3125    1.9208    0.0000 N   0  0  3  0  0  0  0  0  0  0  0  0
   -1.3708    1.1000    0.0000 N   0  0  0  0  0  0  0  0  0  0  0  0
    1.3042    0.1958    0.0000 N   0  0  3  0  0  0  0  0  0  0  0  0
   -0.2500    1.0500    0.0000 C   0  0  0  0  0  0  0  0  0  0  0  0
    1.0292    0.6125    0.0000 C   0  0  0  0  0  0  0  0  0  0  0  0
   -1.8000    1.8125    0.0000 C   0  0  0  0  0  0  0  0  0  0  0  0
    1.8167    0.1708    0.0000 C   0  0  0  0  0  0  0  0  0  0  0  0
    1.1167   -0.2667    0.0000 C   0  0  0  0  0  0  0  0  0  0  0  0
   -1.8458    1.3000    0.0000 C   0  0  0  0  0  0  0  0  0  0  0  0
   -0.2458    1.9583    0.0000 C   0  0  0  0  0  0  0  0  0  0  0  0
    0.2500    1.0500    0.0000 C   0  0  0  0  0  0  0  0  0  0  0  0
    0.5000    0.6000    0.0000 C   0  0  0  0  0  0  0  0  0  0  0  0
    0.0000    2.3958    0.0000 N   0  0  0  0  0  0  0  0  0  0  0  0
   -0.5333    0.6125    0.0000 O   0  0  0  0  0  0  0  0  0  0  0  0
    1.9292   -0.3167    0.0000 C   0  0  0  0  0  0  0  0  0  0  0  0
    1.5042   -0.5792    0.0000 C   0  0  0  0  0  0  0  0  0  0  0  0
    2.1500    0.5958    0.0000 O   0  0  0  0  0  0  0  0  0  0  0  0
    0.6042   -0.3792    0.0000 O   0  0  0  0  0  0  0  0  0  0  0  0
   -1.0958    2.4333    0.0000 C   0  0  0  0  0  0  0  0  0  0  0  0
    1.2667    1.0333    0.0000 C   0  0  0  0  0  0  0  0  0  0  0  0
    0.5042    1.4958    0.0000 C   0  0  0  0  0  0  0  0  0  0  0  0
   -2.2208    2.1125    0.0000 C   0  0  0  0  0  0  0  0  0  0  0  0
   -2.3125    1.0833    0.0000 C   0  0  0  0  0  0  0  0  0  0  0  0
    1.0042    1.4958    0.0000 C   0  0  0  0  0  0  0  0  0  0  0  0
   -2.7000    1.8958    0.0000 C   0  0  0  0  0  0  0  0  0  0  0  0
   -2.7500    1.3833    0.0000 C   0  0  0  0  0  0  0  0  0  0  0  0
  2  1  2  0  0  0  0
  3  1  1  0  0  0  0
  4  1  1  0  0  0  0
  5  7  1  0  0  0  0
  6  2  1  0  0  0  0
  7 14  2  0  0  0  0
  8  3  1  0  0  0  0
  9  5  1  0  0  0  0
 10  5  1  0  0  0  0
 11  4  1  0  0  0  0
 12  2  1  0  0  0  0
 13  6  1  0  0  0  0
 14 13  1  0  0  0  0
 15 12  3  0  0  0  0
 16  6  2  0  0  0  0
 17  9  1  0  0  0  0
 18 10  1  0  0  0  0
 19  9  2  0  0  0  0
 20 10  2  0  0  0  0
 21  3  1  0  0  0  0
 22 26  2  0  0  0  0
 23 13  2  0  0  0  0
 24  8  1  0  0  0  0
 25 11  1  0  0  0  0
 26 23  1  0  0  0  0
 27 24  2  0  0  0  0
 28 25  2  0  0  0  0
  8 11  2  0  0  0  0
 27 28  1  0  0  0  0
  7 22  1  0  0  0  0
 17 18  1  0  0  0  0
M  END
> <IDNUMBER>
F0466-0059

> <Chemical_Name>
3-[3-(2,5-dioxopyrrolidin-1-yl)phenyl]-2-[(2E)-1-methyl-2,3-dihydro-1H-1,3-benzodiazol-2-ylidene]-3-oxopropanenitrile

> <CAS>
476322-99-3

> <PriceCoeff>
1.00

> <MW>
372.38

> <Description>
solid

> <FSP3>
0.14

> <clogP>
1.81

> <TPSA>
93.51

> <Acceptor>
6

> <Donor>
2

> <RotBonds>
3

> <HAC>
28

> <Collection>
General

$$$$
F1298-0356
  -ISIS-  06222321452D

 32 35  0  0  0  0  0  0  0  0999 V2000
    2.3417   -0.3375    0.0000 C   0  0  0  0  0  0  0  0  0  0  0  0
    1.8542    0.3250    0.0000 C   0  0  0  0  0  0  0  0  0  0  0  0
    1.0750   -0.7542    0.0000 C   0  0  0  0  0  0  0  0  0  0  0  0
    6.0542   -2.4792    0.0000 N   0  0  3  0  0  0  0  0  0  0  0  0
    1.0667    0.0625    0.0000 C   0  0  0  0  0  0  0  0  0  0  0  0
    1.8542   -1.0125    0.0000 S   0  0  0  0  0  0  0  0  0  0  0  0
    3.1750   -0.3375    0.0000 N   0  0  0  0  0  0  0  0  0  0  0  0
   -0.3583   -0.7667    0.0000 N   0  0  3  0  0  0  0  0  0  0  0  0
    5.6417   -1.7667    0.0000 C   0  0  0  0  0  0  0  0  0  0  0  0
    3.5792   -1.0542    0.0000 C   0  0  0  0  0  0  0  0  0  0  0  0
   -1.0750   -1.1750    0.0000 C   0  0  0  0  0  0  0  0  0  0  0  0
    5.6792   -3.2167    0.0000 C   0  0  0  0  0  0  0  0  0  0  0  0
    6.8667   -2.5917    0.0000 C   0  0  0  0  0  0  0  0  0  0  0  0
    0.3500   -1.1750    0.0000 C   0  0  0  0  0  0  0  0  0  0  0  0
    2.1042    1.1083    0.0000 C   0  0  0  0  0  0  0  0  0  0  0  0
    2.3625    1.8833    0.0000 N   0  0  0  0  0  0  0  0  0  0  0  0
    0.3500    0.4833    0.0000 C   0  0  0  0  0  0  0  0  0  0  0  0
    4.8125   -1.7667    0.0000 C   0  0  0  0  0  0  0  0  0  0  0  0
    4.4042   -1.0542    0.0000 C   0  0  0  0  0  0  0  0  0  0  0  0
   -0.3583    0.0625    0.0000 C   0  0  0  0  0  0  0  0  0  0  0  0
   -1.0750   -2.0042    0.0000 O   0  0  0  0  0  0  0  0  0  0  0  0
    3.1750   -1.7667    0.0000 O   0  0  0  0  0  0  0  0  0  0  0  0
    6.2917   -3.7917    0.0000 C   0  0  0  0  0  0  0  0  0  0  0  0
    7.0167   -3.4125    0.0000 C   0  0  0  0  0  0  0  0  0  0  0  0
    4.8667   -3.3542    0.0000 O   0  0  0  0  0  0  0  0  0  0  0  0
    7.4500   -2.0167    0.0000 O   0  0  0  0  0  0  0  0  0  0  0  0
   -1.7875   -0.7667    0.0000 O   0  0  0  0  0  0  0  0  0  0  0  0
    6.0542   -1.0542    0.0000 C   0  0  0  0  0  0  0  0  0  0  0  0
    4.8125   -0.3375    0.0000 C   0  0  0  0  0  0  0  0  0  0  0  0
    5.6417   -0.3375    0.0000 C   0  0  0  0  0  0  0  0  0  0  0  0
   -1.7958    0.0625    0.0000 C   0  0  0  0  0  0  0  0  0  0  0  0
   -2.5083    0.4833    0.0000 C   0  0  0  0  0  0  0  0  0  0  0  0
  2  1  2  0  0  0  0
  3  6  1  0  0  0  0
  4  9  1  0  0  0  0
  5  2  1  0  0  0  0
  6  1  1  0  0  0  0
  7  1  1  0  0  0  0
  8 14  1  0  0  0  0
  9 18  1  0  0  0  0
 10  7  1  0  0  0  0
 11  8  1  0  0  0  0
 12  4  1  0  0  0  0
 13  4  1  0  0  0  0
 14  3  1  0  0  0  0
 15  2  1  0  0  0  0
 16 15  3  0  0  0  0
 17  5  1  0  0  0  0
 18 19  2  0  0  0  0
 19 10  1  0  0  0  0
 20 17  1  0  0  0  0
 21 11  2  0  0  0  0
 22 10  2  0  0  0  0
 23 12  1  0  0  0  0
 24 13  1  0  0  0  0
 25 12  2  0  0  0  0
 26 13  2  0  0  0  0
 27 11  1  0  0  0  0
 28 30  1  0  0  0  0
 29 19  1  0  0  0  0
 30 29  2  0  0  0  0
 31 27  1  0  0  0  0
 32 31  1  0  0  0  0
  3  5  2  0  0  0  0
  8 20  1  0  0  0  0
  9 28  2  0  0  0  0
 24 23  1  0  0  0  0
M  END
> <IDNUMBER>
F1298-0356

> <Chemical_Name>
ethyl 3-cyano-2-[3-(2,5-dioxopyrrolidin-1-yl)benzamido]-4H,5H,6H,7H-thieno[2,3-c]pyridine-6-carboxylate

> <CAS>
921052-17-7

> <PriceCoeff>
1.00

> <MW>
452.48

> <Description>
solid

> <FSP3>
0.32

> <clogP>
0.74

> <TPSA>
148.05

> <Acceptor>
6

> <Donor>
1

> <RotBonds>
6

> <HAC>
32

> <Collection>
General

$$$$
F0440-0389
  -ISIS-  06222321452D

 35 38  0  0  0  0  0  0  0  0999 V2000
   -2.2333   -1.9000    0.0000 N   0  0  3  0  0  0  0  0  0  0  0  0
    6.5000   -1.2000    0.0000 N   0  0  3  0  0  0  0  0  0  0  0  0
   -2.6333   -1.1667    0.0000 C   0  0  0  0  0  0  0  0  0  0  0  0
   -2.8000   -2.4875    0.0000 C   0  0  0  0  0  0  0  0  0  0  0  0
    7.2875   -1.3542    0.0000 C   0  0  0  0  0  0  0  0  0  0  0  0
    6.0792   -1.9042    0.0000 C   0  0  0  0  0  0  0  0  0  0  0  0
    5.2542   -0.4792    0.0000 C   0  0  0  0  0  0  0  0  0  0  0  0
   -1.0000   -2.6500    0.0000 C   0  0  0  0  0  0  0  0  0  0  0  0
    6.0792   -0.4792    0.0000 C   0  0  0  0  0  0  0  0  0  0  0  0
   -1.4208   -1.9167    0.0000 C   0  0  0  0  0  0  0  0  0  0  0  0
    4.8500    0.2333    0.0000 N   0  0  0  0  0  0  0  0  0  0  0  0
   -0.1500   -2.6500    0.0000 N   0  0  0  0  0  0  0  0  0  0  0  0
   -3.5458   -2.1292    0.0000 C   0  0  0  0  0  0  0  0  0  0  0  0
   -3.4333   -1.3167    0.0000 C   0  0  0  0  0  0  0  0  0  0  0  0
    7.3792   -2.1875    0.0000 C   0  0  0  0  0  0  0  0  0  0  0  0
    6.6292   -2.5042    0.0000 C   0  0  0  0  0  0  0  0  0  0  0  0
   -2.6833   -3.3375    0.0000 O   0  0  0  0  0  0  0  0  0  0  0  0
   -2.2458   -0.4000    0.0000 O   0  0  0  0  0  0  0  0  0  0  0  0
    7.9500   -0.8042    0.0000 O   0  0  0  0  0  0  0  0  0  0  0  0
    5.2292   -1.9875    0.0000 O   0  0  0  0  0  0  0  0  0  0  0  0
    4.8500   -1.2000    0.0000 O   0  0  0  0  0  0  0  0  0  0  0  0
   -1.4125   -3.3667    0.0000 O   0  0  0  0  0  0  0  0  0  0  0  0
    3.9875    0.2333    0.0000 C   0  0  0  0  0  0  0  0  0  0  0  0
    0.2500   -1.9042    0.0000 C   0  0  0  0  0  0  0  0  0  0  0  0
    1.0667   -0.4792    0.0000 C   0  0  0  0  0  0  0  0  0  0  0  0
    2.3375    0.2333    0.0000 C   0  0  0  0  0  0  0  0  0  0  0  0
    1.4875    0.2333    0.0000 C   0  0  0  0  0  0  0  0  0  0  0  0
    1.0667   -1.9042    0.0000 C   0  0  0  0  0  0  0  0  0  0  0  0
    3.5792   -0.4792    0.0000 C   0  0  0  0  0  0  0  0  0  0  0  0
    3.5792    0.9708    0.0000 C   0  0  0  0  0  0  0  0  0  0  0  0
   -0.1500   -1.2000    0.0000 C   0  0  0  0  0  0  0  0  0  0  0  0
    0.2500   -0.4792    0.0000 C   0  0  0  0  0  0  0  0  0  0  0  0
    1.4875   -1.2000    0.0000 C   0  0  0  0  0  0  0  0  0  0  0  0
    2.7500   -0.4792    0.0000 C   0  0  0  0  0  0  0  0  0  0  0  0
    2.7500    0.9708    0.0000 C   0  0  0  0  0  0  0  0  0  0  0  0
  2  9  1  0  0  0  0
  3  1  1  0  0  0  0
  4  1  1  0  0  0  0
  5  2  1  0  0  0  0
  6  2  1  0  0  0  0
  7 11  1  0  0  0  0
  8 10  1  0  0  0  0
  9  7  1  0  0  0  0
 10  1  1  0  0  0  0
 11 23  1  0  0  0  0
 12  8  1  0  0  0  0
 13  4  1  0  0  0  0
 14  3  1  0  0  0  0
 15  5  1  0  0  0  0
 16  6  1  0  0  0  0
 17  4  2  0  0  0  0
 18  3  2  0  0  0  0
 19  5  2  0  0  0  0
 20  6  2  0  0  0  0
 21  7  2  0  0  0  0
 22  8  2  0  0  0  0
 23 30  2  0  0  0  0
 24 12  1  0  0  0  0
 25 32  2  0  0  0  0
 26 27  1  0  0  0  0
 27 25  1  0  0  0  0
 28 24  1  0  0  0  0
 29 34  2  0  0  0  0
 30 35  1  0  0  0  0
 31 24  2  0  0  0  0
 32 31  1  0  0  0  0
 33 28  2  0  0  0  0
 34 26  1  0  0  0  0
 35 26  2  0  0  0  0
 14 13  1  0  0  0  0
 25 33  1  0  0  0  0
 23 29  1  0  0  0  0
 16 15  1  0  0  0  0
M  END
> <IDNUMBER>
F0440-0389

> <Chemical_Name>
2-(2,5-dioxopyrrolidin-1-yl)-N-[4-({4-[2-(2,5-dioxopyrrolidin-1-yl)acetamido]phenyl}methyl)phenyl]acetamide

> <CAS>
476308-80-2

> <PriceCoeff>
1.00

> <MW>
476.48

> <Description>
solid

> <FSP3>
0.28

> <clogP>
1.15

> <TPSA>
132.96

> <Acceptor>
6

> <Donor>
2

> <RotBonds>
8

> <HAC>
35

> <Collection>
General

$$$$
F0327-0316
  -ISIS-  06222321142D

 32 36  0  0  0  0  0  0  0  0999 V2000
    1.7792   -1.9500    0.0000 N   0  0  3  0  0  0  0  0  0  0  0  0
   -0.3000    1.7333    0.0000 C   0  0  0  0  0  0  0  0  0  0  0  0
   -0.7833    1.0500    0.0000 N   0  0  0  0  0  0  0  0  0  0  0  0
   -0.7833    2.3708    0.0000 S   0  0  0  0  0  0  0  0  0  0  0  0
    2.0167   -2.7292    0.0000 C   0  0  0  0  0  0  0  0  0  0  0  0
    0.9375   -1.9500    0.0000 C   0  0  0  0  0  0  0  0  0  0  0  0
   -1.5625    2.1333    0.0000 C   0  0  0  0  0  0  0  0  0  0  0  0
    3.4167    0.9125    0.0000 C   0  0  0  0  0  0  0  0  0  0  0  0
   -1.5625    1.2958    0.0000 C   0  0  0  0  0  0  0  0  0  0  0  0
    3.0167    1.6333    0.0000 N   0  0  0  0  0  0  0  0  0  0  0  0
    2.1792   -1.2292    0.0000 C   0  0  0  0  0  0  0  0  0  0  0  0
    0.5375    1.6958    0.0000 C   0  0  0  0  0  0  0  0  0  0  0  0
    3.0167    0.2125    0.0000 C   0  0  0  0  0  0  0  0  0  0  0  0
   -2.2625    2.5333    0.0000 C   0  0  0  0  0  0  0  0  0  0  0  0
    1.3375   -3.1875    0.0000 C   0  0  0  0  0  0  0  0  0  0  0  0
    0.7000   -2.7292    0.0000 C   0  0  0  0  0  0  0  0  0  0  0  0
    4.2542    0.9125    0.0000 O   0  0  0  0  0  0  0  0  0  0  0  0
    0.4375   -1.2667    0.0000 O   0  0  0  0  0  0  0  0  0  0  0  0
    2.8167   -2.9875    0.0000 O   0  0  0  0  0  0  0  0  0  0  0  0
   -2.2625    0.8958    0.0000 C   0  0  0  0  0  0  0  0  0  0  0  0
    1.7792   -0.5042    0.0000 C   0  0  0  0  0  0  0  0  0  0  0  0
    3.0167   -1.2292    0.0000 C   0  0  0  0  0  0  0  0  0  0  0  0
    2.1792    0.2125    0.0000 C   0  0  0  0  0  0  0  0  0  0  0  0
    3.4167   -0.5042    0.0000 C   0  0  0  0  0  0  0  0  0  0  0  0
    0.9792    2.3708    0.0000 C   0  0  0  0  0  0  0  0  0  0  0  0
    0.9167    0.9500    0.0000 C   0  0  0  0  0  0  0  0  0  0  0  0
    2.1792    1.6333    0.0000 C   0  0  0  0  0  0  0  0  0  0  0  0
   -2.9833    2.1333    0.0000 C   0  0  0  0  0  0  0  0  0  0  0  0
    1.7375    0.9125    0.0000 C   0  0  0  0  0  0  0  0  0  0  0  0
    1.8000    2.3500    0.0000 C   0  0  0  0  0  0  0  0  0  0  0  0
   -2.9833    1.2958    0.0000 C   0  0  0  0  0  0  0  0  0  0  0  0
   -3.7000    2.5500    0.0000 C   0  0  0  0  0  0  0  0  0  0  0  0
  2 12  1  0  0  0  0
  3  2  2  0  0  0  0
  4  2  1  0  0  0  0
  5  1  1  0  0  0  0
  6  1  1  0  0  0  0
  7  4  1  0  0  0  0
  8 13  1  0  0  0  0
  9  3  1  0  0  0  0
 10  8  1  0  0  0  0
 11  1  1  0  0  0  0
 12 25  2  0  0  0  0
 13 24  1  0  0  0  0
 14  7  1  0  0  0  0
 15  5  1  0  0  0  0
 16  6  1  0  0  0  0
 17  8  2  0  0  0  0
 18  6  2  0  0  0  0
 19  5  2  0  0  0  0
 20  9  1  0  0  0  0
 21 11  2  0  0  0  0
 22 11  1  0  0  0  0
 23 21  1  0  0  0  0
 24 22  2  0  0  0  0
 25 30  1  0  0  0  0
 26 29  2  0  0  0  0
 27 10  1  0  0  0  0
 28 14  2  0  0  0  0
 29 27  1  0  0  0  0
 30 27  2  0  0  0  0
 31 20  2  0  0  0  0
 32 28  1  0  0  0  0
 15 16  1  0  0  0  0
 13 23  2  0  0  0  0
 26 12  1  0  0  0  0
  9  7  2  0  0  0  0
 28 31  1  0  0  0  0
M  END
> <IDNUMBER>
F0327-0316

> <Chemical_Name>
4-(2,5-dioxopyrrolidin-1-yl)-N-[4-(6-methyl-1,3-benzothiazol-2-yl)phenyl]benzamide

> <CAS>
313405-86-6

> <PriceCoeff>
1.00

> <MW>
441.50

> <Description>
solid

> <FSP3>
0.12

> <clogP>
3.50

> <TPSA>
107.61

> <Acceptor>
4

> <Donor>
1

> <RotBonds>
4

> <HAC>
32

> <Collection>
General

$$$$
F0761-0032
  -ISIS-  06222321142D

 26 28  0  0  0  0  0  0  0  0999 V2000
   -0.8875   -4.0917    0.0000 N   0  3  0  0  0  0  0  0  0  0  0  0
   -0.3750   -2.5125    0.0000 C   0  0  0  0  0  0  0  0  0  0  0  0
    0.9417   -2.7125    0.0000 C   0  0  0  0  0  0  0  0  0  0  0  0
   -1.4375   -3.4750    0.0000 C   0  0  0  0  0  0  0  0  0  0  0  0
   -1.1833   -2.6875    0.0000 C   0  0  0  0  0  0  0  0  0  0  0  0
    0.2167   -3.0917    0.0000 O   0  0  0  0  0  0  0  0  0  0  0  0
    1.7167   -2.9917    0.0000 C   0  0  0  0  0  0  0  0  0  0  0  0
    2.3542   -2.4625    0.0000 N   0  0  3  0  0  0  0  0  0  0  0  0
    3.6125   -1.4042    0.0000 N   0  0  3  0  0  0  0  0  0  0  0  0
   -0.0083   -1.7792    0.0000 C   0  0  0  0  0  0  0  0  0  0  0  0
    0.8042   -1.9000    0.0000 C   0  0  0  0  0  0  0  0  0  0  0  0
    4.2500   -0.8750    0.0000 C   0  0  0  0  0  0  0  0  0  0  0  0
   -2.2458   -3.6500    0.0000 C   0  0  0  0  0  0  0  0  0  0  0  0
   -1.7375   -2.0792    0.0000 C   0  0  0  0  0  0  0  0  0  0  0  0
   -1.1458   -4.8750    0.0000 O   0  5  0  0  0  0  0  0  0  0  0  0
    1.8542   -3.8042    0.0000 S   0  0  0  0  0  0  0  0  0  0  0  0
   -0.0833   -3.9167    0.0000 O   0  0  0  0  0  0  0  0  0  0  0  0
    3.1250   -2.7417    0.0000 C   0  0  0  0  0  0  0  0  0  0  0  0
    2.2042   -1.6542    0.0000 C   0  0  0  0  0  0  0  0  0  0  0  0
    3.7542   -2.2167    0.0000 C   0  0  0  0  0  0  0  0  0  0  0  0
    2.8417   -1.1250    0.0000 C   0  0  0  0  0  0  0  0  0  0  0  0
    5.0167   -1.1542    0.0000 O   0  0  0  0  0  0  0  0  0  0  0  0
   -2.7958   -3.0375    0.0000 C   0  0  0  0  0  0  0  0  0  0  0  0
   -2.5375   -2.2542    0.0000 C   0  0  0  0  0  0  0  0  0  0  0  0
   -3.6125   -3.2125    0.0000 Cl  0  0  0  0  0  0  0  0  0  0  0  0
    4.1042   -0.0625    0.0000 C   0  0  0  0  0  0  0  0  0  0  0  0
  2  5  1  0  0  0  0
  3  6  1  0  0  0  0
  4  1  1  0  0  0  0
  5  4  2  0  0  0  0
  6  2  1  0  0  0  0
  7  3  1  0  0  0  0
  8  7  1  0  0  0  0
  9 21  1  0  0  0  0
 10  2  2  0  0  0  0
 11 10  1  0  0  0  0
 12  9  1  0  0  0  0
 13  4  1  0  0  0  0
 14  5  1  0  0  0  0
 15  1  1  0  0  0  0
 16  7  2  0  0  0  0
 17  1  2  0  0  0  0
 18  8  1  0  0  0  0
 19  8  1  0  0  0  0
 20 18  1  0  0  0  0
 21 19  1  0  0  0  0
 22 12  2  0  0  0  0
 23 13  2  0  0  0  0
 24 23  1  0  0  0  0
 25 23  1  0  0  0  0
 26 12  1  0  0  0  0
 24 14  2  0  0  0  0
 11  3  2  0  0  0  0
  9 20  1  0  0  0  0
M  CHG  2   1   1  15  -1
M  END
> <IDNUMBER>
F0761-0032

> <Chemical_Name>
1-{4-[5-(4-chloro-2-nitrophenyl)furan-2-carbothioyl]piperazin-1-yl}ethan-1-one

> <CAS>
394238-26-7

> <PriceCoeff>
1.00

> <MW>
393.84

> <Description>
solid

> <FSP3>
0.29

> <clogP>
2.81

> <TPSA>
111.92

> <Acceptor>
5

> <Donor>
1

> <RotBonds>
5

> <HAC>
26

> <Collection>
General

$$$$
F3162-0015
  -ISIS-  06222321442D

 16 18  0  0  0  0  0  0  0  0999 V2000
    0.4792    0.2583    0.0000 C   0  0  0  0  0  0  0  0  0  0  0  0
   -0.1875    0.7375    0.0000 N   0  0  0  0  0  0  0  0  0  0  0  0
    0.2250   -0.5292    0.0000 N   0  0  0  0  0  0  0  0  0  0  0  0
   -0.6000   -0.5292    0.0000 C   0  0  0  0  0  0  0  0  0  0  0  0
   -0.8500    0.2500    0.0000 C   0  0  0  0  0  0  0  0  0  0  0  0
    1.2667    0.5083    0.0000 C   0  0  0  0  0  0  0  0  0  0  0  0
   -1.1458   -1.1417    0.0000 C   0  0  0  0  0  0  0  0  0  0  0  0
   -1.6583    0.4250    0.0000 C   0  0  0  0  0  0  0  0  0  0  0  0
   -1.9458   -0.9667    0.0000 C   0  0  0  0  0  0  0  0  0  0  0  0
   -2.2083   -0.1875    0.0000 C   0  0  0  0  0  0  0  0  0  0  0  0
    1.8792   -0.0417    0.0000 C   0  0  0  0  0  0  0  0  0  0  0  0
    1.4375    1.3125    0.0000 C   0  0  0  0  0  0  0  0  0  0  0  0
   -2.4958   -1.5875    0.0000 C   0  0  0  0  0  0  0  0  0  0  0  0
    2.2167    1.5708    0.0000 C   0  0  0  0  0  0  0  0  0  0  0  0
    2.6625    0.2083    0.0000 C   0  0  0  0  0  0  0  0  0  0  0  0
    2.8292    1.0125    0.0000 C   0  0  0  0  0  0  0  0  0  0  0  0
  2  1  2  0  0  0  0
  3  1  1  0  0  0  0
  4  3  1  0  0  0  0
  5  2  1  0  0  0  0
  6  1  1  0  0  0  0
  7  4  1  0  0  0  0
  8  5  1  0  0  0  0
  9  7  2  0  0  0  0
 10  8  2  0  0  0  0
 11  6  2  0  0  0  0
 12  6  1  0  0  0  0
 13  9  1  0  0  0  0
 14 12  2  0  0  0  0
 15 11  1  0  0  0  0
 16 14  1  0  0  0  0
  5  4  2  0  0  0  0
 16 15  2  0  0  0  0
  9 10  1  0  0  0  0
M  END
> <IDNUMBER>
F3162-0015

> <Chemical_Name>
6-methyl-2-phenyl-1H-1,3-benzodiazole

> <CAS>
2963-65-7

> <PriceCoeff>
1.00

> <MW>
208.26

> <Description>
solid

> <FSP3>
0.07

> <clogP>
4.16

> <TPSA>
28.68

> <Acceptor>
2

> <Donor>
2

> <RotBonds>
1

> <HAC>
16

> <Collection>
General

> <Reference_compound>
CHEMBL379376

> <Similarity>
0.8480

$$$$
F3275-0017
  -ISIS-  06222304352D

 24 25  0  0  0  0  0  0  0  0999 V2000
    3.0667    0.7583    0.0000 N   0  0  3  0  0  0  0  0  0  0  0  0
    2.4667   -2.0417    0.0000 N   0  0  3  0  0  0  0  0  0  0  0  0
    2.5500   -2.8667    0.0000 N   0  0  0  0  0  0  0  0  0  0  0  0
    1.6667   -1.8667    0.0000 C   0  0  0  0  0  0  0  0  0  0  0  0
    3.5542    1.4250    0.0000 C   0  0  0  0  0  0  0  0  0  0  0  0
    1.2542   -2.5875    0.0000 C   0  0  0  0  0  0  0  0  0  0  0  0
    3.0667    2.0958    0.0000 C   0  0  0  0  0  0  0  0  0  0  0  0
    1.7917   -3.1917    0.0000 C   0  0  0  0  0  0  0  0  0  0  0  0
    2.2792    1.0083    0.0000 C   0  0  0  0  0  0  0  0  0  0  0  0
    2.2792    1.8375    0.0000 C   0  0  0  0  0  0  0  0  0  0  0  0
    3.0167   -1.4375    0.0000 C   0  0  0  0  0  0  0  0  0  0  0  0
    3.3167   -0.0292    0.0000 C   0  0  0  0  0  0  0  0  0  0  0  0
    2.7667   -0.6417    0.0000 C   0  0  3  0  0  0  0  0  0  0  0  0
    0.4292   -2.6792    0.0000 Cl  0  0  0  0  0  0  0  0  0  0  0  0
    1.3292   -1.1000    0.0000 C   0  0  0  0  0  0  0  0  0  0  0  0
    4.3792    1.4333    0.0000 C   0  0  0  0  0  0  0  0  0  0  0  0
    3.3167    2.8833    0.0000 C   0  0  0  0  0  0  0  0  0  0  0  0
    1.6000   -4.0042    0.0000 C   0  0  0  0  0  0  0  0  0  0  0  0
    1.9667   -0.4667    0.0000 O   0  0  0  0  0  0  0  0  0  0  0  0
    1.5667    0.5958    0.0000 C   0  0  0  0  0  0  0  0  0  0  0  0
    1.5667    2.2500    0.0000 C   0  0  0  0  0  0  0  0  0  0  0  0
    0.8500    1.8375    0.0000 C   0  0  0  0  0  0  0  0  0  0  0  0
    0.8500    1.0083    0.0000 C   0  0  0  0  0  0  0  0  0  0  0  0
    5.7667   -0.4667    0.0000 Cl  0  0  0  0  0  0  0  0  0  0  0  0
  3  2  1  0  0  0  0
  4  2  1  0  0  0  0
  5  1  1  0  0  0  0
  6  4  2  0  0  0  0
  7  5  2  0  0  0  0
  8  3  2  0  0  0  0
  9  1  1  0  0  0  0
 10  9  1  0  0  0  0
 11 13  1  0  0  0  0
 12  1  1  0  0  0  0
 13 12  1  0  0  0  0
 14  6  1  0  0  0  0
 15  4  1  0  0  0  0
 16  5  1  0  0  0  0
 17  7  1  0  0  0  0
 18  8  1  0  0  0  0
 19 13  1  0  0  0  0
 20  9  2  0  0  0  0
 21 10  2  0  0  0  0
 22 23  2  0  0  0  0
 23 20  1  0  0  0  0
 10  7  1  0  0  0  0
 21 22  1  0  0  0  0
  6  8  1  0  0  0  0
  2 11  1  0  0  0  0
M  END
> <IDNUMBER>
F3275-0017

> <Chemical_Name>
1-(4-chloro-3,5-dimethyl-1H-pyrazol-1-yl)-3-(2,3-dimethyl-1H-indol-1-yl)propan-2-ol hydrochloride

> <CAS>
1189670-86-7

> <PriceCoeff>
1.00

> <MW>
331.84

> <Description>
solid

> <FSP3>
0.39

> <clogP>
4.17

> <TPSA>
42.98

> <Acceptor>
2

> <Donor>
1

> <RotBonds>
4

> <HAC>
23

> <Collection>
General

$$$$
F3259-0260
  -ISIS-  06222321462D

 16 17  0  0  0  0  0  0  0  0999 V2000
    2.9667    2.5250    0.0000 C   0  0  0  0  0  0  0  0  0  0  0  0
    2.5917    1.8833    0.0000 C   0  0  0  0  0  0  0  0  0  0  0  0
    3.7167    2.5250    0.0000 N   0  0  3  0  0  0  0  0  0  0  0  0
    3.7167    1.2333    0.0000 N   0  0  3  0  0  0  0  0  0  0  0  0
    4.0917    1.8833    0.0000 C   0  0  0  0  0  0  0  0  0  0  0  0
    2.9667    1.2333    0.0000 C   0  0  0  0  0  0  0  0  0  0  0  0
    2.4667    3.0833    0.0000 N   0  0  0  0  0  0  0  0  0  0  0  0
    1.8625    2.0333    0.0000 N   0  0  3  0  0  0  0  0  0  0  0  0
    1.7792    2.7833    0.0000 C   0  0  0  0  0  0  0  0  0  0  0  0
    4.8417    1.8833    0.0000 O   0  0  0  0  0  0  0  0  0  0  0  0
    2.5917    0.5833    0.0000 O   0  0  0  0  0  0  0  0  0  0  0  0
    4.0917    3.1750    0.0000 C   0  0  0  0  0  0  0  0  0  0  0  0
    4.0917    0.5833    0.0000 C   0  0  0  0  0  0  0  0  0  0  0  0
    1.3042    1.5333    0.0000 C   0  0  0  0  0  0  0  0  0  0  0  0
    0.5917    1.7625    0.0000 C   0  0  0  0  0  0  0  0  0  0  0  0
    0.0292    1.2625    0.0000 C   0  0  0  0  0  0  0  0  0  0  0  0
  2  1  2  0  0  0  0
  3  1  1  0  0  0  0
  4  5  1  0  0  0  0
  5  3  1  0  0  0  0
  6  2  1  0  0  0  0
  7  1  1  0  0  0  0
  8  2  1  0  0  0  0
  9  7  2  0  0  0  0
 10  5  2  0  0  0  0
 11  6  2  0  0  0  0
 12  3  1  0  0  0  0
 13  4  1  0  0  0  0
 14  8  1  0  0  0  0
 15 14  1  0  0  0  0
 16 15  1  0  0  0  0
  8  9  1  0  0  0  0
  4  6  1  0  0  0  0
M  END
> <IDNUMBER>
F3259-0260

> <Chemical_Name>
1,3-dimethyl-7-propyl-2,3,6,7-tetrahydro-1H-purine-2,6-dione

> <CAS>
27760-74-3

> <PriceCoeff>
1.50

> <MW>
222.24

> <Description>
solid

> <FSP3>
0.50

> <clogP>
1.02

> <TPSA>
58.44

> <Acceptor>
3

> <Donor>
1

> <RotBonds>
2

> <HAC>
16

> <Collection>
Advanced

> <Reference_compound>
CHEMBL113

> <Similarity>
0.9210

$$$$
F6411-4564
  -ISIS-  06222321462D

 30 33  0  0  0  0  0  0  0  0999 V2000
    7.8917    1.8208    0.0000 C   0  0  0  0  0  0  0  0  0  0  0  0
    4.7042    0.1375    0.0000 N   0  0  3  0  0  0  0  0  0  0  0  0
    6.2000    1.4708    0.0000 N   0  0  3  0  0  0  0  0  0  0  0  0
    6.9417    2.1333    0.0000 C   0  0  0  0  0  0  0  0  0  0  0  0
    4.5042    1.1208    0.0000 C   0  0  0  0  0  0  0  0  0  0  0  0
    5.6500   -0.1792    0.0000 C   0  0  0  0  0  0  0  0  0  0  0  0
    8.2042    0.8583    0.0000 C   0  0  0  0  0  0  0  0  0  0  0  0
    8.7042    2.4000    0.0000 N   0  0  0  0  0  0  0  0  0  0  0  0
    9.5125    1.8208    0.0000 N   0  0  0  0  0  0  0  0  0  0  0  0
    9.2042    0.8583    0.0000 C   0  0  0  0  0  0  0  0  0  0  0  0
    5.2417    1.7833    0.0000 C   0  0  0  0  0  0  0  0  0  0  0  0
    6.4000    0.4875    0.0000 C   0  0  0  0  0  0  0  0  0  0  0  0
    3.9542   -0.5292    0.0000 C   0  0  0  0  0  0  0  0  0  0  0  0
    9.7917    0.0500    0.0000 C   0  0  0  0  0  0  0  0  0  0  0  0
    5.8500   -1.1542    0.0000 O   0  0  0  0  0  0  0  0  0  0  0  0
    3.5542    1.4333    0.0000 O   0  0  0  0  0  0  0  0  0  0  0  0
    6.7417    3.1125    0.0000 O   0  0  0  0  0  0  0  0  0  0  0  0
   10.7792    0.1583    0.0000 C   0  0  0  0  0  0  0  0  0  0  0  0
    3.0042   -0.2125    0.0000 C   0  0  0  0  0  0  0  0  0  0  0  0
   11.3667   -0.6542    0.0000 C   0  0  0  0  0  0  0  0  0  0  0  0
   12.3667   -0.5500    0.0000 F   0  0  0  0  0  0  0  0  0  0  0  0
    2.2583   -0.8750    0.0000 C   0  0  0  0  0  0  0  0  0  0  0  0
    9.3792   -0.8625    0.0000 C   0  0  0  0  0  0  0  0  0  0  0  0
    9.9667   -1.6667    0.0000 C   0  0  0  0  0  0  0  0  0  0  0  0
   10.9667   -1.5667    0.0000 C   0  0  0  0  0  0  0  0  0  0  0  0
    2.4625   -1.8542    0.0000 C   0  0  0  0  0  0  0  0  0  0  0  0
    1.3042   -0.5542    0.0000 C   0  0  0  0  0  0  0  0  0  0  0  0
    0.5667   -1.2167    0.0000 C   0  0  0  0  0  0  0  0  0  0  0  0
    1.7042   -2.5167    0.0000 C   0  0  0  0  0  0  0  0  0  0  0  0
    0.7667   -2.2000    0.0000 C   0  0  0  0  0  0  0  0  0  0  0  0
  2  6  1  0  0  0  0
  3  4  1  0  0  0  0
  4  1  1  0  0  0  0
  5 11  1  0  0  0  0
  6 12  1  0  0  0  0
  7  1  2  0  0  0  0
  8  1  1  0  0  0  0
  9  8  1  0  0  0  0
 10  7  1  0  0  0  0
 11  3  1  0  0  0  0
 12  3  1  0  0  0  0
 13  2  1  0  0  0  0
 14 10  1  0  0  0  0
 15  6  2  0  0  0  0
 16  5  2  0  0  0  0
 17  4  2  0  0  0  0
 18 14  1  0  0  0  0
 19 13  1  0  0  0  0
 20 18  2  0  0  0  0
 21 20  1  0  0  0  0
 22 19  1  0  0  0  0
 23 14  2  0  0  0  0
 24 23  1  0  0  0  0
 25 24  2  0  0  0  0
 26 22  1  0  0  0  0
 27 22  2  0  0  0  0
 28 27  1  0  0  0  0
 29 26  2  0  0  0  0
 30 28  2  0  0  0  0
  9 10  2  0  0  0  0
  2  5  1  0  0  0  0
 20 25  1  0  0  0  0
 30 29  1  0  0  0  0
M  END
> <IDNUMBER>
F6411-4564

> <Chemical_Name>
4-[3-(3-fluorophenyl)-1H-pyrazole-5-carbonyl]-1-(2-phenylethyl)piperazine-2,6-dione

> <CAS>


> <PriceCoeff>
1.00

> <MW>
406.41

> <Description>
solid

> <FSP3>
0.18

> <clogP>
4.04

> <TPSA>
86.37

> <Acceptor>
5

> <Donor>
2

> <RotBonds>
6

> <HAC>
30

> <Collection>
General

$$$$
F0327-0348
  -ISIS-  06222321452D

 31 35  0  0  0  0  0  0  0  0999 V2000
    4.4167    0.3500    0.0000 N   0  0  3  0  0  0  0  0  0  0  0  0
   -0.4000    1.1125    0.0000 C   0  0  0  0  0  0  0  0  0  0  0  0
   -0.9125    0.4000    0.0000 N   0  0  0  0  0  0  0  0  0  0  0  0
    0.4542    1.1125    0.0000 N   0  0  0  0  0  0  0  0  0  0  0  0
   -1.7458    0.6500    0.0000 C   0  0  0  0  0  0  0  0  0  0  0  0
    0.9000    0.3500    0.0000 C   0  0  0  0  0  0  0  0  0  0  0  0
    4.9167    1.0125    0.0000 C   0  0  0  0  0  0  0  0  0  0  0  0
    4.9042   -0.3667    0.0000 C   0  0  0  0  0  0  0  0  0  0  0  0
   -0.9000    1.8125    0.0000 S   0  0  0  0  0  0  0  0  0  0  0  0
   -1.7458    1.5500    0.0000 C   0  0  0  0  0  0  0  0  0  0  0  0
   -2.4208    0.1208    0.0000 C   0  0  0  0  0  0  0  0  0  0  0  0
    3.5375    0.3500    0.0000 C   0  0  0  0  0  0  0  0  0  0  0  0
   -3.2458    0.4500    0.0000 C   0  0  0  0  0  0  0  0  0  0  0  0
    1.7792    0.3500    0.0000 C   0  0  0  0  0  0  0  0  0  0  0  0
   -3.9458   -0.0875    0.0000 C   0  0  0  0  0  0  0  0  0  0  0  0
    0.4542   -0.4042    0.0000 O   0  0  0  0  0  0  0  0  0  0  0  0
    5.7542   -0.1167    0.0000 C   0  0  0  0  0  0  0  0  0  0  0  0
    5.7500    0.7500    0.0000 C   0  0  0  0  0  0  0  0  0  0  0  0
    4.6000   -1.1875    0.0000 O   0  0  0  0  0  0  0  0  0  0  0  0
    4.6292    1.8625    0.0000 O   0  0  0  0  0  0  0  0  0  0  0  0
   -2.3000   -0.7542    0.0000 C   0  0  0  0  0  0  0  0  0  0  0  0
    3.1000    1.1125    0.0000 C   0  0  0  0  0  0  0  0  0  0  0  0
    3.1000   -0.4042    0.0000 C   0  0  0  0  0  0  0  0  0  0  0  0
    2.2167    1.1125    0.0000 C   0  0  0  0  0  0  0  0  0  0  0  0
    2.2167   -0.4042    0.0000 C   0  0  0  0  0  0  0  0  0  0  0  0
   -3.8208   -0.9667    0.0000 C   0  0  0  0  0  0  0  0  0  0  0  0
   -2.9958   -1.3000    0.0000 C   0  0  0  0  0  0  0  0  0  0  0  0
   -4.7708    0.2458    0.0000 C   0  0  0  0  0  0  0  0  0  0  0  0
   -4.5208   -1.5042    0.0000 C   0  0  0  0  0  0  0  0  0  0  0  0
   -5.4708   -0.2875    0.0000 C   0  0  0  0  0  0  0  0  0  0  0  0
   -5.3458   -1.1667    0.0000 C   0  0  0  0  0  0  0  0  0  0  0  0
  2  4  1  0  0  0  0
  3  2  2  0  0  0  0
  4  6  1  0  0  0  0
  5  3  1  0  0  0  0
  6 14  1  0  0  0  0
  7  1  1  0  0  0  0
  8  1  1  0  0  0  0
  9  2  1  0  0  0  0
 10  9  1  0  0  0  0
 11  5  1  0  0  0  0
 12  1  1  0  0  0  0
 13 11  2  0  0  0  0
 14 25  2  0  0  0  0
 15 13  1  0  0  0  0
 16  6  2  0  0  0  0
 17  8  1  0  0  0  0
 18  7  1  0  0  0  0
 19  8  2  0  0  0  0
 20  7  2  0  0  0  0
 21 11  1  0  0  0  0
 22 12  1  0  0  0  0
 23 12  2  0  0  0  0
 24 22  2  0  0  0  0
 25 23  1  0  0  0  0
 26 27  1  0  0  0  0
 27 21  2  0  0  0  0
 28 15  1  0  0  0  0
 29 26  1  0  0  0  0
 30 28  2  0  0  0  0
 31 29  2  0  0  0  0
 18 17  1  0  0  0  0
 24 14  1  0  0  0  0
 10  5  2  0  0  0  0
 15 26  2  0  0  0  0
 30 31  1  0  0  0  0
M  END
> <IDNUMBER>
F0327-0348

> <Chemical_Name>
4-(2,5-dioxopyrrolidin-1-yl)-N-[4-(naphthalen-2-yl)-1,3-thiazol-2-yl]benzamide

> <CAS>
392246-38-7

> <PriceCoeff>
1.00

> <MW>
427.48

> <Description>
solid

> <FSP3>
0.08

> <clogP>
3.30

> <TPSA>
107.61

> <Acceptor>
4

> <Donor>
1

> <RotBonds>
4

> <HAC>
31

> <Collection>
General

$$$$
F0327-0347
  -ISIS-  06222321142D

 31 35  0  0  0  0  0  0  0  0999 V2000
    4.4167    0.3500    0.0000 N   0  0  3  0  0  0  0  0  0  0  0  0
   -0.4000    1.1125    0.0000 C   0  0  0  0  0  0  0  0  0  0  0  0
   -0.9125    0.4000    0.0000 N   0  0  0  0  0  0  0  0  0  0  0  0
   -1.7458    0.6500    0.0000 C   0  0  0  0  0  0  0  0  0  0  0  0
    0.4542    1.1125    0.0000 N   0  0  0  0  0  0  0  0  0  0  0  0
    0.9000    0.3500    0.0000 C   0  0  0  0  0  0  0  0  0  0  0  0
    4.9167    1.0125    0.0000 C   0  0  0  0  0  0  0  0  0  0  0  0
    4.9042   -0.3667    0.0000 C   0  0  0  0  0  0  0  0  0  0  0  0
   -0.9000    1.8125    0.0000 S   0  0  0  0  0  0  0  0  0  0  0  0
   -2.4208    0.1208    0.0000 C   0  0  0  0  0  0  0  0  0  0  0  0
   -1.7458    1.5500    0.0000 C   0  0  0  0  0  0  0  0  0  0  0  0
   -3.2458    0.4500    0.0000 C   0  0  0  0  0  0  0  0  0  0  0  0
    3.5375    0.3500    0.0000 C   0  0  0  0  0  0  0  0  0  0  0  0
    1.7792    0.3500    0.0000 C   0  0  0  0  0  0  0  0  0  0  0  0
    0.4542   -0.4042    0.0000 O   0  0  0  0  0  0  0  0  0  0  0  0
    5.7500    0.7500    0.0000 C   0  0  0  0  0  0  0  0  0  0  0  0
    5.7542   -0.1167    0.0000 C   0  0  0  0  0  0  0  0  0  0  0  0
    4.6292    1.8625    0.0000 O   0  0  0  0  0  0  0  0  0  0  0  0
    4.6000   -1.1875    0.0000 O   0  0  0  0  0  0  0  0  0  0  0  0
    3.1000    1.1125    0.0000 C   0  0  0  0  0  0  0  0  0  0  0  0
    3.1000   -0.4042    0.0000 C   0  0  0  0  0  0  0  0  0  0  0  0
    2.2167    1.1125    0.0000 C   0  0  0  0  0  0  0  0  0  0  0  0
    2.2167   -0.4042    0.0000 C   0  0  0  0  0  0  0  0  0  0  0  0
   -3.9458   -0.0875    0.0000 C   0  0  0  0  0  0  0  0  0  0  0  0
   -2.3000   -0.7542    0.0000 C   0  0  0  0  0  0  0  0  0  0  0  0
   -3.3500    1.3208    0.0000 C   0  0  0  0  0  0  0  0  0  0  0  0
   -2.9958   -1.3000    0.0000 C   0  0  0  0  0  0  0  0  0  0  0  0
   -3.8208   -0.9667    0.0000 C   0  0  0  0  0  0  0  0  0  0  0  0
   -4.7500    0.2500    0.0000 C   0  0  0  0  0  0  0  0  0  0  0  0
   -4.1708    1.6500    0.0000 C   0  0  0  0  0  0  0  0  0  0  0  0
   -4.8708    1.1125    0.0000 C   0  0  0  0  0  0  0  0  0  0  0  0
  2  5  1  0  0  0  0
  3  2  2  0  0  0  0
  4  3  1  0  0  0  0
  5  6  1  0  0  0  0
  6 14  1  0  0  0  0
  7  1  1  0  0  0  0
  8  1  1  0  0  0  0
  9  2  1  0  0  0  0
 10  4  1  0  0  0  0
 11  9  1  0  0  0  0
 12 10  2  0  0  0  0
 13  1  1  0  0  0  0
 14 23  2  0  0  0  0
 15  6  2  0  0  0  0
 16  7  1  0  0  0  0
 17  8  1  0  0  0  0
 18  7  2  0  0  0  0
 19  8  2  0  0  0  0
 20 13  1  0  0  0  0
 21 13  2  0  0  0  0
 22 20  2  0  0  0  0
 23 21  1  0  0  0  0
 24 12  1  0  0  0  0
 25 10  1  0  0  0  0
 26 12  1  0  0  0  0
 27 25  2  0  0  0  0
 28 27  1  0  0  0  0
 29 24  1  0  0  0  0
 30 26  2  0  0  0  0
 31 30  1  0  0  0  0
 17 16  1  0  0  0  0
 14 22  1  0  0  0  0
  4 11  2  0  0  0  0
 28 24  2  0  0  0  0
 31 29  2  0  0  0  0
M  END
> <IDNUMBER>
F0327-0347

> <Chemical_Name>
4-(2,5-dioxopyrrolidin-1-yl)-N-[4-(naphthalen-1-yl)-1,3-thiazol-2-yl]benzamide

> <CAS>
313405-89-9

> <PriceCoeff>
1.00

> <MW>
427.48

> <Description>
solid

> <FSP3>
0.08

> <clogP>
3.30

> <TPSA>
107.61

> <Acceptor>
4

> <Donor>
1

> <RotBonds>
4

> <HAC>
31

> <Collection>
General

$$$$
F0806-0078
  -ISIS-  06222321142D

 29 32  0  0  0  0  0  0  0  0999 V2000
   -2.8625   -1.7292    0.0000 C   0  0  0  0  0  0  0  0  0  0  0  0
   -2.3625   -1.1500    0.0000 C   0  0  0  0  0  0  0  0  0  0  0  0
   -3.5458   -1.4292    0.0000 S   0  0  0  0  0  0  0  0  0  0  0  0
    1.4375    0.3333    0.0000 N   0  0  3  0  0  0  0  0  0  0  0  0
   -1.5833   -1.2042    0.0000 N   0  0  0  0  0  0  0  0  0  0  0  0
   -2.7625   -0.4875    0.0000 C   0  0  0  0  0  0  0  0  0  0  0  0
    0.8167   -0.0875    0.0000 C   0  0  0  0  0  0  0  0  0  0  0  0
   -1.1625   -0.5667    0.0000 C   0  0  0  0  0  0  0  0  0  0  0  0
   -3.5000   -0.6875    0.0000 C   0  0  0  0  0  0  0  0  0  0  0  0
    1.2167    1.0708    0.0000 C   0  0  0  0  0  0  0  0  0  0  0  0
    2.1917    0.3125    0.0000 C   0  0  0  0  0  0  0  0  0  0  0  0
   -2.7000   -2.4875    0.0000 C   0  0  0  0  0  0  0  0  0  0  0  0
    0.0375   -0.0292    0.0000 C   0  0  0  0  0  0  0  0  0  0  0  0
   -0.4000   -0.6500    0.0000 C   0  0  0  0  0  0  0  0  0  0  0  0
   -1.4833    0.1333    0.0000 O   0  0  0  0  0  0  0  0  0  0  0  0
    1.8542    1.4958    0.0000 C   0  0  0  0  0  0  0  0  0  0  0  0
    2.4375    1.0500    0.0000 C   0  0  0  0  0  0  0  0  0  0  0  0
    0.4792    1.3500    0.0000 O   0  0  0  0  0  0  0  0  0  0  0  0
    2.6542   -0.3292    0.0000 O   0  0  0  0  0  0  0  0  0  0  0  0
   -3.2833   -2.9875    0.0000 O   0  0  0  0  0  0  0  0  0  0  0  0
   -1.9833   -2.7500    0.0000 O   0  0  0  0  0  0  0  0  0  0  0  0
    1.1375   -0.7875    0.0000 C   0  0  0  0  0  0  0  0  0  0  0  0
   -2.5458    0.2333    0.0000 C   0  0  0  0  0  0  0  0  0  0  0  0
   -4.0208   -0.1292    0.0000 C   0  0  0  0  0  0  0  0  0  0  0  0
   -0.0833   -1.3292    0.0000 C   0  0  0  0  0  0  0  0  0  0  0  0
    0.7000   -1.4042    0.0000 C   0  0  0  0  0  0  0  0  0  0  0  0
   -1.4000   -2.2667    0.0000 C   0  0  0  0  0  0  0  0  0  0  0  0
   -3.0833    0.7958    0.0000 C   0  0  0  0  0  0  0  0  0  0  0  0
   -3.8208    0.5958    0.0000 C   0  0  0  0  0  0  0  0  0  0  0  0
  2  1  2  0  0  0  0
  3  1  1  0  0  0  0
  4  7  1  0  0  0  0
  5  2  1  0  0  0  0
  6  2  1  0  0  0  0
  7 13  2  0  0  0  0
  8  5  1  0  0  0  0
  9  3  1  0  0  0  0
 10  4  1  0  0  0  0
 11  4  1  0  0  0  0
 12  1  1  0  0  0  0
 13 14  1  0  0  0  0
 14  8  1  0  0  0  0
 15  8  2  0  0  0  0
 16 10  1  0  0  0  0
 17 11  1  0  0  0  0
 18 10  2  0  0  0  0
 19 11  2  0  0  0  0
 20 12  2  0  0  0  0
 21 12  1  0  0  0  0
 22 26  2  0  0  0  0
 23  6  1  0  0  0  0
 24  9  1  0  0  0  0
 25 14  2  0  0  0  0
 26 25  1  0  0  0  0
 27 21  1  0  0  0  0
 28 23  2  0  0  0  0
 29 24  2  0  0  0  0
  6  9  2  0  0  0  0
 28 29  1  0  0  0  0
 22  7  1  0  0  0  0
 17 16  1  0  0  0  0
M  END
> <IDNUMBER>
F0806-0078

> <Chemical_Name>
methyl 3-[3-(2,5-dioxopyrrolidin-1-yl)benzamido]-1-benzothiophene-2-carboxylate

> <CAS>
477490-59-8

> <PriceCoeff>
1.00

> <MW>
408.43

> <Description>
solid

> <FSP3>
0.14

> <clogP>
2.35

> <TPSA>
121.02

> <Acceptor>
5

> <Donor>
1

> <RotBonds>
5

> <HAC>
29

> <Collection>
General

$$$$
F3374-0020
  -ISIS-  06222321152D

 28 30  0  0  0  0  0  0  0  0999 V2000
    5.4167   -4.6250    0.0000 S   0  0  3  0  0  0  0  0  0  0  0  0
    1.5375   -0.1250    0.0000 N   0  3  0  0  0  0  0  0  0  0  0  0
    5.4042   -5.3667    0.0000 N   0  0  3  0  0  0  0  0  0  0  0  0
    5.4167   -3.8792    0.0000 C   0  0  0  0  0  0  0  0  0  0  0  0
    4.1250   -2.3792    0.0000 C   0  0  0  0  0  0  0  0  0  0  0  0
    4.1292   -1.6417    0.0000 N   0  0  0  0  0  0  0  0  0  0  0  0
    2.1792   -0.5042    0.0000 C   0  0  0  0  0  0  0  0  0  0  0  0
    2.8417   -0.1292    0.0000 C   0  0  0  0  0  0  0  0  0  0  0  0
    3.4875   -1.2625    0.0000 C   0  0  0  0  0  0  0  0  0  0  0  0
    3.4917   -0.5042    0.0000 C   0  0  0  0  0  0  0  0  0  0  0  0
    4.7667   -2.7625    0.0000 C   0  0  0  0  0  0  0  0  0  0  0  0
    4.7667   -3.5042    0.0000 C   0  0  0  0  0  0  0  0  0  0  0  0
    6.1667   -4.6250    0.0000 O   0  0  0  0  0  0  0  0  0  0  0  0
    4.6792   -4.6167    0.0000 O   0  0  0  0  0  0  0  0  0  0  0  0
    0.8792   -0.4917    0.0000 O   0  5  0  0  0  0  0  0  0  0  0  0
    1.5417    0.6250    0.0000 O   0  0  0  0  0  0  0  0  0  0  0  0
    3.4792   -2.7542    0.0000 O   0  0  0  0  0  0  0  0  0  0  0  0
    2.1792   -1.2542    0.0000 C   0  0  0  0  0  0  0  0  0  0  0  0
    2.8292   -1.6375    0.0000 C   0  0  0  0  0  0  0  0  0  0  0  0
    5.3667   -6.8542    0.0000 O   0  0  0  0  0  0  0  0  0  0  0  0
    4.7500   -5.7292    0.0000 C   0  0  0  0  0  0  0  0  0  0  0  0
    6.0375   -5.7500    0.0000 C   0  0  0  0  0  0  0  0  0  0  0  0
    4.1417   -0.1292    0.0000 Cl  0  0  0  0  0  0  0  0  0  0  0  0
    6.0542   -3.5042    0.0000 C   0  0  0  0  0  0  0  0  0  0  0  0
    5.4167   -2.3917    0.0000 C   0  0  0  0  0  0  0  0  0  0  0  0
    4.7375   -6.4667    0.0000 C   0  0  0  0  0  0  0  0  0  0  0  0
    6.0250   -6.4917    0.0000 C   0  0  0  0  0  0  0  0  0  0  0  0
    6.0625   -2.7667    0.0000 C   0  0  0  0  0  0  0  0  0  0  0  0
  2  7  1  0  0  0  0
  3  1  1  0  0  0  0
  4  1  1  0  0  0  0
  5 11  1  0  0  0  0
  6  5  1  0  0  0  0
  7 18  2  0  0  0  0
  8 10  2  0  0  0  0
  9  6  1  0  0  0  0
 10  9  1  0  0  0  0
 11 12  2  0  0  0  0
 12  4  1  0  0  0  0
 13  1  2  0  0  0  0
 14  1  2  0  0  0  0
 15  2  1  0  0  0  0
 16  2  2  0  0  0  0
 17  5  2  0  0  0  0
 18 19  1  0  0  0  0
 19  9  2  0  0  0  0
 20 27  1  0  0  0  0
 21  3  1  0  0  0  0
 22  3  1  0  0  0  0
 23 10  1  0  0  0  0
 24  4  2  0  0  0  0
 25 28  2  0  0  0  0
 26 21  1  0  0  0  0
 27 22  1  0  0  0  0
 28 24  1  0  0  0  0
 26 20  1  0  0  0  0
 25 11  1  0  0  0  0
  8  7  1  0  0  0  0
M  CHG  2   2   1  15  -1
M  END
> <IDNUMBER>
F3374-0020

> <Chemical_Name>
N-(2-chloro-4-nitrophenyl)-3-(morpholine-4-sulfonyl)benzamide

> <CAS>
953852-20-5

> <PriceCoeff>
1.00

> <MW>
425.84

> <Description>
solid

> <FSP3>
0.24

> <clogP>
2.11

> <TPSA>
127.23

> <Acceptor>
6

> <Donor>
1

> <RotBonds>
5

> <HAC>
28

> <Collection>
General

$$$$
F0806-0059
  -ISIS-  06222321442D

 29 32  0  0  0  0  0  0  0  0999 V2000
   -1.4833    0.3958    0.0000 C   0  0  0  0  0  0  0  0  0  0  0  0
   -1.0833    0.8333    0.0000 C   0  0  0  0  0  0  0  0  0  0  0  0
   -2.0000    0.5958    0.0000 S   0  0  0  0  0  0  0  0  0  0  0  0
    2.1875    1.0625    0.0000 N   0  0  3  0  0  0  0  0  0  0  0  0
   -0.4833    0.7708    0.0000 N   0  0  0  0  0  0  0  0  0  0  0  0
   -1.4000    1.3333    0.0000 C   0  0  0  0  0  0  0  0  0  0  0  0
   -1.9708    1.1958    0.0000 C   0  0  0  0  0  0  0  0  0  0  0  0
   -0.1458    1.2500    0.0000 C   0  0  0  0  0  0  0  0  0  0  0  0
    2.5542    1.4833    0.0000 C   0  0  0  0  0  0  0  0  0  0  0  0
    2.5042    0.5958    0.0000 C   0  0  0  0  0  0  0  0  0  0  0  0
   -1.3833   -0.2292    0.0000 C   0  0  0  0  0  0  0  0  0  0  0  0
    1.6042    1.0958    0.0000 C   0  0  0  0  0  0  0  0  0  0  0  0
    0.4375    1.1958    0.0000 C   0  0  0  0  0  0  0  0  0  0  0  0
   -0.3833    1.7958    0.0000 O   0  0  0  0  0  0  0  0  0  0  0  0
    3.1000    1.2833    0.0000 C   0  0  0  0  0  0  0  0  0  0  0  0
    3.0500    0.7333    0.0000 C   0  0  0  0  0  0  0  0  0  0  0  0
    2.4292    2.0958    0.0000 O   0  0  0  0  0  0  0  0  0  0  0  0
    2.3000   -0.0000    0.0000 O   0  0  0  0  0  0  0  0  0  0  0  0
   -1.8458   -0.5875    0.0000 O   0  0  0  0  0  0  0  0  0  0  0  0
    1.2667    0.6125    0.0000 C   0  0  0  0  0  0  0  0  0  0  0  0
    1.3542    1.6125    0.0000 C   0  0  0  0  0  0  0  0  0  0  0  0
    0.6792    0.6625    0.0000 C   0  0  0  0  0  0  0  0  0  0  0  0
    0.7667    1.6625    0.0000 C   0  0  0  0  0  0  0  0  0  0  0  0
   -0.8208   -0.4500    0.0000 O   0  0  0  0  0  0  0  0  0  0  0  0
   -1.2208    1.9125    0.0000 C   0  0  0  0  0  0  0  0  0  0  0  0
   -2.3833    1.6125    0.0000 C   0  0  0  0  0  0  0  0  0  0  0  0
   -0.3458   -0.0667    0.0000 C   0  0  0  0  0  0  0  0  0  0  0  0
   -1.6458    2.3333    0.0000 C   0  0  0  0  0  0  0  0  0  0  0  0
   -2.2000    2.1708    0.0000 C   0  0  0  0  0  0  0  0  0  0  0  0
  2  1  2  0  0  0  0
  3  1  1  0  0  0  0
  4 12  1  0  0  0  0
  5  2  1  0  0  0  0
  6  2  1  0  0  0  0
  7  3  1  0  0  0  0
  8  5  1  0  0  0  0
  9  4  1  0  0  0  0
 10  4  1  0  0  0  0
 11  1  1  0  0  0  0
 12 21  1  0  0  0  0
 13  8  1  0  0  0  0
 14  8  2  0  0  0  0
 15  9  1  0  0  0  0
 16 10  1  0  0  0  0
 17  9  2  0  0  0  0
 18 10  2  0  0  0  0
 19 11  2  0  0  0  0
 20 22  1  0  0  0  0
 21 23  2  0  0  0  0
 22 13  2  0  0  0  0
 23 13  1  0  0  0  0
 24 11  1  0  0  0  0
 25  6  1  0  0  0  0
 26  7  1  0  0  0  0
 27 24  1  0  0  0  0
 28 25  2  0  0  0  0
 29 26  2  0  0  0  0
  6  7  2  0  0  0  0
 28 29  1  0  0  0  0
 20 12  2  0  0  0  0
 15 16  1  0  0  0  0
M  END
> <IDNUMBER>
F0806-0059

> <Chemical_Name>
methyl 3-[4-(2,5-dioxopyrrolidin-1-yl)benzamido]-1-benzothiophene-2-carboxylate

> <CAS>
477490-43-0

> <PriceCoeff>
1.00

> <MW>
408.43

> <Description>
solid

> <FSP3>
0.14

> <clogP>
2.35

> <TPSA>
121.02

> <Acceptor>
5

> <Donor>
1

> <RotBonds>
5

> <HAC>
29

> <Collection>
General

$$$$
F1118-0368
  -ISIS-  06222321452D

 21 22  0  0  0  0  0  0  0  0999 V2000
    6.9542   -0.9917    0.0000 N   0  3  0  0  0  0  0  0  0  0  0  0
    6.3250   -1.5292    0.0000 C   0  0  0  0  0  0  0  0  0  0  0  0
    5.5500   -1.2500    0.0000 C   0  0  0  0  0  0  0  0  0  0  0  0
    0.6500   -2.4417    0.0000 O   0  0  0  0  0  0  0  0  0  0  0  0
    1.3292   -1.9875    0.0000 C   0  0  0  0  0  0  0  0  0  0  0  0
    6.4667   -2.3417    0.0000 C   0  0  0  0  0  0  0  0  0  0  0  0
    0.0042   -1.9292    0.0000 C   0  0  0  0  0  0  0  0  0  0  0  0
    7.7292   -1.2667    0.0000 O   0  5  0  0  0  0  0  0  0  0  0  0
    3.5167   -2.0250    0.0000 C   0  0  0  0  0  0  0  0  0  0  0  0
    1.1000   -1.1875    0.0000 C   0  0  0  0  0  0  0  0  0  0  0  0
    0.2875   -1.1625    0.0000 C   0  0  0  0  0  0  0  0  0  0  0  0
    6.8125   -0.1792    0.0000 O   0  0  0  0  0  0  0  0  0  0  0  0
    4.1417   -1.4917    0.0000 N   0  0  0  0  0  0  0  0  0  0  0  0
    4.9167   -1.7792    0.0000 C   0  0  0  0  0  0  0  0  0  0  0  0
    3.6542   -2.8375    0.0000 O   0  0  0  0  0  0  0  0  0  0  0  0
    5.8375   -2.8750    0.0000 C   0  0  0  0  0  0  0  0  0  0  0  0
    2.1042   -2.2667    0.0000 C   0  0  0  0  0  0  0  0  0  0  0  0
    2.7417   -1.7417    0.0000 C   0  0  0  0  0  0  0  0  0  0  0  0
    5.0625   -2.5917    0.0000 C   0  0  0  0  0  0  0  0  0  0  0  0
    7.2667   -2.5542    0.0000 Cl  0  0  0  0  0  0  0  0  0  0  0  0
   -0.7958   -2.1542    0.0000 C   0  0  0  0  0  0  0  0  0  0  0  0
  2  1  1  0  0  0  0
  3  2  2  0  0  0  0
  4  5  1  0  0  0  0
  5 17  1  0  0  0  0
  6  2  1  0  0  0  0
  7  4  1  0  0  0  0
  8  1  1  0  0  0  0
  9 13  1  0  0  0  0
 10  5  2  0  0  0  0
 11 10  1  0  0  0  0
 12  1  2  0  0  0  0
 13 14  1  0  0  0  0
 14  3  1  0  0  0  0
 15  9  2  0  0  0  0
 16  6  2  0  0  0  0
 17 18  1  0  0  0  0
 18  9  1  0  0  0  0
 19 16  1  0  0  0  0
 20  6  1  0  0  0  0
 21  7  1  0  0  0  0
 19 14  2  0  0  0  0
  7 11  2  0  0  0  0
M  CHG  2   1   1   8  -1
M  END
> <IDNUMBER>
F1118-0368

> <Chemical_Name>
N-(4-chloro-3-nitrophenyl)-3-(5-methylfuran-2-yl)propanamide

> <CAS>
327075-11-6

> <PriceCoeff>
1.00

> <MW>
308.72

> <Description>
solid

> <FSP3>
0.21

> <clogP>
3.88

> <TPSA>
85.38

> <Acceptor>
4

> <Donor>
1

> <RotBonds>
5

> <HAC>
21

> <Collection>
General

$$$$
F1799-0414
  -ISIS-  06222321452D

 25 27  0  0  0  0  0  0  0  0999 V2000
    2.2417   -2.1667    0.0000 N   0  0  3  0  0  0  0  0  0  0  0  0
    2.0042   -2.8792    0.0000 C   0  0  0  0  0  0  0  0  0  0  0  0
    1.6375   -1.7292    0.0000 C   0  0  0  0  0  0  0  0  0  0  0  0
    1.0292   -2.1667    0.0000 C   0  0  3  0  0  0  0  0  0  0  0  0
    1.2625   -2.8792    0.0000 C   0  0  0  0  0  0  0  0  0  0  0  0
   -0.5583   -0.9667    0.0000 C   0  0  0  0  0  0  0  0  0  0  0  0
    0.3167   -1.9375    0.0000 N   0  0  0  0  0  0  0  0  0  0  0  0
    0.1542   -1.2042    0.0000 N   0  0  0  0  0  0  0  0  0  0  0  0
    2.9542   -1.9375    0.0000 C   0  0  0  0  0  0  0  0  0  0  0  0
   -0.7083   -0.2375    0.0000 C   0  0  0  0  0  0  0  0  0  0  0  0
    2.4417   -3.4875    0.0000 O   0  0  0  0  0  0  0  0  0  0  0  0
    1.6292   -0.9792    0.0000 O   0  0  0  0  0  0  0  0  0  0  0  0
   -1.1125   -1.4667    0.0000 O   0  0  0  0  0  0  0  0  0  0  0  0
   -1.4250   -0.0042    0.0000 C   0  0  0  0  0  0  0  0  0  0  0  0
    3.5125   -2.4375    0.0000 C   0  0  0  0  0  0  0  0  0  0  0  0
    3.1125   -1.2042    0.0000 C   0  0  0  0  0  0  0  0  0  0  0  0
    4.3792   -1.4667    0.0000 C   0  0  0  0  0  0  0  0  0  0  0  0
   -1.5833    0.7333    0.0000 C   0  0  0  0  0  0  0  0  0  0  0  0
    4.2250   -2.2042    0.0000 C   0  0  0  0  0  0  0  0  0  0  0  0
    3.8250   -0.9667    0.0000 C   0  0  0  0  0  0  0  0  0  0  0  0
    5.0917   -1.2417    0.0000 Cl  0  0  0  0  0  0  0  0  0  0  0  0
   -0.1583    0.2625    0.0000 C   0  0  0  0  0  0  0  0  0  0  0  0
   -0.3083    1.0000    0.0000 C   0  0  0  0  0  0  0  0  0  0  0  0
   -1.0208    1.2333    0.0000 C   0  0  0  0  0  0  0  0  0  0  0  0
   -2.2958    0.9583    0.0000 C   0  0  0  0  0  0  0  0  0  0  0  0
  2  1  1  0  0  0  0
  3  1  1  0  0  0  0
  4  3  1  0  0  0  0
  5  2  1  0  0  0  0
  6  8  1  0  0  0  0
  7  4  1  0  0  0  0
  8  7  1  0  0  0  0
  9  1  1  0  0  0  0
 10  6  1  0  0  0  0
 11  2  2  0  0  0  0
 12  3  2  0  0  0  0
 13  6  2  0  0  0  0
 14 10  2  0  0  0  0
 15  9  1  0  0  0  0
 16  9  2  0  0  0  0
 17 20  2  0  0  0  0
 18 14  1  0  0  0  0
 19 15  2  0  0  0  0
 20 16  1  0  0  0  0
 21 17  1  0  0  0  0
 22 10  1  0  0  0  0
 23 22  2  0  0  0  0
 24 23  1  0  0  0  0
 25 18  1  0  0  0  0
  5  4  1  0  0  0  0
 17 19  1  0  0  0  0
 18 24  2  0  0  0  0
M  END
> <IDNUMBER>
F1799-0414

> <Chemical_Name>
N'-[1-(4-chlorophenyl)-2,5-dioxopyrrolidin-3-yl]-3-methylbenzohydrazide

> <CAS>
485394-87-4

> <PriceCoeff>
1.00

> <MW>
357.79

> <Description>
solid

> <FSP3>
0.17

> <clogP>
3.32

> <TPSA>
78.51

> <Acceptor>
3

> <Donor>
2

> <RotBonds>
4

> <HAC>
25

> <Collection>
General

$$$$
F2724-0268
  -ISIS-  06222321462D

 31 34  0  0  0  0  0  0  0  0999 V2000
   -2.4458    1.0208    0.0000 N   0  3  0  0  0  0  0  0  0  0  0  0
   -2.4458    3.2708    0.0000 C   0  0  0  0  0  0  0  0  0  0  0  0
   -2.4458    4.0167    0.0000 C   0  0  0  0  0  0  0  0  0  0  0  0
   -5.6833    6.6417    0.0000 N   0  0  0  0  0  0  0  0  0  0  0  0
   -3.0875    2.8958    0.0000 C   0  0  0  0  0  0  0  0  0  0  0  0
   -5.0333    6.2667    0.0000 N   0  0  0  0  0  0  0  0  0  0  0  0
   -5.6833    7.3917    0.0000 C   0  0  0  0  0  0  0  0  0  0  0  0
   -2.4458    1.7708    0.0000 C   0  0  0  0  0  0  0  0  0  0  0  0
   -6.3250    7.7667    0.0000 N   0  0  3  0  0  0  0  0  0  0  0  0
   -3.0875    2.1458    0.0000 C   0  0  0  0  0  0  0  0  0  0  0  0
   -3.0875    4.3917    0.0000 N   0  0  0  0  0  0  0  0  0  0  0  0
   -1.7958    2.8958    0.0000 C   0  0  0  0  0  0  0  0  0  0  0  0
   -4.3833    6.6417    0.0000 C   0  0  0  0  0  0  0  0  0  0  0  0
   -3.0875    0.6458    0.0000 O   0  5  0  0  0  0  0  0  0  0  0  0
   -3.7375    6.2667    0.0000 C   0  0  0  0  0  0  0  0  0  0  0  0
   -1.7958    0.6458    0.0000 O   0  0  0  0  0  0  0  0  0  0  0  0
   -1.7958    4.3917    0.0000 O   0  0  0  0  0  0  0  0  0  0  0  0
   -3.0875    5.1417    0.0000 C   0  0  0  0  0  0  0  0  0  0  0  0
   -1.7958    2.1458    0.0000 C   0  0  0  0  0  0  0  0  0  0  0  0
   -3.7375    5.5167    0.0000 C   0  0  0  0  0  0  0  0  0  0  0  0
   -5.0333    7.7667    0.0000 C   0  0  0  0  0  0  0  0  0  0  0  0
   -4.3833    7.3917    0.0000 C   0  0  0  0  0  0  0  0  0  0  0  0
   -7.6167    8.5167    0.0000 O   0  0  0  0  0  0  0  0  0  0  0  0
   -3.7458    3.2708    0.0000 Cl  0  0  0  0  0  0  0  0  0  0  0  0
   -6.9667    7.3917    0.0000 C   0  0  0  0  0  0  0  0  0  0  0  0
   -6.3250    8.5167    0.0000 C   0  0  0  0  0  0  0  0  0  0  0  0
   -3.0875    6.6417    0.0000 C   0  0  0  0  0  0  0  0  0  0  0  0
   -2.4458    6.2667    0.0000 C   0  0  0  0  0  0  0  0  0  0  0  0
   -2.4458    5.5167    0.0000 C   0  0  0  0  0  0  0  0  0  0  0  0
   -6.9667    8.8917    0.0000 C   0  0  0  0  0  0  0  0  0  0  0  0
   -7.6167    7.7667    0.0000 C   0  0  0  0  0  0  0  0  0  0  0  0
  2 12  1  0  0  0  0
  3  2  1  0  0  0  0
  4  6  2  0  0  0  0
  5 10  1  0  0  0  0
  6 13  1  0  0  0  0
  7 21  2  0  0  0  0
  8  1  1  0  0  0  0
  9  7  1  0  0  0  0
 10  8  2  0  0  0  0
 11  3  1  0  0  0  0
 12 19  2  0  0  0  0
 13 15  1  0  0  0  0
 14  1  1  0  0  0  0
 15 20  2  0  0  0  0
 16  1  2  0  0  0  0
 17  3  2  0  0  0  0
 18 11  1  0  0  0  0
 19  8  1  0  0  0  0
 20 18  1  0  0  0  0
 21 22  1  0  0  0  0
 22 13  2  0  0  0  0
 23 30  1  0  0  0  0
 24  5  1  0  0  0  0
 25  9  1  0  0  0  0
 26  9  1  0  0  0  0
 27 28  2  0  0  0  0
 28 29  1  0  0  0  0
 29 18  2  0  0  0  0
 30 26  1  0  0  0  0
 31 25  1  0  0  0  0
  5  2  2  0  0  0  0
 15 27  1  0  0  0  0
  4  7  1  0  0  0  0
 31 23  1  0  0  0  0
M  CHG  2   1   1  14  -1
M  END
> <IDNUMBER>
F2724-0268

> <Chemical_Name>
2-chloro-N-{3-[6-(morpholin-4-yl)pyridazin-3-yl]phenyl}-4-nitrobenzamide

> <CAS>
899985-54-7

> <PriceCoeff>
1.00

> <MW>
439.85

> <Description>
solid

> <FSP3>
0.19

> <clogP>
2.46

> <TPSA>
110.49

> <Acceptor>
6

> <Donor>
2

> <RotBonds>
5

> <HAC>
31

> <Collection>
General

$$$$
F3271-0040
  -ISIS-  06222321152D

 27 29  0  0  0  0  0  0  0  0999 V2000
    4.7750  -10.1500    0.0000 C   0  0  0  0  0  0  0  0  0  0  0  0
   -0.0083  -11.2500    0.0000 N   0  3  0  0  0  0  0  0  0  0  0  0
    3.3417  -10.1542    0.0000 C   0  0  0  0  0  0  0  0  0  0  0  0
    4.0625  -10.6667    0.0000 O   0  0  0  0  0  0  0  0  0  0  0  0
    5.6167  -10.4167    0.0000 C   0  0  0  0  0  0  0  0  0  0  0  0
    2.5042  -10.4250    0.0000 C   0  0  0  0  0  0  0  0  0  0  0  0
    6.2667   -9.8292    0.0000 N   0  0  3  0  0  0  0  0  0  0  0  0
    2.3292  -11.2875    0.0000 C   0  0  0  0  0  0  0  0  0  0  0  0
    0.8292  -10.9750    0.0000 C   0  0  0  0  0  0  0  0  0  0  0  0
    4.5000   -9.3125    0.0000 C   0  0  0  0  0  0  0  0  0  0  0  0
    3.6167   -9.3125    0.0000 C   0  0  0  0  0  0  0  0  0  0  0  0
    1.4917  -11.5667    0.0000 C   0  0  0  0  0  0  0  0  0  0  0  0
   10.3875   -7.1667    0.0000 N   0  0  0  0  0  0  0  0  0  0  0  0
    7.5792   -8.6542    0.0000 N   0  0  3  0  0  0  0  0  0  0  0  0
    1.8542   -9.8375    0.0000 C   0  0  0  0  0  0  0  0  0  0  0  0
    9.7292   -7.7542    0.0000 C   0  0  0  0  0  0  0  0  0  0  0  0
   -0.6708  -10.6542    0.0000 O   0  5  0  0  0  0  0  0  0  0  0  0
    5.8000  -11.2792    0.0000 S   0  0  0  0  0  0  0  0  0  0  0  0
   -0.1958  -12.1125    0.0000 O   0  0  0  0  0  0  0  0  0  0  0  0
    1.0167  -10.1042    0.0000 C   0  0  0  0  0  0  0  0  0  0  0  0
    6.0792   -8.9667    0.0000 C   0  0  0  0  0  0  0  0  0  0  0  0
    7.1042  -10.1042    0.0000 C   0  0  0  0  0  0  0  0  0  0  0  0
    7.7625   -9.5167    0.0000 C   0  0  0  0  0  0  0  0  0  0  0  0
    6.7417   -8.3792    0.0000 C   0  0  0  0  0  0  0  0  0  0  0  0
    2.9917  -11.8750    0.0000 Cl  0  0  0  0  0  0  0  0  0  0  0  0
    9.0750   -8.3417    0.0000 C   0  0  0  0  0  0  0  0  0  0  0  0
    8.2417   -8.0667    0.0000 C   0  0  0  0  0  0  0  0  0  0  0  0
  2  9  1  0  0  0  0
  3  4  1  0  0  0  0
  4  1  1  0  0  0  0
  5  1  1  0  0  0  0
  6  3  1  0  0  0  0
  7  5  1  0  0  0  0
  8  6  1  0  0  0  0
  9 20  2  0  0  0  0
 10  1  2  0  0  0  0
 11 10  1  0  0  0  0
 12  8  2  0  0  0  0
 13 16  3  0  0  0  0
 14 23  1  0  0  0  0
 15  6  2  0  0  0  0
 16 26  1  0  0  0  0
 17  2  1  0  0  0  0
 18  5  2  0  0  0  0
 19  2  2  0  0  0  0
 20 15  1  0  0  0  0
 21  7  1  0  0  0  0
 22  7  1  0  0  0  0
 23 22  1  0  0  0  0
 24 21  1  0  0  0  0
 25  8  1  0  0  0  0
 26 27  1  0  0  0  0
 27 14  1  0  0  0  0
 11  3  2  0  0  0  0
 14 24  1  0  0  0  0
 12  9  1  0  0  0  0
M  CHG  2   2   1  17  -1
M  END
> <IDNUMBER>
F3271-0040

> <Chemical_Name>
3-{4-[5-(2-chloro-4-nitrophenyl)furan-2-carbothioyl]piperazin-1-yl}propanenitrile

> <CAS>
579443-34-8

> <PriceCoeff>
1.00

> <MW>
404.87

> <Description>
solid

> <FSP3>
0.33

> <clogP>
3.17

> <TPSA>
118.64

> <Acceptor>
5

> <Donor>
2

> <RotBonds>
6

> <HAC>
27

> <Collection>
General

$$$$
F2724-0678
  -ISIS-  06222321442D

 31 34  0  0  0  0  0  0  0  0999 V2000
    0.6500   -2.4250    0.0000 N   0  3  0  0  0  0  0  0  0  0  0  0
    2.8000   -3.6667    0.0000 C   0  0  0  0  0  0  0  0  0  0  0  0
    3.5167   -4.0875    0.0000 C   0  0  0  0  0  0  0  0  0  0  0  0
    8.5250   -5.3292    0.0000 N   0  0  0  0  0  0  0  0  0  0  0  0
    2.8000   -2.8417    0.0000 C   0  0  0  0  0  0  0  0  0  0  0  0
    7.8042   -4.9167    0.0000 N   0  0  0  0  0  0  0  0  0  0  0  0
    8.5250   -6.1542    0.0000 C   0  0  0  0  0  0  0  0  0  0  0  0
    1.3667   -2.8417    0.0000 C   0  0  0  0  0  0  0  0  0  0  0  0
    9.2417   -6.5667    0.0000 N   0  0  3  0  0  0  0  0  0  0  0  0
    2.0875   -2.4292    0.0000 C   0  0  0  0  0  0  0  0  0  0  0  0
    4.2292   -3.6750    0.0000 N   0  0  0  0  0  0  0  0  0  0  0  0
    2.0875   -4.0792    0.0000 C   0  0  0  0  0  0  0  0  0  0  0  0
    0.6542   -1.5917    0.0000 O   0  5  0  0  0  0  0  0  0  0  0  0
    7.0917   -5.3292    0.0000 C   0  0  0  0  0  0  0  0  0  0  0  0
   -0.0625   -2.8375    0.0000 O   0  0  0  0  0  0  0  0  0  0  0  0
    3.5167   -4.9167    0.0000 O   0  0  0  0  0  0  0  0  0  0  0  0
    6.3792   -4.9167    0.0000 C   0  0  0  0  0  0  0  0  0  0  0  0
    1.3667   -3.6667    0.0000 C   0  0  0  0  0  0  0  0  0  0  0  0
    7.8042   -6.5667    0.0000 C   0  0  0  0  0  0  0  0  0  0  0  0
    7.0917   -6.1542    0.0000 C   0  0  0  0  0  0  0  0  0  0  0  0
   10.6750   -7.4000    0.0000 O   0  0  0  0  0  0  0  0  0  0  0  0
    4.9500   -4.0875    0.0000 C   0  0  0  0  0  0  0  0  0  0  0  0
    6.3792   -4.0875    0.0000 C   0  0  0  0  0  0  0  0  0  0  0  0
    5.6625   -5.3292    0.0000 C   0  0  0  0  0  0  0  0  0  0  0  0
    3.5167   -2.4167    0.0000 Cl  0  0  0  0  0  0  0  0  0  0  0  0
    4.9500   -4.9167    0.0000 C   0  0  0  0  0  0  0  0  0  0  0  0
    5.6667   -3.6750    0.0000 C   0  0  0  0  0  0  0  0  0  0  0  0
    9.2417   -7.4000    0.0000 C   0  0  0  0  0  0  0  0  0  0  0  0
    9.9542   -6.1542    0.0000 C   0  0  0  0  0  0  0  0  0  0  0  0
   10.6750   -6.5667    0.0000 C   0  0  0  0  0  0  0  0  0  0  0  0
    9.9542   -7.8125    0.0000 C   0  0  0  0  0  0  0  0  0  0  0  0
  2 12  1  0  0  0  0
  3  2  1  0  0  0  0
  4  6  2  0  0  0  0
  5 10  1  0  0  0  0
  6 14  1  0  0  0  0
  7 19  2  0  0  0  0
  8  1  1  0  0  0  0
  9  7  1  0  0  0  0
 10  8  2  0  0  0  0
 11  3  1  0  0  0  0
 12 18  2  0  0  0  0
 13  1  1  0  0  0  0
 14 17  1  0  0  0  0
 15  1  2  0  0  0  0
 16  3  2  0  0  0  0
 17 23  2  0  0  0  0
 18  8  1  0  0  0  0
 19 20  1  0  0  0  0
 20 14  2  0  0  0  0
 21 30  1  0  0  0  0
 22 11  1  0  0  0  0
 23 27  1  0  0  0  0
 24 26  2  0  0  0  0
 25  5  1  0  0  0  0
 26 22  1  0  0  0  0
 27 22  2  0  0  0  0
 28  9  1  0  0  0  0
 29  9  1  0  0  0  0
 30 29  1  0  0  0  0
 31 28  1  0  0  0  0
  5  2  2  0  0  0  0
 17 24  1  0  0  0  0
  7  4  1  0  0  0  0
 21 31  1  0  0  0  0
M  CHG  2   1   1  13  -1
M  END
> <IDNUMBER>
F2724-0678

> <Chemical_Name>
2-chloro-N-{4-[6-(morpholin-4-yl)pyridazin-3-yl]phenyl}-4-nitrobenzamide

> <CAS>
899985-97-8

> <PriceCoeff>
1.00

> <MW>
439.85

> <Description>
solid

> <FSP3>
0.19

> <clogP>
2.46

> <TPSA>
110.49

> <Acceptor>
6

> <Donor>
2

> <RotBonds>
5

> <HAC>
31

> <Collection>
General

$$$$
F0588-0148
  -ISIS-  06222321442D

 30 33  0  0  0  0  0  0  0  0999 V2000
   -2.0125    1.5958    0.0000 C   0  0  0  0  0  0  0  0  0  0  0  0
   -2.2500    2.3083    0.0000 C   0  0  0  0  0  0  0  0  0  0  0  0
   -2.6125    1.1500    0.0000 N   0  0  0  0  0  0  0  0  0  0  0  0
   -0.4000    6.0542    0.0000 N   0  0  3  0  0  0  0  0  0  0  0  0
   -1.8125    2.9208    0.0000 N   0  0  0  0  0  0  0  0  0  0  0  0
   -2.9958    2.3000    0.0000 C   0  0  0  0  0  0  0  0  0  0  0  0
   -3.2250    1.5875    0.0000 C   0  0  0  0  0  0  0  0  0  0  0  0
   -2.1333    3.6083    0.0000 C   0  0  0  0  0  0  0  0  0  0  0  0
   -0.6125    6.7792    0.0000 C   0  0  0  0  0  0  0  0  0  0  0  0
    0.3417    6.0292    0.0000 C   0  0  0  0  0  0  0  0  0  0  0  0
   -1.2958    1.3750    0.0000 C   0  0  0  0  0  0  0  0  0  0  0  0
   -0.8333    5.4417    0.0000 C   0  0  0  0  0  0  0  0  0  0  0  0
   -1.6958    4.2167    0.0000 C   0  0  0  0  0  0  0  0  0  0  0  0
   -2.8833    3.6708    0.0000 O   0  0  0  0  0  0  0  0  0  0  0  0
    0.5917    6.7417    0.0000 C   0  0  0  0  0  0  0  0  0  0  0  0
    0.0042    7.2000    0.0000 C   0  0  0  0  0  0  0  0  0  0  0  0
   -1.3250    7.0292    0.0000 O   0  0  0  0  0  0  0  0  0  0  0  0
    0.7750    5.4042    0.0000 O   0  0  0  0  0  0  0  0  0  0  0  0
   -0.7458    1.8833    0.0000 O   0  0  0  0  0  0  0  0  0  0  0  0
   -0.5125    4.7542    0.0000 C   0  0  0  0  0  0  0  0  0  0  0  0
   -1.5833    5.5125    0.0000 C   0  0  0  0  0  0  0  0  0  0  0  0
   -0.9458    4.1417    0.0000 C   0  0  0  0  0  0  0  0  0  0  0  0
   -2.0125    4.9000    0.0000 C   0  0  0  0  0  0  0  0  0  0  0  0
   -1.1208    0.6458    0.0000 O   0  0  0  0  0  0  0  0  0  0  0  0
   -3.5000    2.8583    0.0000 C   0  0  0  0  0  0  0  0  0  0  0  0
   -3.9583    1.4250    0.0000 C   0  0  0  0  0  0  0  0  0  0  0  0
   -1.6708    0.1375    0.0000 C   0  0  0  0  0  0  0  0  0  0  0  0
   -4.2333    2.6958    0.0000 C   0  0  0  0  0  0  0  0  0  0  0  0
   -4.4583    1.9833    0.0000 C   0  0  0  0  0  0  0  0  0  0  0  0
   -1.5000   -0.5875    0.0000 C   0  0  0  0  0  0  0  0  0  0  0  0
  2  1  2  0  0  0  0
  3  1  1  0  0  0  0
  4 12  1  0  0  0  0
  5  2  1  0  0  0  0
  6  2  1  0  0  0  0
  7  3  1  0  0  0  0
  8  5  1  0  0  0  0
  9  4  1  0  0  0  0
 10  4  1  0  0  0  0
 11  1  1  0  0  0  0
 12 21  1  0  0  0  0
 13  8  1  0  0  0  0
 14  8  2  0  0  0  0
 15 10  1  0  0  0  0
 16  9  1  0  0  0  0
 17  9  2  0  0  0  0
 18 10  2  0  0  0  0
 19 11  2  0  0  0  0
 20 22  1  0  0  0  0
 21 23  2  0  0  0  0
 22 13  2  0  0  0  0
 23 13  1  0  0  0  0
 24 11  1  0  0  0  0
 25  6  1  0  0  0  0
 26  7  1  0  0  0  0
 27 24  1  0  0  0  0
 28 25  2  0  0  0  0
 29 26  2  0  0  0  0
 30 27  1  0  0  0  0
  6  7  2  0  0  0  0
 29 28  1  0  0  0  0
 12 20  2  0  0  0  0
 15 16  1  0  0  0  0
M  END
> <IDNUMBER>
F0588-0148

> <Chemical_Name>
ethyl 3-[4-(2,5-dioxopyrrolidin-1-yl)benzamido]-1H-indole-2-carboxylate

> <CAS>
850929-80-5

> <PriceCoeff>
1.00

> <MW>
405.40

> <Description>
solid

> <FSP3>
0.18

> <clogP>
1.87

> <TPSA>
108.57

> <Acceptor>
5

> <Donor>
2

> <RotBonds>
6

> <HAC>
30

> <Collection>
General

$$$$
F1175-0184
  -ISIS-  06222321142D

 22 24  0  0  0  0  0  0  0  0999 V2000
    8.4125    3.6250    0.0000 C   0  0  0  0  0  0  0  0  0  0  0  0
    9.2292    2.5000    0.0000 N   0  0  0  0  0  0  0  0  0  0  0  0
    7.0125    3.6458    0.0000 N   0  0  0  0  0  0  0  0  0  0  0  0
    6.2917    2.4333    0.0000 C   0  0  0  0  0  0  0  0  0  0  0  0
    0.6917    2.4083    0.0000 N   0  3  0  0  0  0  0  0  0  0  0  0
    4.8917    2.4125    0.0000 C   0  0  0  0  0  0  0  0  0  0  0  0
    9.2375    4.7542    0.0000 S   0  0  0  0  0  0  0  0  0  0  0  0
    4.1917    1.2000    0.0000 C   0  0  0  0  0  0  0  0  0  0  0  0
    2.0917    2.4083    0.0000 C   0  0  0  0  0  0  0  0  0  0  0  0
    2.7917    1.2000    0.0000 C   0  0  0  0  0  0  0  0  0  0  0  0
   10.5542    2.9250    0.0000 C   0  0  0  0  0  0  0  0  0  0  0  0
   10.5667    4.3167    0.0000 C   0  0  0  0  0  0  0  0  0  0  0  0
    4.1917    3.6250    0.0000 C   0  0  0  0  0  0  0  0  0  0  0  0
    0.0000    3.6208    0.0000 O   0  5  0  0  0  0  0  0  0  0  0  0
    0.0000    1.1958    0.0000 O   0  0  0  0  0  0  0  0  0  0  0  0
    6.9917    1.2208    0.0000 O   0  0  0  0  0  0  0  0  0  0  0  0
    2.7917    3.6250    0.0000 C   0  0  0  0  0  0  0  0  0  0  0  0
    4.9125   -0.0000    0.0000 Cl  0  0  0  0  0  0  0  0  0  0  0  0
   11.7667    2.2208    0.0000 C   0  0  0  0  0  0  0  0  0  0  0  0
   11.7792    5.0125    0.0000 C   0  0  0  0  0  0  0  0  0  0  0  0
   12.9875    2.9208    0.0000 C   0  0  0  0  0  0  0  0  0  0  0  0
   12.9917    4.3125    0.0000 C   0  0  0  0  0  0  0  0  0  0  0  0
  2  1  2  0  0  0  0
  3  1  1  0  0  0  0
  4  3  1  0  0  0  0
  5  9  1  0  0  0  0
  6  4  1  0  0  0  0
  7  1  1  0  0  0  0
  8  6  1  0  0  0  0
  9 17  2  0  0  0  0
 10  8  2  0  0  0  0
 11  2  1  0  0  0  0
 12  7  1  0  0  0  0
 13  6  2  0  0  0  0
 14  5  1  0  0  0  0
 15  5  2  0  0  0  0
 16  4  2  0  0  0  0
 17 13  1  0  0  0  0
 18  8  1  0  0  0  0
 19 11  1  0  0  0  0
 20 12  1  0  0  0  0
 21 19  2  0  0  0  0
 22 20  2  0  0  0  0
 11 12  2  0  0  0  0
 21 22  1  0  0  0  0
 10  9  1  0  0  0  0
M  CHG  2   5   1  14  -1
M  END
> <IDNUMBER>
F1175-0184

> <Chemical_Name>
N-(1,3-benzothiazol-2-yl)-2-chloro-4-nitrobenzamide

> <CAS>
313223-09-5

> <PriceCoeff>
1.00

> <MW>
333.75

> <Description>
solid

> <FSP3>
0.00

> <clogP>
3.23

> <TPSA>
113.37

> <Acceptor>
4

> <Donor>
1

> <RotBonds>
3

> <HAC>
22

> <Collection>
General

$$$$
F2547-0087
  -ISIS-  06222321142D

 23 24  0  0  0  0  0  0  0  0999 V2000
   -0.3208    1.7125    0.0000 S   0  0  3  0  0  0  0  0  0  0  0  0
   -3.9583    2.9583    0.0000 S   0  0  3  0  0  0  0  0  0  0  0  0
    2.3167    1.4708    0.0000 C   0  0  0  0  0  0  0  0  0  0  0  0
    3.1417    2.0500    0.0000 N   0  3  0  0  0  0  0  0  0  0  0  0
   -1.4833    2.2500    0.0000 N   0  0  3  0  0  0  0  0  0  0  0  0
    0.5917    1.3000    0.0000 C   0  0  0  0  0  0  0  0  0  0  0  0
    1.4042    1.8958    0.0000 C   0  0  0  0  0  0  0  0  0  0  0  0
   -3.5208    2.3958    0.0000 C   0  0  0  0  0  0  0  0  0  0  0  0
   -2.7958    2.5833    0.0000 C   0  0  3  0  0  0  0  0  0  0  0  0
    0.2667    2.7250    0.0000 O   0  0  0  0  0  0  0  0  0  0  0  0
   -1.1333    0.7875    0.0000 O   0  0  0  0  0  0  0  0  0  0  0  0
    2.4167    0.4625    0.0000 C   0  0  0  0  0  0  0  0  0  0  0  0
   -4.1625    2.2375    0.0000 O   0  0  0  0  0  0  0  0  0  0  0  0
   -4.5625    3.4833    0.0000 O   0  0  0  0  0  0  0  0  0  0  0  0
   -3.1083    3.8333    0.0000 C   0  0  0  0  0  0  0  0  0  0  0  0
    4.0625    1.6333    0.0000 O   0  5  0  0  0  0  0  0  0  0  0  0
    3.0500    3.0500    0.0000 O   0  0  0  0  0  0  0  0  0  0  0  0
   -3.8375    3.6500    0.0000 C   0  0  0  0  0  0  0  0  0  0  0  0
    0.6875    0.3083    0.0000 C   0  0  0  0  0  0  0  0  0  0  0  0
    1.6042   -0.1167    0.0000 C   0  0  0  0  0  0  0  0  0  0  0  0
    3.3292    0.0458    0.0000 Cl  0  0  0  0  0  0  0  0  0  0  0  0
   -1.1458    3.2083    0.0000 C   0  0  0  0  0  0  0  0  0  0  0  0
   -1.8000    3.9625    0.0000 C   0  0  0  0  0  0  0  0  0  0  0  0
  2  8  1  0  0  0  0
  3  7  1  0  0  0  0
  4  3  1  0  0  0  0
  5  1  1  0  0  0  0
  6  1  1  0  0  0  0
  7  6  2  0  0  0  0
  8  9  1  0  0  0  0
  9  5  1  0  0  0  0
 10  1  2  0  0  0  0
 11  1  2  0  0  0  0
 12 20  1  0  0  0  0
 13  2  2  0  0  0  0
 14  2  2  0  0  0  0
 15  9  1  0  0  0  0
 16  4  1  0  0  0  0
 17  4  2  0  0  0  0
 18 15  1  0  0  0  0
 19  6  1  0  0  0  0
 20 19  2  0  0  0  0
 21 12  1  0  0  0  0
 22  5  1  0  0  0  0
 23 22  1  0  0  0  0
  3 12  2  0  0  0  0
  2 18  1  0  0  0  0
M  CHG  2   4   1  16  -1
M  END
> <IDNUMBER>
F2547-0087

> <Chemical_Name>
4-chloro-N-(1,1-dioxo-1lambda6-thiolan-3-yl)-N-ethyl-3-nitrobenzene-1-sulfonamide

> <CAS>
874623-25-3

> <PriceCoeff>
1.00

> <MW>
382.84

> <Description>
solid

> <FSP3>
0.50

> <clogP>
1.07

> <TPSA>
131.42

> <Acceptor>
6

> <Donor>
0

> <RotBonds>
5

> <HAC>
23

> <Collection>
General

$$$$
F1300-0044
  -ISIS-  06222321442D

 29 32  0  0  0  0  0  0  0  0999 V2000
   -1.1708    2.9833    0.0000 C   0  0  0  0  0  0  0  0  0  0  0  0
    2.5250    0.8458    0.0000 N   0  0  3  0  0  0  0  0  0  0  0  0
   -1.6583    2.3083    0.0000 N   0  0  0  0  0  0  0  0  0  0  0  0
   -0.3458    2.9833    0.0000 N   0  0  0  0  0  0  0  0  0  0  0  0
   -1.6583    3.6458    0.0000 S   0  0  0  0  0  0  0  0  0  0  0  0
    2.1167    1.5583    0.0000 C   0  0  0  0  0  0  0  0  0  0  0  0
    0.0667    2.2708    0.0000 C   0  0  0  0  0  0  0  0  0  0  0  0
    2.1500    0.1083    0.0000 C   0  0  0  0  0  0  0  0  0  0  0  0
    3.3292    0.7250    0.0000 C   0  0  0  0  0  0  0  0  0  0  0  0
   -2.4458    3.3958    0.0000 C   0  0  0  0  0  0  0  0  0  0  0  0
   -2.4458    2.5625    0.0000 C   0  0  0  0  0  0  0  0  0  0  0  0
   -4.5833    3.7958    0.0000 C   0  0  0  0  0  0  0  0  0  0  0  0
   -3.8625    3.3958    0.0000 C   0  0  0  0  0  0  0  0  0  0  0  0
    1.2917    1.5583    0.0000 C   0  0  0  0  0  0  0  0  0  0  0  0
    0.8792    2.2708    0.0000 C   0  0  0  0  0  0  0  0  0  0  0  0
   -3.1583    3.8083    0.0000 C   0  0  0  0  0  0  0  0  0  0  0  0
   -0.3458    1.5583    0.0000 O   0  0  0  0  0  0  0  0  0  0  0  0
    2.7542   -0.4667    0.0000 C   0  0  0  0  0  0  0  0  0  0  0  0
    3.4792   -0.0875    0.0000 C   0  0  0  0  0  0  0  0  0  0  0  0
    1.3417   -0.0250    0.0000 O   0  0  0  0  0  0  0  0  0  0  0  0
    3.9042    1.2958    0.0000 O   0  0  0  0  0  0  0  0  0  0  0  0
   -5.2875    3.3833    0.0000 O   0  0  0  0  0  0  0  0  0  0  0  0
   -3.1583    2.1583    0.0000 C   0  0  0  0  0  0  0  0  0  0  0  0
   -3.8625    2.5625    0.0000 C   0  0  0  0  0  0  0  0  0  0  0  0
   -4.5833    4.6250    0.0000 O   0  0  0  0  0  0  0  0  0  0  0  0
    2.5292    2.2708    0.0000 C   0  0  0  0  0  0  0  0  0  0  0  0
    1.2917    2.9833    0.0000 C   0  0  0  0  0  0  0  0  0  0  0  0
    2.1167    2.9833    0.0000 C   0  0  0  0  0  0  0  0  0  0  0  0
   -3.8708    5.0292    0.0000 C   0  0  0  0  0  0  0  0  0  0  0  0
  2  6  1  0  0  0  0
  3  1  2  0  0  0  0
  4  1  1  0  0  0  0
  5  1  1  0  0  0  0
  6 14  1  0  0  0  0
  7  4  1  0  0  0  0
  8  2  1  0  0  0  0
  9  2  1  0  0  0  0
 10  5  1  0  0  0  0
 11  3  1  0  0  0  0
 12 13  1  0  0  0  0
 13 16  2  0  0  0  0
 14 15  2  0  0  0  0
 15  7  1  0  0  0  0
 16 10  1  0  0  0  0
 17  7  2  0  0  0  0
 18  8  1  0  0  0  0
 19  9  1  0  0  0  0
 20  8  2  0  0  0  0
 21  9  2  0  0  0  0
 22 12  2  0  0  0  0
 23 11  1  0  0  0  0
 24 23  2  0  0  0  0
 25 12  1  0  0  0  0
 26 28  1  0  0  0  0
 27 15  1  0  0  0  0
 28 27  2  0  0  0  0
 29 25  1  0  0  0  0
 10 11  2  0  0  0  0
 13 24  1  0  0  0  0
 26  6  2  0  0  0  0
 18 19  1  0  0  0  0
M  END
> <IDNUMBER>
F1300-0044

> <Chemical_Name>
methyl 2-[3-(2,5-dioxopyrrolidin-1-yl)benzamido]-1,3-benzothiazole-6-carboxylate

> <CAS>
864860-54-8

> <PriceCoeff>
1.00

> <MW>
409.42

> <Description>
solid

> <FSP3>
0.15

> <clogP>
1.67

> <TPSA>
133.91

> <Acceptor>
6

> <Donor>
1

> <RotBonds>
5

> <HAC>
29

> <Collection>
General

$$$$
F1065-0793
  -ISIS-  06222321452D

 26 28  0  0  0  0  0  0  0  0999 V2000
   -1.0000   -0.7792    0.0000 N   0  0  3  0  0  0  0  0  0  0  0  0
   -1.4125   -1.7000    0.0000 C   0  0  0  0  0  0  0  0  0  0  0  0
    0.0292   -0.8375    0.0000 C   0  0  0  0  0  0  0  0  0  0  0  0
    0.2667   -1.8500    0.0000 C   0  0  3  0  0  0  0  0  0  0  0  0
   -0.6333   -2.3875    0.0000 C   0  0  0  0  0  0  0  0  0  0  0  0
    3.0500   -1.7000    0.0000 C   0  0  0  0  0  0  0  0  0  0  0  0
    1.2542   -2.1292    0.0000 S   0  0  0  0  0  0  0  0  0  0  0  0
    2.0292   -1.4042    0.0000 C   0  0  0  0  0  0  0  0  0  0  0  0
    3.3167   -2.6792    0.0000 C   0  0  0  0  0  0  0  0  0  0  0  0
   -1.6333    0.1000    0.0000 C   0  0  0  0  0  0  0  0  0  0  0  0
   -2.4333   -1.8875    0.0000 O   0  0  0  0  0  0  0  0  0  0  0  0
    0.7000   -0.0167    0.0000 O   0  0  0  0  0  0  0  0  0  0  0  0
   -2.8000    1.8000    0.0000 C   0  0  0  0  0  0  0  0  0  0  0  0
   -3.3833    2.6458    0.0000 N   0  0  3  0  0  0  0  0  0  0  0  0
    4.3167   -2.9375    0.0000 O   0  0  0  0  0  0  0  0  0  0  0  0
   -2.6500   -0.0000    0.0000 C   0  0  0  0  0  0  0  0  0  0  0  0
   -1.1708    1.0458    0.0000 C   0  0  0  0  0  0  0  0  0  0  0  0
   -3.2458    0.8625    0.0000 C   0  0  0  0  0  0  0  0  0  0  0  0
   -1.7625    1.8958    0.0000 C   0  0  0  0  0  0  0  0  0  0  0  0
    2.6292   -3.4500    0.0000 O   0  0  0  0  0  0  0  0  0  0  0  0
    3.7667   -0.9500    0.0000 C   0  0  0  0  0  0  0  0  0  0  0  0
    1.7375   -0.4042    0.0000 C   0  0  0  0  0  0  0  0  0  0  0  0
   -4.4208    2.5500    0.0000 C   0  0  0  0  0  0  0  0  0  0  0  0
   -2.9333    3.5708    0.0000 C   0  0  0  0  0  0  0  0  0  0  0  0
    3.4792    0.0625    0.0000 C   0  0  0  0  0  0  0  0  0  0  0  0
    2.4542    0.3333    0.0000 C   0  0  0  0  0  0  0  0  0  0  0  0
  2  1  1  0  0  0  0
  3  1  1  0  0  0  0
  4  3  1  0  0  0  0
  5  2  1  0  0  0  0
  6  8  2  0  0  0  0
  7  4  1  0  0  0  0
  8  7  1  0  0  0  0
  9  6  1  0  0  0  0
 10  1  1  0  0  0  0
 11  2  2  0  0  0  0
 12  3  2  0  0  0  0
 13 19  2  0  0  0  0
 14 13  1  0  0  0  0
 15  9  2  0  0  0  0
 16 10  1  0  0  0  0
 17 10  2  0  0  0  0
 18 16  2  0  0  0  0
 19 17  1  0  0  0  0
 20  9  1  0  0  0  0
 21  6  1  0  0  0  0
 22  8  1  0  0  0  0
 23 14  1  0  0  0  0
 24 14  1  0  0  0  0
 25 26  1  0  0  0  0
 26 22  2  0  0  0  0
  5  4  1  0  0  0  0
 18 13  1  0  0  0  0
 21 25  2  0  0  0  0
M  END
> <IDNUMBER>
F1065-0793

> <Chemical_Name>
2-({1-[4-(dimethylamino)phenyl]-2,5-dioxopyrrolidin-3-yl}sulfanyl)benzoic acid

> <CAS>
367908-50-7

> <PriceCoeff>
1.00

> <MW>
370.42

> <Description>
solid

> <FSP3>
0.21

> <clogP>
2.24

> <TPSA>
103.22

> <Acceptor>
5

> <Donor>
1

> <RotBonds>
5

> <HAC>
26

> <Collection>
General

$$$$
F3395-0158
  -ISIS-  06222321462D

 15 16  0  0  0  0  0  0  0  0999 V2000
   10.3917   -3.0292    0.0000 C   0  0  0  0  0  0  0  0  0  0  0  0
    9.6792   -3.4458    0.0000 C   0  0  0  0  0  0  0  0  0  0  0  0
    8.9583   -3.0333    0.0000 C   0  0  0  0  0  0  0  0  0  0  0  0
    6.8083   -3.4542    0.0000 C   0  0  0  0  0  0  0  0  0  0  0  0
    7.5208   -3.0417    0.0000 C   0  0  0  0  0  0  0  0  0  0  0  0
   10.3833   -2.2000    0.0000 O   0  0  0  0  0  0  0  0  0  0  0  0
    8.2375   -3.4542    0.0000 C   0  0  0  0  0  0  0  0  0  0  0  0
    6.8083   -4.2792    0.0000 C   0  0  0  0  0  0  0  0  0  0  0  0
    7.5208   -4.6917    0.0000 C   0  0  0  0  0  0  0  0  0  0  0  0
   11.1125   -3.4375    0.0000 O   0  0  0  0  0  0  0  0  0  0  0  0
    8.2375   -4.2792    0.0000 C   0  0  0  0  0  0  0  0  0  0  0  0
    6.0958   -3.0417    0.0000 C   0  0  0  0  0  0  0  0  0  0  0  0
    6.0958   -4.6917    0.0000 C   0  0  0  0  0  0  0  0  0  0  0  0
    5.3792   -3.4542    0.0000 C   0  0  0  0  0  0  0  0  0  0  0  0
    5.3792   -4.2792    0.0000 C   0  0  0  0  0  0  0  0  0  0  0  0
  2  1  1  0  0  0  0
  3  2  2  0  0  0  0
  4  5  1  0  0  0  0
  5  7  2  0  0  0  0
  6  1  2  0  0  0  0
  7  3  1  0  0  0  0
  8  9  1  0  0  0  0
  9 11  2  0  0  0  0
 10  1  1  0  0  0  0
 11  7  1  0  0  0  0
 12  4  2  0  0  0  0
 13  8  2  0  0  0  0
 14 12  1  0  0  0  0
 15 13  1  0  0  0  0
  4  8  1  0  0  0  0
 15 14  2  0  0  0  0
M  END
> <IDNUMBER>
F3395-0158

> <Chemical_Name>
(2E)-3-(naphthalen-2-yl)prop-2-enoic acid

> <CAS>
49711-14-0

> <PriceCoeff>
1.00

> <MW>
198.22

> <Description>
solid

> <FSP3>
0.00

> <clogP>
3.41

> <TPSA>
37.30

> <Acceptor>
2

> <Donor>
0

> <RotBonds>
2

> <HAC>
15

> <Collection>
General

> <Reference_compound>
CHEMBL27246

> <Similarity>
0.8890

$$$$
F1359-2484
  -ISIS-  06222321142D

 26 28  0  0  0  0  0  0  0  0999 V2000
   -1.1625    2.3833    0.0000 C   0  0  0  0  0  0  0  0  0  0  0  0
    1.3167    3.8083    0.0000 N   0  0  3  0  0  0  0  0  0  0  0  0
   -1.6458    1.7208    0.0000 N   0  0  3  0  0  0  0  0  0  0  0  0
   -0.3375    2.3750    0.0000 N   0  0  0  0  0  0  0  0  0  0  0  0
   -1.6458    3.0500    0.0000 S   0  0  0  0  0  0  0  0  0  0  0  0
   -2.4333    2.7958    0.0000 C   0  0  0  0  0  0  0  0  0  0  0  0
   -2.4333    1.9708    0.0000 C   0  0  0  0  0  0  0  0  0  0  0  0
    2.1292    3.8833    0.0000 C   0  0  0  0  0  0  0  0  0  0  0  0
    0.9792    4.5417    0.0000 C   0  0  0  0  0  0  0  0  0  0  0  0
    0.0750    3.0875    0.0000 C   0  0  0  0  0  0  0  0  0  0  0  0
    0.9000    3.0875    0.0000 C   0  0  0  0  0  0  0  0  0  0  0  0
   -3.1458    3.2083    0.0000 C   0  0  0  0  0  0  0  0  0  0  0  0
   -3.1458    1.5583    0.0000 C   0  0  0  0  0  0  0  0  0  0  0  0
    1.5917    5.0917    0.0000 C   0  0  0  0  0  0  0  0  0  0  0  0
    2.3125    4.6917    0.0000 C   0  0  0  0  0  0  0  0  0  0  0  0
    0.1792    4.7292    0.0000 O   0  0  0  0  0  0  0  0  0  0  0  0
    2.6875    3.2708    0.0000 O   0  0  0  0  0  0  0  0  0  0  0  0
   -0.3375    3.8000    0.0000 O   0  0  0  0  0  0  0  0  0  0  0  0
   -3.8583    2.7958    0.0000 C   0  0  0  0  0  0  0  0  0  0  0  0
   -1.3958    0.9333    0.0000 C   0  0  0  0  0  0  0  0  0  0  0  0
   -3.8583    1.9708    0.0000 C   0  0  0  0  0  0  0  0  0  0  0  0
   -4.5833    3.2125    0.0000 Br  0  0  0  0  0  0  0  0  0  0  0  0
   -2.7458    0.4875    0.0000 O   0  0  0  0  0  0  0  0  0  0  0  0
   -1.9458    0.3208    0.0000 C   0  0  0  0  0  0  0  0  0  0  0  0
   -3.3125   -0.1167    0.0000 C   0  0  0  0  0  0  0  0  0  0  0  0
   -4.1208    0.0583    0.0000 C   0  0  0  0  0  0  0  0  0  0  0  0
  2 11  1  0  0  0  0
  3  1  1  0  0  0  0
  4  1  2  0  0  0  0
  5  1  1  0  0  0  0
  6  5  1  0  0  0  0
  7  3  1  0  0  0  0
  8  2  1  0  0  0  0
  9  2  1  0  0  0  0
 10  4  1  0  0  0  0
 11 10  1  0  0  0  0
 12  6  1  0  0  0  0
 13  7  1  0  0  0  0
 14  9  1  0  0  0  0
 15  8  1  0  0  0  0
 16  9  2  0  0  0  0
 17  8  2  0  0  0  0
 18 10  2  0  0  0  0
 19 12  2  0  0  0  0
 20  3  1  0  0  0  0
 21 13  2  0  0  0  0
 22 19  1  0  0  0  0
 23 24  1  0  0  0  0
 24 20  1  0  0  0  0
 25 23  1  0  0  0  0
 26 25  1  0  0  0  0
  7  6  2  0  0  0  0
 21 19  1  0  0  0  0
 15 14  1  0  0  0  0
M  END
> <IDNUMBER>
F1359-2484

> <Chemical_Name>
N-[(2Z)-6-bromo-3-(2-ethoxyethyl)-2,3-dihydro-1,3-benzothiazol-2-ylidene]-2-(2,5-dioxopyrrolidin-1-yl)acetamide

> <CAS>
865162-90-9

> <PriceCoeff>
1.00

> <MW>
440.31

> <Description>
solid

> <FSP3>
0.41

> <clogP>
3.79

> <TPSA>
104.58

> <Acceptor>
4

> <Donor>
0

> <RotBonds>
7

> <HAC>
26

> <Collection>
General

$$$$
F0614-0106
  -ISIS-  06222321442D

 32 36  0  0  0  0  0  0  0  0999 V2000
   -1.7458    0.1000    0.0000 C   0  0  0  0  0  0  0  0  0  0  0  0
   -1.7375   -0.7167    0.0000 C   0  0  0  0  0  0  0  0  0  0  0  0
   -2.4500    0.5208    0.0000 C   0  0  0  0  0  0  0  0  0  0  0  0
   -0.9625    6.2667    0.0000 N   0  0  3  0  0  0  0  0  0  0  0  0
   -2.4583   -1.1292    0.0000 O   0  0  0  0  0  0  0  0  0  0  0  0
   -2.4458    1.3458    0.0000 N   0  0  0  0  0  0  0  0  0  0  0  0
   -3.1625    0.1083    0.0000 C   0  0  0  0  0  0  0  0  0  0  0  0
   -1.7208    1.7500    0.0000 C   0  0  0  0  0  0  0  0  0  0  0  0
   -1.0250    0.5083    0.0000 C   0  0  0  0  0  0  0  0  0  0  0  0
   -1.7125    2.5833    0.0000 N   0  0  0  0  0  0  0  0  0  0  0  0
   -0.2958    6.7375    0.0000 C   0  0  0  0  0  0  0  0  0  0  0  0
   -1.6333    6.7542    0.0000 C   0  0  0  0  0  0  0  0  0  0  0  0
   -0.9958    2.9833    0.0000 C   0  0  0  0  0  0  0  0  0  0  0  0
   -3.1708   -0.7167    0.0000 C   0  0  0  0  0  0  0  0  0  0  0  0
   -0.9750    5.4375    0.0000 C   0  0  0  0  0  0  0  0  0  0  0  0
   -1.0125    1.3333    0.0000 C   0  0  0  0  0  0  0  0  0  0  0  0
   -0.9833    3.7958    0.0000 C   0  0  0  0  0  0  0  0  0  0  0  0
   -1.0250   -1.1375    0.0000 O   0  0  0  0  0  0  0  0  0  0  0  0
   -0.2833    2.5583    0.0000 O   0  0  0  0  0  0  0  0  0  0  0  0
   -1.3625    7.5292    0.0000 C   0  0  0  0  0  0  0  0  0  0  0  0
   -0.5458    7.5167    0.0000 C   0  0  0  0  0  0  0  0  0  0  0  0
    0.4792    6.4667    0.0000 O   0  0  0  0  0  0  0  0  0  0  0  0
   -2.4208    6.5042    0.0000 O   0  0  0  0  0  0  0  0  0  0  0  0
   -0.2708    5.0167    0.0000 C   0  0  0  0  0  0  0  0  0  0  0  0
   -1.6958    5.0292    0.0000 C   0  0  0  0  0  0  0  0  0  0  0  0
   -0.2708    4.1917    0.0000 C   0  0  0  0  0  0  0  0  0  0  0  0
   -1.6958    4.2167    0.0000 C   0  0  0  0  0  0  0  0  0  0  0  0
   -3.8750    0.5250    0.0000 C   0  0  0  0  0  0  0  0  0  0  0  0
   -0.3208    0.0833    0.0000 C   0  0  0  0  0  0  0  0  0  0  0  0
   -3.8750   -1.1250    0.0000 C   0  0  0  0  0  0  0  0  0  0  0  0
   -4.5833    0.1083    0.0000 C   0  0  0  0  0  0  0  0  0  0  0  0
   -4.5833   -0.7167    0.0000 C   0  0  0  0  0  0  0  0  0  0  0  0
  2  1  1  0  0  0  0
  3  1  2  0  0  0  0
  4 15  1  0  0  0  0
  5  2  1  0  0  0  0
  6  3  1  0  0  0  0
  7  3  1  0  0  0  0
  8 16  1  0  0  0  0
  9  1  1  0  0  0  0
 10  8  1  0  0  0  0
 11  4  1  0  0  0  0
 12  4  1  0  0  0  0
 13 10  1  0  0  0  0
 14  7  2  0  0  0  0
 15 25  1  0  0  0  0
 16  9  2  0  0  0  0
 17 13  1  0  0  0  0
 18  2  2  0  0  0  0
 19 13  2  0  0  0  0
 20 12  1  0  0  0  0
 21 11  1  0  0  0  0
 22 11  2  0  0  0  0
 23 12  2  0  0  0  0
 24 26  1  0  0  0  0
 25 27  2  0  0  0  0
 26 17  2  0  0  0  0
 27 17  1  0  0  0  0
 28  7  1  0  0  0  0
 29  9  1  0  0  0  0
 30 14  1  0  0  0  0
 31 28  2  0  0  0  0
 32 31  1  0  0  0  0
  8  6  2  0  0  0  0
 14  5  1  0  0  0  0
 30 32  2  0  0  0  0
 24 15  2  0  0  0  0
 20 21  1  0  0  0  0
M  END
> <IDNUMBER>
F0614-0106

> <Chemical_Name>
4-(2,5-dioxopyrrolidin-1-yl)-N-{4-methyl-5-oxo-5H-chromeno[4,3-b]pyridin-2-yl}benzamide

> <CAS>
851411-78-4

> <PriceCoeff>
1.00

> <MW>
427.41

> <Description>
solid

> <FSP3>
0.12

> <clogP>
1.77

> <TPSA>
105.67

> <Acceptor>
6

> <Donor>
2

> <RotBonds>
3

> <HAC>
32

> <Collection>
General

$$$$
F2167-9582
  -ISIS-  06222321442D

 25 27  0  0  0  0  0  0  0  0999 V2000
    4.6417   -0.9250    0.0000 C   0  0  0  0  0  0  0  0  0  0  0  0
    3.9292   -1.3417    0.0000 C   0  0  0  0  0  0  0  0  0  0  0  0
    3.2125   -2.5792    0.0000 C   0  0  0  0  0  0  0  0  0  0  0  0
    3.9292   -2.1667    0.0000 C   0  0  0  0  0  0  0  0  0  0  0  0
    2.5000   -2.1667    0.0000 C   0  0  0  0  0  0  0  0  0  0  0  0
    3.2125   -3.4042    0.0000 O   0  0  0  0  0  0  0  0  0  0  0  0
    1.7792   -2.5792    0.0000 O   0  0  0  0  0  0  0  0  0  0  0  0
    4.6375   -0.0958    0.0000 O   0  0  0  0  0  0  0  0  0  0  0  0
    3.2125   -0.9292    0.0000 C   0  0  0  0  0  0  0  0  0  0  0  0
    2.5000   -1.3417    0.0000 C   0  0  0  0  0  0  0  0  0  0  0  0
    5.3542   -1.3292    0.0000 O   0  0  0  0  0  0  0  0  0  0  0  0
    2.5000   -3.8167    0.0000 C   0  0  0  0  0  0  0  0  0  0  0  0
    1.0667   -2.1667    0.0000 C   0  0  0  0  0  0  0  0  0  0  0  0
    0.3542   -2.5792    0.0000 C   0  0  0  0  0  0  0  0  0  0  0  0
    2.5000   -4.6417    0.0000 C   0  0  0  0  0  0  0  0  0  0  0  0
   -0.3583   -2.1667    0.0000 C   0  0  0  0  0  0  0  0  0  0  0  0
    0.3542   -3.4042    0.0000 C   0  0  0  0  0  0  0  0  0  0  0  0
    1.7792   -5.0542    0.0000 C   0  0  0  0  0  0  0  0  0  0  0  0
    3.2125   -5.0542    0.0000 C   0  0  0  0  0  0  0  0  0  0  0  0
   -0.3583   -3.8167    0.0000 C   0  0  0  0  0  0  0  0  0  0  0  0
    1.7792   -5.8792    0.0000 C   0  0  0  0  0  0  0  0  0  0  0  0
    3.2167   -5.8750    0.0000 C   0  0  0  0  0  0  0  0  0  0  0  0
   -1.0708   -2.5792    0.0000 C   0  0  0  0  0  0  0  0  0  0  0  0
   -1.0750   -3.4042    0.0000 C   0  0  0  0  0  0  0  0  0  0  0  0
    2.5000   -6.2917    0.0000 C   0  0  0  0  0  0  0  0  0  0  0  0
  2  1  1  0  0  0  0
  3  4  2  0  0  0  0
  4  2  1  0  0  0  0
  5 10  2  0  0  0  0
  6  3  1  0  0  0  0
  7  5  1  0  0  0  0
  8  1  2  0  0  0  0
  9  2  2  0  0  0  0
 10  9  1  0  0  0  0
 11  1  1  0  0  0  0
 12  6  1  0  0  0  0
 13  7  1  0  0  0  0
 14 13  1  0  0  0  0
 15 12  1  0  0  0  0
 16 14  2  0  0  0  0
 17 14  1  0  0  0  0
 18 15  2  0  0  0  0
 19 15  1  0  0  0  0
 20 17  2  0  0  0  0
 21 18  1  0  0  0  0
 22 19  2  0  0  0  0
 23 16  1  0  0  0  0
 24 20  1  0  0  0  0
 25 22  1  0  0  0  0
  5  3  1  0  0  0  0
 21 25  2  0  0  0  0
 23 24  2  0  0  0  0
M  END
> <IDNUMBER>
F2167-9582

> <Chemical_Name>
3,4-bis(benzyloxy)benzoic acid

> <CAS>
1570-05-4

> <PriceCoeff>
1.00

> <MW>
334.37

> <Description>
solid

> <FSP3>
0.10

> <clogP>
5.20

> <TPSA>
55.76

> <Acceptor>
4

> <Donor>
0

> <RotBonds>
7

> <HAC>
25

> <Collection>
General

> <Reference_compound>
CHEMBL88700

> <Similarity>
0.8020

$$$$
F0359-0020
  -ISIS-  06222321452D

 32 34  0  0  0  0  0  0  0  0999 V2000
   -1.0833    1.5708    0.0000 C   0  0  0  0  0  0  0  0  0  0  0  0
   -1.1833    2.1708    0.0000 C   0  0  0  0  0  0  0  0  0  0  0  0
   -1.7625    2.2708    0.0000 C   0  0  0  0  0  0  0  0  0  0  0  0
   -2.0458    1.7500    0.0000 C   0  0  0  0  0  0  0  0  0  0  0  0
   -1.6458    1.3125    0.0000 S   0  0  0  0  0  0  0  0  0  0  0  0
    1.8292   -0.0292    0.0000 N   0  0  3  0  0  0  0  0  0  0  0  0
   -0.5208    1.3500    0.0000 N   0  0  0  0  0  0  0  0  0  0  0  0
   -0.4208    0.7708    0.0000 C   0  0  0  0  0  0  0  0  0  0  0  0
    2.0167   -0.6292    0.0000 C   0  0  0  0  0  0  0  0  0  0  0  0
    2.3167    0.3000    0.0000 C   0  0  0  0  0  0  0  0  0  0  0  0
   -0.7625    2.5958    0.0000 C   0  0  0  0  0  0  0  0  0  0  0  0
   -2.6458    1.7125    0.0000 C   0  0  0  0  0  0  0  0  0  0  0  0
    1.2667    0.1625    0.0000 C   0  0  0  0  0  0  0  0  0  0  0  0
    0.1375    0.5708    0.0000 C   0  0  0  0  0  0  0  0  0  0  0  0
   -0.8833    0.3958    0.0000 O   0  0  0  0  0  0  0  0  0  0  0  0
    2.8042   -0.0292    0.0000 C   0  0  0  0  0  0  0  0  0  0  0  0
    2.6167   -0.6042    0.0000 C   0  0  0  0  0  0  0  0  0  0  0  0
    2.4667    0.8458    0.0000 O   0  0  0  0  0  0  0  0  0  0  0  0
    1.8667   -1.1292    0.0000 O   0  0  0  0  0  0  0  0  0  0  0  0
   -0.9000    3.1500    0.0000 O   0  0  0  0  0  0  0  0  0  0  0  0
   -2.9000    1.1708    0.0000 O   0  0  0  0  0  0  0  0  0  0  0  0
    0.8000   -0.2167    0.0000 C   0  0  0  0  0  0  0  0  0  0  0  0
    1.1542    0.7500    0.0000 C   0  0  0  0  0  0  0  0  0  0  0  0
    0.2292   -0.0167    0.0000 C   0  0  0  0  0  0  0  0  0  0  0  0
    0.6000    0.9500    0.0000 C   0  0  0  0  0  0  0  0  0  0  0  0
   -2.0458    2.8125    0.0000 C   0  0  0  0  0  0  0  0  0  0  0  0
   -0.1833    2.4125    0.0000 O   0  0  0  0  0  0  0  0  0  0  0  0
   -2.9625    2.1958    0.0000 O   0  0  0  0  0  0  0  0  0  0  0  0
    0.2375    2.8333    0.0000 C   0  0  0  0  0  0  0  0  0  0  0  0
   -2.7000    2.7333    0.0000 C   0  0  0  0  0  0  0  0  0  0  0  0
   -3.0458    3.2333    0.0000 C   0  0  0  0  0  0  0  0  0  0  0  0
    0.8000    2.6708    0.0000 C   0  0  0  0  0  0  0  0  0  0  0  0
  2  1  2  0  0  0  0
  3  2  1  0  0  0  0
  4  5  1  0  0  0  0
  5  1  1  0  0  0  0
  6 13  1  0  0  0  0
  7  1  1  0  0  0  0
  8  7  1  0  0  0  0
  9  6  1  0  0  0  0
 10  6  1  0  0  0  0
 11  2  1  0  0  0  0
 12  4  1  0  0  0  0
 13 23  2  0  0  0  0
 14  8  1  0  0  0  0
 15  8  2  0  0  0  0
 16 10  1  0  0  0  0
 17  9  1  0  0  0  0
 18 10  2  0  0  0  0
 19  9  2  0  0  0  0
 20 11  2  0  0  0  0
 21 12  2  0  0  0  0
 22 24  2  0  0  0  0
 23 25  1  0  0  0  0
 24 14  1  0  0  0  0
 25 14  2  0  0  0  0
 26  3  1  0  0  0  0
 27 11  1  0  0  0  0
 28 12  1  0  0  0  0
 29 27  1  0  0  0  0
 30 28  1  0  0  0  0
 31 30  1  0  0  0  0
 32 29  1  0  0  0  0
  3  4  2  0  0  0  0
 22 13  1  0  0  0  0
 17 16  1  0  0  0  0
M  END
> <IDNUMBER>
F0359-0020

> <Chemical_Name>
2,4-diethyl 5-[4-(2,5-dioxopyrrolidin-1-yl)benzamido]-3-methylthiophene-2,4-dicarboxylate

> <CAS>
328027-84-5

> <PriceCoeff>
1.00

> <MW>
458.48

> <Description>
solid

> <FSP3>
0.32

> <clogP>
2.62

> <TPSA>
147.32

> <Acceptor>
7

> <Donor>
1

> <RotBonds>
9

> <HAC>
32

> <Collection>
General

$$$$
F0762-0395
  -ISIS-  06222321452D

 22 23  0  0  0  0  0  0  0  0999 V2000
    1.2875  -11.6750    0.0000 C   0  0  0  0  0  0  0  0  0  0  0  0
    5.5917  -10.0167    0.0000 N   0  3  0  0  0  0  0  0  0  0  0  0
    2.1000  -11.5000    0.0000 C   0  0  0  0  0  0  0  0  0  0  0  0
    2.3500  -10.7042    0.0000 N   0  0  0  0  0  0  0  0  0  0  0  0
    1.0292  -12.4542    0.0000 C   0  0  0  0  0  0  0  0  0  0  0  0
    4.7792  -10.1875    0.0000 C   0  0  0  0  0  0  0  0  0  0  0  0
    0.7292  -11.0542    0.0000 C   0  0  0  0  0  0  0  0  0  0  0  0
    4.2292   -9.5792    0.0000 C   0  0  0  0  0  0  0  0  0  0  0  0
    3.1667  -10.5292    0.0000 C   0  0  0  0  0  0  0  0  0  0  0  0
    0.1667  -10.4417    0.0000 N   0  0  0  0  0  0  0  0  0  0  0  0
    3.4250   -9.7542    0.0000 C   0  0  0  0  0  0  0  0  0  0  0  0
    0.2167  -12.6375    0.0000 C   0  0  0  0  0  0  0  0  0  0  0  0
    6.1500  -10.6292    0.0000 O   0  5  0  0  0  0  0  0  0  0  0  0
    5.8417   -9.2292    0.0000 O   0  0  0  0  0  0  0  0  0  0  0  0
   -0.0333  -13.4250    0.0000 O   0  0  0  0  0  0  0  0  0  0  0  0
    2.6500  -12.1125    0.0000 O   0  0  0  0  0  0  0  0  0  0  0  0
   -0.4583  -12.1417    0.0000 C   0  0  0  0  0  0  0  0  0  0  0  0
   -0.8708  -13.4250    0.0000 C   0  0  0  0  0  0  0  0  0  0  0  0
    4.5292  -10.9792    0.0000 C   0  0  0  0  0  0  0  0  0  0  0  0
    3.7250  -11.1542    0.0000 C   0  0  0  0  0  0  0  0  0  0  0  0
   -1.1208  -12.6417    0.0000 C   0  0  0  0  0  0  0  0  0  0  0  0
    2.8542   -9.1292    0.0000 Cl  0  0  0  0  0  0  0  0  0  0  0  0
  2  6  1  0  0  0  0
  3  1  1  0  0  0  0
  4  3  1  0  0  0  0
  5  1  2  0  0  0  0
  6 19  2  0  0  0  0
  7  1  1  0  0  0  0
  8 11  2  0  0  0  0
  9  4  1  0  0  0  0
 10  7  3  0  0  0  0
 11  9  1  0  0  0  0
 12  5  1  0  0  0  0
 13  2  1  0  0  0  0
 14  2  2  0  0  0  0
 15 12  1  0  0  0  0
 16  3  2  0  0  0  0
 17 12  2  0  0  0  0
 18 15  1  0  0  0  0
 19 20  1  0  0  0  0
 20  9  2  0  0  0  0
 21 17  1  0  0  0  0
 22 11  1  0  0  0  0
 21 18  2  0  0  0  0
  6  8  1  0  0  0  0
M  CHG  2   2   1  13  -1
M  END
> <IDNUMBER>
F0762-0395

> <Chemical_Name>
(2E)-N-(2-chloro-4-nitrophenyl)-2-cyano-3-(furan-2-yl)prop-2-enamide

> <CAS>
385380-52-9

> <PriceCoeff>
1.00

> <MW>
317.68

> <Description>
solid

> <FSP3>
0.00

> <clogP>
2.41

> <TPSA>
109.17

> <Acceptor>
5

> <Donor>
1

> <RotBonds>
4

> <HAC>
22

> <Collection>
General

$$$$
F1065-0404
  -ISIS-  06222321452D

 25 27  0  0  0  0  0  0  0  0999 V2000
   -1.0125    0.7333    0.0000 N   0  0  3  0  0  0  0  0  0  0  0  0
   -0.2333    1.2833    0.0000 C   0  0  0  0  0  0  0  0  0  0  0  0
   -0.7000   -0.2000    0.0000 C   0  0  0  0  0  0  0  0  0  0  0  0
    0.2500   -0.2000    0.0000 C   0  0  3  0  0  0  0  0  0  0  0  0
    0.5500    0.7333    0.0000 C   0  0  0  0  0  0  0  0  0  0  0  0
    2.3167   -1.7167    0.0000 C   0  0  0  0  0  0  0  0  0  0  0  0
   -1.9125    1.0625    0.0000 C   0  0  0  0  0  0  0  0  0  0  0  0
    0.8000   -1.0042    0.0000 S   0  0  0  0  0  0  0  0  0  0  0  0
    1.7542   -0.9167    0.0000 C   0  0  0  0  0  0  0  0  0  0  0  0
    1.9042   -2.6000    0.0000 C   0  0  0  0  0  0  0  0  0  0  0  0
   -0.2333    2.2500    0.0000 O   0  0  0  0  0  0  0  0  0  0  0  0
   -1.2500   -1.0042    0.0000 O   0  0  0  0  0  0  0  0  0  0  0  0
    2.4375   -3.4000    0.0000 O   0  0  0  0  0  0  0  0  0  0  0  0
   -2.0708    2.0208    0.0000 C   0  0  0  0  0  0  0  0  0  0  0  0
    0.9500   -2.7042    0.0000 O   0  0  0  0  0  0  0  0  0  0  0  0
    3.3000   -1.6292    0.0000 C   0  0  0  0  0  0  0  0  0  0  0  0
   -2.6500    0.4333    0.0000 C   0  0  0  0  0  0  0  0  0  0  0  0
    2.1792   -0.0292    0.0000 C   0  0  0  0  0  0  0  0  0  0  0  0
   -1.3333    2.6333    0.0000 C   0  0  0  0  0  0  0  0  0  0  0  0
   -2.9958    2.3625    0.0000 C   0  0  0  0  0  0  0  0  0  0  0  0
    3.7000   -0.7542    0.0000 C   0  0  0  0  0  0  0  0  0  0  0  0
   -1.4833    3.5708    0.0000 C   0  0  0  0  0  0  0  0  0  0  0  0
   -3.5708    0.7833    0.0000 C   0  0  0  0  0  0  0  0  0  0  0  0
    3.1500    0.0458    0.0000 C   0  0  0  0  0  0  0  0  0  0  0  0
   -3.7333    1.7458    0.0000 C   0  0  0  0  0  0  0  0  0  0  0  0
  2  1  1  0  0  0  0
  3  1  1  0  0  0  0
  4  3  1  0  0  0  0
  5  2  1  0  0  0  0
  6  9  2  0  0  0  0
  7  1  1  0  0  0  0
  8  4  1  0  0  0  0
  9  8  1  0  0  0  0
 10  6  1  0  0  0  0
 11  2  2  0  0  0  0
 12  3  2  0  0  0  0
 13 10  2  0  0  0  0
 14  7  2  0  0  0  0
 15 10  1  0  0  0  0
 16  6  1  0  0  0  0
 17  7  1  0  0  0  0
 18  9  1  0  0  0  0
 19 14  1  0  0  0  0
 20 14  1  0  0  0  0
 21 24  1  0  0  0  0
 22 19  1  0  0  0  0
 23 17  2  0  0  0  0
 24 18  2  0  0  0  0
 25 23  1  0  0  0  0
  5  4  1  0  0  0  0
 25 20  2  0  0  0  0
 21 16  2  0  0  0  0
M  END
> <IDNUMBER>
F1065-0404

> <Chemical_Name>
2-{[1-(2-ethylphenyl)-2,5-dioxopyrrolidin-3-yl]sulfanyl}benzoic acid

> <CAS>
305372-99-0

> <PriceCoeff>
1.00

> <MW>
355.41

> <Description>
solid

> <FSP3>
0.21

> <clogP>
2.70

> <TPSA>
99.98

> <Acceptor>
4

> <Donor>
0

> <RotBonds>
5

> <HAC>
25

> <Collection>
General

$$$$
F2106-0084
  -ISIS-  06222321142D

 21 23  0  0  0  0  0  0  0  0999 V2000
    4.6375   -0.3292    0.0000 C   0  0  0  0  0  0  0  0  0  0  0  0
    3.9125   -0.7417    0.0000 C   0  0  0  0  0  0  0  0  0  0  0  0
    4.6375    0.5000    0.0000 C   0  0  0  0  0  0  0  0  0  0  0  0
    3.1917   -0.3292    0.0000 C   0  0  0  0  0  0  0  0  0  0  0  0
    3.9167    0.9208    0.0000 O   0  0  0  0  0  0  0  0  0  0  0  0
    3.2000    0.5000    0.0000 C   0  0  0  0  0  0  0  0  0  0  0  0
    5.3417   -0.7500    0.0000 C   0  0  0  0  0  0  0  0  0  0  0  0
    2.4792    0.9125    0.0000 C   0  0  0  0  0  0  0  0  0  0  0  0
    2.4792   -0.7417    0.0000 C   0  0  0  0  0  0  0  0  0  0  0  0
    5.3542    0.9083    0.0000 O   0  0  0  0  0  0  0  0  0  0  0  0
    5.3417   -1.5750    0.0000 C   0  0  0  0  0  0  0  0  0  0  0  0
    3.9125   -1.5667    0.0000 O   0  0  0  0  0  0  0  0  0  0  0  0
    1.7667    0.5000    0.0000 C   0  0  0  0  0  0  0  0  0  0  0  0
    1.7667   -0.3292    0.0000 C   0  0  0  0  0  0  0  0  0  0  0  0
    4.6292   -1.9792    0.0000 O   0  0  0  0  0  0  0  0  0  0  0  0
    1.0542    0.9083    0.0000 O   0  0  0  0  0  0  0  0  0  0  0  0
    6.0542   -0.3375    0.0000 C   0  0  0  0  0  0  0  0  0  0  0  0
    6.0542   -1.9875    0.0000 C   0  0  0  0  0  0  0  0  0  0  0  0
    4.6250   -2.8042    0.0000 C   0  0  0  0  0  0  0  0  0  0  0  0
    6.7667   -0.7500    0.0000 C   0  0  0  0  0  0  0  0  0  0  0  0
    6.7667   -1.5792    0.0000 C   0  0  0  0  0  0  0  0  0  0  0  0
  2  1  2  0  0  0  0
  3  1  1  0  0  0  0
  4  2  1  0  0  0  0
  5  3  1  0  0  0  0
  6  5  1  0  0  0  0
  7  1  1  0  0  0  0
  8  6  2  0  0  0  0
  9  4  2  0  0  0  0
 10  3  2  0  0  0  0
 11  7  2  0  0  0  0
 12  2  1  0  0  0  0
 13  8  1  0  0  0  0
 14  9  1  0  0  0  0
 15 11  1  0  0  0  0
 16 13  1  0  0  0  0
 17  7  1  0  0  0  0
 18 11  1  0  0  0  0
 19 15  1  0  0  0  0
 20 17  2  0  0  0  0
 21 20  1  0  0  0  0
  6  4  1  0  0  0  0
 18 21  2  0  0  0  0
 13 14  2  0  0  0  0
M  END
> <IDNUMBER>
F2106-0084

> <Chemical_Name>
4,7-dihydroxy-3-(2-methoxyphenyl)-2H-chromen-2-one

> <CAS>
21229-16-3

> <PriceCoeff>
1.00

> <MW>
284.26

> <Description>
solid

> <FSP3>
0.06

> <clogP>
2.49

> <TPSA>
75.99

> <Acceptor>
5

> <Donor>
2

> <RotBonds>
2

> <HAC>
21

> <Collection>
General

> <Reference_compound>
CHEMBL2227761

> <Similarity>
0.8150

$$$$
F1065-0002
  -ISIS-  06222321142D

 24 26  0  0  0  0  0  0  0  0999 V2000
   -0.9125    0.5208    0.0000 N   0  0  3  0  0  0  0  0  0  0  0  0
   -0.1708    0.9625    0.0000 C   0  0  0  0  0  0  0  0  0  0  0  0
   -0.7333   -0.3167    0.0000 C   0  0  0  0  0  0  0  0  0  0  0  0
    0.1042   -0.4000    0.0000 C   0  0  3  0  0  0  0  0  0  0  0  0
    0.4667    0.3833    0.0000 C   0  0  0  0  0  0  0  0  0  0  0  0
    1.8042   -1.9000    0.0000 C   0  0  0  0  0  0  0  0  0  0  0  0
    0.5292   -1.1542    0.0000 S   0  0  0  0  0  0  0  0  0  0  0  0
    1.3875   -1.1792    0.0000 C   0  0  0  0  0  0  0  0  0  0  0  0
    1.3875   -2.6375    0.0000 C   0  0  0  0  0  0  0  0  0  0  0  0
   -1.6500    0.9625    0.0000 C   0  0  0  0  0  0  0  0  0  0  0  0
   -0.0708    1.8000    0.0000 O   0  0  0  0  0  0  0  0  0  0  0  0
   -1.2708   -0.9542    0.0000 O   0  0  0  0  0  0  0  0  0  0  0  0
    1.8292   -3.3792    0.0000 O   0  0  0  0  0  0  0  0  0  0  0  0
   -1.6500    1.8000    0.0000 C   0  0  0  0  0  0  0  0  0  0  0  0
   -2.3708    0.5458    0.0000 C   0  0  0  0  0  0  0  0  0  0  0  0
    0.5292   -2.6542    0.0000 O   0  0  0  0  0  0  0  0  0  0  0  0
   -3.1125    1.8000    0.0000 C   0  0  0  0  0  0  0  0  0  0  0  0
   -3.1125    0.9625    0.0000 C   0  0  0  0  0  0  0  0  0  0  0  0
   -2.3708    2.2208    0.0000 C   0  0  0  0  0  0  0  0  0  0  0  0
   -3.8458    2.2125    0.0000 F   0  0  0  0  0  0  0  0  0  0  0  0
    2.6667   -1.9000    0.0000 C   0  0  0  0  0  0  0  0  0  0  0  0
    1.8292   -0.4375    0.0000 C   0  0  0  0  0  0  0  0  0  0  0  0
    3.0875   -1.1792    0.0000 C   0  0  0  0  0  0  0  0  0  0  0  0
    2.6667   -0.4375    0.0000 C   0  0  0  0  0  0  0  0  0  0  0  0
  2  1  1  0  0  0  0
  3  1  1  0  0  0  0
  4  3  1  0  0  0  0
  5  2  1  0  0  0  0
  6  8  2  0  0  0  0
  7  4  1  0  0  0  0
  8  7  1  0  0  0  0
  9  6  1  0  0  0  0
 10  1  1  0  0  0  0
 11  2  2  0  0  0  0
 12  3  2  0  0  0  0
 13  9  2  0  0  0  0
 14 10  2  0  0  0  0
 15 10  1  0  0  0  0
 16  9  1  0  0  0  0
 17 18  1  0  0  0  0
 18 15  2  0  0  0  0
 19 14  1  0  0  0  0
 20 17  1  0  0  0  0
 21  6  1  0  0  0  0
 22  8  1  0  0  0  0
 23 24  1  0  0  0  0
 24 22  2  0  0  0  0
  4  5  1  0  0  0  0
 19 17  2  0  0  0  0
 21 23  2  0  0  0  0
M  END
> <IDNUMBER>
F1065-0002

> <Chemical_Name>
2-{[1-(4-fluorophenyl)-2,5-dioxopyrrolidin-3-yl]sulfanyl}benzoic acid

> <CAS>
307543-64-2

> <PriceCoeff>
1.00

> <MW>
345.34

> <Description>
solid

> <FSP3>
0.12

> <clogP>
2.49

> <TPSA>
99.98

> <Acceptor>
4

> <Donor>
0

> <RotBonds>
4

> <HAC>
24

> <Collection>
General

$$$$
F3386-4120
  -ISIS-  06222321442D

 18 19  0  0  0  0  0  0  0  0999 V2000
    4.6417   -2.0667    0.0000 S   0  0  3  0  0  0  0  0  0  0  0  0
    5.4667   -2.0667    0.0000 O   0  0  0  0  0  0  0  0  0  0  0  0
    6.2917   -2.0667    0.0000 C   0  0  0  0  0  0  0  0  0  0  0  0
    6.7042   -2.7875    0.0000 C   0  0  0  0  0  0  0  0  0  0  0  0
    4.6417   -1.2417    0.0000 O   0  0  0  0  0  0  0  0  0  0  0  0
    4.6417   -2.8917    0.0000 O   0  0  0  0  0  0  0  0  0  0  0  0
    3.8167   -2.0667    0.0000 C   0  0  0  0  0  0  0  0  0  0  0  0
    7.5292   -2.7875    0.0000 C   0  0  0  0  0  0  0  0  0  0  0  0
    6.2917   -3.5000    0.0000 Cl  0  0  0  0  0  0  0  0  0  0  0  0
    7.9417   -3.5000    0.0000 Cl  0  0  0  0  0  0  0  0  0  0  0  0
    6.7042   -1.3542    0.0000 C   0  0  0  0  0  0  0  0  0  0  0  0
    7.5250   -1.3542    0.0000 C   0  0  0  0  0  0  0  0  0  0  0  0
    7.9417   -2.0667    0.0000 C   0  0  0  0  0  0  0  0  0  0  0  0
    3.4042   -2.7792    0.0000 C   0  0  0  0  0  0  0  0  0  0  0  0
    3.4042   -1.3500    0.0000 C   0  0  0  0  0  0  0  0  0  0  0  0
    2.5792   -1.3500    0.0000 C   0  0  0  0  0  0  0  0  0  0  0  0
    2.5875   -2.7792    0.0000 C   0  0  0  0  0  0  0  0  0  0  0  0
    2.1667   -2.0667    0.0000 C   0  0  0  0  0  0  0  0  0  0  0  0
  2  1  1  0  0  0  0
  3  2  1  0  0  0  0
  4  3  2  0  0  0  0
  5  1  2  0  0  0  0
  6  1  2  0  0  0  0
  7  1  1  0  0  0  0
  8  4  1  0  0  0  0
  9  4  1  0  0  0  0
 10  8  1  0  0  0  0
 11  3  1  0  0  0  0
 12 11  2  0  0  0  0
 13 12  1  0  0  0  0
 14  7  1  0  0  0  0
 15  7  2  0  0  0  0
 16 15  1  0  0  0  0
 17 14  2  0  0  0  0
 18 16  2  0  0  0  0
 17 18  1  0  0  0  0
  8 13  2  0  0  0  0
M  END
> <IDNUMBER>
F3386-4120

> <Chemical_Name>
2,3-dichlorophenyl benzenesulfonate

> <CAS>
13659-51-3

> <PriceCoeff>
1.00

> <MW>
303.16

> <Description>
solid

> <FSP3>
0.00

> <clogP>
4.36

> <TPSA>
51.75

> <Acceptor>
0

> <Donor>
3

> <RotBonds>
3

> <HAC>
18

> <Collection>
General

> <Reference_compound>
PRI3215

> <Similarity>
0.8380

$$$$
F0440-0340
  -ISIS-  06222321452D

 28 31  0  0  0  0  0  0  0  0999 V2000
   -1.0708   -2.7667    0.0000 C   0  0  0  0  0  0  0  0  0  0  0  0
    1.1542   -1.5000    0.0000 N   0  0  3  0  0  0  0  0  0  0  0  0
   -2.2125   -3.1500    0.0000 C   0  0  0  0  0  0  0  0  0  0  0  0
   -2.2125   -2.4000    0.0000 C   0  0  0  0  0  0  0  0  0  0  0  0
   -1.4958   -3.3667    0.0000 N   0  0  0  0  0  0  0  0  0  0  0  0
   -1.4958   -2.1667    0.0000 S   0  0  0  0  0  0  0  0  0  0  0  0
   -0.3125   -2.7667    0.0000 N   0  0  0  0  0  0  0  0  0  0  0  0
    0.9500   -0.8000    0.0000 C   0  0  0  0  0  0  0  0  0  0  0  0
    1.9167   -1.5000    0.0000 C   0  0  0  0  0  0  0  0  0  0  0  0
    0.0500   -2.1292    0.0000 C   0  0  0  0  0  0  0  0  0  0  0  0
    0.8000   -2.1292    0.0000 C   0  0  0  0  0  0  0  0  0  0  0  0
   -2.8500   -3.5042    0.0000 C   0  0  0  0  0  0  0  0  0  0  0  0
   -2.7958   -1.9292    0.0000 C   0  0  0  0  0  0  0  0  0  0  0  0
    1.5500   -0.3667    0.0000 C   0  0  0  0  0  0  0  0  0  0  0  0
    2.1500   -0.8000    0.0000 C   0  0  0  0  0  0  0  0  0  0  0  0
    0.2167   -0.5292    0.0000 O   0  0  0  0  0  0  0  0  0  0  0  0
    2.3542   -2.1042    0.0000 O   0  0  0  0  0  0  0  0  0  0  0  0
   -0.3125   -1.5000    0.0000 O   0  0  0  0  0  0  0  0  0  0  0  0
   -3.4958   -3.1500    0.0000 C   0  0  0  0  0  0  0  0  0  0  0  0
   -2.8500   -4.2667    0.0000 C   0  0  0  0  0  0  0  0  0  0  0  0
   -2.6708   -1.2000    0.0000 C   0  0  0  0  0  0  0  0  0  0  0  0
   -3.4708   -2.2042    0.0000 C   0  0  0  0  0  0  0  0  0  0  0  0
   -4.0708   -1.7500    0.0000 C   0  0  0  0  0  0  0  0  0  0  0  0
   -3.4958   -4.6292    0.0000 C   0  0  0  0  0  0  0  0  0  0  0  0
   -4.1333   -3.5042    0.0000 C   0  0  0  0  0  0  0  0  0  0  0  0
   -3.2708   -0.7292    0.0000 C   0  0  0  0  0  0  0  0  0  0  0  0
   -4.1333   -4.2667    0.0000 C   0  0  0  0  0  0  0  0  0  0  0  0
   -3.9708   -1.0042    0.0000 C   0  0  0  0  0  0  0  0  0  0  0  0
  2 11  1  0  0  0  0
  3  5  1  0  0  0  0
  4  6  1  0  0  0  0
  5  1  2  0  0  0  0
  6  1  1  0  0  0  0
  7  1  1  0  0  0  0
  8  2  1  0  0  0  0
  9  2  1  0  0  0  0
 10  7  1  0  0  0  0
 11 10  1  0  0  0  0
 12  3  1  0  0  0  0
 13  4  1  0  0  0  0
 14  8  1  0  0  0  0
 15  9  1  0  0  0  0
 16  8  2  0  0  0  0
 17  9  2  0  0  0  0
 18 10  2  0  0  0  0
 19 12  2  0  0  0  0
 20 12  1  0  0  0  0
 21 13  2  0  0  0  0
 22 13  1  0  0  0  0
 23 22  2  0  0  0  0
 24 20  2  0  0  0  0
 25 19  1  0  0  0  0
 26 21  1  0  0  0  0
 27 24  1  0  0  0  0
 28 23  1  0  0  0  0
  3  4  2  0  0  0  0
 15 14  1  0  0  0  0
 28 26  2  0  0  0  0
 27 25  2  0  0  0  0
M  END
> <IDNUMBER>
F0440-0340

> <Chemical_Name>
2-(2,5-dioxopyrrolidin-1-yl)-N-(4,5-diphenyl-1,3-thiazol-2-yl)acetamide

> <CAS>
476308-65-3

> <PriceCoeff>
1.00

> <MW>
391.44

> <Description>
solid

> <FSP3>
0.14

> <clogP>
3.44

> <TPSA>
107.61

> <Acceptor>
4

> <Donor>
1

> <RotBonds>
5

> <HAC>
28

> <Collection>
General

$$$$
F3098-1918
  -ISIS-  06222321152D

 15 15  0  0  0  0  0  0  0  0999 V2000
    5.1292   -3.6125    0.0000 C   0  0  0  0  0  0  0  0  0  0  0  0
    4.3042   -3.6125    0.0000 C   0  0  0  0  0  0  0  0  0  0  0  0
    3.8542   -2.9167    0.0000 C   0  0  0  0  0  0  0  0  0  0  0  0
    0.5542   -3.0875    0.0000 C   0  0  3  0  0  0  0  0  0  0  0  0
    1.3792   -3.0500    0.0000 C   0  0  0  0  0  0  0  0  0  0  0  0
    5.5375   -2.8917    0.0000 O   0  0  0  0  0  0  0  0  0  0  0  0
    1.8292   -3.7417    0.0000 C   0  0  0  0  0  0  0  0  0  0  0  0
    1.7542   -2.3125    0.0000 C   0  0  0  0  0  0  0  0  0  0  0  0
    3.0292   -2.9625    0.0000 C   0  0  0  0  0  0  0  0  0  0  0  0
    5.5417   -4.3167    0.0000 O   0  0  0  0  0  0  0  0  0  0  0  0
    2.6542   -3.7042    0.0000 C   0  0  0  0  0  0  0  0  0  0  0  0
    2.5792   -2.2667    0.0000 C   0  0  0  0  0  0  0  0  0  0  0  0
   -0.2708   -3.0792    0.0000 C   0  0  0  0  0  0  0  0  0  0  0  0
    0.5542   -2.2625    0.0000 C   0  0  0  0  0  0  0  0  0  0  0  0
    0.5542   -3.9125    0.0000 C   0  0  0  0  0  0  0  0  0  0  0  0
  2  1  1  0  0  0  0
  3  2  2  0  0  0  0
  4  5  1  0  0  0  0
  5  8  2  0  0  0  0
  6  1  2  0  0  0  0
  7 11  2  0  0  0  0
  8 12  1  0  0  0  0
  9  3  1  0  0  0  0
 10  1  1  0  0  0  0
 11  9  1  0  0  0  0
 12  9  2  0  0  0  0
 13  4  1  0  0  0  0
 14  4  1  0  0  0  0
 15  4  1  0  0  0  0
  5  7  1  0  0  0  0
M  END
> <IDNUMBER>
F3098-1918

> <Chemical_Name>
(2E)-3-(4-tert-butylphenyl)prop-2-enoic acid

> <CAS>
190125-60-1

> <PriceCoeff>
1.00

> <MW>
204.27

> <Description>
solid

> <FSP3>
0.31

> <clogP>
4.07

> <TPSA>
37.30

> <Acceptor>
2

> <Donor>
0

> <RotBonds>
2

> <HAC>
15

> <Collection>
General

> <Reference_compound>
CHEMBL4872399

> <Similarity>
0.8180

$$$$
F0762-0316
  -ISIS-  06222321452D

 23 24  0  0  0  0  0  0  0  0999 V2000
    3.5375   -1.4417    0.0000 C   0  0  0  0  0  0  0  0  0  0  0  0
    3.5375   -0.6042    0.0000 N   0  3  0  0  0  0  0  0  0  0  0  0
    1.3792   -0.1667    0.0000 C   0  0  0  0  0  0  0  0  0  0  0  0
    2.0917   -0.5917    0.0000 C   0  0  0  0  0  0  0  0  0  0  0  0
    2.8167   -1.8542    0.0000 C   0  0  0  0  0  0  0  0  0  0  0  0
    2.0917   -1.4417    0.0000 N   0  0  0  0  0  0  0  0  0  0  0  0
    0.6500   -0.5667    0.0000 C   0  0  0  0  0  0  0  0  0  0  0  0
    0.6375   -1.4125    0.0000 C   0  0  0  0  0  0  0  0  0  0  0  0
    1.4042    0.6750    0.0000 C   0  0  0  0  0  0  0  0  0  0  0  0
    1.2542   -1.9792    0.0000 O   0  0  0  0  0  0  0  0  0  0  0  0
    4.2625   -1.8542    0.0000 C   0  0  0  0  0  0  0  0  0  0  0  0
    1.4167    1.5083    0.0000 N   0  0  0  0  0  0  0  0  0  0  0  0
   -0.0833   -1.8167    0.0000 C   0  0  0  0  0  0  0  0  0  0  0  0
    0.9042   -2.7292    0.0000 C   0  0  0  0  0  0  0  0  0  0  0  0
    4.2542   -0.1875    0.0000 O   0  5  0  0  0  0  0  0  0  0  0  0
    0.0875   -2.6417    0.0000 C   0  0  0  0  0  0  0  0  0  0  0  0
    3.1500    0.0625    0.0000 O   0  0  0  0  0  0  0  0  0  0  0  0
    2.6667   -0.2792    0.0000 O   0  0  0  0  0  0  0  0  0  0  0  0
    2.8167   -2.6917    0.0000 C   0  0  0  0  0  0  0  0  0  0  0  0
    4.2625   -2.6917    0.0000 C   0  0  0  0  0  0  0  0  0  0  0  0
    3.5375   -3.1042    0.0000 C   0  0  0  0  0  0  0  0  0  0  0  0
    4.9917   -3.1125    0.0000 Cl  0  0  0  0  0  0  0  0  0  0  0  0
    1.3042   -3.4667    0.0000 C   0  0  0  0  0  0  0  0  0  0  0  0
  2  1  1  0  0  0  0
  3  4  1  0  0  0  0
  4  6  1  0  0  0  0
  5  1  1  0  0  0  0
  6  5  1  0  0  0  0
  7  3  2  0  0  0  0
  8  7  1  0  0  0  0
  9  3  1  0  0  0  0
 10  8  1  0  0  0  0
 11  1  2  0  0  0  0
 12  9  3  0  0  0  0
 13  8  2  0  0  0  0
 14 10  1  0  0  0  0
 15  2  1  0  0  0  0
 16 13  1  0  0  0  0
 17  2  2  0  0  0  0
 18  4  2  0  0  0  0
 19  5  2  0  0  0  0
 20 11  1  0  0  0  0
 21 20  2  0  0  0  0
 22 20  1  0  0  0  0
 23 14  1  0  0  0  0
 21 19  1  0  0  0  0
 14 16  2  0  0  0  0
M  CHG  2   2   1  15  -1
M  END
> <IDNUMBER>
F0762-0316

> <Chemical_Name>
(2Z)-N-(4-chloro-2-nitrophenyl)-2-cyano-3-(5-methylfuran-2-yl)prop-2-enamide

> <CAS>
327075-44-5

> <PriceCoeff>
1.00

> <MW>
331.71

> <Description>
solid

> <FSP3>
0.07

> <clogP>
3.30

> <TPSA>
109.17

> <Acceptor>
5

> <Donor>
1

> <RotBonds>
4

> <HAC>
23

> <Collection>
General

$$$$
F2701-0561
  -ISIS-  06222321442D

 33 36  0  0  0  0  0  0  0  0999 V2000
   -0.5083    1.5250    0.0000 C   0  0  0  0  0  0  0  0  0  0  0  0
   -0.7708    2.3000    0.0000 C   0  0  0  0  0  0  0  0  0  0  0  0
   -1.8458    1.5208    0.0000 C   0  0  0  0  0  0  0  0  0  0  0  0
    3.0417   -3.2792    0.0000 N   0  0  3  0  0  0  0  0  0  0  0  0
   -1.5958    2.3000    0.0000 C   0  0  0  0  0  0  0  0  0  0  0  0
   -1.1750    1.0333    0.0000 S   0  0  0  0  0  0  0  0  0  0  0  0
    1.5625    0.5500    0.0000 N   0  0  0  0  0  0  0  0  0  0  0  0
   -3.2083    1.9583    0.0000 N   0  0  3  0  0  0  0  0  0  0  0  0
    3.0792   -2.3417    0.0000 C   0  0  0  0  0  0  0  0  0  0  0  0
    1.5292   -0.4167    0.0000 C   0  0  0  0  0  0  0  0  0  0  0  0
   -4.0208    1.7875    0.0000 C   0  0  0  0  0  0  0  0  0  0  0  0
    3.7542   -3.8875    0.0000 C   0  0  0  0  0  0  0  0  0  0  0  0
    2.2417   -3.7625    0.0000 C   0  0  0  0  0  0  0  0  0  0  0  0
   -0.2833    2.9833    0.0000 C   0  0  0  0  0  0  0  0  0  0  0  0
   -2.6500    1.3458    0.0000 C   0  0  0  0  0  0  0  0  0  0  0  0
   -2.1458    2.9083    0.0000 C   0  0  0  0  0  0  0  0  0  0  0  0
    2.2917   -1.8417    0.0000 C   0  0  0  0  0  0  0  0  0  0  0  0
    2.3167   -0.9125    0.0000 C   0  0  0  0  0  0  0  0  0  0  0  0
   -2.9458    2.7333    0.0000 C   0  0  0  0  0  0  0  0  0  0  0  0
   -4.2875    1.0125    0.0000 O   0  0  0  0  0  0  0  0  0  0  0  0
    0.6792   -0.8667    0.0000 O   0  0  0  0  0  0  0  0  0  0  0  0
    3.4042   -4.7500    0.0000 C   0  0  0  0  0  0  0  0  0  0  0  0
    2.4750   -4.6917    0.0000 C   0  0  0  0  0  0  0  0  0  0  0  0
    4.6667   -3.6792    0.0000 O   0  0  0  0  0  0  0  0  0  0  0  0
    1.3792   -3.4042    0.0000 O   0  0  0  0  0  0  0  0  0  0  0  0
   -1.0958    3.8000    0.0000 O   0  0  0  0  0  0  0  0  0  0  0  0
    0.6500    3.0458    0.0000 N   0  0  0  0  0  0  0  0  0  0  0  0
   -4.5625    2.4083    0.0000 O   0  0  0  0  0  0  0  0  0  0  0  0
    3.9042   -1.9125    0.0000 C   0  0  0  0  0  0  0  0  0  0  0  0
    3.1542   -0.4667    0.0000 C   0  0  0  0  0  0  0  0  0  0  0  0
    3.9417   -0.9667    0.0000 C   0  0  0  0  0  0  0  0  0  0  0  0
    1.0542    3.8958    0.0000 C   0  0  0  0  0  0  0  0  0  0  0  0
   -4.2958    3.1833    0.0000 C   0  0  0  0  0  0  0  0  0  0  0  0
  2  1  2  0  0  0  0
  3  6  1  0  0  0  0
  4  9  1  0  0  0  0
  5  2  1  0  0  0  0
  6  1  1  0  0  0  0
  7  1  1  0  0  0  0
  8 15  1  0  0  0  0
  9 17  1  0  0  0  0
 10  7  1  0  0  0  0
 11  8  1  0  0  0  0
 12  4  1  0  0  0  0
 13  4  1  0  0  0  0
 14  2  1  0  0  0  0
 15  3  1  0  0  0  0
 16  5  1  0  0  0  0
 17 18  2  0  0  0  0
 18 10  1  0  0  0  0
 19 16  1  0  0  0  0
 20 11  2  0  0  0  0
 21 10  2  0  0  0  0
 22 12  1  0  0  0  0
 23 13  1  0  0  0  0
 24 12  2  0  0  0  0
 25 13  2  0  0  0  0
 26 14  2  0  0  0  0
 27 14  1  0  0  0  0
 28 11  1  0  0  0  0
 29 31  1  0  0  0  0
 30 18  1  0  0  0  0
 31 30  2  0  0  0  0
 32 27  1  0  0  0  0
 33 28  1  0  0  0  0
  5  3  2  0  0  0  0
  8 19  1  0  0  0  0
  9 29  2  0  0  0  0
 23 22  1  0  0  0  0
M  END
> <IDNUMBER>
F2701-0561

> <Chemical_Name>
methyl 2-[3-(2,5-dioxopyrrolidin-1-yl)benzamido]-3-(methylcarbamoyl)-4H,5H,6H,7H-thieno[2,3-c]pyridine-6-carboxylate

> <CAS>
886957-45-5

> <PriceCoeff>
1.00

> <MW>
470.50

> <Description>
solid

> <FSP3>
0.32

> <clogP>
0.32

> <TPSA>
153.36

> <Acceptor>
6

> <Donor>
2

> <RotBonds>
6

> <HAC>
33

> <Collection>
General

$$$$
F1822-0284
  -ISIS-  06222321452D

 28 32  0  0  0  0  0  0  0  0999 V2000
   -5.9583    3.3958    0.0000 C   0  0  0  0  0  0  0  0  0  0  0  0
   -1.7250    5.0167    0.0000 N   0  0  3  0  0  0  0  0  0  0  0  0
   -6.0292    2.5625    0.0000 N   0  0  0  0  0  0  0  0  0  0  0  0
   -5.2708    3.7833    0.0000 N   0  0  0  0  0  0  0  0  0  0  0  0
   -6.7042    3.7208    0.0000 S   0  0  0  0  0  0  0  0  0  0  0  0
   -6.8417    2.3958    0.0000 C   0  0  0  0  0  0  0  0  0  0  0  0
   -7.2667    3.1083    0.0000 C   0  0  0  0  0  0  0  0  0  0  0  0
   -4.5833    3.3958    0.0000 C   0  0  0  0  0  0  0  0  0  0  0  0
   -0.9625    4.7167    0.0000 C   0  0  0  0  0  0  0  0  0  0  0  0
   -1.6708    5.8417    0.0000 C   0  0  0  0  0  0  0  0  0  0  0  0
   -7.2542    1.6708    0.0000 C   0  0  0  0  0  0  0  0  0  0  0  0
   -8.0917    3.1083    0.0000 C   0  0  0  0  0  0  0  0  0  0  0  0
   -8.0792    1.6625    0.0000 C   0  0  0  0  0  0  0  0  0  0  0  0
   -8.5042    2.3833    0.0000 C   0  0  0  0  0  0  0  0  0  0  0  0
   -2.4458    4.6042    0.0000 C   0  0  0  0  0  0  0  0  0  0  0  0
   -3.8708    3.8000    0.0000 C   0  0  0  0  0  0  0  0  0  0  0  0
   -9.3167    2.2083    0.0000 O   0  0  0  0  0  0  0  0  0  0  0  0
   -8.6417    1.0458    0.0000 O   0  0  0  0  0  0  0  0  0  0  0  0
   -9.4042    1.3833    0.0000 C   0  0  0  0  0  0  0  0  0  0  0  0
   -4.5958    2.5958    0.0000 O   0  0  0  0  0  0  0  0  0  0  0  0
   -0.4458    5.3417    0.0000 C   0  0  0  0  0  0  0  0  0  0  0  0
   -0.8625    6.0417    0.0000 C   0  0  0  0  0  0  0  0  0  0  0  0
   -0.7625    3.9250    0.0000 O   0  0  0  0  0  0  0  0  0  0  0  0
   -2.3083    6.3917    0.0000 O   0  0  0  0  0  0  0  0  0  0  0  0
   -2.4500    3.8000    0.0000 C   0  0  0  0  0  0  0  0  0  0  0  0
   -3.1583    5.0292    0.0000 C   0  0  0  0  0  0  0  0  0  0  0  0
   -3.8708    4.6250    0.0000 C   0  0  0  0  0  0  0  0  0  0  0  0
   -3.1625    3.3958    0.0000 C   0  0  0  0  0  0  0  0  0  0  0  0
  2 15  1  0  0  0  0
  3  1  2  0  0  0  0
  4  1  1  0  0  0  0
  5  1  1  0  0  0  0
  6  3  1  0  0  0  0
  7  5  1  0  0  0  0
  8  4  1  0  0  0  0
  9  2  1  0  0  0  0
 10  2  1  0  0  0  0
 11  6  1  0  0  0  0
 12  7  1  0  0  0  0
 13 11  2  0  0  0  0
 14 12  2  0  0  0  0
 15 25  2  0  0  0  0
 16  8  1  0  0  0  0
 17 14  1  0  0  0  0
 18 13  1  0  0  0  0
 19 17  1  0  0  0  0
 20  8  2  0  0  0  0
 21  9  1  0  0  0  0
 22 10  1  0  0  0  0
 23  9  2  0  0  0  0
 24 10  2  0  0  0  0
 25 28  1  0  0  0  0
 26 27  2  0  0  0  0
 27 16  1  0  0  0  0
 28 16  2  0  0  0  0
  7  6  2  0  0  0  0
 14 13  1  0  0  0  0
 15 26  1  0  0  0  0
 18 19  1  0  0  0  0
 21 22  1  0  0  0  0
M  END
> <IDNUMBER>
F1822-0284

> <Chemical_Name>
N-{4,6-dioxa-10-thia-12-azatricyclo[7.3.0.0^{3,7}]dodeca-1(9),2,7,11-tetraen-11-yl}-4-(2,5-dioxopyrrolidin-1-yl)benzamide

> <CAS>
892857-75-9

> <PriceCoeff>
1.00

> <MW>
395.39

> <Description>
solid

> <FSP3>
0.16

> <clogP>
2.15

> <TPSA>
126.07

> <Acceptor>
6

> <Donor>
1

> <RotBonds>
3

> <HAC>
28

> <Collection>
General

$$$$
F2106-0072
  -ISIS-  06222321442D

 23 25  0  0  0  0  0  0  0  0999 V2000
    4.3500   -1.3875    0.0000 C   0  0  0  0  0  0  0  0  0  0  0  0
    3.6375   -1.7917    0.0000 C   0  0  0  0  0  0  0  0  0  0  0  0
    4.3500   -0.5625    0.0000 C   0  0  0  0  0  0  0  0  0  0  0  0
    2.9292   -1.3875    0.0000 C   0  0  0  0  0  0  0  0  0  0  0  0
    3.6292   -0.1500    0.0000 O   0  0  0  0  0  0  0  0  0  0  0  0
    2.9250   -0.5667    0.0000 C   0  0  0  0  0  0  0  0  0  0  0  0
    5.0625   -1.7917    0.0000 C   0  0  0  0  0  0  0  0  0  0  0  0
    5.7750   -1.3792    0.0000 C   0  0  0  0  0  0  0  0  0  0  0  0
    2.2125   -0.1500    0.0000 C   0  0  0  0  0  0  0  0  0  0  0  0
    2.2125   -1.8042    0.0000 C   0  0  0  0  0  0  0  0  0  0  0  0
    6.4875   -1.7917    0.0000 C   0  0  0  0  0  0  0  0  0  0  0  0
    5.0625   -0.1500    0.0000 O   0  0  0  0  0  0  0  0  0  0  0  0
    5.0625   -2.6167    0.0000 C   0  0  0  0  0  0  0  0  0  0  0  0
    6.4917   -2.6167    0.0000 C   0  0  0  0  0  0  0  0  0  0  0  0
    3.6375   -2.6167    0.0000 O   0  0  0  0  0  0  0  0  0  0  0  0
    5.7750   -3.0292    0.0000 C   0  0  0  0  0  0  0  0  0  0  0  0
    1.5000   -0.5625    0.0000 C   0  0  0  0  0  0  0  0  0  0  0  0
    1.5000   -1.3917    0.0000 C   0  0  0  0  0  0  0  0  0  0  0  0
    7.2000   -1.3792    0.0000 O   0  0  0  0  0  0  0  0  0  0  0  0
    7.2000   -3.0292    0.0000 O   0  0  0  0  0  0  0  0  0  0  0  0
    0.7875   -0.1542    0.0000 O   0  0  0  0  0  0  0  0  0  0  0  0
    7.1917   -0.5542    0.0000 C   0  0  0  0  0  0  0  0  0  0  0  0
    7.9125   -2.6167    0.0000 C   0  0  0  0  0  0  0  0  0  0  0  0
  2  1  2  0  0  0  0
  3  1  1  0  0  0  0
  4  2  1  0  0  0  0
  5  3  1  0  0  0  0
  6  5  1  0  0  0  0
  7  1  1  0  0  0  0
  8  7  1  0  0  0  0
  9  6  2  0  0  0  0
 10  4  2  0  0  0  0
 11  8  2  0  0  0  0
 12  3  2  0  0  0  0
 13  7  2  0  0  0  0
 14 16  2  0  0  0  0
 15  2  1  0  0  0  0
 16 13  1  0  0  0  0
 17  9  1  0  0  0  0
 18 10  1  0  0  0  0
 19 11  1  0  0  0  0
 20 14  1  0  0  0  0
 21 17  1  0  0  0  0
 22 19  1  0  0  0  0
 23 20  1  0  0  0  0
  6  4  1  0  0  0  0
 11 14  1  0  0  0  0
 17 18  2  0  0  0  0
M  END
> <IDNUMBER>
F2106-0072

> <Chemical_Name>
3-(3,4-dimethoxyphenyl)-4,7-dihydroxy-2H-chromen-2-one

> <CAS>
929339-03-7

> <PriceCoeff>
1.00

> <MW>
314.29

> <Description>
solid

> <FSP3>
0.12

> <clogP>
2.73

> <TPSA>
85.22

> <Acceptor>
6

> <Donor>
2

> <RotBonds>
3

> <HAC>
23

> <Collection>
General

$$$$
F1441-0664
  -ISIS-  06222321142D

 30 34  0  0  0  0  0  0  0  0999 V2000
    3.3042   -5.5667    0.0000 C   0  0  0  0  0  0  0  0  0  0  0  0
    3.3792   -4.7417    0.0000 C   0  0  0  0  0  0  0  0  0  0  0  0
    1.8792   -5.4417    0.0000 N   0  0  3  0  0  0  0  0  0  0  0  0
    1.9542   -4.6167    0.0000 C   0  0  0  0  0  0  0  0  0  0  0  0
    2.7042   -4.2667    0.0000 N   0  0  0  0  0  0  0  0  0  0  0  0
    2.5542   -5.9167    0.0000 C   0  0  0  0  0  0  0  0  0  0  0  0
    4.1875   -4.5667    0.0000 S   0  0  0  0  0  0  0  0  0  0  0  0
    4.0542   -5.8917    0.0000 C   0  0  0  0  0  0  0  0  0  0  0  0
    4.6042   -5.2750    0.0000 C   0  0  0  0  0  0  0  0  0  0  0  0
    1.2417   -4.2042    0.0000 S   0  0  0  0  0  0  0  0  0  0  0  0
    1.9542   -2.9667    0.0000 C   0  0  0  0  0  0  0  0  0  0  0  0
    1.9542   -2.1417    0.0000 N   0  0  3  0  0  0  0  0  0  0  0  0
    1.1292   -5.7792    0.0000 C   0  0  0  0  0  0  0  0  0  0  0  0
    2.4792   -6.7417    0.0000 O   0  0  0  0  0  0  0  0  0  0  0  0
    1.2417   -3.3792    0.0000 C   0  0  0  0  0  0  0  0  0  0  0  0
    2.6667   -3.3792    0.0000 O   0  0  0  0  0  0  0  0  0  0  0  0
    4.4792   -6.6042    0.0000 C   0  0  0  0  0  0  0  0  0  0  0  0
    5.3667   -5.6042    0.0000 C   0  0  0  0  0  0  0  0  0  0  0  0
    1.2125   -1.7792    0.0000 C   0  0  0  0  0  0  0  0  0  0  0  0
    2.7042   -1.7792    0.0000 C   0  0  0  0  0  0  0  0  0  0  0  0
    5.2792   -6.4292    0.0000 C   0  0  0  0  0  0  0  0  0  0  0  0
    0.4625   -5.3042    0.0000 C   0  0  0  0  0  0  0  0  0  0  0  0
    1.0542   -6.6000    0.0000 C   0  0  0  0  0  0  0  0  0  0  0  0
    1.0375   -0.9792    0.0000 C   0  0  0  0  0  0  0  0  0  0  0  0
    2.8792   -0.9750    0.0000 C   0  0  0  0  0  0  0  0  0  0  0  0
    0.3125   -6.9417    0.0000 C   0  0  0  0  0  0  0  0  0  0  0  0
   -0.2875   -5.6417    0.0000 C   0  0  0  0  0  0  0  0  0  0  0  0
    2.3667   -0.3292    0.0000 C   0  0  0  0  0  0  0  0  0  0  0  0
   -0.3625   -6.4667    0.0000 C   0  0  0  0  0  0  0  0  0  0  0  0
    1.5542   -0.3292    0.0000 C   0  0  0  0  0  0  0  0  0  0  0  0
  2  1  2  0  0  0  0
  3  6  1  0  0  0  0
  4  3  1  0  0  0  0
  5  2  1  0  0  0  0
  6  1  1  0  0  0  0
  7  2  1  0  0  0  0
  8  1  1  0  0  0  0
  9  8  2  0  0  0  0
 10  4  1  0  0  0  0
 11 15  1  0  0  0  0
 12 11  1  0  0  0  0
 13  3  1  0  0  0  0
 14  6  2  0  0  0  0
 15 10  1  0  0  0  0
 16 11  2  0  0  0  0
 17  8  1  0  0  0  0
 18  9  1  0  0  0  0
 19 12  1  0  0  0  0
 20 12  1  0  0  0  0
 21 17  1  0  0  0  0
 22 13  2  0  0  0  0
 23 13  1  0  0  0  0
 24 19  1  0  0  0  0
 25 20  1  0  0  0  0
 26 23  2  0  0  0  0
 27 22  1  0  0  0  0
 28 25  1  0  0  0  0
 29 26  1  0  0  0  0
 30 24  1  0  0  0  0
  7  9  1  0  0  0  0
  4  5  2  0  0  0  0
 18 21  1  0  0  0  0
 29 27  2  0  0  0  0
 28 30  1  0  0  0  0
M  END
> <IDNUMBER>
F1441-0664

> <Chemical_Name>
10-{[2-(azepan-1-yl)-2-oxoethyl]sulfanyl}-11-phenyl-7-thia-9,11-diazatricyclo[6.4.0.0^{2,6}]dodeca-1(8),2(6),9-trien-12-one

> <CAS>
571934-69-5

> <PriceCoeff>
1.00

> <MW>
439.59

> <Description>
solid

> <FSP3>
0.43

> <clogP>
5.04

> <TPSA>
106.52

> <Acceptor>
3

> <Donor>
0

> <RotBonds>
5

> <HAC>
30

> <Collection>
General

> <Reference_compound>
CHEMBL577016

> <Similarity>
0.8280

$$$$
F1757-0335
  -ISIS-  06222321452D

 27 29  0  0  0  0  0  0  0  0999 V2000
    0.6292  -12.4750    0.0000 N   0  0  3  0  0  0  0  0  0  0  0  0
   -0.1125  -12.8292    0.0000 N   0  0  0  0  0  0  0  0  0  0  0  0
    0.5167  -11.6542    0.0000 C   0  0  0  0  0  0  0  0  0  0  0  0
   -0.2958  -11.5125    0.0000 C   0  0  0  0  0  0  0  0  0  0  0  0
   -0.6875  -12.2375    0.0000 C   0  0  0  0  0  0  0  0  0  0  0  0
    1.3625  -12.8667    0.0000 C   0  0  0  0  0  0  0  0  0  0  0  0
    5.6875  -15.3125    0.0000 C   0  0  0  0  0  0  0  0  0  0  0  0
    4.9750  -14.9000    0.0000 C   0  0  0  0  0  0  0  0  0  0  0  0
   -0.6500  -10.7667    0.0000 Cl  0  0  0  0  0  0  0  0  0  0  0  0
    6.4000  -14.9042    0.0000 O   0  0  0  0  0  0  0  0  0  0  0  0
    5.6792  -16.1375    0.0000 C   0  0  0  0  0  0  0  0  0  0  0  0
    2.0625  -12.4292    0.0000 C   0  0  3  0  0  0  0  0  0  0  0  0
    4.9750  -14.0792    0.0000 C   0  0  0  0  0  0  0  0  0  0  0  0
    4.2500  -15.3125    0.0000 C   0  0  0  0  0  0  0  0  0  0  0  0
    2.8250  -13.6667    0.0000 O   0  0  0  0  0  0  0  0  0  0  0  0
    3.5500  -14.0792    0.0000 C   0  0  0  0  0  0  0  0  0  0  0  0
    1.1125  -11.0875    0.0000 C   0  0  0  0  0  0  0  0  0  0  0  0
    2.8000  -12.8250    0.0000 C   0  0  0  0  0  0  0  0  0  0  0  0
   -1.5000  -12.3417    0.0000 C   0  0  0  0  0  0  0  0  0  0  0  0
    4.2500  -13.6667    0.0000 C   0  0  0  0  0  0  0  0  0  0  0  0
    3.5500  -14.9000    0.0000 C   0  0  0  0  0  0  0  0  0  0  0  0
    2.0375  -11.6042    0.0000 O   0  0  0  0  0  0  0  0  0  0  0  0
    6.3917  -16.5417    0.0000 C   0  0  0  0  0  0  0  0  0  0  0  0
    4.9667  -16.5417    0.0000 C   0  0  0  0  0  0  0  0  0  0  0  0
    4.9625  -17.3667    0.0000 C   0  0  0  0  0  0  0  0  0  0  0  0
    6.3917  -17.3667    0.0000 C   0  0  0  0  0  0  0  0  0  0  0  0
    5.6750  -17.7792    0.0000 C   0  0  0  0  0  0  0  0  0  0  0  0
  2  1  1  0  0  0  0
  3  1  1  0  0  0  0
  4  3  2  0  0  0  0
  5  2  2  0  0  0  0
  6  1  1  0  0  0  0
  7  8  1  0  0  0  0
  8 14  2  0  0  0  0
  9  4  1  0  0  0  0
 10  7  2  0  0  0  0
 11  7  1  0  0  0  0
 12  6  1  0  0  0  0
 13 20  2  0  0  0  0
 14 21  1  0  0  0  0
 15 18  1  0  0  0  0
 16 15  1  0  0  0  0
 17  3  1  0  0  0  0
 18 12  1  0  0  0  0
 19  5  1  0  0  0  0
 20 16  1  0  0  0  0
 21 16  2  0  0  0  0
 22 12  1  0  0  0  0
 23 11  1  0  0  0  0
 24 11  2  0  0  0  0
 25 24  1  0  0  0  0
 26 23  2  0  0  0  0
 27 25  2  0  0  0  0
  4  5  1  0  0  0  0
 13  8  1  0  0  0  0
 26 27  1  0  0  0  0
M  END
> <IDNUMBER>
F1757-0335

> <Chemical_Name>
1-(4-benzoylphenoxy)-3-(4-chloro-3,5-dimethyl-1H-pyrazol-1-yl)propan-2-ol

> <CAS>
890603-38-0

> <PriceCoeff>
1.00

> <MW>
384.86

> <Description>
solid

> <FSP3>
0.24

> <clogP>
3.98

> <TPSA>
64.35

> <Acceptor>
4

> <Donor>
1

> <RotBonds>
7

> <HAC>
27

> <Collection>
General

$$$$
F1298-0044
  -ISIS-  06222321142D

 33 36  0  0  0  0  0  0  0  0999 V2000
    2.3417   -0.2542    0.0000 C   0  0  0  0  0  0  0  0  0  0  0  0
    1.8542    0.4083    0.0000 C   0  0  0  0  0  0  0  0  0  0  0  0
    1.0750   -0.6750    0.0000 C   0  0  0  0  0  0  0  0  0  0  0  0
    6.0542   -2.4042    0.0000 N   0  0  3  0  0  0  0  0  0  0  0  0
    1.0667    0.1458    0.0000 C   0  0  0  0  0  0  0  0  0  0  0  0
    1.8542   -0.9292    0.0000 S   0  0  0  0  0  0  0  0  0  0  0  0
    3.1750   -0.2542    0.0000 N   0  0  0  0  0  0  0  0  0  0  0  0
   -0.3583   -0.6875    0.0000 N   0  0  3  0  0  0  0  0  0  0  0  0
    5.6417   -1.6875    0.0000 C   0  0  0  0  0  0  0  0  0  0  0  0
    3.5792   -0.9750    0.0000 C   0  0  0  0  0  0  0  0  0  0  0  0
   -1.0750   -1.0917    0.0000 C   0  0  0  0  0  0  0  0  0  0  0  0
    5.6792   -3.1375    0.0000 C   0  0  0  0  0  0  0  0  0  0  0  0
    6.8667   -2.5167    0.0000 C   0  0  0  0  0  0  0  0  0  0  0  0
    2.1042    1.1875    0.0000 C   0  0  0  0  0  0  0  0  0  0  0  0
    0.3500   -1.0917    0.0000 C   0  0  0  0  0  0  0  0  0  0  0  0
    0.3500    0.5625    0.0000 C   0  0  0  0  0  0  0  0  0  0  0  0
    4.8125   -1.6875    0.0000 C   0  0  0  0  0  0  0  0  0  0  0  0
    4.4042   -0.9750    0.0000 C   0  0  0  0  0  0  0  0  0  0  0  0
   -0.3583    0.1458    0.0000 C   0  0  0  0  0  0  0  0  0  0  0  0
   -1.0750   -1.9250    0.0000 O   0  0  0  0  0  0  0  0  0  0  0  0
    3.1750   -1.6917    0.0000 O   0  0  0  0  0  0  0  0  0  0  0  0
    6.2917   -3.7125    0.0000 C   0  0  0  0  0  0  0  0  0  0  0  0
    7.0167   -3.3292    0.0000 C   0  0  0  0  0  0  0  0  0  0  0  0
    4.8667   -3.2750    0.0000 O   0  0  0  0  0  0  0  0  0  0  0  0
    7.4500   -1.9417    0.0000 O   0  0  0  0  0  0  0  0  0  0  0  0
    1.5542    1.7958    0.0000 O   0  0  0  0  0  0  0  0  0  0  0  0
    2.9125    1.3625    0.0000 N   0  0  0  0  0  0  0  0  0  0  0  0
   -1.7875   -0.6875    0.0000 O   0  0  0  0  0  0  0  0  0  0  0  0
    6.0542   -0.9750    0.0000 C   0  0  0  0  0  0  0  0  0  0  0  0
    4.8125   -0.2542    0.0000 C   0  0  0  0  0  0  0  0  0  0  0  0
    5.6417   -0.2542    0.0000 C   0  0  0  0  0  0  0  0  0  0  0  0
   -1.7958    0.1458    0.0000 C   0  0  0  0  0  0  0  0  0  0  0  0
   -2.5083    0.5583    0.0000 C   0  0  0  0  0  0  0  0  0  0  0  0
  2  1  2  0  0  0  0
  3  6  1  0  0  0  0
  4  9  1  0  0  0  0
  5  2  1  0  0  0  0
  6  1  1  0  0  0  0
  7  1  1  0  0  0  0
  8 15  1  0  0  0  0
  9 17  1  0  0  0  0
 10  7  1  0  0  0  0
 11  8  1  0  0  0  0
 12  4  1  0  0  0  0
 13  4  1  0  0  0  0
 14  2  1  0  0  0  0
 15  3  1  0  0  0  0
 16  5  1  0  0  0  0
 17 18  2  0  0  0  0
 18 10  1  0  0  0  0
 19 16  1  0  0  0  0
 20 11  2  0  0  0  0
 21 10  2  0  0  0  0
 22 12  1  0  0  0  0
 23 13  1  0  0  0  0
 24 12  2  0  0  0  0
 25 13  2  0  0  0  0
 26 14  2  0  0  0  0
 27 14  1  0  0  0  0
 28 11  1  0  0  0  0
 29 31  1  0  0  0  0
 30 18  1  0  0  0  0
 31 30  2  0  0  0  0
 32 28  1  0  0  0  0
 33 32  1  0  0  0  0
  3  5  2  0  0  0  0
  8 19  1  0  0  0  0
  9 29  2  0  0  0  0
 23 22  1  0  0  0  0
M  END
> <IDNUMBER>
F1298-0044

> <Chemical_Name>
ethyl 3-carbamoyl-2-[3-(2,5-dioxopyrrolidin-1-yl)benzamido]-4H,5H,6H,7H-thieno[2,3-c]pyridine-6-carboxylate

> <CAS>
921160-42-1

> <PriceCoeff>
1.00

> <MW>
470.50

> <Description>
solid

> <FSP3>
0.32

> <clogP>
0.62

> <TPSA>
167.35

> <Acceptor>
6

> <Donor>
2

> <RotBonds>
7

> <HAC>
33

> <Collection>
General

$$$$
F1481-0015
  -ISIS-  06222304352D

 32 34  0  0  0  0  0  0  0  0999 V2000
    0.9500   -0.7917    0.0000 N   0  0  3  0  0  0  0  0  0  0  0  0
    0.4667   -1.4542    0.0000 C   0  0  0  0  0  0  0  0  0  0  0  0
    0.4667   -0.1167    0.0000 C   0  0  0  0  0  0  0  0  0  0  0  0
   -0.3125   -1.1917    0.0000 C   0  0  0  0  0  0  0  0  0  0  0  0
   -0.3083   -0.3625    0.0000 C   0  0  0  0  0  0  0  0  0  0  0  0
    1.7875   -0.7917    0.0000 C   0  0  0  0  0  0  0  0  0  0  0  0
    2.1917   -1.5125    0.0000 C   0  0  3  0  0  0  0  0  0  0  0  0
    3.4292   -2.2250    0.0000 N   0  0  0  0  0  0  0  0  0  0  0  0
    0.6500    0.6875    0.0000 C   0  0  0  0  0  0  0  0  0  0  0  0
    0.6375   -2.2542    0.0000 C   0  0  0  0  0  0  0  0  0  0  0  0
   -0.9208   -1.7500    0.0000 C   0  0  0  0  0  0  0  0  0  0  0  0
   -0.9208    0.1875    0.0000 C   0  0  0  0  0  0  0  0  0  0  0  0
    1.7750   -2.2250    0.0000 O   0  0  0  0  0  0  0  0  0  0  0  0
    3.0167   -1.5125    0.0000 C   0  0  0  0  0  0  0  0  0  0  0  0
    4.2625   -2.2250    0.0000 C   0  0  0  0  0  0  0  0  0  0  0  0
    5.5042   -2.9542    0.0000 C   0  0  3  0  0  0  0  0  0  0  0  0
    4.6750   -2.9542    0.0000 C   0  0  0  0  0  0  0  0  0  0  0  0
   -0.7458    1.0000    0.0000 C   0  0  0  0  0  0  0  0  0  0  0  0
    0.0167   -2.8042    0.0000 C   0  0  0  0  0  0  0  0  0  0  0  0
    0.0417    1.2375    0.0000 C   0  0  0  0  0  0  0  0  0  0  0  0
   -0.7583   -2.5417    0.0000 C   0  0  0  0  0  0  0  0  0  0  0  0
    5.9125   -2.2417    0.0000 C   0  0  0  0  0  0  0  0  0  0  0  0
    5.9042   -3.6792    0.0000 C   0  0  0  0  0  0  0  0  0  0  0  0
    9.0662   -0.6324    0.0000 C   0  0  0  0  0  0  0  0  0  0  0  0
    8.7644    0.1399    0.0000 O   0  0  0  0  0  0  0  0  0  0  0  0
    8.5470   -1.2787    0.0000 C   0  0  0  0  0  0  0  0  0  0  0  0
    9.8802   -0.7522    0.0000 O   0  0  0  0  0  0  0  0  0  0  0  0
    7.7261   -1.1526    0.0000 C   0  0  0  0  0  0  0  0  0  0  0  0
    8.8448   -2.0525    0.0000 C   0  0  0  0  0  0  0  0  0  0  0  0
    7.2054   -1.7950    0.0000 C   0  0  0  0  0  0  0  0  0  0  0  0
    8.3218   -2.7003    0.0000 C   0  0  0  0  0  0  0  0  0  0  0  0
    7.5033   -2.5689    0.0000 C   0  0  0  0  0  0  0  0  0  0  0  0
 11  4  1  0  0  0  0
 12  5  1  0  0  0  0
 13  7  1  0  0  0  0
 14  7  1  0  0  0  0
 15  8  1  0  0  0  0
 16 17  1  0  0  0  0
 17 15  1  0  0  0  0
 18 20  1  0  0  0  0
 19 10  2  0  0  0  0
 20  9  2  0  0  0  0
 21 19  1  0  0  0  0
 22 16  1  0  0  0  0
 23 16  1  0  0  0  0
  5  4  1  0  0  0  0
 18 12  2  0  0  0  0
 21 11  2  0  0  0  0
  2  1  1  0  0  0  0
  3  1  1  0  0  0  0
  4  2  2  0  0  0  0
  5  3  2  0  0  0  0
  6  1  1  0  0  0  0
  7  6  1  0  0  0  0
  8 14  1  0  0  0  0
  9  3  1  0  0  0  0
 10  2  1  0  0  0  0
 25 24  2  0  0  0  0
 26 24  1  0  0  0  0
 27 24  1  0  0  0  0
 28 26  2  0  0  0  0
 29 26  1  0  0  0  0
 30 28  1  0  0  0  0
 31 29  2  0  0  0  0
 32 31  1  0  0  0  0
 32 30  2  0  0  0  0
M  END
> <IDNUMBER>
F1481-0015

> <Chemical_Name>
1-(9H-carbazol-9-yl)-3-[(3-methylbutyl)amino]propan-2-ol; benzoic acid

> <CAS>
479542-47-7

> <PriceCoeff>
1.00

> <MW>
310.43

> <Description>
solid

> <FSP3>
0.40

> <clogP>
4.69

> <TPSA>
37.19

> <Acceptor>
1

> <Donor>
2

> <RotBonds>
7

> <HAC>
23

> <Collection>
General

> <Reference_compound>
PRI1826

> <Similarity>
0.8570

$$$$
F0013-0083
  -ISIS-  06222321452D

 18 20  0  0  0  0  0  0  0  0999 V2000
   -1.7458    0.3958    0.0000 C   0  0  0  0  0  0  0  0  0  0  0  0
   -2.0625   -0.2167    0.0000 N   0  0  0  0  0  0  0  0  0  0  0  0
   -2.2208    0.8625    0.0000 S   0  0  0  0  0  0  0  0  0  0  0  0
   -2.7500   -0.0917    0.0000 C   0  0  0  0  0  0  0  0  0  0  0  0
   -2.8333    0.5833    0.0000 C   0  0  0  0  0  0  0  0  0  0  0  0
   -1.0708    0.5000    0.0000 C   0  0  0  0  0  0  0  0  0  0  0  0
   -0.8708    1.1333    0.0000 C   0  0  0  0  0  0  0  0  0  0  0  0
   -0.6333   -0.0167    0.0000 C   0  0  0  0  0  0  0  0  0  0  0  0
    0.2500    0.7125    0.0000 C   0  0  0  0  0  0  0  0  0  0  0  0
    0.0375    0.0708    0.0000 C   0  0  0  0  0  0  0  0  0  0  0  0
   -0.2125    1.2833    0.0000 C   0  0  0  0  0  0  0  0  0  0  0  0
    0.9792    0.7958    0.0000 O   0  0  0  0  0  0  0  0  0  0  0  0
   -3.2958   -0.5000    0.0000 C   0  0  0  0  0  0  0  0  0  0  0  0
   -3.4500    0.8458    0.0000 C   0  0  0  0  0  0  0  0  0  0  0  0
    1.3792    0.2500    0.0000 C   0  0  0  0  0  0  0  0  0  0  0  0
    2.0292    0.2625    0.0000 C   0  0  0  0  0  0  0  0  0  0  0  0
   -3.9000   -0.2292    0.0000 C   0  0  0  0  0  0  0  0  0  0  0  0
   -3.9958    0.4458    0.0000 C   0  0  0  0  0  0  0  0  0  0  0  0
  2  1  2  0  0  0  0
  3  1  1  0  0  0  0
  4  2  1  0  0  0  0
  5  3  1  0  0  0  0
  6  1  1  0  0  0  0
  7  6  2  0  0  0  0
  8  6  1  0  0  0  0
  9 10  1  0  0  0  0
 10  8  2  0  0  0  0
 11  7  1  0  0  0  0
 12  9  1  0  0  0  0
 13  4  1  0  0  0  0
 14  5  1  0  0  0  0
 15 12  1  0  0  0  0
 16 15  1  0  0  0  0
 17 13  2  0  0  0  0
 18 14  2  0  0  0  0
  5  4  2  0  0  0  0
  9 11  2  0  0  0  0
 18 17  1  0  0  0  0
M  END
> <IDNUMBER>
F0013-0083

> <Chemical_Name>
2-(4-ethoxyphenyl)-1,3-benzothiazole

> <CAS>
183561-67-3

> <PriceCoeff>
1.00

> <MW>
255.33

> <Description>
solid

> <FSP3>
0.13

> <clogP>
4.73

> <TPSA>
50.36

> <Acceptor>
2

> <Donor>
0

> <RotBonds>
3

> <HAC>
18

> <Collection>
General

> <Reference_compound>
CHEMBL2269944

> <Similarity>
0.8960

$$$$
F0799-0005
  -ISIS-  06222321452D

 17 18  0  0  0  0  0  0  0  0999 V2000
    2.2167   -0.9292    0.0000 C   0  0  0  0  0  0  0  0  0  0  0  0
    2.2167   -0.1542    0.0000 C   0  0  0  0  0  0  0  0  0  0  0  0
    2.8792   -1.3292    0.0000 N   0  0  0  0  0  0  0  0  0  0  0  0
    1.5292   -1.3167    0.0000 N   0  0  3  0  0  0  0  0  0  0  0  0
    0.8667   -0.1542    0.0000 N   0  0  3  0  0  0  0  0  0  0  0  0
    0.8667   -0.9417    0.0000 C   0  0  0  0  0  0  0  0  0  0  0  0
    1.5292    0.2458    0.0000 C   0  0  0  0  0  0  0  0  0  0  0  0
    3.5542   -0.9417    0.0000 C   0  0  0  0  0  0  0  0  0  0  0  0
    3.5667   -0.1542    0.0000 N   0  0  3  0  0  0  0  0  0  0  0  0
    0.1917   -1.3292    0.0000 O   0  0  0  0  0  0  0  0  0  0  0  0
    1.5292    1.0208    0.0000 O   0  0  0  0  0  0  0  0  0  0  0  0
    4.2167   -1.3292    0.0000 Br  0  0  0  0  0  0  0  0  0  0  0  0
    1.5292   -2.1042    0.0000 C   0  0  0  0  0  0  0  0  0  0  0  0
    0.1125    0.0458    0.0000 C   0  0  0  0  0  0  0  0  0  0  0  0
    4.3875   -0.1542    0.0000 C   0  0  0  0  0  0  0  0  0  0  0  0
    4.7917    0.5583    0.0000 C   0  0  0  0  0  0  0  0  0  0  0  0
    5.6167    0.5583    0.0000 C   0  0  0  0  0  0  0  0  0  0  0  0
  2  1  2  0  0  0  0
  3  1  1  0  0  0  0
  4  1  1  0  0  0  0
  5  6  1  0  0  0  0
  6  4  1  0  0  0  0
  7  2  1  0  0  0  0
  8  3  2  0  0  0  0
  9  2  1  0  0  0  0
 10  6  2  0  0  0  0
 11  7  2  0  0  0  0
 12  8  1  0  0  0  0
 13  4  1  0  0  0  0
 14  5  1  0  0  0  0
 15  9  1  0  0  0  0
 16 15  1  0  0  0  0
 17 16  2  0  0  0  0
  8  9  1  0  0  0  0
  7  5  1  0  0  0  0
M  END
> <IDNUMBER>
F0799-0005

> <Chemical_Name>
8-bromo-1,3-dimethyl-7-(prop-2-en-1-yl)-2,3,6,7-tetrahydro-1H-purine-2,6-dione

> <CAS>
82463-67-0

> <PriceCoeff>
1.00

> <MW>
299.12

> <Description>
solid

> <FSP3>
0.30

> <clogP>
1.63

> <TPSA>
58.44

> <Acceptor>
3

> <Donor>
1

> <RotBonds>
2

> <HAC>
17

> <Collection>
General

> <Reference_compound>
CHEMBL113

> <Similarity>
0.8090

$$$$
F3048-0123
  -ISIS-  06222321152D

 26 28  0  0  0  0  0  0  0  0999 V2000
    6.4292    2.3958    0.0000 N   0  0  3  0  0  0  0  0  0  0  0  0
    5.9917    3.0083    0.0000 C   0  0  0  0  0  0  0  0  0  0  0  0
    5.9917    1.7958    0.0000 C   0  0  0  0  0  0  0  0  0  0  0  0
    5.2792    2.7708    0.0000 C   0  0  0  0  0  0  0  0  0  0  0  0
    5.2792    2.0208    0.0000 C   0  0  3  0  0  0  0  0  0  0  0  0
    7.1792    2.3958    0.0000 C   0  0  0  0  0  0  0  0  0  0  0  0
    4.6750    1.5833    0.0000 S   0  0  0  0  0  0  0  0  0  0  0  0
    3.3792    1.4458    0.0000 C   0  0  0  0  0  0  0  0  0  0  0  0
    6.2250    3.7208    0.0000 O   0  0  0  0  0  0  0  0  0  0  0  0
    6.2250    1.0750    0.0000 O   0  0  0  0  0  0  0  0  0  0  0  0
    2.6917    1.7500    0.0000 N   0  0  0  0  0  0  0  0  0  0  0  0
    7.5542    1.7458    0.0000 C   0  0  0  0  0  0  0  0  0  0  0  0
    3.4542    0.7000    0.0000 O   0  0  0  0  0  0  0  0  0  0  0  0
    3.9875    1.8958    0.0000 C   0  0  0  0  0  0  0  0  0  0  0  0
    2.0875    1.3083    0.0000 C   0  0  0  0  0  0  0  0  0  0  0  0
    7.1792    1.0958    0.0000 O   0  0  0  0  0  0  0  0  0  0  0  0
    7.5542    3.0458    0.0000 C   0  0  0  0  0  0  0  0  0  0  0  0
    8.3042    1.7458    0.0000 C   0  0  0  0  0  0  0  0  0  0  0  0
    1.4042    1.6125    0.0000 C   0  0  0  0  0  0  0  0  0  0  0  0
    2.1667    0.5625    0.0000 C   0  0  0  0  0  0  0  0  0  0  0  0
    7.5542    0.4500    0.0000 C   0  0  0  0  0  0  0  0  0  0  0  0
    8.3042    3.0458    0.0000 C   0  0  0  0  0  0  0  0  0  0  0  0
    8.6792    2.3958    0.0000 C   0  0  0  0  0  0  0  0  0  0  0  0
    0.7917    1.1750    0.0000 C   0  0  0  0  0  0  0  0  0  0  0  0
    1.5625    0.1208    0.0000 C   0  0  0  0  0  0  0  0  0  0  0  0
    0.8750    0.4333    0.0000 C   0  0  0  0  0  0  0  0  0  0  0  0
  2  1  1  0  0  0  0
  3  1  1  0  0  0  0
  4  2  1  0  0  0  0
  5  3  1  0  0  0  0
  6  1  1  0  0  0  0
  7  5  1  0  0  0  0
  8 14  1  0  0  0  0
  9  2  2  0  0  0  0
 10  3  2  0  0  0  0
 11  8  1  0  0  0  0
 12  6  1  0  0  0  0
 13  8  2  0  0  0  0
 14  7  1  0  0  0  0
 15 11  1  0  0  0  0
 16 12  1  0  0  0  0
 17  6  2  0  0  0  0
 18 12  2  0  0  0  0
 19 15  1  0  0  0  0
 20 15  2  0  0  0  0
 21 16  1  0  0  0  0
 22 17  1  0  0  0  0
 23 22  2  0  0  0  0
 24 19  2  0  0  0  0
 25 20  1  0  0  0  0
 26 25  2  0  0  0  0
  4  5  1  0  0  0  0
 18 23  1  0  0  0  0
 26 24  1  0  0  0  0
M  END
> <IDNUMBER>
F3048-0123

> <Chemical_Name>
2-{[1-(2-methoxyphenyl)-2,5-dioxopyrrolidin-3-yl]sulfanyl}-N-phenylacetamide

> <CAS>
708996-60-5

> <PriceCoeff>
1.00

> <MW>
370.42

> <Description>
solid

> <FSP3>
0.21

> <clogP>
2.32

> <TPSA>
101.01

> <Acceptor>
4

> <Donor>
1

> <RotBonds>
6

> <HAC>
26

> <Collection>
General

$$$$
F3023-0915
  -ISIS-  06222321462D

 21 23  0  0  0  0  0  0  0  0999 V2000
    3.2792   -5.4042    0.0000 N   0  0  3  0  0  0  0  0  0  0  0  0
    3.7000   -5.9750    0.0000 C   0  0  0  0  0  0  0  0  0  0  0  0
    3.6917   -4.8292    0.0000 C   0  0  0  0  0  0  0  0  0  0  0  0
    4.3750   -5.7542    0.0000 C   0  0  3  0  0  0  0  0  0  0  0  0
    4.3667   -5.0417    0.0000 C   0  0  0  0  0  0  0  0  0  0  0  0
    4.9417   -6.1667    0.0000 N   0  0  3  0  0  0  0  0  0  0  0  0
    6.0917   -7.0000    0.0000 N   0  0  3  0  0  0  0  0  0  0  0  0
    6.6625   -7.4167    0.0000 C   0  0  0  0  0  0  0  0  0  0  0  0
    3.4875   -6.6500    0.0000 O   0  0  0  0  0  0  0  0  0  0  0  0
    3.4667   -4.1542    0.0000 O   0  0  0  0  0  0  0  0  0  0  0  0
    5.5917   -5.8750    0.0000 C   0  0  0  0  0  0  0  0  0  0  0  0
    4.8667   -6.8667    0.0000 C   0  0  0  0  0  0  0  0  0  0  0  0
    5.4417   -7.2875    0.0000 C   0  0  0  0  0  0  0  0  0  0  0  0
    6.1667   -6.2917    0.0000 C   0  0  0  0  0  0  0  0  0  0  0  0
    6.5875   -8.1167    0.0000 C   0  0  0  0  0  0  0  0  0  0  0  0
    7.3042   -7.1250    0.0000 C   0  0  0  0  0  0  0  0  0  0  0  0
    2.5667   -5.4042    0.0000 C   0  0  0  0  0  0  0  0  0  0  0  0
    7.8042   -8.2417    0.0000 C   0  0  0  0  0  0  0  0  0  0  0  0
    7.1625   -8.5292    0.0000 C   0  0  0  0  0  0  0  0  0  0  0  0
    7.8792   -7.5375    0.0000 C   0  0  0  0  0  0  0  0  0  0  0  0
    8.3792   -8.6542    0.0000 F   0  0  0  0  0  0  0  0  0  0  0  0
  2  1  1  0  0  0  0
  3  1  1  0  0  0  0
  4  2  1  0  0  0  0
  5  3  1  0  0  0  0
  6  4  1  0  0  0  0
  7 13  1  0  0  0  0
  8  7  1  0  0  0  0
  9  2  2  0  0  0  0
 10  3  2  0  0  0  0
 11  6  1  0  0  0  0
 12  6  1  0  0  0  0
 13 12  1  0  0  0  0
 14 11  1  0  0  0  0
 15  8  2  0  0  0  0
 16  8  1  0  0  0  0
 17  1  1  0  0  0  0
 18 20  1  0  0  0  0
 19 15  1  0  0  0  0
 20 16  2  0  0  0  0
 21 18  1  0  0  0  0
  5  4  1  0  0  0  0
 14  7  1  0  0  0  0
 18 19  2  0  0  0  0
M  END
> <IDNUMBER>
F3023-0915

> <Chemical_Name>
3-[4-(4-fluorophenyl)piperazin-1-yl]-1-methylpyrrolidine-2,5-dione

> <CAS>
299949-38-5

> <PriceCoeff>
1.50

> <MW>
291.32

> <Description>
solid

> <FSP3>
0.47

> <clogP>
2.66

> <TPSA>
43.86

> <Acceptor>
3

> <Donor>
2

> <RotBonds>
2

> <HAC>
21

> <Collection>
Advanced

$$$$
F0346-1856
  -ISIS-  06222321142D

 25 26  0  0  0  0  0  0  0  0999 V2000
   -3.4125   -0.4500    0.0000 C   0  0  0  0  0  0  0  0  0  0  0  0
   -3.4125    0.5958    0.0000 C   0  0  0  0  0  0  0  0  0  0  0  0
   -2.5125   -0.9542    0.0000 N   0  0  0  0  0  0  0  0  0  0  0  0
   -1.6208   -0.4500    0.0000 N   0  0  3  0  0  0  0  0  0  0  0  0
   -1.6208    0.5958    0.0000 C   0  0  0  0  0  0  0  0  0  0  0  0
   -4.3000   -0.9542    0.0000 N   0  3  0  0  0  0  0  0  0  0  0  0
   -0.6708   -1.0042    0.0000 C   0  0  0  0  0  0  0  0  0  0  0  0
    2.1917   -0.5292    0.0000 C   0  0  0  0  0  0  0  0  0  0  0  0
    0.3000   -0.4667    0.0000 C   0  0  0  0  0  0  0  0  0  0  0  0
    3.1500   -1.1167    0.0000 C   0  0  0  0  0  0  0  0  0  0  0  0
    1.2292   -1.0500    0.0000 N   0  0  0  0  0  0  0  0  0  0  0  0
    3.2042    1.0958    0.0000 C   0  0  0  0  0  0  0  0  0  0  0  0
    2.1917    0.5625    0.0000 C   0  0  0  0  0  0  0  0  0  0  0  0
    4.1500    0.5000    0.0000 C   0  0  0  0  0  0  0  0  0  0  0  0
    4.1500   -0.5667    0.0000 C   0  0  0  0  0  0  0  0  0  0  0  0
   -5.1708   -0.4500    0.0000 O   0  5  0  0  0  0  0  0  0  0  0  0
   -4.3000   -2.0000    0.0000 O   0  0  0  0  0  0  0  0  0  0  0  0
   -4.3625    1.1333    0.0000 Br  0  0  0  0  0  0  0  0  0  0  0  0
    0.3000    0.6458    0.0000 O   0  0  0  0  0  0  0  0  0  0  0  0
    5.1500    0.9958    0.0000 Cl  0  0  0  0  0  0  0  0  0  0  0  0
   -0.6708    1.1333    0.0000 C   0  0  0  0  0  0  0  0  0  0  0  0
    1.2500    1.1000    0.0000 O   0  0  0  0  0  0  0  0  0  0  0  0
    5.1292   -1.0792    0.0000 O   0  0  0  0  0  0  0  0  0  0  0  0
    1.2500    2.2125    0.0000 C   0  0  0  0  0  0  0  0  0  0  0  0
    6.0500   -0.4792    0.0000 C   0  0  0  0  0  0  0  0  0  0  0  0
  2  1  1  0  0  0  0
  3  1  2  0  0  0  0
  4  3  1  0  0  0  0
  5  2  2  0  0  0  0
  6  1  1  0  0  0  0
  7  4  1  0  0  0  0
  8 11  1  0  0  0  0
  9  7  1  0  0  0  0
 10  8  2  0  0  0  0
 11  9  1  0  0  0  0
 12 13  2  0  0  0  0
 13  8  1  0  0  0  0
 14 12  1  0  0  0  0
 15 10  1  0  0  0  0
 16  6  1  0  0  0  0
 17  6  2  0  0  0  0
 18  2  1  0  0  0  0
 19  9  2  0  0  0  0
 20 14  1  0  0  0  0
 21  5  1  0  0  0  0
 22 13  1  0  0  0  0
 23 15  1  0  0  0  0
 24 22  1  0  0  0  0
 25 23  1  0  0  0  0
  4  5  1  0  0  0  0
 14 15  2  0  0  0  0
M  CHG  2   6   1  16  -1
M  END
> <IDNUMBER>
F0346-1856

> <Chemical_Name>
2-(4-bromo-5-methyl-3-nitro-1H-pyrazol-1-yl)-N-(4-chloro-2,5-dimethoxyphenyl)acetamide

> <CAS>
353455-61-5

> <PriceCoeff>
1.00

> <MW>
433.64

> <Description>
solid

> <FSP3>
0.29

> <clogP>
2.24

> <TPSA>
108.52

> <Acceptor>
6

> <Donor>
1

> <RotBonds>
6

> <HAC>
25

> <Collection>
General

$$$$
F1300-0148
  -ISIS-  06222321452D

 30 33  0  0  0  0  0  0  0  0999 V2000
   -1.1708    2.9833    0.0000 C   0  0  0  0  0  0  0  0  0  0  0  0
    2.5250    0.8458    0.0000 N   0  0  3  0  0  0  0  0  0  0  0  0
   -1.6583    2.3083    0.0000 N   0  0  0  0  0  0  0  0  0  0  0  0
   -0.3458    2.9833    0.0000 N   0  0  0  0  0  0  0  0  0  0  0  0
   -1.6583    3.6458    0.0000 S   0  0  0  0  0  0  0  0  0  0  0  0
    2.1167    1.5583    0.0000 C   0  0  0  0  0  0  0  0  0  0  0  0
    0.0667    2.2708    0.0000 C   0  0  0  0  0  0  0  0  0  0  0  0
    2.1500    0.1083    0.0000 C   0  0  0  0  0  0  0  0  0  0  0  0
    3.3292    0.7250    0.0000 C   0  0  0  0  0  0  0  0  0  0  0  0
   -2.4458    3.3958    0.0000 C   0  0  0  0  0  0  0  0  0  0  0  0
   -2.4458    2.5625    0.0000 C   0  0  0  0  0  0  0  0  0  0  0  0
   -4.5833    3.7958    0.0000 C   0  0  0  0  0  0  0  0  0  0  0  0
   -3.8625    3.3958    0.0000 C   0  0  0  0  0  0  0  0  0  0  0  0
    1.2917    1.5583    0.0000 C   0  0  0  0  0  0  0  0  0  0  0  0
    0.8792    2.2708    0.0000 C   0  0  0  0  0  0  0  0  0  0  0  0
   -3.1583    3.8083    0.0000 C   0  0  0  0  0  0  0  0  0  0  0  0
   -0.3458    1.5583    0.0000 O   0  0  0  0  0  0  0  0  0  0  0  0
    2.7542   -0.4667    0.0000 C   0  0  0  0  0  0  0  0  0  0  0  0
    3.4792   -0.0875    0.0000 C   0  0  0  0  0  0  0  0  0  0  0  0
    1.3417   -0.0250    0.0000 O   0  0  0  0  0  0  0  0  0  0  0  0
    3.9042    1.2958    0.0000 O   0  0  0  0  0  0  0  0  0  0  0  0
   -5.2833    3.3833    0.0000 O   0  0  0  0  0  0  0  0  0  0  0  0
   -3.1583    2.1583    0.0000 C   0  0  0  0  0  0  0  0  0  0  0  0
   -3.8625    2.5625    0.0000 C   0  0  0  0  0  0  0  0  0  0  0  0
   -4.5833    4.6250    0.0000 O   0  0  0  0  0  0  0  0  0  0  0  0
    2.5292    2.2708    0.0000 C   0  0  0  0  0  0  0  0  0  0  0  0
    1.2917    2.9833    0.0000 C   0  0  0  0  0  0  0  0  0  0  0  0
    2.1167    2.9833    0.0000 C   0  0  0  0  0  0  0  0  0  0  0  0
   -3.8708    5.0417    0.0000 C   0  0  0  0  0  0  0  0  0  0  0  0
   -3.8708    5.8542    0.0000 C   0  0  0  0  0  0  0  0  0  0  0  0
  2  6  1  0  0  0  0
  3  1  2  0  0  0  0
  4  1  1  0  0  0  0
  5  1  1  0  0  0  0
  6 14  1  0  0  0  0
  7  4  1  0  0  0  0
  8  2  1  0  0  0  0
  9  2  1  0  0  0  0
 10  5  1  0  0  0  0
 11  3  1  0  0  0  0
 12 13  1  0  0  0  0
 13 16  2  0  0  0  0
 14 15  2  0  0  0  0
 15  7  1  0  0  0  0
 16 10  1  0  0  0  0
 17  7  2  0  0  0  0
 18  8  1  0  0  0  0
 19  9  1  0  0  0  0
 20  8  2  0  0  0  0
 21  9  2  0  0  0  0
 22 12  2  0  0  0  0
 23 11  1  0  0  0  0
 24 23  2  0  0  0  0
 25 12  1  0  0  0  0
 26 28  1  0  0  0  0
 27 15  1  0  0  0  0
 28 27  2  0  0  0  0
 29 25  1  0  0  0  0
 30 29  1  0  0  0  0
 10 11  2  0  0  0  0
 13 24  1  0  0  0  0
 26  6  2  0  0  0  0
 18 19  1  0  0  0  0
M  END
> <IDNUMBER>
F1300-0148

> <Chemical_Name>
ethyl 2-[3-(2,5-dioxopyrrolidin-1-yl)benzamido]-1,3-benzothiazole-6-carboxylate

> <CAS>
311327-58-9

> <PriceCoeff>
1.00

> <MW>
423.44

> <Description>
solid

> <FSP3>
0.19

> <clogP>
2.20

> <TPSA>
133.91

> <Acceptor>
6

> <Donor>
1

> <RotBonds>
6

> <HAC>
30

> <Collection>
General

$$$$
F1408-0414
  -ISIS-  06222321452D

 30 34  0  0  0  0  0  0  0  0999 V2000
   -1.7500    1.2458    0.0000 C   0  0  0  0  0  0  0  0  0  0  0  0
   -1.5333    0.8833    0.0000 C   0  0  0  0  0  0  0  0  0  0  0  0
   -1.1125    1.6000    0.0000 N   0  0  3  0  0  0  0  0  0  0  0  0
   -0.8958    1.2625    0.0000 C   0  0  0  0  0  0  0  0  0  0  0  0
   -1.0958    0.9000    0.0000 N   0  0  0  0  0  0  0  0  0  0  0  0
   -1.5333    1.6000    0.0000 C   0  0  0  0  0  0  0  0  0  0  0  0
   -2.1500    1.1208    0.0000 C   0  0  0  0  0  0  0  0  0  0  0  0
   -2.1708    0.7208    0.0000 C   0  0  0  0  0  0  0  0  0  0  0  0
   -1.8125    0.5625    0.0000 S   0  0  0  0  0  0  0  0  0  0  0  0
   -0.4500    1.3000    0.0000 S   0  0  0  0  0  0  0  0  0  0  0  0
    0.1500    1.7000    0.0000 C   0  0  0  0  0  0  0  0  0  0  0  0
    0.3875    1.3625    0.0000 N   0  0  3  0  0  0  0  0  0  0  0  0
   -2.5125    1.3458    0.0000 C   0  0  0  0  0  0  0  0  0  0  0  0
   -0.9333    1.9833    0.0000 C   0  0  0  0  0  0  0  0  0  0  0  0
   -1.7333    1.9833    0.0000 O   0  0  0  0  0  0  0  0  0  0  0  0
   -2.5500    0.5208    0.0000 C   0  0  0  0  0  0  0  0  0  0  0  0
   -0.2708    1.6833    0.0000 C   0  0  0  0  0  0  0  0  0  0  0  0
    0.3500    2.0833    0.0000 O   0  0  0  0  0  0  0  0  0  0  0  0
   -2.8958    1.1458    0.0000 C   0  0  0  0  0  0  0  0  0  0  0  0
   -2.9125    0.7458    0.0000 C   0  0  3  0  0  0  0  0  0  0  0  0
    0.7875    1.2833    0.0000 C   0  0  0  0  0  0  0  0  0  0  0  0
    0.1875    0.9833    0.0000 C   0  0  0  0  0  0  0  0  0  0  0  0
   -0.4958    2.0000    0.0000 C   0  0  0  0  0  0  0  0  0  0  0  0
   -1.1500    2.3458    0.0000 C   0  0  0  0  0  0  0  0  0  0  0  0
   -3.3125    0.5625    0.0000 C   0  0  0  0  0  0  0  0  0  0  0  0
    0.5042    0.6833    0.0000 C   0  0  0  0  0  0  0  0  0  0  0  0
    0.8667    0.8625    0.0000 C   0  0  0  0  0  0  0  0  0  0  0  0
   -0.9708    2.7208    0.0000 C   0  0  0  0  0  0  0  0  0  0  0  0
   -0.2958    2.3833    0.0000 C   0  0  0  0  0  0  0  0  0  0  0  0
   -0.5500    2.7458    0.0000 C   0  0  0  0  0  0  0  0  0  0  0  0
  2  1  2  0  0  0  0
  3  6  1  0  0  0  0
  4  3  1  0  0  0  0
  5  2  1  0  0  0  0
  6  1  1  0  0  0  0
  7  1  1  0  0  0  0
  8  7  2  0  0  0  0
  9  2  1  0  0  0  0
 10  4  1  0  0  0  0
 11 17  1  0  0  0  0
 12 11  1  0  0  0  0
 13  7  1  0  0  0  0
 14  3  1  0  0  0  0
 15  6  2  0  0  0  0
 16  8  1  0  0  0  0
 17 10  1  0  0  0  0
 18 11  2  0  0  0  0
 19 13  1  0  0  0  0
 20 19  1  0  0  0  0
 21 12  1  0  0  0  0
 22 12  1  0  0  0  0
 23 14  1  0  0  0  0
 24 14  2  0  0  0  0
 25 20  1  0  0  0  0
 26 22  1  0  0  0  0
 27 21  1  0  0  0  0
 28 24  1  0  0  0  0
 29 23  2  0  0  0  0
 30 28  2  0  0  0  0
  8  9  1  0  0  0  0
  5  4  2  0  0  0  0
 16 20  1  0  0  0  0
 29 30  1  0  0  0  0
 26 27  1  0  0  0  0
M  END
> <IDNUMBER>
F1408-0414

> <Chemical_Name>
11-methyl-5-{[2-oxo-2-(pyrrolidin-1-yl)ethyl]sulfanyl}-4-phenyl-8-thia-4,6-diazatricyclo[7.4.0.0^{2,7}]trideca-1(9),2(7),5-trien-3-one

> <CAS>
500113-36-0

> <PriceCoeff>
1.00

> <MW>
439.59

> <Description>
solid

> <FSP3>
0.43

> <clogP>
5.00

> <TPSA>
106.52

> <Acceptor>
3

> <Donor>
0

> <RotBonds>
5

> <HAC>
30

> <Collection>
General

> <Reference_compound>
CHEMBL577016

> <Similarity>
0.8190

$$$$
F1822-0392
  -ISIS-  06222321142D

 28 32  0  0  0  0  0  0  0  0999 V2000
   -5.9583    3.3958    0.0000 C   0  0  0  0  0  0  0  0  0  0  0  0
   -1.7333    3.3958    0.0000 N   0  0  3  0  0  0  0  0  0  0  0  0
   -6.0292    2.5625    0.0000 N   0  0  0  0  0  0  0  0  0  0  0  0
   -5.2708    3.7833    0.0000 N   0  0  0  0  0  0  0  0  0  0  0  0
   -6.7042    3.7208    0.0000 S   0  0  0  0  0  0  0  0  0  0  0  0
   -6.8417    2.3958    0.0000 C   0  0  0  0  0  0  0  0  0  0  0  0
   -2.4458    3.8000    0.0000 C   0  0  0  0  0  0  0  0  0  0  0  0
   -4.5833    3.3958    0.0000 C   0  0  0  0  0  0  0  0  0  0  0  0
   -7.2667    3.1083    0.0000 C   0  0  0  0  0  0  0  0  0  0  0  0
   -1.6875    2.5708    0.0000 C   0  0  0  0  0  0  0  0  0  0  0  0
   -0.9708    3.6875    0.0000 C   0  0  0  0  0  0  0  0  0  0  0  0
   -7.2542    1.6708    0.0000 C   0  0  0  0  0  0  0  0  0  0  0  0
   -8.0917    3.1083    0.0000 C   0  0  0  0  0  0  0  0  0  0  0  0
   -8.0792    1.6625    0.0000 C   0  0  0  0  0  0  0  0  0  0  0  0
   -8.5042    2.3833    0.0000 C   0  0  0  0  0  0  0  0  0  0  0  0
   -3.1583    3.3958    0.0000 C   0  0  0  0  0  0  0  0  0  0  0  0
   -3.8708    3.8000    0.0000 C   0  0  0  0  0  0  0  0  0  0  0  0
   -9.3167    2.2083    0.0000 O   0  0  0  0  0  0  0  0  0  0  0  0
   -8.6417    1.0458    0.0000 O   0  0  0  0  0  0  0  0  0  0  0  0
   -9.4042    1.3833    0.0000 C   0  0  0  0  0  0  0  0  0  0  0  0
   -4.5958    2.5958    0.0000 O   0  0  0  0  0  0  0  0  0  0  0  0
   -0.8708    2.3708    0.0000 C   0  0  0  0  0  0  0  0  0  0  0  0
   -0.4375    3.0583    0.0000 C   0  0  0  0  0  0  0  0  0  0  0  0
   -2.3208    2.0458    0.0000 O   0  0  0  0  0  0  0  0  0  0  0  0
   -0.7583    4.4667    0.0000 O   0  0  0  0  0  0  0  0  0  0  0  0
   -2.4375    4.6167    0.0000 C   0  0  0  0  0  0  0  0  0  0  0  0
   -3.8708    4.6167    0.0000 C   0  0  0  0  0  0  0  0  0  0  0  0
   -3.1583    5.0292    0.0000 C   0  0  0  0  0  0  0  0  0  0  0  0
  2  7  1  0  0  0  0
  3  1  2  0  0  0  0
  4  1  1  0  0  0  0
  5  1  1  0  0  0  0
  6  3  1  0  0  0  0
  7 16  1  0  0  0  0
  8  4  1  0  0  0  0
  9  5  1  0  0  0  0
 10  2  1  0  0  0  0
 11  2  1  0  0  0  0
 12  6  1  0  0  0  0
 13  9  1  0  0  0  0
 14 12  2  0  0  0  0
 15 13  2  0  0  0  0
 16 17  2  0  0  0  0
 17  8  1  0  0  0  0
 18 15  1  0  0  0  0
 19 14  1  0  0  0  0
 20 18  1  0  0  0  0
 21  8  2  0  0  0  0
 22 10  1  0  0  0  0
 23 11  1  0  0  0  0
 24 10  2  0  0  0  0
 25 11  2  0  0  0  0
 26 28  1  0  0  0  0
 27 17  1  0  0  0  0
 28 27  2  0  0  0  0
  9  6  2  0  0  0  0
 15 14  1  0  0  0  0
 19 20  1  0  0  0  0
  7 26  2  0  0  0  0
 22 23  1  0  0  0  0
M  END
> <IDNUMBER>
F1822-0392

> <Chemical_Name>
N-{4,6-dioxa-10-thia-12-azatricyclo[7.3.0.0^{3,7}]dodeca-1(9),2,7,11-tetraen-11-yl}-3-(2,5-dioxopyrrolidin-1-yl)benzamide

> <CAS>
892842-96-5

> <PriceCoeff>
1.00

> <MW>
395.39

> <Description>
solid

> <FSP3>
0.16

> <clogP>
2.15

> <TPSA>
126.07

> <Acceptor>
6

> <Donor>
1

> <RotBonds>
3

> <HAC>
28

> <Collection>
General

$$$$
F2547-0089
  -ISIS-  06222321142D

 25 26  0  0  0  0  0  0  0  0999 V2000
    4.9667   -3.5542    0.0000 S   0  0  3  0  0  0  0  0  0  0  0  0
    1.9417   -2.5292    0.0000 S   0  0  3  0  0  0  0  0  0  0  0  0
    4.0042   -3.1125    0.0000 N   0  0  3  0  0  0  0  0  0  0  0  0
    7.1667   -3.7625    0.0000 C   0  0  0  0  0  0  0  0  0  0  0  0
    7.8500   -3.2792    0.0000 N   0  3  0  0  0  0  0  0  0  0  0  0
    5.7250   -3.9000    0.0000 C   0  0  0  0  0  0  0  0  0  0  0  0
    6.4042   -3.4125    0.0000 C   0  0  0  0  0  0  0  0  0  0  0  0
    2.9125   -2.8417    0.0000 C   0  0  3  0  0  0  0  0  0  0  0  0
    2.3042   -2.9917    0.0000 C   0  0  0  0  0  0  0  0  0  0  0  0
    5.4625   -2.7167    0.0000 O   0  0  0  0  0  0  0  0  0  0  0  0
    4.2917   -4.3292    0.0000 O   0  0  0  0  0  0  0  0  0  0  0  0
    7.2500   -4.6000    0.0000 C   0  0  0  0  0  0  0  0  0  0  0  0
    1.7667   -3.1167    0.0000 O   0  0  0  0  0  0  0  0  0  0  0  0
    1.4375   -2.0917    0.0000 O   0  0  0  0  0  0  0  0  0  0  0  0
    2.6500   -1.7917    0.0000 C   0  0  0  0  0  0  0  0  0  0  0  0
    8.6125   -3.6250    0.0000 O   0  5  0  0  0  0  0  0  0  0  0  0
    7.7667   -2.4417    0.0000 O   0  0  0  0  0  0  0  0  0  0  0  0
    2.0417   -1.9417    0.0000 C   0  0  0  0  0  0  0  0  0  0  0  0
    4.2792   -2.3167    0.0000 C   0  0  0  0  0  0  0  0  0  0  0  0
    5.8042   -4.7292    0.0000 C   0  0  0  0  0  0  0  0  0  0  0  0
    6.5667   -5.0792    0.0000 C   0  0  0  0  0  0  0  0  0  0  0  0
    8.0042   -4.9417    0.0000 Cl  0  0  0  0  0  0  0  0  0  0  0  0
    3.7417   -1.6917    0.0000 C   0  0  3  0  0  0  0  0  0  0  0  0
    3.8000   -0.8542    0.0000 C   0  0  0  0  0  0  0  0  0  0  0  0
    2.8917   -1.1542    0.0000 C   0  0  0  0  0  0  0  0  0  0  0  0
  2  9  1  0  0  0  0
  3  1  1  0  0  0  0
  4  7  1  0  0  0  0
  5  4  1  0  0  0  0
  6  1  1  0  0  0  0
  7  6  2  0  0  0  0
  8  3  1  0  0  0  0
  9  8  1  0  0  0  0
 10  1  2  0  0  0  0
 11  1  2  0  0  0  0
 12 21  1  0  0  0  0
 13  2  2  0  0  0  0
 14  2  2  0  0  0  0
 15  8  1  0  0  0  0
 16  5  1  0  0  0  0
 17  5  2  0  0  0  0
 18 15  1  0  0  0  0
 19  3  1  0  0  0  0
 20  6  1  0  0  0  0
 21 20  2  0  0  0  0
 22 12  1  0  0  0  0
 23 19  1  0  0  0  0
 24 23  1  0  0  0  0
 25 23  1  0  0  0  0
  4 12  2  0  0  0  0
  2 18  1  0  0  0  0
M  CHG  2   5   1  16  -1
M  END
> <IDNUMBER>
F2547-0089

> <Chemical_Name>
4-chloro-N-(1,1-dioxo-1lambda6-thiolan-3-yl)-N-(2-methylpropyl)-3-nitrobenzene-1-sulfonamide

> <CAS>
874623-20-8

> <PriceCoeff>
1.00

> <MW>
410.89

> <Description>
solid

> <FSP3>
0.57

> <clogP>
1.99

> <TPSA>
131.42

> <Acceptor>
6

> <Donor>
0

> <RotBonds>
6

> <HAC>
25

> <Collection>
General

$$$$
F0846-0695
  -ISIS-  06222321452D

 30 33  0  0  0  0  0  0  0  0999 V2000
    2.4542   -2.9917    0.0000 C   0  0  0  0  0  0  0  0  0  0  0  0
    1.7875   -2.5000    0.0000 C   0  0  0  0  0  0  0  0  0  0  0  0
    2.5042    1.2208    0.0000 N   0  0  3  0  0  0  0  0  0  0  0  0
    2.1917   -3.7667    0.0000 O   0  0  0  0  0  0  0  0  0  0  0  0
    1.7875   -1.6750    0.0000 N   0  0  0  0  0  0  0  0  0  0  0  0
    1.1167   -2.9792    0.0000 C   0  0  0  0  0  0  0  0  0  0  0  0
    1.7875    0.8083    0.0000 C   0  0  0  0  0  0  0  0  0  0  0  0
    1.0667   -1.2625    0.0000 C   0  0  0  0  0  0  0  0  0  0  0  0
    2.6250    2.0458    0.0000 C   0  0  0  0  0  0  0  0  0  0  0  0
    3.2500    0.8583    0.0000 C   0  0  0  0  0  0  0  0  0  0  0  0
    1.3667   -3.7667    0.0000 C   0  0  0  0  0  0  0  0  0  0  0  0
    3.2542   -2.7542    0.0000 C   0  0  0  0  0  0  0  0  0  0  0  0
    1.7875   -0.0167    0.0000 C   0  0  0  0  0  0  0  0  0  0  0  0
    1.0667   -0.4292    0.0000 C   0  0  0  0  0  0  0  0  0  0  0  0
    0.3542   -1.6750    0.0000 O   0  0  0  0  0  0  0  0  0  0  0  0
    3.4375    2.1833    0.0000 C   0  0  0  0  0  0  0  0  0  0  0  0
    3.8167    1.4583    0.0000 C   0  0  0  0  0  0  0  0  0  0  0  0
    2.0417    2.6208    0.0000 O   0  0  0  0  0  0  0  0  0  0  0  0
    3.3917    0.0458    0.0000 O   0  0  0  0  0  0  0  0  0  0  0  0
    3.4417   -1.9667    0.0000 O   0  0  0  0  0  0  0  0  0  0  0  0
    3.8542   -3.3250    0.0000 O   0  0  0  0  0  0  0  0  0  0  0  0
    1.0667    1.2208    0.0000 C   0  0  0  0  0  0  0  0  0  0  0  0
    0.3125   -2.8042    0.0000 C   0  0  0  0  0  0  0  0  0  0  0  0
    0.8167   -4.3750    0.0000 C   0  0  0  0  0  0  0  0  0  0  0  0
    0.3542   -0.0167    0.0000 C   0  0  0  0  0  0  0  0  0  0  0  0
    0.3542    0.8083    0.0000 C   0  0  0  0  0  0  0  0  0  0  0  0
    3.6667   -4.1125    0.0000 C   0  0  0  0  0  0  0  0  0  0  0  0
   -0.2458   -3.4167    0.0000 C   0  0  0  0  0  0  0  0  0  0  0  0
    0.0167   -4.1917    0.0000 C   0  0  0  0  0  0  0  0  0  0  0  0
    4.2667   -4.6750    0.0000 C   0  0  0  0  0  0  0  0  0  0  0  0
  2  1  2  0  0  0  0
  3  7  1  0  0  0  0
  4  1  1  0  0  0  0
  5  2  1  0  0  0  0
  6  2  1  0  0  0  0
  7 13  1  0  0  0  0
  8  5  1  0  0  0  0
  9  3  1  0  0  0  0
 10  3  1  0  0  0  0
 11  4  1  0  0  0  0
 12  1  1  0  0  0  0
 13 14  2  0  0  0  0
 14  8  1  0  0  0  0
 15  8  2  0  0  0  0
 16  9  1  0  0  0  0
 17 10  1  0  0  0  0
 18  9  2  0  0  0  0
 19 10  2  0  0  0  0
 20 12  2  0  0  0  0
 21 12  1  0  0  0  0
 22 26  1  0  0  0  0
 23  6  1  0  0  0  0
 24 11  1  0  0  0  0
 25 14  1  0  0  0  0
 26 25  2  0  0  0  0
 27 21  1  0  0  0  0
 28 23  2  0  0  0  0
 29 24  2  0  0  0  0
 30 27  1  0  0  0  0
 11  6  2  0  0  0  0
 28 29  1  0  0  0  0
  7 22  2  0  0  0  0
 16 17  1  0  0  0  0
M  END
> <IDNUMBER>
F0846-0695

> <Chemical_Name>
ethyl 3-[3-(2,5-dioxopyrrolidin-1-yl)benzamido]-1-benzofuran-2-carboxylate

> <CAS>
477501-08-9

> <PriceCoeff>
1.00

> <MW>
406.39

> <Description>
solid

> <FSP3>
0.18

> <clogP>
2.32

> <TPSA>
105.92

> <Acceptor>
6

> <Donor>
1

> <RotBonds>
6

> <HAC>
30

> <Collection>
General

$$$$
F2106-0076
  -ISIS-  06222321142D

 21 23  0  0  0  0  0  0  0  0999 V2000
    3.6792   -0.4250    0.0000 C   0  0  0  0  0  0  0  0  0  0  0  0
    2.9542   -0.8375    0.0000 C   0  0  0  0  0  0  0  0  0  0  0  0
    3.6792    0.4083    0.0000 C   0  0  0  0  0  0  0  0  0  0  0  0
    2.2375   -0.4250    0.0000 C   0  0  0  0  0  0  0  0  0  0  0  0
    2.9542    0.8333    0.0000 O   0  0  0  0  0  0  0  0  0  0  0  0
    2.2417    0.4083    0.0000 C   0  0  0  0  0  0  0  0  0  0  0  0
    4.3875   -0.8375    0.0000 C   0  0  0  0  0  0  0  0  0  0  0  0
    1.5250    0.8208    0.0000 C   0  0  0  0  0  0  0  0  0  0  0  0
    1.5250   -0.8292    0.0000 C   0  0  0  0  0  0  0  0  0  0  0  0
    4.3917    0.8208    0.0000 O   0  0  0  0  0  0  0  0  0  0  0  0
    2.9542   -1.6625    0.0000 O   0  0  0  0  0  0  0  0  0  0  0  0
    4.3792   -1.6667    0.0000 C   0  0  0  0  0  0  0  0  0  0  0  0
    5.1000   -0.4292    0.0000 C   0  0  0  0  0  0  0  0  0  0  0  0
    0.8125    0.4083    0.0000 C   0  0  0  0  0  0  0  0  0  0  0  0
    0.8125   -0.4167    0.0000 C   0  0  0  0  0  0  0  0  0  0  0  0
    5.8125   -1.6667    0.0000 C   0  0  0  0  0  0  0  0  0  0  0  0
    5.8125   -0.8417    0.0000 C   0  0  0  0  0  0  0  0  0  0  0  0
    5.0917   -2.0792    0.0000 C   0  0  0  0  0  0  0  0  0  0  0  0
    0.1000    0.8208    0.0000 O   0  0  0  0  0  0  0  0  0  0  0  0
    6.5250   -2.0792    0.0000 O   0  0  0  0  0  0  0  0  0  0  0  0
    7.2417   -1.6667    0.0000 C   0  0  0  0  0  0  0  0  0  0  0  0
  2  1  2  0  0  0  0
  3  1  1  0  0  0  0
  4  2  1  0  0  0  0
  5  3  1  0  0  0  0
  6  5  1  0  0  0  0
  7  1  1  0  0  0  0
  8  6  2  0  0  0  0
  9  4  2  0  0  0  0
 10  3  2  0  0  0  0
 11  2  1  0  0  0  0
 12  7  2  0  0  0  0
 13  7  1  0  0  0  0
 14  8  1  0  0  0  0
 15  9  1  0  0  0  0
 16 17  1  0  0  0  0
 17 13  2  0  0  0  0
 18 12  1  0  0  0  0
 19 14  1  0  0  0  0
 20 16  1  0  0  0  0
 21 20  1  0  0  0  0
 18 16  2  0  0  0  0
  6  4  1  0  0  0  0
 14 15  2  0  0  0  0
M  END
> <IDNUMBER>
F2106-0076

> <Chemical_Name>
4,7-dihydroxy-3-(4-methoxyphenyl)-2H-chromen-2-one

> <CAS>
42345-56-2

> <PriceCoeff>
1.00

> <MW>
284.26

> <Description>
solid

> <FSP3>
0.06

> <clogP>
3.05

> <TPSA>
75.99

> <Acceptor>
5

> <Donor>
2

> <RotBonds>
2

> <HAC>
21

> <Collection>
General

> <Reference_compound>
CHEMBL2227761

> <Similarity>
0.8170

$$$$
F1065-0537
  -ISIS-  06222321452D

 25 27  0  0  0  0  0  0  0  0999 V2000
   -1.9083   -0.3000    0.0000 N   0  0  3  0  0  0  0  0  0  0  0  0
   -2.3375   -1.5542    0.0000 C   0  0  0  0  0  0  0  0  0  0  0  0
   -0.5375   -0.3000    0.0000 C   0  0  0  0  0  0  0  0  0  0  0  0
   -0.1250   -1.6167    0.0000 C   0  0  3  0  0  0  0  0  0  0  0  0
   -1.2375   -2.4042    0.0000 C   0  0  0  0  0  0  0  0  0  0  0  0
    3.5167   -1.1500    0.0000 C   0  0  0  0  0  0  0  0  0  0  0  0
   -2.7500    0.7833    0.0000 C   0  0  0  0  0  0  0  0  0  0  0  0
    1.2500   -1.8792    0.0000 S   0  0  0  0  0  0  0  0  0  0  0  0
    2.1750   -0.8375    0.0000 C   0  0  0  0  0  0  0  0  0  0  0  0
    3.9500   -2.4792    0.0000 C   0  0  0  0  0  0  0  0  0  0  0  0
   -3.6625   -1.9292    0.0000 O   0  0  0  0  0  0  0  0  0  0  0  0
    0.2750    0.8458    0.0000 O   0  0  0  0  0  0  0  0  0  0  0  0
   -2.2083    2.0500    0.0000 C   0  0  0  0  0  0  0  0  0  0  0  0
    5.2792   -2.7542    0.0000 O   0  0  0  0  0  0  0  0  0  0  0  0
   -0.8375    2.2083    0.0000 S   0  0  0  0  0  0  0  0  0  0  0  0
    3.0167   -3.4875    0.0000 O   0  0  0  0  0  0  0  0  0  0  0  0
    4.4750   -0.1375    0.0000 C   0  0  0  0  0  0  0  0  0  0  0  0
   -4.1250    0.6000    0.0000 C   0  0  0  0  0  0  0  0  0  0  0  0
    1.7417    0.4625    0.0000 C   0  0  0  0  0  0  0  0  0  0  0  0
   -3.0583    3.1708    0.0000 C   0  0  0  0  0  0  0  0  0  0  0  0
   -0.2833    3.4583    0.0000 C   0  0  0  0  0  0  0  0  0  0  0  0
    4.0417    1.1625    0.0000 C   0  0  0  0  0  0  0  0  0  0  0  0
   -4.9708    1.6958    0.0000 C   0  0  0  0  0  0  0  0  0  0  0  0
    2.6917    1.4708    0.0000 C   0  0  0  0  0  0  0  0  0  0  0  0
   -4.4375    2.9833    0.0000 C   0  0  0  0  0  0  0  0  0  0  0  0
  2  1  1  0  0  0  0
  3  1  1  0  0  0  0
  4  3  1  0  0  0  0
  5  2  1  0  0  0  0
  6  9  2  0  0  0  0
  7  1  1  0  0  0  0
  8  4  1  0  0  0  0
  9  8  1  0  0  0  0
 10  6  1  0  0  0  0
 11  2  2  0  0  0  0
 12  3  2  0  0  0  0
 13  7  2  0  0  0  0
 14 10  2  0  0  0  0
 15 13  1  0  0  0  0
 16 10  1  0  0  0  0
 17  6  1  0  0  0  0
 18  7  1  0  0  0  0
 19  9  1  0  0  0  0
 20 13  1  0  0  0  0
 21 15  1  0  0  0  0
 22 24  1  0  0  0  0
 23 18  2  0  0  0  0
 24 19  2  0  0  0  0
 25 23  1  0  0  0  0
  5  4  1  0  0  0  0
 25 20  2  0  0  0  0
 22 17  2  0  0  0  0
M  END
> <IDNUMBER>
F1065-0537

> <Chemical_Name>
2-({1-[2-(methylsulfanyl)phenyl]-2,5-dioxopyrrolidin-3-yl}sulfanyl)benzoic acid

> <CAS>
303033-67-2

> <PriceCoeff>
1.00

> <MW>
373.45

> <Description>
solid

> <FSP3>
0.17

> <clogP>
2.63

> <TPSA>
125.28

> <Acceptor>
4

> <Donor>
0

> <RotBonds>
5

> <HAC>
25

> <Collection>
General

$$$$
F0817-0154
  -ISIS-  06222321142D

 25 28  0  0  0  0  0  0  0  0999 V2000
   -1.8125    0.0458    0.0000 C   0  0  0  0  0  0  0  0  0  0  0  0
    1.2542   -0.0292    0.0000 N   0  0  3  0  0  0  0  0  0  0  0  0
   -3.2125   -0.2167    0.0000 C   0  0  0  0  0  0  0  0  0  0  0  0
   -4.0958   -0.2375    0.0000 C   0  0  0  0  0  0  0  0  0  0  0  0
   -1.8958   -0.8292    0.0000 N   0  0  0  0  0  0  0  0  0  0  0  0
   -5.4583   -0.8042    0.0000 N   0  0  0  0  0  0  0  0  0  0  0  0
   -5.5333    0.0500    0.0000 C   0  0  0  0  0  0  0  0  0  0  0  0
   -2.6000    0.4125    0.0000 S   0  0  0  0  0  0  0  0  0  0  0  0
   -4.7208    0.4208    0.0000 S   0  0  0  0  0  0  0  0  0  0  0  0
   -1.0458    0.4500    0.0000 N   0  0  0  0  0  0  0  0  0  0  0  0
   -2.7625   -1.0167    0.0000 C   0  0  0  0  0  0  0  0  0  0  0  0
   -4.5458   -1.0167    0.0000 C   0  0  0  0  0  0  0  0  0  0  0  0
    1.2292   -0.9375    0.0000 C   0  0  0  0  0  0  0  0  0  0  0  0
    2.0875    0.1958    0.0000 C   0  0  0  0  0  0  0  0  0  0  0  0
   -0.2958   -0.0000    0.0000 C   0  0  0  0  0  0  0  0  0  0  0  0
    0.5000    0.4125    0.0000 C   0  0  0  0  0  0  0  0  0  0  0  0
    2.5875   -0.5292    0.0000 C   0  0  0  0  0  0  0  0  0  0  0  0
    2.0500   -1.2042    0.0000 C   0  0  0  0  0  0  0  0  0  0  0  0
   -4.1333   -1.8000    0.0000 C   0  0  0  0  0  0  0  0  0  0  0  0
   -3.2000   -1.8000    0.0000 C   0  0  0  0  0  0  0  0  0  0  0  0
    2.3792    1.0458    0.0000 O   0  0  0  0  0  0  0  0  0  0  0  0
    0.4875   -1.4667    0.0000 O   0  0  0  0  0  0  0  0  0  0  0  0
   -0.3125   -0.9042    0.0000 O   0  0  0  0  0  0  0  0  0  0  0  0
   -6.3292    0.4833    0.0000 S   0  0  0  0  0  0  0  0  0  0  0  0
   -6.3417    1.3708    0.0000 C   0  0  0  0  0  0  0  0  0  0  0  0
  2 16  1  0  0  0  0
  3  8  1  0  0  0  0
  4  3  1  0  0  0  0
  5  1  2  0  0  0  0
  6 12  1  0  0  0  0
  7  9  1  0  0  0  0
  8  1  1  0  0  0  0
  9  4  1  0  0  0  0
 10  1  1  0  0  0  0
 11  5  1  0  0  0  0
 12  4  2  0  0  0  0
 13  2  1  0  0  0  0
 14  2  1  0  0  0  0
 15 10  1  0  0  0  0
 16 15  1  0  0  0  0
 17 14  1  0  0  0  0
 18 13  1  0  0  0  0
 19 20  2  0  0  0  0
 20 11  1  0  0  0  0
 21 14  2  0  0  0  0
 22 13  2  0  0  0  0
 23 15  2  0  0  0  0
 24  7  1  0  0  0  0
 25 24  1  0  0  0  0
  3 11  2  0  0  0  0
 19 12  1  0  0  0  0
  7  6  2  0  0  0  0
 17 18  1  0  0  0  0
M  END
> <IDNUMBER>
F0817-0154

> <Chemical_Name>
2-(2,5-dioxopyrrolidin-1-yl)-N-[11-(methylsulfanyl)-3,12-dithia-5,10-diazatricyclo[7.3.0.0^{2,6}]dodeca-1(9),2(6),4,7,10-pentaen-4-yl]acetamide

> <CAS>
477503-66-5

> <PriceCoeff>
1.00

> <MW>
392.48

> <Description>
solid

> <FSP3>
0.27

> <clogP>
2.66

> <TPSA>
174.04

> <Acceptor>
5

> <Donor>
1

> <RotBonds>
4

> <HAC>
25

> <Collection>
General

$$$$
F1457-0009
  -ISIS-  06222321142D

 26 29  0  0  0  0  0  0  0  0999 V2000
    4.3792    1.0583    0.0000 N   0  0  3  0  0  0  0  0  0  0  0  0
    4.5917    3.1458    0.0000 C   0  0  0  0  0  0  0  0  0  0  0  0
    6.2917    0.2125    0.0000 C   0  0  0  0  0  0  0  0  0  0  0  0
    7.6875    1.7708    0.0000 C   0  0  3  0  0  0  0  0  0  0  0  0
    2.5875   -0.0000    0.0000 C   0  0  0  0  0  0  0  0  0  0  0  0
    6.6417    3.5833    0.0000 C   0  0  0  0  0  0  0  0  0  0  0  0
   12.7042   -0.5417    0.0000 C   0  0  0  0  0  0  0  0  0  0  0  0
    9.7667    1.5583    0.0000 S   0  0  0  0  0  0  0  0  0  0  0  0
   10.6292   -0.3417    0.0000 C   0  0  0  0  0  0  0  0  0  0  0  0
    2.5875   -2.1000    0.0000 C   0  0  0  0  0  0  0  0  0  0  0  0
   13.9167    1.1583    0.0000 C   0  0  0  0  0  0  0  0  0  0  0  0
    0.7667   -3.1417    0.0000 C   0  0  0  0  0  0  0  0  0  0  0  0
    3.0375    4.5292    0.0000 O   0  0  0  0  0  0  0  0  0  0  0  0
   -1.0375   -2.0875    0.0000 C   0  0  0  0  0  0  0  0  0  0  0  0
    0.3375   -5.1917    0.0000 O   0  0  0  0  0  0  0  0  0  0  0  0
    6.7375   -1.8375    0.0000 O   0  0  0  0  0  0  0  0  0  0  0  0
   -2.6125   -3.4917    0.0000 O   0  0  0  0  0  0  0  0  0  0  0  0
    0.7667    1.0458    0.0000 C   0  0  0  0  0  0  0  0  0  0  0  0
   -1.7583   -5.4167    0.0000 C   0  0  0  0  0  0  0  0  0  0  0  0
   13.0500    3.0583    0.0000 O   0  0  0  0  0  0  0  0  0  0  0  0
   -1.0375   -0.0000    0.0000 C   0  0  0  0  0  0  0  0  0  0  0  0
   16.0000    0.9583    0.0000 O   0  0  0  0  0  0  0  0  0  0  0  0
   13.5667   -2.4500    0.0000 C   0  0  0  0  0  0  0  0  0  0  0  0
    9.3917   -2.0375    0.0000 C   0  0  0  0  0  0  0  0  0  0  0  0
   12.3417   -4.1542    0.0000 C   0  0  0  0  0  0  0  0  0  0  0  0
   10.2542   -3.9375    0.0000 C   0  0  0  0  0  0  0  0  0  0  0  0
  2  1  1  0  0  0  0
  3  1  1  0  0  0  0
  4  3  1  0  0  0  0
  5  1  1  0  0  0  0
  6  2  1  0  0  0  0
  7  9  1  0  0  0  0
  8  4  1  0  0  0  0
  9  8  1  0  0  0  0
 10  5  1  0  0  0  0
 11  7  1  0  0  0  0
 12 10  2  0  0  0  0
 13  2  2  0  0  0  0
 14 21  2  0  0  0  0
 15 12  1  0  0  0  0
 16  3  2  0  0  0  0
 17 14  1  0  0  0  0
 18  5  2  0  0  0  0
 19 15  1  0  0  0  0
 20 11  2  0  0  0  0
 21 18  1  0  0  0  0
 22 11  1  0  0  0  0
 23  7  2  0  0  0  0
 24  9  2  0  0  0  0
 25 26  2  0  0  0  0
 26 24  1  0  0  0  0
  4  6  1  0  0  0  0
 12 14  1  0  0  0  0
 17 19  1  0  0  0  0
 23 25  1  0  0  0  0
M  END
> <IDNUMBER>
F1457-0009

> <Chemical_Name>
2-{[1-(2H-1,3-benzodioxol-5-yl)-2,5-dioxopyrrolidin-3-yl]sulfanyl}benzoic acid

> <CAS>
514182-16-2

> <PriceCoeff>
1.00

> <MW>
371.36

> <Description>
solid

> <FSP3>
0.17

> <clogP>
2.15

> <TPSA>
118.44

> <Acceptor>
6

> <Donor>
0

> <RotBonds>
4

> <HAC>
26

> <Collection>
General

$$$$
F1552-0073
  -ISIS-  06222321142D

 29 32  0  0  0  0  0  0  0  0999 V2000
    1.7667   -4.7792    0.0000 N   0  0  3  0  0  0  0  0  0  0  0  0
    1.1042   -5.2625    0.0000 C   0  0  0  0  0  0  0  0  0  0  0  0
    2.4375   -5.2625    0.0000 C   0  0  0  0  0  0  0  0  0  0  0  0
    3.6292   -8.0417    0.0000 C   0  0  0  0  0  0  0  0  0  0  0  0
    2.8125   -8.1292    0.0000 C   0  0  0  0  0  0  0  0  0  0  0  0
    2.1792   -6.0500    0.0000 C   0  0  3  0  0  0  0  0  0  0  0  0
    1.3542   -6.0500    0.0000 C   0  0  0  0  0  0  0  0  0  0  0  0
    2.6667   -6.7167    0.0000 S   0  0  0  0  0  0  0  0  0  0  0  0
    4.1167   -8.7042    0.0000 N   0  0  3  0  0  0  0  0  0  0  0  0
    2.3292   -7.4667    0.0000 C   0  0  0  0  0  0  0  0  0  0  0  0
    1.7667   -3.9542    0.0000 C   0  0  0  0  0  0  0  0  0  0  0  0
    0.3167   -5.0042    0.0000 O   0  0  0  0  0  0  0  0  0  0  0  0
    3.2250   -5.0042    0.0000 O   0  0  0  0  0  0  0  0  0  0  0  0
    3.9667   -7.2875    0.0000 O   0  0  0  0  0  0  0  0  0  0  0  0
    5.0875  -10.0417    0.0000 O   0  0  0  0  0  0  0  0  0  0  0  0
    1.0542   -3.5417    0.0000 C   0  0  0  0  0  0  0  0  0  0  0  0
    2.4792   -3.5375    0.0000 C   0  0  0  0  0  0  0  0  0  0  0  0
    2.4792   -8.8792    0.0000 C   0  0  0  0  0  0  0  0  0  0  0  0
    1.0500   -2.7167    0.0000 C   0  0  0  0  0  0  0  0  0  0  0  0
    2.4792   -2.7167    0.0000 C   0  0  0  0  0  0  0  0  0  0  0  0
    1.7667   -2.3042    0.0000 C   0  0  0  0  0  0  0  0  0  0  0  0
    3.7792   -9.4625    0.0000 C   0  0  0  0  0  0  0  0  0  0  0  0
    4.9375   -8.6167    0.0000 C   0  0  0  0  0  0  0  0  0  0  0  0
    1.5042   -7.5500    0.0000 C   0  0  0  0  0  0  0  0  0  0  0  0
    5.4250   -9.2875    0.0000 C   0  0  0  0  0  0  0  0  0  0  0  0
    4.2667  -10.1250    0.0000 C   0  0  0  0  0  0  0  0  0  0  0  0
    1.7625   -1.4792    0.0000 C   0  0  0  0  0  0  0  0  0  0  0  0
    1.6542   -8.9667    0.0000 C   0  0  0  0  0  0  0  0  0  0  0  0
    1.1667   -8.3042    0.0000 C   0  0  0  0  0  0  0  0  0  0  0  0
  2  1  1  0  0  0  0
  3  1  1  0  0  0  0
  4  5  1  0  0  0  0
  5 10  1  0  0  0  0
  6  3  1  0  0  0  0
  7  2  1  0  0  0  0
  8  6  1  0  0  0  0
  9  4  1  0  0  0  0
 10  8  1  0  0  0  0
 11  1  1  0  0  0  0
 12  2  2  0  0  0  0
 13  3  2  0  0  0  0
 14  4  2  0  0  0  0
 15 25  1  0  0  0  0
 16 11  1  0  0  0  0
 17 11  2  0  0  0  0
 18  5  2  0  0  0  0
 19 16  2  0  0  0  0
 20 17  1  0  0  0  0
 21 20  2  0  0  0  0
 22  9  1  0  0  0  0
 23  9  1  0  0  0  0
 24 10  2  0  0  0  0
 25 23  1  0  0  0  0
 26 22  1  0  0  0  0
 27 21  1  0  0  0  0
 28 29  2  0  0  0  0
 29 24  1  0  0  0  0
  7  6  1  0  0  0  0
 19 21  1  0  0  0  0
 18 28  1  0  0  0  0
 26 15  1  0  0  0  0
M  END
> <IDNUMBER>
F1552-0073

> <Chemical_Name>
1-(4-methylphenyl)-3-{[2-(morpholine-4-carbonyl)phenyl]sulfanyl}pyrrolidine-2,5-dione

> <CAS>
627482-51-3

> <PriceCoeff>
1.00

> <MW>
410.49

> <Description>
solid

> <FSP3>
0.32

> <clogP>
2.19

> <TPSA>
92.22

> <Acceptor>
4

> <Donor>
0

> <RotBonds>
5

> <HAC>
29

> <Collection>
General

$$$$
F1199-0108
  -ISIS-  06222321442D

 25 27  0  0  0  0  0  0  0  0999 V2000
    2.3792   -0.7500    0.0000 N   0  0  3  0  0  0  0  0  0  0  0  0
    3.0542   -0.2625    0.0000 C   0  0  0  0  0  0  0  0  0  0  0  0
    2.6375   -1.5417    0.0000 C   0  0  0  0  0  0  0  0  0  0  0  0
    3.4667   -1.5417    0.0000 C   0  0  3  0  0  0  0  0  0  0  0  0
    3.7250   -0.7500    0.0000 C   0  0  0  0  0  0  0  0  0  0  0  0
    1.6000   -0.4917    0.0000 C   0  0  0  0  0  0  0  0  0  0  0  0
    5.2625   -2.7917    0.0000 C   0  0  0  0  0  0  0  0  0  0  0  0
    3.9542   -2.2042    0.0000 S   0  0  0  0  0  0  0  0  0  0  0  0
    4.7792   -2.1167    0.0000 C   0  0  0  0  0  0  0  0  0  0  0  0
    4.9167   -3.5500    0.0000 C   0  0  0  0  0  0  0  0  0  0  0  0
    1.4292    0.3208    0.0000 C   0  0  0  0  0  0  0  0  0  0  0  0
    3.0542    0.5708    0.0000 O   0  0  0  0  0  0  0  0  0  0  0  0
    2.1500   -2.2042    0.0000 O   0  0  0  0  0  0  0  0  0  0  0  0
    5.4042   -4.2167    0.0000 O   0  0  0  0  0  0  0  0  0  0  0  0
    0.6417    0.5708    0.0000 C   0  0  0  0  0  0  0  0  0  0  0  0
    4.1000   -3.6292    0.0000 O   0  0  0  0  0  0  0  0  0  0  0  0
    0.9875   -1.0500    0.0000 C   0  0  0  0  0  0  0  0  0  0  0  0
    6.0875   -2.7042    0.0000 C   0  0  0  0  0  0  0  0  0  0  0  0
    0.4667    1.3833    0.0000 O   0  0  0  0  0  0  0  0  0  0  0  0
    5.1125   -1.3667    0.0000 C   0  0  0  0  0  0  0  0  0  0  0  0
    0.2000   -0.8000    0.0000 C   0  0  0  0  0  0  0  0  0  0  0  0
    0.0250    0.0208    0.0000 C   0  0  0  0  0  0  0  0  0  0  0  0
    1.0792    1.9333    0.0000 C   0  0  0  0  0  0  0  0  0  0  0  0
    6.4292   -1.9500    0.0000 C   0  0  0  0  0  0  0  0  0  0  0  0
    5.9292   -1.2792    0.0000 C   0  0  0  0  0  0  0  0  0  0  0  0
  2  1  1  0  0  0  0
  3  1  1  0  0  0  0
  4  3  1  0  0  0  0
  5  2  1  0  0  0  0
  6  1  1  0  0  0  0
  7  9  2  0  0  0  0
  8  4  1  0  0  0  0
  9  8  1  0  0  0  0
 10  7  1  0  0  0  0
 11  6  2  0  0  0  0
 12  2  2  0  0  0  0
 13  3  2  0  0  0  0
 14 10  2  0  0  0  0
 15 11  1  0  0  0  0
 16 10  1  0  0  0  0
 17  6  1  0  0  0  0
 18  7  1  0  0  0  0
 19 15  1  0  0  0  0
 20  9  1  0  0  0  0
 21 17  2  0  0  0  0
 22 21  1  0  0  0  0
 23 19  1  0  0  0  0
 24 25  1  0  0  0  0
 25 20  2  0  0  0  0
  5  4  1  0  0  0  0
 22 15  2  0  0  0  0
 24 18  2  0  0  0  0
M  END
> <IDNUMBER>
F1199-0108

> <Chemical_Name>
2-{[1-(3-methoxyphenyl)-2,5-dioxopyrrolidin-3-yl]sulfanyl}benzoic acid

> <CAS>
459421-27-3

> <PriceCoeff>
1.00

> <MW>
357.38

> <Description>
solid

> <FSP3>
0.17

> <clogP>
2.16

> <TPSA>
109.21

> <Acceptor>
5

> <Donor>
0

> <RotBonds>
5

> <HAC>
25

> <Collection>
General

$$$$
F1412-0047
  -ISIS-  06222321452D

 26 28  0  0  0  0  0  0  0  0999 V2000
    2.4125   -4.2375    0.0000 N   0  0  3  0  0  0  0  0  0  0  0  0
    2.0292   -1.7875    0.0000 C   0  0  0  0  0  0  0  0  0  0  0  0
    4.8750   -4.6542    0.0000 C   0  0  0  0  0  0  0  0  0  0  0  0
    6.0167   -2.4250    0.0000 C   0  0  3  0  0  0  0  0  0  0  0  0
    4.2792   -0.6667    0.0000 C   0  0  0  0  0  0  0  0  0  0  0  0
   12.5792   -3.5542    0.0000 C   0  0  0  0  0  0  0  0  0  0  0  0
    8.5042   -2.0167    0.0000 S   0  0  0  0  0  0  0  0  0  0  0  0
   10.0917   -3.9542    0.0000 C   0  0  0  0  0  0  0  0  0  0  0  0
   13.4917   -1.1792    0.0000 C   0  0  0  0  0  0  0  0  0  0  0  0
    0.5292   -5.9542    0.0000 C   0  0  0  0  0  0  0  0  0  0  0  0
   -0.2333   -0.6167    0.0000 O   0  0  0  0  0  0  0  0  0  0  0  0
    6.0042   -6.9292    0.0000 O   0  0  0  0  0  0  0  0  0  0  0  0
   -3.8250   -8.4792    0.0000 C   0  0  0  0  0  0  0  0  0  0  0  0
   -6.0167   -9.7625    0.0000 C   0  0  0  0  0  0  0  0  0  0  0  0
   11.9292    0.7750    0.0000 O   0  0  0  0  0  0  0  0  0  0  0  0
    0.5292   -8.4792    0.0000 C   0  0  0  0  0  0  0  0  0  0  0  0
   -1.6458   -4.6917    0.0000 C   0  0  0  0  0  0  0  0  0  0  0  0
   -6.0042  -12.2792    0.0000 O   0  0  0  0  0  0  0  0  0  0  0  0
   -1.6458   -9.7375    0.0000 C   0  0  0  0  0  0  0  0  0  0  0  0
   -3.8250   -5.9542    0.0000 C   0  0  0  0  0  0  0  0  0  0  0  0
   16.0000   -0.7792    0.0000 O   0  0  0  0  0  0  0  0  0  0  0  0
   14.1667   -5.4917    0.0000 C   0  0  0  0  0  0  0  0  0  0  0  0
    9.1917   -6.3042    0.0000 C   0  0  0  0  0  0  0  0  0  0  0  0
   -8.2125   -8.5042    0.0000 C   0  0  0  0  0  0  0  0  0  0  0  0
   13.2792   -7.8542    0.0000 C   0  0  0  0  0  0  0  0  0  0  0  0
   10.7917   -8.2625    0.0000 C   0  0  0  0  0  0  0  0  0  0  0  0
  2  1  1  0  0  0  0
  3  1  1  0  0  0  0
  4  3  1  0  0  0  0
  5  2  1  0  0  0  0
  6  8  1  0  0  0  0
  7  4  1  0  0  0  0
  8  7  1  0  0  0  0
  9  6  1  0  0  0  0
 10  1  1  0  0  0  0
 11  2  2  0  0  0  0
 12  3  2  0  0  0  0
 13 20  2  0  0  0  0
 14 13  1  0  0  0  0
 15  9  2  0  0  0  0
 16 10  1  0  0  0  0
 17 10  2  0  0  0  0
 18 14  2  0  0  0  0
 19 16  2  0  0  0  0
 20 17  1  0  0  0  0
 21  9  1  0  0  0  0
 22  6  2  0  0  0  0
 23  8  2  0  0  0  0
 24 14  1  0  0  0  0
 25 26  2  0  0  0  0
 26 23  1  0  0  0  0
  5  4  1  0  0  0  0
 13 19  1  0  0  0  0
 25 22  1  0  0  0  0
M  END
> <IDNUMBER>
F1412-0047

> <Chemical_Name>
2-{[1-(4-acetylphenyl)-2,5-dioxopyrrolidin-3-yl]sulfanyl}benzoic acid

> <CAS>
496779-16-9

> <PriceCoeff>
1.00

> <MW>
369.39

> <Description>
solid

> <FSP3>
0.16

> <clogP>
2.02

> <TPSA>
117.05

> <Acceptor>
5

> <Donor>
0

> <RotBonds>
5

> <HAC>
26

> <Collection>
General

$$$$
F0466-0022
  -ISIS-  06222321142D

 33 37  0  0  0  0  0  0  0  0999 V2000
   -1.7458   -0.0292    0.0000 C   0  0  0  0  0  0  0  0  0  0  0  0
   -2.3458   -1.6500    0.0000 N   0  0  3  0  0  0  0  0  0  0  0  0
   -2.6208   -0.3500    0.0000 C   0  0  0  0  0  0  0  0  0  0  0  0
   -2.6458    0.2208    0.0000 C   0  0  0  0  0  0  0  0  0  0  0  0
   -2.0625   -0.5042    0.0000 N   0  0  0  0  0  0  0  0  0  0  0  0
   -2.1000    0.4208    0.0000 S   0  0  0  0  0  0  0  0  0  0  0  0
   -1.1625    0.0625    0.0000 N   0  0  0  0  0  0  0  0  0  0  0  0
   -1.7625   -1.5667    0.0000 C   0  0  0  0  0  0  0  0  0  0  0  0
   -0.7833   -0.3667    0.0000 C   0  0  0  0  0  0  0  0  0  0  0  0
   -2.5625   -2.2000    0.0000 C   0  0  0  0  0  0  0  0  0  0  0  0
   -2.7833   -1.2667    0.0000 C   0  0  0  0  0  0  0  0  0  0  0  0
   -1.5625   -1.0292    0.0000 C   0  0  0  0  0  0  0  0  0  0  0  0
   -0.9833   -0.9292    0.0000 C   0  0  0  0  0  0  0  0  0  0  0  0
   -3.1208   -0.6500    0.0000 C   0  0  0  0  0  0  0  0  0  0  0  0
   -3.1625    0.5000    0.0000 C   0  0  0  0  0  0  0  0  0  0  0  0
   -0.2208   -0.2667    0.0000 O   0  0  0  0  0  0  0  0  0  0  0  0
   -3.2625   -1.6000    0.0000 C   0  0  0  0  0  0  0  0  0  0  0  0
   -3.1625   -2.1500    0.0000 C   0  0  0  0  0  0  0  0  0  0  0  0
   -2.2625   -2.7042    0.0000 O   0  0  0  0  0  0  0  0  0  0  0  0
   -2.7833   -0.7000    0.0000 O   0  0  0  0  0  0  0  0  0  0  0  0
   -1.4000   -2.0292    0.0000 C   0  0  0  0  0  0  0  0  0  0  0  0
   -0.6000   -1.4000    0.0000 C   0  0  0  0  0  0  0  0  0  0  0  0
   -0.8458   -1.9500    0.0000 C   0  0  0  0  0  0  0  0  0  0  0  0
   -3.1208   -1.2292    0.0000 C   0  0  0  0  0  0  0  0  0  0  0  0
   -3.6625    0.2000    0.0000 C   0  0  0  0  0  0  0  0  0  0  0  0
   -3.6458   -0.3667    0.0000 C   0  0  0  0  0  0  0  0  0  0  0  0
   -3.1833    1.1000    0.0000 C   0  0  0  0  0  0  0  0  0  0  0  0
   -4.1458   -0.6667    0.0000 C   0  0  0  0  0  0  0  0  0  0  0  0
   -3.6458   -1.5292    0.0000 C   0  0  0  0  0  0  0  0  0  0  0  0
   -4.1833    0.4833    0.0000 C   0  0  0  0  0  0  0  0  0  0  0  0
   -3.7000    1.3833    0.0000 C   0  0  0  0  0  0  0  0  0  0  0  0
   -4.1208   -1.2500    0.0000 C   0  0  0  0  0  0  0  0  0  0  0  0
   -4.2083    1.0625    0.0000 C   0  0  0  0  0  0  0  0  0  0  0  0
  2  8  1  0  0  0  0
  3  5  1  0  0  0  0
  4  6  1  0  0  0  0
  5  1  2  0  0  0  0
  6  1  1  0  0  0  0
  7  1  1  0  0  0  0
  8 12  2  0  0  0  0
  9  7  1  0  0  0  0
 10  2  1  0  0  0  0
 11  2  1  0  0  0  0
 12 13  1  0  0  0  0
 13  9  1  0  0  0  0
 14  3  1  0  0  0  0
 15  4  1  0  0  0  0
 16  9  2  0  0  0  0
 17 11  1  0  0  0  0
 18 10  1  0  0  0  0
 19 10  2  0  0  0  0
 20 11  2  0  0  0  0
 21 23  2  0  0  0  0
 22 13  2  0  0  0  0
 23 22  1  0  0  0  0
 24 14  1  0  0  0  0
 25 15  1  0  0  0  0
 26 14  2  0  0  0  0
 27 15  2  0  0  0  0
 28 26  1  0  0  0  0
 29 24  2  0  0  0  0
 30 25  2  0  0  0  0
 31 27  1  0  0  0  0
 32 28  2  0  0  0  0
 33 31  2  0  0  0  0
  4  3  2  0  0  0  0
  8 21  1  0  0  0  0
 30 33  1  0  0  0  0
 32 29  1  0  0  0  0
 17 18  1  0  0  0  0
M  END
> <IDNUMBER>
F0466-0022

> <Chemical_Name>
3-(2,5-dioxopyrrolidin-1-yl)-N-(4,5-diphenyl-1,3-thiazol-2-yl)benzamide

> <CAS>
476321-68-3

> <PriceCoeff>
1.00

> <MW>
453.51

> <Description>
solid

> <FSP3>
0.08

> <clogP>
3.62

> <TPSA>
107.61

> <Acceptor>
4

> <Donor>
1

> <RotBonds>
5

> <HAC>
33

> <Collection>
General

$$$$
F1799-0447
  -ISIS-  06222321142D

 25 27  0  0  0  0  0  0  0  0999 V2000
    2.1292   -1.0292    0.0000 N   0  0  3  0  0  0  0  0  0  0  0  0
    1.9000   -1.7500    0.0000 C   0  0  0  0  0  0  0  0  0  0  0  0
    1.5250   -0.5917    0.0000 C   0  0  0  0  0  0  0  0  0  0  0  0
    0.9167   -1.0292    0.0000 C   0  0  3  0  0  0  0  0  0  0  0  0
    1.1500   -1.7500    0.0000 C   0  0  0  0  0  0  0  0  0  0  0  0
   -0.6708    0.1625    0.0000 C   0  0  0  0  0  0  0  0  0  0  0  0
    0.2042   -0.8042    0.0000 N   0  0  0  0  0  0  0  0  0  0  0  0
    0.0417   -0.0667    0.0000 N   0  0  0  0  0  0  0  0  0  0  0  0
    2.8417   -0.8042    0.0000 C   0  0  0  0  0  0  0  0  0  0  0  0
   -0.8208    0.8958    0.0000 C   0  0  0  0  0  0  0  0  0  0  0  0
    2.3375   -2.3542    0.0000 O   0  0  0  0  0  0  0  0  0  0  0  0
    1.5167    0.1583    0.0000 O   0  0  0  0  0  0  0  0  0  0  0  0
   -1.2250   -0.3375    0.0000 O   0  0  0  0  0  0  0  0  0  0  0  0
   -1.5375    1.1333    0.0000 C   0  0  0  0  0  0  0  0  0  0  0  0
    3.4000   -1.3042    0.0000 C   0  0  0  0  0  0  0  0  0  0  0  0
    3.0000   -0.0667    0.0000 C   0  0  0  0  0  0  0  0  0  0  0  0
    4.2667   -0.3375    0.0000 C   0  0  0  0  0  0  0  0  0  0  0  0
    3.7125    0.1625    0.0000 C   0  0  0  0  0  0  0  0  0  0  0  0
    4.1125   -1.0750    0.0000 C   0  0  0  0  0  0  0  0  0  0  0  0
    4.9792   -0.1042    0.0000 Br  0  0  0  0  0  0  0  0  0  0  0  0
   -0.2708    1.3958    0.0000 C   0  0  0  0  0  0  0  0  0  0  0  0
   -2.0958    0.6250    0.0000 C   0  0  0  0  0  0  0  0  0  0  0  0
   -1.6958    1.8625    0.0000 C   0  0  0  0  0  0  0  0  0  0  0  0
   -0.4208    2.1333    0.0000 C   0  0  0  0  0  0  0  0  0  0  0  0
   -1.1333    2.3625    0.0000 C   0  0  0  0  0  0  0  0  0  0  0  0
  2  1  1  0  0  0  0
  3  1  1  0  0  0  0
  4  3  1  0  0  0  0
  5  2  1  0  0  0  0
  6  8  1  0  0  0  0
  7  4  1  0  0  0  0
  8  7  1  0  0  0  0
  9  1  1  0  0  0  0
 10  6  1  0  0  0  0
 11  2  2  0  0  0  0
 12  3  2  0  0  0  0
 13  6  2  0  0  0  0
 14 10  2  0  0  0  0
 15  9  1  0  0  0  0
 16  9  2  0  0  0  0
 17 18  2  0  0  0  0
 18 16  1  0  0  0  0
 19 15  2  0  0  0  0
 20 17  1  0  0  0  0
 21 10  1  0  0  0  0
 22 14  1  0  0  0  0
 23 14  1  0  0  0  0
 24 21  2  0  0  0  0
 25 24  1  0  0  0  0
  5  4  1  0  0  0  0
 17 19  1  0  0  0  0
 23 25  2  0  0  0  0
M  END
> <IDNUMBER>
F1799-0447

> <Chemical_Name>
N'-[1-(4-bromophenyl)-2,5-dioxopyrrolidin-3-yl]-2-methylbenzohydrazide

> <CAS>
485394-63-6

> <PriceCoeff>
1.00

> <MW>
402.24

> <Description>
solid

> <FSP3>
0.17

> <clogP>
3.13

> <TPSA>
78.51

> <Acceptor>
3

> <Donor>
2

> <RotBonds>
4

> <HAC>
25

> <Collection>
General

$$$$
F1065-0405
  -ISIS-  06222321142D

 29 32  0  0  0  0  0  0  0  0999 V2000
    0.3500    0.8458    0.0000 N   0  0  3  0  0  0  0  0  0  0  0  0
    1.1500    1.4125    0.0000 C   0  0  0  0  0  0  0  0  0  0  0  0
    0.6542   -0.1042    0.0000 C   0  0  0  0  0  0  0  0  0  0  0  0
    1.6500   -0.1042    0.0000 C   0  0  3  0  0  0  0  0  0  0  0  0
    1.9542    0.8458    0.0000 C   0  0  0  0  0  0  0  0  0  0  0  0
    3.7792   -1.6792    0.0000 C   0  0  0  0  0  0  0  0  0  0  0  0
    2.2167   -0.9500    0.0000 S   0  0  0  0  0  0  0  0  0  0  0  0
    3.2000   -0.8500    0.0000 C   0  0  0  0  0  0  0  0  0  0  0  0
    3.3542   -2.5792    0.0000 C   0  0  0  0  0  0  0  0  0  0  0  0
   -3.3708    2.2333    0.0000 N   0  0  3  0  0  0  0  0  0  0  0  0
   -0.5708    1.1833    0.0000 C   0  0  0  0  0  0  0  0  0  0  0  0
   -2.4458    1.8833    0.0000 C   0  0  0  0  0  0  0  0  0  0  0  0
    1.1500    2.4125    0.0000 O   0  0  0  0  0  0  0  0  0  0  0  0
    0.1000   -0.9500    0.0000 O   0  0  0  0  0  0  0  0  0  0  0  0
    3.9000   -3.4042    0.0000 O   0  0  0  0  0  0  0  0  0  0  0  0
   -0.7458    2.1708    0.0000 C   0  0  0  0  0  0  0  0  0  0  0  0
   -1.3333    0.5333    0.0000 C   0  0  0  0  0  0  0  0  0  0  0  0
   -1.6833    2.5208    0.0000 C   0  0  0  0  0  0  0  0  0  0  0  0
   -2.2833    0.9000    0.0000 C   0  0  0  0  0  0  0  0  0  0  0  0
    2.3667   -2.7000    0.0000 O   0  0  0  0  0  0  0  0  0  0  0  0
    4.8000   -1.5792    0.0000 C   0  0  0  0  0  0  0  0  0  0  0  0
   -3.5333    3.2208    0.0000 C   0  0  0  0  0  0  0  0  0  0  0  0
   -4.1458    1.6000    0.0000 C   0  0  0  0  0  0  0  0  0  0  0  0
    3.6500    0.0500    0.0000 C   0  0  0  0  0  0  0  0  0  0  0  0
    5.2000   -0.7000    0.0000 C   0  0  0  0  0  0  0  0  0  0  0  0
   -4.4708    3.5708    0.0000 C   0  0  0  0  0  0  0  0  0  0  0  0
   -5.0708    1.9583    0.0000 C   0  0  0  0  0  0  0  0  0  0  0  0
    4.6167    0.1333    0.0000 C   0  0  0  0  0  0  0  0  0  0  0  0
   -5.2333    2.9333    0.0000 C   0  0  0  0  0  0  0  0  0  0  0  0
  2  1  1  0  0  0  0
  3  1  1  0  0  0  0
  4  3  1  0  0  0  0
  5  2  1  0  0  0  0
  6  8  2  0  0  0  0
  7  4  1  0  0  0  0
  8  7  1  0  0  0  0
  9  6  1  0  0  0  0
 10 12  1  0  0  0  0
 11  1  1  0  0  0  0
 12 19  1  0  0  0  0
 13  2  2  0  0  0  0
 14  3  2  0  0  0  0
 15  9  2  0  0  0  0
 16 11  2  0  0  0  0
 17 11  1  0  0  0  0
 18 16  1  0  0  0  0
 19 17  2  0  0  0  0
 20  9  1  0  0  0  0
 21  6  1  0  0  0  0
 22 10  1  0  0  0  0
 23 10  1  0  0  0  0
 24  8  1  0  0  0  0
 25 28  1  0  0  0  0
 26 22  1  0  0  0  0
 27 23  1  0  0  0  0
 28 24  2  0  0  0  0
 29 27  1  0  0  0  0
  4  5  1  0  0  0  0
 18 12  2  0  0  0  0
 21 25  2  0  0  0  0
 26 29  1  0  0  0  0
M  END
> <IDNUMBER>
F1065-0405

> <Chemical_Name>
2-({2,5-dioxo-1-[4-(piperidin-1-yl)phenyl]pyrrolidin-3-yl}sulfanyl)benzoic acid

> <CAS>
305373-00-6

> <PriceCoeff>
1.00

> <MW>
410.49

> <Description>
solid

> <FSP3>
0.32

> <clogP>
2.91

> <TPSA>
103.22

> <Acceptor>
5

> <Donor>
1

> <RotBonds>
5

> <HAC>
29

> <Collection>
General

$$$$
F1593-0033
  -ISIS-  06222321142D

 25 27  0  0  0  0  0  0  0  0999 V2000
   11.5875   -6.0375    0.0000 C   0  0  0  0  0  0  0  0  0  0  0  0
   11.6042   -8.6042    0.0000 N   0  3  0  0  0  0  0  0  0  0  0  0
   -1.7958   -0.9292    0.0000 N   0  0  0  0  0  0  0  0  0  0  0  0
    0.4375   -2.2250    0.0000 C   0  0  0  0  0  0  0  0  0  0  0  0
   -1.7958   -6.0792    0.0000 S   0  0  0  0  0  0  0  0  0  0  0  0
    0.4375   -4.8042    0.0000 C   0  0  3  0  0  0  0  0  0  0  0  0
    9.3500   -4.7542    0.0000 C   0  0  0  0  0  0  0  0  0  0  0  0
    2.6542   -6.1000    0.0000 C   0  0  0  0  0  0  0  0  0  0  0  0
    4.8792   -4.7917    0.0000 C   0  0  0  0  0  0  0  0  0  0  0  0
    7.1250   -6.0667    0.0000 N   0  0  0  0  0  0  0  0  0  0  0  0
   -4.0083   -2.2292    0.0000 C   0  0  0  0  0  0  0  0  0  0  0  0
   -4.0208   -4.8042    0.0000 C   0  0  0  0  0  0  0  0  0  0  0  0
   13.8125   -4.7250    0.0000 C   0  0  0  0  0  0  0  0  0  0  0  0
    9.3917   -9.9000    0.0000 O   0  5  0  0  0  0  0  0  0  0  0  0
   13.8375   -9.8667    0.0000 O   0  0  0  0  0  0  0  0  0  0  0  0
    2.6542   -0.9500    0.0000 O   0  0  0  0  0  0  0  0  0  0  0  0
    4.8625   -2.2125    0.0000 O   0  0  0  0  0  0  0  0  0  0  0  0
    9.3125   -2.1875    0.0000 C   0  0  0  0  0  0  0  0  0  0  0  0
   13.7917   -2.1417    0.0000 C   0  0  0  0  0  0  0  0  0  0  0  0
   11.5250   -0.8667    0.0000 C   0  0  0  0  0  0  0  0  0  0  0  0
   16.0000   -0.8375    0.0000 Cl  0  0  0  0  0  0  0  0  0  0  0  0
   -6.2167   -0.9500    0.0000 C   0  0  0  0  0  0  0  0  0  0  0  0
   -6.2292   -6.0875    0.0000 C   0  0  0  0  0  0  0  0  0  0  0  0
   -8.4542   -2.2250    0.0000 C   0  0  0  0  0  0  0  0  0  0  0  0
   -8.4542   -4.8042    0.0000 C   0  0  0  0  0  0  0  0  0  0  0  0
  2  1  1  0  0  0  0
  3  4  1  0  0  0  0
  4  6  1  0  0  0  0
  5  6  1  0  0  0  0
  6  8  1  0  0  0  0
  7  1  2  0  0  0  0
  8  9  1  0  0  0  0
  9 10  1  0  0  0  0
 10  7  1  0  0  0  0
 11 12  2  0  0  0  0
 12  5  1  0  0  0  0
 13  1  1  0  0  0  0
 14  2  1  0  0  0  0
 15  2  2  0  0  0  0
 16  4  2  0  0  0  0
 17  9  2  0  0  0  0
 18  7  1  0  0  0  0
 19 13  2  0  0  0  0
 20 19  1  0  0  0  0
 21 19  1  0  0  0  0
 22 11  1  0  0  0  0
 23 12  1  0  0  0  0
 24 25  1  0  0  0  0
 25 23  2  0  0  0  0
 18 20  2  0  0  0  0
 11  3  1  0  0  0  0
 22 24  2  0  0  0  0
M  CHG  2   2   1  14  -1
M  END
> <IDNUMBER>
F1593-0033

> <Chemical_Name>
N-(4-chloro-2-nitrophenyl)-2-(3-oxo-3,4-dihydro-2H-1,4-benzothiazin-2-yl)acetamide

> <CAS>
713099-77-5

> <PriceCoeff>
1.00

> <MW>
377.80

> <Description>
solid

> <FSP3>
0.12

> <clogP>
2.89

> <TPSA>
126.64

> <Acceptor>
4

> <Donor>
2

> <RotBonds>
4

> <HAC>
25

> <Collection>
General

$$$$
F2106-0049
  -ISIS-  06222321142D

 19 21  0  0  0  0  0  0  0  0999 V2000
    4.1375   -2.8625    0.0000 C   0  0  0  0  0  0  0  0  0  0  0  0
    3.4167   -3.2750    0.0000 C   0  0  0  0  0  0  0  0  0  0  0  0
    4.1375   -2.0292    0.0000 C   0  0  0  0  0  0  0  0  0  0  0  0
    2.7042   -2.8542    0.0000 C   0  0  0  0  0  0  0  0  0  0  0  0
    3.4167   -1.6167    0.0000 O   0  0  0  0  0  0  0  0  0  0  0  0
    2.7042   -2.0292    0.0000 C   0  0  0  0  0  0  0  0  0  0  0  0
    1.9917   -1.6167    0.0000 C   0  0  0  0  0  0  0  0  0  0  0  0
    1.9917   -3.2750    0.0000 C   0  0  0  0  0  0  0  0  0  0  0  0
    4.8500   -3.2750    0.0000 C   0  0  0  0  0  0  0  0  0  0  0  0
    4.8542   -1.6250    0.0000 O   0  0  0  0  0  0  0  0  0  0  0  0
    3.4167   -4.1000    0.0000 O   0  0  0  0  0  0  0  0  0  0  0  0
    1.2792   -2.0375    0.0000 C   0  0  0  0  0  0  0  0  0  0  0  0
    1.2792   -2.8625    0.0000 C   0  0  0  0  0  0  0  0  0  0  0  0
    0.5667   -1.6167    0.0000 O   0  0  0  0  0  0  0  0  0  0  0  0
    5.5625   -2.8625    0.0000 C   0  0  0  0  0  0  0  0  0  0  0  0
    4.8417   -4.1000    0.0000 C   0  0  0  0  0  0  0  0  0  0  0  0
    5.5542   -4.5042    0.0000 C   0  0  0  0  0  0  0  0  0  0  0  0
    6.2750   -3.2750    0.0000 C   0  0  0  0  0  0  0  0  0  0  0  0
    6.2750   -4.1042    0.0000 C   0  0  0  0  0  0  0  0  0  0  0  0
  2  1  2  0  0  0  0
  3  1  1  0  0  0  0
  4  2  1  0  0  0  0
  5  3  1  0  0  0  0
  6  5  1  0  0  0  0
  7  6  2  0  0  0  0
  8  4  2  0  0  0  0
  9  1  1  0  0  0  0
 10  3  2  0  0  0  0
 11  2  1  0  0  0  0
 12  7  1  0  0  0  0
 13  8  1  0  0  0  0
 14 12  1  0  0  0  0
 15  9  1  0  0  0  0
 16  9  2  0  0  0  0
 17 16  1  0  0  0  0
 18 15  2  0  0  0  0
 19 17  2  0  0  0  0
  6  4  1  0  0  0  0
 18 19  1  0  0  0  0
 12 13  2  0  0  0  0
M  END
> <IDNUMBER>
F2106-0049

> <Chemical_Name>
4,7-dihydroxy-3-phenyl-2H-chromen-2-one

> <CAS>
19225-17-3

> <PriceCoeff>
1.00

> <MW>
254.24

> <Description>
solid

> <FSP3>
0.00

> <clogP>
3.13

> <TPSA>
66.76

> <Acceptor>
4

> <Donor>
2

> <RotBonds>
1

> <HAC>
19

> <Collection>
General

> <Reference_compound>
CHEMBL1603825

> <Similarity>
0.8030

$$$$
F0336-0491
  -ISIS-  06222321442D

 24 25  0  0  0  0  0  0  0  0999 V2000
    3.0667    0.3333    0.0000 N   0  3  0  0  0  0  0  0  0  0  0  0
    2.6292   -0.3042    0.0000 C   0  0  0  0  0  0  0  0  0  0  0  0
   -0.5625    0.1833    0.0000 C   0  0  0  0  0  0  0  0  0  0  0  0
    0.2000    0.0833    0.0000 N   0  0  0  0  0  0  0  0  0  0  0  0
   -1.1458   -0.3167    0.0000 N   0  0  0  0  0  0  0  0  0  0  0  0
    0.5000   -0.6375    0.0000 C   0  0  0  0  0  0  0  0  0  0  0  0
   -1.8000    0.1000    0.0000 C   0  0  0  0  0  0  0  0  0  0  0  0
    1.8875   -0.2042    0.0000 C   0  0  0  0  0  0  0  0  0  0  0  0
   -0.8625    0.8833    0.0000 S   0  0  0  0  0  0  0  0  0  0  0  0
    1.4167   -0.8000    0.0000 C   0  0  0  0  0  0  0  0  0  0  0  0
   -2.5208   -0.1542    0.0000 C   0  0  0  0  0  0  0  0  0  0  0  0
   -1.6208    0.8208    0.0000 C   0  0  0  0  0  0  0  0  0  0  0  0
    2.9375   -1.0292    0.0000 C   0  0  0  0  0  0  0  0  0  0  0  0
   -2.6625   -0.9375    0.0000 C   0  0  0  0  0  0  0  0  0  0  0  0
    3.8292    0.3333    0.0000 O   0  5  0  0  0  0  0  0  0  0  0  0
    2.8042    1.0333    0.0000 O   0  0  0  0  0  0  0  0  0  0  0  0
    0.0375   -1.2542    0.0000 O   0  0  0  0  0  0  0  0  0  0  0  0
    1.6667   -1.5000    0.0000 C   0  0  0  0  0  0  0  0  0  0  0  0
   -2.0833   -1.4375    0.0000 O   0  0  0  0  0  0  0  0  0  0  0  0
    2.4292   -1.6375    0.0000 C   0  0  0  0  0  0  0  0  0  0  0  0
    3.7000   -1.1042    0.0000 Cl  0  0  0  0  0  0  0  0  0  0  0  0
   -3.3833   -1.1792    0.0000 O   0  0  0  0  0  0  0  0  0  0  0  0
   -3.5458   -1.9375    0.0000 C   0  0  0  0  0  0  0  0  0  0  0  0
   -4.2458   -2.1792    0.0000 C   0  0  0  0  0  0  0  0  0  0  0  0
  2  1  1  0  0  0  0
  3  4  1  0  0  0  0
  4  6  1  0  0  0  0
  5  3  2  0  0  0  0
  6 10  1  0  0  0  0
  7  5  1  0  0  0  0
  8  2  2  0  0  0  0
  9  3  1  0  0  0  0
 10  8  1  0  0  0  0
 11  7  1  0  0  0  0
 12  9  1  0  0  0  0
 13  2  1  0  0  0  0
 14 11  1  0  0  0  0
 15  1  1  0  0  0  0
 16  1  2  0  0  0  0
 17  6  2  0  0  0  0
 18 20  1  0  0  0  0
 19 14  2  0  0  0  0
 20 13  2  0  0  0  0
 21 13  1  0  0  0  0
 22 14  1  0  0  0  0
 23 22  1  0  0  0  0
 24 23  1  0  0  0  0
 10 18  2  0  0  0  0
  7 12  2  0  0  0  0
M  CHG  2   1   1  15  -1
M  END
> <IDNUMBER>
F0336-0491

> <Chemical_Name>
ethyl 2-[2-(4-chloro-3-nitrobenzamido)-1,3-thiazol-4-yl]acetate

> <CAS>
301682-00-8

> <PriceCoeff>
1.00

> <MW>
369.78

> <Description>
solid

> <FSP3>
0.21

> <clogP>
2.52

> <TPSA>
139.67

> <Acceptor>
6

> <Donor>
1

> <RotBonds>
7

> <HAC>
24

> <Collection>
General

$$$$
F0013-0791
  -ISIS-  06222304342D

 30 33  0  0  0  0  0  0  0  0999 V2000
    5.4167    0.4125    0.0000 N   0  3  0  0  0  0  0  0  0  0  0  0
    4.8542   -0.1917    0.0000 C   0  0  0  0  0  0  0  0  0  0  0  0
    5.1000   -0.9917    0.0000 N   0  0  3  0  0  0  0  0  0  0  0  0
    5.8917   -1.1792    0.0000 C   0  0  0  0  0  0  0  0  0  0  0  0
    6.4750   -0.5542    0.0000 C   0  0  0  0  0  0  0  0  0  0  0  0
    6.2125    0.2250    0.0000 C   0  0  0  0  0  0  0  0  0  0  0  0
    4.9917    1.1125    0.0000 C   0  0  0  0  0  0  0  0  0  0  0  0
    4.1125    0.1375    0.0000 C   0  0  0  0  0  0  0  0  0  0  0  0
    4.1792    0.9333    0.0000 C   0  0  0  0  0  0  0  0  0  0  0  0
    6.1417   -2.0042    0.0000 O   0  0  0  0  0  0  0  0  0  0  0  0
    4.5500   -1.6000    0.0000 C   0  0  0  0  0  0  0  0  0  0  0  0
    7.2667   -0.7500    0.0000 C   0  0  0  0  0  0  0  0  0  0  0  0
    6.7875    0.8458    0.0000 C   0  0  0  0  0  0  0  0  0  0  0  0
    3.3667   -0.2292    0.0000 C   0  0  0  0  0  0  0  0  0  0  0  0
    3.5042    1.4083    0.0000 C   0  0  0  0  0  0  0  0  0  0  0  0
    7.8292   -0.1417    0.0000 C   0  0  0  0  0  0  0  0  0  0  0  0
    7.5875    0.6583    0.0000 C   0  0  0  0  0  0  0  0  0  0  0  0
    2.6667    0.2375    0.0000 C   0  0  0  0  0  0  0  0  0  0  0  0
    2.7375    1.0375    0.0000 C   0  0  0  0  0  0  0  0  0  0  0  0
   10.6048    0.6234    0.0000 S   0  0  3  0  0  0  0  0  0  0  0  0
   10.2704   -0.1289    0.0000 C   0  0  0  0  0  0  0  0  0  0  0  0
   11.3572    0.2890    0.0000 O   0  5  0  0  0  0  0  0  0  0  0  0
   10.9368    1.3791    0.0000 O   0  0  0  0  0  0  0  0  0  0  0  0
    9.8501    0.9612    0.0000 O   0  0  0  0  0  0  0  0  0  0  0  0
   10.7598   -0.8034    0.0000 C   0  0  0  0  0  0  0  0  0  0  0  0
    9.4515   -0.2135    0.0000 C   0  0  0  0  0  0  0  0  0  0  0  0
   10.4254   -1.5557    0.0000 C   0  0  0  0  0  0  0  0  0  0  0  0
    9.1219   -0.9725    0.0000 C   0  0  0  0  0  0  0  0  0  0  0  0
    9.6065   -1.6402    0.0000 C   0  0  0  0  0  0  0  0  0  0  0  0
    9.2687   -2.3950    0.0000 C   0  0  0  0  0  0  0  0  0  0  0  0
 13  6  2  0  0  0  0
 14  8  1  0  0  0  0
 15  9  1  0  0  0  0
 16 17  2  0  0  0  0
 17 13  1  0  0  0  0
 18 14  2  0  0  0  0
 19 15  2  0  0  0  0
  8  9  2  0  0  0  0
  3  4  1  0  0  0  0
 18 19  1  0  0  0  0
 16 12  1  0  0  0  0
  2  1  2  0  0  0  0
  3  2  1  0  0  0  0
  4  5  1  0  0  0  0
  5  6  1  0  0  0  0
  6  1  1  0  0  0  0
  7  1  1  0  0  0  0
  8  2  1  0  0  0  0
  9  7  1  0  0  0  0
 10  4  2  0  0  0  0
 11  3  1  0  0  0  0
 12  5  2  0  0  0  0
 21 20  1  0  0  0  0
 22 20  1  0  0  0  0
 23 20  2  0  0  0  0
 24 20  2  0  0  0  0
 25 21  1  0  0  0  0
 26 21  2  0  0  0  0
 27 25  2  0  0  0  0
 28 26  1  0  0  0  0
 29 28  2  0  0  0  0
 30 29  1  0  0  0  0
 29 27  1  0  0  0  0
M  CHG  2   1   1  22  -1
M  END
> <IDNUMBER>
F0013-0791

> <Chemical_Name>
6-methyl-5-oxo-5H,6H,11H-12lambda5-isoindolo[2,1-a]quinazolin-12-ylium 4-methylbenzene-1-sulfonate

> <CAS>
1058702-31-0

> <PriceCoeff>
1.00

> <MW>
249.29

> <Description>
solid

> <FSP3>
0.12

> <clogP>
-2.41

> <TPSA>
23.32

> <Acceptor>
1

> <Donor>
0

> <RotBonds>
0

> <HAC>
19

> <Collection>
General

> <Reference_compound>
PRI5741

> <Similarity>
0.8100

$$$$
F1916-0163
  -ISIS-  06222321142D

 19 20  0  0  0  0  0  0  0  0999 V2000
   -0.7458   -3.8667    0.0000 S   0  0  3  0  0  0  0  0  0  0  0  0
   -1.5708   -3.8667    0.0000 C   0  0  0  0  0  0  0  0  0  0  0  0
    0.0792   -3.8667    0.0000 C   0  0  0  0  0  0  0  0  0  0  0  0
   -1.9833   -3.1500    0.0000 C   0  0  0  0  0  0  0  0  0  0  0  0
    0.4875   -3.1542    0.0000 C   0  0  0  0  0  0  0  0  0  0  0  0
    1.3042   -3.1500    0.0000 C   0  0  0  0  0  0  0  0  0  0  0  0
   -2.8083   -3.1542    0.0000 C   0  0  0  0  0  0  0  0  0  0  0  0
   -0.7500   -3.0417    0.0000 O   0  0  0  0  0  0  0  0  0  0  0  0
   -0.7500   -4.6917    0.0000 O   0  0  0  0  0  0  0  0  0  0  0  0
   -3.2208   -3.8667    0.0000 C   0  0  0  0  0  0  0  0  0  0  0  0
    1.7250   -3.8667    0.0000 C   0  0  0  0  0  0  0  0  0  0  0  0
    0.4875   -4.5792    0.0000 C   0  0  0  0  0  0  0  0  0  0  0  0
   -1.9750   -4.5792    0.0000 C   0  0  0  0  0  0  0  0  0  0  0  0
    1.3125   -4.5792    0.0000 C   0  0  0  0  0  0  0  0  0  0  0  0
   -2.8000   -4.5875    0.0000 C   0  0  0  0  0  0  0  0  0  0  0  0
   -3.2250   -2.4417    0.0000 Cl  0  0  0  0  0  0  0  0  0  0  0  0
    1.7167   -2.4292    0.0000 Cl  0  0  0  0  0  0  0  0  0  0  0  0
    2.5500   -3.8667    0.0000 Cl  0  0  0  0  0  0  0  0  0  0  0  0
   -4.0458   -3.8750    0.0000 Cl  0  0  0  0  0  0  0  0  0  0  0  0
  2  1  1  0  0  0  0
  3  1  1  0  0  0  0
  4  2  2  0  0  0  0
  5  3  1  0  0  0  0
  6  5  2  0  0  0  0
  7  4  1  0  0  0  0
  8  1  2  0  0  0  0
  9  1  2  0  0  0  0
 10 15  1  0  0  0  0
 11 14  2  0  0  0  0
 12  3  2  0  0  0  0
 13  2  1  0  0  0  0
 14 12  1  0  0  0  0
 15 13  2  0  0  0  0
 16  7  1  0  0  0  0
 17  6  1  0  0  0  0
 18 11  1  0  0  0  0
 19 10  1  0  0  0  0
 11  6  1  0  0  0  0
  7 10  2  0  0  0  0
M  END
> <IDNUMBER>
F1916-0163

> <Chemical_Name>
1,2-dichloro-4-(3,4-dichlorobenzenesulfonyl)benzene

> <CAS>
22588-79-0

> <PriceCoeff>
1.00

> <MW>
356.04

> <Description>
solid

> <FSP3>
0.00

> <clogP>
5.23

> <TPSA>
8.94

> <Acceptor>
2

> <Donor>
0

> <RotBonds>
2

> <HAC>
19

> <Collection>
General

> <Reference_compound>
PRI6181

> <Similarity>
0.8350

$$$$
F0466-0005
  -ISIS-  06222321442D

 29 32  0  0  0  0  0  0  0  0999 V2000
   -1.8500   -0.4542    0.0000 C   0  0  0  0  0  0  0  0  0  0  0  0
   -4.3500    0.1708    0.0000 S   0  0  3  0  0  0  0  0  0  0  0  0
   -2.7958   -1.9792    0.0000 N   0  0  3  0  0  0  0  0  0  0  0  0
   -2.1958   -0.9500    0.0000 N   0  0  0  0  0  0  0  0  0  0  0  0
   -1.2333   -0.5000    0.0000 N   0  0  0  0  0  0  0  0  0  0  0  0
   -2.1958    0.0333    0.0000 S   0  0  0  0  0  0  0  0  0  0  0  0
   -2.1958   -2.0167    0.0000 C   0  0  0  0  0  0  0  0  0  0  0  0
   -0.9500   -1.0167    0.0000 C   0  0  0  0  0  0  0  0  0  0  0  0
   -2.7708   -0.1500    0.0000 C   0  0  0  0  0  0  0  0  0  0  0  0
   -3.0500   -1.4500    0.0000 C   0  0  0  0  0  0  0  0  0  0  0  0
   -3.2333   -2.3792    0.0000 C   0  0  0  0  0  0  0  0  0  0  0  0
   -3.8125   -0.1500    0.0000 C   0  0  0  0  0  0  0  0  0  0  0  0
   -2.7708   -0.7542    0.0000 C   0  0  0  0  0  0  0  0  0  0  0  0
   -3.2958    0.1500    0.0000 C   0  0  0  0  0  0  0  0  0  0  0  0
   -1.8708   -1.5167    0.0000 C   0  0  0  0  0  0  0  0  0  0  0  0
   -1.2708   -1.5500    0.0000 C   0  0  0  0  0  0  0  0  0  0  0  0
   -4.6583   -0.3792    0.0000 O   0  0  0  0  0  0  0  0  0  0  0  0
   -4.0333    0.7125    0.0000 O   0  0  0  0  0  0  0  0  0  0  0  0
   -4.8958    0.4708    0.0000 N   0  0  0  0  0  0  0  0  0  0  0  0
   -0.3500   -1.0542    0.0000 O   0  0  0  0  0  0  0  0  0  0  0  0
   -3.6500   -1.5167    0.0000 C   0  0  0  0  0  0  0  0  0  0  0  0
   -3.7500   -2.0792    0.0000 C   0  0  0  0  0  0  0  0  0  0  0  0
   -3.1958   -2.9792    0.0000 O   0  0  0  0  0  0  0  0  0  0  0  0
   -2.7708   -0.9000    0.0000 O   0  0  0  0  0  0  0  0  0  0  0  0
   -3.8125   -0.7542    0.0000 C   0  0  0  0  0  0  0  0  0  0  0  0
   -3.2958   -1.0542    0.0000 C   0  0  0  0  0  0  0  0  0  0  0  0
   -1.9125   -2.5792    0.0000 C   0  0  0  0  0  0  0  0  0  0  0  0
   -0.9958   -2.0792    0.0000 C   0  0  0  0  0  0  0  0  0  0  0  0
   -1.3125   -2.6000    0.0000 C   0  0  0  0  0  0  0  0  0  0  0  0
  2 12  1  0  0  0  0
  3  7  1  0  0  0  0
  4  1  2  0  0  0  0
  5  1  1  0  0  0  0
  6  1  1  0  0  0  0
  7 15  2  0  0  0  0
  8  5  1  0  0  0  0
  9  6  1  0  0  0  0
 10  3  1  0  0  0  0
 11  3  1  0  0  0  0
 12 14  2  0  0  0  0
 13  4  1  0  0  0  0
 14  9  1  0  0  0  0
 15 16  1  0  0  0  0
 16  8  1  0  0  0  0
 17  2  2  0  0  0  0
 18  2  2  0  0  0  0
 19  2  1  0  0  0  0
 20  8  2  0  0  0  0
 21 10  1  0  0  0  0
 22 11  1  0  0  0  0
 23 11  2  0  0  0  0
 24 10  2  0  0  0  0
 25 26  2  0  0  0  0
 26 13  1  0  0  0  0
 27 29  2  0  0  0  0
 28 16  2  0  0  0  0
 29 28  1  0  0  0  0
  9 13  2  0  0  0  0
 25 12  1  0  0  0  0
 27  7  1  0  0  0  0
 21 22  1  0  0  0  0
M  END
> <IDNUMBER>
F0466-0005

> <Chemical_Name>
3-(2,5-dioxopyrrolidin-1-yl)-N-(6-sulfamoyl-1,3-benzothiazol-2-yl)benzamide

> <CAS>
476321-54-7

> <PriceCoeff>
1.00

> <MW>
430.46

> <Description>
solid

> <FSP3>
0.11

> <clogP>
0.45

> <TPSA>
176.15

> <Acceptor>
6

> <Donor>
2

> <RotBonds>
4

> <HAC>
29

> <Collection>
General

$$$$
F2724-1006
  -ISIS-  06222321152D

 27 29  0  0  0  0  0  0  0  0999 V2000
   -2.6583    1.1083    0.0000 N   0  3  0  0  0  0  0  0  0  0  0  0
   -2.6583    3.3583    0.0000 C   0  0  0  0  0  0  0  0  0  0  0  0
   -2.6583    4.1167    0.0000 C   0  0  0  0  0  0  0  0  0  0  0  0
   -3.3083    2.9833    0.0000 C   0  0  0  0  0  0  0  0  0  0  0  0
   -5.2250    6.3667    0.0000 N   0  0  0  0  0  0  0  0  0  0  0  0
   -2.6583    1.8583    0.0000 C   0  0  0  0  0  0  0  0  0  0  0  0
   -3.3083    2.2333    0.0000 C   0  0  0  0  0  0  0  0  0  0  0  0
   -5.8750    6.7417    0.0000 N   0  0  0  0  0  0  0  0  0  0  0  0
   -3.2958    4.4917    0.0000 N   0  0  0  0  0  0  0  0  0  0  0  0
   -2.0083    2.9833    0.0000 C   0  0  0  0  0  0  0  0  0  0  0  0
   -4.5833    6.7417    0.0000 C   0  0  0  0  0  0  0  0  0  0  0  0
   -3.3083    0.7333    0.0000 O   0  5  0  0  0  0  0  0  0  0  0  0
   -3.9333    6.3667    0.0000 C   0  0  0  0  0  0  0  0  0  0  0  0
   -2.0083    0.7333    0.0000 O   0  0  0  0  0  0  0  0  0  0  0  0
   -5.8750    7.4917    0.0000 C   0  0  0  0  0  0  0  0  0  0  0  0
   -2.0083    4.4917    0.0000 O   0  0  0  0  0  0  0  0  0  0  0  0
   -3.2875    5.2417    0.0000 C   0  0  0  0  0  0  0  0  0  0  0  0
   -2.0083    2.2333    0.0000 C   0  0  0  0  0  0  0  0  0  0  0  0
   -3.9333    5.6167    0.0000 C   0  0  0  0  0  0  0  0  0  0  0  0
   -4.5833    7.4917    0.0000 C   0  0  0  0  0  0  0  0  0  0  0  0
   -3.9583    3.3708    0.0000 Cl  0  0  0  0  0  0  0  0  0  0  0  0
   -5.2250    7.8667    0.0000 C   0  0  0  0  0  0  0  0  0  0  0  0
   -6.5292    7.8667    0.0000 O   0  0  0  0  0  0  0  0  0  0  0  0
   -3.2833    6.7417    0.0000 C   0  0  0  0  0  0  0  0  0  0  0  0
   -2.6333    6.3667    0.0000 C   0  0  0  0  0  0  0  0  0  0  0  0
   -2.6333    5.6167    0.0000 C   0  0  0  0  0  0  0  0  0  0  0  0
   -7.1792    7.4917    0.0000 C   0  0  0  0  0  0  0  0  0  0  0  0
  2 10  1  0  0  0  0
  3  2  1  0  0  0  0
  4  7  1  0  0  0  0
  5 11  2  0  0  0  0
  6  1  1  0  0  0  0
  7  6  2  0  0  0  0
  8  5  1  0  0  0  0
  9  3  1  0  0  0  0
 10 18  2  0  0  0  0
 11 13  1  0  0  0  0
 12  1  1  0  0  0  0
 13 19  2  0  0  0  0
 14  1  2  0  0  0  0
 15 22  1  0  0  0  0
 16  3  2  0  0  0  0
 17  9  1  0  0  0  0
 18  6  1  0  0  0  0
 19 17  1  0  0  0  0
 20 11  1  0  0  0  0
 21  4  1  0  0  0  0
 22 20  2  0  0  0  0
 23 15  1  0  0  0  0
 24 25  2  0  0  0  0
 25 26  1  0  0  0  0
 26 17  2  0  0  0  0
 27 23  1  0  0  0  0
  4  2  2  0  0  0  0
 13 24  1  0  0  0  0
  8 15  2  0  0  0  0
M  CHG  2   1   1  12  -1
M  END
> <IDNUMBER>
F2724-1006

> <Chemical_Name>
2-chloro-N-[3-(6-methoxypyridazin-3-yl)phenyl]-4-nitrobenzamide

> <CAS>
899986-29-9

> <PriceCoeff>
1.00

> <MW>
384.77

> <Description>
solid

> <FSP3>
0.06

> <clogP>
2.87

> <TPSA>
107.25

> <Acceptor>
6

> <Donor>
1

> <RotBonds>
5

> <HAC>
27

> <Collection>
General

$$$$
F1799-0448
  -ISIS-  06222321452D

 25 27  0  0  0  0  0  0  0  0999 V2000
    2.1292   -1.0292    0.0000 N   0  0  3  0  0  0  0  0  0  0  0  0
    1.9000   -1.7500    0.0000 C   0  0  0  0  0  0  0  0  0  0  0  0
    1.5250   -0.5917    0.0000 C   0  0  0  0  0  0  0  0  0  0  0  0
    0.9167   -1.0292    0.0000 C   0  0  3  0  0  0  0  0  0  0  0  0
    1.1500   -1.7500    0.0000 C   0  0  0  0  0  0  0  0  0  0  0  0
   -0.6708    0.1625    0.0000 C   0  0  0  0  0  0  0  0  0  0  0  0
    0.2042   -0.8042    0.0000 N   0  0  0  0  0  0  0  0  0  0  0  0
    0.0417   -0.0667    0.0000 N   0  0  0  0  0  0  0  0  0  0  0  0
    2.8417   -0.8042    0.0000 C   0  0  0  0  0  0  0  0  0  0  0  0
   -0.8208    0.8958    0.0000 C   0  0  0  0  0  0  0  0  0  0  0  0
    2.3375   -2.3542    0.0000 O   0  0  0  0  0  0  0  0  0  0  0  0
    1.5167    0.1583    0.0000 O   0  0  0  0  0  0  0  0  0  0  0  0
   -1.2250   -0.3375    0.0000 O   0  0  0  0  0  0  0  0  0  0  0  0
   -1.5375    1.1333    0.0000 C   0  0  0  0  0  0  0  0  0  0  0  0
    3.4000   -1.3042    0.0000 C   0  0  0  0  0  0  0  0  0  0  0  0
    3.0000   -0.0667    0.0000 C   0  0  0  0  0  0  0  0  0  0  0  0
    4.2667   -0.3375    0.0000 C   0  0  0  0  0  0  0  0  0  0  0  0
   -1.6958    1.8625    0.0000 C   0  0  0  0  0  0  0  0  0  0  0  0
    4.1125   -1.0750    0.0000 C   0  0  0  0  0  0  0  0  0  0  0  0
    3.7125    0.1625    0.0000 C   0  0  0  0  0  0  0  0  0  0  0  0
    4.9792   -0.1042    0.0000 Br  0  0  0  0  0  0  0  0  0  0  0  0
   -0.2708    1.3958    0.0000 C   0  0  0  0  0  0  0  0  0  0  0  0
   -0.4208    2.1333    0.0000 C   0  0  0  0  0  0  0  0  0  0  0  0
   -1.1333    2.3625    0.0000 C   0  0  0  0  0  0  0  0  0  0  0  0
   -2.4083    2.0958    0.0000 C   0  0  0  0  0  0  0  0  0  0  0  0
  2  1  1  0  0  0  0
  3  1  1  0  0  0  0
  4  3  1  0  0  0  0
  5  2  1  0  0  0  0
  6  8  1  0  0  0  0
  7  4  1  0  0  0  0
  8  7  1  0  0  0  0
  9  1  1  0  0  0  0
 10  6  1  0  0  0  0
 11  2  2  0  0  0  0
 12  3  2  0  0  0  0
 13  6  2  0  0  0  0
 14 10  2  0  0  0  0
 15  9  1  0  0  0  0
 16  9  2  0  0  0  0
 17 20  2  0  0  0  0
 18 14  1  0  0  0  0
 19 15  2  0  0  0  0
 20 16  1  0  0  0  0
 21 17  1  0  0  0  0
 22 10  1  0  0  0  0
 23 22  2  0  0  0  0
 24 23  1  0  0  0  0
 25 18  1  0  0  0  0
  5  4  1  0  0  0  0
 17 19  1  0  0  0  0
 18 24  2  0  0  0  0
M  END
> <IDNUMBER>
F1799-0448

> <Chemical_Name>
N'-[1-(4-bromophenyl)-2,5-dioxopyrrolidin-3-yl]-3-methylbenzohydrazide

> <CAS>
485394-64-7

> <PriceCoeff>
1.00

> <MW>
402.24

> <Description>
solid

> <FSP3>
0.17

> <clogP>
3.47

> <TPSA>
78.51

> <Acceptor>
3

> <Donor>
2

> <RotBonds>
4

> <HAC>
25

> <Collection>
General

$$$$
F1174-3093
  -ISIS-  06222321142D

 31 35  0  0  0  0  0  0  0  0999 V2000
   -2.9708    1.3625    0.0000 C   0  0  0  0  0  0  0  0  0  0  0  0
   -3.0125    0.9208    0.0000 C   0  0  0  0  0  0  0  0  0  0  0  0
   -2.2125    1.2833    0.0000 N   0  0  3  0  0  0  0  0  0  0  0  0
   -2.2500    0.8458    0.0000 C   0  0  0  0  0  0  0  0  0  0  0  0
   -2.6500    0.6625    0.0000 N   0  0  0  0  0  0  0  0  0  0  0  0
   -2.5708    1.5458    0.0000 C   0  0  0  0  0  0  0  0  0  0  0  0
   -3.4500    0.8458    0.0000 S   0  0  0  0  0  0  0  0  0  0  0  0
   -3.3708    1.5458    0.0000 C   0  0  0  0  0  0  0  0  0  0  0  0
   -3.6708    1.2000    0.0000 C   0  0  0  0  0  0  0  0  0  0  0  0
   -1.1958    0.0625    0.0000 N   0  0  3  0  0  0  0  0  0  0  0  0
   -1.1500    0.5000    0.0000 C   0  0  0  0  0  0  0  0  0  0  0  0
   -1.8958    0.5833    0.0000 S   0  0  0  0  0  0  0  0  0  0  0  0
   -1.8125    1.4625    0.0000 C   0  0  0  0  0  0  0  0  0  0  0  0
   -2.5125    1.9833    0.0000 O   0  0  0  0  0  0  0  0  0  0  0  0
   -1.4958    0.7625    0.0000 C   0  0  0  0  0  0  0  0  0  0  0  0
   -0.8333   -0.2000    0.0000 C   0  0  3  0  0  0  0  0  0  0  0  0
   -0.7333    0.6833    0.0000 O   0  0  0  0  0  0  0  0  0  0  0  0
   -3.5125    1.9625    0.0000 C   0  0  0  0  0  0  0  0  0  0  0  0
   -1.5958   -0.1167    0.0000 C   0  0  0  0  0  0  0  0  0  0  0  0
   -4.1125    1.2833    0.0000 C   0  0  0  0  0  0  0  0  0  0  0  0
   -1.4500    1.2000    0.0000 C   0  0  0  0  0  0  0  0  0  0  0  0
   -1.7708    1.9000    0.0000 C   0  0  0  0  0  0  0  0  0  0  0  0
   -0.4125   -0.0000    0.0000 C   0  0  0  0  0  0  0  0  0  0  0  0
   -0.8708   -0.6375    0.0000 C   0  0  0  0  0  0  0  0  0  0  0  0
   -1.6500   -0.5542    0.0000 C   0  0  0  0  0  0  0  0  0  0  0  0
   -3.9583    2.0458    0.0000 C   0  0  0  0  0  0  0  0  0  0  0  0
   -4.2708    1.7000    0.0000 C   0  0  0  0  0  0  0  0  0  0  0  0
   -1.0500    1.3833    0.0000 C   0  0  0  0  0  0  0  0  0  0  0  0
   -1.3708    2.1000    0.0000 C   0  0  0  0  0  0  0  0  0  0  0  0
   -1.2708   -0.8375    0.0000 C   0  0  0  0  0  0  0  0  0  0  0  0
   -1.0125    1.8208    0.0000 C   0  0  0  0  0  0  0  0  0  0  0  0
  2  1  2  0  0  0  0
  3  6  1  0  0  0  0
  4  3  1  0  0  0  0
  5  2  1  0  0  0  0
  6  1  1  0  0  0  0
  7  2  1  0  0  0  0
  8  1  1  0  0  0  0
  9  8  2  0  0  0  0
 10 11  1  0  0  0  0
 11 15  1  0  0  0  0
 12  4  1  0  0  0  0
 13  3  1  0  0  0  0
 14  6  2  0  0  0  0
 15 12  1  0  0  0  0
 16 10  1  0  0  0  0
 17 11  2  0  0  0  0
 18  8  1  0  0  0  0
 19 10  1  0  0  0  0
 20  9  1  0  0  0  0
 21 13  1  0  0  0  0
 22 13  2  0  0  0  0
 23 16  1  0  0  0  0
 24 16  1  0  0  0  0
 25 19  1  0  0  0  0
 26 18  1  0  0  0  0
 27 26  1  0  0  0  0
 28 21  2  0  0  0  0
 29 22  1  0  0  0  0
 30 25  1  0  0  0  0
 31 29  2  0  0  0  0
  9  7  1  0  0  0  0
  5  4  2  0  0  0  0
 20 27  1  0  0  0  0
 28 31  1  0  0  0  0
 24 30  1  0  0  0  0
M  END
> <IDNUMBER>
F1174-3093

> <Chemical_Name>
5-{[2-(2-methylpiperidin-1-yl)-2-oxoethyl]sulfanyl}-4-phenyl-8-thia-4,6-diazatricyclo[7.4.0.0^{2,7}]trideca-1(9),2(7),5-trien-3-one

> <CAS>
379239-40-4

> <PriceCoeff>
1.00

> <MW>
453.62

> <Description>
solid

> <FSP3>
0.46

> <clogP>
5.56

> <TPSA>
106.52

> <Acceptor>
3

> <Donor>
0

> <RotBonds>
5

> <HAC>
31

> <Collection>
General

> <Reference_compound>
CHEMBL577016

> <Similarity>
0.8250

$$$$
F6660-6033
  -ISIS-  06222321162D

 34 38  0  0  0  0  0  0  0  0999 V2000
   11.1792   -5.6417    0.0000 C   0  0  0  0  0  0  0  0  0  0  0  0
    5.4542   -8.1167    0.0000 S   0  0  3  0  0  0  0  0  0  0  0  0
   10.4542   -6.8917    0.0000 N   0  0  3  0  0  0  0  0  0  0  0  0
    9.7375   -5.6417    0.0000 C   0  0  0  0  0  0  0  0  0  0  0  0
    9.7375   -6.4750    0.0000 C   0  0  0  0  0  0  0  0  0  0  0  0
   10.4542   -5.2250    0.0000 C   0  0  0  0  0  0  0  0  0  0  0  0
   11.1750   -6.4792    0.0000 C   0  0  0  0  0  0  0  0  0  0  0  0
    6.1625   -7.7042    0.0000 N   0  0  3  0  0  0  0  0  0  0  0  0
    9.0250   -6.8875    0.0000 C   0  0  0  0  0  0  0  0  0  0  0  0
    8.3042   -6.4750    0.0000 C   0  0  0  0  0  0  0  0  0  0  0  0
   10.4500   -7.7167    0.0000 C   0  0  3  0  0  0  0  0  0  0  0  0
    9.0250   -5.2292    0.0000 C   0  0  0  0  0  0  0  0  0  0  0  0
    7.5917   -6.8875    0.0000 N   0  0  3  0  0  0  0  0  0  0  0  0
   11.8917   -5.2292    0.0000 C   0  0  0  0  0  0  0  0  0  0  0  0
    8.3042   -5.6417    0.0000 C   0  0  0  0  0  0  0  0  0  0  0  0
   10.8667   -8.4292    0.0000 C   0  0  0  0  0  0  0  0  0  0  0  0
   10.0417   -8.4292    0.0000 C   0  0  0  0  0  0  0  0  0  0  0  0
    4.7417   -8.5417    0.0000 C   0  0  0  0  0  0  0  0  0  0  0  0
    6.1667   -6.8792    0.0000 C   0  0  0  0  0  0  0  0  0  0  0  0
    6.8792   -8.1167    0.0000 C   0  0  0  0  0  0  0  0  0  0  0  0
    5.8750   -8.8292    0.0000 O   0  0  0  0  0  0  0  0  0  0  0  0
    5.0292   -7.4125    0.0000 O   0  0  0  0  0  0  0  0  0  0  0  0
   10.4542   -4.4000    0.0000 O   0  0  0  0  0  0  0  0  0  0  0  0
    6.8792   -6.4667    0.0000 C   0  0  0  0  0  0  0  0  0  0  0  0
    7.6000   -7.7042    0.0000 C   0  0  0  0  0  0  0  0  0  0  0  0
   11.8917   -4.4042    0.0000 O   0  0  0  0  0  0  0  0  0  0  0  0
    7.5917   -5.2292    0.0000 F   0  0  0  0  0  0  0  0  0  0  0  0
   12.6042   -5.6500    0.0000 O   0  0  0  0  0  0  0  0  0  0  0  0
    4.0125   -8.1292    0.0000 C   0  0  0  0  0  0  0  0  0  0  0  0
    4.0042   -7.3125    0.0000 C   0  0  0  0  0  0  0  0  0  0  0  0
    3.3042   -8.5500    0.0000 C   0  0  0  0  0  0  0  0  0  0  0  0
    2.5875   -8.1417    0.0000 C   0  0  0  0  0  0  0  0  0  0  0  0
    3.2875   -6.9042    0.0000 C   0  0  0  0  0  0  0  0  0  0  0  0
    2.5792   -7.3167    0.0000 C   0  0  0  0  0  0  0  0  0  0  0  0
  2  8  1  0  0  0  0
  3  7  1  0  0  0  0
  4  6  1  0  0  0  0
  5  3  1  0  0  0  0
  6  1  1  0  0  0  0
  7  1  2  0  0  0  0
  8 20  1  0  0  0  0
  9  5  2  0  0  0  0
 10  9  1  0  0  0  0
 11  3  1  0  0  0  0
 12  4  2  0  0  0  0
 13 10  1  0  0  0  0
 14  1  1  0  0  0  0
 15 12  1  0  0  0  0
 16 11  1  0  0  0  0
 17 11  1  0  0  0  0
 18  2  1  0  0  0  0
 19 24  1  0  0  0  0
 20 25  1  0  0  0  0
 21  2  2  0  0  0  0
 22  2  2  0  0  0  0
 23  6  2  0  0  0  0
 24 13  1  0  0  0  0
 25 13  1  0  0  0  0
 26 14  2  0  0  0  0
 27 15  1  0  0  0  0
 28 14  1  0  0  0  0
 29 18  1  0  0  0  0
 30 29  1  0  0  0  0
 31 29  2  0  0  0  0
 32 31  1  0  0  0  0
 33 30  2  0  0  0  0
 34 32  2  0  0  0  0
  5  4  1  0  0  0  0
 17 16  1  0  0  0  0
 10 15  2  0  0  0  0
  8 19  1  0  0  0  0
 33 34  1  0  0  0  0
M  END
> <IDNUMBER>
F6660-6033

> <Chemical_Name>
1-cyclopropyl-6-fluoro-4-oxo-7-(4-phenylmethanesulfonylpiperazin-1-yl)-1,4-dihydroquinoline-3-carboxylic acid

> <CAS>
341004-32-8

> <PriceCoeff>
1.00

> <MW>
485.53

> <Description>
solid

> <FSP3>
0.33

> <clogP>
3.30

> <TPSA>
106.61

> <Acceptor>
7

> <Donor>
2

> <RotBonds>
6

> <HAC>
34

> <Collection>
General

> <Reference_compound>
CHEMBL8

> <Similarity>
0.8090

$$$$
F1065-0279
  -ISIS-  06222321452D

 24 26  0  0  0  0  0  0  0  0999 V2000
   -0.9458    0.2333    0.0000 N   0  0  3  0  0  0  0  0  0  0  0  0
   -0.5333    1.2333    0.0000 C   0  0  0  0  0  0  0  0  0  0  0  0
   -0.0958   -0.4875    0.0000 C   0  0  0  0  0  0  0  0  0  0  0  0
    0.8167    0.0833    0.0000 C   0  0  3  0  0  0  0  0  0  0  0  0
    0.5792    1.1625    0.0000 C   0  0  0  0  0  0  0  0  0  0  0  0
    3.7375   -0.0500    0.0000 C   0  0  0  0  0  0  0  0  0  0  0  0
    1.8667   -0.3375    0.0000 S   0  0  0  0  0  0  0  0  0  0  0  0
    2.7167    0.3625    0.0000 C   0  0  0  0  0  0  0  0  0  0  0  0
    3.8875   -1.1375    0.0000 C   0  0  0  0  0  0  0  0  0  0  0  0
   -1.9708   -0.1542    0.0000 C   0  0  0  0  0  0  0  0  0  0  0  0
   -1.0958    2.1958    0.0000 O   0  0  0  0  0  0  0  0  0  0  0  0
   -0.1458   -1.6000    0.0000 O   0  0  0  0  0  0  0  0  0  0  0  0
    3.0167   -1.8167    0.0000 O   0  0  0  0  0  0  0  0  0  0  0  0
   -2.8125    0.5333    0.0000 C   0  0  0  0  0  0  0  0  0  0  0  0
   -2.1625   -1.2500    0.0000 C   0  0  0  0  0  0  0  0  0  0  0  0
    4.9042   -1.5542    0.0000 O   0  0  0  0  0  0  0  0  0  0  0  0
   -4.0333   -0.9167    0.0000 C   0  0  0  0  0  0  0  0  0  0  0  0
   -3.8333    0.1458    0.0000 C   0  0  0  0  0  0  0  0  0  0  0  0
   -3.1625   -1.6167    0.0000 C   0  0  0  0  0  0  0  0  0  0  0  0
   -5.0625   -1.2792    0.0000 Cl  0  0  0  0  0  0  0  0  0  0  0  0
    4.5875    0.6458    0.0000 C   0  0  0  0  0  0  0  0  0  0  0  0
    2.5542    1.4500    0.0000 C   0  0  0  0  0  0  0  0  0  0  0  0
    4.4292    1.7333    0.0000 C   0  0  0  0  0  0  0  0  0  0  0  0
    3.4292    2.1208    0.0000 C   0  0  0  0  0  0  0  0  0  0  0  0
  2  1  1  0  0  0  0
  3  1  1  0  0  0  0
  4  3  1  0  0  0  0
  5  2  1  0  0  0  0
  6  8  1  0  0  0  0
  7  4  1  0  0  0  0
  8  7  1  0  0  0  0
  9  6  1  0  0  0  0
 10  1  1  0  0  0  0
 11  2  2  0  0  0  0
 12  3  2  0  0  0  0
 13  9  2  0  0  0  0
 14 10  2  0  0  0  0
 15 10  1  0  0  0  0
 16  9  1  0  0  0  0
 17 19  1  0  0  0  0
 18 14  1  0  0  0  0
 19 15  2  0  0  0  0
 20 17  1  0  0  0  0
 21  6  2  0  0  0  0
 22  8  2  0  0  0  0
 23 24  2  0  0  0  0
 24 22  1  0  0  0  0
  5  4  1  0  0  0  0
 18 17  2  0  0  0  0
 21 23  1  0  0  0  0
M  END
> <IDNUMBER>
F1065-0279

> <Chemical_Name>
2-{[1-(4-chlorophenyl)-2,5-dioxopyrrolidin-3-yl]sulfanyl}benzoic acid

> <CAS>
301683-47-6

> <PriceCoeff>
1.00

> <MW>
361.80

> <Description>
solid

> <FSP3>
0.12

> <clogP>
3.06

> <TPSA>
99.98

> <Acceptor>
4

> <Donor>
0

> <RotBonds>
4

> <HAC>
24

> <Collection>
General

$$$$
F1065-0354
  -ISIS-  06222321142D

 24 26  0  0  0  0  0  0  0  0999 V2000
   -1.2833    0.5333    0.0000 N   0  0  3  0  0  0  0  0  0  0  0  0
   -0.5625    1.6125    0.0000 C   0  0  0  0  0  0  0  0  0  0  0  0
   -0.5000   -0.4542    0.0000 C   0  0  0  0  0  0  0  0  0  0  0  0
    0.7042   -0.0167    0.0000 C   0  0  3  0  0  0  0  0  0  0  0  0
    0.6667    1.2500    0.0000 C   0  0  0  0  0  0  0  0  0  0  0  0
   -2.5625    0.5500    0.0000 C   0  0  0  0  0  0  0  0  0  0  0  0
    4.0042   -0.8500    0.0000 C   0  0  0  0  0  0  0  0  0  0  0  0
    1.8000   -0.7167    0.0000 S   0  0  0  0  0  0  0  0  0  0  0  0
    2.9292   -0.1500    0.0000 C   0  0  0  0  0  0  0  0  0  0  0  0
    3.9292   -2.1167    0.0000 C   0  0  0  0  0  0  0  0  0  0  0  0
   -3.2000    1.6500    0.0000 C   0  0  0  0  0  0  0  0  0  0  0  0
   -1.0000    2.8333    0.0000 O   0  0  0  0  0  0  0  0  0  0  0  0
   -0.8458   -1.7000    0.0000 O   0  0  0  0  0  0  0  0  0  0  0  0
    5.0000   -2.8167    0.0000 O   0  0  0  0  0  0  0  0  0  0  0  0
   -4.4833    1.6500    0.0000 C   0  0  0  0  0  0  0  0  0  0  0  0
    2.7667   -2.7000    0.0000 O   0  0  0  0  0  0  0  0  0  0  0  0
   -3.2000   -0.5542    0.0000 C   0  0  0  0  0  0  0  0  0  0  0  0
   -5.1458    2.7708    0.0000 Cl  0  0  0  0  0  0  0  0  0  0  0  0
    5.1500   -0.2542    0.0000 C   0  0  0  0  0  0  0  0  0  0  0  0
    3.0042    1.1333    0.0000 C   0  0  0  0  0  0  0  0  0  0  0  0
   -4.4833   -0.5500    0.0000 C   0  0  0  0  0  0  0  0  0  0  0  0
   -5.1208    0.5500    0.0000 C   0  0  0  0  0  0  0  0  0  0  0  0
    5.2292    1.0125    0.0000 C   0  0  0  0  0  0  0  0  0  0  0  0
    4.1292    1.7125    0.0000 C   0  0  0  0  0  0  0  0  0  0  0  0
  2  1  1  0  0  0  0
  3  1  1  0  0  0  0
  4  3  1  0  0  0  0
  5  2  1  0  0  0  0
  6  1  1  0  0  0  0
  7  9  2  0  0  0  0
  8  4  1  0  0  0  0
  9  8  1  0  0  0  0
 10  7  1  0  0  0  0
 11  6  2  0  0  0  0
 12  2  2  0  0  0  0
 13  3  2  0  0  0  0
 14 10  2  0  0  0  0
 15 11  1  0  0  0  0
 16 10  1  0  0  0  0
 17  6  1  0  0  0  0
 18 15  1  0  0  0  0
 19  7  1  0  0  0  0
 20  9  1  0  0  0  0
 21 17  2  0  0  0  0
 22 21  1  0  0  0  0
 23 24  1  0  0  0  0
 24 20  2  0  0  0  0
  5  4  1  0  0  0  0
 22 15  2  0  0  0  0
 23 19  2  0  0  0  0
M  END
> <IDNUMBER>
F1065-0354

> <Chemical_Name>
2-{[1-(3-chlorophenyl)-2,5-dioxopyrrolidin-3-yl]sulfanyl}benzoic acid

> <CAS>
302552-56-3

> <PriceCoeff>
1.00

> <MW>
361.80

> <Description>
solid

> <FSP3>
0.12

> <clogP>
3.06

> <TPSA>
99.98

> <Acceptor>
4

> <Donor>
0

> <RotBonds>
4

> <HAC>
24

> <Collection>
General

$$$$
F3019-0041
  -ISIS-  06222321152D

 27 29  0  0  0  0  0  0  0  0999 V2000
    0.7542    0.2958    0.0000 N   0  0  3  0  0  0  0  0  0  0  0  0
    1.4250    0.7833    0.0000 C   0  0  0  0  0  0  0  0  0  0  0  0
    1.0125   -0.5000    0.0000 C   0  0  0  0  0  0  0  0  0  0  0  0
    1.8375   -0.5000    0.0000 C   0  0  3  0  0  0  0  0  0  0  0  0
    2.0917    0.2958    0.0000 C   0  0  0  0  0  0  0  0  0  0  0  0
    2.4750   -2.5917    0.0000 C   0  0  0  0  0  0  0  0  0  0  0  0
    2.3167   -1.1667    0.0000 S   0  0  0  0  0  0  0  0  0  0  0  0
    1.9875   -1.9292    0.0000 C   0  0  0  0  0  0  0  0  0  0  0  0
    3.3000   -2.5000    0.0000 C   0  0  0  0  0  0  0  0  0  0  0  0
   -0.0333    0.5458    0.0000 C   0  0  0  0  0  0  0  0  0  0  0  0
    1.4167    1.6083    0.0000 O   0  0  0  0  0  0  0  0  0  0  0  0
   -2.5708    2.1208    0.0000 C   0  0  0  0  0  0  0  0  0  0  0  0
    0.5167   -1.1667    0.0000 O   0  0  0  0  0  0  0  0  0  0  0  0
   -2.3958    1.3083    0.0000 N   0  0  0  0  0  0  0  0  0  0  0  0
    3.6292   -1.7417    0.0000 O   0  0  0  0  0  0  0  0  0  0  0  0
   -3.3583    2.3708    0.0000 O   0  0  0  0  0  0  0  0  0  0  0  0
   -0.6458   -0.0042    0.0000 C   0  0  0  0  0  0  0  0  0  0  0  0
   -0.2083    1.3583    0.0000 C   0  0  0  0  0  0  0  0  0  0  0  0
   -1.6083    1.0583    0.0000 C   0  0  0  0  0  0  0  0  0  0  0  0
    3.7875   -3.1667    0.0000 O   0  0  0  0  0  0  0  0  0  0  0  0
   -0.9958    1.6125    0.0000 C   0  0  0  0  0  0  0  0  0  0  0  0
   -1.4333    0.2458    0.0000 C   0  0  0  0  0  0  0  0  0  0  0  0
    2.1292   -3.3417    0.0000 C   0  0  0  0  0  0  0  0  0  0  0  0
    1.1625   -2.0042    0.0000 C   0  0  0  0  0  0  0  0  0  0  0  0
   -1.9583    2.6708    0.0000 C   0  0  0  0  0  0  0  0  0  0  0  0
    1.3042   -3.4375    0.0000 C   0  0  0  0  0  0  0  0  0  0  0  0
    0.8250   -2.7667    0.0000 C   0  0  0  0  0  0  0  0  0  0  0  0
  2  1  1  0  0  0  0
  3  1  1  0  0  0  0
  4  3  1  0  0  0  0
  5  2  1  0  0  0  0
  6  8  1  0  0  0  0
  7  4  1  0  0  0  0
  8  7  1  0  0  0  0
  9  6  1  0  0  0  0
 10  1  1  0  0  0  0
 11  2  2  0  0  0  0
 12 14  1  0  0  0  0
 13  3  2  0  0  0  0
 14 19  1  0  0  0  0
 15  9  2  0  0  0  0
 16 12  2  0  0  0  0
 17 10  1  0  0  0  0
 18 10  2  0  0  0  0
 19 21  2  0  0  0  0
 20  9  1  0  0  0  0
 21 18  1  0  0  0  0
 22 17  2  0  0  0  0
 23  6  2  0  0  0  0
 24  8  2  0  0  0  0
 25 12  1  0  0  0  0
 26 27  2  0  0  0  0
 27 24  1  0  0  0  0
  5  4  1  0  0  0  0
 19 22  1  0  0  0  0
 23 26  1  0  0  0  0
M  END
> <IDNUMBER>
F3019-0041

> <Chemical_Name>
2-{[1-(4-acetamidophenyl)-2,5-dioxopyrrolidin-3-yl]sulfanyl}benzoic acid

> <CAS>
831188-72-8

> <PriceCoeff>
1.00

> <MW>
384.41

> <Description>
solid

> <FSP3>
0.16

> <clogP>
1.09

> <TPSA>
129.08

> <Acceptor>
5

> <Donor>
1

> <RotBonds>
5

> <HAC>
27

> <Collection>
General

$$$$
F6660-2069
  -ISIS-  06222321472D

 16 17  0  0  0  0  0  0  0  0999 V2000
   10.7625   -7.8292    0.0000 N   0  0  0  0  0  0  0  0  0  0  0  0
   11.5417   -7.5792    0.0000 C   0  0  0  0  0  0  0  0  0  0  0  0
   11.5417   -6.7417    0.0000 N   0  0  0  0  0  0  0  0  0  0  0  0
   10.2792   -7.1542    0.0000 C   0  0  0  0  0  0  0  0  0  0  0  0
   10.7625   -6.4917    0.0000 O   0  0  0  0  0  0  0  0  0  0  0  0
    8.6250   -5.7167    0.0000 N   0  0  0  0  0  0  0  0  0  0  0  0
    9.0417   -6.4375    0.0000 C   0  0  0  0  0  0  0  0  0  0  0  0
   12.2625   -7.9917    0.0000 C   0  0  0  0  0  0  0  0  0  0  0  0
    9.4542   -7.1542    0.0000 C   0  0  0  0  0  0  0  0  0  0  0  0
   12.2625   -8.8167    0.0000 C   0  0  0  0  0  0  0  0  0  0  0  0
   12.9750   -7.5750    0.0000 C   0  0  0  0  0  0  0  0  0  0  0  0
   13.6917   -8.8167    0.0000 C   0  0  0  0  0  0  0  0  0  0  0  0
   13.6917   -7.9875    0.0000 C   0  0  0  0  0  0  0  0  0  0  0  0
   12.9750   -9.2292    0.0000 C   0  0  0  0  0  0  0  0  0  0  0  0
   14.4042   -9.2292    0.0000 O   0  0  0  0  0  0  0  0  0  0  0  0
   14.4042  -10.0542    0.0000 C   0  0  0  0  0  0  0  0  0  0  0  0
  2  1  1  0  0  0  0
  3  2  2  0  0  0  0
  4  1  2  0  0  0  0
  5  4  1  0  0  0  0
  6  7  3  0  0  0  0
  7  9  1  0  0  0  0
  8  2  1  0  0  0  0
  9  4  1  0  0  0  0
 10  8  2  0  0  0  0
 11  8  1  0  0  0  0
 12 13  1  0  0  0  0
 13 11  2  0  0  0  0
 14 10  1  0  0  0  0
 15 12  1  0  0  0  0
 16 15  1  0  0  0  0
  5  3  1  0  0  0  0
 12 14  2  0  0  0  0
M  END
> <IDNUMBER>
F6660-2069

> <Chemical_Name>
2-[3-(4-methoxyphenyl)-1,2,4-oxadiazol-5-yl]acetonitrile

> <CAS>
892303-79-6

> <PriceCoeff>
1.00

> <MW>
215.21

> <Description>
solid

> <FSP3>
0.18

> <clogP>
1.06

> <TPSA>
71.94

> <Acceptor>
5

> <Donor>
0

> <RotBonds>
3

> <HAC>
16

> <Collection>
General

> <Reference_compound>
CHEMBL4633595

> <Similarity>
0.8000

$$$$
F1058-0140
  -ISIS-  06222321442D

 20 20  0  0  0  0  0  0  0  0999 V2000
    3.1250   -0.5875    0.0000 S   0  0  3  0  0  0  0  0  0  0  0  0
    1.0625    0.1250    0.0000 C   0  0  0  0  0  0  0  0  0  0  0  0
    0.6500    0.8458    0.0000 N   0  3  0  0  0  0  0  0  0  0  0  0
    2.3000   -0.5875    0.0000 C   0  0  0  0  0  0  0  0  0  0  0  0
    1.8875    0.1250    0.0000 C   0  0  0  0  0  0  0  0  0  0  0  0
    3.9500   -0.5875    0.0000 N   0  0  3  0  0  0  0  0  0  0  0  0
    3.1250   -1.4125    0.0000 O   0  0  0  0  0  0  0  0  0  0  0  0
    3.1250    0.2375    0.0000 O   0  0  0  0  0  0  0  0  0  0  0  0
    0.6500   -0.5875    0.0000 C   0  0  0  0  0  0  0  0  0  0  0  0
    1.0625    1.5583    0.0000 O   0  5  0  0  0  0  0  0  0  0  0  0
   -0.1750    0.8458    0.0000 O   0  0  0  0  0  0  0  0  0  0  0  0
    1.8875   -1.3042    0.0000 C   0  0  0  0  0  0  0  0  0  0  0  0
    1.0625   -1.3042    0.0000 C   0  0  0  0  0  0  0  0  0  0  0  0
   -0.1750   -0.5875    0.0000 Cl  0  0  0  0  0  0  0  0  0  0  0  0
    4.3625   -1.3042    0.0000 C   0  0  0  0  0  0  0  0  0  0  0  0
    4.3625    0.1250    0.0000 C   0  0  0  0  0  0  0  0  0  0  0  0
    5.1875    0.1250    0.0000 C   0  0  0  0  0  0  0  0  0  0  0  0
    5.1875   -1.3042    0.0000 C   0  0  0  0  0  0  0  0  0  0  0  0
    5.6042    0.8458    0.0000 C   0  0  0  0  0  0  0  0  0  0  0  0
    5.6042   -2.0167    0.0000 C   0  0  0  0  0  0  0  0  0  0  0  0
  2  5  1  0  0  0  0
  3  2  1  0  0  0  0
  4  1  1  0  0  0  0
  5  4  2  0  0  0  0
  6  1  1  0  0  0  0
  7  1  2  0  0  0  0
  8  1  2  0  0  0  0
  9 13  1  0  0  0  0
 10  3  1  0  0  0  0
 11  3  2  0  0  0  0
 12  4  1  0  0  0  0
 13 12  2  0  0  0  0
 14  9  1  0  0  0  0
 15  6  1  0  0  0  0
 16  6  1  0  0  0  0
 17 16  1  0  0  0  0
 18 15  1  0  0  0  0
 19 17  1  0  0  0  0
 20 18  1  0  0  0  0
  9  2  2  0  0  0  0
M  CHG  2   3   1  10  -1
M  END
> <IDNUMBER>
F1058-0140

> <Chemical_Name>
4-chloro-3-nitro-N,N-dipropylbenzene-1-sulfonamide

> <CAS>
368427-79-6

> <PriceCoeff>
1.00

> <MW>
320.79

> <Description>
solid

> <FSP3>
0.50

> <clogP>
3.76

> <TPSA>
88.90

> <Acceptor>
4

> <Donor>
0

> <RotBonds>
7

> <HAC>
20

> <Collection>
General

$$$$
F1199-0124
  -ISIS-  06222321442D

 25 27  0  0  0  0  0  0  0  0999 V2000
    2.0625    0.0375    0.0000 N   0  0  3  0  0  0  0  0  0  0  0  0
    2.7292    0.5250    0.0000 C   0  0  0  0  0  0  0  0  0  0  0  0
    2.3167   -0.7542    0.0000 C   0  0  0  0  0  0  0  0  0  0  0  0
    3.1500   -0.7542    0.0000 C   0  0  3  0  0  0  0  0  0  0  0  0
    3.4042    0.0375    0.0000 C   0  0  0  0  0  0  0  0  0  0  0  0
    4.4542   -1.3292    0.0000 C   0  0  0  0  0  0  0  0  0  0  0  0
    1.2792    0.2958    0.0000 C   0  0  0  0  0  0  0  0  0  0  0  0
    4.9417   -2.0042    0.0000 C   0  0  0  0  0  0  0  0  0  0  0  0
    3.6292   -1.4250    0.0000 S   0  0  0  0  0  0  0  0  0  0  0  0
    4.6042   -2.7667    0.0000 C   0  0  0  0  0  0  0  0  0  0  0  0
    1.1042    1.1083    0.0000 C   0  0  0  0  0  0  0  0  0  0  0  0
    4.7917   -0.5792    0.0000 N   0  0  0  0  0  0  0  0  0  0  0  0
    0.6667   -0.2625    0.0000 C   0  0  0  0  0  0  0  0  0  0  0  0
    2.7292    1.3583    0.0000 O   0  0  0  0  0  0  0  0  0  0  0  0
    1.8292   -1.4250    0.0000 O   0  0  0  0  0  0  0  0  0  0  0  0
    0.3167    1.3583    0.0000 C   0  0  0  0  0  0  0  0  0  0  0  0
    5.0792   -3.4417    0.0000 O   0  0  0  0  0  0  0  0  0  0  0  0
   -0.2958    0.8083    0.0000 C   0  0  0  0  0  0  0  0  0  0  0  0
    3.7792   -2.8500    0.0000 O   0  0  0  0  0  0  0  0  0  0  0  0
   -0.1208   -0.0125    0.0000 C   0  0  0  0  0  0  0  0  0  0  0  0
   -1.0875    1.0583    0.0000 I   0  0  0  0  0  0  0  0  0  0  0  0
    5.7667   -1.9167    0.0000 C   0  0  0  0  0  0  0  0  0  0  0  0
    1.7167    1.6583    0.0000 C   0  0  0  0  0  0  0  0  0  0  0  0
    5.6125   -0.4917    0.0000 C   0  0  0  0  0  0  0  0  0  0  0  0
    6.1042   -1.1625    0.0000 C   0  0  0  0  0  0  0  0  0  0  0  0
  2  1  1  0  0  0  0
  3  1  1  0  0  0  0
  4  3  1  0  0  0  0
  5  2  1  0  0  0  0
  6  9  1  0  0  0  0
  7  1  1  0  0  0  0
  8  6  2  0  0  0  0
  9  4  1  0  0  0  0
 10  8  1  0  0  0  0
 11  7  2  0  0  0  0
 12  6  1  0  0  0  0
 13  7  1  0  0  0  0
 14  2  2  0  0  0  0
 15  3  2  0  0  0  0
 16 11  1  0  0  0  0
 17 10  2  0  0  0  0
 18 20  1  0  0  0  0
 19 10  1  0  0  0  0
 20 13  2  0  0  0  0
 21 18  1  0  0  0  0
 22  8  1  0  0  0  0
 23 11  1  0  0  0  0
 24 12  2  0  0  0  0
 25 24  1  0  0  0  0
  5  4  1  0  0  0  0
 18 16  2  0  0  0  0
 25 22  2  0  0  0  0
M  END
> <IDNUMBER>
F1199-0124

> <Chemical_Name>
2-{[1-(4-iodo-2-methylphenyl)-2,5-dioxopyrrolidin-3-yl]sulfanyl}pyridine-3-carboxylic acid

> <CAS>
459417-85-7

> <PriceCoeff>
1.00

> <MW>
468.27

> <Description>
solid

> <FSP3>
0.18

> <clogP>
3.01

> <TPSA>
112.87

> <Acceptor>
5

> <Donor>
1

> <RotBonds>
4

> <HAC>
25

> <Collection>
General

$$$$
F3019-0039
  -ISIS-  06222321442D

 25 27  0  0  0  0  0  0  0  0999 V2000
    1.5542    0.6000    0.0000 N   0  0  3  0  0  0  0  0  0  0  0  0
    2.2250    1.0833    0.0000 C   0  0  0  0  0  0  0  0  0  0  0  0
    1.8125   -0.1875    0.0000 C   0  0  0  0  0  0  0  0  0  0  0  0
    0.7750    0.8500    0.0000 C   0  0  0  0  0  0  0  0  0  0  0  0
    2.6375   -0.1875    0.0000 C   0  0  3  0  0  0  0  0  0  0  0  0
    2.8917    0.6000    0.0000 C   0  0  0  0  0  0  0  0  0  0  0  0
    3.2667   -2.2667    0.0000 C   0  0  0  0  0  0  0  0  0  0  0  0
    0.6042    1.6583    0.0000 C   0  0  0  0  0  0  0  0  0  0  0  0
    3.1167   -0.8542    0.0000 S   0  0  0  0  0  0  0  0  0  0  0  0
    2.7792   -1.6042    0.0000 C   0  0  0  0  0  0  0  0  0  0  0  0
    4.0875   -2.1792    0.0000 C   0  0  0  0  0  0  0  0  0  0  0  0
    2.2167    1.9083    0.0000 O   0  0  0  0  0  0  0  0  0  0  0  0
    1.3250   -0.8542    0.0000 O   0  0  0  0  0  0  0  0  0  0  0  0
   -0.1833    1.9125    0.0000 C   0  0  0  0  0  0  0  0  0  0  0  0
    4.4167   -1.4250    0.0000 O   0  0  0  0  0  0  0  0  0  0  0  0
    4.5750   -2.8417    0.0000 O   0  0  0  0  0  0  0  0  0  0  0  0
    0.1667    0.3000    0.0000 C   0  0  0  0  0  0  0  0  0  0  0  0
   -0.3500    2.7208    0.0000 Cl  0  0  0  0  0  0  0  0  0  0  0  0
    2.9292   -3.0167    0.0000 C   0  0  0  0  0  0  0  0  0  0  0  0
    1.2167    2.2125    0.0000 C   0  0  0  0  0  0  0  0  0  0  0  0
    1.9625   -1.6875    0.0000 C   0  0  0  0  0  0  0  0  0  0  0  0
   -0.6208    0.5500    0.0000 C   0  0  0  0  0  0  0  0  0  0  0  0
   -0.7958    1.3625    0.0000 C   0  0  0  0  0  0  0  0  0  0  0  0
    2.1042   -3.1042    0.0000 C   0  0  0  0  0  0  0  0  0  0  0  0
    1.6250   -2.4417    0.0000 C   0  0  0  0  0  0  0  0  0  0  0  0
  2  1  1  0  0  0  0
  3  1  1  0  0  0  0
  4  1  1  0  0  0  0
  5  3  1  0  0  0  0
  6  2  1  0  0  0  0
  7 10  1  0  0  0  0
  8  4  2  0  0  0  0
  9  5  1  0  0  0  0
 10  9  1  0  0  0  0
 11  7  1  0  0  0  0
 12  2  2  0  0  0  0
 13  3  2  0  0  0  0
 14  8  1  0  0  0  0
 15 11  2  0  0  0  0
 16 11  1  0  0  0  0
 17  4  1  0  0  0  0
 18 14  1  0  0  0  0
 19  7  2  0  0  0  0
 20  8  1  0  0  0  0
 21 10  2  0  0  0  0
 22 17  2  0  0  0  0
 23 22  1  0  0  0  0
 24 25  2  0  0  0  0
 25 21  1  0  0  0  0
  6  5  1  0  0  0  0
 23 14  2  0  0  0  0
 19 24  1  0  0  0  0
M  END
> <IDNUMBER>
F3019-0039

> <Chemical_Name>
2-{[1-(3-chloro-2-methylphenyl)-2,5-dioxopyrrolidin-3-yl]sulfanyl}benzoic acid

> <CAS>
831209-09-7

> <PriceCoeff>
1.00

> <MW>
375.83

> <Description>
solid

> <FSP3>
0.17

> <clogP>
3.16

> <TPSA>
99.98

> <Acceptor>
4

> <Donor>
0

> <RotBonds>
4

> <HAC>
25

> <Collection>
General

$$$$
F3016-0044
  -ISIS-  06222321152D

 28 30  0  0  0  0  0  0  0  0999 V2000
   -0.7000    2.2250    0.0000 S   0  0  3  0  0  0  0  0  0  0  0  0
   -2.1333    2.2708    0.0000 C   0  0  0  0  0  0  0  0  0  0  0  0
    3.6667    4.5917    0.0000 N   0  0  3  0  0  0  0  0  0  0  0  0
   -1.4333    1.8333    0.0000 N   0  0  0  0  0  0  0  0  0  0  0  0
   -2.9208    2.0500    0.0000 S   0  0  0  0  0  0  0  0  0  0  0  0
   -2.1083    3.0958    0.0000 N   0  0  0  0  0  0  0  0  0  0  0  0
   -2.8833    3.3708    0.0000 N   0  0  0  0  0  0  0  0  0  0  0  0
    4.3417    5.0542    0.0000 C   0  0  0  0  0  0  0  0  0  0  0  0
    3.0042    5.0875    0.0000 C   0  0  0  0  0  0  0  0  0  0  0  0
   -3.3833    2.7333    0.0000 C   0  0  0  0  0  0  0  0  0  0  0  0
    2.9250    3.3750    0.0000 C   0  0  0  0  0  0  0  0  0  0  0  0
    0.0292    2.6125    0.0000 C   0  0  0  0  0  0  0  0  0  0  0  0
    3.6500    3.7708    0.0000 C   0  0  0  0  0  0  0  0  0  0  0  0
   -0.3083    1.4958    0.0000 O   0  0  0  0  0  0  0  0  0  0  0  0
   -1.0875    2.9583    0.0000 O   0  0  0  0  0  0  0  0  0  0  0  0
    2.2125    3.8000    0.0000 N   0  0  0  0  0  0  0  0  0  0  0  0
    3.2792    5.8667    0.0000 C   0  0  0  0  0  0  0  0  0  0  0  0
    4.1042    5.8542    0.0000 C   0  0  0  0  0  0  0  0  0  0  0  0
    2.2167    4.8542    0.0000 O   0  0  0  0  0  0  0  0  0  0  0  0
    5.1250    4.7792    0.0000 O   0  0  0  0  0  0  0  0  0  0  0  0
    2.9042    2.5500    0.0000 O   0  0  0  0  0  0  0  0  0  0  0  0
    0.0542    3.4375    0.0000 C   0  0  0  0  0  0  0  0  0  0  0  0
    0.7292    2.1750    0.0000 C   0  0  0  0  0  0  0  0  0  0  0  0
    1.4792    3.4000    0.0000 C   0  0  0  0  0  0  0  0  0  0  0  0
    1.4625    2.5708    0.0000 C   0  0  0  0  0  0  0  0  0  0  0  0
    0.7792    3.8333    0.0000 C   0  0  0  0  0  0  0  0  0  0  0  0
   -4.2083    2.7833    0.0000 C   0  0  0  0  0  0  0  0  0  0  0  0
   -4.5833    3.5208    0.0000 C   0  0  0  0  0  0  0  0  0  0  0  0
  2  4  1  0  0  0  0
  3 13  1  0  0  0  0
  4  1  1  0  0  0  0
  5  2  1  0  0  0  0
  6  2  2  0  0  0  0
  7  6  1  0  0  0  0
  8  3  1  0  0  0  0
  9  3  1  0  0  0  0
 10  5  1  0  0  0  0
 11 16  1  0  0  0  0
 12  1  1  0  0  0  0
 13 11  1  0  0  0  0
 14  1  2  0  0  0  0
 15  1  2  0  0  0  0
 16 24  1  0  0  0  0
 17  9  1  0  0  0  0
 18  8  1  0  0  0  0
 19  9  2  0  0  0  0
 20  8  2  0  0  0  0
 21 11  2  0  0  0  0
 22 12  1  0  0  0  0
 23 12  2  0  0  0  0
 24 25  2  0  0  0  0
 25 23  1  0  0  0  0
 26 22  2  0  0  0  0
 27 10  1  0  0  0  0
 28 27  1  0  0  0  0
 24 26  1  0  0  0  0
  7 10  2  0  0  0  0
 18 17  1  0  0  0  0
M  END
> <IDNUMBER>
F3016-0044

> <Chemical_Name>
2-(2,5-dioxopyrrolidin-1-yl)-N-{4-[(5-ethyl-1,3,4-thiadiazol-2-yl)sulfamoyl]phenyl}acetamide

> <CAS>
898369-19-2

> <PriceCoeff>
1.00

> <MW>
423.47

> <Description>
solid

> <FSP3>
0.31

> <clogP>
0.62

> <TPSA>
175.05

> <Acceptor>
7

> <Donor>
2

> <RotBonds>
7

> <HAC>
28

> <Collection>
General

$$$$
F0327-0344
  -ISIS-  06222321142D

 33 37  0  0  0  0  0  0  0  0999 V2000
   -0.4000    1.1125    0.0000 C   0  0  0  0  0  0  0  0  0  0  0  0
   -1.7458    0.6500    0.0000 C   0  0  0  0  0  0  0  0  0  0  0  0
   -1.7458    1.5500    0.0000 C   0  0  0  0  0  0  0  0  0  0  0  0
   -0.9125    0.4000    0.0000 N   0  0  0  0  0  0  0  0  0  0  0  0
    4.4167    0.3500    0.0000 N   0  0  3  0  0  0  0  0  0  0  0  0
   -0.9000    1.8125    0.0000 S   0  0  0  0  0  0  0  0  0  0  0  0
    0.4542    1.1125    0.0000 N   0  0  0  0  0  0  0  0  0  0  0  0
    0.9000    0.3500    0.0000 C   0  0  0  0  0  0  0  0  0  0  0  0
    4.9167    1.0125    0.0000 C   0  0  0  0  0  0  0  0  0  0  0  0
    4.9042   -0.3667    0.0000 C   0  0  0  0  0  0  0  0  0  0  0  0
    3.5375    0.3500    0.0000 C   0  0  0  0  0  0  0  0  0  0  0  0
    1.7792    0.3500    0.0000 C   0  0  0  0  0  0  0  0  0  0  0  0
   -2.4208    0.1208    0.0000 C   0  0  0  0  0  0  0  0  0  0  0  0
   -2.4333    2.0833    0.0000 C   0  0  0  0  0  0  0  0  0  0  0  0
    0.4542   -0.4042    0.0000 O   0  0  0  0  0  0  0  0  0  0  0  0
    5.7542   -0.1167    0.0000 C   0  0  0  0  0  0  0  0  0  0  0  0
    5.7500    0.7500    0.0000 C   0  0  0  0  0  0  0  0  0  0  0  0
    4.6000   -1.1875    0.0000 O   0  0  0  0  0  0  0  0  0  0  0  0
    4.6292    1.8625    0.0000 O   0  0  0  0  0  0  0  0  0  0  0  0
    3.1000    1.1125    0.0000 C   0  0  0  0  0  0  0  0  0  0  0  0
    3.1000   -0.4042    0.0000 C   0  0  0  0  0  0  0  0  0  0  0  0
    2.2167    1.1125    0.0000 C   0  0  0  0  0  0  0  0  0  0  0  0
    2.2167   -0.4042    0.0000 C   0  0  0  0  0  0  0  0  0  0  0  0
   -2.3000   -0.7542    0.0000 C   0  0  0  0  0  0  0  0  0  0  0  0
   -3.2458    0.4500    0.0000 C   0  0  0  0  0  0  0  0  0  0  0  0
   -2.3208    2.9625    0.0000 C   0  0  0  0  0  0  0  0  0  0  0  0
   -3.2500    1.7458    0.0000 C   0  0  0  0  0  0  0  0  0  0  0  0
   -3.9458   -0.0875    0.0000 C   0  0  0  0  0  0  0  0  0  0  0  0
   -2.9958   -1.3000    0.0000 C   0  0  0  0  0  0  0  0  0  0  0  0
   -3.9625    2.2708    0.0000 C   0  0  0  0  0  0  0  0  0  0  0  0
   -3.0208    3.5000    0.0000 C   0  0  0  0  0  0  0  0  0  0  0  0
   -3.8208   -0.9667    0.0000 C   0  0  0  0  0  0  0  0  0  0  0  0
   -3.8458    3.1708    0.0000 C   0  0  0  0  0  0  0  0  0  0  0  0
  2  4  1  0  0  0  0
  3  6  1  0  0  0  0
  4  1  2  0  0  0  0
  5 11  1  0  0  0  0
  6  1  1  0  0  0  0
  7  1  1  0  0  0  0
  8  7  1  0  0  0  0
  9  5  1  0  0  0  0
 10  5  1  0  0  0  0
 11 21  2  0  0  0  0
 12  8  1  0  0  0  0
 13  2  1  0  0  0  0
 14  3  1  0  0  0  0
 15  8  2  0  0  0  0
 16 10  1  0  0  0  0
 17  9  1  0  0  0  0
 18 10  2  0  0  0  0
 19  9  2  0  0  0  0
 20 22  2  0  0  0  0
 21 23  1  0  0  0  0
 22 12  1  0  0  0  0
 23 12  2  0  0  0  0
 24 13  1  0  0  0  0
 25 13  2  0  0  0  0
 26 14  2  0  0  0  0
 27 14  1  0  0  0  0
 28 25  1  0  0  0  0
 29 24  2  0  0  0  0
 30 27  2  0  0  0  0
 31 26  1  0  0  0  0
 32 28  2  0  0  0  0
 33 30  1  0  0  0  0
  3  2  2  0  0  0  0
 11 20  1  0  0  0  0
 31 33  2  0  0  0  0
 32 29  1  0  0  0  0
 17 16  1  0  0  0  0
M  END
> <IDNUMBER>
F0327-0344

> <Chemical_Name>
4-(2,5-dioxopyrrolidin-1-yl)-N-(4,5-diphenyl-1,3-thiazol-2-yl)benzamide

> <CAS>
392246-37-6

> <PriceCoeff>
1.00

> <MW>
453.51

> <Description>
solid

> <FSP3>
0.08

> <clogP>
3.62

> <TPSA>
107.61

> <Acceptor>
4

> <Donor>
1

> <RotBonds>
5

> <HAC>
33

> <Collection>
General

$$$$
F0779-0531
  -ISIS-  06222321142D

 31 34  0  0  0  0  0  0  0  0999 V2000
    0.2667    0.4625    0.0000 C   0  0  0  0  0  0  0  0  0  0  0  0
    0.7167   -0.0542    0.0000 C   0  0  0  0  0  0  0  0  0  0  0  0
   -0.3458    0.2333    0.0000 S   0  0  0  0  0  0  0  0  0  0  0  0
    4.3542    0.5833    0.0000 N   0  0  3  0  0  0  0  0  0  0  0  0
   -0.3000   -0.4500    0.0000 C   0  0  0  0  0  0  0  0  0  0  0  0
    0.3500   -0.6292    0.0000 C   0  0  0  0  0  0  0  0  0  0  0  0
    1.3542   -0.0500    0.0000 N   0  0  0  0  0  0  0  0  0  0  0  0
    4.7667    1.1125    0.0000 C   0  0  0  0  0  0  0  0  0  0  0  0
    4.7667    0.0708    0.0000 C   0  0  0  0  0  0  0  0  0  0  0  0
    1.6542    0.5333    0.0000 C   0  0  0  0  0  0  0  0  0  0  0  0
    0.3875    1.1125    0.0000 C   0  0  0  0  0  0  0  0  0  0  0  0
    3.6875    0.5958    0.0000 C   0  0  0  0  0  0  0  0  0  0  0  0
    2.3500    0.5708    0.0000 C   0  0  0  0  0  0  0  0  0  0  0  0
   -0.8125   -0.8875    0.0000 C   0  0  0  0  0  0  0  0  0  0  0  0
    1.3167    1.1208    0.0000 O   0  0  0  0  0  0  0  0  0  0  0  0
    5.4000    0.9000    0.0000 C   0  0  0  0  0  0  0  0  0  0  0  0
    5.3667    0.2625    0.0000 C   0  0  0  0  0  0  0  0  0  0  0  0
    4.5667    1.7958    0.0000 O   0  0  0  0  0  0  0  0  0  0  0  0
    4.5542   -0.6292    0.0000 O   0  0  0  0  0  0  0  0  0  0  0  0
    0.9875    1.2958    0.0000 O   0  0  0  0  0  0  0  0  0  0  0  0
    3.3667    0.0333    0.0000 C   0  0  0  0  0  0  0  0  0  0  0  0
    3.3292    1.1833    0.0000 C   0  0  0  0  0  0  0  0  0  0  0  0
    2.7000   -0.0000    0.0000 C   0  0  0  0  0  0  0  0  0  0  0  0
    2.6542    1.1625    0.0000 C   0  0  0  0  0  0  0  0  0  0  0  0
   -0.1625    1.5125    0.0000 O   0  0  0  0  0  0  0  0  0  0  0  0
   -1.4500   -0.6667    0.0000 C   0  0  0  0  0  0  0  0  0  0  0  0
   -0.7125   -1.5500    0.0000 C   0  0  0  0  0  0  0  0  0  0  0  0
   -0.7625    1.2958    0.0000 C   0  0  0  0  0  0  0  0  0  0  0  0
   -1.9708   -1.0875    0.0000 C   0  0  0  0  0  0  0  0  0  0  0  0
   -1.2125   -1.9667    0.0000 C   0  0  0  0  0  0  0  0  0  0  0  0
   -1.8458   -1.7542    0.0000 C   0  0  0  0  0  0  0  0  0  0  0  0
  2  1  2  0  0  0  0
  3  1  1  0  0  0  0
  4 12  1  0  0  0  0
  5  3  1  0  0  0  0
  6  2  1  0  0  0  0
  7  2  1  0  0  0  0
  8  4  1  0  0  0  0
  9  4  1  0  0  0  0
 10  7  1  0  0  0  0
 11  1  1  0  0  0  0
 12 22  2  0  0  0  0
 13 10  1  0  0  0  0
 14  5  1  0  0  0  0
 15 10  2  0  0  0  0
 16  8  1  0  0  0  0
 17  9  1  0  0  0  0
 18  8  2  0  0  0  0
 19  9  2  0  0  0  0
 20 11  2  0  0  0  0
 21 23  2  0  0  0  0
 22 24  1  0  0  0  0
 23 13  1  0  0  0  0
 24 13  2  0  0  0  0
 25 11  1  0  0  0  0
 26 14  1  0  0  0  0
 27 14  2  0  0  0  0
 28 25  1  0  0  0  0
 29 26  2  0  0  0  0
 30 27  1  0  0  0  0
 31 30  2  0  0  0  0
  6  5  2  0  0  0  0
 29 31  1  0  0  0  0
 12 21  1  0  0  0  0
 16 17  1  0  0  0  0
M  END
> <IDNUMBER>
F0779-0531

> <Chemical_Name>
methyl 3-[4-(2,5-dioxopyrrolidin-1-yl)benzamido]-5-phenylthiophene-2-carboxylate

> <CAS>
477326-56-0

> <PriceCoeff>
1.00

> <MW>
434.46

> <Description>
solid

> <FSP3>
0.13

> <clogP>
3.06

> <TPSA>
121.02

> <Acceptor>
5

> <Donor>
1

> <RotBonds>
6

> <HAC>
31

> <Collection>
General

$$$$
F1799-0449
  -ISIS-  06222321142D

 25 27  0  0  0  0  0  0  0  0999 V2000
    2.1292   -1.0292    0.0000 N   0  0  3  0  0  0  0  0  0  0  0  0
    1.9000   -1.7500    0.0000 C   0  0  0  0  0  0  0  0  0  0  0  0
    1.5250   -0.5917    0.0000 C   0  0  0  0  0  0  0  0  0  0  0  0
    0.9167   -1.0292    0.0000 C   0  0  3  0  0  0  0  0  0  0  0  0
    1.1500   -1.7500    0.0000 C   0  0  0  0  0  0  0  0  0  0  0  0
    0.2042   -0.8042    0.0000 N   0  0  0  0  0  0  0  0  0  0  0  0
   -0.6708    0.1625    0.0000 C   0  0  0  0  0  0  0  0  0  0  0  0
    0.0417   -0.0667    0.0000 N   0  0  0  0  0  0  0  0  0  0  0  0
    2.8417   -0.8042    0.0000 C   0  0  0  0  0  0  0  0  0  0  0  0
    2.3375   -2.3542    0.0000 O   0  0  0  0  0  0  0  0  0  0  0  0
    1.5167    0.1583    0.0000 O   0  0  0  0  0  0  0  0  0  0  0  0
   -0.8208    0.8958    0.0000 C   0  0  0  0  0  0  0  0  0  0  0  0
   -1.2250   -0.3375    0.0000 O   0  0  0  0  0  0  0  0  0  0  0  0
    3.0000   -0.0667    0.0000 C   0  0  0  0  0  0  0  0  0  0  0  0
    3.4000   -1.3042    0.0000 C   0  0  0  0  0  0  0  0  0  0  0  0
   -1.5375    1.1333    0.0000 C   0  0  0  0  0  0  0  0  0  0  0  0
   -0.2708    1.3958    0.0000 C   0  0  0  0  0  0  0  0  0  0  0  0
    4.2667   -0.3375    0.0000 C   0  0  0  0  0  0  0  0  0  0  0  0
    4.1125   -1.0750    0.0000 C   0  0  0  0  0  0  0  0  0  0  0  0
    3.7125    0.1625    0.0000 C   0  0  0  0  0  0  0  0  0  0  0  0
   -0.4208    2.1333    0.0000 C   0  0  0  0  0  0  0  0  0  0  0  0
   -1.6958    1.8625    0.0000 C   0  0  0  0  0  0  0  0  0  0  0  0
   -1.1333    2.3625    0.0000 C   0  0  0  0  0  0  0  0  0  0  0  0
    4.9792   -0.1042    0.0000 Br  0  0  0  0  0  0  0  0  0  0  0  0
   -1.2958    3.0958    0.0000 C   0  0  0  0  0  0  0  0  0  0  0  0
  2  1  1  0  0  0  0
  3  1  1  0  0  0  0
  4  3  1  0  0  0  0
  5  2  1  0  0  0  0
  6  4  1  0  0  0  0
  7  8  1  0  0  0  0
  8  6  1  0  0  0  0
  9  1  1  0  0  0  0
 10  2  2  0  0  0  0
 11  3  2  0  0  0  0
 12  7  1  0  0  0  0
 13  7  2  0  0  0  0
 14  9  2  0  0  0  0
 15  9  1  0  0  0  0
 16 12  2  0  0  0  0
 17 12  1  0  0  0  0
 18 19  1  0  0  0  0
 19 15  2  0  0  0  0
 20 14  1  0  0  0  0
 21 17  2  0  0  0  0
 22 16  1  0  0  0  0
 23 21  1  0  0  0  0
 24 18  1  0  0  0  0
 25 23  1  0  0  0  0
  5  4  1  0  0  0  0
 20 18  2  0  0  0  0
 22 23  2  0  0  0  0
M  END
> <IDNUMBER>
F1799-0449

> <Chemical_Name>
N'-[1-(4-bromophenyl)-2,5-dioxopyrrolidin-3-yl]-4-methylbenzohydrazide

> <CAS>
485394-65-8

> <PriceCoeff>
1.00

> <MW>
402.24

> <Description>
solid

> <FSP3>
0.17

> <clogP>
3.47

> <TPSA>
78.51

> <Acceptor>
3

> <Donor>
2

> <RotBonds>
4

> <HAC>
25

> <Collection>
General

$$$$
F0239-0433
  -ISIS-  06222321142D

 26 28  0  0  0  0  0  0  0  0999 V2000
    3.2125   -1.0042    0.0000 C   0  0  0  0  0  0  0  0  0  0  0  0
    2.9542   -0.2292    0.0000 C   0  0  0  0  0  0  0  0  0  0  0  0
    3.6417    0.2583    0.0000 N   0  0  0  0  0  0  0  0  0  0  0  0
    2.7292   -1.6917    0.0000 C   0  0  0  0  0  0  0  0  0  0  0  0
    4.0375   -1.0250    0.0000 S   0  0  0  0  0  0  0  0  0  0  0  0
   -0.1208    0.9208    0.0000 N   0  3  0  0  0  0  0  0  0  0  0  0
    4.2917   -0.2500    0.0000 C   0  0  0  0  0  0  0  0  0  0  0  0
    3.0667   -2.4417    0.0000 N   0  0  0  0  0  0  0  0  0  0  0  0
    2.1875    0.0583    0.0000 C   0  0  0  0  0  0  0  0  0  0  0  0
    0.6542    0.6333    0.0000 C   0  0  0  0  0  0  0  0  0  0  0  0
   -0.2583    1.7333    0.0000 O   0  5  0  0  0  0  0  0  0  0  0  0
   -0.7583    0.3958    0.0000 O   0  0  0  0  0  0  0  0  0  0  0  0
    1.9000   -1.6000    0.0000 O   0  0  0  0  0  0  0  0  0  0  0  0
    3.9000   -2.5292    0.0000 C   0  0  0  0  0  0  0  0  0  0  0  0
    4.3792   -1.8667    0.0000 C   0  0  0  0  0  0  0  0  0  0  0  0
    1.2875    1.1583    0.0000 C   0  0  0  0  0  0  0  0  0  0  0  0
    0.7917   -0.1792    0.0000 C   0  0  0  0  0  0  0  0  0  0  0  0
    2.0417    0.8625    0.0000 C   0  0  0  0  0  0  0  0  0  0  0  0
    1.5750   -0.4625    0.0000 C   0  0  0  0  0  0  0  0  0  0  0  0
    5.1917   -1.9542    0.0000 C   0  0  0  0  0  0  0  0  0  0  0  0
    5.1042   -0.0125    0.0000 C   0  0  0  0  0  0  0  0  0  0  0  0
    5.7000   -1.2917    0.0000 O   0  0  0  0  0  0  0  0  0  0  0  0
    5.0292   -3.3792    0.0000 C   0  0  0  0  0  0  0  0  0  0  0  0
    4.2167   -3.2917    0.0000 C   0  0  0  0  0  0  0  0  0  0  0  0
    5.5292   -2.7125    0.0000 C   0  0  0  0  0  0  0  0  0  0  0  0
    5.3542   -0.5292    0.0000 C   0  0  0  0  0  0  0  0  0  0  0  0
  2  1  2  0  0  0  0
  3  2  1  0  0  0  0
  4  1  1  0  0  0  0
  5  1  1  0  0  0  0
  6 10  1  0  0  0  0
  7  5  1  0  0  0  0
  8  4  1  0  0  0  0
  9  2  1  0  0  0  0
 10 17  1  0  0  0  0
 11  6  1  0  0  0  0
 12  6  2  0  0  0  0
 13  4  2  0  0  0  0
 14  8  1  0  0  0  0
 15 14  1  0  0  0  0
 16 18  1  0  0  0  0
 17 19  2  0  0  0  0
 18  9  2  0  0  0  0
 19  9  1  0  0  0  0
 20 15  2  0  0  0  0
 21  7  1  0  0  0  0
 22 20  1  0  0  0  0
 23 24  1  0  0  0  0
 24 14  2  0  0  0  0
 25 23  2  0  0  0  0
 26 22  1  0  0  0  0
  7  3  2  0  0  0  0
 16 10  2  0  0  0  0
 20 25  1  0  0  0  0
M  CHG  2   6   1  11  -1
M  END
> <IDNUMBER>
F0239-0433

> <Chemical_Name>
N-(3-methoxyphenyl)-2-methyl-4-(4-nitrophenyl)-1,3-thiazole-5-carboxamide

> <CAS>
303793-12-6

> <PriceCoeff>
1.00

> <MW>
369.39

> <Description>
solid

> <FSP3>
0.11

> <clogP>
3.58

> <TPSA>
122.60

> <Acceptor>
5

> <Donor>
1

> <RotBonds>
5

> <HAC>
26

> <Collection>
General

> <Reference_compound>
CHEMBL2289414

> <Similarity>
0.8650

$$$$
F2547-0088
  -ISIS-  06222321442D

 25 26  0  0  0  0  0  0  0  0999 V2000
   -0.3208    1.7125    0.0000 S   0  0  3  0  0  0  0  0  0  0  0  0
   -3.9583    2.9583    0.0000 S   0  0  3  0  0  0  0  0  0  0  0  0
    2.3167    1.4708    0.0000 C   0  0  0  0  0  0  0  0  0  0  0  0
    3.1417    2.0500    0.0000 N   0  3  0  0  0  0  0  0  0  0  0  0
   -1.4833    2.2500    0.0000 N   0  0  3  0  0  0  0  0  0  0  0  0
    0.5917    1.3000    0.0000 C   0  0  0  0  0  0  0  0  0  0  0  0
    1.4042    1.8958    0.0000 C   0  0  0  0  0  0  0  0  0  0  0  0
   -3.5208    2.3958    0.0000 C   0  0  0  0  0  0  0  0  0  0  0  0
   -2.7958    2.5833    0.0000 C   0  0  3  0  0  0  0  0  0  0  0  0
    0.2667    2.7250    0.0000 O   0  0  0  0  0  0  0  0  0  0  0  0
   -1.1333    0.7875    0.0000 O   0  0  0  0  0  0  0  0  0  0  0  0
    2.4167    0.4625    0.0000 C   0  0  0  0  0  0  0  0  0  0  0  0
   -4.1625    2.2375    0.0000 O   0  0  0  0  0  0  0  0  0  0  0  0
   -4.5625    3.4833    0.0000 O   0  0  0  0  0  0  0  0  0  0  0  0
   -3.1083    3.8333    0.0000 C   0  0  0  0  0  0  0  0  0  0  0  0
    4.0625    1.6333    0.0000 O   0  5  0  0  0  0  0  0  0  0  0  0
    3.0500    3.0500    0.0000 O   0  0  0  0  0  0  0  0  0  0  0  0
   -3.8375    3.6500    0.0000 C   0  0  0  0  0  0  0  0  0  0  0  0
    0.6875    0.3083    0.0000 C   0  0  0  0  0  0  0  0  0  0  0  0
    1.6042   -0.1167    0.0000 C   0  0  0  0  0  0  0  0  0  0  0  0
    3.3292    0.0458    0.0000 Cl  0  0  0  0  0  0  0  0  0  0  0  0
   -1.1458    3.2083    0.0000 C   0  0  0  0  0  0  0  0  0  0  0  0
   -1.7958    3.9583    0.0000 C   0  0  0  0  0  0  0  0  0  0  0  0
   -1.4625    4.9042    0.0000 C   0  0  0  0  0  0  0  0  0  0  0  0
   -2.2958    5.4667    0.0000 C   0  0  0  0  0  0  0  0  0  0  0  0
  2  8  1  0  0  0  0
  3  7  1  0  0  0  0
  4  3  1  0  0  0  0
  5  1  1  0  0  0  0
  6  1  1  0  0  0  0
  7  6  2  0  0  0  0
  8  9  1  0  0  0  0
  9  5  1  0  0  0  0
 10  1  2  0  0  0  0
 11  1  2  0  0  0  0
 12 20  1  0  0  0  0
 13  2  2  0  0  0  0
 14  2  2  0  0  0  0
 15  9  1  0  0  0  0
 16  4  1  0  0  0  0
 17  4  2  0  0  0  0
 18 15  1  0  0  0  0
 19  6  1  0  0  0  0
 20 19  2  0  0  0  0
 21 12  1  0  0  0  0
 22  5  1  0  0  0  0
 23 22  1  0  0  0  0
 24 23  1  0  0  0  0
 25 24  1  0  0  0  0
  3 12  2  0  0  0  0
  2 18  1  0  0  0  0
M  CHG  2   4   1  16  -1
M  END
> <IDNUMBER>
F2547-0088

> <Chemical_Name>
N-butyl-4-chloro-N-(1,1-dioxo-1lambda6-thiolan-3-yl)-3-nitrobenzene-1-sulfonamide

> <CAS>
874787-98-1

> <PriceCoeff>
1.00

> <MW>
410.89

> <Description>
solid

> <FSP3>
0.57

> <clogP>
2.12

> <TPSA>
131.42

> <Acceptor>
6

> <Donor>
0

> <RotBonds>
7

> <HAC>
25

> <Collection>
General

$$$$
F1284-0695
  -ISIS-  06222321442D

 21 24  0  0  0  0  0  0  0  0999 V2000
    3.2042   -0.4292    0.0000 C   0  0  3  0  0  0  0  0  0  0  0  0
    3.2042   -1.0167    0.0000 C   0  0  3  0  0  0  0  0  0  0  0  0
    2.1792   -1.0042    0.0000 C   0  0  3  0  0  0  0  0  0  0  0  0
    2.6875   -1.3042    0.0000 C   0  0  3  0  0  0  0  0  0  0  0  0
    1.6792   -1.3042    0.0000 C   0  0  3  0  0  0  0  0  0  0  0  0
    3.7542   -0.2500    0.0000 C   0  0  3  0  0  0  0  0  0  0  0  0
    2.7000   -0.1250    0.0000 C   0  0  0  0  0  0  0  0  0  0  0  0
    2.1917   -0.4125    0.0000 C   0  0  0  0  0  0  0  0  0  0  0  0
    3.7542   -1.2000    0.0000 C   0  0  0  0  0  0  0  0  0  0  0  0
    2.6875   -1.9000    0.0000 C   0  0  0  0  0  0  0  0  0  0  0  0
    1.6792   -1.8792    0.0000 C   0  0  3  0  0  0  0  0  0  0  0  0
    4.1000   -0.7167    0.0000 C   0  0  0  0  0  0  0  0  0  0  0  0
    2.1792   -2.1875    0.0000 C   0  0  0  0  0  0  0  0  0  0  0  0
    3.9917    0.3083    0.0000 O   0  0  0  0  0  0  0  0  0  0  0  0
    3.2250    0.1625    0.0000 C   0  0  0  0  0  0  0  0  0  0  0  0
    1.6792   -0.7167    0.0000 C   0  0  0  0  0  0  0  0  0  0  0  0
    1.1542   -1.0042    0.0000 C   0  0  0  0  0  0  0  0  0  0  0  0
    4.3292   -0.0667    0.0000 C   0  0  0  0  0  0  0  0  0  0  0  0
    1.1542   -2.1875    0.0000 C   0  0  0  0  0  0  0  0  0  0  0  0
    0.6542   -1.3042    0.0000 C   0  0  0  0  0  0  0  0  0  0  0  0
    0.6542   -1.8792    0.0000 C   0  0  0  0  0  0  0  0  0  0  0  0
  2  1  1  0  0  0  0
  3  8  1  0  0  0  0
  4  2  1  0  0  0  0
  5  3  1  0  0  0  0
  6  1  1  0  0  0  0
  7  1  1  0  0  0  0
  8  7  1  0  0  0  0
  9  2  1  0  0  0  0
 10  4  1  0  0  0  0
 11  5  1  0  0  0  0
 12  6  1  0  0  0  0
 13 10  1  0  0  0  0
 14  6  1  0  0  0  0
 15  1  1  0  0  0  0
 16  5  1  0  0  0  0
 17  5  1  0  0  0  0
 18  6  1  0  0  0  0
 19 11  1  0  0  0  0
 20 17  1  0  0  0  0
 21 20  1  0  0  0  0
 12  9  1  0  0  0  0
  4  3  1  0  0  0  0
 13 11  1  0  0  0  0
 19 21  1  0  0  0  0
M  END
> <IDNUMBER>
F1284-0695

> <Chemical_Name>
2,14,15-trimethyltetracyclo[8.7.0.0^{2,7}.0^{11,15}]heptadecan-14-ol

> <CAS>


> <PriceCoeff>
1.00

> <MW>
290.48

> <Description>
solid

> <FSP3>
1.00

> <clogP>
6.56

> <TPSA>
20.23

> <Acceptor>
1

> <Donor>
1

> <RotBonds>
0

> <HAC>
21

> <Collection>
General

> <Reference_compound>
CHEMBL486208

> <Similarity>
0.8650

$$$$
F0838-0514
  -ISIS-  06222321142D

 25 27  0  0  0  0  0  0  0  0999 V2000
   -0.1333    0.4375    0.0000 C   0  0  0  0  0  0  0  0  0  0  0  0
    1.8167    0.0625    0.0000 C   0  0  0  0  0  0  0  0  0  0  0  0
    1.1542   -1.0625    0.0000 N   0  3  0  0  0  0  0  0  0  0  0  0
    1.8125   -0.6875    0.0000 C   0  0  0  0  0  0  0  0  0  0  0  0
    1.1667    0.4458    0.0000 C   0  0  0  0  0  0  0  0  0  0  0  0
   -0.1333    1.1875    0.0000 N   0  0  0  0  0  0  0  0  0  0  0  0
    0.5167    0.0625    0.0000 N   0  0  0  0  0  0  0  0  0  0  0  0
   -0.7833    0.0625    0.0000 S   0  0  0  0  0  0  0  0  0  0  0  0
   -1.4333    0.4458    0.0000 C   0  0  0  0  0  0  0  0  0  0  0  0
   -1.4333    1.1875    0.0000 C   0  0  0  0  0  0  0  0  0  0  0  0
    2.4542   -1.0625    0.0000 C   0  0  0  0  0  0  0  0  0  0  0  0
    2.4542    0.4375    0.0000 C   0  0  0  0  0  0  0  0  0  0  0  0
   -2.0750    0.0708    0.0000 C   0  0  0  0  0  0  0  0  0  0  0  0
    0.5042   -0.6875    0.0000 O   0  5  0  0  0  0  0  0  0  0  0  0
    1.1542   -1.8167    0.0000 O   0  0  0  0  0  0  0  0  0  0  0  0
    1.1542    1.1875    0.0000 O   0  0  0  0  0  0  0  0  0  0  0  0
   -2.0750    1.5625    0.0000 C   0  0  0  0  0  0  0  0  0  0  0  0
    3.1125   -0.6875    0.0000 C   0  0  0  0  0  0  0  0  0  0  0  0
   -2.7208    0.4375    0.0000 C   0  0  0  0  0  0  0  0  0  0  0  0
    3.1042    0.0708    0.0000 C   0  0  0  0  0  0  0  0  0  0  0  0
   -2.7208    1.1875    0.0000 C   0  0  0  0  0  0  0  0  0  0  0  0
    3.7542   -1.0542    0.0000 Cl  0  0  0  0  0  0  0  0  0  0  0  0
   -3.3708    0.0583    0.0000 O   0  0  0  0  0  0  0  0  0  0  0  0
   -3.3708   -0.6917    0.0000 C   0  0  0  0  0  0  0  0  0  0  0  0
   -4.0208   -1.0667    0.0000 C   0  0  0  0  0  0  0  0  0  0  0  0
  2  5  1  0  0  0  0
  3  4  1  0  0  0  0
  4  2  2  0  0  0  0
  5  7  1  0  0  0  0
  6  1  2  0  0  0  0
  7  1  1  0  0  0  0
  8  1  1  0  0  0  0
  9  8  1  0  0  0  0
 10  6  1  0  0  0  0
 11  4  1  0  0  0  0
 12  2  1  0  0  0  0
 13  9  1  0  0  0  0
 14  3  1  0  0  0  0
 15  3  2  0  0  0  0
 16  5  2  0  0  0  0
 17 10  1  0  0  0  0
 18 20  1  0  0  0  0
 19 13  2  0  0  0  0
 20 12  2  0  0  0  0
 21 17  2  0  0  0  0
 22 18  1  0  0  0  0
 23 19  1  0  0  0  0
 24 23  1  0  0  0  0
 25 24  1  0  0  0  0
  9 10  2  0  0  0  0
 19 21  1  0  0  0  0
 11 18  2  0  0  0  0
M  CHG  2   3   1  14  -1
M  END
> <IDNUMBER>
F0838-0514

> <Chemical_Name>
4-chloro-N-(6-ethoxy-1,3-benzothiazol-2-yl)-2-nitrobenzamide

> <CAS>
362489-07-4

> <PriceCoeff>
1.00

> <MW>
377.80

> <Description>
solid

> <FSP3>
0.12

> <clogP>
3.97

> <TPSA>
122.60

> <Acceptor>
5

> <Donor>
1

> <RotBonds>
5

> <HAC>
25

> <Collection>
General

$$$$
F3205-0093
  -ISIS-  06222321152D

 27 29  0  0  0  0  0  0  0  0999 V2000
    2.3625    0.6208    0.0000 N   0  0  3  0  0  0  0  0  0  0  0  0
    2.8542    1.2875    0.0000 C   0  0  0  0  0  0  0  0  0  0  0  0
    2.8417   -0.0542    0.0000 C   0  0  0  0  0  0  0  0  0  0  0  0
    3.6375    0.1958    0.0000 C   0  0  3  0  0  0  0  0  0  0  0  0
    3.6417    1.0250    0.0000 C   0  0  0  0  0  0  0  0  0  0  0  0
    5.7792   -0.2167    0.0000 C   0  0  0  0  0  0  0  0  0  0  0  0
    4.3500   -0.2167    0.0000 S   0  0  0  0  0  0  0  0  0  0  0  0
    5.0667    0.1875    0.0000 C   0  0  0  0  0  0  0  0  0  0  0  0
    5.7792   -1.0500    0.0000 C   0  0  0  0  0  0  0  0  0  0  0  0
    1.5375    0.6333    0.0000 C   0  0  0  0  0  0  0  0  0  0  0  0
    2.6042    2.0833    0.0000 O   0  0  0  0  0  0  0  0  0  0  0  0
    2.5792   -0.8375    0.0000 O   0  0  0  0  0  0  0  0  0  0  0  0
   -0.1083    0.6458    0.0000 C   0  0  0  0  0  0  0  0  0  0  0  0
   -0.9333    0.6500    0.0000 N   0  0  3  0  0  0  0  0  0  0  0  0
    5.0667   -1.4625    0.0000 O   0  0  0  0  0  0  0  0  0  0  0  0
    1.1250   -0.0792    0.0000 C   0  0  0  0  0  0  0  0  0  0  0  0
    1.1292    1.3500    0.0000 C   0  0  0  0  0  0  0  0  0  0  0  0
    0.3125    1.3583    0.0000 C   0  0  0  0  0  0  0  0  0  0  0  0
    0.3000   -0.0750    0.0000 C   0  0  0  0  0  0  0  0  0  0  0  0
    6.4917   -1.4625    0.0000 O   0  0  0  0  0  0  0  0  0  0  0  0
    6.4917    0.1875    0.0000 C   0  0  0  0  0  0  0  0  0  0  0  0
    5.0667    1.0208    0.0000 C   0  0  0  0  0  0  0  0  0  0  0  0
   -1.3583   -0.0542    0.0000 C   0  0  0  0  0  0  0  0  0  0  0  0
   -1.3458    1.3708    0.0000 C   0  0  0  0  0  0  0  0  0  0  0  0
    6.4917   -2.2875    0.0000 C   0  0  0  0  0  0  0  0  0  0  0  0
    6.4917    1.0208    0.0000 C   0  0  0  0  0  0  0  0  0  0  0  0
    5.7792    1.4333    0.0000 C   0  0  0  0  0  0  0  0  0  0  0  0
  2  1  1  0  0  0  0
  3  1  1  0  0  0  0
  4  3  1  0  0  0  0
  5  2  1  0  0  0  0
  6  8  1  0  0  0  0
  7  4  1  0  0  0  0
  8  7  1  0  0  0  0
  9  6  1  0  0  0  0
 10  1  1  0  0  0  0
 11  2  2  0  0  0  0
 12  3  2  0  0  0  0
 13 18  2  0  0  0  0
 14 13  1  0  0  0  0
 15  9  2  0  0  0  0
 16 10  1  0  0  0  0
 17 10  2  0  0  0  0
 18 17  1  0  0  0  0
 19 16  2  0  0  0  0
 20  9  1  0  0  0  0
 21  6  2  0  0  0  0
 22  8  2  0  0  0  0
 23 14  1  0  0  0  0
 24 14  1  0  0  0  0
 25 20  1  0  0  0  0
 26 27  2  0  0  0  0
 27 22  1  0  0  0  0
  5  4  1  0  0  0  0
 13 19  1  0  0  0  0
 26 21  1  0  0  0  0
M  END
> <IDNUMBER>
F3205-0093

> <Chemical_Name>
methyl 2-({1-[4-(dimethylamino)phenyl]-2,5-dioxopyrrolidin-3-yl}sulfanyl)benzoate

> <CAS>
881485-09-2

> <PriceCoeff>
1.00

> <MW>
384.45

> <Description>
solid

> <FSP3>
0.25

> <clogP>
3.20

> <TPSA>
92.22

> <Acceptor>
5

> <Donor>
1

> <RotBonds>
6

> <HAC>
27

> <Collection>
General

$$$$
F3228-0173
  -ISIS-  06222321462D

 20 22  0  0  0  0  0  0  0  0999 V2000
    5.2417   -0.1167    0.0000 C   0  0  0  0  0  0  0  0  0  0  0  0
    4.7417   -0.4125    0.0000 C   0  0  0  0  0  0  0  0  0  0  0  0
    5.2417    0.4708    0.0000 C   0  0  0  0  0  0  0  0  0  0  0  0
    4.2292   -0.1167    0.0000 C   0  0  0  0  0  0  0  0  0  0  0  0
    4.7375    0.7625    0.0000 O   0  0  0  0  0  0  0  0  0  0  0  0
    4.2292    0.4708    0.0000 C   0  0  0  0  0  0  0  0  0  0  0  0
    5.7542   -0.4125    0.0000 C   0  0  0  0  0  0  0  0  0  0  0  0
    3.7250    0.7583    0.0000 C   0  0  0  0  0  0  0  0  0  0  0  0
    3.7250   -0.4167    0.0000 C   0  0  0  0  0  0  0  0  0  0  0  0
    5.7542    0.7625    0.0000 O   0  0  0  0  0  0  0  0  0  0  0  0
    4.7417   -1.0000    0.0000 O   0  0  0  0  0  0  0  0  0  0  0  0
    5.7542   -1.0000    0.0000 C   0  0  0  0  0  0  0  0  0  0  0  0
    6.2625   -0.1167    0.0000 C   0  0  0  0  0  0  0  0  0  0  0  0
    3.2167    0.4625    0.0000 C   0  0  0  0  0  0  0  0  0  0  0  0
    3.2167   -0.1250    0.0000 C   0  0  0  0  0  0  0  0  0  0  0  0
    6.7750   -0.9917    0.0000 C   0  0  0  0  0  0  0  0  0  0  0  0
    6.7667   -0.4042    0.0000 C   0  0  0  0  0  0  0  0  0  0  0  0
    6.2625   -1.2917    0.0000 C   0  0  0  0  0  0  0  0  0  0  0  0
    7.2792   -1.2917    0.0000 Cl  0  0  0  0  0  0  0  0  0  0  0  0
    2.7042    0.7583    0.0000 O   0  0  0  0  0  0  0  0  0  0  0  0
  2  1  2  0  0  0  0
  3  1  1  0  0  0  0
  4  2  1  0  0  0  0
  5  3  1  0  0  0  0
  6  5  1  0  0  0  0
  7  1  1  0  0  0  0
  8  6  2  0  0  0  0
  9  4  2  0  0  0  0
 10  3  2  0  0  0  0
 11  2  1  0  0  0  0
 12  7  2  0  0  0  0
 13  7  1  0  0  0  0
 14  8  1  0  0  0  0
 15  9  1  0  0  0  0
 16 17  1  0  0  0  0
 17 13  2  0  0  0  0
 18 12  1  0  0  0  0
 19 16  1  0  0  0  0
 20 14  1  0  0  0  0
 16 18  2  0  0  0  0
  6  4  1  0  0  0  0
 14 15  2  0  0  0  0
M  END
> <IDNUMBER>
F3228-0173

> <Chemical_Name>
3-(4-chlorophenyl)-4,7-dihydroxy-2H-chromen-2-one

> <CAS>
890634-62-5

> <PriceCoeff>
1.00

> <MW>
288.68

> <Description>
solid

> <FSP3>
0.00

> <clogP>
3.85

> <TPSA>
66.76

> <Acceptor>
4

> <Donor>
2

> <RotBonds>
1

> <HAC>
20

> <Collection>
General

$$$$
F3023-0449
  -ISIS-  06222321152D

 25 27  0  0  0  0  0  0  0  0999 V2000
    3.3167   -5.2167    0.0000 N   0  0  3  0  0  0  0  0  0  0  0  0
    3.8125   -5.8792    0.0000 C   0  0  0  0  0  0  0  0  0  0  0  0
    3.8042   -4.5417    0.0000 C   0  0  0  0  0  0  0  0  0  0  0  0
    4.5917   -5.6167    0.0000 C   0  0  3  0  0  0  0  0  0  0  0  0
    4.5917   -4.7917    0.0000 C   0  0  0  0  0  0  0  0  0  0  0  0
    6.6792   -6.2500    0.0000 C   0  0  0  0  0  0  0  0  0  0  0  0
    5.2625   -6.1042    0.0000 S   0  0  0  0  0  0  0  0  0  0  0  0
    6.0167   -5.7667    0.0000 C   0  0  0  0  0  0  0  0  0  0  0  0
    6.6000   -7.0667    0.0000 C   0  0  0  0  0  0  0  0  0  0  0  0
    2.4917   -5.2167    0.0000 C   0  0  0  0  0  0  0  0  0  0  0  0
    3.5542   -6.6667    0.0000 O   0  0  0  0  0  0  0  0  0  0  0  0
    3.5417   -3.7625    0.0000 O   0  0  0  0  0  0  0  0  0  0  0  0
    7.2667   -7.5542    0.0000 O   0  0  0  0  0  0  0  0  0  0  0  0
    2.0792   -4.5042    0.0000 C   0  0  0  0  0  0  0  0  0  0  0  0
    5.8417   -7.4042    0.0000 O   0  0  0  0  0  0  0  0  0  0  0  0
    7.4375   -5.9125    0.0000 C   0  0  0  0  0  0  0  0  0  0  0  0
    1.2542   -4.5042    0.0000 C   0  0  0  0  0  0  0  0  0  0  0  0
    6.0917   -4.9500    0.0000 C   0  0  0  0  0  0  0  0  0  0  0  0
    0.8417   -3.8000    0.0000 C   0  0  0  0  0  0  0  0  0  0  0  0
    0.8500   -5.2292    0.0000 C   0  0  0  0  0  0  0  0  0  0  0  0
    7.5167   -5.0875    0.0000 C   0  0  0  0  0  0  0  0  0  0  0  0
    6.8417   -4.6042    0.0000 C   0  0  0  0  0  0  0  0  0  0  0  0
    0.0292   -5.2375    0.0000 C   0  0  0  0  0  0  0  0  0  0  0  0
    0.0167   -3.8042    0.0000 C   0  0  0  0  0  0  0  0  0  0  0  0
   -0.3958   -4.5167    0.0000 C   0  0  0  0  0  0  0  0  0  0  0  0
  2  1  1  0  0  0  0
  3  1  1  0  0  0  0
  4  2  1  0  0  0  0
  5  3  1  0  0  0  0
  6  8  2  0  0  0  0
  7  4  1  0  0  0  0
  8  7  1  0  0  0  0
  9  6  1  0  0  0  0
 10  1  1  0  0  0  0
 11  2  2  0  0  0  0
 12  3  2  0  0  0  0
 13  9  2  0  0  0  0
 14 10  1  0  0  0  0
 15  9  1  0  0  0  0
 16  6  1  0  0  0  0
 17 14  1  0  0  0  0
 18  8  1  0  0  0  0
 19 17  2  0  0  0  0
 20 17  1  0  0  0  0
 21 22  1  0  0  0  0
 22 18  2  0  0  0  0
 23 20  2  0  0  0  0
 24 19  1  0  0  0  0
 25 23  1  0  0  0  0
  5  4  1  0  0  0  0
 25 24  2  0  0  0  0
 21 16  2  0  0  0  0
M  END
> <IDNUMBER>
F3023-0449

> <Chemical_Name>
2-{[2,5-dioxo-1-(2-phenylethyl)pyrrolidin-3-yl]sulfanyl}benzoic acid

> <CAS>
838884-74-5

> <PriceCoeff>
1.00

> <MW>
355.41

> <Description>
solid

> <FSP3>
0.21

> <clogP>
3.34

> <TPSA>
99.98

> <Acceptor>
4

> <Donor>
0

> <RotBonds>
6

> <HAC>
25

> <Collection>
General

$$$$
F2567-0077
  -ISIS-  06222321442D

 28 30  0  0  0  0  0  0  0  0999 V2000
   -5.2208    6.2792    0.0000 N   0  3  0  0  0  0  0  0  0  0  0  0
   -5.2208    5.4542    0.0000 C   0  0  0  0  0  0  0  0  0  0  0  0
    0.6792    1.8750    0.0000 C   0  0  0  0  0  0  0  0  0  0  0  0
   -3.0375    2.5583    0.0000 C   0  0  0  0  0  0  0  0  0  0  0  0
   -2.3333    2.9833    0.0000 C   0  0  0  0  0  0  0  0  0  0  0  0
    1.3250    1.5000    0.0000 N   0  0  3  0  0  0  0  0  0  0  0  0
   -3.7583    3.8000    0.0000 C   0  0  0  0  0  0  0  0  0  0  0  0
   -1.6208    2.5583    0.0000 C   0  0  0  0  0  0  0  0  0  0  0  0
    0.6792    2.6250    0.0000 N   0  0  0  0  0  0  0  0  0  0  0  0
   -4.4875    5.0292    0.0000 C   0  0  0  0  0  0  0  0  0  0  0  0
   -3.7583    2.9708    0.0000 O   0  0  0  0  0  0  0  0  0  0  0  0
   -3.0375    1.7333    0.0000 C   0  0  0  0  0  0  0  0  0  0  0  0
   -4.4833    4.2042    0.0000 C   0  0  0  0  0  0  0  0  0  0  0  0
   -1.6208    1.7333    0.0000 C   0  0  0  0  0  0  0  0  0  0  0  0
   -2.3333    1.3250    0.0000 O   0  0  0  0  0  0  0  0  0  0  0  0
   -0.0083    1.4708    0.0000 S   0  0  0  0  0  0  0  0  0  0  0  0
   -5.9333    5.0167    0.0000 C   0  0  0  0  0  0  0  0  0  0  0  0
    1.9750    2.6250    0.0000 C   0  0  0  0  0  0  0  0  0  0  0  0
   -4.5083    6.7042    0.0000 O   0  5  0  0  0  0  0  0  0  0  0  0
   -5.9458    6.6917    0.0000 O   0  0  0  0  0  0  0  0  0  0  0  0
    1.9750    1.8750    0.0000 C   0  0  0  0  0  0  0  0  0  0  0  0
   -3.0458    4.2125    0.0000 O   0  0  0  0  0  0  0  0  0  0  0  0
   -2.3333    3.8000    0.0000 O   0  0  0  0  0  0  0  0  0  0  0  0
   -5.1958    3.7958    0.0000 C   0  0  0  0  0  0  0  0  0  0  0  0
   -5.9250    4.1875    0.0000 C   0  0  0  0  0  0  0  0  0  0  0  0
   -0.7208    1.8833    0.0000 C   0  0  0  0  0  0  0  0  0  0  0  0
   -6.6417    5.4292    0.0000 Cl  0  0  0  0  0  0  0  0  0  0  0  0
    1.3250    0.7500    0.0000 C   0  0  0  0  0  0  0  0  0  0  0  0
  2  1  1  0  0  0  0
  3 16  1  0  0  0  0
  4 11  1  0  0  0  0
  5  4  1  0  0  0  0
  6  3  1  0  0  0  0
  7 13  1  0  0  0  0
  8  5  1  0  0  0  0
  9  3  2  0  0  0  0
 10  2  2  0  0  0  0
 11  7  1  0  0  0  0
 12  4  2  0  0  0  0
 13 10  1  0  0  0  0
 14 15  1  0  0  0  0
 15 12  1  0  0  0  0
 16 26  1  0  0  0  0
 17  2  1  0  0  0  0
 18  9  1  0  0  0  0
 19  1  1  0  0  0  0
 20  1  2  0  0  0  0
 21  6  1  0  0  0  0
 22  7  2  0  0  0  0
 23  5  2  0  0  0  0
 24 25  1  0  0  0  0
 25 17  2  0  0  0  0
 26 14  1  0  0  0  0
 27 17  1  0  0  0  0
 28  6  1  0  0  0  0
 13 24  2  0  0  0  0
  8 14  2  0  0  0  0
 21 18  2  0  0  0  0
M  CHG  2   1   1  19  -1
M  END
> <IDNUMBER>
F2567-0077

> <Chemical_Name>
6-{[(1-methyl-1H-imidazol-2-yl)sulfanyl]methyl}-4-oxo-4H-pyran-3-yl 4-chloro-3-nitrobenzoate

> <CAS>
896310-01-3

> <PriceCoeff>
1.00

> <MW>
421.81

> <Description>
solid

> <FSP3>
0.12

> <clogP>
2.38

> <TPSA>
138.86

> <Acceptor>
7

> <Donor>
1

> <RotBonds>
7

> <HAC>
28

> <Collection>
General

$$$$
F0866-0364
  -ISIS-  06222321452D

 30 34  0  0  0  0  0  0  0  0999 V2000
    2.7375    1.2625    0.0000 N   0  0  3  0  0  0  0  0  0  0  0  0
   -1.2208   -0.0542    0.0000 C   0  0  0  0  0  0  0  0  0  0  0  0
   -1.5833   -0.7167    0.0000 N   0  0  0  0  0  0  0  0  0  0  0  0
   -0.4833    0.0833    0.0000 N   0  0  0  0  0  0  0  0  0  0  0  0
   -2.3208   -0.6000    0.0000 C   0  0  0  0  0  0  0  0  0  0  0  0
   -0.2208    0.7833    0.0000 C   0  0  0  0  0  0  0  0  0  0  0  0
    3.0875    1.9208    0.0000 C   0  0  0  0  0  0  0  0  0  0  0  0
    3.2792    0.7500    0.0000 C   0  0  0  0  0  0  0  0  0  0  0  0
   -1.7458    0.4833    0.0000 S   0  0  0  0  0  0  0  0  0  0  0  0
   -2.4208    0.1458    0.0000 C   0  0  0  0  0  0  0  0  0  0  0  0
   -2.9000   -1.0542    0.0000 C   0  0  0  0  0  0  0  0  0  0  0  0
   -4.1833   -1.2792    0.0000 C   0  0  0  0  0  0  0  0  0  0  0  0
    2.0000    1.1458    0.0000 C   0  0  0  0  0  0  0  0  0  0  0  0
   -3.6000   -0.8000    0.0000 C   0  0  0  0  0  0  0  0  0  0  0  0
    0.5375    0.9000    0.0000 C   0  0  0  0  0  0  0  0  0  0  0  0
   -4.0458   -2.0167    0.0000 C   0  0  0  0  0  0  0  0  0  0  0  0
   -4.9208   -1.1792    0.0000 O   0  0  0  0  0  0  0  0  0  0  0  0
   -4.7208   -2.3542    0.0000 O   0  0  0  0  0  0  0  0  0  0  0  0
   -5.2708   -1.8542    0.0000 C   0  0  0  0  0  0  0  0  0  0  0  0
   -0.6833    1.3625    0.0000 O   0  0  0  0  0  0  0  0  0  0  0  0
    3.8167    1.8000    0.0000 C   0  0  0  0  0  0  0  0  0  0  0  0
    3.9292    1.1000    0.0000 C   0  0  0  0  0  0  0  0  0  0  0  0
    2.7375    2.6333    0.0000 O   0  0  0  0  0  0  0  0  0  0  0  0
    3.1792   -0.0500    0.0000 O   0  0  0  0  0  0  0  0  0  0  0  0
   -2.7833   -1.8000    0.0000 C   0  0  0  0  0  0  0  0  0  0  0  0
    1.7375    0.4458    0.0000 C   0  0  0  0  0  0  0  0  0  0  0  0
    1.5375    1.7208    0.0000 C   0  0  0  0  0  0  0  0  0  0  0  0
   -3.3458   -2.2792    0.0000 C   0  0  0  0  0  0  0  0  0  0  0  0
    1.0000    0.3208    0.0000 C   0  0  0  0  0  0  0  0  0  0  0  0
    0.8000    1.6000    0.0000 C   0  0  0  0  0  0  0  0  0  0  0  0
  2  4  1  0  0  0  0
  3  2  2  0  0  0  0
  4  6  1  0  0  0  0
  5  3  1  0  0  0  0
  6 15  1  0  0  0  0
  7  1  1  0  0  0  0
  8  1  1  0  0  0  0
  9  2  1  0  0  0  0
 10  9  1  0  0  0  0
 11  5  1  0  0  0  0
 12 14  1  0  0  0  0
 13  1  1  0  0  0  0
 14 11  2  0  0  0  0
 15 30  1  0  0  0  0
 16 28  1  0  0  0  0
 17 12  1  0  0  0  0
 18 16  1  0  0  0  0
 19 17  1  0  0  0  0
 20  6  2  0  0  0  0
 21  7  1  0  0  0  0
 22  8  1  0  0  0  0
 23  7  2  0  0  0  0
 24  8  2  0  0  0  0
 25 11  1  0  0  0  0
 26 13  2  0  0  0  0
 27 13  1  0  0  0  0
 28 25  2  0  0  0  0
 29 26  1  0  0  0  0
 30 27  2  0  0  0  0
 22 21  1  0  0  0  0
 15 29  2  0  0  0  0
 10  5  2  0  0  0  0
 16 12  2  0  0  0  0
 19 18  1  0  0  0  0
M  END
> <IDNUMBER>
F0866-0364

> <Chemical_Name>
N-[4-(2H-1,3-benzodioxol-5-yl)-1,3-thiazol-2-yl]-4-(2,5-dioxopyrrolidin-1-yl)benzamide

> <CAS>
477547-52-7

> <PriceCoeff>
1.00

> <MW>
421.43

> <Description>
solid

> <FSP3>
0.14

> <clogP>
2.17

> <TPSA>
126.07

> <Acceptor>
6

> <Donor>
1

> <RotBonds>
4

> <HAC>
30

> <Collection>
General

$$$$
F1065-0277
  -ISIS-  06222321452D

 27 29  0  0  0  0  0  0  0  0999 V2000
   -0.6833    0.0458    0.0000 N   0  0  3  0  0  0  0  0  0  0  0  0
   -0.3000    0.9625    0.0000 C   0  0  0  0  0  0  0  0  0  0  0  0
    0.1000   -0.6167    0.0000 C   0  0  0  0  0  0  0  0  0  0  0  0
    0.9375   -0.0917    0.0000 C   0  0  3  0  0  0  0  0  0  0  0  0
    0.7167    0.9000    0.0000 C   0  0  0  0  0  0  0  0  0  0  0  0
   -1.6208   -0.3167    0.0000 C   0  0  0  0  0  0  0  0  0  0  0  0
   -4.1208    0.6208    0.0000 C   0  0  3  0  0  0  0  0  0  0  0  0
    3.6167   -0.2167    0.0000 C   0  0  0  0  0  0  0  0  0  0  0  0
    1.9000   -0.4792    0.0000 S   0  0  0  0  0  0  0  0  0  0  0  0
    2.6792    0.1625    0.0000 C   0  0  0  0  0  0  0  0  0  0  0  0
    3.7542   -1.2167    0.0000 C   0  0  0  0  0  0  0  0  0  0  0  0
   -3.3458   -0.0292    0.0000 C   0  0  0  0  0  0  0  0  0  0  0  0
   -2.4000    0.3208    0.0000 C   0  0  0  0  0  0  0  0  0  0  0  0
   -0.8208    1.8458    0.0000 O   0  0  0  0  0  0  0  0  0  0  0  0
    0.0542   -1.6375    0.0000 O   0  0  0  0  0  0  0  0  0  0  0  0
    2.9542   -1.8375    0.0000 O   0  0  0  0  0  0  0  0  0  0  0  0
   -4.7708   -0.1792    0.0000 F   0  0  0  0  0  0  0  0  0  0  0  0
   -4.9083    1.2625    0.0000 F   0  0  0  0  0  0  0  0  0  0  0  0
   -3.4833    1.4000    0.0000 F   0  0  0  0  0  0  0  0  0  0  0  0
    4.7000   -1.6000    0.0000 O   0  0  0  0  0  0  0  0  0  0  0  0
   -1.8000   -1.3167    0.0000 C   0  0  0  0  0  0  0  0  0  0  0  0
    4.4000    0.4208    0.0000 C   0  0  0  0  0  0  0  0  0  0  0  0
    2.5375    1.1625    0.0000 C   0  0  0  0  0  0  0  0  0  0  0  0
   -3.5208   -1.0167    0.0000 C   0  0  0  0  0  0  0  0  0  0  0  0
   -2.7208   -1.6542    0.0000 C   0  0  0  0  0  0  0  0  0  0  0  0
    4.2542    1.4208    0.0000 C   0  0  0  0  0  0  0  0  0  0  0  0
    3.3375    1.7833    0.0000 C   0  0  0  0  0  0  0  0  0  0  0  0
  2  1  1  0  0  0  0
  3  1  1  0  0  0  0
  4  3  1  0  0  0  0
  5  2  1  0  0  0  0
  6  1  1  0  0  0  0
  7 12  1  0  0  0  0
  8 10  1  0  0  0  0
  9  4  1  0  0  0  0
 10  9  1  0  0  0  0
 11  8  1  0  0  0  0
 12 13  1  0  0  0  0
 13  6  2  0  0  0  0
 14  2  2  0  0  0  0
 15  3  2  0  0  0  0
 16 11  2  0  0  0  0
 17  7  1  0  0  0  0
 18  7  1  0  0  0  0
 19  7  1  0  0  0  0
 20 11  1  0  0  0  0
 21  6  1  0  0  0  0
 22  8  2  0  0  0  0
 23 10  2  0  0  0  0
 24 25  1  0  0  0  0
 25 21  2  0  0  0  0
 26 27  2  0  0  0  0
 27 23  1  0  0  0  0
  4  5  1  0  0  0  0
 24 12  2  0  0  0  0
 26 22  1  0  0  0  0
M  END
> <IDNUMBER>
F1065-0277

> <Chemical_Name>
2-({2,5-dioxo-1-[3-(trifluoromethyl)phenyl]pyrrolidin-3-yl}sulfanyl)benzoic acid

> <CAS>
301683-45-4

> <PriceCoeff>
1.00

> <MW>
395.35

> <Description>
solid

> <FSP3>
0.17

> <clogP>
3.44

> <TPSA>
99.98

> <Acceptor>
4

> <Donor>
0

> <RotBonds>
4

> <HAC>
27

> <Collection>
General

$$$$
F0327-0369
  -ISIS-  06222321452D

 28 31  0  0  0  0  0  0  0  0999 V2000
    4.9500   -0.9542    0.0000 N   0  0  3  0  0  0  0  0  0  0  0  0
    5.4500   -0.4000    0.0000 C   0  0  0  0  0  0  0  0  0  0  0  0
    5.3042   -1.6000    0.0000 C   0  0  0  0  0  0  0  0  0  0  0  0
    1.9500   -0.9542    0.0000 C   0  0  0  0  0  0  0  0  0  0  0  0
    1.5875   -0.3167    0.0000 N   0  0  0  0  0  0  0  0  0  0  0  0
    0.8292   -0.3167    0.0000 C   0  0  0  0  0  0  0  0  0  0  0  0
    0.4667    0.3458    0.0000 C   0  0  0  0  0  0  0  0  0  0  0  0
   -0.2958    0.3458    0.0000 C   0  0  0  0  0  0  0  0  0  0  0  0
    4.1875   -0.9542    0.0000 C   0  0  0  0  0  0  0  0  0  0  0  0
    2.7042   -0.9542    0.0000 C   0  0  0  0  0  0  0  0  0  0  0  0
   -0.6708   -0.3167    0.0000 C   0  0  0  0  0  0  0  0  0  0  0  0
    1.5875   -1.6000    0.0000 O   0  0  0  0  0  0  0  0  0  0  0  0
    6.0292   -1.4375    0.0000 C   0  0  0  0  0  0  0  0  0  0  0  0
    6.1292   -0.7000    0.0000 C   0  0  0  0  0  0  0  0  0  0  0  0
    5.0292   -2.2792    0.0000 O   0  0  0  0  0  0  0  0  0  0  0  0
    5.2875    0.3625    0.0000 O   0  0  0  0  0  0  0  0  0  0  0  0
    0.4667   -0.9542    0.0000 C   0  0  0  0  0  0  0  0  0  0  0  0
    3.8292   -0.3167    0.0000 C   0  0  0  0  0  0  0  0  0  0  0  0
    3.8292   -1.6000    0.0000 C   0  0  0  0  0  0  0  0  0  0  0  0
    3.0667   -1.6000    0.0000 C   0  0  0  0  0  0  0  0  0  0  0  0
    3.0667   -0.3167    0.0000 C   0  0  0  0  0  0  0  0  0  0  0  0
   -0.2958   -0.9542    0.0000 C   0  0  0  0  0  0  0  0  0  0  0  0
   -1.4125   -0.3167    0.0000 O   0  0  0  0  0  0  0  0  0  0  0  0
    0.8375    0.9833    0.0000 C   0  0  0  0  0  0  0  0  0  0  0  0
   -0.6625    0.9833    0.0000 C   0  0  0  0  0  0  0  0  0  0  0  0
   -1.7958   -0.9542    0.0000 C   0  0  0  0  0  0  0  0  0  0  0  0
   -0.2958    1.6208    0.0000 C   0  0  0  0  0  0  0  0  0  0  0  0
    0.4542    1.6208    0.0000 C   0  0  0  0  0  0  0  0  0  0  0  0
  2  1  1  0  0  0  0
  3  1  1  0  0  0  0
  4 10  1  0  0  0  0
  5  4  1  0  0  0  0
  6  5  1  0  0  0  0
  7  6  2  0  0  0  0
  8  7  1  0  0  0  0
  9  1  1  0  0  0  0
 10 20  2  0  0  0  0
 11 22  1  0  0  0  0
 12  4  2  0  0  0  0
 13  3  1  0  0  0  0
 14  2  1  0  0  0  0
 15  3  2  0  0  0  0
 16  2  2  0  0  0  0
 17  6  1  0  0  0  0
 18  9  1  0  0  0  0
 19  9  2  0  0  0  0
 20 19  1  0  0  0  0
 21 18  2  0  0  0  0
 22 17  2  0  0  0  0
 23 11  1  0  0  0  0
 24  7  1  0  0  0  0
 25  8  1  0  0  0  0
 26 23  1  0  0  0  0
 27 28  1  0  0  0  0
 28 24  2  0  0  0  0
 13 14  1  0  0  0  0
 10 21  1  0  0  0  0
  8 11  2  0  0  0  0
 27 25  2  0  0  0  0
M  END
> <IDNUMBER>
F0327-0369

> <Chemical_Name>
4-(2,5-dioxopyrrolidin-1-yl)-N-(4-methoxynaphthalen-1-yl)benzamide

> <CAS>
327971-74-4

> <PriceCoeff>
1.00

> <MW>
374.39

> <Description>
solid

> <FSP3>
0.14

> <clogP>
2.04

> <TPSA>
75.71

> <Acceptor>
4

> <Donor>
1

> <RotBonds>
4

> <HAC>
28

> <Collection>
General

$$$$
F1199-0152
  -ISIS-  06222321452D

 18 19  0  0  0  0  0  0  0  0999 V2000
    3.7167   -1.0875    0.0000 N   0  0  3  0  0  0  0  0  0  0  0  0
    3.9667   -1.8792    0.0000 C   0  0  0  0  0  0  0  0  0  0  0  0
    4.3875   -0.6000    0.0000 C   0  0  0  0  0  0  0  0  0  0  0  0
    4.8000   -1.8792    0.0000 C   0  0  3  0  0  0  0  0  0  0  0  0
    5.0542   -1.0875    0.0000 C   0  0  0  0  0  0  0  0  0  0  0  0
    6.5792   -3.1292    0.0000 C   0  0  0  0  0  0  0  0  0  0  0  0
    5.2792   -2.5417    0.0000 S   0  0  0  0  0  0  0  0  0  0  0  0
    6.1042   -2.4542    0.0000 C   0  0  0  0  0  0  0  0  0  0  0  0
    6.2417   -3.8792    0.0000 C   0  0  0  0  0  0  0  0  0  0  0  0
    3.4792   -2.5417    0.0000 O   0  0  0  0  0  0  0  0  0  0  0  0
    4.3792    0.2333    0.0000 O   0  0  0  0  0  0  0  0  0  0  0  0
    6.7292   -4.5500    0.0000 O   0  0  0  0  0  0  0  0  0  0  0  0
    2.9292   -0.8292    0.0000 C   0  0  0  0  0  0  0  0  0  0  0  0
    5.4250   -3.9667    0.0000 O   0  0  0  0  0  0  0  0  0  0  0  0
    7.4042   -3.0417    0.0000 C   0  0  0  0  0  0  0  0  0  0  0  0
    6.4292   -1.7042    0.0000 C   0  0  0  0  0  0  0  0  0  0  0  0
    7.7417   -2.2875    0.0000 C   0  0  0  0  0  0  0  0  0  0  0  0
    7.2500   -1.6167    0.0000 C   0  0  0  0  0  0  0  0  0  0  0  0
  2  1  1  0  0  0  0
  3  1  1  0  0  0  0
  4  2  1  0  0  0  0
  5  3  1  0  0  0  0
  6  8  2  0  0  0  0
  7  4  1  0  0  0  0
  8  7  1  0  0  0  0
  9  6  1  0  0  0  0
 10  2  2  0  0  0  0
 11  3  2  0  0  0  0
 12  9  2  0  0  0  0
 13  1  1  0  0  0  0
 14  9  1  0  0  0  0
 15  6  1  0  0  0  0
 16  8  1  0  0  0  0
 17 18  1  0  0  0  0
 18 16  2  0  0  0  0
  5  4  1  0  0  0  0
 17 15  2  0  0  0  0
M  END
> <IDNUMBER>
F1199-0152

> <Chemical_Name>
2-((1-methyl-2,5-dioxopyrrolidin-3-yl)thio)benzoic acid

> <CAS>
132228-17-2

> <PriceCoeff>
1.50

> <MW>
265.29

> <Description>
solid

> <FSP3>
0.25

> <clogP>
1.24

> <TPSA>
99.98

> <Acceptor>
4

> <Donor>
0

> <RotBonds>
3

> <HAC>
18

> <Collection>
Advanced

$$$$
F3385-4492
  -ISIS-  06222321462D

 20 22  0  0  0  0  0  0  0  0999 V2000
    4.6792   -1.7375    0.0000 C   0  0  0  0  0  0  0  0  0  0  0  0
    3.9542   -2.1500    0.0000 C   0  0  0  0  0  0  0  0  0  0  0  0
    4.6792   -0.9042    0.0000 C   0  0  0  0  0  0  0  0  0  0  0  0
    3.2375   -1.7375    0.0000 C   0  0  0  0  0  0  0  0  0  0  0  0
    3.9542   -0.4792    0.0000 O   0  0  0  0  0  0  0  0  0  0  0  0
    3.2417   -0.9042    0.0000 C   0  0  0  0  0  0  0  0  0  0  0  0
    5.3875   -2.1500    0.0000 C   0  0  0  0  0  0  0  0  0  0  0  0
    2.5250   -0.4917    0.0000 C   0  0  0  0  0  0  0  0  0  0  0  0
    2.5250   -2.1417    0.0000 C   0  0  0  0  0  0  0  0  0  0  0  0
    5.3917   -0.4917    0.0000 O   0  0  0  0  0  0  0  0  0  0  0  0
    3.9542   -2.9750    0.0000 O   0  0  0  0  0  0  0  0  0  0  0  0
    5.3792   -2.9792    0.0000 C   0  0  0  0  0  0  0  0  0  0  0  0
    6.1000   -1.7417    0.0000 C   0  0  0  0  0  0  0  0  0  0  0  0
    1.8125   -0.9042    0.0000 C   0  0  0  0  0  0  0  0  0  0  0  0
    1.8125   -1.7292    0.0000 C   0  0  0  0  0  0  0  0  0  0  0  0
    6.8125   -2.9792    0.0000 C   0  0  0  0  0  0  0  0  0  0  0  0
    6.8125   -2.1542    0.0000 C   0  0  0  0  0  0  0  0  0  0  0  0
    6.0917   -3.3917    0.0000 C   0  0  0  0  0  0  0  0  0  0  0  0
    7.5250   -3.3917    0.0000 Br  0  0  0  0  0  0  0  0  0  0  0  0
    1.1000   -0.4917    0.0000 O   0  0  0  0  0  0  0  0  0  0  0  0
  2  1  2  0  0  0  0
  3  1  1  0  0  0  0
  4  2  1  0  0  0  0
  5  3  1  0  0  0  0
  6  5  1  0  0  0  0
  7  1  1  0  0  0  0
  8  6  2  0  0  0  0
  9  4  2  0  0  0  0
 10  3  2  0  0  0  0
 11  2  1  0  0  0  0
 12  7  2  0  0  0  0
 13  7  1  0  0  0  0
 14  8  1  0  0  0  0
 15  9  1  0  0  0  0
 16 17  1  0  0  0  0
 17 13  2  0  0  0  0
 18 12  1  0  0  0  0
 19 16  1  0  0  0  0
 20 14  1  0  0  0  0
 16 18  2  0  0  0  0
  6  4  1  0  0  0  0
 14 15  2  0  0  0  0
M  END
> <IDNUMBER>
F3385-4492

> <Chemical_Name>
3-(4-bromophenyl)-4,7-dihydroxy-2H-chromen-2-one

> <CAS>
929513-97-3

> <PriceCoeff>
1.00

> <MW>
333.13

> <Description>
solid

> <FSP3>
0.00

> <clogP>
4.00

> <TPSA>
66.76

> <Acceptor>
4

> <Donor>
2

> <RotBonds>
1

> <HAC>
20

> <Collection>
General

$$$$
F0466-0024
  -ISIS-  06222321142D

 31 34  0  0  0  0  0  0  0  0999 V2000
   -4.8333   -1.0042    0.0000 N   0  0  3  0  0  0  0  0  0  0  0  0
   -2.2333   -1.4500    0.0000 C   0  0  0  0  0  0  0  0  0  0  0  0
   -1.8458   -1.0167    0.0000 N   0  0  0  0  0  0  0  0  0  0  0  0
   -2.8125   -1.4542    0.0000 N   0  0  0  0  0  0  0  0  0  0  0  0
   -1.3333   -1.2500    0.0000 C   0  0  0  0  0  0  0  0  0  0  0  0
   -4.5458   -1.5000    0.0000 C   0  0  0  0  0  0  0  0  0  0  0  0
   -3.0833   -1.9792    0.0000 C   0  0  0  0  0  0  0  0  0  0  0  0
   -5.4208   -1.0042    0.0000 C   0  0  0  0  0  0  0  0  0  0  0  0
   -4.6833   -0.4500    0.0000 C   0  0  0  0  0  0  0  0  0  0  0  0
   -1.9458   -1.9500    0.0000 S   0  0  0  0  0  0  0  0  0  0  0  0
   -1.3708   -1.8000    0.0000 C   0  0  0  0  0  0  0  0  0  0  0  0
   -3.9625   -1.5000    0.0000 C   0  0  0  0  0  0  0  0  0  0  0  0
   -3.6708   -1.9792    0.0000 C   0  0  0  0  0  0  0  0  0  0  0  0
   -0.8458   -0.9292    0.0000 C   0  0  0  0  0  0  0  0  0  0  0  0
   -2.7833   -2.4792    0.0000 O   0  0  0  0  0  0  0  0  0  0  0  0
   -5.1625   -0.1542    0.0000 C   0  0  0  0  0  0  0  0  0  0  0  0
   -5.6000   -0.5000    0.0000 C   0  0  0  0  0  0  0  0  0  0  0  0
   -4.1333   -0.2500    0.0000 O   0  0  0  0  0  0  0  0  0  0  0  0
   -5.7708   -1.4792    0.0000 O   0  0  0  0  0  0  0  0  0  0  0  0
   -0.8708   -0.3667    0.0000 C   0  0  0  0  0  0  0  0  0  0  0  0
   -0.3333   -1.2000    0.0000 C   0  0  0  0  0  0  0  0  0  0  0  0
    0.1292   -0.3042    0.0000 C   0  0  0  0  0  0  0  0  0  0  0  0
    0.1500   -0.8667    0.0000 C   0  0  0  0  0  0  0  0  0  0  0  0
   -0.3833   -0.0542    0.0000 C   0  0  0  0  0  0  0  0  0  0  0  0
   -4.8208   -2.0042    0.0000 C   0  0  0  0  0  0  0  0  0  0  0  0
    0.6167   -0.0000    0.0000 O   0  0  0  0  0  0  0  0  0  0  0  0
   -3.9458   -2.5000    0.0000 C   0  0  0  0  0  0  0  0  0  0  0  0
   -4.5333   -2.5000    0.0000 C   0  0  0  0  0  0  0  0  0  0  0  0
    0.6042    0.5833    0.0000 C   0  0  0  0  0  0  0  0  0  0  0  0
    1.1042    0.8833    0.0000 C   0  0  0  0  0  0  0  0  0  0  0  0
    1.1000    1.4500    0.0000 C   0  0  0  0  0  0  0  0  0  0  0  0
  2  4  1  0  0  0  0
  3  2  2  0  0  0  0
  4  7  1  0  0  0  0
  5  3  1  0  0  0  0
  6  1  1  0  0  0  0
  7 13  1  0  0  0  0
  8  1  1  0  0  0  0
  9  1  1  0  0  0  0
 10  2  1  0  0  0  0
 11 10  1  0  0  0  0
 12  6  2  0  0  0  0
 13 12  1  0  0  0  0
 14  5  1  0  0  0  0
 15  7  2  0  0  0  0
 16  9  1  0  0  0  0
 17  8  1  0  0  0  0
 18  9  2  0  0  0  0
 19  8  2  0  0  0  0
 20 14  1  0  0  0  0
 21 14  2  0  0  0  0
 22 23  2  0  0  0  0
 23 21  1  0  0  0  0
 24 20  2  0  0  0  0
 25  6  1  0  0  0  0
 26 22  1  0  0  0  0
 27 28  1  0  0  0  0
 28 25  2  0  0  0  0
 29 26  1  0  0  0  0
 30 29  1  0  0  0  0
 31 30  1  0  0  0  0
 17 16  1  0  0  0  0
 13 27  2  0  0  0  0
  5 11  2  0  0  0  0
 22 24  1  0  0  0  0
M  END
> <IDNUMBER>
F0466-0024

> <Chemical_Name>
3-(2,5-dioxopyrrolidin-1-yl)-N-[4-(4-propoxyphenyl)-1,3-thiazol-2-yl]benzamide

> <CAS>
391867-70-2

> <PriceCoeff>
1.00

> <MW>
435.50

> <Description>
solid

> <FSP3>
0.22

> <clogP>
3.20

> <TPSA>
116.84

> <Acceptor>
5

> <Donor>
1

> <RotBonds>
7

> <HAC>
31

> <Collection>
General

$$$$
F1065-0145
  -ISIS-  06222321142D

 26 28  0  0  0  0  0  0  0  0999 V2000
    0.1792    1.2208    0.0000 N   0  0  3  0  0  0  0  0  0  0  0  0
    1.0667    1.7833    0.0000 C   0  0  0  0  0  0  0  0  0  0  0  0
    0.4542    0.1958    0.0000 C   0  0  0  0  0  0  0  0  0  0  0  0
    1.5000    0.1458    0.0000 C   0  0  3  0  0  0  0  0  0  0  0  0
    1.8542    1.0833    0.0000 C   0  0  0  0  0  0  0  0  0  0  0  0
    3.7292   -1.5042    0.0000 C   0  0  0  0  0  0  0  0  0  0  0  0
    2.1000   -0.7500    0.0000 S   0  0  0  0  0  0  0  0  0  0  0  0
    3.1292   -0.6500    0.0000 C   0  0  0  0  0  0  0  0  0  0  0  0
    3.3000   -2.5000    0.0000 C   0  0  0  0  0  0  0  0  0  0  0  0
   -0.7208    1.7500    0.0000 C   0  0  0  0  0  0  0  0  0  0  0  0
    1.1500    2.8333    0.0000 O   0  0  0  0  0  0  0  0  0  0  0  0
   -0.2125   -0.6167    0.0000 O   0  0  0  0  0  0  0  0  0  0  0  0
    3.9000   -3.3292    0.0000 O   0  0  0  0  0  0  0  0  0  0  0  0
   -1.6125    1.2208    0.0000 C   0  0  0  0  0  0  0  0  0  0  0  0
   -0.7208    2.8125    0.0000 C   0  0  0  0  0  0  0  0  0  0  0  0
    2.2500   -2.6000    0.0000 O   0  0  0  0  0  0  0  0  0  0  0  0
   -2.5208    2.8125    0.0000 C   0  0  0  0  0  0  0  0  0  0  0  0
   -1.6125    3.3208    0.0000 C   0  0  0  0  0  0  0  0  0  0  0  0
   -2.5208    1.7333    0.0000 C   0  0  0  0  0  0  0  0  0  0  0  0
    4.7542   -1.4500    0.0000 C   0  0  0  0  0  0  0  0  0  0  0  0
   -3.4458    3.3458    0.0000 O   0  0  0  0  0  0  0  0  0  0  0  0
    3.6000    0.2833    0.0000 C   0  0  0  0  0  0  0  0  0  0  0  0
   -4.3500    2.8333    0.0000 C   0  0  0  0  0  0  0  0  0  0  0  0
    5.2292   -0.5000    0.0000 C   0  0  0  0  0  0  0  0  0  0  0  0
    4.6167    0.3708    0.0000 C   0  0  0  0  0  0  0  0  0  0  0  0
   -5.2708    3.3708    0.0000 C   0  0  0  0  0  0  0  0  0  0  0  0
  2  1  1  0  0  0  0
  3  1  1  0  0  0  0
  4  3  1  0  0  0  0
  5  2  1  0  0  0  0
  6  8  2  0  0  0  0
  7  4  1  0  0  0  0
  8  7  1  0  0  0  0
  9  6  1  0  0  0  0
 10  1  1  0  0  0  0
 11  2  2  0  0  0  0
 12  3  2  0  0  0  0
 13  9  2  0  0  0  0
 14 10  1  0  0  0  0
 15 10  2  0  0  0  0
 16  9  1  0  0  0  0
 17 18  2  0  0  0  0
 18 15  1  0  0  0  0
 19 14  2  0  0  0  0
 20  6  1  0  0  0  0
 21 17  1  0  0  0  0
 22  8  1  0  0  0  0
 23 21  1  0  0  0  0
 24 25  1  0  0  0  0
 25 22  2  0  0  0  0
 26 23  1  0  0  0  0
  5  4  1  0  0  0  0
 19 17  1  0  0  0  0
 24 20  2  0  0  0  0
M  END
> <IDNUMBER>
F1065-0145

> <Chemical_Name>
2-{[1-(4-ethoxyphenyl)-2,5-dioxopyrrolidin-3-yl]sulfanyl}benzoic acid

> <CAS>
308293-17-6

> <PriceCoeff>
1.00

> <MW>
371.41

> <Description>
solid

> <FSP3>
0.21

> <clogP>
2.69

> <TPSA>
109.21

> <Acceptor>
5

> <Donor>
0

> <RotBonds>
6

> <HAC>
26

> <Collection>
General

$$$$
F2055-0269
  -ISIS-  06222321142D

 27 29  0  0  0  0  0  0  0  0999 V2000
   -3.7708    0.4875    0.0000 N   0  3  0  0  0  0  0  0  0  0  0  0
   -1.9208    7.5667    0.0000 C   0  0  0  0  0  0  0  0  0  0  0  0
   -1.6583    6.7667    0.0000 N   0  0  0  0  0  0  0  0  0  0  0  0
   -3.7708    2.9833    0.0000 C   0  0  0  0  0  0  0  0  0  0  0  0
   -2.7458    7.5542    0.0000 S   0  0  0  0  0  0  0  0  0  0  0  0
   -3.0375    2.5583    0.0000 C   0  0  0  0  0  0  0  0  0  0  0  0
   -3.7625    1.3125    0.0000 C   0  0  0  0  0  0  0  0  0  0  0  0
   -3.7583    3.8000    0.0000 C   0  0  0  0  0  0  0  0  0  0  0  0
   -3.0375    1.7250    0.0000 C   0  0  0  0  0  0  0  0  0  0  0  0
   -2.3333    6.2792    0.0000 C   0  0  0  0  0  0  0  0  0  0  0  0
   -3.0000    6.7667    0.0000 C   0  0  0  0  0  0  0  0  0  0  0  0
   -1.4333    8.2292    0.0000 C   0  0  0  0  0  0  0  0  0  0  0  0
   -4.4833    2.5625    0.0000 C   0  0  0  0  0  0  0  0  0  0  0  0
   -4.4833    0.0833    0.0000 O   0  5  0  0  0  0  0  0  0  0  0  0
   -3.0583    0.0750    0.0000 O   0  0  0  0  0  0  0  0  0  0  0  0
   -4.4833    1.7333    0.0000 C   0  0  0  0  0  0  0  0  0  0  0  0
   -1.7833    8.9875    0.0000 C   0  0  0  0  0  0  0  0  0  0  0  0
   -4.4750    4.2042    0.0000 O   0  0  0  0  0  0  0  0  0  0  0  0
   -3.0458    4.2125    0.0000 N   0  0  0  0  0  0  0  0  0  0  0  0
   -2.3208    2.9625    0.0000 Cl  0  0  0  0  0  0  0  0  0  0  0  0
   -2.3333    5.4542    0.0000 C   0  0  0  0  0  0  0  0  0  0  0  0
   -1.2958    9.6542    0.0000 C   0  0  0  0  0  0  0  0  0  0  0  0
   -3.0458    5.0417    0.0000 C   0  0  0  0  0  0  0  0  0  0  0  0
   -1.6333   10.4125    0.0000 F   0  0  0  0  0  0  0  0  0  0  0  0
   -0.6083    8.1417    0.0000 C   0  0  0  0  0  0  0  0  0  0  0  0
   -0.1208    8.8167    0.0000 C   0  0  0  0  0  0  0  0  0  0  0  0
   -0.4625    9.5667    0.0000 C   0  0  0  0  0  0  0  0  0  0  0  0
  2  3  2  0  0  0  0
  3 10  1  0  0  0  0
  4 13  2  0  0  0  0
  5 11  1  0  0  0  0
  6  9  2  0  0  0  0
  7  1  1  0  0  0  0
  8  4  1  0  0  0  0
  9  7  1  0  0  0  0
 10 21  1  0  0  0  0
 11 10  2  0  0  0  0
 12  2  1  0  0  0  0
 13 16  1  0  0  0  0
 14  1  1  0  0  0  0
 15  1  2  0  0  0  0
 16  7  2  0  0  0  0
 17 12  1  0  0  0  0
 18  8  2  0  0  0  0
 19  8  1  0  0  0  0
 20  6  1  0  0  0  0
 21 23  1  0  0  0  0
 22 17  2  0  0  0  0
 23 19  1  0  0  0  0
 24 22  1  0  0  0  0
 25 12  2  0  0  0  0
 26 25  1  0  0  0  0
 27 26  2  0  0  0  0
  4  6  1  0  0  0  0
  5  2  1  0  0  0  0
 27 22  1  0  0  0  0
M  CHG  2   1   1  14  -1
M  END
> <IDNUMBER>
F2055-0269

> <Chemical_Name>
2-chloro-N-{2-[2-(3-fluorophenyl)-1,3-thiazol-4-yl]ethyl}-4-nitrobenzamide

> <CAS>
897612-41-8

> <PriceCoeff>
1.00

> <MW>
405.83

> <Description>
solid

> <FSP3>
0.11

> <clogP>
3.68

> <TPSA>
113.37

> <Acceptor>
4

> <Donor>
1

> <RotBonds>
6

> <HAC>
27

> <Collection>
General

$$$$
F9995-0228
  -ISIS-  06222321442D

 18 19  0  0  0  0  0  0  0  0999 V2000
    5.3042   -4.0708    0.0000 N   0  3  0  0  0  0  0  0  0  0  0  0
    4.5917   -3.6625    0.0000 C   0  0  0  0  0  0  0  0  0  0  0  0
    3.8750   -4.0708    0.0000 C   0  0  0  0  0  0  0  0  0  0  0  0
    4.5917   -2.8292    0.0000 C   0  0  0  0  0  0  0  0  0  0  0  0
    5.3125   -4.9000    0.0000 O   0  5  0  0  0  0  0  0  0  0  0  0
    5.3042   -2.4167    0.0000 N   0  0  0  0  0  0  0  0  0  0  0  0
    6.0250   -3.6542    0.0000 O   0  0  0  0  0  0  0  0  0  0  0  0
    3.8750   -2.4167    0.0000 C   0  0  0  0  0  0  0  0  0  0  0  0
    3.1625   -3.6625    0.0000 C   0  0  0  0  0  0  0  0  0  0  0  0
    6.0167   -2.8250    0.0000 C   0  0  0  0  0  0  0  0  0  0  0  0
    3.1625   -2.8375    0.0000 C   0  0  0  0  0  0  0  0  0  0  0  0
    2.4417   -4.0708    0.0000 Cl  0  0  0  0  0  0  0  0  0  0  0  0
    6.7292   -2.4125    0.0000 C   0  0  0  0  0  0  0  0  0  0  0  0
    7.4417   -2.8250    0.0000 C   0  0  0  0  0  0  0  0  0  0  0  0
    6.7250   -1.5917    0.0000 C   0  0  0  0  0  0  0  0  0  0  0  0
    7.4375   -1.1750    0.0000 C   0  0  0  0  0  0  0  0  0  0  0  0
    8.1542   -2.4042    0.0000 C   0  0  0  0  0  0  0  0  0  0  0  0
    8.1542   -1.5792    0.0000 C   0  0  0  0  0  0  0  0  0  0  0  0
  2  1  1  0  0  0  0
  3  2  2  0  0  0  0
  4  2  1  0  0  0  0
  5  1  1  0  0  0  0
  6  4  1  0  0  0  0
  7  1  2  0  0  0  0
  8  4  2  0  0  0  0
  9  3  1  0  0  0  0
 10  6  1  0  0  0  0
 11  8  1  0  0  0  0
 12  9  1  0  0  0  0
 13 10  1  0  0  0  0
 14 13  2  0  0  0  0
 15 13  1  0  0  0  0
 16 15  2  0  0  0  0
 17 14  1  0  0  0  0
 18 16  1  0  0  0  0
  9 11  2  0  0  0  0
 17 18  2  0  0  0  0
M  CHG  2   1   1   5  -1
M  END
> <IDNUMBER>
F9995-0228

> <Chemical_Name>
N-benzyl-4-chloro-2-nitroaniline

> <CAS>
10066-18-9

> <PriceCoeff>
1.00

> <MW>
262.69

> <Description>
solid

> <FSP3>
0.08

> <clogP>
4.45

> <TPSA>
55.17

> <Acceptor>
3

> <Donor>
1

> <RotBonds>
4

> <HAC>
18

> <Collection>
General

$$$$
F3222-1848
  -ISIS-  06222321152D

 34 38  0  0  0  0  0  0  0  0999 V2000
    1.3417    0.0500    0.0000 C   0  0  0  0  0  0  0  0  0  0  0  0
    1.3500   -0.7792    0.0000 C   0  0  0  0  0  0  0  0  0  0  0  0
    2.7667    0.0458    0.0000 N   0  0  3  0  0  0  0  0  0  0  0  0
    2.7667   -0.7792    0.0000 C   0  0  0  0  0  0  0  0  0  0  0  0
    2.0542   -1.1875    0.0000 N   0  0  0  0  0  0  0  0  0  0  0  0
    2.0542    0.4625    0.0000 C   0  0  0  0  0  0  0  0  0  0  0  0
    0.5542    0.3083    0.0000 C   0  0  0  0  0  0  0  0  0  0  0  0
    0.0625   -0.3667    0.0000 C   0  0  0  0  0  0  0  0  0  0  0  0
    0.5542   -1.0417    0.0000 S   0  0  0  0  0  0  0  0  0  0  0  0
   -1.1125    0.4833    0.0000 N   0  0  3  0  0  0  0  0  0  0  0  0
   -0.7708   -0.2792    0.0000 C   0  0  0  0  0  0  0  0  0  0  0  0
    3.4750   -1.1917    0.0000 S   0  0  0  0  0  0  0  0  0  0  0  0
   -1.9333    0.5708    0.0000 C   0  0  0  0  0  0  0  0  0  0  0  0
    3.4750    0.4500    0.0000 C   0  0  0  0  0  0  0  0  0  0  0  0
    0.2167    1.0708    0.0000 C   0  0  0  0  0  0  0  0  0  0  0  0
    2.0542    1.2750    0.0000 O   0  0  0  0  0  0  0  0  0  0  0  0
   -0.6208    1.1625    0.0000 C   0  0  0  0  0  0  0  0  0  0  0  0
   -2.4083   -0.0917    0.0000 O   0  0  0  0  0  0  0  0  0  0  0  0
    3.4750    1.2708    0.0000 C   0  0  0  0  0  0  0  0  0  0  0  0
    4.1792    0.0333    0.0000 C   0  0  0  0  0  0  0  0  0  0  0  0
    3.4750   -2.0125    0.0000 C   0  0  0  0  0  0  0  0  0  0  0  0
    4.9000   -2.0125    0.0000 C   0  0  0  0  0  0  0  0  0  0  0  0
    4.9042    1.2708    0.0000 C   0  0  0  0  0  0  0  0  0  0  0  0
    5.6125   -2.4167    0.0000 C   0  0  0  0  0  0  0  0  0  0  0  0
    4.1875   -2.4250    0.0000 C   0  0  0  0  0  0  0  0  0  0  0  0
    4.1792    1.6750    0.0000 C   0  0  0  0  0  0  0  0  0  0  0  0
    4.9000    0.4375    0.0000 C   0  0  0  0  0  0  0  0  0  0  0  0
    6.3292   -2.0042    0.0000 F   0  0  0  0  0  0  0  0  0  0  0  0
    5.6167    1.6833    0.0000 O   0  0  0  0  0  0  0  0  0  0  0  0
   -2.2583    1.3208    0.0000 C   0  0  0  0  0  0  0  0  0  0  0  0
    4.9000   -3.6625    0.0000 C   0  0  0  0  0  0  0  0  0  0  0  0
    5.6167   -3.2500    0.0000 C   0  0  0  0  0  0  0  0  0  0  0  0
    4.1875   -3.2500    0.0000 C   0  0  0  0  0  0  0  0  0  0  0  0
    5.6167    2.5083    0.0000 C   0  0  0  0  0  0  0  0  0  0  0  0
  2  1  2  0  0  0  0
  3  6  1  0  0  0  0
  4  3  1  0  0  0  0
  5  2  1  0  0  0  0
  6  1  1  0  0  0  0
  7  1  1  0  0  0  0
  8  7  2  0  0  0  0
  9  2  1  0  0  0  0
 10 17  1  0  0  0  0
 11  8  1  0  0  0  0
 12  4  1  0  0  0  0
 13 10  1  0  0  0  0
 14  3  1  0  0  0  0
 15  7  1  0  0  0  0
 16  6  2  0  0  0  0
 17 15  1  0  0  0  0
 18 13  2  0  0  0  0
 19 14  1  0  0  0  0
 20 14  2  0  0  0  0
 21 12  1  0  0  0  0
 22 25  1  0  0  0  0
 23 27  2  0  0  0  0
 24 22  2  0  0  0  0
 25 21  1  0  0  0  0
 26 19  2  0  0  0  0
 27 20  1  0  0  0  0
 28 24  1  0  0  0  0
 29 23  1  0  0  0  0
 30 13  1  0  0  0  0
 31 33  1  0  0  0  0
 32 31  2  0  0  0  0
 33 25  2  0  0  0  0
 34 29  1  0  0  0  0
  8  9  1  0  0  0  0
  5  4  2  0  0  0  0
 10 11  1  0  0  0  0
 26 23  1  0  0  0  0
 24 32  1  0  0  0  0
M  END
> <IDNUMBER>
F3222-1848

> <Chemical_Name>
11-acetyl-5-{[(3-fluorophenyl)methyl]sulfanyl}-4-(4-methoxyphenyl)-8-thia-4,6,11-triazatricyclo[7.4.0.0^{2,7}]trideca-1(9),2(7),5-trien-3-one

> <CAS>
931722-45-1

> <PriceCoeff>
1.00

> <MW>
495.59

> <Description>
solid

> <FSP3>
0.24

> <clogP>
3.86

> <TPSA>
115.75

> <Acceptor>
4

> <Donor>
0

> <RotBonds>
6

> <HAC>
34

> <Collection>
General

> <Reference_compound>
CHEMBL577016

> <Similarity>
0.8840

$$$$
F1577-0004
  -ISIS-  06222321142D

 24 26  0  0  0  0  0  0  0  0999 V2000
   -1.5625   -1.5167    0.0000 N   0  0  3  0  0  0  0  0  0  0  0  0
   -1.5625   -0.0917    0.0000 C   0  0  0  0  0  0  0  0  0  0  0  0
   -1.0625   -0.7917    0.0000 C   0  0  0  0  0  0  0  0  0  0  0  0
   -2.4083   -0.3542    0.0000 C   0  0  0  0  0  0  0  0  0  0  0  0
   -2.4083   -1.2375    0.0000 C   0  0  0  0  0  0  0  0  0  0  0  0
   -1.2833    0.7625    0.0000 N   0  0  0  0  0  0  0  0  0  0  0  0
   -1.2875   -2.3417    0.0000 C   0  0  0  0  0  0  0  0  0  0  0  0
   -0.4250    0.9250    0.0000 N   0  0  0  0  0  0  0  0  0  0  0  0
   -0.1250    1.7458    0.0000 C   0  0  0  0  0  0  0  0  0  0  0  0
   -3.1625   -1.6750    0.0000 C   0  0  0  0  0  0  0  0  0  0  0  0
   -0.1833   -0.7917    0.0000 O   0  0  0  0  0  0  0  0  0  0  0  0
   -3.1625    0.0833    0.0000 C   0  0  0  0  0  0  0  0  0  0  0  0
   -0.4333   -2.5167    0.0000 O   0  0  0  0  0  0  0  0  0  0  0  0
    0.7167    1.9083    0.0000 O   0  0  0  0  0  0  0  0  0  0  0  0
   -0.7083    2.4083    0.0000 C   0  0  0  0  0  0  0  0  0  0  0  0
   -3.9250   -0.3542    0.0000 C   0  0  0  0  0  0  0  0  0  0  0  0
   -3.9250   -1.2375    0.0000 C   0  0  0  0  0  0  0  0  0  0  0  0
   -4.6958    0.0833    0.0000 Br  0  0  0  0  0  0  0  0  0  0  0  0
   -1.8708   -3.0042    0.0000 C   0  0  0  0  0  0  0  0  0  0  0  0
   -0.4083    3.2333    0.0000 C   0  0  0  0  0  0  0  0  0  0  0  0
   -1.5458    2.2458    0.0000 C   0  0  0  0  0  0  0  0  0  0  0  0
   -2.1083    2.9083    0.0000 C   0  0  0  0  0  0  0  0  0  0  0  0
   -0.9625    3.8833    0.0000 C   0  0  0  0  0  0  0  0  0  0  0  0
   -1.8083    3.7333    0.0000 C   0  0  0  0  0  0  0  0  0  0  0  0
  2  3  1  0  0  0  0
  3  1  1  0  0  0  0
  4  5  2  0  0  0  0
  5  1  1  0  0  0  0
  6  2  2  0  0  0  0
  7  1  1  0  0  0  0
  8  6  1  0  0  0  0
  9  8  1  0  0  0  0
 10  5  1  0  0  0  0
 11  3  2  0  0  0  0
 12  4  1  0  0  0  0
 13  7  2  0  0  0  0
 14  9  2  0  0  0  0
 15  9  1  0  0  0  0
 16 17  1  0  0  0  0
 17 10  2  0  0  0  0
 18 16  1  0  0  0  0
 19  7  1  0  0  0  0
 20 15  2  0  0  0  0
 21 15  1  0  0  0  0
 22 21  2  0  0  0  0
 23 20  1  0  0  0  0
 24 22  1  0  0  0  0
  4  2  1  0  0  0  0
 16 12  2  0  0  0  0
 24 23  2  0  0  0  0
M  END
> <IDNUMBER>
F1577-0004

> <Chemical_Name>
N'-[(3Z)-1-acetyl-5-bromo-2-oxo-2,3-dihydro-1H-indol-3-ylidene]benzohydrazide

> <CAS>
401797-24-8

> <PriceCoeff>
1.00

> <MW>
386.20

> <Description>
solid

> <FSP3>
0.06

> <clogP>
3.53

> <TPSA>
78.84

> <Acceptor>
4

> <Donor>
2

> <RotBonds>
3

> <HAC>
24

> <Collection>
General

$$$$
F3023-0282
  -ISIS-  06222321152D

 27 29  0  0  0  0  0  0  0  0999 V2000
    8.4917   -5.7750    0.0000 N   0  0  3  0  0  0  0  0  0  0  0  0
    8.9125   -5.1917    0.0000 C   0  0  0  0  0  0  0  0  0  0  0  0
    8.9167   -6.3542    0.0000 C   0  0  0  0  0  0  0  0  0  0  0  0
    7.7750   -5.7792    0.0000 C   0  0  0  0  0  0  0  0  0  0  0  0
    9.6000   -6.1292    0.0000 C   0  0  3  0  0  0  0  0  0  0  0  0
    9.5917   -5.4125    0.0000 C   0  0  0  0  0  0  0  0  0  0  0  0
   11.4125   -6.6667    0.0000 C   0  0  0  0  0  0  0  0  0  0  0  0
   10.1792   -6.5417    0.0000 S   0  0  0  0  0  0  0  0  0  0  0  0
   10.8292   -6.2500    0.0000 C   0  0  0  0  0  0  0  0  0  0  0  0
   11.3417   -7.3875    0.0000 C   0  0  0  0  0  0  0  0  0  0  0  0
    7.4250   -6.4000    0.0000 C   0  0  0  0  0  0  0  0  0  0  0  0
    7.4167   -5.1625    0.0000 C   0  0  0  0  0  0  0  0  0  0  0  0
    8.6875   -4.5042    0.0000 O   0  0  0  0  0  0  0  0  0  0  0  0
    8.7000   -7.0375    0.0000 O   0  0  0  0  0  0  0  0  0  0  0  0
   11.9167   -7.8042    0.0000 O   0  0  0  0  0  0  0  0  0  0  0  0
    6.7000   -5.1667    0.0000 C   0  0  0  0  0  0  0  0  0  0  0  0
    6.7125   -6.4042    0.0000 C   0  0  0  0  0  0  0  0  0  0  0  0
   10.6875   -7.6792    0.0000 O   0  0  0  0  0  0  0  0  0  0  0  0
    6.3417   -5.7875    0.0000 C   0  0  0  0  0  0  0  0  0  0  0  0
   12.0667   -6.3750    0.0000 C   0  0  0  0  0  0  0  0  0  0  0  0
    7.7667   -4.5375    0.0000 O   0  0  0  0  0  0  0  0  0  0  0  0
    6.3542   -7.0292    0.0000 O   0  0  0  0  0  0  0  0  0  0  0  0
   10.8917   -5.5417    0.0000 C   0  0  0  0  0  0  0  0  0  0  0  0
    7.4125   -3.9167    0.0000 C   0  0  0  0  0  0  0  0  0  0  0  0
    5.6417   -7.0417    0.0000 C   0  0  0  0  0  0  0  0  0  0  0  0
   12.1375   -5.6625    0.0000 C   0  0  0  0  0  0  0  0  0  0  0  0
   11.5500   -5.2417    0.0000 C   0  0  0  0  0  0  0  0  0  0  0  0
  2  1  1  0  0  0  0
  3  1  1  0  0  0  0
  4  1  1  0  0  0  0
  5  3  1  0  0  0  0
  6  2  1  0  0  0  0
  7  9  2  0  0  0  0
  8  5  1  0  0  0  0
  9  8  1  0  0  0  0
 10  7  1  0  0  0  0
 11  4  1  0  0  0  0
 12  4  2  0  0  0  0
 13  2  2  0  0  0  0
 14  3  2  0  0  0  0
 15 10  2  0  0  0  0
 16 12  1  0  0  0  0
 17 11  2  0  0  0  0
 18 10  1  0  0  0  0
 19 16  2  0  0  0  0
 20  7  1  0  0  0  0
 21 12  1  0  0  0  0
 22 17  1  0  0  0  0
 23  9  1  0  0  0  0
 24 21  1  0  0  0  0
 25 22  1  0  0  0  0
 26 27  1  0  0  0  0
 27 23  2  0  0  0  0
  6  5  1  0  0  0  0
 19 17  1  0  0  0  0
 26 20  2  0  0  0  0
M  END
> <IDNUMBER>
F3023-0282

> <Chemical_Name>
2-{[1-(2,5-dimethoxyphenyl)-2,5-dioxopyrrolidin-3-yl]sulfanyl}benzoic acid

> <CAS>
831215-36-2

> <PriceCoeff>
1.00

> <MW>
387.41

> <Description>
solid

> <FSP3>
0.21

> <clogP>
2.19

> <TPSA>
118.44

> <Acceptor>
6

> <Donor>
0

> <RotBonds>
6

> <HAC>
27

> <Collection>
General

$$$$
F3048-0226
  -ISIS-  06222321152D

 28 30  0  0  0  0  0  0  0  0999 V2000
    7.3375    2.4208    0.0000 N   0  0  3  0  0  0  0  0  0  0  0  0
    7.2542    3.1708    0.0000 C   0  0  0  0  0  0  0  0  0  0  0  0
    6.6542    2.1208    0.0000 C   0  0  0  0  0  0  0  0  0  0  0  0
    7.9875    2.0458    0.0000 C   0  0  0  0  0  0  0  0  0  0  0  0
    6.5250    3.3208    0.0000 C   0  0  0  0  0  0  0  0  0  0  0  0
    6.1500    2.6708    0.0000 C   0  0  3  0  0  0  0  0  0  0  0  0
    7.9875    1.2958    0.0000 C   0  0  0  0  0  0  0  0  0  0  0  0
    5.4042    2.5958    0.0000 S   0  0  0  0  0  0  0  0  0  0  0  0
    4.2167    3.1208    0.0000 C   0  0  0  0  0  0  0  0  0  0  0  0
    8.6375    0.9208    0.0000 C   0  0  0  0  0  0  0  0  0  0  0  0
    7.8167    3.6708    0.0000 O   0  0  0  0  0  0  0  0  0  0  0  0
    6.4917    1.3833    0.0000 O   0  0  0  0  0  0  0  0  0  0  0  0
    3.7792    3.7333    0.0000 N   0  0  0  0  0  0  0  0  0  0  0  0
    8.6375    2.4208    0.0000 C   0  0  0  0  0  0  0  0  0  0  0  0
    9.2875    1.2958    0.0000 C   0  0  0  0  0  0  0  0  0  0  0  0
    3.9125    2.4375    0.0000 O   0  0  0  0  0  0  0  0  0  0  0  0
    9.2875    2.0458    0.0000 C   0  0  0  0  0  0  0  0  0  0  0  0
    4.9625    3.2083    0.0000 C   0  0  0  0  0  0  0  0  0  0  0  0
    3.0292    3.6500    0.0000 C   0  0  0  0  0  0  0  0  0  0  0  0
    1.5417    3.4958    0.0000 C   0  0  0  0  0  0  0  0  0  0  0  0
    2.7250    2.9708    0.0000 C   0  0  0  0  0  0  0  0  0  0  0  0
    2.5917    4.2542    0.0000 C   0  0  0  0  0  0  0  0  0  0  0  0
    1.8417    4.1667    0.0000 C   0  0  0  0  0  0  0  0  0  0  0  0
    1.9792    2.8958    0.0000 C   0  0  0  0  0  0  0  0  0  0  0  0
    0.7917    3.4208    0.0000 O   0  0  0  0  0  0  0  0  0  0  0  0
    8.6375    0.1708    0.0000 C   0  0  0  0  0  0  0  0  0  0  0  0
    9.9375    0.9208    0.0000 C   0  0  0  0  0  0  0  0  0  0  0  0
    0.4875    2.7333    0.0000 C   0  0  0  0  0  0  0  0  0  0  0  0
  2  1  1  0  0  0  0
  3  1  1  0  0  0  0
  4  1  1  0  0  0  0
  5  2  1  0  0  0  0
  6  3  1  0  0  0  0
  7  4  2  0  0  0  0
  8  6  1  0  0  0  0
  9 18  1  0  0  0  0
 10  7  1  0  0  0  0
 11  2  2  0  0  0  0
 12  3  2  0  0  0  0
 13  9  1  0  0  0  0
 14  4  1  0  0  0  0
 15 17  1  0  0  0  0
 16  9  2  0  0  0  0
 17 14  2  0  0  0  0
 18  8  1  0  0  0  0
 19 13  1  0  0  0  0
 20 23  2  0  0  0  0
 21 19  1  0  0  0  0
 22 19  2  0  0  0  0
 23 22  1  0  0  0  0
 24 21  2  0  0  0  0
 25 20  1  0  0  0  0
 26 10  1  0  0  0  0
 27 15  1  0  0  0  0
 28 25  1  0  0  0  0
  5  6  1  0  0  0  0
 10 15  2  0  0  0  0
 24 20  1  0  0  0  0
M  END
> <IDNUMBER>
F3048-0226

> <Chemical_Name>
2-{[1-(3,4-dimethylphenyl)-2,5-dioxopyrrolidin-3-yl]sulfanyl}-N-(4-methoxyphenyl)acetamide

> <CAS>
835887-18-8

> <PriceCoeff>
1.00

> <MW>
398.48

> <Description>
solid

> <FSP3>
0.29

> <clogP>
3.25

> <TPSA>
101.01

> <Acceptor>
4

> <Donor>
1

> <RotBonds>
6

> <HAC>
28

> <Collection>
General

$$$$
F3019-0040
  -ISIS-  06222321462D

 25 27  0  0  0  0  0  0  0  0999 V2000
    1.7250    0.9333    0.0000 N   0  0  3  0  0  0  0  0  0  0  0  0
    2.3792    1.4208    0.0000 C   0  0  0  0  0  0  0  0  0  0  0  0
    1.9750    0.1375    0.0000 C   0  0  0  0  0  0  0  0  0  0  0  0
    2.8042    0.1375    0.0000 C   0  0  3  0  0  0  0  0  0  0  0  0
    0.9375    1.1833    0.0000 C   0  0  0  0  0  0  0  0  0  0  0  0
    3.0625    0.9333    0.0000 C   0  0  0  0  0  0  0  0  0  0  0  0
    3.4417   -1.9542    0.0000 C   0  0  0  0  0  0  0  0  0  0  0  0
    3.2917   -0.5292    0.0000 S   0  0  0  0  0  0  0  0  0  0  0  0
    2.9542   -1.2917    0.0000 C   0  0  0  0  0  0  0  0  0  0  0  0
    0.7625    1.9958    0.0000 C   0  0  0  0  0  0  0  0  0  0  0  0
    4.2667   -1.8625    0.0000 C   0  0  0  0  0  0  0  0  0  0  0  0
   -0.0250    2.2500    0.0000 C   0  0  0  0  0  0  0  0  0  0  0  0
    2.3792    2.2458    0.0000 O   0  0  0  0  0  0  0  0  0  0  0  0
    1.4875   -0.5292    0.0000 O   0  0  0  0  0  0  0  0  0  0  0  0
    0.3250    0.6333    0.0000 C   0  0  0  0  0  0  0  0  0  0  0  0
   -0.6375    1.6958    0.0000 C   0  0  0  0  0  0  0  0  0  0  0  0
    4.6000   -1.1042    0.0000 O   0  0  0  0  0  0  0  0  0  0  0  0
   -0.4625    0.8833    0.0000 C   0  0  0  0  0  0  0  0  0  0  0  0
   -0.1958    3.0625    0.0000 Cl  0  0  0  0  0  0  0  0  0  0  0  0
    4.7542   -2.5292    0.0000 O   0  0  0  0  0  0  0  0  0  0  0  0
   -1.4250    1.9458    0.0000 F   0  0  0  0  0  0  0  0  0  0  0  0
    3.1042   -2.7042    0.0000 C   0  0  0  0  0  0  0  0  0  0  0  0
    2.1292   -1.3667    0.0000 C   0  0  0  0  0  0  0  0  0  0  0  0
    2.2750   -2.8000    0.0000 C   0  0  0  0  0  0  0  0  0  0  0  0
    1.7917   -2.1292    0.0000 C   0  0  0  0  0  0  0  0  0  0  0  0
  2  1  1  0  0  0  0
  3  1  1  0  0  0  0
  4  3  1  0  0  0  0
  5  1  1  0  0  0  0
  6  2  1  0  0  0  0
  7  9  1  0  0  0  0
  8  4  1  0  0  0  0
  9  8  1  0  0  0  0
 10  5  2  0  0  0  0
 11  7  1  0  0  0  0
 12 10  1  0  0  0  0
 13  2  2  0  0  0  0
 14  3  2  0  0  0  0
 15  5  1  0  0  0  0
 16 18  1  0  0  0  0
 17 11  2  0  0  0  0
 18 15  2  0  0  0  0
 19 12  1  0  0  0  0
 20 11  1  0  0  0  0
 21 16  1  0  0  0  0
 22  7  2  0  0  0  0
 23  9  2  0  0  0  0
 24 25  2  0  0  0  0
 25 23  1  0  0  0  0
  6  4  1  0  0  0  0
 16 12  2  0  0  0  0
 22 24  1  0  0  0  0
M  END
> <IDNUMBER>
F3019-0040

> <Chemical_Name>
2-{[1-(3-chloro-4-fluorophenyl)-2,5-dioxopyrrolidin-3-yl]sulfanyl}benzoic acid

> <CAS>
831214-75-6

> <PriceCoeff>
1.00

> <MW>
379.79

> <Description>
solid

> <FSP3>
0.12

> <clogP>
3.30

> <TPSA>
99.98

> <Acceptor>
4

> <Donor>
0

> <RotBonds>
4

> <HAC>
25

> <Collection>
General

$$$$
F1298-0137
  -ISIS-  06222321142D

 34 37  0  0  0  0  0  0  0  0999 V2000
    2.0042   -0.8417    0.0000 C   0  0  0  0  0  0  0  0  0  0  0  0
    1.5167   -0.1750    0.0000 C   0  0  0  0  0  0  0  0  0  0  0  0
    0.7375   -1.2542    0.0000 C   0  0  0  0  0  0  0  0  0  0  0  0
    0.7292   -0.4375    0.0000 C   0  0  0  0  0  0  0  0  0  0  0  0
    1.5167   -1.5167    0.0000 S   0  0  0  0  0  0  0  0  0  0  0  0
    6.5417   -1.5542    0.0000 N   0  0  3  0  0  0  0  0  0  0  0  0
    2.8292   -0.8417    0.0000 N   0  0  0  0  0  0  0  0  0  0  0  0
   -0.6958   -1.2667    0.0000 N   0  0  3  0  0  0  0  0  0  0  0  0
   -1.4208   -1.6792    0.0000 C   0  0  0  0  0  0  0  0  0  0  0  0
    3.2417   -1.5542    0.0000 C   0  0  0  0  0  0  0  0  0  0  0  0
    7.0625   -2.1917    0.0000 C   0  0  0  0  0  0  0  0  0  0  0  0
    7.0042   -0.8667    0.0000 C   0  0  0  0  0  0  0  0  0  0  0  0
    1.7667    0.6083    0.0000 C   0  0  0  0  0  0  0  0  0  0  0  0
    0.0125   -1.6792    0.0000 C   0  0  0  0  0  0  0  0  0  0  0  0
    0.0125   -0.0167    0.0000 C   0  0  0  0  0  0  0  0  0  0  0  0
    5.7250   -1.5542    0.0000 C   0  0  0  0  0  0  0  0  0  0  0  0
    4.0667   -1.5542    0.0000 C   0  0  0  0  0  0  0  0  0  0  0  0
   -0.6958   -0.4375    0.0000 C   0  0  0  0  0  0  0  0  0  0  0  0
   -1.4208   -2.5042    0.0000 O   0  0  0  0  0  0  0  0  0  0  0  0
    2.8375   -2.2667    0.0000 O   0  0  0  0  0  0  0  0  0  0  0  0
    7.8250   -1.9042    0.0000 C   0  0  0  0  0  0  0  0  0  0  0  0
    7.8000   -1.0917    0.0000 C   0  0  0  0  0  0  0  0  0  0  0  0
    6.8417   -2.9875    0.0000 O   0  0  0  0  0  0  0  0  0  0  0  0
    6.7167   -0.0792    0.0000 O   0  0  0  0  0  0  0  0  0  0  0  0
    1.2042    1.2208    0.0000 O   0  0  0  0  0  0  0  0  0  0  0  0
    5.3042   -0.8375    0.0000 C   0  0  0  0  0  0  0  0  0  0  0  0
    5.3042   -2.2625    0.0000 C   0  0  0  0  0  0  0  0  0  0  0  0
    4.4792   -2.2625    0.0000 C   0  0  0  0  0  0  0  0  0  0  0  0
    4.4792   -0.8375    0.0000 C   0  0  0  0  0  0  0  0  0  0  0  0
   -2.1333   -1.2667    0.0000 O   0  0  0  0  0  0  0  0  0  0  0  0
    2.5875    0.7833    0.0000 O   0  0  0  0  0  0  0  0  0  0  0  0
   -2.1375   -0.4375    0.0000 C   0  0  0  0  0  0  0  0  0  0  0  0
    3.1417    0.1708    0.0000 C   0  0  0  0  0  0  0  0  0  0  0  0
   -2.8458   -0.0250    0.0000 C   0  0  0  0  0  0  0  0  0  0  0  0
  2  1  2  0  0  0  0
  3  5  1  0  0  0  0
  4  2  1  0  0  0  0
  5  1  1  0  0  0  0
  6 16  1  0  0  0  0
  7  1  1  0  0  0  0
  8 14  1  0  0  0  0
  9  8  1  0  0  0  0
 10  7  1  0  0  0  0
 11  6  1  0  0  0  0
 12  6  1  0  0  0  0
 13  2  1  0  0  0  0
 14  3  1  0  0  0  0
 15  4  1  0  0  0  0
 16 26  1  0  0  0  0
 17 10  1  0  0  0  0
 18 15  1  0  0  0  0
 19  9  2  0  0  0  0
 20 10  2  0  0  0  0
 21 11  1  0  0  0  0
 22 12  1  0  0  0  0
 23 11  2  0  0  0  0
 24 12  2  0  0  0  0
 25 13  2  0  0  0  0
 26 29  2  0  0  0  0
 27 28  1  0  0  0  0
 28 17  2  0  0  0  0
 29 17  1  0  0  0  0
 30  9  1  0  0  0  0
 31 13  1  0  0  0  0
 32 30  1  0  0  0  0
 33 31  1  0  0  0  0
 34 32  1  0  0  0  0
  3  4  2  0  0  0  0
  8 18  1  0  0  0  0
 16 27  2  0  0  0  0
 22 21  1  0  0  0  0
M  END
> <IDNUMBER>
F1298-0137

> <Chemical_Name>
6-ethyl 3-methyl 2-[4-(2,5-dioxopyrrolidin-1-yl)benzamido]-4H,5H,6H,7H-thieno[2,3-c]pyridine-3,6-dicarboxylate

> <CAS>
864926-20-5

> <PriceCoeff>
1.00

> <MW>
485.51

> <Description>
solid

> <FSP3>
0.35

> <clogP>
1.84

> <TPSA>
150.56

> <Acceptor>
7

> <Donor>
1

> <RotBonds>
8

> <HAC>
34

> <Collection>
General

$$$$
F8888-0334
  -ISIS-  06222321162D

 13 14  0  0  0  0  0  0  0  0999 V2000
    0.0417   -1.7167    0.0000 N   0  0  0  0  0  0  0  0  0  0  0  0
    0.3000   -2.5042    0.0000 C   0  0  0  0  0  0  0  0  0  0  0  0
    1.3792   -1.7167    0.0000 N   0  0  0  0  0  0  0  0  0  0  0  0
    1.1250   -2.5042    0.0000 O   0  0  0  0  0  0  0  0  0  0  0  0
    0.7125   -1.2375    0.0000 C   0  0  0  0  0  0  0  0  0  0  0  0
   -0.1833   -3.1667    0.0000 C   0  0  0  0  0  0  0  0  0  0  0  0
   -1.4958   -3.7542    0.0000 C   0  0  0  0  0  0  0  0  0  0  0  0
   -1.1583   -4.5042    0.0000 N   0  0  0  0  0  0  0  0  0  0  0  0
   -1.0083   -3.0875    0.0000 C   0  0  0  0  0  0  0  0  0  0  0  0
   -2.3125   -3.6667    0.0000 Cl  0  0  0  0  0  0  0  0  0  0  0  0
   -0.3333   -4.5917    0.0000 C   0  0  0  0  0  0  0  0  0  0  0  0
    0.1500   -3.9250    0.0000 C   0  0  0  0  0  0  0  0  0  0  0  0
    0.7125   -0.4125    0.0000 C   0  0  0  0  0  0  0  0  0  0  0  0
  2  1  2  0  0  0  0
  3  5  2  0  0  0  0
  4  2  1  0  0  0  0
  5  1  1  0  0  0  0
  6  2  1  0  0  0  0
  7  9  1  0  0  0  0
  8 11  1  0  0  0  0
  9  6  2  0  0  0  0
 10  7  1  0  0  0  0
 11 12  2  0  0  0  0
 12  6  1  0  0  0  0
 13  5  1  0  0  0  0
  3  4  1  0  0  0  0
  7  8  2  0  0  0  0
M  END
> <IDNUMBER>
F8888-0334

> <Chemical_Name>
2-chloro-4-(3-methyl-1,2,4-oxadiazol-5-yl)pyridine

> <CAS>
959240-51-8

> <PriceCoeff>
1.00

> <MW>
195.61

> <Description>
solid

> <FSP3>
0.12

> <clogP>
1.21

> <TPSA>
51.81

> <Acceptor>
4

> <Donor>
1

> <RotBonds>
1

> <HAC>
13

> <Collection>
General

> <Reference_compound>
CHEMBL2272947

> <Similarity>
0.8390

$$$$
F1298-0148
  -ISIS-  06222321442D

 34 37  0  0  0  0  0  0  0  0999 V2000
    2.3417   -0.2542    0.0000 C   0  0  0  0  0  0  0  0  0  0  0  0
    1.8542    0.4083    0.0000 C   0  0  0  0  0  0  0  0  0  0  0  0
    1.0750   -0.6750    0.0000 C   0  0  0  0  0  0  0  0  0  0  0  0
    6.0542   -2.4042    0.0000 N   0  0  3  0  0  0  0  0  0  0  0  0
    1.0667    0.1458    0.0000 C   0  0  0  0  0  0  0  0  0  0  0  0
    1.8542   -0.9292    0.0000 S   0  0  0  0  0  0  0  0  0  0  0  0
    3.1750   -0.2542    0.0000 N   0  0  0  0  0  0  0  0  0  0  0  0
   -0.3583   -0.6875    0.0000 N   0  0  3  0  0  0  0  0  0  0  0  0
    5.6417   -1.6875    0.0000 C   0  0  0  0  0  0  0  0  0  0  0  0
    3.5792   -0.9750    0.0000 C   0  0  0  0  0  0  0  0  0  0  0  0
   -1.0750   -1.0917    0.0000 C   0  0  0  0  0  0  0  0  0  0  0  0
    5.6792   -3.1375    0.0000 C   0  0  0  0  0  0  0  0  0  0  0  0
    6.8667   -2.5167    0.0000 C   0  0  0  0  0  0  0  0  0  0  0  0
    2.1042    1.1875    0.0000 C   0  0  0  0  0  0  0  0  0  0  0  0
    0.3500   -1.0917    0.0000 C   0  0  0  0  0  0  0  0  0  0  0  0
    0.3500    0.5625    0.0000 C   0  0  0  0  0  0  0  0  0  0  0  0
    4.8125   -1.6875    0.0000 C   0  0  0  0  0  0  0  0  0  0  0  0
    4.4042   -0.9750    0.0000 C   0  0  0  0  0  0  0  0  0  0  0  0
   -0.3583    0.1458    0.0000 C   0  0  0  0  0  0  0  0  0  0  0  0
   -1.0750   -1.9250    0.0000 O   0  0  0  0  0  0  0  0  0  0  0  0
    3.1750   -1.6917    0.0000 O   0  0  0  0  0  0  0  0  0  0  0  0
    6.2917   -3.7125    0.0000 C   0  0  0  0  0  0  0  0  0  0  0  0
    7.0167   -3.3292    0.0000 C   0  0  0  0  0  0  0  0  0  0  0  0
    4.8667   -3.2750    0.0000 O   0  0  0  0  0  0  0  0  0  0  0  0
    7.4500   -1.9417    0.0000 O   0  0  0  0  0  0  0  0  0  0  0  0
    1.5500    1.7958    0.0000 O   0  0  0  0  0  0  0  0  0  0  0  0
   -1.7875   -0.6875    0.0000 O   0  0  0  0  0  0  0  0  0  0  0  0
    2.9250    1.3625    0.0000 O   0  0  0  0  0  0  0  0  0  0  0  0
    6.0542   -0.9750    0.0000 C   0  0  0  0  0  0  0  0  0  0  0  0
    4.8125   -0.2542    0.0000 C   0  0  0  0  0  0  0  0  0  0  0  0
    5.6417   -0.2542    0.0000 C   0  0  0  0  0  0  0  0  0  0  0  0
   -1.7958    0.1458    0.0000 C   0  0  0  0  0  0  0  0  0  0  0  0
    3.4792    0.7500    0.0000 C   0  0  0  0  0  0  0  0  0  0  0  0
   -2.5083    0.5583    0.0000 C   0  0  0  0  0  0  0  0  0  0  0  0
  2  1  2  0  0  0  0
  3  6  1  0  0  0  0
  4  9  1  0  0  0  0
  5  2  1  0  0  0  0
  6  1  1  0  0  0  0
  7  1  1  0  0  0  0
  8 15  1  0  0  0  0
  9 17  1  0  0  0  0
 10  7  1  0  0  0  0
 11  8  1  0  0  0  0
 12  4  1  0  0  0  0
 13  4  1  0  0  0  0
 14  2  1  0  0  0  0
 15  3  1  0  0  0  0
 16  5  1  0  0  0  0
 17 18  2  0  0  0  0
 18 10  1  0  0  0  0
 19 16  1  0  0  0  0
 20 11  2  0  0  0  0
 21 10  2  0  0  0  0
 22 12  1  0  0  0  0
 23 13  1  0  0  0  0
 24 12  2  0  0  0  0
 25 13  2  0  0  0  0
 26 14  2  0  0  0  0
 27 11  1  0  0  0  0
 28 14  1  0  0  0  0
 29 31  1  0  0  0  0
 30 18  1  0  0  0  0
 31 30  2  0  0  0  0
 32 27  1  0  0  0  0
 33 28  1  0  0  0  0
 34 32  1  0  0  0  0
  3  5  2  0  0  0  0
  8 19  1  0  0  0  0
  9 29  2  0  0  0  0
 23 22  1  0  0  0  0
M  END
> <IDNUMBER>
F1298-0148

> <Chemical_Name>
6-ethyl 3-methyl 2-[3-(2,5-dioxopyrrolidin-1-yl)benzamido]-4H,5H,6H,7H-thieno[2,3-c]pyridine-3,6-dicarboxylate

> <CAS>
921166-06-5

> <PriceCoeff>
1.00

> <MW>
485.51

> <Description>
solid

> <FSP3>
0.35

> <clogP>
1.84

> <TPSA>
150.56

> <Acceptor>
7

> <Donor>
1

> <RotBonds>
8

> <HAC>
34

> <Collection>
General

$$$$
F3048-0060
  -ISIS-  06222321442D

 28 30  0  0  0  0  0  0  0  0999 V2000
    2.8667    1.8708    0.0000 N   0  0  3  0  0  0  0  0  0  0  0  0
    3.3042    1.2625    0.0000 C   0  0  0  0  0  0  0  0  0  0  0  0
    3.3042    2.4833    0.0000 C   0  0  0  0  0  0  0  0  0  0  0  0
    2.1167    1.8708    0.0000 C   0  0  0  0  0  0  0  0  0  0  0  0
    4.0167    1.4958    0.0000 C   0  0  0  0  0  0  0  0  0  0  0  0
    4.0167    2.2458    0.0000 C   0  0  3  0  0  0  0  0  0  0  0  0
    4.6250    2.6875    0.0000 S   0  0  0  0  0  0  0  0  0  0  0  0
    5.9167    2.8333    0.0000 C   0  0  0  0  0  0  0  0  0  0  0  0
    3.0750    0.5500    0.0000 O   0  0  0  0  0  0  0  0  0  0  0  0
    6.6042    2.5208    0.0000 N   0  0  0  0  0  0  0  0  0  0  0  0
    1.7417    2.5208    0.0000 C   0  0  0  0  0  0  0  0  0  0  0  0
    1.7417    1.2208    0.0000 C   0  0  0  0  0  0  0  0  0  0  0  0
    3.0750    3.1958    0.0000 O   0  0  0  0  0  0  0  0  0  0  0  0
    7.2042    2.9583    0.0000 C   0  0  0  0  0  0  0  0  0  0  0  0
    7.8917    2.6583    0.0000 C   0  0  0  0  0  0  0  0  0  0  0  0
    5.8417    3.5708    0.0000 O   0  0  0  0  0  0  0  0  0  0  0  0
    0.9917    1.2208    0.0000 C   0  0  0  0  0  0  0  0  0  0  0  0
    0.9917    2.5208    0.0000 C   0  0  0  0  0  0  0  0  0  0  0  0
    5.3125    2.3833    0.0000 C   0  0  0  0  0  0  0  0  0  0  0  0
    0.6167    1.8708    0.0000 C   0  0  0  0  0  0  0  0  0  0  0  0
    8.5042    3.0958    0.0000 C   0  0  0  0  0  0  0  0  0  0  0  0
    9.1875    2.7875    0.0000 O   0  0  0  0  0  0  0  0  0  0  0  0
    7.7375    4.1417    0.0000 C   0  0  0  0  0  0  0  0  0  0  0  0
    7.1292    3.7083    0.0000 C   0  0  0  0  0  0  0  0  0  0  0  0
    0.6167    3.1708    0.0000 C   0  0  0  0  0  0  0  0  0  0  0  0
    0.6167    0.5708    0.0000 C   0  0  0  0  0  0  0  0  0  0  0  0
    8.4250    3.8458    0.0000 C   0  0  0  0  0  0  0  0  0  0  0  0
    9.7917    3.2333    0.0000 C   0  0  0  0  0  0  0  0  0  0  0  0
  2  1  1  0  0  0  0
  3  1  1  0  0  0  0
  4  1  1  0  0  0  0
  5  2  1  0  0  0  0
  6  3  1  0  0  0  0
  7  6  1  0  0  0  0
  8 19  1  0  0  0  0
  9  2  2  0  0  0  0
 10  8  1  0  0  0  0
 11  4  1  0  0  0  0
 12  4  2  0  0  0  0
 13  3  2  0  0  0  0
 14 10  1  0  0  0  0
 15 14  1  0  0  0  0
 16  8  2  0  0  0  0
 17 12  1  0  0  0  0
 18 11  2  0  0  0  0
 19  7  1  0  0  0  0
 20 17  2  0  0  0  0
 21 15  2  0  0  0  0
 22 21  1  0  0  0  0
 23 24  1  0  0  0  0
 24 14  2  0  0  0  0
 25 18  1  0  0  0  0
 26 17  1  0  0  0  0
 27 23  2  0  0  0  0
 28 22  1  0  0  0  0
  5  6  1  0  0  0  0
 18 20  1  0  0  0  0
 21 27  1  0  0  0  0
M  END
> <IDNUMBER>
F3048-0060

> <Chemical_Name>
2-{[1-(3,5-dimethylphenyl)-2,5-dioxopyrrolidin-3-yl]sulfanyl}-N-(3-methoxyphenyl)acetamide

> <CAS>
714262-51-8

> <PriceCoeff>
1.00

> <MW>
398.48

> <Description>
solid

> <FSP3>
0.29

> <clogP>
3.30

> <TPSA>
101.01

> <Acceptor>
4

> <Donor>
1

> <RotBonds>
6

> <HAC>
28

> <Collection>
General

$$$$
F8881-4530
  -ISIS-  06222321442D

 13 14  0  0  0  0  0  0  0  0999 V2000
    6.8917   -6.1917    0.0000 C   0  0  0  0  0  0  0  0  0  0  0  0
    6.3417   -6.8167    0.0000 N   0  0  0  0  0  0  0  0  0  0  0  0
    6.6792   -5.4042    0.0000 C   0  0  0  0  0  0  0  0  0  0  0  0
    7.5667   -7.3417    0.0000 N   0  0  0  0  0  0  0  0  0  0  0  0
    7.6500   -6.5167    0.0000 O   0  0  0  0  0  0  0  0  0  0  0  0
    6.7667   -7.5167    0.0000 C   0  0  0  0  0  0  0  0  0  0  0  0
    5.8875   -5.1917    0.0000 C   0  0  0  0  0  0  0  0  0  0  0  0
    5.6750   -4.3917    0.0000 N   0  0  0  0  0  0  0  0  0  0  0  0
    5.3042   -5.7750    0.0000 Cl  0  0  0  0  0  0  0  0  0  0  0  0
    7.2667   -4.8167    0.0000 C   0  0  0  0  0  0  0  0  0  0  0  0
    6.4417   -8.2792    0.0000 C   0  0  0  0  0  0  0  0  0  0  0  0
    6.2500   -3.8167    0.0000 C   0  0  0  0  0  0  0  0  0  0  0  0
    7.0542   -4.0292    0.0000 C   0  0  0  0  0  0  0  0  0  0  0  0
  2  1  2  0  0  0  0
  3  1  1  0  0  0  0
  4  5  1  0  0  0  0
  5  1  1  0  0  0  0
  6  2  1  0  0  0  0
  7  3  2  0  0  0  0
  8  7  1  0  0  0  0
  9  7  1  0  0  0  0
 10  3  1  0  0  0  0
 11  6  1  0  0  0  0
 12 13  1  0  0  0  0
 13 10  2  0  0  0  0
  4  6  2  0  0  0  0
 12  8  2  0  0  0  0
M  END
> <IDNUMBER>
F8881-4530

> <Chemical_Name>
2-chloro-3-(3-methyl-1,2,4-oxadiazol-5-yl)pyridine

> <CAS>
890095-56-4

> <PriceCoeff>
1.00

> <MW>
195.61

> <Description>
solid

> <FSP3>
0.12

> <clogP>
0.96

> <TPSA>
51.81

> <Acceptor>
4

> <Donor>
1

> <RotBonds>
1

> <HAC>
13

> <Collection>
General

> <Reference_compound>
CHEMBL2268707

> <Similarity>
0.8260

$$$$
F0915-0501
  -ISIS-  06222321142D

 26 28  0  0  0  0  0  0  0  0999 V2000
   -0.0708    4.7417    0.0000 N   0  0  3  0  0  0  0  0  0  0  0  0
    2.9167    6.5542    0.0000 C   0  0  0  0  0  0  0  0  0  0  0  0
    0.6417    1.3708    0.0000 C   0  0  0  0  0  0  0  0  0  0  0  0
    3.9875    1.0458    0.0000 C   0  0  3  0  0  0  0  0  0  0  0  0
    5.4500    4.2042    0.0000 C   0  0  0  0  0  0  0  0  0  0  0  0
   -3.0708    6.5542    0.0000 C   0  0  0  0  0  0  0  0  0  0  0  0
   10.8667   -5.0292    0.0000 C   0  0  0  0  0  0  0  0  0  0  0  0
    5.6792   -2.0000    0.0000 S   0  0  0  0  0  0  0  0  0  0  0  0
    9.1417   -2.1042    0.0000 C   0  0  0  0  0  0  0  0  0  0  0  0
    9.1417   -7.9500    0.0000 C   0  0  0  0  0  0  0  0  0  0  0  0
  -11.8792    4.8667    0.0000 C   0  0  0  0  0  0  0  0  0  0  0  0
   -5.9583    4.8125    0.0000 C   0  0  0  0  0  0  0  0  0  0  0  0
   -8.9250    6.5542    0.0000 C   0  0  0  0  0  0  0  0  0  0  0  0
    3.2542    9.9000    0.0000 O   0  0  0  0  0  0  0  0  0  0  0  0
   -1.5333   -1.1875    0.0000 O   0  0  0  0  0  0  0  0  0  0  0  0
   10.9250  -10.9250    0.0000 O   0  0  0  0  0  0  0  0  0  0  0  0
  -11.9542    1.4625    0.0000 O   0  0  0  0  0  0  0  0  0  0  0  0
    5.6792   -8.0417    0.0000 O   0  0  0  0  0  0  0  0  0  0  0  0
  -14.9167    6.4667    0.0000 O   0  0  0  0  0  0  0  0  0  0  0  0
   -3.0708    9.9000    0.0000 C   0  0  0  0  0  0  0  0  0  0  0  0
   14.2917   -5.0292    0.0000 C   0  0  0  0  0  0  0  0  0  0  0  0
   10.9250    0.8833    0.0000 C   0  0  0  0  0  0  0  0  0  0  0  0
   -8.9250    9.9000    0.0000 C   0  0  0  0  0  0  0  0  0  0  0  0
   -5.9583   11.5875    0.0000 C   0  0  0  0  0  0  0  0  0  0  0  0
   16.0000   -2.1042    0.0000 C   0  0  0  0  0  0  0  0  0  0  0  0
   14.2917    0.8833    0.0000 C   0  0  0  0  0  0  0  0  0  0  0  0
  2  1  1  0  0  0  0
  3  1  1  0  0  0  0
  4  3  1  0  0  0  0
  5  2  1  0  0  0  0
  6  1  1  0  0  0  0
  7  9  2  0  0  0  0
  8  4  1  0  0  0  0
  9  8  1  0  0  0  0
 10  7  1  0  0  0  0
 11 13  1  0  0  0  0
 12  6  1  0  0  0  0
 13 12  2  0  0  0  0
 14  2  2  0  0  0  0
 15  3  2  0  0  0  0
 16 10  2  0  0  0  0
 17 11  2  0  0  0  0
 18 10  1  0  0  0  0
 19 11  1  0  0  0  0
 20  6  2  0  0  0  0
 21  7  1  0  0  0  0
 22  9  1  0  0  0  0
 23 24  2  0  0  0  0
 24 20  1  0  0  0  0
 25 26  1  0  0  0  0
 26 22  2  0  0  0  0
  5  4  1  0  0  0  0
 13 23  1  0  0  0  0
 25 21  2  0  0  0  0
M  END
> <IDNUMBER>
F0915-0501

> <Chemical_Name>
3-{3-[(2-carboxyphenyl)sulfanyl]-2,5-dioxopyrrolidin-1-yl}benzoic acid

> <CAS>
428450-58-2

> <PriceCoeff>
1.00

> <MW>
371.36

> <Description>
solid

> <FSP3>
0.11

> <clogP>
2.13

> <TPSA>
137.28

> <Acceptor>
6

> <Donor>
0

> <RotBonds>
5

> <HAC>
26

> <Collection>
General

$$$$
F3394-0334
  -ISIS-  06222321152D

 32 36  0  0  0  0  0  0  0  0999 V2000
    3.3875   -5.4500    0.0000 C   0  0  0  0  0  0  0  0  0  0  0  0
    3.3875   -4.6250    0.0000 C   0  0  0  0  0  0  0  0  0  0  0  0
    1.9542   -5.4417    0.0000 N   0  0  3  0  0  0  0  0  0  0  0  0
    1.9542   -4.6167    0.0000 C   0  0  0  0  0  0  0  0  0  0  0  0
    2.6792   -4.2042    0.0000 N   0  0  0  0  0  0  0  0  0  0  0  0
    2.6667   -5.8542    0.0000 C   0  0  0  0  0  0  0  0  0  0  0  0
    4.1667   -4.3750    0.0000 S   0  0  0  0  0  0  0  0  0  0  0  0
    4.1667   -5.7042    0.0000 C   0  0  0  0  0  0  0  0  0  0  0  0
    4.6500   -5.0417    0.0000 C   0  0  0  0  0  0  0  0  0  0  0  0
    1.2417   -4.2042    0.0000 S   0  0  0  0  0  0  0  0  0  0  0  0
    1.9542   -2.9667    0.0000 C   0  0  0  0  0  0  0  0  0  0  0  0
    1.9542   -2.1417    0.0000 N   0  0  3  0  0  0  0  0  0  0  0  0
    1.2375   -5.8500    0.0000 C   0  0  0  0  0  0  0  0  0  0  0  0
    2.6667   -6.6792    0.0000 O   0  0  0  0  0  0  0  0  0  0  0  0
    1.2417   -3.3792    0.0000 C   0  0  0  0  0  0  0  0  0  0  0  0
    2.6667   -3.3792    0.0000 O   0  0  0  0  0  0  0  0  0  0  0  0
    4.3792   -6.5000    0.0000 C   0  0  0  0  0  0  0  0  0  0  0  0
    5.4750   -5.0042    0.0000 C   0  0  0  0  0  0  0  0  0  0  0  0
    1.2125   -1.7792    0.0000 C   0  0  0  0  0  0  0  0  0  0  0  0
    2.7042   -1.7792    0.0000 C   0  0  0  0  0  0  0  0  0  0  0  0
    1.2375   -6.6792    0.0000 C   0  0  0  0  0  0  0  0  0  0  0  0
    0.5250   -5.4375    0.0000 C   0  0  0  0  0  0  0  0  0  0  0  0
    5.1292   -6.8292    0.0000 C   0  0  0  0  0  0  0  0  0  0  0  0
    6.0125   -5.6292    0.0000 C   0  0  0  0  0  0  0  0  0  0  0  0
    2.8792   -0.9750    0.0000 C   0  0  0  0  0  0  0  0  0  0  0  0
    1.0375   -0.9792    0.0000 C   0  0  0  0  0  0  0  0  0  0  0  0
   -0.1958   -5.8500    0.0000 C   0  0  0  0  0  0  0  0  0  0  0  0
    0.5250   -7.0917    0.0000 C   0  0  0  0  0  0  0  0  0  0  0  0
   -0.1958   -6.6750    0.0000 C   0  0  0  0  0  0  0  0  0  0  0  0
    1.5542   -0.3292    0.0000 C   0  0  0  0  0  0  0  0  0  0  0  0
    2.3667   -0.3292    0.0000 C   0  0  0  0  0  0  0  0  0  0  0  0
    5.8667   -6.4417    0.0000 C   0  0  0  0  0  0  0  0  0  0  0  0
  2  1  2  0  0  0  0
  3  6  1  0  0  0  0
  4  3  1  0  0  0  0
  5  2  1  0  0  0  0
  6  1  1  0  0  0  0
  7  2  1  0  0  0  0
  8  1  1  0  0  0  0
  9  8  2  0  0  0  0
 10  4  1  0  0  0  0
 11 15  1  0  0  0  0
 12 11  1  0  0  0  0
 13  3  1  0  0  0  0
 14  6  2  0  0  0  0
 15 10  1  0  0  0  0
 16 11  2  0  0  0  0
 17  8  1  0  0  0  0
 18  9  1  0  0  0  0
 19 12  1  0  0  0  0
 20 12  1  0  0  0  0
 21 13  1  0  0  0  0
 22 13  2  0  0  0  0
 23 17  1  0  0  0  0
 24 18  1  0  0  0  0
 25 20  1  0  0  0  0
 26 19  1  0  0  0  0
 27 22  1  0  0  0  0
 28 21  2  0  0  0  0
 29 27  2  0  0  0  0
 30 26  1  0  0  0  0
 31 25  1  0  0  0  0
 32 23  1  0  0  0  0
  9  7  1  0  0  0  0
  5  4  2  0  0  0  0
 24 32  1  0  0  0  0
 29 28  1  0  0  0  0
 30 31  1  0  0  0  0
M  END
> <IDNUMBER>
F3394-0334

> <Chemical_Name>
5-{[2-(azepan-1-yl)-2-oxoethyl]sulfanyl}-4-phenyl-8-thia-4,6-diazatricyclo[7.5.0.0^{2,7}]tetradeca-1(9),2(7),5-trien-3-one

> <CAS>
670273-26-4

> <PriceCoeff>
1.00

> <MW>
467.65

> <Description>
solid

> <FSP3>
0.48

> <clogP>
6.16

> <TPSA>
106.52

> <Acceptor>
3

> <Donor>
0

> <RotBonds>
5

> <HAC>
32

> <Collection>
General

> <Reference_compound>
CHEMBL577016

> <Similarity>
0.8350

$$$$
F3222-0033
  -ISIS-  06222321442D

 17 19  0  0  0  0  0  0  0  0999 V2000
    7.4042   -5.7875    0.0000 C   0  0  0  0  0  0  0  0  0  0  0  0
    6.6875   -5.3667    0.0000 C   0  0  0  0  0  0  0  0  0  0  0  0
    5.9750   -5.7875    0.0000 C   0  0  0  0  0  0  0  0  0  0  0  0
    7.4000   -6.6125    0.0000 C   0  0  0  0  0  0  0  0  0  0  0  0
    6.6875   -7.0292    0.0000 N   0  0  0  0  0  0  0  0  0  0  0  0
    5.9667   -6.6125    0.0000 C   0  0  0  0  0  0  0  0  0  0  0  0
    5.2542   -5.3750    0.0000 C   0  0  0  0  0  0  0  0  0  0  0  0
    6.6875   -4.5417    0.0000 O   0  0  0  0  0  0  0  0  0  0  0  0
    5.2542   -7.0292    0.0000 C   0  0  0  0  0  0  0  0  0  0  0  0
    4.5417   -5.7875    0.0000 C   0  0  0  0  0  0  0  0  0  0  0  0
    8.1167   -5.3750    0.0000 C   0  0  0  0  0  0  0  0  0  0  0  0
    4.5417   -6.6167    0.0000 C   0  0  0  0  0  0  0  0  0  0  0  0
    8.1125   -7.0292    0.0000 C   0  0  0  0  0  0  0  0  0  0  0  0
    3.8292   -5.3750    0.0000 O   0  0  0  0  0  0  0  0  0  0  0  0
    3.1167   -5.7917    0.0000 C   0  0  0  0  0  0  0  0  0  0  0  0
    8.8292   -5.7917    0.0000 C   0  0  0  0  0  0  0  0  0  0  0  0
    8.8292   -6.6167    0.0000 C   0  0  0  0  0  0  0  0  0  0  0  0
  2  1  1  0  0  0  0
  3  2  1  0  0  0  0
  4  1  2  0  0  0  0
  5  4  1  0  0  0  0
  6  5  1  0  0  0  0
  7  3  2  0  0  0  0
  8  2  2  0  0  0  0
  9  6  2  0  0  0  0
 10  7  1  0  0  0  0
 11  1  1  0  0  0  0
 12  9  1  0  0  0  0
 13  4  1  0  0  0  0
 14 10  1  0  0  0  0
 15 14  1  0  0  0  0
 16 11  1  0  0  0  0
 17 16  1  0  0  0  0
 17 13  1  0  0  0  0
  6  3  1  0  0  0  0
 12 10  2  0  0  0  0
M  END
> <IDNUMBER>
F3222-0033

> <Chemical_Name>
7-methoxy-1,2,3,4,9,10-hexahydroacridin-9-one

> <CAS>


> <PriceCoeff>
1.00

> <MW>
229.27

> <Description>
solid

> <FSP3>
0.36

> <clogP>
1.87

> <TPSA>
38.33

> <Acceptor>
3

> <Donor>
1

> <RotBonds>
1

> <HAC>
17

> <Collection>
General

> <Reference_compound>
CHEMBL1911517

> <Similarity>
0.8050

$$$$
F0700-0166
  -ISIS-  06222321142D

 30 34  0  0  0  0  0  0  0  0999 V2000
    3.3500    0.8625    0.0000 N   0  0  3  0  0  0  0  0  0  0  0  0
    1.0292   -0.3792    0.0000 C   0  0  0  0  0  0  0  0  0  0  0  0
    0.7000    0.0458    0.0000 N   0  0  0  0  0  0  0  0  0  0  0  0
    1.5292   -0.4042    0.0000 N   0  0  0  0  0  0  0  0  0  0  0  0
    0.2500   -0.1167    0.0000 C   0  0  0  0  0  0  0  0  0  0  0  0
    3.0875    0.4333    0.0000 C   0  0  0  0  0  0  0  0  0  0  0  0
    1.7875   -0.0000    0.0000 C   0  0  0  0  0  0  0  0  0  0  0  0
    3.8667    0.9000    0.0000 C   0  0  0  0  0  0  0  0  0  0  0  0
    3.1500    1.3333    0.0000 C   0  0  0  0  0  0  0  0  0  0  0  0
    0.7167   -0.7875    0.0000 S   0  0  0  0  0  0  0  0  0  0  0  0
    0.2375   -0.6542    0.0000 C   0  0  0  0  0  0  0  0  0  0  0  0
   -0.1708    0.1958    0.0000 C   0  0  0  0  0  0  0  0  0  0  0  0
    2.5667    0.4500    0.0000 C   0  0  0  0  0  0  0  0  0  0  0  0
   -1.0625    0.2958    0.0000 C   0  0  0  0  0  0  0  0  0  0  0  0
    2.3042   -0.0000    0.0000 C   0  0  0  0  0  0  0  0  0  0  0  0
   -0.6458   -0.0167    0.0000 C   0  0  0  0  0  0  0  0  0  0  0  0
   -1.0208    0.7833    0.0000 C   0  0  0  0  0  0  0  0  0  0  0  0
   -1.5500    0.1500    0.0000 O   0  0  0  0  0  0  0  0  0  0  0  0
   -1.4625    0.9958    0.0000 O   0  0  0  0  0  0  0  0  0  0  0  0
   -1.8125    0.6125    0.0000 C   0  0  0  0  0  0  0  0  0  0  0  0
    1.5542    0.4500    0.0000 O   0  0  0  0  0  0  0  0  0  0  0  0
    3.5500    1.6500    0.0000 C   0  0  0  0  0  0  0  0  0  0  0  0
    3.9792    1.4125    0.0000 C   0  0  0  0  0  0  0  0  0  0  0  0
    2.6542    1.4500    0.0000 O   0  0  0  0  0  0  0  0  0  0  0  0
    4.1875    0.4958    0.0000 O   0  0  0  0  0  0  0  0  0  0  0  0
   -0.1125    0.6958    0.0000 C   0  0  0  0  0  0  0  0  0  0  0  0
   -0.5333    1.0000    0.0000 C   0  0  0  0  0  0  0  0  0  0  0  0
    3.3542   -0.0167    0.0000 C   0  0  0  0  0  0  0  0  0  0  0  0
    2.5542   -0.4792    0.0000 C   0  0  0  0  0  0  0  0  0  0  0  0
    3.0875   -0.4792    0.0000 C   0  0  0  0  0  0  0  0  0  0  0  0
  2  4  1  0  0  0  0
  3  2  2  0  0  0  0
  4  7  1  0  0  0  0
  5  3  1  0  0  0  0
  6  1  1  0  0  0  0
  7 15  1  0  0  0  0
  8  1  1  0  0  0  0
  9  1  1  0  0  0  0
 10  2  1  0  0  0  0
 11 10  1  0  0  0  0
 12  5  1  0  0  0  0
 13  6  2  0  0  0  0
 14 16  1  0  0  0  0
 15 13  1  0  0  0  0
 16 12  2  0  0  0  0
 17 27  1  0  0  0  0
 18 14  1  0  0  0  0
 19 17  1  0  0  0  0
 20 18  1  0  0  0  0
 21  7  2  0  0  0  0
 22  9  1  0  0  0  0
 23  8  1  0  0  0  0
 24  9  2  0  0  0  0
 25  8  2  0  0  0  0
 26 12  1  0  0  0  0
 27 26  2  0  0  0  0
 28  6  1  0  0  0  0
 29 30  1  0  0  0  0
 30 28  2  0  0  0  0
 23 22  1  0  0  0  0
 29 15  2  0  0  0  0
 11  5  2  0  0  0  0
 14 17  2  0  0  0  0
 19 20  1  0  0  0  0
M  END
> <IDNUMBER>
F0700-0166

> <Chemical_Name>
N-[4-(2H-1,3-benzodioxol-5-yl)-1,3-thiazol-2-yl]-3-(2,5-dioxopyrrolidin-1-yl)benzamide

> <CAS>
393837-58-6

> <PriceCoeff>
1.00

> <MW>
421.43

> <Description>
solid

> <FSP3>
0.14

> <clogP>
2.17

> <TPSA>
126.07

> <Acceptor>
6

> <Donor>
1

> <RotBonds>
4

> <HAC>
30

> <Collection>
General

$$$$
F1065-0525
  -ISIS-  06222321442D

 27 29  0  0  0  0  0  0  0  0999 V2000
   -0.6208    0.4708    0.0000 N   0  0  3  0  0  0  0  0  0  0  0  0
   -0.4833    1.4958    0.0000 C   0  0  0  0  0  0  0  0  0  0  0  0
    0.3000   -0.0000    0.0000 C   0  0  0  0  0  0  0  0  0  0  0  0
    1.0375    0.7458    0.0000 C   0  0  3  0  0  0  0  0  0  0  0  0
    0.5667    1.6833    0.0000 C   0  0  0  0  0  0  0  0  0  0  0  0
    3.7500    1.2625    0.0000 C   0  0  0  0  0  0  0  0  0  0  0  0
    2.0792    0.5958    0.0000 S   0  0  0  0  0  0  0  0  0  0  0  0
    2.7292    1.4125    0.0000 C   0  0  0  0  0  0  0  0  0  0  0  0
    4.1042    0.2958    0.0000 C   0  0  0  0  0  0  0  0  0  0  0  0
   -1.5458   -0.0000    0.0000 C   0  0  0  0  0  0  0  0  0  0  0  0
   -1.2125    2.2333    0.0000 O   0  0  0  0  0  0  0  0  0  0  0  0
    0.4792   -1.0375    0.0000 O   0  0  0  0  0  0  0  0  0  0  0  0
   -4.3500   -2.4792    0.0000 C   0  0  0  0  0  0  0  0  0  0  0  0
    5.1292    0.1000    0.0000 O   0  0  0  0  0  0  0  0  0  0  0  0
   -4.3208   -1.4542    0.0000 O   0  0  0  0  0  0  0  0  0  0  0  0
   -3.4833   -3.0167    0.0000 O   0  0  0  0  0  0  0  0  0  0  0  0
   -1.5708   -1.0375    0.0000 C   0  0  0  0  0  0  0  0  0  0  0  0
   -2.4208    0.5625    0.0000 C   0  0  0  0  0  0  0  0  0  0  0  0
   -3.4000   -0.9667    0.0000 C   0  0  0  0  0  0  0  0  0  0  0  0
    3.4792   -0.5375    0.0000 O   0  0  0  0  0  0  0  0  0  0  0  0
   -3.3708    0.0833    0.0000 C   0  0  0  0  0  0  0  0  0  0  0  0
   -2.5000   -1.5292    0.0000 C   0  0  0  0  0  0  0  0  0  0  0  0
    4.4000    2.1000    0.0000 C   0  0  0  0  0  0  0  0  0  0  0  0
    2.3292    2.3708    0.0000 C   0  0  0  0  0  0  0  0  0  0  0  0
   -5.2708   -2.9792    0.0000 C   0  0  0  0  0  0  0  0  0  0  0  0
    4.0000    3.0458    0.0000 C   0  0  0  0  0  0  0  0  0  0  0  0
    2.9792    3.1958    0.0000 C   0  0  0  0  0  0  0  0  0  0  0  0
  2  1  1  0  0  0  0
  3  1  1  0  0  0  0
  4  3  1  0  0  0  0
  5  2  1  0  0  0  0
  6  8  1  0  0  0  0
  7  4  1  0  0  0  0
  8  7  1  0  0  0  0
  9  6  1  0  0  0  0
 10  1  1  0  0  0  0
 11  2  2  0  0  0  0
 12  3  2  0  0  0  0
 13 15  1  0  0  0  0
 14  9  2  0  0  0  0
 15 19  1  0  0  0  0
 16 13  2  0  0  0  0
 17 10  1  0  0  0  0
 18 10  2  0  0  0  0
 19 21  2  0  0  0  0
 20  9  1  0  0  0  0
 21 18  1  0  0  0  0
 22 17  2  0  0  0  0
 23  6  2  0  0  0  0
 24  8  2  0  0  0  0
 25 13  1  0  0  0  0
 26 27  2  0  0  0  0
 27 24  1  0  0  0  0
  5  4  1  0  0  0  0
 22 19  1  0  0  0  0
 23 26  1  0  0  0  0
M  END
> <IDNUMBER>
F1065-0525

> <Chemical_Name>
2-({1-[4-(acetyloxy)phenyl]-2,5-dioxopyrrolidin-3-yl}sulfanyl)benzoic acid

> <CAS>
305373-35-7

> <PriceCoeff>
1.00

> <MW>
385.39

> <Description>
solid

> <FSP3>
0.16

> <clogP>
1.59

> <TPSA>
126.28

> <Acceptor>
6

> <Donor>
0

> <RotBonds>
6

> <HAC>
27

> <Collection>
General

$$$$
F3205-0078
  -ISIS-  06222321442D

 26 28  0  0  0  0  0  0  0  0999 V2000
    0.0667   -0.0625    0.0000 N   0  0  3  0  0  0  0  0  0  0  0  0
   -0.7583   -0.0625    0.0000 C   0  0  0  0  0  0  0  0  0  0  0  0
   -1.2458    0.6083    0.0000 C   0  0  0  0  0  0  0  0  0  0  0  0
    0.5500    0.6083    0.0000 C   0  0  0  0  0  0  0  0  0  0  0  0
    0.5500   -0.7292    0.0000 C   0  0  0  0  0  0  0  0  0  0  0  0
    1.3375   -0.4792    0.0000 C   0  0  3  0  0  0  0  0  0  0  0  0
    1.3375    0.3458    0.0000 C   0  0  0  0  0  0  0  0  0  0  0  0
    2.7542   -0.4750    0.0000 C   0  0  0  0  0  0  0  0  0  0  0  0
    3.4667   -0.8875    0.0000 C   0  0  0  0  0  0  0  0  0  0  0  0
    2.0417   -0.8875    0.0000 S   0  0  0  0  0  0  0  0  0  0  0  0
   -0.9958    1.3958    0.0000 C   0  0  0  0  0  0  0  0  0  0  0  0
   -1.2458   -0.7292    0.0000 S   0  0  0  0  0  0  0  0  0  0  0  0
    3.4667   -1.7125    0.0000 C   0  0  0  0  0  0  0  0  0  0  0  0
   -2.0333    0.3500    0.0000 C   0  0  0  0  0  0  0  0  0  0  0  0
    2.7542    0.3458    0.0000 N   0  0  0  0  0  0  0  0  0  0  0  0
   -2.0333   -0.4750    0.0000 C   0  0  0  0  0  0  0  0  0  0  0  0
    0.2917    1.3875    0.0000 O   0  0  0  0  0  0  0  0  0  0  0  0
    0.2917   -1.5167    0.0000 O   0  0  0  0  0  0  0  0  0  0  0  0
   -0.1833    1.5625    0.0000 O   0  0  0  0  0  0  0  0  0  0  0  0
    4.1792   -2.1250    0.0000 O   0  0  0  0  0  0  0  0  0  0  0  0
    2.7542   -2.1250    0.0000 O   0  0  0  0  0  0  0  0  0  0  0  0
   -1.5458    2.0083    0.0000 O   0  0  0  0  0  0  0  0  0  0  0  0
    4.1792   -0.4750    0.0000 C   0  0  0  0  0  0  0  0  0  0  0  0
    3.4667    0.7583    0.0000 C   0  0  0  0  0  0  0  0  0  0  0  0
   -1.2875    2.7875    0.0000 C   0  0  0  0  0  0  0  0  0  0  0  0
    4.1792    0.3500    0.0000 C   0  0  0  0  0  0  0  0  0  0  0  0
  2  1  1  0  0  0  0
  3  2  2  0  0  0  0
  4  1  1  0  0  0  0
  5  1  1  0  0  0  0
  6  5  1  0  0  0  0
  7  4  1  0  0  0  0
  8 10  1  0  0  0  0
  9  8  1  0  0  0  0
 10  6  1  0  0  0  0
 11  3  1  0  0  0  0
 12  2  1  0  0  0  0
 13  9  1  0  0  0  0
 14  3  1  0  0  0  0
 15  8  2  0  0  0  0
 16 12  1  0  0  0  0
 17  4  2  0  0  0  0
 18  5  2  0  0  0  0
 19 11  2  0  0  0  0
 20 13  2  0  0  0  0
 21 13  1  0  0  0  0
 22 11  1  0  0  0  0
 23  9  2  0  0  0  0
 24 15  1  0  0  0  0
 25 22  1  0  0  0  0
 26 24  2  0  0  0  0
  7  6  1  0  0  0  0
 16 14  2  0  0  0  0
 26 23  1  0  0  0  0
M  END
> <IDNUMBER>
F3205-0078

> <Chemical_Name>
2-({1-[3-(methoxycarbonyl)thiophen-2-yl]-2,5-dioxopyrrolidin-3-yl}sulfanyl)pyridine-3-carboxylic acid

> <CAS>
881484-85-1

> <PriceCoeff>
1.00

> <MW>
392.41

> <Description>
solid

> <FSP3>
0.19

> <clogP>
1.73

> <TPSA>
167.41

> <Acceptor>
7

> <Donor>
1

> <RotBonds>
6

> <HAC>
26

> <Collection>
General

$$$$
F1029-0066
  -ISIS-  06222304352D

 32 35  0  0  0  0  0  0  0  0999 V2000
    2.2125    0.2125    0.0000 N   0  3  0  0  0  0  0  0  0  0  0  0
    2.2125    1.0583    0.0000 C   0  0  0  0  0  0  0  0  0  0  0  0
    3.0042   -0.0292    0.0000 C   0  0  0  0  0  0  0  0  0  0  0  0
    3.0042    1.3083    0.0000 S   0  0  0  0  0  0  0  0  0  0  0  0
    3.4875    0.6458    0.0000 C   0  0  0  0  0  0  0  0  0  0  0  0
    1.5042    1.4708    0.0000 N   0  0  0  0  0  0  0  0  0  0  0  0
    1.5042   -0.1917    0.0000 C   0  0  0  0  0  0  0  0  0  0  0  0
    0.8000    1.0583    0.0000 C   0  0  0  0  0  0  0  0  0  0  0  0
    0.8000    0.2125    0.0000 C   0  0  0  0  0  0  0  0  0  0  0  0
    4.2917    0.6833    0.0000 C   0  0  0  0  0  0  0  0  0  0  0  0
    3.2542   -0.8250    0.0000 N   0  0  0  0  0  0  0  0  0  0  0  0
    0.0792    1.4708    0.0000 C   0  0  0  0  0  0  0  0  0  0  0  0
    4.6667    1.4333    0.0000 C   0  0  0  0  0  0  0  0  0  0  0  0
    4.7417   -0.0000    0.0000 C   0  0  0  0  0  0  0  0  0  0  0  0
    0.0792    2.2958    0.0000 C   0  0  0  0  0  0  0  0  0  0  0  0
   -0.6208    1.0583    0.0000 C   0  0  0  0  0  0  0  0  0  0  0  0
   -0.6208    2.7083    0.0000 C   0  0  0  0  0  0  0  0  0  0  0  0
    5.4917    1.4833    0.0000 C   0  0  0  0  0  0  0  0  0  0  0  0
    5.5625    0.0333    0.0000 C   0  0  0  0  0  0  0  0  0  0  0  0
   -1.3375    1.4708    0.0000 C   0  0  0  0  0  0  0  0  0  0  0  0
    5.9417    0.7708    0.0000 C   0  0  0  0  0  0  0  0  0  0  0  0
   -1.3375    2.2958    0.0000 C   0  0  0  0  0  0  0  0  0  0  0  0
   10.0917    0.8667    0.0000 S   0  0  3  0  0  0  0  0  0  0  0  0
   11.0334    0.8875    0.0000 O   0  5  0  0  0  0  0  0  0  0  0  0
   10.0917   -0.0500    0.0000 O   0  0  0  0  0  0  0  0  0  0  0  0
   10.0542    1.8167    0.0000 O   0  0  0  0  0  0  0  0  0  0  0  0
    9.1334    0.8667    0.0000 C   0  0  0  0  0  0  0  0  0  0  0  0
    8.6209    1.6500    0.0000 C   0  0  0  0  0  0  0  0  0  0  0  0
    8.6917    0.0292    0.0000 C   0  0  0  0  0  0  0  0  0  0  0  0
    7.6834    1.6292    0.0000 C   0  0  0  0  0  0  0  0  0  0  0  0
    7.7542    0.0125    0.0000 C   0  0  0  0  0  0  0  0  0  0  0  0
    7.2334    0.8125    0.0000 C   0  0  0  0  0  0  0  0  0  0  0  0
 12  8  1  0  0  0  0
 13 10  1  0  0  0  0
 14 10  2  0  0  0  0
 15 12  2  0  0  0  0
 16 12  1  0  0  0  0
 17 15  1  0  0  0  0
 18 13  2  0  0  0  0
 19 14  1  0  0  0  0
 20 16  2  0  0  0  0
 21 19  2  0  0  0  0
 22 20  1  0  0  0  0
  4  5  1  0  0  0  0
  6  8  2  0  0  0  0
 18 21  1  0  0  0  0
 17 22  2  0  0  0  0
  2  1  2  0  0  0  0
  3  1  1  0  0  0  0
  4  2  1  0  0  0  0
  5  3  2  0  0  0  0
  6  2  1  0  0  0  0
  7  1  1  0  0  0  0
  8  9  1  0  0  0  0
  9  7  2  0  0  0  0
 10  5  1  0  0  0  0
 11  3  1  0  0  0  0
 24 23  1  0  0  0  0
 25 23  2  0  0  0  0
 26 23  2  0  0  0  0
 27 23  1  0  0  0  0
 28 27  2  0  0  0  0
 29 27  1  0  0  0  0
 30 28  1  0  0  0  0
 31 29  2  0  0  0  0
 32 31  1  0  0  0  0
 30 32  2  0  0  0  0
M  CHG  2   1   1  24  -1
M  END
> <IDNUMBER>
F1029-0066

> <Chemical_Name>
3-amino-2,7-diphenyl-4lambda5-[1,3]thiazolo[3,2-a]pyrimidin-4-ylium benzenesulfonate

> <CAS>
483966-84-3

> <PriceCoeff>
1.00

> <MW>
304.39

> <Description>
solid

> <FSP3>
0.00

> <clogP>
-0.11

> <TPSA>
71.25

> <Acceptor>
1

> <Donor>
1

> <RotBonds>
2

> <HAC>
22

> <Collection>
General

> <Reference_compound>
PRI5741

> <Similarity>
1.0000

$$$$
F1199-0032
  -ISIS-  06222321142D

 27 29  0  0  0  0  0  0  0  0999 V2000
    2.3917   -1.0750    0.0000 N   0  0  3  0  0  0  0  0  0  0  0  0
    3.1542   -0.7375    0.0000 C   0  0  0  0  0  0  0  0  0  0  0  0
    2.4792   -1.9000    0.0000 C   0  0  0  0  0  0  0  0  0  0  0  0
    3.2917   -2.0667    0.0000 C   0  0  3  0  0  0  0  0  0  0  0  0
    3.7042   -1.3500    0.0000 C   0  0  0  0  0  0  0  0  0  0  0  0
    4.7875   -3.6667    0.0000 C   0  0  0  0  0  0  0  0  0  0  0  0
   -0.4833    0.5833    0.0000 C   0  0  3  0  0  0  0  0  0  0  0  0
    3.6292   -2.8292    0.0000 S   0  0  0  0  0  0  0  0  0  0  0  0
    4.4542   -2.9125    0.0000 C   0  0  0  0  0  0  0  0  0  0  0  0
    4.3042   -4.3417    0.0000 C   0  0  0  0  0  0  0  0  0  0  0  0
    1.6750   -0.6625    0.0000 C   0  0  0  0  0  0  0  0  0  0  0  0
    0.2375    0.1708    0.0000 C   0  0  0  0  0  0  0  0  0  0  0  0
    3.3250    0.0750    0.0000 O   0  0  0  0  0  0  0  0  0  0  0  0
    1.8625   -2.4542    0.0000 O   0  0  0  0  0  0  0  0  0  0  0  0
    4.6375   -5.0917    0.0000 O   0  0  0  0  0  0  0  0  0  0  0  0
    1.6667    0.1708    0.0000 C   0  0  0  0  0  0  0  0  0  0  0  0
    0.9542   -1.0750    0.0000 C   0  0  0  0  0  0  0  0  0  0  0  0
    0.9542    0.5833    0.0000 C   0  0  0  0  0  0  0  0  0  0  0  0
    0.2375   -0.6625    0.0000 C   0  0  0  0  0  0  0  0  0  0  0  0
   -1.1333    0.9625    0.0000 F   0  0  0  0  0  0  0  0  0  0  0  0
   -0.6125    1.4333    0.0000 F   0  0  0  0  0  0  0  0  0  0  0  0
   -1.2833    0.2833    0.0000 F   0  0  0  0  0  0  0  0  0  0  0  0
    3.4792   -4.2542    0.0000 O   0  0  0  0  0  0  0  0  0  0  0  0
    5.6125   -3.7542    0.0000 C   0  0  0  0  0  0  0  0  0  0  0  0
    4.9375   -2.2417    0.0000 C   0  0  0  0  0  0  0  0  0  0  0  0
    6.1000   -3.0875    0.0000 C   0  0  0  0  0  0  0  0  0  0  0  0
    5.7542   -2.3292    0.0000 C   0  0  0  0  0  0  0  0  0  0  0  0
  2  1  1  0  0  0  0
  3  1  1  0  0  0  0
  4  3  1  0  0  0  0
  5  2  1  0  0  0  0
  6  9  2  0  0  0  0
  7 12  1  0  0  0  0
  8  4  1  0  0  0  0
  9  8  1  0  0  0  0
 10  6  1  0  0  0  0
 11  1  1  0  0  0  0
 12 19  2  0  0  0  0
 13  2  2  0  0  0  0
 14  3  2  0  0  0  0
 15 10  2  0  0  0  0
 16 11  1  0  0  0  0
 17 11  2  0  0  0  0
 18 16  2  0  0  0  0
 19 17  1  0  0  0  0
 20  7  1  0  0  0  0
 21  7  1  0  0  0  0
 22  7  1  0  0  0  0
 23 10  1  0  0  0  0
 24  6  1  0  0  0  0
 25  9  1  0  0  0  0
 26 27  1  0  0  0  0
 27 25  2  0  0  0  0
  5  4  1  0  0  0  0
 12 18  1  0  0  0  0
 26 24  2  0  0  0  0
M  END
> <IDNUMBER>
F1199-0032

> <Chemical_Name>
2-({2,5-dioxo-1-[4-(trifluoromethyl)phenyl]pyrrolidin-3-yl}sulfanyl)benzoic acid

> <CAS>
433329-42-1

> <PriceCoeff>
1.00

> <MW>
395.35

> <Description>
solid

> <FSP3>
0.17

> <clogP>
3.44

> <TPSA>
99.98

> <Acceptor>
4

> <Donor>
0

> <RotBonds>
4

> <HAC>
27

> <Collection>
General

$$$$
F1065-0321
  -ISIS-  06222321452D

 24 26  0  0  0  0  0  0  0  0999 V2000
   -0.5708    0.8958    0.0000 N   0  0  3  0  0  0  0  0  0  0  0  0
    0.2042    1.7625    0.0000 C   0  0  0  0  0  0  0  0  0  0  0  0
    0.0042   -0.1042    0.0000 C   0  0  0  0  0  0  0  0  0  0  0  0
    1.1292    0.1500    0.0000 C   0  0  3  0  0  0  0  0  0  0  0  0
    1.2667    1.2708    0.0000 C   0  0  0  0  0  0  0  0  0  0  0  0
    3.9542   -0.9875    0.0000 C   0  0  0  0  0  0  0  0  0  0  0  0
    2.0042   -0.6042    0.0000 S   0  0  0  0  0  0  0  0  0  0  0  0
    3.1000   -0.2292    0.0000 C   0  0  0  0  0  0  0  0  0  0  0  0
    3.7542   -2.1375    0.0000 C   0  0  0  0  0  0  0  0  0  0  0  0
   -1.7333    0.8958    0.0000 C   0  0  0  0  0  0  0  0  0  0  0  0
    0.0042    2.8833    0.0000 O   0  0  0  0  0  0  0  0  0  0  0  0
   -0.4500   -1.1667    0.0000 O   0  0  0  0  0  0  0  0  0  0  0  0
    4.6542   -2.8792    0.0000 O   0  0  0  0  0  0  0  0  0  0  0  0
   -2.2958    1.9000    0.0000 C   0  0  0  0  0  0  0  0  0  0  0  0
   -2.2958   -0.1042    0.0000 C   0  0  0  0  0  0  0  0  0  0  0  0
    2.7000   -2.5542    0.0000 O   0  0  0  0  0  0  0  0  0  0  0  0
   -4.0208    0.8958    0.0000 C   0  0  0  0  0  0  0  0  0  0  0  0
   -3.4625    1.9000    0.0000 C   0  0  0  0  0  0  0  0  0  0  0  0
   -3.4625   -0.1042    0.0000 C   0  0  0  0  0  0  0  0  0  0  0  0
   -5.1625    0.8958    0.0000 Br  0  0  0  0  0  0  0  0  0  0  0  0
    5.0375   -0.6042    0.0000 C   0  0  0  0  0  0  0  0  0  0  0  0
    3.3000    0.8958    0.0000 C   0  0  0  0  0  0  0  0  0  0  0  0
    5.2375    0.5333    0.0000 C   0  0  0  0  0  0  0  0  0  0  0  0
    4.3792    1.2708    0.0000 C   0  0  0  0  0  0  0  0  0  0  0  0
  2  1  1  0  0  0  0
  3  1  1  0  0  0  0
  4  3  1  0  0  0  0
  5  2  1  0  0  0  0
  6  8  1  0  0  0  0
  7  4  1  0  0  0  0
  8  7  1  0  0  0  0
  9  6  1  0  0  0  0
 10  1  1  0  0  0  0
 11  2  2  0  0  0  0
 12  3  2  0  0  0  0
 13  9  2  0  0  0  0
 14 10  2  0  0  0  0
 15 10  1  0  0  0  0
 16  9  1  0  0  0  0
 17 19  1  0  0  0  0
 18 14  1  0  0  0  0
 19 15  2  0  0  0  0
 20 17  1  0  0  0  0
 21  6  2  0  0  0  0
 22  8  2  0  0  0  0
 23 24  2  0  0  0  0
 24 22  1  0  0  0  0
  5  4  1  0  0  0  0
 18 17  2  0  0  0  0
 21 23  1  0  0  0  0
M  END
> <IDNUMBER>
F1065-0321

> <Chemical_Name>
2-{[1-(4-bromophenyl)-2,5-dioxopyrrolidin-3-yl]sulfanyl}benzoic acid

> <CAS>
300559-67-5

> <PriceCoeff>
1.00

> <MW>
406.25

> <Description>
solid

> <FSP3>
0.12

> <clogP>
3.21

> <TPSA>
99.98

> <Acceptor>
4

> <Donor>
0

> <RotBonds>
4

> <HAC>
24

> <Collection>
General

$$$$
F3023-0929
  -ISIS-  06222321152D

 27 30  0  0  0  0  0  0  0  0999 V2000
    3.7625   -6.4042    0.0000 N   0  0  3  0  0  0  0  0  0  0  0  0
    4.1792   -5.8292    0.0000 C   0  0  0  0  0  0  0  0  0  0  0  0
    4.1792   -6.9750    0.0000 C   0  0  0  0  0  0  0  0  0  0  0  0
    3.0542   -6.4042    0.0000 C   0  0  0  0  0  0  0  0  0  0  0  0
    4.8542   -6.7542    0.0000 C   0  0  3  0  0  0  0  0  0  0  0  0
    4.8542   -6.0417    0.0000 C   0  0  0  0  0  0  0  0  0  0  0  0
    2.7042   -7.0250    0.0000 C   0  0  0  0  0  0  0  0  0  0  0  0
    5.4292   -7.1667    0.0000 N   0  0  0  0  0  0  0  0  0  0  0  0
    3.9542   -5.1542    0.0000 O   0  0  0  0  0  0  0  0  0  0  0  0
    3.9667   -7.6500    0.0000 O   0  0  0  0  0  0  0  0  0  0  0  0
    7.3667   -6.3042    0.0000 C   0  0  0  0  0  0  0  0  0  0  0  0
    8.0167   -6.0125    0.0000 N   0  0  3  0  0  0  0  0  0  0  0  0
    6.0792   -6.8792    0.0000 C   0  0  0  0  0  0  0  0  0  0  0  0
    2.0042   -7.0292    0.0000 C   0  0  0  0  0  0  0  0  0  0  0  0
    6.7917   -5.8875    0.0000 C   0  0  0  0  0  0  0  0  0  0  0  0
    7.3000   -7.0042    0.0000 C   0  0  0  0  0  0  0  0  0  0  0  0
    2.7000   -5.7917    0.0000 C   0  0  0  0  0  0  0  0  0  0  0  0
    6.6500   -7.2917    0.0000 C   0  0  0  0  0  0  0  0  0  0  0  0
    6.1417   -6.1750    0.0000 C   0  0  0  0  0  0  0  0  0  0  0  0
    3.0667   -7.6292    0.0000 C   0  0  0  0  0  0  0  0  0  0  0  0
    1.9917   -5.8000    0.0000 C   0  0  0  0  0  0  0  0  0  0  0  0
    8.0917   -5.3042    0.0000 C   0  0  0  0  0  0  0  0  0  0  0  0
    8.5917   -6.4292    0.0000 C   0  0  0  0  0  0  0  0  0  0  0  0
    1.6417   -6.4167    0.0000 C   0  0  0  0  0  0  0  0  0  0  0  0
    1.6542   -7.6417    0.0000 C   0  0  0  0  0  0  0  0  0  0  0  0
    2.7167   -8.2417    0.0000 C   0  0  0  0  0  0  0  0  0  0  0  0
    2.0042   -8.2500    0.0000 C   0  0  0  0  0  0  0  0  0  0  0  0
  2  1  1  0  0  0  0
  3  1  1  0  0  0  0
  4  1  1  0  0  0  0
  5  3  1  0  0  0  0
  6  2  1  0  0  0  0
  7  4  1  0  0  0  0
  8  5  1  0  0  0  0
  9  2  2  0  0  0  0
 10  3  2  0  0  0  0
 11 15  1  0  0  0  0
 12 11  1  0  0  0  0
 13  8  1  0  0  0  0
 14  7  1  0  0  0  0
 15 19  2  0  0  0  0
 16 18  1  0  0  0  0
 17  4  2  0  0  0  0
 18 13  2  0  0  0  0
 19 13  1  0  0  0  0
 20  7  2  0  0  0  0
 21 17  1  0  0  0  0
 22 12  1  0  0  0  0
 23 12  1  0  0  0  0
 24 21  2  0  0  0  0
 25 14  2  0  0  0  0
 26 20  1  0  0  0  0
 27 26  2  0  0  0  0
  6  5  1  0  0  0  0
 24 14  1  0  0  0  0
 27 25  1  0  0  0  0
 11 16  2  0  0  0  0
M  END
> <IDNUMBER>
F3023-0929

> <Chemical_Name>
3-{[4-(dimethylamino)phenyl]amino}-1-(naphthalen-1-yl)pyrrolidine-2,5-dione

> <CAS>
1008960-28-8

> <PriceCoeff>
1.00

> <MW>
359.42

> <Description>
solid

> <FSP3>
0.18

> <clogP>
3.83

> <TPSA>
52.65

> <Acceptor>
4

> <Donor>
2

> <RotBonds>
4

> <HAC>
27

> <Collection>
General

$$$$
F2173-0664
  -ISIS-  06222321142D

 24 26  0  0  0  0  0  0  0  0999 V2000
    4.6042   -2.7417    0.0000 C   0  0  0  0  0  0  0  0  0  0  0  0
    4.5167   -3.6417    0.0000 C   0  0  0  0  0  0  0  0  0  0  0  0
    6.3417   -1.1042    0.0000 N   0  0  3  0  0  0  0  0  0  0  0  0
    7.4292   -0.1250    0.0000 N   0  0  0  0  0  0  0  0  0  0  0  0
    5.4292   -2.3625    0.0000 C   0  0  3  0  0  0  0  0  0  0  0  0
    6.5292   -0.2167    0.0000 C   0  0  0  0  0  0  0  0  0  0  0  0
    3.6917   -4.0042    0.0000 C   0  0  0  0  0  0  0  0  0  0  0  0
    3.8750   -2.2042    0.0000 C   0  0  0  0  0  0  0  0  0  0  0  0
    5.5292   -1.4667    0.0000 C   0  0  0  0  0  0  0  0  0  0  0  0
    6.1542   -2.8917    0.0000 O   0  0  0  0  0  0  0  0  0  0  0  0
    7.8000   -0.9542    0.0000 C   0  0  0  0  0  0  0  0  0  0  0  0
    7.1292   -1.5417    0.0000 C   0  0  0  0  0  0  0  0  0  0  0  0
    2.9542   -3.4792    0.0000 C   0  0  0  0  0  0  0  0  0  0  0  0
    5.2500   -4.1667    0.0000 Cl  0  0  0  0  0  0  0  0  0  0  0  0
    3.0500   -2.5750    0.0000 C   0  0  0  0  0  0  0  0  0  0  0  0
    6.9875   -2.5292    0.0000 C   0  0  0  0  0  0  0  0  0  0  0  0
    9.1875   -4.1250    0.0000 C   0  0  0  0  0  0  0  0  0  0  0  0
    7.7167   -3.0542    0.0000 C   0  0  0  0  0  0  0  0  0  0  0  0
    2.1292   -3.8417    0.0000 Cl  0  0  0  0  0  0  0  0  0  0  0  0
    9.9167   -4.6542    0.0000 Cl  0  0  0  0  0  0  0  0  0  0  0  0
    9.2792   -3.2167    0.0000 C   0  0  0  0  0  0  0  0  0  0  0  0
    8.3542   -4.4875    0.0000 C   0  0  0  0  0  0  0  0  0  0  0  0
    8.5417   -2.6875    0.0000 C   0  0  0  0  0  0  0  0  0  0  0  0
    7.6292   -3.9542    0.0000 C   0  0  0  0  0  0  0  0  0  0  0  0
  2  1  1  0  0  0  0
  3  9  1  0  0  0  0
  4  6  2  0  0  0  0
  5  1  1  0  0  0  0
  6  3  1  0  0  0  0
  7  2  2  0  0  0  0
  8  1  2  0  0  0  0
  9  5  1  0  0  0  0
 10  5  1  0  0  0  0
 11 12  2  0  0  0  0
 12  3  1  0  0  0  0
 13 15  2  0  0  0  0
 14  2  1  0  0  0  0
 15  8  1  0  0  0  0
 16 10  1  0  0  0  0
 17 22  2  0  0  0  0
 18 16  1  0  0  0  0
 19 13  1  0  0  0  0
 20 17  1  0  0  0  0
 21 23  2  0  0  0  0
 22 24  1  0  0  0  0
 23 18  1  0  0  0  0
 24 18  2  0  0  0  0
 13  7  1  0  0  0  0
  4 11  1  0  0  0  0
 17 21  1  0  0  0  0
M  END
> <IDNUMBER>
F2173-0664

> <Chemical_Name>
1-{2-[(4-chlorophenyl)methoxy]-2-(2,4-dichlorophenyl)ethyl}-1H-imidazole

> <CAS>
27220-47-9

> <PriceCoeff>
1.00

> <MW>
381.68

> <Description>
solid

> <FSP3>
0.17

> <clogP>
5.10

> <TPSA>
27.05

> <Acceptor>
2

> <Donor>
1

> <RotBonds>
6

> <HAC>
24

> <Collection>
General

> <Reference_compound>
CHEMBL91

> <Similarity>
0.9940

$$$$
F2532-0448
  -ISIS-  06222321142D

 33 36  0  0  0  0  0  0  0  0999 V2000
    2.0875    1.7208    0.0000 C   0  0  0  0  0  0  0  0  0  0  0  0
    1.4167    1.2375    0.0000 S   0  0  0  0  0  0  0  0  0  0  0  0
    2.9125    1.7208    0.0000 N   0  0  0  0  0  0  0  0  0  0  0  0
   -3.0375    2.5583    0.0000 C   0  0  0  0  0  0  0  0  0  0  0  0
    0.7500    1.7208    0.0000 C   0  0  0  0  0  0  0  0  0  0  0  0
    1.8292    2.5083    0.0000 N   0  0  0  0  0  0  0  0  0  0  0  0
    1.0042    2.5083    0.0000 N   0  0  0  0  0  0  0  0  0  0  0  0
   -3.7583    3.8000    0.0000 C   0  0  0  0  0  0  0  0  0  0  0  0
    3.7375    1.7208    0.0000 C   0  0  0  0  0  0  0  0  0  0  0  0
   -2.3333    2.9833    0.0000 C   0  0  0  0  0  0  0  0  0  0  0  0
   -1.6208    2.5583    0.0000 C   0  0  0  0  0  0  0  0  0  0  0  0
   -3.7583    2.9708    0.0000 O   0  0  0  0  0  0  0  0  0  0  0  0
   -4.4833    4.2125    0.0000 C   0  0  0  0  0  0  0  0  0  0  0  0
    4.3250    1.1375    0.0000 C   0  0  3  0  0  0  0  0  0  0  0  0
   -5.2083    3.8000    0.0000 C   0  0  0  0  0  0  0  0  0  0  0  0
   -3.0375    1.7333    0.0000 C   0  0  0  0  0  0  0  0  0  0  0  0
   -5.2083    2.9625    0.0000 C   0  0  0  0  0  0  0  0  0  0  0  0
   -1.6208    1.7333    0.0000 C   0  0  0  0  0  0  0  0  0  0  0  0
   -2.3333    1.3250    0.0000 O   0  0  0  0  0  0  0  0  0  0  0  0
    5.1250    0.9333    0.0000 C   0  0  0  0  0  0  0  0  0  0  0  0
    4.5375    0.3333    0.0000 C   0  0  0  0  0  0  0  0  0  0  0  0
   -0.1958    1.7375    0.0000 S   0  0  0  0  0  0  0  0  0  0  0  0
   -3.0375    4.2042    0.0000 O   0  0  0  0  0  0  0  0  0  0  0  0
    3.7292    2.5458    0.0000 O   0  0  0  0  0  0  0  0  0  0  0  0
   -2.3333    3.8000    0.0000 O   0  0  0  0  0  0  0  0  0  0  0  0
   -4.4833    2.5458    0.0000 O   0  0  0  0  0  0  0  0  0  0  0  0
   -0.9083    1.3208    0.0000 C   0  0  0  0  0  0  0  0  0  0  0  0
   -5.9250    2.5458    0.0000 O   0  0  0  0  0  0  0  0  0  0  0  0
   -4.4833    5.0292    0.0000 C   0  0  0  0  0  0  0  0  0  0  0  0
   -5.9250    4.2042    0.0000 C   0  0  0  0  0  0  0  0  0  0  0  0
   -6.6375    2.9625    0.0000 C   0  0  0  0  0  0  0  0  0  0  0  0
   -5.9208    5.0292    0.0000 C   0  0  0  0  0  0  0  0  0  0  0  0
   -5.2083    5.4500    0.0000 C   0  0  0  0  0  0  0  0  0  0  0  0
  2  1  1  0  0  0  0
  3  1  1  0  0  0  0
  4 16  2  0  0  0  0
  5  2  1  0  0  0  0
  6  1  2  0  0  0  0
  7  6  1  0  0  0  0
  8 12  1  0  0  0  0
  9  3  1  0  0  0  0
 10 11  1  0  0  0  0
 11 18  2  0  0  0  0
 12  4  1  0  0  0  0
 13  8  1  0  0  0  0
 14  9  1  0  0  0  0
 15 13  1  0  0  0  0
 16 19  1  0  0  0  0
 17 15  1  0  0  0  0
 18 27  1  0  0  0  0
 19 18  1  0  0  0  0
 20 14  1  0  0  0  0
 21 14  1  0  0  0  0
 22  5  1  0  0  0  0
 23  8  2  0  0  0  0
 24  9  2  0  0  0  0
 25 10  2  0  0  0  0
 26 17  2  0  0  0  0
 27 22  1  0  0  0  0
 28 17  1  0  0  0  0
 29 13  2  0  0  0  0
 30 15  2  0  0  0  0
 31 28  1  0  0  0  0
 32 33  2  0  0  0  0
 33 29  1  0  0  0  0
  5  7  2  0  0  0  0
 21 20  1  0  0  0  0
  4 10  1  0  0  0  0
 32 30  1  0  0  0  0
M  END
> <IDNUMBER>
F2532-0448

> <Chemical_Name>
1-(6-{[(5-cyclopropaneamido-1,3,4-thiadiazol-2-yl)sulfanyl]methyl}-4-oxo-4H-pyran-3-yl) 2-methyl benzene-1,2-dicarboxylate

> <CAS>
877651-63-3

> <PriceCoeff>
1.00

> <MW>
487.51

> <Description>
solid

> <FSP3>
0.24

> <clogP>
1.49

> <TPSA>
187.32

> <Acceptor>
9

> <Donor>
1

> <RotBonds>
10

> <HAC>
33

> <Collection>
General

$$$$
F1159-0060
  -ISIS-  06222304352D

 24 24  0  0  0  0  0  0  0  0999 V2000
    2.0667   -0.4917    0.0000 C   0  0  0  0  0  0  0  0  0  0  0  0
    2.0667   -1.3250    0.0000 C   0  0  0  0  0  0  0  0  0  0  0  0
    1.3625   -0.0750    0.0000 C   0  0  0  0  0  0  0  0  0  0  0  0
    1.3625   -1.7292    0.0000 N   0  0  0  0  0  0  0  0  0  0  0  0
    0.6500   -0.4917    0.0000 N   0  0  0  0  0  0  0  0  0  0  0  0
    0.6500   -1.3250    0.0000 C   0  0  0  0  0  0  0  0  0  0  0  0
    2.8000   -0.0792    0.0000 C   0  0  3  0  0  0  0  0  0  0  0  0
    4.9500    0.3333    0.0000 N   0  0  0  0  0  0  0  0  0  0  0  0
    3.5125   -2.1542    0.0000 N   0  0  0  0  0  0  0  0  0  0  0  0
    3.5125   -0.5000    0.0000 C   0  0  3  0  0  0  0  0  0  0  0  0
    3.5125   -1.3292    0.0000 C   0  0  0  0  0  0  0  0  0  0  0  0
    4.2375   -0.0792    0.0000 C   0  0  0  0  0  0  0  0  0  0  0  0
   -0.0750   -1.7375    0.0000 S   0  0  0  0  0  0  0  0  0  0  0  0
    1.3625    0.7583    0.0000 O   0  0  0  0  0  0  0  0  0  0  0  0
    2.8000   -1.7375    0.0000 O   0  0  0  0  0  0  0  0  0  0  0  0
    2.8000    0.7500    0.0000 C   0  0  3  0  0  0  0  0  0  0  0  0
    2.0875    1.1583    0.0000 C   0  0  0  0  0  0  0  0  0  0  0  0
    3.5125    1.1625    0.0000 C   0  0  0  0  0  0  0  0  0  0  0  0
    6.4375   -0.6417    0.0000 N   0  0  0  0  0  0  0  0  0  0  0  0
    8.1000   -0.6417    0.0000 O   0  0  0  0  0  0  0  0  0  0  0  0
    6.8542    0.0708    0.0000 C   0  0  0  0  0  0  0  0  0  0  0  0
    6.8542   -1.3667    0.0000 C   0  0  0  0  0  0  0  0  0  0  0  0
    7.6667   -1.3667    0.0000 C   0  0  0  0  0  0  0  0  0  0  0  0
    7.6792    0.0708    0.0000 C   0  0  0  0  0  0  0  0  0  0  0  0
  8 12  3  0  0  0  0
  9 11  3  0  0  0  0
 10  7  1  0  0  0  0
 11 10  1  0  0  0  0
 12 10  1  0  0  0  0
 13  6  2  0  0  0  0
 14  3  2  0  0  0  0
 15  2  1  0  0  0  0
 16  7  1  0  0  0  0
 17 16  1  0  0  0  0
 18 16  1  0  0  0  0
  4  6  1  0  0  0  0
  2  1  2  0  0  0  0
  3  1  1  0  0  0  0
  4  2  1  0  0  0  0
  5  3  1  0  0  0  0
  6  5  1  0  0  0  0
  7  1  1  0  0  0  0
 20 23  1  0  0  0  0
 21 19  1  0  0  0  0
 22 19  1  0  0  0  0
 23 22  1  0  0  0  0
 24 21  1  0  0  0  0
 24 20  1  0  0  0  0
M  END
> <IDNUMBER>
F1159-0060

> <Chemical_Name>
2-[1-(6-hydroxy-4-oxo-2-sulfanylidene-1,2,3,4-tetrahydropyrimidin-5-yl)-2-methylpropyl]propanedinitrile; morpholine

> <CAS>
879371-34-3

> <PriceCoeff>
1.00

> <MW>
264.30

> <Description>
solid

> <FSP3>
0.45

> <clogP>
-1.05

> <TPSA>
141.03

> <Acceptor>
5

> <Donor>
3

> <RotBonds>
3

> <HAC>
18

> <Collection>
General

> <Reference_compound>
PRI4279

> <Similarity>
1.0000

$$$$
F2224-0099
  -ISIS-  06222321442D

 32 35  0  0  0  0  0  0  0  0999 V2000
   -7.4167    2.1500    0.0000 N   0  0  3  0  0  0  0  0  0  0  0  0
   -8.1292    2.5625    0.0000 C   0  0  0  0  0  0  0  0  0  0  0  0
   -8.1292    0.9125    0.0000 N   0  0  0  0  0  0  0  0  0  0  0  0
   -7.4167    1.3250    0.0000 C   0  0  0  0  0  0  0  0  0  0  0  0
   -8.8417    2.1458    0.0000 C   0  0  0  0  0  0  0  0  0  0  0  0
   -8.8417    1.3208    0.0000 C   0  0  0  0  0  0  0  0  0  0  0  0
   -1.0208    5.0292    0.0000 N   0  3  0  0  0  0  0  0  0  0  0  0
   -3.1583    3.8000    0.0000 C   0  0  0  0  0  0  0  0  0  0  0  0
   -3.8625    3.3958    0.0000 C   0  0  0  0  0  0  0  0  0  0  0  0
   -6.7042    2.5625    0.0000 C   0  0  0  0  0  0  0  0  0  0  0  0
   -4.5833    3.8000    0.0000 N   0  0  0  0  0  0  0  0  0  0  0  0
   -2.4500    3.3833    0.0000 C   0  0  0  0  0  0  0  0  0  0  0  0
   -1.7333    4.6167    0.0000 C   0  0  0  0  0  0  0  0  0  0  0  0
   -1.7333    3.7958    0.0000 C   0  0  0  0  0  0  0  0  0  0  0  0
   -5.2958    3.3958    0.0000 C   0  0  0  0  0  0  0  0  0  0  0  0
   -6.7125    3.3833    0.0000 C   0  0  0  0  0  0  0  0  0  0  0  0
   -3.1625    4.6042    0.0000 C   0  0  0  0  0  0  0  0  0  0  0  0
   -9.5542    0.9125    0.0000 N   0  0  0  0  0  0  0  0  0  0  0  0
   -6.0000    3.8000    0.0000 C   0  0  0  0  0  0  0  0  0  0  0  0
   -8.1417    3.3958    0.0000 O   0  0  0  0  0  0  0  0  0  0  0  0
   -0.3083    4.6167    0.0000 O   0  5  0  0  0  0  0  0  0  0  0  0
   -1.0208    5.8542    0.0000 O   0  0  0  0  0  0  0  0  0  0  0  0
   -3.8625    2.5625    0.0000 O   0  0  0  0  0  0  0  0  0  0  0  0
   -6.0000    2.1500    0.0000 C   0  0  0  0  0  0  0  0  0  0  0  0
   -2.4500    5.0250    0.0000 C   0  0  0  0  0  0  0  0  0  0  0  0
   -5.2875    2.5625    0.0000 C   0  0  0  0  0  0  0  0  0  0  0  0
   -2.4500    2.5583    0.0000 Cl  0  0  0  0  0  0  0  0  0  0  0  0
   -6.7042    0.9125    0.0000 C   0  0  0  0  0  0  0  0  0  0  0  0
   -9.5625    2.5625    0.0000 C   0  0  0  0  0  0  0  0  0  0  0  0
  -10.2667    1.3125    0.0000 C   0  0  0  0  0  0  0  0  0  0  0  0
   -6.0000    4.6167    0.0000 C   0  0  0  0  0  0  0  0  0  0  0  0
  -10.2667    2.1458    0.0000 C   0  0  0  0  0  0  0  0  0  0  0  0
  2  1  1  0  0  0  0
  3  4  2  0  0  0  0
  4  1  1  0  0  0  0
  5  2  1  0  0  0  0
  6  3  1  0  0  0  0
  7 13  1  0  0  0  0
  8  9  1  0  0  0  0
  9 11  1  0  0  0  0
 10  1  1  0  0  0  0
 11 15  1  0  0  0  0
 12  8  2  0  0  0  0
 13 25  1  0  0  0  0
 14 12  1  0  0  0  0
 15 26  2  0  0  0  0
 16 10  1  0  0  0  0
 17  8  1  0  0  0  0
 18  6  1  0  0  0  0
 19 16  2  0  0  0  0
 20  2  2  0  0  0  0
 21  7  1  0  0  0  0
 22  7  2  0  0  0  0
 23  9  2  0  0  0  0
 24 10  2  0  0  0  0
 25 17  2  0  0  0  0
 26 24  1  0  0  0  0
 27 12  1  0  0  0  0
 28  4  1  0  0  0  0
 29  5  1  0  0  0  0
 30 18  2  0  0  0  0
 31 19  1  0  0  0  0
 32 29  2  0  0  0  0
 15 19  1  0  0  0  0
  5  6  2  0  0  0  0
 32 30  1  0  0  0  0
 14 13  2  0  0  0  0
M  CHG  2   7   1  21  -1
M  END
> <IDNUMBER>
F2224-0099

> <Chemical_Name>
2-chloro-N-(2-methyl-4-{2-methyl-4-oxo-3H,4H-pyrido[2,3-d]pyrimidin-3-yl}phenyl)-4-nitrobenzamide

> <CAS>
1005304-51-7

> <PriceCoeff>
1.00

> <MW>
449.85

> <Description>
solid

> <FSP3>
0.09

> <clogP>
2.58

> <TPSA>
117.80

> <Acceptor>
6

> <Donor>
2

> <RotBonds>
4

> <HAC>
32

> <Collection>
General

$$$$
F3205-0061
  -ISIS-  06222321152D

 26 28  0  0  0  0  0  0  0  0999 V2000
   -0.7958    0.9000    0.0000 N   0  0  3  0  0  0  0  0  0  0  0  0
   -0.3083    1.5625    0.0000 C   0  0  0  0  0  0  0  0  0  0  0  0
   -0.3083    0.2333    0.0000 C   0  0  0  0  0  0  0  0  0  0  0  0
    0.4750    0.4833    0.0000 C   0  0  3  0  0  0  0  0  0  0  0  0
   -1.6208    0.9000    0.0000 C   0  0  0  0  0  0  0  0  0  0  0  0
    0.4792    1.3083    0.0000 C   0  0  0  0  0  0  0  0  0  0  0  0
    2.6042   -0.0750    0.0000 C   0  0  0  0  0  0  0  0  0  0  0  0
    1.1417   -0.0042    0.0000 S   0  0  0  0  0  0  0  0  0  0  0  0
    1.9000    0.3375    0.0000 C   0  0  0  0  0  0  0  0  0  0  0  0
   -2.0333    0.1958    0.0000 C   0  0  0  0  0  0  0  0  0  0  0  0
    2.6042   -0.9000    0.0000 C   0  0  0  0  0  0  0  0  0  0  0  0
   -2.8458    0.1958    0.0000 C   0  0  0  0  0  0  0  0  0  0  0  0
   -0.5583    2.3500    0.0000 O   0  0  0  0  0  0  0  0  0  0  0  0
   -0.5708   -0.5542    0.0000 O   0  0  0  0  0  0  0  0  0  0  0  0
   -2.0333    1.6125    0.0000 C   0  0  0  0  0  0  0  0  0  0  0  0
   -3.2500    0.9083    0.0000 C   0  0  0  0  0  0  0  0  0  0  0  0
    3.3167   -1.3167    0.0000 O   0  0  0  0  0  0  0  0  0  0  0  0
   -2.8458    1.6125    0.0000 C   0  0  0  0  0  0  0  0  0  0  0  0
   -3.2625   -0.5167    0.0000 Cl  0  0  0  0  0  0  0  0  0  0  0  0
    1.8917   -1.3167    0.0000 O   0  0  0  0  0  0  0  0  0  0  0  0
    3.3167    0.3333    0.0000 C   0  0  0  0  0  0  0  0  0  0  0  0
   -4.0833    0.9125    0.0000 O   0  0  0  0  0  0  0  0  0  0  0  0
    1.9000    1.1583    0.0000 C   0  0  0  0  0  0  0  0  0  0  0  0
   -4.4875    1.6250    0.0000 C   0  0  0  0  0  0  0  0  0  0  0  0
    3.3167    1.1583    0.0000 C   0  0  0  0  0  0  0  0  0  0  0  0
    2.6042    1.5625    0.0000 C   0  0  0  0  0  0  0  0  0  0  0  0
  2  1  1  0  0  0  0
  3  1  1  0  0  0  0
  4  3  1  0  0  0  0
  5  1  1  0  0  0  0
  6  2  1  0  0  0  0
  7  9  2  0  0  0  0
  8  4  1  0  0  0  0
  9  8  1  0  0  0  0
 10  5  2  0  0  0  0
 11  7  1  0  0  0  0
 12 10  1  0  0  0  0
 13  2  2  0  0  0  0
 14  3  2  0  0  0  0
 15  5  1  0  0  0  0
 16 18  1  0  0  0  0
 17 11  2  0  0  0  0
 18 15  2  0  0  0  0
 19 12  1  0  0  0  0
 20 11  1  0  0  0  0
 21  7  1  0  0  0  0
 22 16  1  0  0  0  0
 23  9  1  0  0  0  0
 24 22  1  0  0  0  0
 25 26  1  0  0  0  0
 26 23  2  0  0  0  0
  6  4  1  0  0  0  0
 12 16  2  0  0  0  0
 25 21  2  0  0  0  0
M  END
> <IDNUMBER>
F3205-0061

> <Chemical_Name>
2-{[1-(3-chloro-4-methoxyphenyl)-2,5-dioxopyrrolidin-3-yl]sulfanyl}benzoic acid

> <CAS>
881483-53-0

> <PriceCoeff>
1.00

> <MW>
391.83

> <Description>
solid

> <FSP3>
0.17

> <clogP>
2.85

> <TPSA>
109.21

> <Acceptor>
5

> <Donor>
0

> <RotBonds>
5

> <HAC>
26

> <Collection>
General

$$$$
F1199-0003
  -ISIS-  06222321452D

 25 27  0  0  0  0  0  0  0  0999 V2000
    1.6042   -0.6167    0.0000 N   0  0  3  0  0  0  0  0  0  0  0  0
    1.6917    0.2083    0.0000 C   0  0  0  0  0  0  0  0  0  0  0  0
    2.3625   -0.9500    0.0000 C   0  0  0  0  0  0  0  0  0  0  0  0
    2.9125   -0.3375    0.0000 C   0  0  3  0  0  0  0  0  0  0  0  0
    2.5000    0.3833    0.0000 C   0  0  0  0  0  0  0  0  0  0  0  0
    0.9000   -1.0292    0.0000 C   0  0  0  0  0  0  0  0  0  0  0  0
    4.8917   -1.2500    0.0000 C   0  0  0  0  0  0  0  0  0  0  0  0
    3.7292   -0.4167    0.0000 S   0  0  0  0  0  0  0  0  0  0  0  0
    4.0750   -1.1667    0.0000 C   0  0  0  0  0  0  0  0  0  0  0  0
    5.3667   -0.5792    0.0000 C   0  0  0  0  0  0  0  0  0  0  0  0
    0.1792   -0.6167    0.0000 C   0  0  0  0  0  0  0  0  0  0  0  0
    0.9000   -1.8625    0.0000 C   0  0  0  0  0  0  0  0  0  0  0  0
    1.0792    0.7583    0.0000 O   0  0  0  0  0  0  0  0  0  0  0  0
    2.5375   -1.7542    0.0000 O   0  0  0  0  0  0  0  0  0  0  0  0
   -0.5333   -1.0375    0.0000 C   0  0  0  0  0  0  0  0  0  0  0  0
    5.0292    0.1750    0.0000 O   0  0  0  0  0  0  0  0  0  0  0  0
    0.1792    0.2083    0.0000 Br  0  0  0  0  0  0  0  0  0  0  0  0
    6.1917   -0.6542    0.0000 O   0  0  0  0  0  0  0  0  0  0  0  0
    0.1792   -2.2750    0.0000 C   0  0  0  0  0  0  0  0  0  0  0  0
   -0.5333   -1.8625    0.0000 C   0  0  0  0  0  0  0  0  0  0  0  0
    5.2292   -2.0000    0.0000 C   0  0  0  0  0  0  0  0  0  0  0  0
    3.5875   -1.8375    0.0000 C   0  0  0  0  0  0  0  0  0  0  0  0
   -1.2458   -2.2750    0.0000 C   0  0  0  0  0  0  0  0  0  0  0  0
    4.7500   -2.6750    0.0000 C   0  0  0  0  0  0  0  0  0  0  0  0
    3.9250   -2.5875    0.0000 C   0  0  0  0  0  0  0  0  0  0  0  0
  2  1  1  0  0  0  0
  3  1  1  0  0  0  0
  4  3  1  0  0  0  0
  5  2  1  0  0  0  0
  6  1  1  0  0  0  0
  7  9  1  0  0  0  0
  8  4  1  0  0  0  0
  9  8  1  0  0  0  0
 10  7  1  0  0  0  0
 11  6  2  0  0  0  0
 12  6  1  0  0  0  0
 13  2  2  0  0  0  0
 14  3  2  0  0  0  0
 15 11  1  0  0  0  0
 16 10  2  0  0  0  0
 17 11  1  0  0  0  0
 18 10  1  0  0  0  0
 19 12  2  0  0  0  0
 20 19  1  0  0  0  0
 21  7  2  0  0  0  0
 22  9  2  0  0  0  0
 23 20  1  0  0  0  0
 24 25  2  0  0  0  0
 25 22  1  0  0  0  0
  5  4  1  0  0  0  0
 20 15  2  0  0  0  0
 24 21  1  0  0  0  0
M  END
> <IDNUMBER>
F1199-0003

> <Chemical_Name>
2-{[1-(2-bromo-4-methylphenyl)-2,5-dioxopyrrolidin-3-yl]sulfanyl}benzoic acid

> <CAS>
433329-57-8

> <PriceCoeff>
1.00

> <MW>
420.28

> <Description>
solid

> <FSP3>
0.17

> <clogP>
3.25

> <TPSA>
99.98

> <Acceptor>
4

> <Donor>
0

> <RotBonds>
4

> <HAC>
25

> <Collection>
General

$$$$
F2224-0261
  -ISIS-  06222321462D

 32 35  0  0  0  0  0  0  0  0999 V2000
   -7.4167    3.8083    0.0000 N   0  0  3  0  0  0  0  0  0  0  0  0
   -7.4167    4.6292    0.0000 C   0  0  0  0  0  0  0  0  0  0  0  0
   -8.8417    3.8125    0.0000 N   0  0  0  0  0  0  0  0  0  0  0  0
   -8.1292    3.3958    0.0000 C   0  0  0  0  0  0  0  0  0  0  0  0
   -8.1292    5.0417    0.0000 C   0  0  0  0  0  0  0  0  0  0  0  0
   -8.8417    4.6292    0.0000 C   0  0  0  0  0  0  0  0  0  0  0  0
   -1.0208    5.0292    0.0000 N   0  3  0  0  0  0  0  0  0  0  0  0
   -6.7125    3.3958    0.0000 C   0  0  0  0  0  0  0  0  0  0  0  0
   -3.1583    3.8000    0.0000 C   0  0  0  0  0  0  0  0  0  0  0  0
   -3.8625    3.3958    0.0000 C   0  0  0  0  0  0  0  0  0  0  0  0
   -4.5833    3.8000    0.0000 N   0  0  0  0  0  0  0  0  0  0  0  0
   -2.4500    3.3833    0.0000 C   0  0  0  0  0  0  0  0  0  0  0  0
   -5.2958    3.3958    0.0000 C   0  0  0  0  0  0  0  0  0  0  0  0
   -6.0000    3.8000    0.0000 C   0  0  0  0  0  0  0  0  0  0  0  0
   -1.7333    4.6167    0.0000 C   0  0  0  0  0  0  0  0  0  0  0  0
   -1.7333    3.7958    0.0000 C   0  0  0  0  0  0  0  0  0  0  0  0
   -3.1625    4.6042    0.0000 C   0  0  0  0  0  0  0  0  0  0  0  0
   -9.5542    5.0417    0.0000 N   0  0  0  0  0  0  0  0  0  0  0  0
   -6.7042    5.0292    0.0000 O   0  0  0  0  0  0  0  0  0  0  0  0
   -0.3083    4.6167    0.0000 O   0  5  0  0  0  0  0  0  0  0  0  0
   -1.0208    5.8542    0.0000 O   0  0  0  0  0  0  0  0  0  0  0  0
   -5.2958    2.5625    0.0000 C   0  0  0  0  0  0  0  0  0  0  0  0
   -3.8625    2.5625    0.0000 O   0  0  0  0  0  0  0  0  0  0  0  0
   -6.7167    2.5708    0.0000 C   0  0  0  0  0  0  0  0  0  0  0  0
   -2.4500    5.0250    0.0000 C   0  0  0  0  0  0  0  0  0  0  0  0
   -6.0042    2.1583    0.0000 C   0  0  0  0  0  0  0  0  0  0  0  0
   -2.4500    2.5583    0.0000 Cl  0  0  0  0  0  0  0  0  0  0  0  0
   -8.1417    2.5833    0.0000 C   0  0  0  0  0  0  0  0  0  0  0  0
   -4.5833    2.1458    0.0000 F   0  0  0  0  0  0  0  0  0  0  0  0
   -8.1250    5.8667    0.0000 C   0  0  0  0  0  0  0  0  0  0  0  0
   -9.5542    5.8542    0.0000 C   0  0  0  0  0  0  0  0  0  0  0  0
   -8.8417    6.2667    0.0000 C   0  0  0  0  0  0  0  0  0  0  0  0
  2  1  1  0  0  0  0
  3  4  2  0  0  0  0
  4  1  1  0  0  0  0
  5  2  1  0  0  0  0
  6  3  1  0  0  0  0
  7 15  1  0  0  0  0
  8  1  1  0  0  0  0
  9 10  1  0  0  0  0
 10 11  1  0  0  0  0
 11 13  1  0  0  0  0
 12  9  2  0  0  0  0
 13 14  2  0  0  0  0
 14  8  1  0  0  0  0
 15 25  1  0  0  0  0
 16 12  1  0  0  0  0
 17  9  1  0  0  0  0
 18  6  1  0  0  0  0
 19  2  2  0  0  0  0
 20  7  1  0  0  0  0
 21  7  2  0  0  0  0
 22 26  2  0  0  0  0
 23 10  2  0  0  0  0
 24  8  2  0  0  0  0
 25 17  2  0  0  0  0
 26 24  1  0  0  0  0
 27 12  1  0  0  0  0
 28  4  1  0  0  0  0
 29 22  1  0  0  0  0
 30  5  1  0  0  0  0
 31 18  2  0  0  0  0
 32 30  2  0  0  0  0
  5  6  2  0  0  0  0
 22 13  1  0  0  0  0
 32 31  1  0  0  0  0
 16 15  2  0  0  0  0
M  CHG  2   7   1  20  -1
M  END
> <IDNUMBER>
F2224-0261

> <Chemical_Name>
2-chloro-N-(2-fluoro-5-{2-methyl-4-oxo-3H,4H-pyrido[2,3-d]pyrimidin-3-yl}phenyl)-4-nitrobenzamide

> <CAS>
921818-32-8

> <PriceCoeff>
1.00

> <MW>
453.81

> <Description>
solid

> <FSP3>
0.05

> <clogP>
2.29

> <TPSA>
117.80

> <Acceptor>
6

> <Donor>
2

> <RotBonds>
4

> <HAC>
32

> <Collection>
General

$$$$
F3019-0021
  -ISIS-  06222321152D

 25 27  0  0  0  0  0  0  0  0999 V2000
    1.0042   -0.9042    0.0000 N   0  0  3  0  0  0  0  0  0  0  0  0
    1.6750   -0.4250    0.0000 C   0  0  0  0  0  0  0  0  0  0  0  0
    1.2625   -1.7000    0.0000 C   0  0  0  0  0  0  0  0  0  0  0  0
    0.2167   -0.6542    0.0000 C   0  0  0  0  0  0  0  0  0  0  0  0
    2.0875   -1.7000    0.0000 C   0  0  3  0  0  0  0  0  0  0  0  0
    2.3417   -0.9042    0.0000 C   0  0  0  0  0  0  0  0  0  0  0  0
    3.8792   -2.9542    0.0000 C   0  0  0  0  0  0  0  0  0  0  0  0
    2.5750   -2.3667    0.0000 S   0  0  0  0  0  0  0  0  0  0  0  0
    3.4000   -2.2792    0.0000 C   0  0  0  0  0  0  0  0  0  0  0  0
    3.5417   -3.7125    0.0000 C   0  0  0  0  0  0  0  0  0  0  0  0
   -0.3958   -1.2125    0.0000 C   0  0  0  0  0  0  0  0  0  0  0  0
    0.0417    0.1583    0.0000 C   0  0  0  0  0  0  0  0  0  0  0  0
    1.6667    0.4083    0.0000 O   0  0  0  0  0  0  0  0  0  0  0  0
    0.7667   -2.3667    0.0000 O   0  0  0  0  0  0  0  0  0  0  0  0
    4.0250   -4.3792    0.0000 O   0  0  0  0  0  0  0  0  0  0  0  0
   -0.7458    0.4083    0.0000 C   0  0  0  0  0  0  0  0  0  0  0  0
   -1.1833   -0.9542    0.0000 C   0  0  0  0  0  0  0  0  0  0  0  0
    2.7167   -3.7917    0.0000 O   0  0  0  0  0  0  0  0  0  0  0  0
    0.6375    0.8625    0.0000 Cl  0  0  0  0  0  0  0  0  0  0  0  0
   -1.3583   -0.1417    0.0000 C   0  0  0  0  0  0  0  0  0  0  0  0
   -1.7958   -1.5125    0.0000 Cl  0  0  0  0  0  0  0  0  0  0  0  0
    4.7042   -2.8667    0.0000 C   0  0  0  0  0  0  0  0  0  0  0  0
    3.7292   -1.5292    0.0000 C   0  0  0  0  0  0  0  0  0  0  0  0
    5.0417   -2.1125    0.0000 C   0  0  0  0  0  0  0  0  0  0  0  0
    4.5542   -1.4417    0.0000 C   0  0  0  0  0  0  0  0  0  0  0  0
  2  1  1  0  0  0  0
  3  1  1  0  0  0  0
  4  1  1  0  0  0  0
  5  3  1  0  0  0  0
  6  2  1  0  0  0  0
  7  9  2  0  0  0  0
  8  5  1  0  0  0  0
  9  8  1  0  0  0  0
 10  7  1  0  0  0  0
 11  4  1  0  0  0  0
 12  4  2  0  0  0  0
 13  2  2  0  0  0  0
 14  3  2  0  0  0  0
 15 10  2  0  0  0  0
 16 12  1  0  0  0  0
 17 11  2  0  0  0  0
 18 10  1  0  0  0  0
 19 12  1  0  0  0  0
 20 16  2  0  0  0  0
 21 17  1  0  0  0  0
 22  7  1  0  0  0  0
 23  9  1  0  0  0  0
 24 25  1  0  0  0  0
 25 23  2  0  0  0  0
  6  5  1  0  0  0  0
 20 17  1  0  0  0  0
 24 22  2  0  0  0  0
M  END
> <IDNUMBER>
F3019-0021

> <Chemical_Name>
2-{[1-(2,5-dichlorophenyl)-2,5-dioxopyrrolidin-3-yl]sulfanyl}benzoic acid

> <CAS>
831205-98-2

> <PriceCoeff>
1.00

> <MW>
396.24

> <Description>
solid

> <FSP3>
0.12

> <clogP>
3.47

> <TPSA>
99.98

> <Acceptor>
4

> <Donor>
0

> <RotBonds>
4

> <HAC>
25

> <Collection>
General

$$$$
F3023-0014
  -ISIS-  06222321152D

 25 27  0  0  0  0  0  0  0  0999 V2000
    5.2417   -6.3417    0.0000 N   0  0  3  0  0  0  0  0  0  0  0  0
    5.7292   -5.6667    0.0000 C   0  0  0  0  0  0  0  0  0  0  0  0
    5.7375   -7.0042    0.0000 C   0  0  0  0  0  0  0  0  0  0  0  0
    6.5167   -6.7417    0.0000 C   0  0  3  0  0  0  0  0  0  0  0  0
    6.5167   -5.9167    0.0000 C   0  0  0  0  0  0  0  0  0  0  0  0
    4.4167   -6.3417    0.0000 C   0  0  0  0  0  0  0  0  0  0  0  0
    8.6042   -7.3750    0.0000 C   0  0  0  0  0  0  0  0  0  0  0  0
    7.1875   -7.2292    0.0000 S   0  0  0  0  0  0  0  0  0  0  0  0
    7.9417   -6.8917    0.0000 C   0  0  0  0  0  0  0  0  0  0  0  0
    4.0042   -5.6292    0.0000 C   0  0  0  0  0  0  0  0  0  0  0  0
    8.5250   -8.1917    0.0000 C   0  0  0  0  0  0  0  0  0  0  0  0
    3.1792   -5.6375    0.0000 C   0  0  0  0  0  0  0  0  0  0  0  0
    4.0167   -7.0625    0.0000 C   0  0  0  0  0  0  0  0  0  0  0  0
    5.4667   -4.8875    0.0000 O   0  0  0  0  0  0  0  0  0  0  0  0
    5.4792   -7.7917    0.0000 O   0  0  0  0  0  0  0  0  0  0  0  0
    9.1917   -8.6792    0.0000 O   0  0  0  0  0  0  0  0  0  0  0  0
    2.7750   -6.3542    0.0000 C   0  0  0  0  0  0  0  0  0  0  0  0
    4.4167   -4.9167    0.0000 Cl  0  0  0  0  0  0  0  0  0  0  0  0
    7.7667   -8.5292    0.0000 O   0  0  0  0  0  0  0  0  0  0  0  0
    3.1917   -7.0667    0.0000 C   0  0  0  0  0  0  0  0  0  0  0  0
    1.9500   -6.3542    0.0000 Cl  0  0  0  0  0  0  0  0  0  0  0  0
    9.3625   -7.0375    0.0000 C   0  0  0  0  0  0  0  0  0  0  0  0
    8.0167   -6.0750    0.0000 C   0  0  0  0  0  0  0  0  0  0  0  0
    9.4417   -6.2125    0.0000 C   0  0  0  0  0  0  0  0  0  0  0  0
    8.7667   -5.7292    0.0000 C   0  0  0  0  0  0  0  0  0  0  0  0
  2  1  1  0  0  0  0
  3  1  1  0  0  0  0
  4  3  1  0  0  0  0
  5  2  1  0  0  0  0
  6  1  1  0  0  0  0
  7  9  2  0  0  0  0
  8  4  1  0  0  0  0
  9  8  1  0  0  0  0
 10  6  2  0  0  0  0
 11  7  1  0  0  0  0
 12 10  1  0  0  0  0
 13  6  1  0  0  0  0
 14  2  2  0  0  0  0
 15  3  2  0  0  0  0
 16 11  2  0  0  0  0
 17 20  1  0  0  0  0
 18 10  1  0  0  0  0
 19 11  1  0  0  0  0
 20 13  2  0  0  0  0
 21 17  1  0  0  0  0
 22  7  1  0  0  0  0
 23  9  1  0  0  0  0
 24 25  1  0  0  0  0
 25 23  2  0  0  0  0
  5  4  1  0  0  0  0
 17 12  2  0  0  0  0
 24 22  2  0  0  0  0
M  END
> <IDNUMBER>
F3023-0014

> <Chemical_Name>
2-{[1-(2,4-dichlorophenyl)-2,5-dioxopyrrolidin-3-yl]sulfanyl}benzoic acid

> <CAS>
838852-14-5

> <PriceCoeff>
1.00

> <MW>
396.24

> <Description>
solid

> <FSP3>
0.12

> <clogP>
3.47

> <TPSA>
99.98

> <Acceptor>
4

> <Donor>
0

> <RotBonds>
4

> <HAC>
25

> <Collection>
General

$$$$
F3023-0409
  -ISIS-  06222321462D

 26 29  0  0  0  0  0  0  0  0999 V2000
   11.0667   -6.1542    0.0000 N   0  0  3  0  0  0  0  0  0  0  0  0
   10.6417   -5.5750    0.0000 C   0  0  0  0  0  0  0  0  0  0  0  0
   10.6417   -6.7375    0.0000 C   0  0  0  0  0  0  0  0  0  0  0  0
   11.7792   -6.1625    0.0000 C   0  0  0  0  0  0  0  0  0  0  0  0
    9.9542   -6.5042    0.0000 C   0  0  3  0  0  0  0  0  0  0  0  0
    9.9625   -5.7917    0.0000 C   0  0  0  0  0  0  0  0  0  0  0  0
   12.1375   -6.7792    0.0000 C   0  0  0  0  0  0  0  0  0  0  0  0
    9.3792   -6.9292    0.0000 N   0  0  0  0  0  0  0  0  0  0  0  0
   10.8667   -4.8917    0.0000 O   0  0  0  0  0  0  0  0  0  0  0  0
   10.8542   -7.4167    0.0000 O   0  0  0  0  0  0  0  0  0  0  0  0
   12.8500   -6.7917    0.0000 C   0  0  0  0  0  0  0  0  0  0  0  0
    8.7250   -6.6292    0.0000 C   0  0  0  0  0  0  0  0  0  0  0  0
   12.1375   -5.5417    0.0000 C   0  0  0  0  0  0  0  0  0  0  0  0
    7.4250   -6.0417    0.0000 C   0  0  0  0  0  0  0  0  0  0  0  0
    8.1500   -7.0500    0.0000 C   0  0  0  0  0  0  0  0  0  0  0  0
    8.6542   -5.9167    0.0000 C   0  0  0  0  0  0  0  0  0  0  0  0
    8.0042   -5.6250    0.0000 C   0  0  0  0  0  0  0  0  0  0  0  0
    7.4917   -6.7542    0.0000 C   0  0  0  0  0  0  0  0  0  0  0  0
    6.7667   -5.7417    0.0000 O   0  0  0  0  0  0  0  0  0  0  0  0
   11.7750   -7.4000    0.0000 C   0  0  0  0  0  0  0  0  0  0  0  0
   12.8542   -5.5417    0.0000 C   0  0  0  0  0  0  0  0  0  0  0  0
   13.2125   -6.1667    0.0000 C   0  0  0  0  0  0  0  0  0  0  0  0
   13.2042   -7.4042    0.0000 C   0  0  0  0  0  0  0  0  0  0  0  0
    6.7000   -5.0292    0.0000 C   0  0  0  0  0  0  0  0  0  0  0  0
   12.1292   -8.0167    0.0000 C   0  0  0  0  0  0  0  0  0  0  0  0
   12.8417   -8.0167    0.0000 C   0  0  0  0  0  0  0  0  0  0  0  0
  2  1  1  0  0  0  0
  3  1  1  0  0  0  0
  4  1  1  0  0  0  0
  5  3  1  0  0  0  0
  6  2  1  0  0  0  0
  7  4  2  0  0  0  0
  8  5  1  0  0  0  0
  9  2  2  0  0  0  0
 10  3  2  0  0  0  0
 11  7  1  0  0  0  0
 12  8  1  0  0  0  0
 13  4  1  0  0  0  0
 14 17  2  0  0  0  0
 15 12  1  0  0  0  0
 16 12  2  0  0  0  0
 17 16  1  0  0  0  0
 18 15  2  0  0  0  0
 19 14  1  0  0  0  0
 20  7  1  0  0  0  0
 21 13  2  0  0  0  0
 22 21  1  0  0  0  0
 23 11  1  0  0  0  0
 24 19  1  0  0  0  0
 25 20  2  0  0  0  0
 26 25  1  0  0  0  0
  5  6  1  0  0  0  0
 22 11  2  0  0  0  0
 23 26  2  0  0  0  0
 18 14  1  0  0  0  0
M  END
> <IDNUMBER>
F3023-0409

> <Chemical_Name>
3-[(4-methoxyphenyl)amino]-1-(naphthalen-1-yl)pyrrolidine-2,5-dione

> <CAS>
1009707-64-5

> <PriceCoeff>
1.00

> <MW>
346.38

> <Description>
solid

> <FSP3>
0.14

> <clogP>
3.76

> <TPSA>
58.64

> <Acceptor>
4

> <Donor>
1

> <RotBonds>
4

> <HAC>
26

> <Collection>
General

$$$$
F2224-0018
  -ISIS-  06222321142D

 31 34  0  0  0  0  0  0  0  0999 V2000
   -7.4292    2.1500    0.0000 N   0  0  3  0  0  0  0  0  0  0  0  0
   -8.1417    2.5625    0.0000 C   0  0  0  0  0  0  0  0  0  0  0  0
   -8.1292    0.9125    0.0000 N   0  0  0  0  0  0  0  0  0  0  0  0
   -7.4167    1.3250    0.0000 C   0  0  0  0  0  0  0  0  0  0  0  0
   -8.8542    2.1458    0.0000 C   0  0  0  0  0  0  0  0  0  0  0  0
   -8.8542    1.3208    0.0000 C   0  0  0  0  0  0  0  0  0  0  0  0
   -1.0208    5.0292    0.0000 N   0  3  0  0  0  0  0  0  0  0  0  0
   -3.1583    3.8000    0.0000 C   0  0  0  0  0  0  0  0  0  0  0  0
   -3.8625    3.3958    0.0000 C   0  0  0  0  0  0  0  0  0  0  0  0
   -2.4500    3.3833    0.0000 C   0  0  0  0  0  0  0  0  0  0  0  0
   -1.7333    4.6167    0.0000 C   0  0  0  0  0  0  0  0  0  0  0  0
   -1.7333    3.7958    0.0000 C   0  0  0  0  0  0  0  0  0  0  0  0
   -4.5833    3.8000    0.0000 N   0  0  0  0  0  0  0  0  0  0  0  0
   -6.7125    2.5625    0.0000 C   0  0  0  0  0  0  0  0  0  0  0  0
   -3.1625    4.6042    0.0000 C   0  0  0  0  0  0  0  0  0  0  0  0
   -9.5542    0.9125    0.0000 N   0  0  0  0  0  0  0  0  0  0  0  0
   -8.1417    3.3958    0.0000 O   0  0  0  0  0  0  0  0  0  0  0  0
   -0.3083    4.6167    0.0000 O   0  5  0  0  0  0  0  0  0  0  0  0
   -1.0208    5.8542    0.0000 O   0  0  0  0  0  0  0  0  0  0  0  0
   -3.8625    2.5625    0.0000 O   0  0  0  0  0  0  0  0  0  0  0  0
   -2.4500    5.0250    0.0000 C   0  0  0  0  0  0  0  0  0  0  0  0
   -6.7167    3.3833    0.0000 C   0  0  0  0  0  0  0  0  0  0  0  0
   -6.0000    2.1500    0.0000 C   0  0  0  0  0  0  0  0  0  0  0  0
   -5.2958    3.3958    0.0000 C   0  0  0  0  0  0  0  0  0  0  0  0
   -2.4500    2.5583    0.0000 Cl  0  0  0  0  0  0  0  0  0  0  0  0
   -6.7125    0.9125    0.0000 C   0  0  0  0  0  0  0  0  0  0  0  0
   -9.5667    2.5625    0.0000 C   0  0  0  0  0  0  0  0  0  0  0  0
   -5.2875    2.5625    0.0000 C   0  0  0  0  0  0  0  0  0  0  0  0
   -6.0042    3.8000    0.0000 C   0  0  0  0  0  0  0  0  0  0  0  0
  -10.2667    1.3125    0.0000 C   0  0  0  0  0  0  0  0  0  0  0  0
  -10.2750    2.1458    0.0000 C   0  0  0  0  0  0  0  0  0  0  0  0
  2  1  1  0  0  0  0
  3  4  2  0  0  0  0
  4  1  1  0  0  0  0
  5  2  1  0  0  0  0
  6  3  1  0  0  0  0
  7 11  1  0  0  0  0
  8  9  1  0  0  0  0
  9 13  1  0  0  0  0
 10  8  2  0  0  0  0
 11 21  1  0  0  0  0
 12 10  1  0  0  0  0
 13 24  1  0  0  0  0
 14  1  1  0  0  0  0
 15  8  1  0  0  0  0
 16  6  1  0  0  0  0
 17  2  2  0  0  0  0
 18  7  1  0  0  0  0
 19  7  2  0  0  0  0
 20  9  2  0  0  0  0
 21 15  2  0  0  0  0
 22 14  1  0  0  0  0
 23 14  2  0  0  0  0
 24 28  2  0  0  0  0
 25 10  1  0  0  0  0
 26  4  1  0  0  0  0
 27  5  1  0  0  0  0
 28 23  1  0  0  0  0
 29 22  2  0  0  0  0
 30 16  2  0  0  0  0
 31 27  2  0  0  0  0
 24 29  1  0  0  0  0
  5  6  2  0  0  0  0
 31 30  1  0  0  0  0
 12 11  2  0  0  0  0
M  CHG  2   7   1  18  -1
M  END
> <IDNUMBER>
F2224-0018

> <Chemical_Name>
2-chloro-N-(4-{2-methyl-4-oxo-3H,4H-pyrido[2,3-d]pyrimidin-3-yl}phenyl)-4-nitrobenzamide

> <CAS>
1005297-82-4

> <PriceCoeff>
1.00

> <MW>
435.82

> <Description>
solid

> <FSP3>
0.05

> <clogP>
2.74

> <TPSA>
117.80

> <Acceptor>
6

> <Donor>
2

> <RotBonds>
4

> <HAC>
31

> <Collection>
General

$$$$
F0466-0032
  -ISIS-  06222321452D

 32 35  0  0  0  0  0  0  0  0999 V2000
   -1.2000    0.2500    0.0000 C   0  0  0  0  0  0  0  0  0  0  0  0
   -0.3625   -0.1167    0.0000 C   0  0  0  0  0  0  0  0  0  0  0  0
   -1.2625   -0.3000    0.0000 C   0  0  0  0  0  0  0  0  0  0  0  0
    1.8042   -2.1792    0.0000 N   0  0  3  0  0  0  0  0  0  0  0  0
   -0.7458   -0.5500    0.0000 N   0  0  0  0  0  0  0  0  0  0  0  0
   -0.6458    0.3708    0.0000 S   0  0  0  0  0  0  0  0  0  0  0  0
    0.2000   -0.2500    0.0000 N   0  0  0  0  0  0  0  0  0  0  0  0
    1.6500   -1.6167    0.0000 C   0  0  0  0  0  0  0  0  0  0  0  0
    0.3667   -0.7792    0.0000 C   0  0  0  0  0  0  0  0  0  0  0  0
    2.3667   -2.3500    0.0000 C   0  0  0  0  0  0  0  0  0  0  0  0
    1.5000   -2.6542    0.0000 C   0  0  0  0  0  0  0  0  0  0  0  0
   -1.6458    0.6333    0.0000 C   0  0  0  0  0  0  0  0  0  0  0  0
    1.1042   -1.4792    0.0000 C   0  0  0  0  0  0  0  0  0  0  0  0
    0.9500   -0.9167    0.0000 C   0  0  0  0  0  0  0  0  0  0  0  0
   -1.7208   -0.6500    0.0000 C   0  0  0  0  0  0  0  0  0  0  0  0
   -0.0208   -1.2167    0.0000 O   0  0  0  0  0  0  0  0  0  0  0  0
    1.8667   -3.1000    0.0000 C   0  0  0  0  0  0  0  0  0  0  0  0
    2.3667   -2.9000    0.0000 C   0  0  0  0  0  0  0  0  0  0  0  0
    0.9042   -2.6792    0.0000 O   0  0  0  0  0  0  0  0  0  0  0  0
    2.8292   -1.9792    0.0000 O   0  0  0  0  0  0  0  0  0  0  0  0
   -1.5208    1.1958    0.0000 O   0  0  0  0  0  0  0  0  0  0  0  0
   -2.1625    0.4500    0.0000 O   0  0  0  0  0  0  0  0  0  0  0  0
    2.0667   -1.2167    0.0000 C   0  0  0  0  0  0  0  0  0  0  0  0
    1.3667   -0.5000    0.0000 C   0  0  0  0  0  0  0  0  0  0  0  0
    1.9292   -0.6542    0.0000 C   0  0  0  0  0  0  0  0  0  0  0  0
   -1.6625   -1.2000    0.0000 C   0  0  0  0  0  0  0  0  0  0  0  0
   -2.2458   -0.4000    0.0000 C   0  0  0  0  0  0  0  0  0  0  0  0
   -2.5833    0.8333    0.0000 C   0  0  0  0  0  0  0  0  0  0  0  0
   -3.1208    0.6500    0.0000 C   0  0  0  0  0  0  0  0  0  0  0  0
   -2.1208   -1.5500    0.0000 C   0  0  0  0  0  0  0  0  0  0  0  0
   -2.7000   -0.7500    0.0000 C   0  0  0  0  0  0  0  0  0  0  0  0
   -2.6208   -1.3000    0.0000 C   0  0  0  0  0  0  0  0  0  0  0  0
  2  6  1  0  0  0  0
  3  1  2  0  0  0  0
  4  8  1  0  0  0  0
  5  3  1  0  0  0  0
  6  1  1  0  0  0  0
  7  2  1  0  0  0  0
  8 13  2  0  0  0  0
  9  7  1  0  0  0  0
 10  4  1  0  0  0  0
 11  4  1  0  0  0  0
 12  1  1  0  0  0  0
 13 14  1  0  0  0  0
 14  9  1  0  0  0  0
 15  3  1  0  0  0  0
 16  9  2  0  0  0  0
 17 11  1  0  0  0  0
 18 10  1  0  0  0  0
 19 11  2  0  0  0  0
 20 10  2  0  0  0  0
 21 12  2  0  0  0  0
 22 12  1  0  0  0  0
 23 25  2  0  0  0  0
 24 14  2  0  0  0  0
 25 24  1  0  0  0  0
 26 15  1  0  0  0  0
 27 15  2  0  0  0  0
 28 22  1  0  0  0  0
 29 28  1  0  0  0  0
 30 26  2  0  0  0  0
 31 27  1  0  0  0  0
 32 31  2  0  0  0  0
  2  5  2  0  0  0  0
 32 30  1  0  0  0  0
  8 23  1  0  0  0  0
 17 18  1  0  0  0  0
M  END
> <IDNUMBER>
F0466-0032

> <Chemical_Name>
ethyl 2-[3-(2,5-dioxopyrrolidin-1-yl)benzamido]-4-phenyl-1,3-thiazole-5-carboxylate

> <CAS>
391867-71-3

> <PriceCoeff>
1.00

> <MW>
449.48

> <Description>
solid

> <FSP3>
0.17

> <clogP>
2.76

> <TPSA>
133.91

> <Acceptor>
6

> <Donor>
1

> <RotBonds>
7

> <HAC>
32

> <Collection>
General

$$$$
F1199-0004
  -ISIS-  06222321142D

 27 29  0  0  0  0  0  0  0  0999 V2000
    1.6292   -0.9750    0.0000 N   0  0  3  0  0  0  0  0  0  0  0  0
    1.7125   -0.1542    0.0000 C   0  0  0  0  0  0  0  0  0  0  0  0
    2.3792   -1.3042    0.0000 C   0  0  0  0  0  0  0  0  0  0  0  0
    2.9292   -0.6917    0.0000 C   0  0  3  0  0  0  0  0  0  0  0  0
    2.5167    0.0208    0.0000 C   0  0  0  0  0  0  0  0  0  0  0  0
    0.9167   -1.3917    0.0000 C   0  0  0  0  0  0  0  0  0  0  0  0
    4.9125   -1.6042    0.0000 C   0  0  0  0  0  0  0  0  0  0  0  0
    3.7542   -0.7792    0.0000 S   0  0  0  0  0  0  0  0  0  0  0  0
    4.0917   -1.5292    0.0000 C   0  0  0  0  0  0  0  0  0  0  0  0
    5.3917   -0.9375    0.0000 C   0  0  0  0  0  0  0  0  0  0  0  0
    0.2042   -0.9792    0.0000 C   0  0  0  0  0  0  0  0  0  0  0  0
    0.2000   -0.1542    0.0000 O   0  0  0  0  0  0  0  0  0  0  0  0
   -0.5125    0.2583    0.0000 C   0  0  3  0  0  0  0  0  0  0  0  0
    1.1000    0.3958    0.0000 O   0  0  0  0  0  0  0  0  0  0  0  0
    2.5542   -2.1167    0.0000 O   0  0  0  0  0  0  0  0  0  0  0  0
    5.0500   -0.1792    0.0000 O   0  0  0  0  0  0  0  0  0  0  0  0
   -0.5208    1.0833    0.0000 F   0  0  0  0  0  0  0  0  0  0  0  0
   -1.2333   -0.1542    0.0000 F   0  0  0  0  0  0  0  0  0  0  0  0
    6.2125   -1.0167    0.0000 O   0  0  0  0  0  0  0  0  0  0  0  0
    5.2542   -2.3542    0.0000 C   0  0  0  0  0  0  0  0  0  0  0  0
    0.9167   -2.2167    0.0000 C   0  0  0  0  0  0  0  0  0  0  0  0
    3.6042   -2.1917    0.0000 C   0  0  0  0  0  0  0  0  0  0  0  0
   -0.5083   -1.3917    0.0000 C   0  0  0  0  0  0  0  0  0  0  0  0
    4.7667   -3.0292    0.0000 C   0  0  0  0  0  0  0  0  0  0  0  0
    0.2042   -2.6292    0.0000 C   0  0  0  0  0  0  0  0  0  0  0  0
    3.9417   -2.9417    0.0000 C   0  0  0  0  0  0  0  0  0  0  0  0
   -0.5083   -2.2167    0.0000 C   0  0  0  0  0  0  0  0  0  0  0  0
  2  1  1  0  0  0  0
  3  1  1  0  0  0  0
  4  3  1  0  0  0  0
  5  2  1  0  0  0  0
  6  1  1  0  0  0  0
  7  9  1  0  0  0  0
  8  4  1  0  0  0  0
  9  8  1  0  0  0  0
 10  7  1  0  0  0  0
 11  6  2  0  0  0  0
 12 11  1  0  0  0  0
 13 12  1  0  0  0  0
 14  2  2  0  0  0  0
 15  3  2  0  0  0  0
 16 10  2  0  0  0  0
 17 13  1  0  0  0  0
 18 13  1  0  0  0  0
 19 10  1  0  0  0  0
 20  7  2  0  0  0  0
 21  6  1  0  0  0  0
 22  9  2  0  0  0  0
 23 11  1  0  0  0  0
 24 26  2  0  0  0  0
 25 21  2  0  0  0  0
 26 22  1  0  0  0  0
 27 25  1  0  0  0  0
  5  4  1  0  0  0  0
 27 23  2  0  0  0  0
 24 20  1  0  0  0  0
M  END
> <IDNUMBER>
F1199-0004

> <Chemical_Name>
2-({1-[2-(difluoromethoxy)phenyl]-2,5-dioxopyrrolidin-3-yl}sulfanyl)benzoic acid

> <CAS>
433700-13-1

> <PriceCoeff>
1.00

> <MW>
393.36

> <Description>
solid

> <FSP3>
0.17

> <clogP>
2.61

> <TPSA>
109.21

> <Acceptor>
5

> <Donor>
0

> <RotBonds>
6

> <HAC>
27

> <Collection>
General

$$$$
F2018-5525
  -ISIS-  06222304352D

 35 37  0  0  0  0  0  0  0  0999 V2000
   -3.1583    2.9833    0.0000 C   0  0  0  0  0  0  0  0  0  0  0  0
   -3.9125    2.6458    0.0000 N   0  0  0  0  0  0  0  0  0  0  0  0
   -2.4375    2.5625    0.0000 N   0  0  3  0  0  0  0  0  0  0  0  0
   -0.2958    0.4958    0.0000 N   0  0  3  0  0  0  0  0  0  0  0  0
   -4.4708    3.2583    0.0000 C   0  0  0  0  0  0  0  0  0  0  0  0
   -3.2458    3.8083    0.0000 S   0  0  0  0  0  0  0  0  0  0  0  0
   -1.7250    2.9833    0.0000 C   0  0  0  0  0  0  0  0  0  0  0  0
   -4.0583    3.9708    0.0000 C   0  0  0  0  0  0  0  0  0  0  0  0
   -0.2958    1.3333    0.0000 C   0  0  0  0  0  0  0  0  0  0  0  0
    0.3500   -0.0167    0.0000 C   0  0  0  0  0  0  0  0  0  0  0  0
   -0.9958    0.0458    0.0000 C   0  0  0  0  0  0  0  0  0  0  0  0
   -5.2833    3.2458    0.0000 C   0  0  0  0  0  0  0  0  0  0  0  0
   -1.0125    2.5625    0.0000 C   0  0  0  0  0  0  0  0  0  0  0  0
   -1.0083    1.7458    0.0000 C   0  0  0  0  0  0  0  0  0  0  0  0
   -2.4375    1.7375    0.0000 C   0  0  0  0  0  0  0  0  0  0  0  0
   -4.4708    4.6667    0.0000 C   0  0  0  0  0  0  0  0  0  0  0  0
   -5.6958    3.9583    0.0000 C   0  0  0  0  0  0  0  0  0  0  0  0
   -5.2958    4.6667    0.0000 C   0  0  0  0  0  0  0  0  0  0  0  0
   -1.7250    3.8000    0.0000 O   0  0  0  0  0  0  0  0  0  0  0  0
    0.0667   -0.7917    0.0000 C   0  0  0  0  0  0  0  0  0  0  0  0
   -0.7583   -0.7667    0.0000 C   0  0  0  0  0  0  0  0  0  0  0  0
    1.1417    0.1958    0.0000 O   0  0  0  0  0  0  0  0  0  0  0  0
   -1.7583    0.3333    0.0000 O   0  0  0  0  0  0  0  0  0  0  0  0
   -5.6958    2.5333    0.0000 F   0  0  0  0  0  0  0  0  0  0  0  0
   -3.1583    1.3250    0.0000 C   0  0  0  0  0  0  0  0  0  0  0  0
   -3.1583    0.5000    0.0000 N   0  0  3  0  0  0  0  0  0  0  0  0
   -5.7208    5.3917    0.0000 F   0  0  0  0  0  0  0  0  0  0  0  0
    0.4167    1.7333    0.0000 C   0  0  0  0  0  0  0  0  0  0  0  0
   -0.2875    2.9833    0.0000 C   0  0  0  0  0  0  0  0  0  0  0  0
    0.4250    2.5625    0.0000 C   0  0  0  0  0  0  0  0  0  0  0  0
   -3.8708    0.0875    0.0000 C   0  0  0  0  0  0  0  0  0  0  0  0
   -2.4375    0.0875    0.0000 C   0  0  0  0  0  0  0  0  0  0  0  0
   -4.5833    0.5000    0.0000 C   0  0  0  0  0  0  0  0  0  0  0  0
   -2.4375   -0.7375    0.0000 C   0  0  0  0  0  0  0  0  0  0  0  0
    2.6584    2.4500    0.0000 Cl  0  0  0  0  0  0  0  0  0  0  0  0
  3  1  1  0  0  0  0
  4  9  1  0  0  0  0
  5  2  1  0  0  0  0
  6  1  1  0  0  0  0
  7  3  1  0  0  0  0
  8  6  1  0  0  0  0
  9 14  1  0  0  0  0
 10  4  1  0  0  0  0
 11  4  1  0  0  0  0
 12  5  1  0  0  0  0
 13  7  1  0  0  0  0
 14 13  2  0  0  0  0
 15  3  1  0  0  0  0
 16  8  1  0  0  0  0
 17 12  2  0  0  0  0
 18 16  2  0  0  0  0
 19  7  2  0  0  0  0
 20 10  1  0  0  0  0
 21 11  1  0  0  0  0
 22 10  2  0  0  0  0
 23 11  2  0  0  0  0
 24 12  1  0  0  0  0
 25 15  1  0  0  0  0
 26 25  1  0  0  0  0
 27 18  1  0  0  0  0
 28 30  1  0  0  0  0
 29 13  1  0  0  0  0
 30 29  2  0  0  0  0
 31 26  1  0  0  0  0
 32 26  1  0  0  0  0
 33 31  1  0  0  0  0
 34 32  1  0  0  0  0
  8  5  2  0  0  0  0
 17 18  1  0  0  0  0
  9 28  2  0  0  0  0
 21 20  1  0  0  0  0
  2  1  2  0  0  0  0
M  END
> <IDNUMBER>
F2018-5525

> <Chemical_Name>
N-[2-(diethylamino)ethyl]-N-(4,6-difluoro-1,3-benzothiazol-2-yl)-3-(2,5-dioxopyrrolidin-1-yl)benzamide hydrochloride

> <CAS>
1321775-07-8

> <PriceCoeff>
1.00

> <MW>
486.53

> <Description>
solid

> <FSP3>
0.33

> <clogP>
2.51

> <TPSA>
102.06

> <Acceptor>
4

> <Donor>
1

> <RotBonds>
9

> <HAC>
34

> <Collection>
General

$$$$
F1936-0008
  -ISIS-  06222321452D

 21 23  0  0  0  0  0  0  0  0999 V2000
    1.4375   -0.3417    0.0000 C   0  0  0  0  0  0  0  0  0  0  0  0
    2.8625   -1.1750    0.0000 C   0  0  0  0  0  0  0  0  0  0  0  0
    1.4292   -1.1667    0.0000 C   0  0  0  0  0  0  0  0  0  0  0  0
    2.8625   -0.3500    0.0000 C   0  0  0  0  0  0  0  0  0  0  0  0
    2.1417   -1.5792    0.0000 O   0  0  0  0  0  0  0  0  0  0  0  0
    2.1500    0.0708    0.0000 C   0  0  0  0  0  0  0  0  0  0  0  0
    0.7250    0.0708    0.0000 C   0  0  0  0  0  0  0  0  0  0  0  0
    0.7250   -1.5792    0.0000 C   0  0  0  0  0  0  0  0  0  0  0  0
    0.0167   -0.3417    0.0000 C   0  0  0  0  0  0  0  0  0  0  0  0
    0.0167   -1.1667    0.0000 C   0  0  0  0  0  0  0  0  0  0  0  0
    3.5667   -1.5917    0.0000 C   0  0  0  0  0  0  0  0  0  0  0  0
    2.1542    0.8958    0.0000 O   0  0  0  0  0  0  0  0  0  0  0  0
   -1.4125   -1.1667    0.0000 C   0  0  0  0  0  0  0  0  0  0  0  0
   -2.1333   -1.5792    0.0000 C   0  0  0  0  0  0  0  0  0  0  0  0
   -0.7000    0.0708    0.0000 O   0  0  0  0  0  0  0  0  0  0  0  0
   -0.7000   -1.5792    0.0000 C   0  0  0  0  0  0  0  0  0  0  0  0
    4.2792   -1.1792    0.0000 C   0  0  0  0  0  0  0  0  0  0  0  0
    3.5667   -2.4167    0.0000 C   0  0  0  0  0  0  0  0  0  0  0  0
    4.2750   -2.8292    0.0000 C   0  0  0  0  0  0  0  0  0  0  0  0
    4.9917   -1.5917    0.0000 C   0  0  0  0  0  0  0  0  0  0  0  0
    4.9917   -2.4250    0.0000 C   0  0  0  0  0  0  0  0  0  0  0  0
  2  4  2  0  0  0  0
  3  1  2  0  0  0  0
  4  6  1  0  0  0  0
  5  3  1  0  0  0  0
  6  1  1  0  0  0  0
  7  1  1  0  0  0  0
  8  3  1  0  0  0  0
  9  7  2  0  0  0  0
 10  9  1  0  0  0  0
 11  2  1  0  0  0  0
 12  6  2  0  0  0  0
 13 16  1  0  0  0  0
 14 13  2  0  0  0  0
 15  9  1  0  0  0  0
 16 10  1  0  0  0  0
 17 11  1  0  0  0  0
 18 11  2  0  0  0  0
 19 18  1  0  0  0  0
 20 17  2  0  0  0  0
 21 19  2  0  0  0  0
  5  2  1  0  0  0  0
 10  8  2  0  0  0  0
 20 21  1  0  0  0  0
M  END
> <IDNUMBER>
F1936-0008

> <Chemical_Name>
6-hydroxy-2-phenyl-7-(prop-2-en-1-yl)-4H-chromen-4-one

> <CAS>
1395786-38-5

> <PriceCoeff>
1.00

> <MW>
278.30

> <Description>
solid

> <FSP3>
0.06

> <clogP>
4.23

> <TPSA>
46.53

> <Acceptor>
3

> <Donor>
1

> <RotBonds>
3

> <HAC>
21

> <Collection>
General

> <Reference_compound>
CHEMBL275638

> <Similarity>
0.9090

$$$$
F3385-5916
  -ISIS-  06222321152D

 25 27  0  0  0  0  0  0  0  0999 V2000
    5.1625   -2.9500    0.0000 C   0  0  0  0  0  0  0  0  0  0  0  0
    5.8667   -3.3667    0.0000 C   0  0  0  0  0  0  0  0  0  0  0  0
    3.0167   -0.8750    0.0000 C   0  0  0  0  0  0  0  0  0  0  0  0
    3.7292   -2.1167    0.0000 C   0  0  0  0  0  0  0  0  0  0  0  0
    3.0167   -1.7042    0.0000 C   0  0  0  0  0  0  0  0  0  0  0  0
    3.7375   -0.4542    0.0000 O   0  0  0  0  0  0  0  0  0  0  0  0
    5.1542   -2.1292    0.0000 N   0  0  0  0  0  0  0  0  0  0  0  0
    4.4542   -0.8750    0.0000 C   0  0  0  0  0  0  0  0  0  0  0  0
    4.4542   -1.7042    0.0000 C   0  0  0  0  0  0  0  0  0  0  0  0
    2.3042   -0.4625    0.0000 C   0  0  0  0  0  0  0  0  0  0  0  0
    2.3042   -2.1167    0.0000 C   0  0  0  0  0  0  0  0  0  0  0  0
    6.5875   -2.9542    0.0000 C   0  0  0  0  0  0  0  0  0  0  0  0
    5.8667   -4.1917    0.0000 C   0  0  0  0  0  0  0  0  0  0  0  0
    5.8625   -5.0167    0.0000 N   0  0  0  0  0  0  0  0  0  0  0  0
    4.4417   -3.3625    0.0000 S   0  0  0  0  0  0  0  0  0  0  0  0
    1.5917   -1.7042    0.0000 C   0  0  0  0  0  0  0  0  0  0  0  0
    1.5917   -0.8750    0.0000 C   0  0  0  0  0  0  0  0  0  0  0  0
    3.7292   -2.9417    0.0000 C   0  0  0  0  0  0  0  0  0  0  0  0
    5.8667   -1.7167    0.0000 C   0  0  0  0  0  0  0  0  0  0  0  0
    6.5875   -2.1292    0.0000 C   0  0  0  0  0  0  0  0  0  0  0  0
    5.1750   -0.4667    0.0000 O   0  0  0  0  0  0  0  0  0  0  0  0
    0.8750   -2.1167    0.0000 Cl  0  0  0  0  0  0  0  0  0  0  0  0
    0.8792   -0.4667    0.0000 O   0  0  0  0  0  0  0  0  0  0  0  0
    7.3000   -3.3750    0.0000 C   0  0  0  0  0  0  0  0  0  0  0  0
    5.8667   -0.8917    0.0000 C   0  0  0  0  0  0  0  0  0  0  0  0
  2  1  2  0  0  0  0
  3  5  1  0  0  0  0
  4 18  1  0  0  0  0
  5  4  1  0  0  0  0
  6  8  1  0  0  0  0
  7  1  1  0  0  0  0
  8  9  1  0  0  0  0
  9  4  2  0  0  0  0
 10  3  2  0  0  0  0
 11  5  2  0  0  0  0
 12  2  1  0  0  0  0
 13  2  1  0  0  0  0
 14 13  3  0  0  0  0
 15  1  1  0  0  0  0
 16 11  1  0  0  0  0
 17 16  2  0  0  0  0
 18 15  1  0  0  0  0
 19  7  2  0  0  0  0
 20 19  1  0  0  0  0
 21  8  2  0  0  0  0
 22 16  1  0  0  0  0
 23 17  1  0  0  0  0
 24 12  1  0  0  0  0
 25 19  1  0  0  0  0
 20 12  2  0  0  0  0
  6  3  1  0  0  0  0
 17 10  1  0  0  0  0
M  END
> <IDNUMBER>
F3385-5916

> <Chemical_Name>
2-{[(6-chloro-7-hydroxy-2-oxo-2H-chromen-4-yl)methyl]sulfanyl}-4,6-dimethylpyridine-3-carbonitrile

> <CAS>
1011625-29-8

> <PriceCoeff>
1.00

> <MW>
372.83

> <Description>
solid

> <FSP3>
0.17

> <clogP>
4.03

> <TPSA>
108.51

> <Acceptor>
5

> <Donor>
2

> <RotBonds>
3

> <HAC>
25

> <Collection>
General

$$$$
F1298-0252
  -ISIS-  06222321142D

 35 38  0  0  0  0  0  0  0  0999 V2000
    2.3417   -0.2542    0.0000 C   0  0  0  0  0  0  0  0  0  0  0  0
    1.8542    0.4083    0.0000 C   0  0  0  0  0  0  0  0  0  0  0  0
    1.0750   -0.6750    0.0000 C   0  0  0  0  0  0  0  0  0  0  0  0
    6.0542   -2.4042    0.0000 N   0  0  3  0  0  0  0  0  0  0  0  0
    1.0667    0.1458    0.0000 C   0  0  0  0  0  0  0  0  0  0  0  0
    1.8542   -0.9292    0.0000 S   0  0  0  0  0  0  0  0  0  0  0  0
    3.1750   -0.2542    0.0000 N   0  0  0  0  0  0  0  0  0  0  0  0
   -0.3583   -0.6875    0.0000 N   0  0  3  0  0  0  0  0  0  0  0  0
    5.6417   -1.6875    0.0000 C   0  0  0  0  0  0  0  0  0  0  0  0
    3.5792   -0.9750    0.0000 C   0  0  0  0  0  0  0  0  0  0  0  0
   -1.0750   -1.0917    0.0000 C   0  0  0  0  0  0  0  0  0  0  0  0
    5.6792   -3.1375    0.0000 C   0  0  0  0  0  0  0  0  0  0  0  0
    6.8667   -2.5167    0.0000 C   0  0  0  0  0  0  0  0  0  0  0  0
    2.1042    1.1875    0.0000 C   0  0  0  0  0  0  0  0  0  0  0  0
    0.3500   -1.0917    0.0000 C   0  0  0  0  0  0  0  0  0  0  0  0
    0.3500    0.5625    0.0000 C   0  0  0  0  0  0  0  0  0  0  0  0
    4.8125   -1.6875    0.0000 C   0  0  0  0  0  0  0  0  0  0  0  0
    4.4042   -0.9750    0.0000 C   0  0  0  0  0  0  0  0  0  0  0  0
   -0.3583    0.1458    0.0000 C   0  0  0  0  0  0  0  0  0  0  0  0
   -1.0750   -1.9250    0.0000 O   0  0  0  0  0  0  0  0  0  0  0  0
    3.1750   -1.6917    0.0000 O   0  0  0  0  0  0  0  0  0  0  0  0
    6.2917   -3.7125    0.0000 C   0  0  0  0  0  0  0  0  0  0  0  0
    7.0167   -3.3292    0.0000 C   0  0  0  0  0  0  0  0  0  0  0  0
    4.8667   -3.2750    0.0000 O   0  0  0  0  0  0  0  0  0  0  0  0
    7.4500   -1.9417    0.0000 O   0  0  0  0  0  0  0  0  0  0  0  0
    1.5500    1.7958    0.0000 O   0  0  0  0  0  0  0  0  0  0  0  0
   -1.7875   -0.6875    0.0000 O   0  0  0  0  0  0  0  0  0  0  0  0
    2.9250    1.3625    0.0000 O   0  0  0  0  0  0  0  0  0  0  0  0
    6.0542   -0.9750    0.0000 C   0  0  0  0  0  0  0  0  0  0  0  0
    4.8125   -0.2542    0.0000 C   0  0  0  0  0  0  0  0  0  0  0  0
    5.6417   -0.2542    0.0000 C   0  0  0  0  0  0  0  0  0  0  0  0
   -1.7958    0.1458    0.0000 C   0  0  0  0  0  0  0  0  0  0  0  0
    3.4792    0.7500    0.0000 C   0  0  0  0  0  0  0  0  0  0  0  0
    4.2917    0.9208    0.0000 C   0  0  0  0  0  0  0  0  0  0  0  0
   -2.5083    0.5583    0.0000 C   0  0  0  0  0  0  0  0  0  0  0  0
  2  1  2  0  0  0  0
  3  6  1  0  0  0  0
  4  9  1  0  0  0  0
  5  2  1  0  0  0  0
  6  1  1  0  0  0  0
  7  1  1  0  0  0  0
  8 15  1  0  0  0  0
  9 17  1  0  0  0  0
 10  7  1  0  0  0  0
 11  8  1  0  0  0  0
 12  4  1  0  0  0  0
 13  4  1  0  0  0  0
 14  2  1  0  0  0  0
 15  3  1  0  0  0  0
 16  5  1  0  0  0  0
 17 18  2  0  0  0  0
 18 10  1  0  0  0  0
 19 16  1  0  0  0  0
 20 11  2  0  0  0  0
 21 10  2  0  0  0  0
 22 12  1  0  0  0  0
 23 13  1  0  0  0  0
 24 12  2  0  0  0  0
 25 13  2  0  0  0  0
 26 14  2  0  0  0  0
 27 11  1  0  0  0  0
 28 14  1  0  0  0  0
 29 31  1  0  0  0  0
 30 18  1  0  0  0  0
 31 30  2  0  0  0  0
 32 27  1  0  0  0  0
 33 28  1  0  0  0  0
 34 33  1  0  0  0  0
 35 32  1  0  0  0  0
  3  5  2  0  0  0  0
  8 19  1  0  0  0  0
  9 29  2  0  0  0  0
 23 22  1  0  0  0  0
M  END
> <IDNUMBER>
F1298-0252

> <Chemical_Name>
3,6-diethyl 2-[3-(2,5-dioxopyrrolidin-1-yl)benzamido]-4H,5H,6H,7H-thieno[2,3-c]pyridine-3,6-dicarboxylate

> <CAS>
921092-89-9

> <PriceCoeff>
1.00

> <MW>
499.54

> <Description>
solid

> <FSP3>
0.38

> <clogP>
2.37

> <TPSA>
150.56

> <Acceptor>
7

> <Donor>
1

> <RotBonds>
9

> <HAC>
35

> <Collection>
General

$$$$
F3382-3365
  -ISIS-  06222321462D

 23 25  0  0  0  0  0  0  0  0999 V2000
    6.9417   -2.5000    0.0000 C   0  0  0  0  0  0  0  0  0  0  0  0
    5.5167   -2.5000    0.0000 C   0  0  0  0  0  0  0  0  0  0  0  0
    6.2292   -2.9125    0.0000 C   0  0  0  0  0  0  0  0  0  0  0  0
    5.5167   -1.6750    0.0000 C   0  0  0  0  0  0  0  0  0  0  0  0
    6.9417   -1.6750    0.0000 C   0  0  0  0  0  0  0  0  0  0  0  0
    6.2292   -1.2625    0.0000 N   0  0  3  0  0  0  0  0  0  0  0  0
    4.8042   -1.2625    0.0000 C   0  0  0  0  0  0  0  0  0  0  0  0
    4.0875   -1.6750    0.0000 C   0  0  0  0  0  0  0  0  0  0  0  0
    4.8042   -2.9125    0.0000 C   0  0  0  0  0  0  0  0  0  0  0  0
    7.6667   -2.9125    0.0000 C   0  0  0  0  0  0  0  0  0  0  0  0
    4.0875   -2.5000    0.0000 C   0  0  0  0  0  0  0  0  0  0  0  0
    3.3750   -1.2625    0.0000 N   0  0  3  0  0  0  0  0  0  0  0  0
    6.2292   -3.7375    0.0000 O   0  0  0  0  0  0  0  0  0  0  0  0
    7.6667   -3.7375    0.0000 O   0  0  0  0  0  0  0  0  0  0  0  0
    3.3667   -2.9125    0.0000 F   0  0  0  0  0  0  0  0  0  0  0  0
    8.3792   -2.5000    0.0000 O   0  0  0  0  0  0  0  0  0  0  0  0
    6.2292   -0.4375    0.0000 C   0  0  0  0  0  0  0  0  0  0  0  0
    2.6042   -1.5667    0.0000 C   0  0  0  0  0  0  0  0  0  0  0  0
    3.3250   -0.4417    0.0000 C   0  0  0  0  0  0  0  0  0  0  0  0
    9.0917   -2.9125    0.0000 C   0  0  0  0  0  0  0  0  0  0  0  0
    2.5292   -0.2292    0.0000 C   0  0  0  0  0  0  0  0  0  0  0  0
    2.0792   -0.9292    0.0000 C   0  0  0  0  0  0  0  0  0  0  0  0
    9.8125   -2.5000    0.0000 C   0  0  0  0  0  0  0  0  0  0  0  0
  2  3  1  0  0  0  0
  3  1  1  0  0  0  0
  4  6  1  0  0  0  0
  5  1  2  0  0  0  0
  6  5  1  0  0  0  0
  7  4  2  0  0  0  0
  8  7  1  0  0  0  0
  9  2  2  0  0  0  0
 10  1  1  0  0  0  0
 11  9  1  0  0  0  0
 12  8  1  0  0  0  0
 13  3  2  0  0  0  0
 14 10  2  0  0  0  0
 15 11  1  0  0  0  0
 16 10  1  0  0  0  0
 17  6  1  0  0  0  0
 18 12  1  0  0  0  0
 19 12  1  0  0  0  0
 20 16  1  0  0  0  0
 21 19  1  0  0  0  0
 22 18  1  0  0  0  0
 23 20  1  0  0  0  0
  4  2  1  0  0  0  0
  8 11  2  0  0  0  0
 21 22  1  0  0  0  0
M  END
> <IDNUMBER>
F3382-3365

> <Chemical_Name>
ethyl 6-fluoro-1-methyl-4-oxo-7-(pyrrolidin-1-yl)-1,4-dihydroquinoline-3-carboxylate

> <CAS>
950270-58-3

> <PriceCoeff>
1.00

> <MW>
318.34

> <Description>
solid

> <FSP3>
0.41

> <clogP>
1.54

> <TPSA>
49.85

> <Acceptor>
5

> <Donor>
2

> <RotBonds>
4

> <HAC>
23

> <Collection>
General

> <Reference_compound>
CHEMBL8

> <Similarity>
0.8140

$$$$
F3023-0834
  -ISIS-  06222321152D

 25 27  0  0  0  0  0  0  0  0999 V2000
   -0.2708   -6.2125    0.0000 N   0  0  3  0  0  0  0  0  0  0  0  0
    0.1417   -5.6375    0.0000 C   0  0  0  0  0  0  0  0  0  0  0  0
    0.1500   -6.7792    0.0000 C   0  0  0  0  0  0  0  0  0  0  0  0
    0.8250   -6.5625    0.0000 C   0  0  3  0  0  0  0  0  0  0  0  0
    0.8167   -5.8542    0.0000 C   0  0  0  0  0  0  0  0  0  0  0  0
   -0.9833   -6.2167    0.0000 C   0  0  3  0  0  0  0  0  0  0  0  0
    1.3917   -6.9750    0.0000 N   0  0  0  0  0  0  0  0  0  0  0  0
   -0.0833   -4.9667    0.0000 O   0  0  0  0  0  0  0  0  0  0  0  0
   -0.0625   -7.4542    0.0000 O   0  0  0  0  0  0  0  0  0  0  0  0
   -1.3333   -6.8292    0.0000 C   0  0  0  0  0  0  0  0  0  0  0  0
    2.0417   -6.6875    0.0000 C   0  0  0  0  0  0  0  0  0  0  0  0
    3.3375   -6.1125    0.0000 C   0  0  0  0  0  0  0  0  0  0  0  0
    2.1125   -5.9875    0.0000 C   0  0  0  0  0  0  0  0  0  0  0  0
    2.6167   -7.1042    0.0000 C   0  0  0  0  0  0  0  0  0  0  0  0
    3.2667   -6.8167    0.0000 C   0  0  0  0  0  0  0  0  0  0  0  0
    2.7542   -5.6917    0.0000 C   0  0  0  0  0  0  0  0  0  0  0  0
    3.9875   -5.8167    0.0000 O   0  0  0  0  0  0  0  0  0  0  0  0
   -1.3375   -5.6042    0.0000 C   0  0  0  0  0  0  0  0  0  0  0  0
   -2.0375   -6.8375    0.0000 C   0  0  0  0  0  0  0  0  0  0  0  0
   -0.9708   -7.4417    0.0000 C   0  0  0  0  0  0  0  0  0  0  0  0
    4.5625   -6.2375    0.0000 C   0  0  0  0  0  0  0  0  0  0  0  0
    5.2042   -5.9417    0.0000 C   0  0  0  0  0  0  0  0  0  0  0  0
   -1.3208   -8.0542    0.0000 C   0  0  0  0  0  0  0  0  0  0  0  0
   -2.3875   -7.4500    0.0000 C   0  0  0  0  0  0  0  0  0  0  0  0
   -2.0333   -8.0625    0.0000 C   0  0  0  0  0  0  0  0  0  0  0  0
  2  1  1  0  0  0  0
  3  1  1  0  0  0  0
  4  3  1  0  0  0  0
  5  2  1  0  0  0  0
  6  1  1  0  0  0  0
  7  4  1  0  0  0  0
  8  2  2  0  0  0  0
  9  3  2  0  0  0  0
 10  6  1  0  0  0  0
 11  7  1  0  0  0  0
 12 15  2  0  0  0  0
 13 11  1  0  0  0  0
 14 11  2  0  0  0  0
 15 14  1  0  0  0  0
 16 13  2  0  0  0  0
 17 12  1  0  0  0  0
 18  6  1  0  0  0  0
 19 10  2  0  0  0  0
 20 10  1  0  0  0  0
 21 17  1  0  0  0  0
 22 21  1  0  0  0  0
 23 20  2  0  0  0  0
 24 19  1  0  0  0  0
 25 23  1  0  0  0  0
  5  4  1  0  0  0  0
 25 24  2  0  0  0  0
 16 12  1  0  0  0  0
M  END
> <IDNUMBER>
F3023-0834

> <Chemical_Name>
3-[(4-ethoxyphenyl)amino]-1-(1-phenylethyl)pyrrolidine-2,5-dione

> <CAS>
106058-47-3

> <PriceCoeff>
1.00

> <MW>
338.40

> <Description>
solid

> <FSP3>
0.30

> <clogP>
4.17

> <TPSA>
58.64

> <Acceptor>
4

> <Donor>
1

> <RotBonds>
6

> <HAC>
25

> <Collection>
General

$$$$
F0466-0061
  -ISIS-  06222321142D

 32 35  0  0  0  0  0  0  0  0999 V2000
   -0.6000    1.0208    0.0000 C   0  0  0  0  0  0  0  0  0  0  0  0
   -0.8833    0.5625    0.0000 C   0  0  0  0  0  0  0  0  0  0  0  0
   -0.0625    0.9125    0.0000 S   0  0  0  0  0  0  0  0  0  0  0  0
   -3.4125   -0.7500    0.0000 N   0  0  3  0  0  0  0  0  0  0  0  0
    0.0000    0.3833    0.0000 C   0  0  0  0  0  0  0  0  0  0  0  0
   -0.5000    0.1708    0.0000 C   0  0  0  0  0  0  0  0  0  0  0  0
   -3.1208   -0.3000    0.0000 C   0  0  0  0  0  0  0  0  0  0  0  0
   -1.4125    0.5625    0.0000 N   0  0  0  0  0  0  0  0  0  0  0  0
   -3.2333   -1.3000    0.0000 C   0  0  0  0  0  0  0  0  0  0  0  0
   -3.9583   -0.7500    0.0000 C   0  0  0  0  0  0  0  0  0  0  0  0
   -1.6708    0.0958    0.0000 C   0  0  0  0  0  0  0  0  0  0  0  0
   -0.8000    1.5458    0.0000 C   0  0  0  0  0  0  0  0  0  0  0  0
   -2.5625   -0.3292    0.0000 C   0  0  0  0  0  0  0  0  0  0  0  0
   -2.2500    0.1000    0.0000 C   0  0  0  0  0  0  0  0  0  0  0  0
    0.4500    0.1000    0.0000 C   0  0  0  0  0  0  0  0  0  0  0  0
   -1.4000   -0.3542    0.0000 O   0  0  0  0  0  0  0  0  0  0  0  0
   -3.7125   -1.6000    0.0000 C   0  0  0  0  0  0  0  0  0  0  0  0
   -4.1583   -1.2542    0.0000 C   0  0  0  0  0  0  0  0  0  0  0  0
   -2.6958   -1.4792    0.0000 O   0  0  0  0  0  0  0  0  0  0  0  0
   -4.2500   -0.2542    0.0000 O   0  0  0  0  0  0  0  0  0  0  0  0
   -0.4708    1.9833    0.0000 O   0  0  0  0  0  0  0  0  0  0  0  0
   -1.3500    1.6458    0.0000 O   0  0  0  0  0  0  0  0  0  0  0  0
   -3.3625    0.1500    0.0000 C   0  0  0  0  0  0  0  0  0  0  0  0
   -2.5208    0.6000    0.0000 C   0  0  0  0  0  0  0  0  0  0  0  0
   -3.0708    0.6208    0.0000 C   0  0  0  0  0  0  0  0  0  0  0  0
    0.4500   -0.4167    0.0000 C   0  0  0  0  0  0  0  0  0  0  0  0
    0.9167    0.3833    0.0000 C   0  0  0  0  0  0  0  0  0  0  0  0
   -1.5333    2.1333    0.0000 C   0  0  0  0  0  0  0  0  0  0  0  0
   -2.0958    2.2333    0.0000 C   0  0  0  0  0  0  0  0  0  0  0  0
    0.9042   -0.7042    0.0000 C   0  0  0  0  0  0  0  0  0  0  0  0
    1.4000    0.1125    0.0000 C   0  0  0  0  0  0  0  0  0  0  0  0
    1.4000   -0.4042    0.0000 C   0  0  0  0  0  0  0  0  0  0  0  0
  2  1  2  0  0  0  0
  3  1  1  0  0  0  0
  4  7  1  0  0  0  0
  5  3  1  0  0  0  0
  6  2  1  0  0  0  0
  7 13  2  0  0  0  0
  8  2  1  0  0  0  0
  9  4  1  0  0  0  0
 10  4  1  0  0  0  0
 11  8  1  0  0  0  0
 12  1  1  0  0  0  0
 13 14  1  0  0  0  0
 14 11  1  0  0  0  0
 15  5  1  0  0  0  0
 16 11  2  0  0  0  0
 17  9  1  0  0  0  0
 18 10  1  0  0  0  0
 19  9  2  0  0  0  0
 20 10  2  0  0  0  0
 21 12  2  0  0  0  0
 22 12  1  0  0  0  0
 23 25  2  0  0  0  0
 24 14  2  0  0  0  0
 25 24  1  0  0  0  0
 26 15  1  0  0  0  0
 27 15  2  0  0  0  0
 28 22  1  0  0  0  0
 29 28  1  0  0  0  0
 30 26  2  0  0  0  0
 31 27  1  0  0  0  0
 32 31  2  0  0  0  0
  5  6  2  0  0  0  0
 30 32  1  0  0  0  0
  7 23  1  0  0  0  0
 17 18  1  0  0  0  0
M  END
> <IDNUMBER>
F0466-0061

> <Chemical_Name>
ethyl 3-[3-(2,5-dioxopyrrolidin-1-yl)benzamido]-5-phenylthiophene-2-carboxylate

> <CAS>
391867-84-8

> <PriceCoeff>
1.00

> <MW>
448.49

> <Description>
solid

> <FSP3>
0.17

> <clogP>
3.59

> <TPSA>
121.02

> <Acceptor>
5

> <Donor>
1

> <RotBonds>
7

> <HAC>
32

> <Collection>
General

$$$$
F3292-0442
  -ISIS-  06222321152D

 26 29  0  0  0  0  0  0  0  0999 V2000
    3.3750   -1.3375    0.0000 C   0  0  0  0  0  0  0  0  0  0  0  0
    2.6542   -1.7500    0.0000 C   0  0  3  0  0  0  0  0  0  0  0  0
    3.3667   -0.5042    0.0000 C   0  0  0  0  0  0  0  0  0  0  0  0
    4.0875   -0.0917    0.0000 C   0  0  0  0  0  0  0  0  0  0  0  0
    4.0875   -1.7542    0.0000 C   0  0  0  0  0  0  0  0  0  0  0  0
    1.9417   -1.3292    0.0000 C   0  0  0  0  0  0  0  0  0  0  0  0
    2.6542   -2.5750    0.0000 N   0  0  3  0  0  0  0  0  0  0  0  0
    4.8042   -0.5042    0.0000 C   0  0  0  0  0  0  0  0  0  0  0  0
    1.2250   -1.7417    0.0000 C   0  0  0  0  0  0  0  0  0  0  0  0
    4.8042   -1.3375    0.0000 C   0  0  0  0  0  0  0  0  0  0  0  0
    4.2542    0.7208    0.0000 O   0  0  0  0  0  0  0  0  0  0  0  0
    5.4167    0.0458    0.0000 O   0  0  0  0  0  0  0  0  0  0  0  0
    0.5042   -1.3250    0.0000 C   0  0  0  0  0  0  0  0  0  0  0  0
    4.0917   -2.5792    0.0000 C   0  0  0  0  0  0  0  0  0  0  0  0
    5.0792    0.8000    0.0000 C   0  0  0  0  0  0  0  0  0  0  0  0
    3.3667   -2.9875    0.0000 C   0  0  0  0  0  0  0  0  0  0  0  0
    1.2250   -2.5750    0.0000 O   0  0  0  0  0  0  0  0  0  0  0  0
    2.6500   -0.0917    0.0000 O   0  0  0  0  0  0  0  0  0  0  0  0
    0.5125   -0.4917    0.0000 C   0  0  0  0  0  0  0  0  0  0  0  0
   -0.2083   -1.7417    0.0000 C   0  0  0  0  0  0  0  0  0  0  0  0
   -0.2083   -0.0792    0.0000 C   0  0  0  0  0  0  0  0  0  0  0  0
   -0.9250   -1.3250    0.0000 C   0  0  0  0  0  0  0  0  0  0  0  0
   -0.9208   -0.4917    0.0000 C   0  0  0  0  0  0  0  0  0  0  0  0
    1.9375   -2.9875    0.0000 C   0  0  0  0  0  0  0  0  0  0  0  0
    2.6500    0.7333    0.0000 C   0  0  0  0  0  0  0  0  0  0  0  0
   -1.6333   -0.0750    0.0000 C   0  0  0  0  0  0  0  0  0  0  0  0
  2  1  1  0  0  0  0
  3  1  2  0  0  0  0
  4  3  1  0  0  0  0
  5  1  1  0  0  0  0
  6  2  1  0  0  0  0
  7  2  1  0  0  0  0
  8 10  1  0  0  0  0
  9  6  1  0  0  0  0
 10  5  2  0  0  0  0
 11  4  1  0  0  0  0
 12  8  1  0  0  0  0
 13  9  1  0  0  0  0
 14  5  1  0  0  0  0
 15 11  1  0  0  0  0
 16 14  1  0  0  0  0
 17  9  2  0  0  0  0
 18  3  1  0  0  0  0
 19 13  2  0  0  0  0
 20 13  1  0  0  0  0
 21 19  1  0  0  0  0
 22 20  2  0  0  0  0
 23 22  1  0  0  0  0
 24  7  1  0  0  0  0
 25 18  1  0  0  0  0
 26 23  1  0  0  0  0
  7 16  1  0  0  0  0
  4  8  2  0  0  0  0
 12 15  1  0  0  0  0
 21 23  2  0  0  0  0
M  END
> <IDNUMBER>
F3292-0442

> <Chemical_Name>
2-{4-methoxy-6-methyl-2H,5H,6H,7H,8H-[1,3]dioxolo[4,5-g]isoquinolin-5-yl}-1-(4-methylphenyl)ethan-1-one

> <CAS>
370841-98-8

> <PriceCoeff>
1.00

> <MW>
353.41

> <Description>
solid

> <FSP3>
0.38

> <clogP>
4.30

> <TPSA>
48.00

> <Acceptor>
4

> <Donor>
1

> <RotBonds>
4

> <HAC>
26

> <Collection>
General

> <Reference_compound>
CHEMBL490533

> <Similarity>
0.8120

$$$$
F1029-0070
  -ISIS-  06222304352D

 30 33  0  0  0  0  0  0  0  0999 V2000
    0.7250   -1.7042    0.0000 N   0  3  0  0  0  0  0  0  0  0  0  0
    1.3917   -2.1667    0.0000 C   0  0  0  0  0  0  0  0  0  0  0  0
    0.9750   -0.9167    0.0000 C   0  0  0  0  0  0  0  0  0  0  0  0
    2.0542   -1.7000    0.0000 C   0  0  0  0  0  0  0  0  0  0  0  0
    1.8000   -0.9167    0.0000 S   0  0  0  0  0  0  0  0  0  0  0  0
   -0.0833   -1.8875    0.0000 C   0  0  0  0  0  0  0  0  0  0  0  0
    0.3875   -0.2792    0.0000 C   0  0  0  0  0  0  0  0  0  0  0  0
    1.4125   -2.9917    0.0000 N   0  0  0  0  0  0  0  0  0  0  0  0
    2.8542   -1.9042    0.0000 C   0  0  0  0  0  0  0  0  0  0  0  0
   -0.6583   -1.2875    0.0000 C   0  0  0  0  0  0  0  0  0  0  0  0
   -0.4250   -0.4875    0.0000 C   0  0  0  0  0  0  0  0  0  0  0  0
   -0.3000   -2.6667    0.0000 C   0  0  0  0  0  0  0  0  0  0  0  0
    3.4250   -1.2917    0.0000 C   0  0  0  0  0  0  0  0  0  0  0  0
    3.0917   -2.6875    0.0000 C   0  0  0  0  0  0  0  0  0  0  0  0
   -1.4583   -1.4542    0.0000 C   0  0  0  0  0  0  0  0  0  0  0  0
   -1.1125   -2.8667    0.0000 C   0  0  0  0  0  0  0  0  0  0  0  0
    4.2375   -1.4917    0.0000 C   0  0  0  0  0  0  0  0  0  0  0  0
    3.8792   -2.8792    0.0000 C   0  0  0  0  0  0  0  0  0  0  0  0
   -1.7083   -2.2375    0.0000 C   0  0  0  0  0  0  0  0  0  0  0  0
    4.4792   -2.2750    0.0000 C   0  0  0  0  0  0  0  0  0  0  0  0
    8.6292   -1.7083    0.0000 S   0  0  3  0  0  0  0  0  0  0  0  0
    9.5709   -1.6875    0.0000 O   0  5  0  0  0  0  0  0  0  0  0  0
    8.6292   -2.6250    0.0000 O   0  0  0  0  0  0  0  0  0  0  0  0
    8.5917   -0.7583    0.0000 O   0  0  0  0  0  0  0  0  0  0  0  0
    7.6709   -1.7083    0.0000 C   0  0  0  0  0  0  0  0  0  0  0  0
    7.1584   -0.9250    0.0000 C   0  0  0  0  0  0  0  0  0  0  0  0
    7.2292   -2.5458    0.0000 C   0  0  0  0  0  0  0  0  0  0  0  0
    6.2209   -0.9458    0.0000 C   0  0  0  0  0  0  0  0  0  0  0  0
    6.2917   -2.5625    0.0000 C   0  0  0  0  0  0  0  0  0  0  0  0
    5.7709   -1.7625    0.0000 C   0  0  0  0  0  0  0  0  0  0  0  0
 12  6  1  0  0  0  0
 13  9  1  0  0  0  0
 14  9  2  0  0  0  0
 15 10  1  0  0  0  0
 16 12  2  0  0  0  0
 17 13  2  0  0  0  0
 18 14  1  0  0  0  0
 19 16  1  0  0  0  0
 20 18  2  0  0  0  0
  5  4  1  0  0  0  0
 11  7  2  0  0  0  0
 19 15  2  0  0  0  0
 17 20  1  0  0  0  0
  2  1  1  0  0  0  0
  3  1  2  0  0  0  0
  4  2  2  0  0  0  0
  5  3  1  0  0  0  0
  6  1  1  0  0  0  0
  7  3  1  0  0  0  0
  8  2  1  0  0  0  0
  9  4  1  0  0  0  0
 10  6  2  0  0  0  0
 11 10  1  0  0  0  0
 22 21  1  0  0  0  0
 23 21  2  0  0  0  0
 24 21  2  0  0  0  0
 25 21  1  0  0  0  0
 26 25  2  0  0  0  0
 27 25  1  0  0  0  0
 28 26  1  0  0  0  0
 29 27  2  0  0  0  0
 30 29  1  0  0  0  0
 28 30  2  0  0  0  0
M  CHG  2   1   1  22  -1
M  END
> <IDNUMBER>
F1029-0070

> <Chemical_Name>
1-amino-2-phenyl-10alambda5-[1,3]thiazolo[3,2-a]quinolin-10a-ylium benzenesulfonate

> <CAS>


> <PriceCoeff>
1.00

> <MW>
277.36

> <Description>
solid

> <FSP3>
0.00

> <clogP>
0.54

> <TPSA>
58.36

> <Acceptor>
0

> <Donor>
1

> <RotBonds>
1

> <HAC>
20

> <Collection>
General

> <Reference_compound>
PRI5741

> <Similarity>
1.0000

$$$$
F0327-0350
  -ISIS-  06222321452D

 32 35  0  0  0  0  0  0  0  0999 V2000
   -1.9125    0.6125    0.0000 C   0  0  0  0  0  0  0  0  0  0  0  0
   -0.5708    0.1708    0.0000 C   0  0  0  0  0  0  0  0  0  0  0  0
   -1.9125   -0.2875    0.0000 C   0  0  0  0  0  0  0  0  0  0  0  0
   -1.0833   -0.5375    0.0000 N   0  0  0  0  0  0  0  0  0  0  0  0
    4.2500   -0.5875    0.0000 N   0  0  3  0  0  0  0  0  0  0  0  0
   -1.0708    0.8708    0.0000 S   0  0  0  0  0  0  0  0  0  0  0  0
    0.2875    0.1708    0.0000 N   0  0  0  0  0  0  0  0  0  0  0  0
    0.7292   -0.5875    0.0000 C   0  0  0  0  0  0  0  0  0  0  0  0
    4.7375   -1.3042    0.0000 C   0  0  0  0  0  0  0  0  0  0  0  0
    4.7500    0.0708    0.0000 C   0  0  0  0  0  0  0  0  0  0  0  0
   -2.6000    1.1458    0.0000 C   0  0  0  0  0  0  0  0  0  0  0  0
    3.3667   -0.5875    0.0000 C   0  0  0  0  0  0  0  0  0  0  0  0
    1.6042   -0.5875    0.0000 C   0  0  0  0  0  0  0  0  0  0  0  0
   -2.5958   -0.8167    0.0000 C   0  0  0  0  0  0  0  0  0  0  0  0
    0.2875   -1.3500    0.0000 O   0  0  0  0  0  0  0  0  0  0  0  0
    5.5875   -1.0542    0.0000 C   0  0  0  0  0  0  0  0  0  0  0  0
    5.5792   -0.1875    0.0000 C   0  0  0  0  0  0  0  0  0  0  0  0
    4.4292   -2.1292    0.0000 O   0  0  0  0  0  0  0  0  0  0  0  0
    4.4542    0.9208    0.0000 O   0  0  0  0  0  0  0  0  0  0  0  0
   -3.4208    0.8333    0.0000 O   0  0  0  0  0  0  0  0  0  0  0  0
    2.9292   -1.3500    0.0000 C   0  0  0  0  0  0  0  0  0  0  0  0
    2.9292    0.1708    0.0000 C   0  0  0  0  0  0  0  0  0  0  0  0
    2.0500   -1.3500    0.0000 C   0  0  0  0  0  0  0  0  0  0  0  0
    2.0500    0.1708    0.0000 C   0  0  0  0  0  0  0  0  0  0  0  0
   -2.4708    1.9958    0.0000 O   0  0  0  0  0  0  0  0  0  0  0  0
   -2.4708   -1.7000    0.0000 C   0  0  0  0  0  0  0  0  0  0  0  0
   -3.4125   -0.4875    0.0000 C   0  0  0  0  0  0  0  0  0  0  0  0
   -3.1625    2.5458    0.0000 C   0  0  0  0  0  0  0  0  0  0  0  0
   -3.0208    3.4208    0.0000 C   0  0  0  0  0  0  0  0  0  0  0  0
   -3.1625   -2.2375    0.0000 C   0  0  0  0  0  0  0  0  0  0  0  0
   -4.1125   -1.0292    0.0000 C   0  0  0  0  0  0  0  0  0  0  0  0
   -3.9958   -1.9042    0.0000 C   0  0  0  0  0  0  0  0  0  0  0  0
  2  6  1  0  0  0  0
  3  1  2  0  0  0  0
  4  3  1  0  0  0  0
  5 12  1  0  0  0  0
  6  1  1  0  0  0  0
  7  2  1  0  0  0  0
  8  7  1  0  0  0  0
  9  5  1  0  0  0  0
 10  5  1  0  0  0  0
 11  1  1  0  0  0  0
 12 22  1  0  0  0  0
 13  8  1  0  0  0  0
 14  3  1  0  0  0  0
 15  8  2  0  0  0  0
 16  9  1  0  0  0  0
 17 10  1  0  0  0  0
 18  9  2  0  0  0  0
 19 10  2  0  0  0  0
 20 11  2  0  0  0  0
 21 23  1  0  0  0  0
 22 24  2  0  0  0  0
 23 13  2  0  0  0  0
 24 13  1  0  0  0  0
 25 11  1  0  0  0  0
 26 14  1  0  0  0  0
 27 14  2  0  0  0  0
 28 25  1  0  0  0  0
 29 28  1  0  0  0  0
 30 26  2  0  0  0  0
 31 27  1  0  0  0  0
 32 31  2  0  0  0  0
  2  4  2  0  0  0  0
 32 30  1  0  0  0  0
 12 21  2  0  0  0  0
 17 16  1  0  0  0  0
M  END
> <IDNUMBER>
F0327-0350

> <Chemical_Name>
ethyl 2-[4-(2,5-dioxopyrrolidin-1-yl)benzamido]-4-phenyl-1,3-thiazole-5-carboxylate

> <CAS>
329906-10-7

> <PriceCoeff>
1.00

> <MW>
449.48

> <Description>
solid

> <FSP3>
0.17

> <clogP>
2.76

> <TPSA>
133.91

> <Acceptor>
6

> <Donor>
1

> <RotBonds>
7

> <HAC>
32

> <Collection>
General

$$$$
F2607-0311
  -ISIS-  06222321442D

 33 37  0  0  0  0  0  0  0  0999 V2000
   -0.0083    2.6708    0.0000 C   0  0  0  0  0  0  0  0  0  0  0  0
   -5.8708    5.0917    0.0000 N   0  0  3  0  0  0  0  0  0  0  0  0
   -0.2625    1.8833    0.0000 N   0  0  0  0  0  0  0  0  0  0  0  0
   -0.6750    3.1583    0.0000 S   0  0  0  0  0  0  0  0  0  0  0  0
    0.7792    2.9208    0.0000 N   0  0  3  0  0  0  0  0  0  0  0  0
   -5.6208    4.3042    0.0000 C   0  0  0  0  0  0  0  0  0  0  0  0
   -1.3375    2.6708    0.0000 C   0  0  0  0  0  0  0  0  0  0  0  0
   -5.3583    5.7292    0.0000 C   0  0  0  0  0  0  0  0  0  0  0  0
   -6.6375    5.3750    0.0000 C   0  0  0  0  0  0  0  0  0  0  0  0
   -3.7583    3.1875    0.0000 C   0  0  0  0  0  0  0  0  0  0  0  0
   -1.0875    1.8833    0.0000 C   0  0  0  0  0  0  0  0  0  0  0  0
   -4.8125    4.1292    0.0000 C   0  0  0  0  0  0  0  0  0  0  0  0
   -4.5583    3.3583    0.0000 C   0  0  0  0  0  0  0  0  0  0  0  0
   -2.1458    2.8458    0.0000 C   0  0  0  0  0  0  0  0  0  0  0  0
   -3.5000    2.4000    0.0000 O   0  0  0  0  0  0  0  0  0  0  0  0
    2.3417    3.4333    0.0000 N   0  0  3  0  0  0  0  0  0  0  0  0
   -2.6958    2.2333    0.0000 C   0  0  0  0  0  0  0  0  0  0  0  0
   -6.6042    6.1917    0.0000 C   0  0  0  0  0  0  0  0  0  0  0  0
   -5.8333    6.4250    0.0000 C   0  0  0  0  0  0  0  0  0  0  0  0
   -3.2000    3.8000    0.0000 O   0  0  0  0  0  0  0  0  0  0  0  0
    1.3875    2.3708    0.0000 C   0  0  0  0  0  0  0  0  0  0  0  0
    0.9500    3.7333    0.0000 C   0  0  0  0  0  0  0  0  0  0  0  0
   -7.3250    4.9292    0.0000 O   0  0  0  0  0  0  0  0  0  0  0  0
   -4.5333    5.6917    0.0000 O   0  0  0  0  0  0  0  0  0  0  0  0
   -1.6333    1.2750    0.0000 C   0  0  0  0  0  0  0  0  0  0  0  0
    2.1667    2.6250    0.0000 C   0  0  0  0  0  0  0  0  0  0  0  0
    1.7292    3.9833    0.0000 C   0  0  0  0  0  0  0  0  0  0  0  0
   -2.4333    1.4458    0.0000 C   0  0  0  0  0  0  0  0  0  0  0  0
   -6.1667    3.7083    0.0000 C   0  0  0  0  0  0  0  0  0  0  0  0
    3.1292    3.6833    0.0000 C   0  0  0  0  0  0  0  0  0  0  0  0
   -5.1125    2.7458    0.0000 C   0  0  0  0  0  0  0  0  0  0  0  0
   -5.9208    2.9208    0.0000 C   0  0  0  0  0  0  0  0  0  0  0  0
    3.7375    3.1333    0.0000 C   0  0  0  0  0  0  0  0  0  0  0  0
  2  6  1  0  0  0  0
  3  1  2  0  0  0  0
  4  1  1  0  0  0  0
  5  1  1  0  0  0  0
  6 12  1  0  0  0  0
  7  4  1  0  0  0  0
  8  2  1  0  0  0  0
  9  2  1  0  0  0  0
 10 15  1  0  0  0  0
 11  3  1  0  0  0  0
 12 13  2  0  0  0  0
 13 10  1  0  0  0  0
 14  7  1  0  0  0  0
 15 17  1  0  0  0  0
 16 27  1  0  0  0  0
 17 14  2  0  0  0  0
 18  9  1  0  0  0  0
 19  8  1  0  0  0  0
 20 10  2  0  0  0  0
 21  5  1  0  0  0  0
 22  5  1  0  0  0  0
 23  9  2  0  0  0  0
 24  8  2  0  0  0  0
 25 11  1  0  0  0  0
 26 21  1  0  0  0  0
 27 22  1  0  0  0  0
 28 25  2  0  0  0  0
 29 32  1  0  0  0  0
 30 16  1  0  0  0  0
 31 13  1  0  0  0  0
 32 31  2  0  0  0  0
 33 30  1  0  0  0  0
  7 11  2  0  0  0  0
 16 26  1  0  0  0  0
 28 17  1  0  0  0  0
  6 29  2  0  0  0  0
 19 18  1  0  0  0  0
M  END
> <IDNUMBER>
F2607-0311

> <Chemical_Name>
2-(4-ethylpiperazin-1-yl)-1,3-benzothiazol-6-yl 3-(2,5-dioxopyrrolidin-1-yl)benzoate

> <CAS>
941995-25-1

> <PriceCoeff>
1.00

> <MW>
464.54

> <Description>
solid

> <FSP3>
0.33

> <clogP>
3.39

> <TPSA>
111.29

> <Acceptor>
6

> <Donor>
2

> <RotBonds>
6

> <HAC>
33

> <Collection>
General

$$$$
F9995-0534
  -ISIS-  06222321162D

 16 17  0  0  0  0  0  0  0  0999 V2000
    0.9625    0.6750    0.0000 C   0  0  0  0  0  0  0  0  0  0  0  0
    1.6625    1.0958    0.0000 C   0  0  0  0  0  0  0  0  0  0  0  0
    0.2292    1.0875    0.0000 C   0  0  0  0  0  0  0  0  0  0  0  0
    0.9625   -0.1542    0.0000 C   0  0  0  0  0  0  0  0  0  0  0  0
    2.3792    0.6875    0.0000 C   0  0  0  0  0  0  0  0  0  0  0  0
    1.6625    1.9083    0.0000 C   0  0  0  0  0  0  0  0  0  0  0  0
    4.5167    1.9208    0.0000 O   0  0  0  0  0  0  0  0  0  0  0  0
    3.8000    2.3333    0.0000 C   0  0  0  0  0  0  0  0  0  0  0  0
    3.0792    1.9083    0.0000 C   0  0  0  0  0  0  0  0  0  0  0  0
   -0.4833   -0.1542    0.0000 C   0  0  0  0  0  0  0  0  0  0  0  0
    2.3667    2.3333    0.0000 C   0  0  0  0  0  0  0  0  0  0  0  0
    3.0917    1.0958    0.0000 C   0  0  0  0  0  0  0  0  0  0  0  0
    0.2292   -0.5625    0.0000 C   0  0  0  0  0  0  0  0  0  0  0  0
   -0.4833    0.6750    0.0000 C   0  0  0  0  0  0  0  0  0  0  0  0
   -1.1875   -0.5625    0.0000 O   0  0  0  0  0  0  0  0  0  0  0  0
   -1.8875   -0.1542    0.0000 C   0  0  0  0  0  0  0  0  0  0  0  0
  2  1  1  0  0  0  0
  3  1  2  0  0  0  0
  4  1  1  0  0  0  0
  5  2  2  0  0  0  0
  6  2  1  0  0  0  0
  7  8  2  0  0  0  0
  8  9  1  0  0  0  0
  9 11  1  0  0  0  0
 10 13  1  0  0  0  0
 11  6  2  0  0  0  0
 12  5  1  0  0  0  0
 13  4  2  0  0  0  0
 14  3  1  0  0  0  0
 15 10  1  0  0  0  0
 16 15  1  0  0  0  0
 10 14  2  0  0  0  0
  9 12  2  0  0  0  0
M  END
> <IDNUMBER>
F9995-0534

> <Chemical_Name>
4'-methoxy-[1,1'-biphenyl]-4-carbaldehyde

> <CAS>
52988-34-8

> <PriceCoeff>
1.00

> <MW>
212.24

> <Description>
solid

> <FSP3>
0.07

> <clogP>
3.37

> <TPSA>
26.30

> <Acceptor>
2

> <Donor>
0

> <RotBonds>
3

> <HAC>
16

> <Collection>
General

> <Reference_compound>
CHEMBL161598

> <Similarity>
0.8310

$$$$
F9995-0540
  -ISIS-  06222321162D

 16 17  0  0  0  0  0  0  0  0999 V2000
    0.3417    0.6208    0.0000 C   0  0  0  0  0  0  0  0  0  0  0  0
    1.0417    1.0333    0.0000 C   0  0  0  0  0  0  0  0  0  0  0  0
   -0.3708    1.0333    0.0000 C   0  0  0  0  0  0  0  0  0  0  0  0
    1.7792    0.6208    0.0000 C   0  0  0  0  0  0  0  0  0  0  0  0
    1.0417    1.8500    0.0000 C   0  0  0  0  0  0  0  0  0  0  0  0
    3.9042    1.8708    0.0000 O   0  0  0  0  0  0  0  0  0  0  0  0
    3.1875    2.2583    0.0000 C   0  0  0  0  0  0  0  0  0  0  0  0
    2.4792    1.8583    0.0000 C   0  0  0  0  0  0  0  0  0  0  0  0
   -1.0833    0.6083    0.0000 C   0  0  0  0  0  0  0  0  0  0  0  0
    1.7542    2.2583    0.0000 C   0  0  0  0  0  0  0  0  0  0  0  0
    2.4875    1.0333    0.0000 C   0  0  0  0  0  0  0  0  0  0  0  0
   -1.8083    1.0208    0.0000 O   0  0  0  0  0  0  0  0  0  0  0  0
    0.3417   -0.2167    0.0000 C   0  0  0  0  0  0  0  0  0  0  0  0
   -0.3708   -0.6292    0.0000 C   0  0  0  0  0  0  0  0  0  0  0  0
   -1.0833   -0.2167    0.0000 C   0  0  0  0  0  0  0  0  0  0  0  0
   -1.8083    1.8375    0.0000 C   0  0  0  0  0  0  0  0  0  0  0  0
  2  1  1  0  0  0  0
  3  1  2  0  0  0  0
  4  2  2  0  0  0  0
  5  2  1  0  0  0  0
  6  7  2  0  0  0  0
  7  8  1  0  0  0  0
  8 10  1  0  0  0  0
  9  3  1  0  0  0  0
 10  5  2  0  0  0  0
 11  4  1  0  0  0  0
 12  9  1  0  0  0  0
 13  1  1  0  0  0  0
 14 13  2  0  0  0  0
 15 14  1  0  0  0  0
 16 12  1  0  0  0  0
 15  9  2  0  0  0  0
  8 11  2  0  0  0  0
M  END
> <IDNUMBER>
F9995-0540

> <Chemical_Name>
3'-methoxy-[1,1'-biphenyl]-4-carbaldehyde

> <CAS>
209863-09-2

> <PriceCoeff>
1.00

> <MW>
212.24

> <Description>
liquid

> <FSP3>
0.07

> <clogP>
3.37

> <TPSA>
26.30

> <Acceptor>
2

> <Donor>
0

> <RotBonds>
3

> <HAC>
16

> <Collection>
General

> <Reference_compound>
CHEMBL22585

> <Similarity>
0.8160

$$$$
F1192-0005
  -ISIS-  06222321142D

 24 27  0  0  0  0  0  0  0  0999 V2000
    1.9917   -1.0375    0.0000 N   0  0  3  0  0  0  0  0  0  0  0  0
    2.4750   -1.7042    0.0000 C   0  0  0  0  0  0  0  0  0  0  0  0
    3.2625   -1.4542    0.0000 C   0  0  3  0  0  0  0  0  0  0  0  0
    2.4750   -0.3667    0.0000 C   0  0  0  0  0  0  0  0  0  0  0  0
    3.9667   -1.8625    0.0000 N   0  0  3  0  0  0  0  0  0  0  0  0
    3.2625   -0.6292    0.0000 C   0  0  0  0  0  0  0  0  0  0  0  0
    1.1667   -1.0375    0.0000 C   0  0  0  0  0  0  0  0  0  0  0  0
    4.6750   -1.4417    0.0000 C   0  0  0  0  0  0  0  0  0  0  0  0
    2.2167   -2.4917    0.0000 O   0  0  0  0  0  0  0  0  0  0  0  0
    2.2167    0.4125    0.0000 O   0  0  0  0  0  0  0  0  0  0  0  0
    0.7542   -1.7542    0.0000 C   0  0  0  0  0  0  0  0  0  0  0  0
    5.3875   -1.8625    0.0000 C   0  0  0  0  0  0  0  0  0  0  0  0
    3.9667   -2.6792    0.0000 C   0  0  0  0  0  0  0  0  0  0  0  0
    1.1667   -2.4667    0.0000 Cl  0  0  0  0  0  0  0  0  0  0  0  0
    4.6750   -0.6250    0.0000 C   0  0  0  0  0  0  0  0  0  0  0  0
    0.7542   -0.3167    0.0000 C   0  0  0  0  0  0  0  0  0  0  0  0
    4.6750   -3.0917    0.0000 C   0  0  0  0  0  0  0  0  0  0  0  0
    5.3875   -2.6792    0.0000 C   0  0  0  0  0  0  0  0  0  0  0  0
    6.1000   -1.4542    0.0000 C   0  0  0  0  0  0  0  0  0  0  0  0
   -0.0708   -1.7500    0.0000 C   0  0  0  0  0  0  0  0  0  0  0  0
    5.3917   -0.2167    0.0000 C   0  0  0  0  0  0  0  0  0  0  0  0
   -0.0708   -0.3167    0.0000 C   0  0  0  0  0  0  0  0  0  0  0  0
    6.1042   -0.6292    0.0000 C   0  0  0  0  0  0  0  0  0  0  0  0
   -0.4833   -1.0292    0.0000 C   0  0  0  0  0  0  0  0  0  0  0  0
  2  1  1  0  0  0  0
  3  2  1  0  0  0  0
  4  1  1  0  0  0  0
  5  3  1  0  0  0  0
  6  4  1  0  0  0  0
  7  1  1  0  0  0  0
  8  5  1  0  0  0  0
  9  2  2  0  0  0  0
 10  4  2  0  0  0  0
 11  7  1  0  0  0  0
 12  8  2  0  0  0  0
 13  5  1  0  0  0  0
 14 11  1  0  0  0  0
 15  8  1  0  0  0  0
 16  7  2  0  0  0  0
 17 13  1  0  0  0  0
 18 17  1  0  0  0  0
 19 12  1  0  0  0  0
 20 11  2  0  0  0  0
 21 15  2  0  0  0  0
 22 16  1  0  0  0  0
 23 21  1  0  0  0  0
 24 22  2  0  0  0  0
  3  6  1  0  0  0  0
 20 24  1  0  0  0  0
 12 18  1  0  0  0  0
 19 23  2  0  0  0  0
M  END
> <IDNUMBER>
F1192-0005

> <Chemical_Name>
1-(2-chlorophenyl)-3-(1,2,3,4-tetrahydroquinolin-1-yl)pyrrolidine-2,5-dione

> <CAS>
290829-45-7

> <PriceCoeff>
1.00

> <MW>
340.80

> <Description>
solid

> <FSP3>
0.26

> <clogP>
4.04

> <TPSA>
40.62

> <Acceptor>
3

> <Donor>
1

> <RotBonds>
2

> <HAC>
24

> <Collection>
General

$$$$
F3023-0450
  -ISIS-  06222321152D

 27 29  0  0  0  0  0  0  0  0999 V2000
    4.0417   -5.0000    0.0000 N   0  0  3  0  0  0  0  0  0  0  0  0
    4.5292   -4.3292    0.0000 C   0  0  0  0  0  0  0  0  0  0  0  0
    4.5375   -5.6667    0.0000 C   0  0  0  0  0  0  0  0  0  0  0  0
    3.2167   -5.0042    0.0000 C   0  0  0  0  0  0  0  0  0  0  0  0
    2.8042   -4.2917    0.0000 C   0  0  0  0  0  0  0  0  0  0  0  0
    5.3167   -5.4042    0.0000 C   0  0  3  0  0  0  0  0  0  0  0  0
    5.3167   -4.5792    0.0000 C   0  0  0  0  0  0  0  0  0  0  0  0
    7.4042   -6.0292    0.0000 C   0  0  0  0  0  0  0  0  0  0  0  0
    5.9875   -5.8875    0.0000 S   0  0  0  0  0  0  0  0  0  0  0  0
    6.7417   -5.5500    0.0000 C   0  0  0  0  0  0  0  0  0  0  0  0
    3.2167   -3.5750    0.0000 C   0  0  0  0  0  0  0  0  0  0  0  0
    7.3250   -6.8542    0.0000 C   0  0  0  0  0  0  0  0  0  0  0  0
    4.2667   -3.5417    0.0000 O   0  0  0  0  0  0  0  0  0  0  0  0
    4.2792   -6.4500    0.0000 O   0  0  0  0  0  0  0  0  0  0  0  0
    3.7500   -3.5667    0.0000 O   0  0  0  0  0  0  0  0  0  0  0  0
    7.9917   -7.3375    0.0000 O   0  0  0  0  0  0  0  0  0  0  0  0
    6.5667   -7.1917    0.0000 O   0  0  0  0  0  0  0  0  0  0  0  0
    2.8042   -2.8625    0.0000 O   0  0  0  0  0  0  0  0  0  0  0  0
    2.8167   -5.7167    0.0000 C   0  0  0  0  0  0  0  0  0  0  0  0
    1.9792   -4.2917    0.0000 C   0  0  0  0  0  0  0  0  0  0  0  0
    8.1625   -5.6917    0.0000 C   0  0  0  0  0  0  0  0  0  0  0  0
    6.8167   -4.7292    0.0000 C   0  0  0  0  0  0  0  0  0  0  0  0
    3.2125   -2.1417    0.0000 C   0  0  0  0  0  0  0  0  0  0  0  0
    1.5750   -5.0125    0.0000 C   0  0  0  0  0  0  0  0  0  0  0  0
    1.9917   -5.7250    0.0000 C   0  0  0  0  0  0  0  0  0  0  0  0
    8.2417   -4.8667    0.0000 C   0  0  0  0  0  0  0  0  0  0  0  0
    7.5667   -4.3917    0.0000 C   0  0  0  0  0  0  0  0  0  0  0  0
  2  1  1  0  0  0  0
  3  1  1  0  0  0  0
  4  1  1  0  0  0  0
  5  4  2  0  0  0  0
  6  3  1  0  0  0  0
  7  2  1  0  0  0  0
  8 10  2  0  0  0  0
  9  6  1  0  0  0  0
 10  9  1  0  0  0  0
 11  5  1  0  0  0  0
 12  8  1  0  0  0  0
 13  2  2  0  0  0  0
 14  3  2  0  0  0  0
 15 11  2  0  0  0  0
 16 12  2  0  0  0  0
 17 12  1  0  0  0  0
 18 11  1  0  0  0  0
 19  4  1  0  0  0  0
 20  5  1  0  0  0  0
 21  8  1  0  0  0  0
 22 10  1  0  0  0  0
 23 18  1  0  0  0  0
 24 25  1  0  0  0  0
 25 19  2  0  0  0  0
 26 27  1  0  0  0  0
 27 22  2  0  0  0  0
  7  6  1  0  0  0  0
 24 20  2  0  0  0  0
 26 21  2  0  0  0  0
M  END
> <IDNUMBER>
F3023-0450

> <Chemical_Name>
2-({1-[2-(methoxycarbonyl)phenyl]-2,5-dioxopyrrolidin-3-yl}sulfanyl)benzoic acid

> <CAS>
924865-44-1

> <PriceCoeff>
1.00

> <MW>
385.39

> <Description>
solid

> <FSP3>
0.16

> <clogP>
2.55

> <TPSA>
126.28

> <Acceptor>
6

> <Donor>
0

> <RotBonds>
6

> <HAC>
27

> <Collection>
General

$$$$
F1298-0241
  -ISIS-  06222321442D

 35 38  0  0  0  0  0  0  0  0999 V2000
    2.0042   -0.8417    0.0000 C   0  0  0  0  0  0  0  0  0  0  0  0
    1.5167   -0.1750    0.0000 C   0  0  0  0  0  0  0  0  0  0  0  0
    0.7375   -1.2542    0.0000 C   0  0  0  0  0  0  0  0  0  0  0  0
    0.7292   -0.4375    0.0000 C   0  0  0  0  0  0  0  0  0  0  0  0
    1.5167   -1.5167    0.0000 S   0  0  0  0  0  0  0  0  0  0  0  0
    6.5417   -1.5542    0.0000 N   0  0  3  0  0  0  0  0  0  0  0  0
    2.8292   -0.8417    0.0000 N   0  0  0  0  0  0  0  0  0  0  0  0
   -0.6958   -1.2667    0.0000 N   0  0  3  0  0  0  0  0  0  0  0  0
   -1.4208   -1.6792    0.0000 C   0  0  0  0  0  0  0  0  0  0  0  0
    3.2417   -1.5542    0.0000 C   0  0  0  0  0  0  0  0  0  0  0  0
    7.0625   -2.1917    0.0000 C   0  0  0  0  0  0  0  0  0  0  0  0
    7.0042   -0.8667    0.0000 C   0  0  0  0  0  0  0  0  0  0  0  0
    1.7667    0.6083    0.0000 C   0  0  0  0  0  0  0  0  0  0  0  0
    0.0125   -1.6792    0.0000 C   0  0  0  0  0  0  0  0  0  0  0  0
    0.0125   -0.0167    0.0000 C   0  0  0  0  0  0  0  0  0  0  0  0
    5.7250   -1.5542    0.0000 C   0  0  0  0  0  0  0  0  0  0  0  0
    4.0667   -1.5542    0.0000 C   0  0  0  0  0  0  0  0  0  0  0  0
   -0.6958   -0.4375    0.0000 C   0  0  0  0  0  0  0  0  0  0  0  0
   -1.4208   -2.5042    0.0000 O   0  0  0  0  0  0  0  0  0  0  0  0
    2.8375   -2.2667    0.0000 O   0  0  0  0  0  0  0  0  0  0  0  0
    7.8250   -1.9042    0.0000 C   0  0  0  0  0  0  0  0  0  0  0  0
    7.8000   -1.0917    0.0000 C   0  0  0  0  0  0  0  0  0  0  0  0
    6.8417   -2.9875    0.0000 O   0  0  0  0  0  0  0  0  0  0  0  0
    6.7167   -0.0792    0.0000 O   0  0  0  0  0  0  0  0  0  0  0  0
    1.2042    1.2125    0.0000 O   0  0  0  0  0  0  0  0  0  0  0  0
    5.3042   -0.8375    0.0000 C   0  0  0  0  0  0  0  0  0  0  0  0
    5.3042   -2.2625    0.0000 C   0  0  0  0  0  0  0  0  0  0  0  0
    4.4792   -2.2625    0.0000 C   0  0  0  0  0  0  0  0  0  0  0  0
    4.4792   -0.8375    0.0000 C   0  0  0  0  0  0  0  0  0  0  0  0
   -2.1333   -1.2667    0.0000 O   0  0  0  0  0  0  0  0  0  0  0  0
    2.5875    0.7833    0.0000 O   0  0  0  0  0  0  0  0  0  0  0  0
   -2.1375   -0.4375    0.0000 C   0  0  0  0  0  0  0  0  0  0  0  0
    3.1417    0.1708    0.0000 C   0  0  0  0  0  0  0  0  0  0  0  0
    3.9542    0.3458    0.0000 C   0  0  0  0  0  0  0  0  0  0  0  0
   -2.8458   -0.0250    0.0000 C   0  0  0  0  0  0  0  0  0  0  0  0
  2  1  2  0  0  0  0
  3  5  1  0  0  0  0
  4  2  1  0  0  0  0
  5  1  1  0  0  0  0
  6 16  1  0  0  0  0
  7  1  1  0  0  0  0
  8 14  1  0  0  0  0
  9  8  1  0  0  0  0
 10  7  1  0  0  0  0
 11  6  1  0  0  0  0
 12  6  1  0  0  0  0
 13  2  1  0  0  0  0
 14  3  1  0  0  0  0
 15  4  1  0  0  0  0
 16 26  1  0  0  0  0
 17 10  1  0  0  0  0
 18 15  1  0  0  0  0
 19  9  2  0  0  0  0
 20 10  2  0  0  0  0
 21 11  1  0  0  0  0
 22 12  1  0  0  0  0
 23 11  2  0  0  0  0
 24 12  2  0  0  0  0
 25 13  2  0  0  0  0
 26 29  2  0  0  0  0
 27 28  1  0  0  0  0
 28 17  2  0  0  0  0
 29 17  1  0  0  0  0
 30  9  1  0  0  0  0
 31 13  1  0  0  0  0
 32 30  1  0  0  0  0
 33 31  1  0  0  0  0
 34 33  1  0  0  0  0
 35 32  1  0  0  0  0
  3  4  2  0  0  0  0
  8 18  1  0  0  0  0
 16 27  2  0  0  0  0
 22 21  1  0  0  0  0
M  END
> <IDNUMBER>
F1298-0241

> <Chemical_Name>
3,6-diethyl 2-[4-(2,5-dioxopyrrolidin-1-yl)benzamido]-4H,5H,6H,7H-thieno[2,3-c]pyridine-3,6-dicarboxylate

> <CAS>
864926-56-7

> <PriceCoeff>
1.00

> <MW>
499.54

> <Description>
solid

> <FSP3>
0.38

> <clogP>
2.37

> <TPSA>
150.56

> <Acceptor>
7

> <Donor>
1

> <RotBonds>
9

> <HAC>
35

> <Collection>
General

$$$$
F2018-1842
  -ISIS-  06222304352D

 35 37  0  0  0  0  0  0  0  0999 V2000
   -3.8708    2.9833    0.0000 C   0  0  0  0  0  0  0  0  0  0  0  0
   -3.1583    2.5625    0.0000 N   0  0  3  0  0  0  0  0  0  0  0  0
   -4.6250    2.6458    0.0000 N   0  0  0  0  0  0  0  0  0  0  0  0
   -1.0125    0.4958    0.0000 N   0  0  3  0  0  0  0  0  0  0  0  0
   -3.9583    3.8000    0.0000 S   0  0  0  0  0  0  0  0  0  0  0  0
   -2.4458    2.9833    0.0000 C   0  0  0  0  0  0  0  0  0  0  0  0
   -5.1833    3.2583    0.0000 C   0  0  0  0  0  0  0  0  0  0  0  0
   -4.7708    3.9708    0.0000 C   0  0  0  0  0  0  0  0  0  0  0  0
   -1.0125    1.3333    0.0000 C   0  0  0  0  0  0  0  0  0  0  0  0
   -0.3708   -0.0167    0.0000 C   0  0  0  0  0  0  0  0  0  0  0  0
   -1.7083    0.0458    0.0000 C   0  0  0  0  0  0  0  0  0  0  0  0
   -1.7333    2.5625    0.0000 C   0  0  0  0  0  0  0  0  0  0  0  0
   -5.9958    3.2500    0.0000 C   0  0  0  0  0  0  0  0  0  0  0  0
   -5.1750    4.6667    0.0000 C   0  0  0  0  0  0  0  0  0  0  0  0
   -1.7250    1.7458    0.0000 C   0  0  0  0  0  0  0  0  0  0  0  0
   -3.1583    1.7375    0.0000 C   0  0  0  0  0  0  0  0  0  0  0  0
   -6.4000    3.9625    0.0000 C   0  0  0  0  0  0  0  0  0  0  0  0
   -6.0000    4.6667    0.0000 C   0  0  0  0  0  0  0  0  0  0  0  0
   -2.4458    3.8000    0.0000 O   0  0  0  0  0  0  0  0  0  0  0  0
   -0.6500   -0.7917    0.0000 C   0  0  0  0  0  0  0  0  0  0  0  0
   -1.4750   -0.7667    0.0000 C   0  0  0  0  0  0  0  0  0  0  0  0
    0.4250    0.1958    0.0000 O   0  0  0  0  0  0  0  0  0  0  0  0
   -2.4750    0.3333    0.0000 O   0  0  0  0  0  0  0  0  0  0  0  0
   -3.8708    1.3250    0.0000 C   0  0  0  0  0  0  0  0  0  0  0  0
   -3.8708    0.5000    0.0000 N   0  0  3  0  0  0  0  0  0  0  0  0
   -7.2292    3.9708    0.0000 O   0  0  0  0  0  0  0  0  0  0  0  0
   -6.4042    5.3917    0.0000 O   0  0  0  0  0  0  0  0  0  0  0  0
   -0.2958    1.7333    0.0000 C   0  0  0  0  0  0  0  0  0  0  0  0
   -1.0083    2.9833    0.0000 C   0  0  0  0  0  0  0  0  0  0  0  0
   -0.2958    2.5625    0.0000 C   0  0  0  0  0  0  0  0  0  0  0  0
   -4.5833    0.0875    0.0000 C   0  0  0  0  0  0  0  0  0  0  0  0
   -3.1583    0.0875    0.0000 C   0  0  0  0  0  0  0  0  0  0  0  0
   -7.2292    5.3917    0.0000 C   0  0  0  0  0  0  0  0  0  0  0  0
   -7.6417    3.2458    0.0000 C   0  0  0  0  0  0  0  0  0  0  0  0
    1.9417    2.4500    0.0000 Cl  0  0  0  0  0  0  0  0  0  0  0  0
  3  1  2  0  0  0  0
  4  9  1  0  0  0  0
  5  1  1  0  0  0  0
  6  2  1  0  0  0  0
  7  3  1  0  0  0  0
  8  5  1  0  0  0  0
  9 15  1  0  0  0  0
 10  4  1  0  0  0  0
 11  4  1  0  0  0  0
 12  6  1  0  0  0  0
 13  7  1  0  0  0  0
 14  8  1  0  0  0  0
 15 12  2  0  0  0  0
 16  2  1  0  0  0  0
 17 13  2  0  0  0  0
 18 14  2  0  0  0  0
 19  6  2  0  0  0  0
 20 10  1  0  0  0  0
 21 11  1  0  0  0  0
 22 10  2  0  0  0  0
 23 11  2  0  0  0  0
 24 16  1  0  0  0  0
 25 24  1  0  0  0  0
 26 17  1  0  0  0  0
 27 18  1  0  0  0  0
 28 30  1  0  0  0  0
 29 12  1  0  0  0  0
 30 29  2  0  0  0  0
 31 25  1  0  0  0  0
 32 25  1  0  0  0  0
 33 27  1  0  0  0  0
 34 26  1  0  0  0  0
  8  7  2  0  0  0  0
 17 18  1  0  0  0  0
  9 28  2  0  0  0  0
 21 20  1  0  0  0  0
  2  1  1  0  0  0  0
M  END
> <IDNUMBER>
F2018-1842

> <Chemical_Name>
N-(5,6-dimethoxy-1,3-benzothiazol-2-yl)-N-[2-(dimethylamino)ethyl]-3-(2,5-dioxopyrrolidin-1-yl)benzamide hydrochloride

> <CAS>
1329882-09-8

> <PriceCoeff>
1.00

> <MW>
482.55

> <Description>
solid

> <FSP3>
0.33

> <clogP>
1.38

> <TPSA>
120.52

> <Acceptor>
6

> <Donor>
1

> <RotBonds>
9

> <HAC>
34

> <Collection>
General

$$$$
F0343-0001
  -ISIS-  06222304342D

 36 39  0  0  0  0  0  0  0  0999 V2000
    4.5042    0.6583    0.0000 C   0  0  0  0  0  0  0  0  0  0  0  0
    4.0042   -0.0167    0.0000 N   0  0  0  0  0  0  0  0  0  0  0  0
    4.0042    1.3333    0.0000 N   0  0  0  0  0  0  0  0  0  0  0  0
    5.3292    0.6583    0.0000 C   0  0  0  0  0  0  0  0  0  0  0  0
    6.9667    0.6500    0.0000 N   0  0  0  0  0  0  0  0  0  0  0  0
    5.7292   -0.0625    0.0000 C   0  0  0  0  0  0  0  0  0  0  0  0
    3.2292    0.2458    0.0000 C   0  0  0  0  0  0  0  0  0  0  0  0
    3.2292    1.0708    0.0000 C   0  0  0  0  0  0  0  0  0  0  0  0
    6.5500   -0.0667    0.0000 C   0  0  0  0  0  0  0  0  0  0  0  0
    5.7417    1.3708    0.0000 C   0  0  0  0  0  0  0  0  0  0  0  0
    6.5667    1.3708    0.0000 C   0  0  0  0  0  0  0  0  0  0  0  0
    5.3125   -0.7792    0.0000 C   0  0  0  0  0  0  0  0  0  0  0  0
    6.9417   -0.8000    0.0000 C   0  0  0  0  0  0  0  0  0  0  0  0
    2.4917   -0.1750    0.0000 C   0  0  0  0  0  0  0  0  0  0  0  0
    2.4917    1.4958    0.0000 C   0  0  0  0  0  0  0  0  0  0  0  0
    6.9792    2.0833    0.0000 C   0  0  0  0  0  0  0  0  0  0  0  0
    5.7042   -1.5000    0.0000 C   0  0  0  0  0  0  0  0  0  0  0  0
    6.5292   -1.5167    0.0000 C   0  0  0  0  0  0  0  0  0  0  0  0
    1.7667    1.0708    0.0000 C   0  0  0  0  0  0  0  0  0  0  0  0
    1.7667    0.2458    0.0000 C   0  0  0  0  0  0  0  0  0  0  0  0
    9.9875    0.8916    0.0000 C   0  0  0  0  0  0  0  0  0  0  0  0
    9.8208   -0.5042    0.0000 C   0  0  0  0  0  0  0  0  0  0  0  0
    9.5083    0.2416    0.0000 C   0  0  0  0  0  0  0  0  0  0  0  0
    9.6500    1.6666    0.0000 N   0  3  0  0  0  0  0  0  0  0  0  0
    9.3000   -1.1834    0.0000 N   0  3  0  0  0  0  0  0  0  0  0  0
   11.9625   -0.0334    0.0000 N   0  3  0  0  0  0  0  0  0  0  0  0
   11.1375    0.0541    0.0000 C   0  0  0  0  0  0  0  0  0  0  0  0
   10.6458   -0.6334    0.0000 C   0  0  0  0  0  0  0  0  0  0  0  0
   10.8125    0.7916    0.0000 C   0  0  0  0  0  0  0  0  0  0  0  0
    8.4916   -1.0667    0.0000 O   0  5  0  0  0  0  0  0  0  0  0  0
   10.1458    2.3208    0.0000 O   0  5  0  0  0  0  0  0  0  0  0  0
   12.3125   -0.7709    0.0000 O   0  5  0  0  0  0  0  0  0  0  0  0
    8.8500    1.7416    0.0000 O   0  0  0  0  0  0  0  0  0  0  0  0
    9.6250   -1.9459    0.0000 O   0  0  0  0  0  0  0  0  0  0  0  0
   12.4375    0.6541    0.0000 O   0  0  0  0  0  0  0  0  0  0  0  0
    8.6791    0.3416    0.0000 O   0  0  0  0  0  0  0  0  0  0  0  0
 18 17  1  0  0  0  0
 19 15  2  0  0  0  0
 20 14  2  0  0  0  0
  8  7  2  0  0  0  0
  5  9  2  0  0  0  0
 20 19  1  0  0  0  0
 18 13  2  0  0  0  0
  2  1  2  0  0  0  0
  3  1  1  0  0  0  0
  4  1  1  0  0  0  0
  5 11  1  0  0  0  0
  6  4  2  0  0  0  0
  7  2  1  0  0  0  0
  8  3  1  0  0  0  0
  9  6  1  0  0  0  0
 10  4  1  0  0  0  0
 11 10  2  0  0  0  0
 12  6  1  0  0  0  0
 13  9  1  0  0  0  0
 14  7  1  0  0  0  0
 15  8  1  0  0  0  0
 16 11  1  0  0  0  0
 17 12  2  0  0  0  0
 22 23  2  0  0  0  0
 23 21  1  0  0  0  0
 24 21  1  0  0  0  0
 25 22  1  0  0  0  0
 26 27  1  0  0  0  0
 27 29  1  0  0  0  0
 28 27  2  0  0  0  0
 29 21  2  0  0  0  0
 30 25  1  0  0  0  0
 31 24  1  0  0  0  0
 32 26  1  0  0  0  0
 33 24  2  0  0  0  0
 34 25  2  0  0  0  0
 35 26  2  0  0  0  0
 36 23  1  0  0  0  0
 22 28  1  0  0  0  0
M  CHG  6  24   1  25   1  26   1  30  -1  31  -1  32  -1
M  END
> <IDNUMBER>
F0343-0001

> <Chemical_Name>
2,4,6-trinitrophenol; 4-(1H-1,3-benzodiazol-2-yl)-2-methylquinoline

> <CAS>
77692-12-7

> <PriceCoeff>
1.00

> <MW>
259.31

> <Description>
solid

> <FSP3>
0.06

> <clogP>
4.21

> <TPSA>
41.57

> <Acceptor>
3

> <Donor>
3

> <RotBonds>
1

> <HAC>
20

> <Collection>
General

> <Reference_compound>
CHEMBL1380882

> <Similarity>
0.9020

$$$$
F1457-0041
  -ISIS-  06222321142D

 27 29  0  0  0  0  0  0  0  0999 V2000
    5.0292   -1.4375    0.0000 N   0  0  3  0  0  0  0  0  0  0  0  0
    5.5167    0.5083    0.0000 C   0  0  0  0  0  0  0  0  0  0  0  0
    2.9167   -4.1292    0.0000 C   0  0  0  0  0  0  0  0  0  0  0  0
    3.1875   -2.1667    0.0000 C   0  0  0  0  0  0  0  0  0  0  0  0
    6.7167   -2.5125    0.0000 C   0  0  0  0  0  0  0  0  0  0  0  0
    2.9042   -6.1250    0.0000 N   0  3  0  0  0  0  0  0  0  0  0  0
    8.2667   -1.2375    0.0000 C   0  0  3  0  0  0  0  0  0  0  0  0
    7.5292    0.6250    0.0000 C   0  0  0  0  0  0  0  0  0  0  0  0
   10.7292   -3.6667    0.0000 C   0  0  0  0  0  0  0  0  0  0  0  0
   12.6542   -4.1625    0.0000 C   0  0  0  0  0  0  0  0  0  0  0  0
   10.1917   -1.7375    0.0000 S   0  0  0  0  0  0  0  0  0  0  0  0
   14.0542   -2.7292    0.0000 C   0  0  0  0  0  0  0  0  0  0  0  0
    1.6375   -0.9417    0.0000 C   0  0  0  0  0  0  0  0  0  0  0  0
    9.3167   -5.0875    0.0000 N   0  0  0  0  0  0  0  0  0  0  0  0
    1.0792   -4.8792    0.0000 C   0  0  0  0  0  0  0  0  0  0  0  0
    1.1667   -7.1042    0.0000 O   0  5  0  0  0  0  0  0  0  0  0  0
    4.2417    2.0458    0.0000 O   0  0  0  0  0  0  0  0  0  0  0  0
    4.6167   -7.1292    0.0000 O   0  0  0  0  0  0  0  0  0  0  0  0
    6.8292   -4.5042    0.0000 O   0  0  0  0  0  0  0  0  0  0  0  0
   13.5125   -0.8042    0.0000 O   0  0  0  0  0  0  0  0  0  0  0  0
   16.0000   -3.2292    0.0000 O   0  0  0  0  0  0  0  0  0  0  0  0
   -0.2083   -1.6792    0.0000 C   0  0  0  0  0  0  0  0  0  0  0  0
   -0.4958   -3.6417    0.0000 C   0  0  0  0  0  0  0  0  0  0  0  0
   13.2000   -6.0875    0.0000 C   0  0  0  0  0  0  0  0  0  0  0  0
    9.8500   -7.0167    0.0000 C   0  0  0  0  0  0  0  0  0  0  0  0
   -2.3375   -4.3792    0.0000 C   0  0  0  0  0  0  0  0  0  0  0  0
   11.7917   -7.5250    0.0000 C   0  0  0  0  0  0  0  0  0  0  0  0
  2  1  1  0  0  0  0
  3  4  1  0  0  0  0
  4  1  1  0  0  0  0
  5  1  1  0  0  0  0
  6  3  1  0  0  0  0
  7  5  1  0  0  0  0
  8  2  1  0  0  0  0
  9 11  1  0  0  0  0
 10  9  1  0  0  0  0
 11  7  1  0  0  0  0
 12 10  1  0  0  0  0
 13  4  2  0  0  0  0
 14  9  2  0  0  0  0
 15  3  2  0  0  0  0
 16  6  1  0  0  0  0
 17  2  2  0  0  0  0
 18  6  2  0  0  0  0
 19  5  2  0  0  0  0
 20 12  2  0  0  0  0
 21 12  1  0  0  0  0
 22 13  1  0  0  0  0
 23 22  2  0  0  0  0
 24 10  2  0  0  0  0
 25 14  1  0  0  0  0
 26 23  1  0  0  0  0
 27 25  2  0  0  0  0
  7  8  1  0  0  0  0
 15 23  1  0  0  0  0
 24 27  1  0  0  0  0
M  CHG  2   6   1  16  -1
M  END
> <IDNUMBER>
F1457-0041

> <Chemical_Name>
2-{[1-(4-methyl-2-nitrophenyl)-2,5-dioxopyrrolidin-3-yl]sulfanyl}pyridine-3-carboxylic acid

> <CAS>
643746-45-6

> <PriceCoeff>
1.00

> <MW>
387.37

> <Description>
solid

> <FSP3>
0.18

> <clogP>
2.35

> <TPSA>
156.01

> <Acceptor>
7

> <Donor>
1

> <RotBonds>
5

> <HAC>
27

> <Collection>
General

$$$$
F2211-0016
  -ISIS-  06222321142D

 22 24  0  0  0  0  0  0  0  0999 V2000
    6.3042   -8.2292    0.0000 C   0  0  0  0  0  0  0  0  0  0  0  0
    6.3000   -9.0542    0.0000 C   0  0  0  0  0  0  0  0  0  0  0  0
    4.8667   -9.0500    0.0000 C   0  0  0  0  0  0  0  0  0  0  0  0
    5.5792   -9.4625    0.0000 C   0  0  0  0  0  0  0  0  0  0  0  0
    5.5875   -7.8125    0.0000 O   0  0  0  0  0  0  0  0  0  0  0  0
    4.8750   -8.2250    0.0000 C   0  0  0  0  0  0  0  0  0  0  0  0
    7.0167   -7.8167    0.0000 C   0  0  0  0  0  0  0  0  0  0  0  0
    4.1625   -9.4625    0.0000 C   0  0  0  0  0  0  0  0  0  0  0  0
    9.1625   -6.5875    0.0000 C   0  0  3  0  0  0  0  0  0  0  0  0
    8.4417   -7.0000    0.0000 C   0  0  0  0  0  0  0  0  0  0  0  0
    5.5792  -10.2875    0.0000 O   0  0  0  0  0  0  0  0  0  0  0  0
    4.1625   -7.8125    0.0000 C   0  0  0  0  0  0  0  0  0  0  0  0
    7.7292   -8.2292    0.0000 C   0  0  0  0  0  0  0  0  0  0  0  0
    7.0167   -6.9917    0.0000 C   0  0  0  0  0  0  0  0  0  0  0  0
    7.7292   -6.5792    0.0000 C   0  0  0  0  0  0  0  0  0  0  0  0
    8.4417   -7.8250    0.0000 C   0  0  0  0  0  0  0  0  0  0  0  0
    3.4417   -9.0542    0.0000 C   0  0  0  0  0  0  0  0  0  0  0  0
    2.7292   -9.4667    0.0000 N   0  0  0  0  0  0  0  0  0  0  0  0
    3.4417   -8.2250    0.0000 C   0  0  0  0  0  0  0  0  0  0  0  0
    9.8750   -6.1667    0.0000 C   0  0  0  0  0  0  0  0  0  0  0  0
    9.5792   -7.3000    0.0000 C   0  0  0  0  0  0  0  0  0  0  0  0
    8.7417   -5.8750    0.0000 C   0  0  0  0  0  0  0  0  0  0  0  0
  2  1  2  0  0  0  0
  3  6  1  0  0  0  0
  4  2  1  0  0  0  0
  5  1  1  0  0  0  0
  6  5  1  0  0  0  0
  7  1  1  0  0  0  0
  8  3  2  0  0  0  0
  9 10  1  0  0  0  0
 10 15  1  0  0  0  0
 11  4  2  0  0  0  0
 12  6  2  0  0  0  0
 13  7  2  0  0  0  0
 14  7  1  0  0  0  0
 15 14  2  0  0  0  0
 16 13  1  0  0  0  0
 17 19  2  0  0  0  0
 18 17  1  0  0  0  0
 19 12  1  0  0  0  0
 20  9  1  0  0  0  0
 21  9  1  0  0  0  0
 22  9  1  0  0  0  0
  4  3  1  0  0  0  0
 10 16  2  0  0  0  0
 17  8  1  0  0  0  0
M  END
> <IDNUMBER>
F2211-0016

> <Chemical_Name>
6-amino-2-(4-tert-butylphenyl)-4H-chromen-4-one

> <CAS>
923163-67-1

> <PriceCoeff>
1.00

> <MW>
293.36

> <Description>
solid

> <FSP3>
0.21

> <clogP>
4.45

> <TPSA>
52.32

> <Acceptor>
3

> <Donor>
1

> <RotBonds>
1

> <HAC>
22

> <Collection>
General

> <Reference_compound>
CHEMBL275638

> <Similarity>
0.8640

$$$$
F2018-1571
  -ISIS-  06222304352D

 34 37  0  0  0  0  0  0  0  0999 V2000
   -3.8708    2.9833    0.0000 C   0  0  0  0  0  0  0  0  0  0  0  0
   -3.1583    2.5625    0.0000 N   0  0  3  0  0  0  0  0  0  0  0  0
   -4.6333    2.6458    0.0000 N   0  0  0  0  0  0  0  0  0  0  0  0
    0.4167    1.3083    0.0000 N   0  0  3  0  0  0  0  0  0  0  0  0
   -3.9583    3.8083    0.0000 S   0  0  0  0  0  0  0  0  0  0  0  0
   -2.4458    2.9833    0.0000 C   0  0  0  0  0  0  0  0  0  0  0  0
   -5.1833    3.2583    0.0000 C   0  0  0  0  0  0  0  0  0  0  0  0
   -4.7708    3.9708    0.0000 C   0  0  0  0  0  0  0  0  0  0  0  0
    1.1625    1.6750    0.0000 C   0  0  0  0  0  0  0  0  0  0  0  0
    0.5292    0.5000    0.0000 C   0  0  0  0  0  0  0  0  0  0  0  0
   -6.0000    3.2500    0.0000 C   0  0  0  0  0  0  0  0  0  0  0  0
   -5.1875    4.6792    0.0000 C   0  0  0  0  0  0  0  0  0  0  0  0
   -6.0042    4.6667    0.0000 C   0  0  0  0  0  0  0  0  0  0  0  0
   -6.4042    3.9583    0.0000 C   0  0  0  0  0  0  0  0  0  0  0  0
   -3.1583    1.7375    0.0000 C   0  0  0  0  0  0  0  0  0  0  0  0
   -0.3000    1.7333    0.0000 C   0  0  0  0  0  0  0  0  0  0  0  0
   -1.7333    2.5625    0.0000 C   0  0  0  0  0  0  0  0  0  0  0  0
   -7.2167    4.1250    0.0000 O   0  0  0  0  0  0  0  0  0  0  0  0
   -6.5625    5.2792    0.0000 O   0  0  0  0  0  0  0  0  0  0  0  0
   -2.4458    3.8000    0.0000 O   0  0  0  0  0  0  0  0  0  0  0  0
   -7.3167    4.9417    0.0000 C   0  0  0  0  0  0  0  0  0  0  0  0
    1.7375    1.0750    0.0000 C   0  0  0  0  0  0  0  0  0  0  0  0
    1.3417    0.3583    0.0000 C   0  0  0  0  0  0  0  0  0  0  0  0
    1.3125    2.5083    0.0000 O   0  0  0  0  0  0  0  0  0  0  0  0
   -0.0583   -0.0792    0.0000 O   0  0  0  0  0  0  0  0  0  0  0  0
   -0.2958    2.5625    0.0000 C   0  0  0  0  0  0  0  0  0  0  0  0
   -1.0208    1.3333    0.0000 C   0  0  0  0  0  0  0  0  0  0  0  0
   -1.7250    1.7458    0.0000 C   0  0  0  0  0  0  0  0  0  0  0  0
   -1.0000    2.9833    0.0000 C   0  0  0  0  0  0  0  0  0  0  0  0
   -3.8708    1.3250    0.0000 C   0  0  0  0  0  0  0  0  0  0  0  0
   -3.8708    0.5000    0.0000 N   0  0  3  0  0  0  0  0  0  0  0  0
   -3.1583    0.0875    0.0000 C   0  0  0  0  0  0  0  0  0  0  0  0
   -4.5833    0.0875    0.0000 C   0  0  0  0  0  0  0  0  0  0  0  0
    3.1250    2.6000    0.0000 Cl  0  0  0  0  0  0  0  0  0  0  0  0
  3  1  2  0  0  0  0
  4 16  1  0  0  0  0
  5  1  1  0  0  0  0
  6  2  1  0  0  0  0
  7  3  1  0  0  0  0
  8  5  1  0  0  0  0
  9  4  1  0  0  0  0
 10  4  1  0  0  0  0
 11  7  1  0  0  0  0
 12  8  1  0  0  0  0
 13 12  2  0  0  0  0
 14 11  2  0  0  0  0
 15  2  1  0  0  0  0
 16 26  1  0  0  0  0
 17  6  1  0  0  0  0
 18 14  1  0  0  0  0
 19 13  1  0  0  0  0
 20  6  2  0  0  0  0
 21 19  1  0  0  0  0
 22  9  1  0  0  0  0
 23 10  1  0  0  0  0
 24  9  2  0  0  0  0
 25 10  2  0  0  0  0
 26 29  2  0  0  0  0
 27 28  1  0  0  0  0
 28 17  2  0  0  0  0
 29 17  1  0  0  0  0
 30 15  1  0  0  0  0
 31 30  1  0  0  0  0
 32 31  1  0  0  0  0
 33 31  1  0  0  0  0
  8  7  2  0  0  0  0
 13 14  1  0  0  0  0
 16 27  2  0  0  0  0
 18 21  1  0  0  0  0
 23 22  1  0  0  0  0
  2  1  1  0  0  0  0
M  END
> <IDNUMBER>
F2018-1571

> <Chemical_Name>
N-[2-(dimethylamino)ethyl]-N-{4,6-dioxa-10-thia-12-azatricyclo[7.3.0.0^{3,7}]dodeca-1(9),2,7,11-tetraen-11-yl}-4-(2,5-dioxopyrrolidin-1-yl)benzamide hydrochloride

> <CAS>
1052531-15-3

> <PriceCoeff>
1.00

> <MW>
466.51

> <Description>
solid

> <FSP3>
0.30

> <clogP>
1.68

> <TPSA>
120.52

> <Acceptor>
6

> <Donor>
1

> <RotBonds>
7

> <HAC>
33

> <Collection>
General

$$$$
F0902-0900
  -ISIS-  06222321452D

 28 30  0  0  0  0  0  0  0  0999 V2000
   -1.1833   -0.5167    0.0000 N   0  0  3  0  0  0  0  0  0  0  0  0
   -0.5500    0.4333    0.0000 C   0  0  0  0  0  0  0  0  0  0  0  0
   -0.4958   -1.3667    0.0000 C   0  0  0  0  0  0  0  0  0  0  0  0
    0.5542   -0.9792    0.0000 C   0  0  3  0  0  0  0  0  0  0  0  0
    0.5292    0.1208    0.0000 C   0  0  0  0  0  0  0  0  0  0  0  0
   -2.3000   -0.5167    0.0000 C   0  0  0  0  0  0  0  0  0  0  0  0
    3.4542   -1.6500    0.0000 C   0  0  0  0  0  0  0  0  0  0  0  0
    1.5000   -1.6000    0.0000 S   0  0  0  0  0  0  0  0  0  0  0  0
   -2.8625    2.4208    0.0000 C   0  0  3  0  0  0  0  0  0  0  0  0
    2.5042   -1.0500    0.0000 C   0  0  0  0  0  0  0  0  0  0  0  0
    3.4042   -2.8000    0.0000 C   0  0  0  0  0  0  0  0  0  0  0  0
   -2.8625    0.4500    0.0000 C   0  0  0  0  0  0  0  0  0  0  0  0
   -2.3000    1.4708    0.0000 S   0  0  0  0  0  0  0  0  0  0  0  0
   -0.9208    1.5208    0.0000 O   0  0  0  0  0  0  0  0  0  0  0  0
   -0.7833   -2.5000    0.0000 O   0  0  0  0  0  0  0  0  0  0  0  0
    4.4000   -3.3667    0.0000 O   0  0  0  0  0  0  0  0  0  0  0  0
   -3.8458    1.8500    0.0000 F   0  0  0  0  0  0  0  0  0  0  0  0
   -1.8833    3.0208    0.0000 F   0  0  0  0  0  0  0  0  0  0  0  0
   -3.4333    3.3833    0.0000 F   0  0  0  0  0  0  0  0  0  0  0  0
    2.4167   -3.3292    0.0000 O   0  0  0  0  0  0  0  0  0  0  0  0
    4.4542   -1.1500    0.0000 C   0  0  0  0  0  0  0  0  0  0  0  0
   -2.8833   -1.5000    0.0000 C   0  0  0  0  0  0  0  0  0  0  0  0
    2.5542    0.0625    0.0000 C   0  0  0  0  0  0  0  0  0  0  0  0
   -3.9958    0.4500    0.0000 C   0  0  0  0  0  0  0  0  0  0  0  0
    4.5042   -0.0167    0.0000 C   0  0  0  0  0  0  0  0  0  0  0  0
   -3.9958   -1.5000    0.0000 C   0  0  0  0  0  0  0  0  0  0  0  0
    3.5500    0.5958    0.0000 C   0  0  0  0  0  0  0  0  0  0  0  0
   -4.5500   -0.5167    0.0000 C   0  0  0  0  0  0  0  0  0  0  0  0
  2  1  1  0  0  0  0
  3  1  1  0  0  0  0
  4  3  1  0  0  0  0
  5  2  1  0  0  0  0
  6  1  1  0  0  0  0
  7 10  2  0  0  0  0
  8  4  1  0  0  0  0
  9 13  1  0  0  0  0
 10  8  1  0  0  0  0
 11  7  1  0  0  0  0
 12  6  2  0  0  0  0
 13 12  1  0  0  0  0
 14  2  2  0  0  0  0
 15  3  2  0  0  0  0
 16 11  2  0  0  0  0
 17  9  1  0  0  0  0
 18  9  1  0  0  0  0
 19  9  1  0  0  0  0
 20 11  1  0  0  0  0
 21  7  1  0  0  0  0
 22  6  1  0  0  0  0
 23 10  1  0  0  0  0
 24 12  1  0  0  0  0
 25 27  1  0  0  0  0
 26 22  2  0  0  0  0
 27 23  2  0  0  0  0
 28 26  1  0  0  0  0
  4  5  1  0  0  0  0
 24 28  2  0  0  0  0
 21 25  2  0  0  0  0
M  END
> <IDNUMBER>
F0902-0900

> <Chemical_Name>
2-[(2,5-dioxo-1-{2-[(trifluoromethyl)sulfanyl]phenyl}pyrrolidin-3-yl)sulfanyl]benzoic acid

> <CAS>
302552-57-4

> <PriceCoeff>
1.00

> <MW>
427.42

> <Description>
solid

> <FSP3>
0.17

> <clogP>
3.74

> <TPSA>
125.28

> <Acceptor>
4

> <Donor>
0

> <RotBonds>
5

> <HAC>
28

> <Collection>
General

$$$$
F1065-0219
  -ISIS-  06222321142D

 26 28  0  0  0  0  0  0  0  0999 V2000
   -0.1458    0.6125    0.0000 N   0  0  3  0  0  0  0  0  0  0  0  0
    0.6167    1.0500    0.0000 C   0  0  0  0  0  0  0  0  0  0  0  0
    0.0500   -0.2500    0.0000 C   0  0  0  0  0  0  0  0  0  0  0  0
    0.9167   -0.3500    0.0000 C   0  0  3  0  0  0  0  0  0  0  0  0
   -3.1833    2.4208    0.0000 N   0  3  0  0  0  0  0  0  0  0  0  0
    1.3000    0.4625    0.0000 C   0  0  0  0  0  0  0  0  0  0  0  0
    2.2542   -1.1167    0.0000 C   0  0  0  0  0  0  0  0  0  0  0  0
    2.7000   -1.8792    0.0000 C   0  0  0  0  0  0  0  0  0  0  0  0
    1.3542   -1.1167    0.0000 S   0  0  0  0  0  0  0  0  0  0  0  0
    2.2500   -2.6542    0.0000 C   0  0  0  0  0  0  0  0  0  0  0  0
   -0.9000    1.0500    0.0000 C   0  0  0  0  0  0  0  0  0  0  0  0
   -2.4333    1.9625    0.0000 C   0  0  0  0  0  0  0  0  0  0  0  0
    2.7000   -0.3500    0.0000 N   0  0  0  0  0  0  0  0  0  0  0  0
   -3.2333    3.3208    0.0000 O   0  5  0  0  0  0  0  0  0  0  0  0
    0.7292    1.9458    0.0000 O   0  0  0  0  0  0  0  0  0  0  0  0
   -3.9833    2.0625    0.0000 O   0  0  0  0  0  0  0  0  0  0  0  0
   -0.5500   -0.9167    0.0000 O   0  0  0  0  0  0  0  0  0  0  0  0
    2.7000   -3.4500    0.0000 O   0  0  0  0  0  0  0  0  0  0  0  0
   -0.9000    1.9458    0.0000 C   0  0  0  0  0  0  0  0  0  0  0  0
   -1.6833    0.6208    0.0000 C   0  0  0  0  0  0  0  0  0  0  0  0
   -2.4458    1.0625    0.0000 C   0  0  0  0  0  0  0  0  0  0  0  0
   -1.6833    2.3958    0.0000 C   0  0  0  0  0  0  0  0  0  0  0  0
    1.3500   -2.6542    0.0000 O   0  0  0  0  0  0  0  0  0  0  0  0
    3.6000   -1.8792    0.0000 C   0  0  0  0  0  0  0  0  0  0  0  0
    3.6000   -0.3542    0.0000 C   0  0  0  0  0  0  0  0  0  0  0  0
    4.0292   -1.1167    0.0000 C   0  0  0  0  0  0  0  0  0  0  0  0
  2  1  1  0  0  0  0
  3  1  1  0  0  0  0
  4  3  1  0  0  0  0
  5 12  1  0  0  0  0
  6  2  1  0  0  0  0
  7  9  1  0  0  0  0
  8  7  2  0  0  0  0
  9  4  1  0  0  0  0
 10  8  1  0  0  0  0
 11  1  1  0  0  0  0
 12 21  1  0  0  0  0
 13  7  1  0  0  0  0
 14  5  1  0  0  0  0
 15  2  2  0  0  0  0
 16  5  2  0  0  0  0
 17  3  2  0  0  0  0
 18 10  2  0  0  0  0
 19 11  2  0  0  0  0
 20 11  1  0  0  0  0
 21 20  2  0  0  0  0
 22 19  1  0  0  0  0
 23 10  1  0  0  0  0
 24  8  1  0  0  0  0
 25 13  2  0  0  0  0
 26 25  1  0  0  0  0
  6  4  1  0  0  0  0
 22 12  2  0  0  0  0
 26 24  2  0  0  0  0
M  CHG  2   5   1  14  -1
M  END
> <IDNUMBER>
F1065-0219

> <Chemical_Name>
2-{[1-(4-nitrophenyl)-2,5-dioxopyrrolidin-3-yl]sulfanyl}pyridine-3-carboxylic acid

> <CAS>
308293-33-6

> <PriceCoeff>
1.00

> <MW>
373.34

> <Description>
solid

> <FSP3>
0.12

> <clogP>
1.85

> <TPSA>
156.01

> <Acceptor>
7

> <Donor>
1

> <RotBonds>
5

> <HAC>
26

> <Collection>
General

$$$$
F3205-0105
  -ISIS-  06222321152D

 28 30  0  0  0  0  0  0  0  0999 V2000
    0.5542    1.1208    0.0000 N   0  0  3  0  0  0  0  0  0  0  0  0
    1.0375    1.7833    0.0000 C   0  0  0  0  0  0  0  0  0  0  0  0
    1.0292    0.4500    0.0000 C   0  0  0  0  0  0  0  0  0  0  0  0
    1.8167    0.7000    0.0000 C   0  0  3  0  0  0  0  0  0  0  0  0
    1.8167    1.5333    0.0000 C   0  0  0  0  0  0  0  0  0  0  0  0
    3.9542    0.2833    0.0000 C   0  0  0  0  0  0  0  0  0  0  0  0
    2.5292    0.2875    0.0000 S   0  0  0  0  0  0  0  0  0  0  0  0
    3.2417    0.7000    0.0000 C   0  0  0  0  0  0  0  0  0  0  0  0
   -3.1458    1.8458    0.0000 C   0  0  3  0  0  0  0  0  0  0  0  0
    3.9542   -0.5417    0.0000 C   0  0  0  0  0  0  0  0  0  0  0  0
   -0.2708    1.1208    0.0000 C   0  0  0  0  0  0  0  0  0  0  0  0
    0.7792    2.5708    0.0000 O   0  0  0  0  0  0  0  0  0  0  0  0
    0.7750   -0.3292    0.0000 O   0  0  0  0  0  0  0  0  0  0  0  0
   -2.7333    1.1333    0.0000 O   0  0  0  0  0  0  0  0  0  0  0  0
    4.6667   -0.9542    0.0000 O   0  0  0  0  0  0  0  0  0  0  0  0
   -0.6833    0.4125    0.0000 C   0  0  0  0  0  0  0  0  0  0  0  0
   -0.6833    1.8333    0.0000 C   0  0  0  0  0  0  0  0  0  0  0  0
   -3.9875    1.9833    0.0000 F   0  0  0  0  0  0  0  0  0  0  0  0
   -3.5125    2.4958    0.0000 F   0  0  0  0  0  0  0  0  0  0  0  0
   -2.8333    2.6458    0.0000 F   0  0  0  0  0  0  0  0  0  0  0  0
   -1.9083    1.1250    0.0000 C   0  0  0  0  0  0  0  0  0  0  0  0
    3.2375   -0.9500    0.0000 O   0  0  0  0  0  0  0  0  0  0  0  0
   -1.5000    0.4125    0.0000 C   0  0  0  0  0  0  0  0  0  0  0  0
   -1.4958    1.8333    0.0000 C   0  0  0  0  0  0  0  0  0  0  0  0
    4.6667    0.6958    0.0000 C   0  0  0  0  0  0  0  0  0  0  0  0
    3.2500    1.5250    0.0000 C   0  0  0  0  0  0  0  0  0  0  0  0
    4.6750    1.5250    0.0000 C   0  0  0  0  0  0  0  0  0  0  0  0
    3.9625    1.9333    0.0000 C   0  0  0  0  0  0  0  0  0  0  0  0
  2  1  1  0  0  0  0
  3  1  1  0  0  0  0
  4  3  1  0  0  0  0
  5  2  1  0  0  0  0
  6  8  1  0  0  0  0
  7  4  1  0  0  0  0
  8  7  1  0  0  0  0
  9 14  1  0  0  0  0
 10  6  1  0  0  0  0
 11  1  1  0  0  0  0
 12  2  2  0  0  0  0
 13  3  2  0  0  0  0
 14 21  1  0  0  0  0
 15 10  2  0  0  0  0
 16 11  2  0  0  0  0
 17 11  1  0  0  0  0
 18  9  1  0  0  0  0
 19  9  1  0  0  0  0
 20  9  1  0  0  0  0
 21 24  1  0  0  0  0
 22 10  1  0  0  0  0
 23 16  1  0  0  0  0
 24 17  2  0  0  0  0
 25  6  2  0  0  0  0
 26  8  2  0  0  0  0
 27 28  2  0  0  0  0
 28 26  1  0  0  0  0
  4  5  1  0  0  0  0
 23 21  2  0  0  0  0
 27 25  1  0  0  0  0
M  END
> <IDNUMBER>
F3205-0105

> <Chemical_Name>
2-({2,5-dioxo-1-[4-(trifluoromethoxy)phenyl]pyrrolidin-3-yl}sulfanyl)benzoic acid

> <CAS>
278609-78-2

> <PriceCoeff>
1.00

> <MW>
411.35

> <Description>
solid

> <FSP3>
0.17

> <clogP>
3.27

> <TPSA>
109.21

> <Acceptor>
5

> <Donor>
0

> <RotBonds>
5

> <HAC>
28

> <Collection>
General

$$$$
F2018-2985
  -ISIS-  06222304352D

 35 37  0  0  0  0  0  0  0  0999 V2000
   -3.1583    2.9833    0.0000 C   0  0  0  0  0  0  0  0  0  0  0  0
   -2.4375    2.5625    0.0000 N   0  0  3  0  0  0  0  0  0  0  0  0
   -0.2958    0.4958    0.0000 N   0  0  3  0  0  0  0  0  0  0  0  0
   -3.9125    2.6458    0.0000 N   0  0  0  0  0  0  0  0  0  0  0  0
   -3.2458    3.8083    0.0000 S   0  0  0  0  0  0  0  0  0  0  0  0
   -1.7250    2.9833    0.0000 C   0  0  0  0  0  0  0  0  0  0  0  0
   -0.2958    1.3333    0.0000 C   0  0  0  0  0  0  0  0  0  0  0  0
   -4.0583    3.9708    0.0000 C   0  0  0  0  0  0  0  0  0  0  0  0
    0.3500   -0.0167    0.0000 C   0  0  0  0  0  0  0  0  0  0  0  0
   -0.9958    0.0458    0.0000 C   0  0  0  0  0  0  0  0  0  0  0  0
   -4.4708    3.2583    0.0000 C   0  0  0  0  0  0  0  0  0  0  0  0
   -1.0125    2.5625    0.0000 C   0  0  0  0  0  0  0  0  0  0  0  0
   -1.0083    1.7458    0.0000 C   0  0  0  0  0  0  0  0  0  0  0  0
   -2.4375    1.7375    0.0000 C   0  0  0  0  0  0  0  0  0  0  0  0
   -4.4708    4.6667    0.0000 C   0  0  0  0  0  0  0  0  0  0  0  0
   -1.7250    3.8000    0.0000 O   0  0  0  0  0  0  0  0  0  0  0  0
    0.0667   -0.7917    0.0000 C   0  0  0  0  0  0  0  0  0  0  0  0
   -0.7583   -0.7667    0.0000 C   0  0  0  0  0  0  0  0  0  0  0  0
    1.1417    0.1958    0.0000 O   0  0  0  0  0  0  0  0  0  0  0  0
   -1.7583    0.3333    0.0000 O   0  0  0  0  0  0  0  0  0  0  0  0
   -5.2833    3.2458    0.0000 C   0  0  0  0  0  0  0  0  0  0  0  0
   -5.2958    4.6667    0.0000 C   0  0  0  0  0  0  0  0  0  0  0  0
   -3.1583    1.3250    0.0000 C   0  0  0  0  0  0  0  0  0  0  0  0
   -3.1583    0.5000    0.0000 N   0  0  3  0  0  0  0  0  0  0  0  0
   -5.6958    3.9583    0.0000 C   0  0  0  0  0  0  0  0  0  0  0  0
    0.4167    1.7333    0.0000 C   0  0  0  0  0  0  0  0  0  0  0  0
   -0.2875    2.9833    0.0000 C   0  0  0  0  0  0  0  0  0  0  0  0
   -5.7083    5.3792    0.0000 O   0  0  0  0  0  0  0  0  0  0  0  0
    0.4250    2.5625    0.0000 C   0  0  0  0  0  0  0  0  0  0  0  0
   -2.4375    0.0875    0.0000 C   0  0  0  0  0  0  0  0  0  0  0  0
   -3.8708    0.0875    0.0000 C   0  0  0  0  0  0  0  0  0  0  0  0
   -6.5292    5.3792    0.0000 C   0  0  0  0  0  0  0  0  0  0  0  0
   -4.5833    0.5000    0.0000 C   0  0  0  0  0  0  0  0  0  0  0  0
   -2.4375   -0.7375    0.0000 C   0  0  0  0  0  0  0  0  0  0  0  0
    2.6584    2.4458    0.0000 Cl  0  0  0  0  0  0  0  0  0  0  0  0
  3  7  1  0  0  0  0
  4  1  2  0  0  0  0
  5  1  1  0  0  0  0
  6  2  1  0  0  0  0
  7 13  1  0  0  0  0
  8  5  1  0  0  0  0
  9  3  1  0  0  0  0
 10  3  1  0  0  0  0
 11  4  1  0  0  0  0
 12  6  1  0  0  0  0
 13 12  2  0  0  0  0
 14  2  1  0  0  0  0
 15  8  1  0  0  0  0
 16  6  2  0  0  0  0
 17  9  1  0  0  0  0
 18 10  1  0  0  0  0
 19  9  2  0  0  0  0
 20 10  2  0  0  0  0
 21 11  1  0  0  0  0
 22 15  2  0  0  0  0
 23 14  1  0  0  0  0
 24 23  1  0  0  0  0
 25 21  2  0  0  0  0
 26 29  1  0  0  0  0
 27 12  1  0  0  0  0
 28 22  1  0  0  0  0
 29 27  2  0  0  0  0
 30 24  1  0  0  0  0
 31 24  1  0  0  0  0
 32 28  1  0  0  0  0
 33 31  1  0  0  0  0
 34 30  1  0  0  0  0
  8 11  2  0  0  0  0
 25 22  1  0  0  0  0
  7 26  2  0  0  0  0
 18 17  1  0  0  0  0
  2  1  1  0  0  0  0
M  END
> <IDNUMBER>
F2018-2985

> <Chemical_Name>
N-[2-(diethylamino)ethyl]-3-(2,5-dioxopyrrolidin-1-yl)-N-(6-methoxy-1,3-benzothiazol-2-yl)benzamide hydrochloride

> <CAS>
1329897-56-4

> <PriceCoeff>
1.00

> <MW>
480.58

> <Description>
solid

> <FSP3>
0.36

> <clogP>
2.48

> <TPSA>
111.29

> <Acceptor>
5

> <Donor>
1

> <RotBonds>
10

> <HAC>
34

> <Collection>
General

$$$$
F2018-3874
  -ISIS-  06222304352D

 35 37  0  0  0  0  0  0  0  0999 V2000
   -3.1583    2.9833    0.0000 C   0  0  0  0  0  0  0  0  0  0  0  0
   -3.9125    2.6458    0.0000 N   0  0  0  0  0  0  0  0  0  0  0  0
   -2.4375    2.5625    0.0000 N   0  0  3  0  0  0  0  0  0  0  0  0
   -0.2958    0.4958    0.0000 N   0  0  3  0  0  0  0  0  0  0  0  0
   -3.2458    3.8083    0.0000 S   0  0  0  0  0  0  0  0  0  0  0  0
   -1.7250    2.9833    0.0000 C   0  0  0  0  0  0  0  0  0  0  0  0
   -4.4708    3.2583    0.0000 C   0  0  0  0  0  0  0  0  0  0  0  0
   -0.2958    1.3333    0.0000 C   0  0  0  0  0  0  0  0  0  0  0  0
    0.3500   -0.0167    0.0000 C   0  0  0  0  0  0  0  0  0  0  0  0
   -0.9958    0.0458    0.0000 C   0  0  0  0  0  0  0  0  0  0  0  0
   -4.0583    3.9708    0.0000 C   0  0  0  0  0  0  0  0  0  0  0  0
   -1.0125    2.5625    0.0000 C   0  0  0  0  0  0  0  0  0  0  0  0
   -1.0083    1.7458    0.0000 C   0  0  0  0  0  0  0  0  0  0  0  0
   -2.4375    1.7375    0.0000 C   0  0  0  0  0  0  0  0  0  0  0  0
   -1.7250    3.8000    0.0000 O   0  0  0  0  0  0  0  0  0  0  0  0
   -5.2833    3.2458    0.0000 C   0  0  0  0  0  0  0  0  0  0  0  0
    0.0667   -0.7917    0.0000 C   0  0  0  0  0  0  0  0  0  0  0  0
   -0.7583   -0.7667    0.0000 C   0  0  0  0  0  0  0  0  0  0  0  0
    1.1417    0.1958    0.0000 O   0  0  0  0  0  0  0  0  0  0  0  0
   -1.7583    0.3333    0.0000 O   0  0  0  0  0  0  0  0  0  0  0  0
   -3.1583    1.3250    0.0000 C   0  0  0  0  0  0  0  0  0  0  0  0
   -3.1583    0.5000    0.0000 N   0  0  3  0  0  0  0  0  0  0  0  0
    0.4167    1.7333    0.0000 C   0  0  0  0  0  0  0  0  0  0  0  0
   -5.7083    2.5375    0.0000 O   0  0  0  0  0  0  0  0  0  0  0  0
   -4.4708    4.6667    0.0000 C   0  0  0  0  0  0  0  0  0  0  0  0
   -0.2875    2.9833    0.0000 C   0  0  0  0  0  0  0  0  0  0  0  0
    0.4250    2.5625    0.0000 C   0  0  0  0  0  0  0  0  0  0  0  0
   -5.2958    4.6667    0.0000 C   0  0  0  0  0  0  0  0  0  0  0  0
   -5.6958    3.9583    0.0000 C   0  0  0  0  0  0  0  0  0  0  0  0
   -2.4375    0.0875    0.0000 C   0  0  0  0  0  0  0  0  0  0  0  0
   -3.8708    0.0875    0.0000 C   0  0  0  0  0  0  0  0  0  0  0  0
   -5.2833    1.8208    0.0000 C   0  0  0  0  0  0  0  0  0  0  0  0
   -4.5833    0.5000    0.0000 C   0  0  0  0  0  0  0  0  0  0  0  0
   -2.4375   -0.7375    0.0000 C   0  0  0  0  0  0  0  0  0  0  0  0
    2.6584    2.0333    0.0000 Cl  0  0  0  0  0  0  0  0  0  0  0  0
  3  1  1  0  0  0  0
  4  8  1  0  0  0  0
  5  1  1  0  0  0  0
  6  3  1  0  0  0  0
  7  2  1  0  0  0  0
  8 13  1  0  0  0  0
  9  4  1  0  0  0  0
 10  4  1  0  0  0  0
 11  5  1  0  0  0  0
 12  6  1  0  0  0  0
 13 12  2  0  0  0  0
 14  3  1  0  0  0  0
 15  6  2  0  0  0  0
 16  7  1  0  0  0  0
 17  9  1  0  0  0  0
 18 10  1  0  0  0  0
 19  9  2  0  0  0  0
 20 10  2  0  0  0  0
 21 14  1  0  0  0  0
 22 21  1  0  0  0  0
 23 27  1  0  0  0  0
 24 16  1  0  0  0  0
 25 11  1  0  0  0  0
 26 12  1  0  0  0  0
 27 26  2  0  0  0  0
 28 25  2  0  0  0  0
 29 16  2  0  0  0  0
 30 22  1  0  0  0  0
 31 22  1  0  0  0  0
 32 24  1  0  0  0  0
 33 31  1  0  0  0  0
 34 30  1  0  0  0  0
 11  7  2  0  0  0  0
 29 28  1  0  0  0  0
  8 23  2  0  0  0  0
 18 17  1  0  0  0  0
  2  1  2  0  0  0  0
M  END
> <IDNUMBER>
F2018-3874

> <Chemical_Name>
N-[2-(diethylamino)ethyl]-3-(2,5-dioxopyrrolidin-1-yl)-N-(4-methoxy-1,3-benzothiazol-2-yl)benzamide hydrochloride

> <CAS>
1135212-02-0

> <PriceCoeff>
1.00

> <MW>
480.58

> <Description>
solid

> <FSP3>
0.36

> <clogP>
2.48

> <TPSA>
111.29

> <Acceptor>
5

> <Donor>
1

> <RotBonds>
10

> <HAC>
34

> <Collection>
General

$$$$
F0287-0039
  -ISIS-  06222321442D

 31 34  0  0  0  0  0  0  0  0999 V2000
   -2.5458    0.7833    0.0000 N   0  0  3  0  0  0  0  0  0  0  0  0
   -1.7625    2.1458    0.0000 N   0  0  0  0  0  0  0  0  0  0  0  0
   -2.5458    1.6833    0.0000 C   0  0  0  0  0  0  0  0  0  0  0  0
   -0.9833    0.7833    0.0000 C   0  0  0  0  0  0  0  0  0  0  0  0
   -1.7625    0.3208    0.0000 C   0  0  0  0  0  0  0  0  0  0  0  0
   -0.9833    1.6833    0.0000 C   0  0  0  0  0  0  0  0  0  0  0  0
    2.9375   -2.4167    0.0000 N   0  3  0  0  0  0  0  0  0  0  0  0
   -0.1833    0.3000    0.0000 C   0  0  0  0  0  0  0  0  0  0  0  0
   -3.3208    2.1458    0.0000 C   0  0  0  0  0  0  0  0  0  0  0  0
    2.1542   -1.9792    0.0000 C   0  0  0  0  0  0  0  0  0  0  0  0
   -0.1833   -0.6167    0.0000 N   0  0  0  0  0  0  0  0  0  0  0  0
    1.3792   -2.4375    0.0000 C   0  0  0  0  0  0  0  0  0  0  0  0
   -0.1833    2.1625    0.0000 N   0  0  0  0  0  0  0  0  0  0  0  0
   -3.3208    0.3208    0.0000 C   0  0  0  0  0  0  0  0  0  0  0  0
    0.6000   -1.9792    0.0000 C   0  0  0  0  0  0  0  0  0  0  0  0
    0.6000   -1.0792    0.0000 C   0  0  0  0  0  0  0  0  0  0  0  0
    3.0292   -3.3292    0.0000 O   0  5  0  0  0  0  0  0  0  0  0  0
   -1.7625   -0.6000    0.0000 O   0  0  0  0  0  0  0  0  0  0  0  0
    0.6000    3.5208    0.0000 C   0  0  0  0  0  0  0  0  0  0  0  0
    3.7500   -2.0167    0.0000 O   0  0  0  0  0  0  0  0  0  0  0  0
   -4.1000    0.7833    0.0000 C   0  0  0  0  0  0  0  0  0  0  0  0
    1.4542    3.2458    0.0000 O   0  0  0  0  0  0  0  0  0  0  0  0
   -4.1000    1.6833    0.0000 C   0  0  0  0  0  0  0  0  0  0  0  0
    0.6000    4.4375    0.0000 C   0  0  0  0  0  0  0  0  0  0  0  0
    1.9792    3.9833    0.0000 C   0  0  0  0  0  0  0  0  0  0  0  0
    2.1542   -1.0792    0.0000 C   0  0  0  0  0  0  0  0  0  0  0  0
    1.4542    4.7167    0.0000 C   0  0  0  0  0  0  0  0  0  0  0  0
    1.3792   -0.6167    0.0000 C   0  0  0  0  0  0  0  0  0  0  0  0
   -0.1833    3.0833    0.0000 C   0  0  0  0  0  0  0  0  0  0  0  0
   -0.1833   -2.4167    0.0000 Cl  0  0  0  0  0  0  0  0  0  0  0  0
   -3.3208    3.0458    0.0000 C   0  0  0  0  0  0  0  0  0  0  0  0
  2  3  2  0  0  0  0
  3  1  1  0  0  0  0
  4  5  1  0  0  0  0
  5  1  1  0  0  0  0
  6  4  2  0  0  0  0
  7 10  1  0  0  0  0
  8  4  1  0  0  0  0
  9  3  1  0  0  0  0
 10 26  1  0  0  0  0
 11  8  2  0  0  0  0
 12 15  1  0  0  0  0
 13  6  1  0  0  0  0
 14  1  1  0  0  0  0
 15 16  2  0  0  0  0
 16 11  1  0  0  0  0
 17  7  1  0  0  0  0
 18  5  2  0  0  0  0
 19 29  1  0  0  0  0
 20  7  2  0  0  0  0
 21 14  2  0  0  0  0
 22 19  1  0  0  0  0
 23 21  1  0  0  0  0
 24 19  2  0  0  0  0
 25 22  1  0  0  0  0
 26 28  2  0  0  0  0
 27 24  1  0  0  0  0
 28 16  1  0  0  0  0
 29 13  1  0  0  0  0
 30 15  1  0  0  0  0
 31  9  1  0  0  0  0
 23  9  2  0  0  0  0
  6  2  1  0  0  0  0
 12 10  2  0  0  0  0
 27 25  2  0  0  0  0
M  CHG  2   7   1  17  -1
M  END
> <IDNUMBER>
F0287-0039

> <Chemical_Name>
3-[(1E)-[(2-chloro-4-nitrophenyl)imino]methyl]-2-{[(furan-2-yl)methyl]amino}-9-methyl-4H-pyrido[1,2-a]pyrimidin-4-one

> <CAS>
392236-21-4

> <PriceCoeff>
1.00

> <MW>
437.84

> <Description>
solid

> <FSP3>
0.10

> <clogP>
3.78

> <TPSA>
113.34

> <Acceptor>
6

> <Donor>
2

> <RotBonds>
6

> <HAC>
31

> <Collection>
General

$$$$
F2862-0070
  -ISIS-  06222321462D

 24 26  0  0  0  0  0  0  0  0999 V2000
   -2.4333    1.8250    0.0000 N   0  0  3  0  0  0  0  0  0  0  0  0
   -1.7625    2.3083    0.0000 C   0  0  3  0  0  0  0  0  0  0  0  0
   -5.2958    1.0083    0.0000 N   0  3  0  0  0  0  0  0  0  0  0  0
   -2.4333    1.0000    0.0000 C   0  0  0  0  0  0  0  0  0  0  0  0
   -4.5833    0.5958    0.0000 C   0  0  0  0  0  0  0  0  0  0  0  0
   -3.1000    2.3083    0.0000 C   0  0  0  0  0  0  0  0  0  0  0  0
   -3.1458    0.5875    0.0000 C   0  0  0  0  0  0  0  0  0  0  0  0
   -3.8583    1.0000    0.0000 C   0  0  0  0  0  0  0  0  0  0  0  0
   -2.0208    3.0958    0.0000 C   0  0  0  0  0  0  0  0  0  0  0  0
   -0.9750    2.0583    0.0000 C   0  0  0  0  0  0  0  0  0  0  0  0
   -2.8458    3.0958    0.0000 C   0  0  0  0  0  0  0  0  0  0  0  0
   -4.5833   -0.2417    0.0000 C   0  0  0  0  0  0  0  0  0  0  0  0
   -5.3000    1.8333    0.0000 O   0  5  0  0  0  0  0  0  0  0  0  0
   -6.0042    0.5958    0.0000 O   0  0  0  0  0  0  0  0  0  0  0  0
   -1.7208    0.5875    0.0000 O   0  0  0  0  0  0  0  0  0  0  0  0
   -3.1458   -0.2417    0.0000 C   0  0  0  0  0  0  0  0  0  0  0  0
   -0.8083    1.2458    0.0000 O   0  0  0  0  0  0  0  0  0  0  0  0
   -3.8583   -0.6542    0.0000 C   0  0  0  0  0  0  0  0  0  0  0  0
   -0.3625    2.6083    0.0000 N   0  0  0  0  0  0  0  0  0  0  0  0
   -5.2958   -0.6542    0.0000 Cl  0  0  0  0  0  0  0  0  0  0  0  0
   -3.9083    2.1458    0.0000 C   0  0  0  0  0  0  0  0  0  0  0  0
   -3.3958    3.7083    0.0000 C   0  0  0  0  0  0  0  0  0  0  0  0
   -4.4583    2.7500    0.0000 C   0  0  0  0  0  0  0  0  0  0  0  0
   -4.2083    3.5458    0.0000 C   0  0  0  0  0  0  0  0  0  0  0  0
  2  1  1  0  0  0  0
  3  5  1  0  0  0  0
  4  1  1  0  0  0  0
  5  8  2  0  0  0  0
  6  1  1  0  0  0  0
  7  4  1  0  0  0  0
  8  7  1  0  0  0  0
  9  2  1  0  0  0  0
 10  2  1  0  0  0  0
 11  6  2  0  0  0  0
 12 18  2  0  0  0  0
 13  3  1  0  0  0  0
 14  3  2  0  0  0  0
 15  4  2  0  0  0  0
 16  7  2  0  0  0  0
 17 10  2  0  0  0  0
 18 16  1  0  0  0  0
 19 10  1  0  0  0  0
 20 12  1  0  0  0  0
 21  6  1  0  0  0  0
 22 11  1  0  0  0  0
 23 21  2  0  0  0  0
 24 23  1  0  0  0  0
 11  9  1  0  0  0  0
 24 22  2  0  0  0  0
  5 12  1  0  0  0  0
M  CHG  2   3   1  13  -1
M  END
> <IDNUMBER>
F2862-0070

> <Chemical_Name>
1-(4-chloro-3-nitrobenzoyl)-2,3-dihydro-1H-indole-2-carboxamide

> <CAS>
1105639-07-3

> <PriceCoeff>
1.00

> <MW>
345.74

> <Description>
solid

> <FSP3>
0.12

> <clogP>
1.84

> <TPSA>
106.54

> <Acceptor>
4

> <Donor>
1

> <RotBonds>
4

> <HAC>
24

> <Collection>
General

$$$$
F1065-0366
  -ISIS-  06222321442D

 27 30  0  0  0  0  0  0  0  0999 V2000
   -2.8958   -0.2792    0.0000 N   0  0  3  0  0  0  0  0  0  0  0  0
   -2.5625   -1.3000    0.0000 C   0  0  0  0  0  0  0  0  0  0  0  0
   -2.0333    0.2958    0.0000 C   0  0  0  0  0  0  0  0  0  0  0  0
   -1.5000   -1.3000    0.0000 C   0  0  3  0  0  0  0  0  0  0  0  0
   -1.1958   -0.2792    0.0000 C   0  0  0  0  0  0  0  0  0  0  0  0
    3.1667   -2.1792    0.0000 N   0  0  3  0  0  0  0  0  0  0  0  0
   -1.0000   -2.1792    0.0000 N   0  0  0  0  0  0  0  0  0  0  0  0
   -3.8708    0.0458    0.0000 C   0  0  0  0  0  0  0  0  0  0  0  0
    2.1042   -2.1792    0.0000 C   0  0  0  0  0  0  0  0  0  0  0  0
   -3.2000   -2.1500    0.0000 O   0  0  0  0  0  0  0  0  0  0  0  0
   -2.0333    1.3208    0.0000 O   0  0  0  0  0  0  0  0  0  0  0  0
    1.6042   -1.3000    0.0000 C   0  0  0  0  0  0  0  0  0  0  0  0
    1.6042   -3.0667    0.0000 C   0  0  0  0  0  0  0  0  0  0  0  0
    0.0500   -2.1792    0.0000 C   0  0  0  0  0  0  0  0  0  0  0  0
   -4.0625    1.0708    0.0000 C   0  0  0  0  0  0  0  0  0  0  0  0
    0.5500   -1.3000    0.0000 C   0  0  0  0  0  0  0  0  0  0  0  0
    0.5500   -3.0667    0.0000 C   0  0  0  0  0  0  0  0  0  0  0  0
    3.6667   -3.0667    0.0000 C   0  0  0  0  0  0  0  0  0  0  0  0
    3.6667   -1.3000    0.0000 C   0  0  0  0  0  0  0  0  0  0  0  0
   -3.3125    1.7458    0.0000 C   0  0  0  0  0  0  0  0  0  0  0  0
   -5.0458    1.4125    0.0000 C   0  0  0  0  0  0  0  0  0  0  0  0
    4.7292   -3.0667    0.0000 C   0  0  0  0  0  0  0  0  0  0  0  0
    4.7292   -1.3000    0.0000 C   0  0  0  0  0  0  0  0  0  0  0  0
   -5.2708    2.4125    0.0000 C   0  0  0  0  0  0  0  0  0  0  0  0
   -3.5125    2.7708    0.0000 C   0  0  0  0  0  0  0  0  0  0  0  0
    5.2292   -2.1792    0.0000 C   0  0  0  0  0  0  0  0  0  0  0  0
   -4.4833    3.0833    0.0000 C   0  0  0  0  0  0  0  0  0  0  0  0
  2  1  1  0  0  0  0
  3  1  1  0  0  0  0
  4  2  1  0  0  0  0
  5  3  1  0  0  0  0
  6  9  1  0  0  0  0
  7  4  1  0  0  0  0
  8  1  1  0  0  0  0
  9 13  1  0  0  0  0
 10  2  2  0  0  0  0
 11  3  2  0  0  0  0
 12 16  1  0  0  0  0
 13 17  2  0  0  0  0
 14  7  1  0  0  0  0
 15  8  1  0  0  0  0
 16 14  2  0  0  0  0
 17 14  1  0  0  0  0
 18  6  1  0  0  0  0
 19  6  1  0  0  0  0
 20 15  2  0  0  0  0
 21 15  1  0  0  0  0
 22 18  1  0  0  0  0
 23 19  1  0  0  0  0
 24 21  2  0  0  0  0
 25 20  1  0  0  0  0
 26 23  1  0  0  0  0
 27 24  1  0  0  0  0
  4  5  1  0  0  0  0
 25 27  2  0  0  0  0
 12  9  2  0  0  0  0
 22 26  1  0  0  0  0
M  END
> <IDNUMBER>
F1065-0366

> <Chemical_Name>
1-benzyl-3-{[4-(piperidin-1-yl)phenyl]amino}pyrrolidine-2,5-dione

> <CAS>
471916-28-6

> <PriceCoeff>
1.00

> <MW>
363.45

> <Description>
solid

> <FSP3>
0.36

> <clogP>
4.07

> <TPSA>
52.65

> <Acceptor>
4

> <Donor>
2

> <RotBonds>
5

> <HAC>
27

> <Collection>
General

$$$$
F1799-0241
  -ISIS-  06222321452D

 22 24  0  0  0  0  0  0  0  0999 V2000
    1.4042   -0.1167    0.0000 N   0  0  3  0  0  0  0  0  0  0  0  0
    1.0292   -0.5167    0.0000 C   0  0  0  0  0  0  0  0  0  0  0  0
    1.1292    0.3625    0.0000 C   0  0  0  0  0  0  0  0  0  0  0  0
    0.5875    0.2458    0.0000 C   0  0  3  0  0  0  0  0  0  0  0  0
    0.5500   -0.2792    0.0000 C   0  0  0  0  0  0  0  0  0  0  0  0
    0.1667    0.6000    0.0000 N   0  0  0  0  0  0  0  0  0  0  0  0
    1.9500   -0.1167    0.0000 C   0  0  0  0  0  0  0  0  0  0  0  0
    1.1292   -1.0792    0.0000 O   0  0  0  0  0  0  0  0  0  0  0  0
    1.3292    0.8833    0.0000 O   0  0  0  0  0  0  0  0  0  0  0  0
   -0.3708    0.4208    0.0000 C   0  0  0  0  0  0  0  0  0  0  0  0
    2.2292    0.3625    0.0000 C   0  0  0  0  0  0  0  0  0  0  0  0
    2.2292   -0.6000    0.0000 C   0  0  0  0  0  0  0  0  0  0  0  0
   -0.4708   -0.1375    0.0000 C   0  0  0  0  0  0  0  0  0  0  0  0
    3.0667   -0.1167    0.0000 C   0  0  0  0  0  0  0  0  0  0  0  0
    2.7875    0.3625    0.0000 C   0  0  0  0  0  0  0  0  0  0  0  0
    2.7875   -0.6000    0.0000 C   0  0  0  0  0  0  0  0  0  0  0  0
    3.6292   -0.1167    0.0000 Br  0  0  0  0  0  0  0  0  0  0  0  0
   -0.9958   -0.3375    0.0000 C   0  0  0  0  0  0  0  0  0  0  0  0
   -1.3125    0.6000    0.0000 C   0  0  0  0  0  0  0  0  0  0  0  0
   -0.7958    0.7833    0.0000 C   0  0  0  0  0  0  0  0  0  0  0  0
   -1.4125    0.0625    0.0000 C   0  0  0  0  0  0  0  0  0  0  0  0
   -1.1125   -0.9000    0.0000 C   0  0  0  0  0  0  0  0  0  0  0  0
  2  1  1  0  0  0  0
  3  1  1  0  0  0  0
  4  3  1  0  0  0  0
  5  2  1  0  0  0  0
  6  4  1  0  0  0  0
  7  1  1  0  0  0  0
  8  2  2  0  0  0  0
  9  3  2  0  0  0  0
 10  6  1  0  0  0  0
 11  7  1  0  0  0  0
 12  7  2  0  0  0  0
 13 10  2  0  0  0  0
 14 16  2  0  0  0  0
 15 11  2  0  0  0  0
 16 12  1  0  0  0  0
 17 14  1  0  0  0  0
 18 13  1  0  0  0  0
 19 20  2  0  0  0  0
 20 10  1  0  0  0  0
 21 19  1  0  0  0  0
 22 18  1  0  0  0  0
  5  4  1  0  0  0  0
 14 15  1  0  0  0  0
 18 21  2  0  0  0  0
M  END
> <IDNUMBER>
F1799-0241

> <Chemical_Name>
1-(4-bromophenyl)-3-[(3-methylphenyl)amino]pyrrolidine-2,5-dione

> <CAS>
466684-65-1

> <PriceCoeff>
1.00

> <MW>
359.22

> <Description>
solid

> <FSP3>
0.18

> <clogP>
4.13

> <TPSA>
49.41

> <Acceptor>
3

> <Donor>
1

> <RotBonds>
3

> <HAC>
22

> <Collection>
General

$$$$
F1383-0025
  -ISIS-  06222321142D

 30 33  0  0  0  0  0  0  0  0999 V2000
    4.8042   -2.3792    0.0000 N   0  0  3  0  0  0  0  0  0  0  0  0
    4.0167   -2.1292    0.0000 C   0  0  0  0  0  0  0  0  0  0  0  0
    3.7667   -1.3500    0.0000 C   0  0  0  0  0  0  0  0  0  0  0  0
    5.4750   -1.8917    0.0000 C   0  0  0  0  0  0  0  0  0  0  0  0
    3.3542   -2.6167    0.0000 S   0  0  0  0  0  0  0  0  0  0  0  0
    5.0625   -3.1750    0.0000 C   0  0  0  0  0  0  0  0  0  0  0  0
    2.9417   -1.3542    0.0000 C   0  0  0  0  0  0  0  0  0  0  0  0
    2.6875   -2.1417    0.0000 C   0  0  0  0  0  0  0  0  0  0  0  0
    5.8875   -3.1750    0.0000 C   0  0  3  0  0  0  0  0  0  0  0  0
    6.1500   -2.3792    0.0000 C   0  0  0  0  0  0  0  0  0  0  0  0
    7.2042   -3.7542    0.0000 C   0  0  0  0  0  0  0  0  0  0  0  0
    7.6875   -4.4292    0.0000 C   0  0  0  0  0  0  0  0  0  0  0  0
    6.3792   -3.8417    0.0000 S   0  0  0  0  0  0  0  0  0  0  0  0
    4.2500   -0.6792    0.0000 C   0  0  0  0  0  0  0  0  0  0  0  0
    7.3417   -5.1875    0.0000 C   0  0  0  0  0  0  0  0  0  0  0  0
    7.5292   -3.0042    0.0000 N   0  0  0  0  0  0  0  0  0  0  0  0
    5.4750   -1.0667    0.0000 O   0  0  0  0  0  0  0  0  0  0  0  0
    4.5750   -3.8417    0.0000 O   0  0  0  0  0  0  0  0  0  0  0  0
    4.8125   -0.7542    0.0000 O   0  0  0  0  0  0  0  0  0  0  0  0
    7.8292   -5.8625    0.0000 O   0  0  0  0  0  0  0  0  0  0  0  0
    6.5167   -5.2750    0.0000 O   0  0  0  0  0  0  0  0  0  0  0  0
    3.9125    0.0708    0.0000 O   0  0  0  0  0  0  0  0  0  0  0  0
    2.4542   -0.6917    0.0000 C   0  0  0  0  0  0  0  0  0  0  0  0
    1.9042   -2.4000    0.0000 C   0  0  0  0  0  0  0  0  0  0  0  0
    8.5125   -4.3417    0.0000 C   0  0  0  0  0  0  0  0  0  0  0  0
    8.3542   -2.9167    0.0000 C   0  0  0  0  0  0  0  0  0  0  0  0
    3.0917    0.1583    0.0000 C   0  0  0  0  0  0  0  0  0  0  0  0
    8.8500   -3.5875    0.0000 C   0  0  0  0  0  0  0  0  0  0  0  0
    1.5667   -0.8750    0.0000 C   0  0  0  0  0  0  0  0  0  0  0  0
    1.2625   -1.8375    0.0000 C   0  0  0  0  0  0  0  0  0  0  0  0
  2  1  1  0  0  0  0
  3  2  2  0  0  0  0
  4  1  1  0  0  0  0
  5  2  1  0  0  0  0
  6  1  1  0  0  0  0
  7  3  1  0  0  0  0
  8  5  1  0  0  0  0
  9  6  1  0  0  0  0
 10  4  1  0  0  0  0
 11 13  1  0  0  0  0
 12 11  2  0  0  0  0
 13  9  1  0  0  0  0
 14  3  1  0  0  0  0
 15 12  1  0  0  0  0
 16 11  1  0  0  0  0
 17  4  2  0  0  0  0
 18  6  2  0  0  0  0
 19 14  2  0  0  0  0
 20 15  2  0  0  0  0
 21 15  1  0  0  0  0
 22 14  1  0  0  0  0
 23  7  1  0  0  0  0
 24  8  1  0  0  0  0
 25 12  1  0  0  0  0
 26 16  2  0  0  0  0
 27 22  1  0  0  0  0
 28 26  1  0  0  0  0
 29 23  1  0  0  0  0
 30 24  1  0  0  0  0
 10  9  1  0  0  0  0
  8  7  2  0  0  0  0
 30 29  1  0  0  0  0
 28 25  2  0  0  0  0
M  END
> <IDNUMBER>
F1383-0025

> <Chemical_Name>
2-({1-[3-(methoxycarbonyl)-4,5,6,7-tetrahydro-1-benzothiophen-2-yl]-2,5-dioxopyrrolidin-3-yl}sulfanyl)pyridine-3-carboxylic acid

> <CAS>
685130-33-0

> <PriceCoeff>
1.00

> <MW>
446.50

> <Description>
solid

> <FSP3>
0.35

> <clogP>
3.30

> <TPSA>
167.41

> <Acceptor>
7

> <Donor>
1

> <RotBonds>
6

> <HAC>
30

> <Collection>
General

$$$$
F2146-0721
  -ISIS-  06222304352D

 26 27  0  0  0  0  0  0  0  0999 V2000
    3.0208   -3.9708    0.0000 C   0  0  0  0  0  0  0  0  0  0  0  0
    2.7625   -4.7542    0.0000 N   0  0  3  0  0  0  0  0  0  0  0  0
    2.3542   -3.4792    0.0000 S   0  0  0  0  0  0  0  0  0  0  0  0
    1.9375   -4.7542    0.0000 C   0  0  0  0  0  0  0  0  0  0  0  0
    1.6833   -3.9708    0.0000 C   0  0  0  0  0  0  0  0  0  0  0  0
    3.8125   -3.7125    0.0000 N   0  0  0  0  0  0  0  0  0  0  0  0
    1.3833   -5.3667    0.0000 C   0  0  0  0  0  0  0  0  0  0  0  0
    3.2542   -5.4250    0.0000 C   0  0  0  0  0  0  0  0  0  0  0  0
    0.8750   -3.7875    0.0000 C   0  0  0  0  0  0  0  0  0  0  0  0
    1.6375   -6.1458    0.0000 O   0  0  0  0  0  0  0  0  0  0  0  0
    0.3167   -4.4083    0.0000 C   0  0  0  0  0  0  0  0  0  0  0  0
    0.5792   -5.1917    0.0000 C   0  0  0  0  0  0  0  0  0  0  0  0
    0.9292   -6.7125    0.0000 C   0  0  0  0  0  0  0  0  0  0  0  0
    2.9167   -6.1875    0.0000 C   0  0  0  0  0  0  0  0  0  0  0  0
    1.0667   -7.6042    0.0000 C   0  0  0  0  0  0  0  0  0  0  0  0
    6.8473   -4.4746    0.0000 S   0  0  3  0  0  0  0  0  0  0  0  0
    6.4445   -5.1844    0.0000 C   0  0  0  0  0  0  0  0  0  0  0  0
    6.1364   -4.0533    0.0000 O   0  0  0  0  0  0  0  0  0  0  0  0
    7.2531   -3.7535    0.0000 O   0  0  0  0  0  0  0  0  0  0  0  0
    7.5685   -4.8804    0.0000 O   0  0  0  0  0  0  0  0  0  0  0  0
    6.8599   -5.9020    0.0000 C   0  0  0  0  0  0  0  0  0  0  0  0
    5.6140   -5.1886    0.0000 C   0  0  0  0  0  0  0  0  0  0  0  0
    6.4428   -6.6202    0.0000 C   0  0  0  0  0  0  0  0  0  0  0  0
    5.2061   -5.9061    0.0000 C   0  0  0  0  0  0  0  0  0  0  0  0
    5.6195   -6.6201    0.0000 C   0  0  0  0  0  0  0  0  0  0  0  0
    5.2059   -7.3362    0.0000 C   0  0  0  0  0  0  0  0  0  0  0  0
 13 10  1  0  0  0  0
 14  8  1  0  0  0  0
 15 13  1  0  0  0  0
  5  4  2  0  0  0  0
 12 11  1  0  0  0  0
  2  1  1  0  0  0  0
  3  1  1  0  0  0  0
  4  2  1  0  0  0  0
  5  3  1  0  0  0  0
  6  1  2  0  0  0  0
  7  4  1  0  0  0  0
  8  2  1  0  0  0  0
  9  5  1  0  0  0  0
 10  7  1  0  0  0  0
 11  9  2  0  0  0  0
 12  7  2  0  0  0  0
 17 16  1  0  0  0  0
 18 16  2  0  0  0  0
 19 16  2  0  0  0  0
 20 16  1  0  0  0  0
 21 17  1  0  0  0  0
 22 17  2  0  0  0  0
 23 21  2  0  0  0  0
 24 22  1  0  0  0  0
 25 24  2  0  0  0  0
 26 25  1  0  0  0  0
 23 25  1  0  0  0  0
M  END
> <IDNUMBER>
F2146-0721

> <Chemical_Name>
4-ethoxy-3-ethyl-2,3-dihydro-1,3-benzothiazol-2-imine; 4-methylbenzene-1-sulfonic acid

> <CAS>
2034156-80-2

> <PriceCoeff>
1.00

> <MW>
222.31

> <Description>
solid

> <FSP3>
0.36

> <clogP>
4.22

> <TPSA>
61.62

> <Acceptor>
1

> <Donor>
1

> <RotBonds>
3

> <HAC>
15

> <Collection>
General

> <Reference_compound>
PRI5904

> <Similarity>
0.8060

$$$$
F3139-0181
  -ISIS-  06222321152D

 17 18  0  0  0  0  0  0  0  0999 V2000
    2.7417    0.0833    0.0000 C   0  0  0  0  0  0  0  0  0  0  0  0
    3.4542   -0.3292    0.0000 C   0  0  0  0  0  0  0  0  0  0  0  0
    4.1667    0.0833    0.0000 C   0  0  0  0  0  0  0  0  0  0  0  0
    5.6000    0.0833    0.0000 C   0  0  0  0  0  0  0  0  0  0  0  0
    4.8875   -0.3292    0.0000 C   0  0  0  0  0  0  0  0  0  0  0  0
    6.3500   -0.2500    0.0000 S   0  0  0  0  0  0  0  0  0  0  0  0
    2.7417    0.9083    0.0000 C   0  0  0  0  0  0  0  0  0  0  0  0
    2.0250   -0.3292    0.0000 C   0  0  0  0  0  0  0  0  0  0  0  0
    6.9000    0.3625    0.0000 C   0  0  0  0  0  0  0  0  0  0  0  0
    5.6792    0.9083    0.0000 C   0  0  0  0  0  0  0  0  0  0  0  0
    6.4875    1.0750    0.0000 C   0  0  0  0  0  0  0  0  0  0  0  0
    3.4542   -1.1542    0.0000 O   0  0  0  0  0  0  0  0  0  0  0  0
    2.0250    1.3208    0.0000 C   0  0  0  0  0  0  0  0  0  0  0  0
    1.3125    0.0833    0.0000 C   0  0  0  0  0  0  0  0  0  0  0  0
    1.3125    0.9083    0.0000 C   0  0  0  0  0  0  0  0  0  0  0  0
    0.5917   -0.3292    0.0000 Cl  0  0  0  0  0  0  0  0  0  0  0  0
    3.4542    1.3250    0.0000 O   0  0  0  0  0  0  0  0  0  0  0  0
  2  1  1  0  0  0  0
  3  2  1  0  0  0  0
  4  5  1  0  0  0  0
  5  3  2  0  0  0  0
  6  4  1  0  0  0  0
  7  1  1  0  0  0  0
  8  1  2  0  0  0  0
  9  6  1  0  0  0  0
 10  4  2  0  0  0  0
 11 10  1  0  0  0  0
 12  2  2  0  0  0  0
 13  7  2  0  0  0  0
 14  8  1  0  0  0  0
 15 14  2  0  0  0  0
 16 14  1  0  0  0  0
 17  7  1  0  0  0  0
 15 13  1  0  0  0  0
 11  9  2  0  0  0  0
M  END
> <IDNUMBER>
F3139-0181

> <Chemical_Name>
(2E)-1-(5-chloro-2-hydroxyphenyl)-3-(thiophen-2-yl)prop-2-en-1-one

> <CAS>
908563-72-4

> <PriceCoeff>
1.00

> <MW>
264.73

> <Description>
solid

> <FSP3>
0.00

> <clogP>
4.44

> <TPSA>
65.54

> <Acceptor>
2

> <Donor>
1

> <RotBonds>
3

> <HAC>
17

> <Collection>
General

$$$$
F1065-0747
  -ISIS-  06222321142D

 28 30  0  0  0  0  0  0  0  0999 V2000
   -1.7500   -0.4792    0.0000 N   0  0  3  0  0  0  0  0  0  0  0  0
   -2.2000   -1.4875    0.0000 C   0  0  0  0  0  0  0  0  0  0  0  0
   -0.6208   -0.5375    0.0000 C   0  0  0  0  0  0  0  0  0  0  0  0
   -2.4458    0.4958    0.0000 C   0  0  0  0  0  0  0  0  0  0  0  0
   -1.9458    1.5208    0.0000 C   0  0  0  0  0  0  0  0  0  0  0  0
   -0.3625   -1.6500    0.0000 C   0  0  3  0  0  0  0  0  0  0  0  0
   -1.3500   -2.2375    0.0000 C   0  0  0  0  0  0  0  0  0  0  0  0
    2.6875   -1.4875    0.0000 C   0  0  0  0  0  0  0  0  0  0  0  0
    0.7167   -1.9542    0.0000 S   0  0  0  0  0  0  0  0  0  0  0  0
    1.5667   -1.1667    0.0000 C   0  0  0  0  0  0  0  0  0  0  0  0
   -0.8125    1.6125    0.0000 C   0  0  0  0  0  0  0  0  0  0  0  0
    2.9792   -2.5542    0.0000 C   0  0  0  0  0  0  0  0  0  0  0  0
   -3.3208   -1.6875    0.0000 O   0  0  0  0  0  0  0  0  0  0  0  0
    0.1042    0.3625    0.0000 O   0  0  0  0  0  0  0  0  0  0  0  0
   -0.3000    0.8625    0.0000 O   0  0  0  0  0  0  0  0  0  0  0  0
    4.0792   -2.8500    0.0000 O   0  0  0  0  0  0  0  0  0  0  0  0
    2.2292   -3.4042    0.0000 O   0  0  0  0  0  0  0  0  0  0  0  0
   -0.3458    2.6458    0.0000 O   0  0  0  0  0  0  0  0  0  0  0  0
   -3.5625    0.3833    0.0000 C   0  0  0  0  0  0  0  0  0  0  0  0
   -2.5958    2.4583    0.0000 C   0  0  0  0  0  0  0  0  0  0  0  0
    3.4792   -0.6542    0.0000 C   0  0  0  0  0  0  0  0  0  0  0  0
    1.2500   -0.0667    0.0000 C   0  0  0  0  0  0  0  0  0  0  0  0
   -1.0125    3.5708    0.0000 C   0  0  0  0  0  0  0  0  0  0  0  0
   -3.7333    2.3500    0.0000 C   0  0  0  0  0  0  0  0  0  0  0  0
   -4.2208    1.3208    0.0000 C   0  0  0  0  0  0  0  0  0  0  0  0
    3.1542    0.4458    0.0000 C   0  0  0  0  0  0  0  0  0  0  0  0
    2.0375    0.7458    0.0000 C   0  0  0  0  0  0  0  0  0  0  0  0
   -2.1458    3.4708    0.0000 C   0  0  0  0  0  0  0  0  0  0  0  0
  2  1  1  0  0  0  0
  3  1  1  0  0  0  0
  4  1  1  0  0  0  0
  5  4  2  0  0  0  0
  6  3  1  0  0  0  0
  7  2  1  0  0  0  0
  8 10  2  0  0  0  0
  9  6  1  0  0  0  0
 10  9  1  0  0  0  0
 11  5  1  0  0  0  0
 12  8  1  0  0  0  0
 13  2  2  0  0  0  0
 14  3  2  0  0  0  0
 15 11  2  0  0  0  0
 16 12  2  0  0  0  0
 17 12  1  0  0  0  0
 18 11  1  0  0  0  0
 19  4  1  0  0  0  0
 20  5  1  0  0  0  0
 21  8  1  0  0  0  0
 22 10  1  0  0  0  0
 23 18  1  0  0  0  0
 24 25  1  0  0  0  0
 25 19  2  0  0  0  0
 26 27  1  0  0  0  0
 27 22  2  0  0  0  0
 28 23  1  0  0  0  0
  6  7  1  0  0  0  0
 24 20  2  0  0  0  0
 26 21  2  0  0  0  0
M  END
> <IDNUMBER>
F1065-0747

> <Chemical_Name>
2-({1-[2-(ethoxycarbonyl)phenyl]-2,5-dioxopyrrolidin-3-yl}sulfanyl)benzoic acid

> <CAS>
367907-18-4

> <PriceCoeff>
1.00

> <MW>
399.42

> <Description>
solid

> <FSP3>
0.20

> <clogP>
3.08

> <TPSA>
126.28

> <Acceptor>
6

> <Donor>
0

> <RotBonds>
7

> <HAC>
28

> <Collection>
General

$$$$
F3096-1216
  -ISIS-  06222321152D

 22 24  0  0  0  0  0  0  0  0999 V2000
    1.3042   -0.5042    0.0000 C   0  0  0  0  0  0  0  0  0  0  0  0
   -3.3708    1.0625    0.0000 N   0  0  3  0  0  0  0  0  0  0  0  0
    0.3792   -1.0500    0.0000 N   0  0  0  0  0  0  0  0  0  0  0  0
   -2.4333    0.5458    0.0000 C   0  0  0  0  0  0  0  0  0  0  0  0
    2.2375   -1.0500    0.0000 C   0  0  0  0  0  0  0  0  0  0  0  0
    1.3042    0.5625    0.0000 O   0  0  0  0  0  0  0  0  0  0  0  0
   -2.4208   -0.5292    0.0000 C   0  0  0  0  0  0  0  0  0  0  0  0
   -1.4958    1.1000    0.0000 C   0  0  0  0  0  0  0  0  0  0  0  0
    3.1792   -0.5042    0.0000 C   0  0  0  0  0  0  0  0  0  0  0  0
    2.2292   -2.1167    0.0000 C   0  0  0  0  0  0  0  0  0  0  0  0
   -0.5500   -0.5167    0.0000 C   0  0  0  0  0  0  0  0  0  0  0  0
    4.1000   -2.1167    0.0000 C   0  0  0  0  0  0  0  0  0  0  0  0
   -1.4833   -1.0667    0.0000 C   0  0  0  0  0  0  0  0  0  0  0  0
   -0.5500    0.5625    0.0000 C   0  0  0  0  0  0  0  0  0  0  0  0
    3.1500   -2.6500    0.0000 C   0  0  0  0  0  0  0  0  0  0  0  0
    4.1000   -1.0500    0.0000 C   0  0  0  0  0  0  0  0  0  0  0  0
    5.0292   -2.6500    0.0000 Cl  0  0  0  0  0  0  0  0  0  0  0  0
   -3.4000    2.1458    0.0000 C   0  0  0  0  0  0  0  0  0  0  0  0
   -4.2833    0.5000    0.0000 C   0  0  0  0  0  0  0  0  0  0  0  0
   -4.3458    2.6500    0.0000 C   0  0  0  0  0  0  0  0  0  0  0  0
   -5.2333    1.0125    0.0000 C   0  0  0  0  0  0  0  0  0  0  0  0
   -5.2708    2.0833    0.0000 C   0  0  0  0  0  0  0  0  0  0  0  0
  2  4  1  0  0  0  0
  3  1  1  0  0  0  0
  4  8  2  0  0  0  0
  5  1  1  0  0  0  0
  6  1  2  0  0  0  0
  7 13  2  0  0  0  0
  8 14  1  0  0  0  0
  9  5  1  0  0  0  0
 10  5  2  0  0  0  0
 11  3  1  0  0  0  0
 12 15  2  0  0  0  0
 13 11  1  0  0  0  0
 14 11  2  0  0  0  0
 15 10  1  0  0  0  0
 16  9  2  0  0  0  0
 17 12  1  0  0  0  0
 18  2  1  0  0  0  0
 19  2  1  0  0  0  0
 20 18  1  0  0  0  0
 21 19  1  0  0  0  0
 22 21  1  0  0  0  0
 16 12  1  0  0  0  0
  4  7  1  0  0  0  0
 22 20  1  0  0  0  0
M  END
> <IDNUMBER>
F3096-1216

> <Chemical_Name>
4-chloro-N-[4-(piperidin-1-yl)phenyl]benzamide

> <CAS>
305373-16-4

> <PriceCoeff>
1.00

> <MW>
314.81

> <Description>
solid

> <FSP3>
0.28

> <clogP>
4.40

> <TPSA>
32.34

> <Acceptor>
2

> <Donor>
2

> <RotBonds>
3

> <HAC>
22

> <Collection>
General

> <Reference_compound>
CHEMBL2286413

> <Similarity>
0.8000

$$$$
F3048-0087
  -ISIS-  06222321152D

 30 32  0  0  0  0  0  0  0  0999 V2000
    4.0792    2.0208    0.0000 N   0  0  3  0  0  0  0  0  0  0  0  0
    4.5167    1.4083    0.0000 C   0  0  0  0  0  0  0  0  0  0  0  0
    4.5167    2.6208    0.0000 C   0  0  0  0  0  0  0  0  0  0  0  0
    5.2292    1.6375    0.0000 C   0  0  0  0  0  0  0  0  0  0  0  0
    5.2292    2.3958    0.0000 C   0  0  3  0  0  0  0  0  0  0  0  0
    3.3292    2.0208    0.0000 C   0  0  0  0  0  0  0  0  0  0  0  0
    7.8167    2.6583    0.0000 N   0  0  0  0  0  0  0  0  0  0  0  0
    1.0792    2.0208    0.0000 C   0  0  0  0  0  0  0  0  0  0  0  0
    7.1292    2.9708    0.0000 C   0  0  0  0  0  0  0  0  0  0  0  0
    5.8417    2.8333    0.0000 S   0  0  0  0  0  0  0  0  0  0  0  0
    8.4250    3.1083    0.0000 C   0  0  0  0  0  0  0  0  0  0  0  0
    4.2875    0.6958    0.0000 O   0  0  0  0  0  0  0  0  0  0  0  0
    4.2875    3.3333    0.0000 O   0  0  0  0  0  0  0  0  0  0  0  0
    1.8292    2.0208    0.0000 C   0  0  0  0  0  0  0  0  0  0  0  0
    0.7042    2.6625    0.0000 O   0  0  0  0  0  0  0  0  0  0  0  0
    7.0542    3.7125    0.0000 O   0  0  0  0  0  0  0  0  0  0  0  0
    2.9542    1.3625    0.0000 C   0  0  0  0  0  0  0  0  0  0  0  0
    2.9542    2.6625    0.0000 C   0  0  0  0  0  0  0  0  0  0  0  0
    9.1042    2.7958    0.0000 C   0  0  0  0  0  0  0  0  0  0  0  0
    2.2042    2.6625    0.0000 C   0  0  0  0  0  0  0  0  0  0  0  0
    2.2042    1.3625    0.0000 C   0  0  0  0  0  0  0  0  0  0  0  0
    6.5250    2.5250    0.0000 C   0  0  0  0  0  0  0  0  0  0  0  0
    0.7042    1.3625    0.0000 O   0  0  0  0  0  0  0  0  0  0  0  0
    8.3417    3.8458    0.0000 C   0  0  0  0  0  0  0  0  0  0  0  0
    9.1875    2.0500    0.0000 C   0  0  0  0  0  0  0  0  0  0  0  0
    9.7167    3.2375    0.0000 C   0  0  0  0  0  0  0  0  0  0  0  0
   -0.0458    1.3625    0.0000 C   0  0  0  0  0  0  0  0  0  0  0  0
    9.8750    1.7458    0.0000 C   0  0  0  0  0  0  0  0  0  0  0  0
    8.9542    4.2792    0.0000 C   0  0  0  0  0  0  0  0  0  0  0  0
    9.6375    3.9833    0.0000 C   0  0  0  0  0  0  0  0  0  0  0  0
  2  1  1  0  0  0  0
  3  1  1  0  0  0  0
  4  2  1  0  0  0  0
  5  3  1  0  0  0  0
  6  1  1  0  0  0  0
  7  9  1  0  0  0  0
  8 14  1  0  0  0  0
  9 22  1  0  0  0  0
 10  5  1  0  0  0  0
 11  7  1  0  0  0  0
 12  2  2  0  0  0  0
 13  3  2  0  0  0  0
 14 20  2  0  0  0  0
 15  8  2  0  0  0  0
 16  9  2  0  0  0  0
 17  6  1  0  0  0  0
 18  6  2  0  0  0  0
 19 11  1  0  0  0  0
 20 18  1  0  0  0  0
 21 17  2  0  0  0  0
 22 10  1  0  0  0  0
 23  8  1  0  0  0  0
 24 11  2  0  0  0  0
 25 19  1  0  0  0  0
 26 19  2  0  0  0  0
 27 23  1  0  0  0  0
 28 25  1  0  0  0  0
 29 24  1  0  0  0  0
 30 29  2  0  0  0  0
  4  5  1  0  0  0  0
 14 21  1  0  0  0  0
 26 30  1  0  0  0  0
M  END
> <IDNUMBER>
F3048-0087

> <Chemical_Name>
methyl 4-[3-({[(2-ethylphenyl)carbamoyl]methyl}sulfanyl)-2,5-dioxopyrrolidin-1-yl]benzoate

> <CAS>
714262-71-2

> <PriceCoeff>
1.00

> <MW>
426.49

> <Description>
solid

> <FSP3>
0.27

> <clogP>
2.87

> <TPSA>
118.08

> <Acceptor>
5

> <Donor>
1

> <RotBonds>
8

> <HAC>
30

> <Collection>
General

$$$$
F3048-0066
  -ISIS-  06222321442D

 27 29  0  0  0  0  0  0  0  0999 V2000
    6.9792    1.5708    0.0000 N   0  0  3  0  0  0  0  0  0  0  0  0
    6.5375    2.1708    0.0000 C   0  0  0  0  0  0  0  0  0  0  0  0
    6.5375    0.9583    0.0000 C   0  0  0  0  0  0  0  0  0  0  0  0
    5.8250    1.9458    0.0000 C   0  0  0  0  0  0  0  0  0  0  0  0
    5.8250    1.1958    0.0000 C   0  0  3  0  0  0  0  0  0  0  0  0
    7.7292    1.5708    0.0000 C   0  0  0  0  0  0  0  0  0  0  0  0
    5.2167    0.7500    0.0000 S   0  0  0  0  0  0  0  0  0  0  0  0
    3.9250    0.6125    0.0000 C   0  0  0  0  0  0  0  0  0  0  0  0
    6.7667    2.8958    0.0000 O   0  0  0  0  0  0  0  0  0  0  0  0
    3.2417    0.9208    0.0000 N   0  0  0  0  0  0  0  0  0  0  0  0
    6.7667    0.2458    0.0000 O   0  0  0  0  0  0  0  0  0  0  0  0
    2.6292    0.4833    0.0000 C   0  0  0  0  0  0  0  0  0  0  0  0
    1.9500    0.7833    0.0000 C   0  0  0  0  0  0  0  0  0  0  0  0
    4.0042   -0.1292    0.0000 O   0  0  0  0  0  0  0  0  0  0  0  0
    8.1042    0.9208    0.0000 C   0  0  0  0  0  0  0  0  0  0  0  0
    8.1042    2.2208    0.0000 C   0  0  0  0  0  0  0  0  0  0  0  0
    4.5292    1.0583    0.0000 C   0  0  0  0  0  0  0  0  0  0  0  0
    1.3417    0.3458    0.0000 C   0  0  0  0  0  0  0  0  0  0  0  0
    9.2292    1.5708    0.0000 C   0  0  0  0  0  0  0  0  0  0  0  0
    8.8542    2.2208    0.0000 C   0  0  0  0  0  0  0  0  0  0  0  0
    8.8542    0.9208    0.0000 C   0  0  0  0  0  0  0  0  0  0  0  0
    0.6542    0.6458    0.0000 Br  0  0  0  0  0  0  0  0  0  0  0  0
    9.9792    1.5708    0.0000 O   0  0  0  0  0  0  0  0  0  0  0  0
    2.1042   -0.7042    0.0000 C   0  0  0  0  0  0  0  0  0  0  0  0
    2.7125   -0.2667    0.0000 C   0  0  0  0  0  0  0  0  0  0  0  0
    1.4167   -0.4042    0.0000 C   0  0  0  0  0  0  0  0  0  0  0  0
   10.3542    0.9208    0.0000 C   0  0  0  0  0  0  0  0  0  0  0  0
  2  1  1  0  0  0  0
  3  1  1  0  0  0  0
  4  2  1  0  0  0  0
  5  3  1  0  0  0  0
  6  1  1  0  0  0  0
  7  5  1  0  0  0  0
  8 17  1  0  0  0  0
  9  2  2  0  0  0  0
 10  8  1  0  0  0  0
 11  3  2  0  0  0  0
 12 10  1  0  0  0  0
 13 12  1  0  0  0  0
 14  8  2  0  0  0  0
 15  6  1  0  0  0  0
 16  6  2  0  0  0  0
 17  7  1  0  0  0  0
 18 13  2  0  0  0  0
 19 20  2  0  0  0  0
 20 16  1  0  0  0  0
 21 15  2  0  0  0  0
 22 18  1  0  0  0  0
 23 19  1  0  0  0  0
 24 25  1  0  0  0  0
 25 12  2  0  0  0  0
 26 24  2  0  0  0  0
 27 23  1  0  0  0  0
  4  5  1  0  0  0  0
 21 19  1  0  0  0  0
 18 26  1  0  0  0  0
M  END
> <IDNUMBER>
F3048-0066

> <Chemical_Name>
N-(3-bromophenyl)-2-{[1-(4-methoxyphenyl)-2,5-dioxopyrrolidin-3-yl]sulfanyl}acetamide

> <CAS>
714262-55-2

> <PriceCoeff>
1.00

> <MW>
449.32

> <Description>
solid

> <FSP3>
0.21

> <clogP>
3.44

> <TPSA>
101.01

> <Acceptor>
4

> <Donor>
1

> <RotBonds>
6

> <HAC>
27

> <Collection>
General

$$$$
F5252-0200
  -ISIS-  06222321442D

 30 33  0  0  0  0  0  0  0  0999 V2000
   -2.1708    0.1083    0.0000 C   0  0  0  0  0  0  0  0  0  0  0  0
   -1.4458   -0.0875    0.0000 N   0  0  3  0  0  0  0  0  0  0  0  0
   -2.0833   -1.1042    0.0000 N   0  0  0  0  0  0  0  0  0  0  0  0
   -1.4000   -0.8292    0.0000 N   0  0  0  0  0  0  0  0  0  0  0  0
   -2.5708   -0.5250    0.0000 N   0  0  0  0  0  0  0  0  0  0  0  0
   -0.2458    2.9208    0.0000 C   0  0  0  0  0  0  0  0  0  0  0  0
   -0.7875    2.4000    0.0000 N   0  0  3  0  0  0  0  0  0  0  0  0
    0.4667    2.7083    0.0000 N   0  0  0  0  0  0  0  0  0  0  0  0
   -2.3625    0.8208    0.0000 C   0  0  0  0  0  0  0  0  0  0  0  0
   -1.8458    1.3458    0.0000 N   0  0  3  0  0  0  0  0  0  0  0  0
   -0.8458    0.3625    0.0000 C   0  0  0  0  0  0  0  0  0  0  0  0
    2.2542    3.5333    0.0000 C   0  0  0  0  0  0  0  0  0  0  0  0
    1.7250    3.0208    0.0000 C   0  0  0  0  0  0  0  0  0  0  0  0
    1.0042    3.2333    0.0000 C   0  0  0  0  0  0  0  0  0  0  0  0
   -0.4250    3.6458    0.0000 O   0  0  0  0  0  0  0  0  0  0  0  0
    2.0875    4.2542    0.0000 C   0  0  0  0  0  0  0  0  0  0  0  0
   -0.5958    1.6833    0.0000 C   0  0  0  0  0  0  0  0  0  0  0  0
   -1.5208    2.6000    0.0000 C   0  0  0  0  0  0  0  0  0  0  0  0
   -0.9458    1.1083    0.0000 C   0  0  0  0  0  0  0  0  0  0  0  0
   -0.1583    0.0708    0.0000 C   0  0  0  0  0  0  0  0  0  0  0  0
    1.3667    4.4625    0.0000 C   0  0  0  0  0  0  0  0  0  0  0  0
   -2.0458    2.0708    0.0000 C   0  0  0  0  0  0  0  0  0  0  0  0
   -1.1208    1.1583    0.0000 C   0  0  0  0  0  0  0  0  0  0  0  0
    2.9917    3.3333    0.0000 Cl  0  0  0  0  0  0  0  0  0  0  0  0
    0.8292    3.9458    0.0000 C   0  0  0  0  0  0  0  0  0  0  0  0
    2.6292    4.7667    0.0000 Cl  0  0  0  0  0  0  0  0  0  0  0  0
    0.4417    0.5250    0.0000 C   0  0  0  0  0  0  0  0  0  0  0  0
   -0.3458    1.5583    0.0000 C   0  0  0  0  0  0  0  0  0  0  0  0
    0.3417    1.2708    0.0000 C   0  0  0  0  0  0  0  0  0  0  0  0
    0.9417    1.7333    0.0000 C   0  0  0  0  0  0  0  0  0  0  0  0
  2  1  1  0  0  0  0
  3  5  1  0  0  0  0
  4  2  1  0  0  0  0
  5  1  2  0  0  0  0
  6  7  1  0  0  0  0
  7 17  1  0  0  0  0
  8  6  1  0  0  0  0
  9  1  1  0  0  0  0
 10  9  1  0  0  0  0
 11  2  1  0  0  0  0
 12 13  1  0  0  0  0
 13 14  2  0  0  0  0
 14  8  1  0  0  0  0
 15  6  2  0  0  0  0
 16 21  1  0  0  0  0
 17 23  1  0  0  0  0
 18 22  1  0  0  0  0
 19 11  2  0  0  0  0
 20 11  1  0  0  0  0
 21 25  2  0  0  0  0
 22 10  1  0  0  0  0
 23 10  1  0  0  0  0
 24 12  1  0  0  0  0
 25 14  1  0  0  0  0
 26 16  1  0  0  0  0
 27 20  2  0  0  0  0
 28 19  1  0  0  0  0
 29 27  1  0  0  0  0
 30 29  1  0  0  0  0
  4  3  2  0  0  0  0
 18  7  1  0  0  0  0
 28 29  2  0  0  0  0
 16 12  2  0  0  0  0
M  END
> <IDNUMBER>
F5252-0200

> <Chemical_Name>
N-(3,4-dichlorophenyl)-4-{[1-(4-methylphenyl)-1H-1,2,3,4-tetrazol-5-yl]methyl}piperazine-1-carboxamide

> <CAS>
1049364-36-4

> <PriceCoeff>
1.00

> <MW>
446.33

> <Description>
solid

> <FSP3>
0.30

> <clogP>
3.94

> <TPSA>
79.18

> <Acceptor>
4

> <Donor>
2

> <RotBonds>
5

> <HAC>
30

> <Collection>
General

$$$$
F1199-0057
  -ISIS-  06222321142D

 28 31  0  0  0  0  0  0  0  0999 V2000
   -0.0458    0.3958    0.0000 N   0  0  3  0  0  0  0  0  0  0  0  0
   -0.8250    0.6500    0.0000 C   0  0  0  0  0  0  0  0  0  0  0  0
   -1.0833    1.4375    0.0000 C   0  0  0  0  0  0  0  0  0  0  0  0
    0.6250    0.8833    0.0000 C   0  0  0  0  0  0  0  0  0  0  0  0
   -1.4958    0.1708    0.0000 S   0  0  0  0  0  0  0  0  0  0  0  0
    0.2125   -0.3917    0.0000 C   0  0  0  0  0  0  0  0  0  0  0  0
   -1.9083    1.4458    0.0000 C   0  0  0  0  0  0  0  0  0  0  0  0
   -2.1625    0.6583    0.0000 C   0  0  0  0  0  0  0  0  0  0  0  0
    1.0375   -0.3917    0.0000 C   0  0  3  0  0  0  0  0  0  0  0  0
    1.2917    0.3958    0.0000 C   0  0  0  0  0  0  0  0  0  0  0  0
    2.8167   -1.6417    0.0000 C   0  0  0  0  0  0  0  0  0  0  0  0
    1.5167   -1.0542    0.0000 S   0  0  0  0  0  0  0  0  0  0  0  0
   -0.5958    2.1083    0.0000 C   0  0  0  0  0  0  0  0  0  0  0  0
    2.3417   -0.9667    0.0000 C   0  0  0  0  0  0  0  0  0  0  0  0
    2.4792   -2.3917    0.0000 C   0  0  0  0  0  0  0  0  0  0  0  0
   -0.1875    2.8208    0.0000 N   0  0  0  0  0  0  0  0  0  0  0  0
    0.6167    1.7083    0.0000 O   0  0  0  0  0  0  0  0  0  0  0  0
   -0.2750   -1.0542    0.0000 O   0  0  0  0  0  0  0  0  0  0  0  0
    2.9625   -3.0667    0.0000 O   0  0  0  0  0  0  0  0  0  0  0  0
    1.6625   -2.4792    0.0000 O   0  0  0  0  0  0  0  0  0  0  0  0
   -2.4583    2.0500    0.0000 C   0  0  0  0  0  0  0  0  0  0  0  0
   -2.9708    0.4750    0.0000 C   0  0  0  0  0  0  0  0  0  0  0  0
    3.6417   -1.5542    0.0000 C   0  0  0  0  0  0  0  0  0  0  0  0
    2.6667   -0.2167    0.0000 C   0  0  0  0  0  0  0  0  0  0  0  0
   -3.2708    1.8833    0.0000 C   0  0  0  0  0  0  0  0  0  0  0  0
   -3.5208    1.0958    0.0000 C   0  0  0  0  0  0  0  0  0  0  0  0
    3.9792   -0.8000    0.0000 C   0  0  0  0  0  0  0  0  0  0  0  0
    3.4875   -0.1292    0.0000 C   0  0  0  0  0  0  0  0  0  0  0  0
  2  1  1  0  0  0  0
  3  2  2  0  0  0  0
  4  1  1  0  0  0  0
  5  2  1  0  0  0  0
  6  1  1  0  0  0  0
  7  3  1  0  0  0  0
  8  5  1  0  0  0  0
  9  6  1  0  0  0  0
 10  4  1  0  0  0  0
 11 14  2  0  0  0  0
 12  9  1  0  0  0  0
 13  3  1  0  0  0  0
 14 12  1  0  0  0  0
 15 11  1  0  0  0  0
 16 13  3  0  0  0  0
 17  4  2  0  0  0  0
 18  6  2  0  0  0  0
 19 15  2  0  0  0  0
 20 15  1  0  0  0  0
 21  7  1  0  0  0  0
 22  8  1  0  0  0  0
 23 11  1  0  0  0  0
 24 14  1  0  0  0  0
 25 21  1  0  0  0  0
 26 22  1  0  0  0  0
 27 28  1  0  0  0  0
 28 24  2  0  0  0  0
 10  9  1  0  0  0  0
  7  8  2  0  0  0  0
 26 25  1  0  0  0  0
 27 23  2  0  0  0  0
M  END
> <IDNUMBER>
F1199-0057

> <Chemical_Name>
2-{[1-(3-cyano-4,5,6,7-tetrahydro-1-benzothiophen-2-yl)-2,5-dioxopyrrolidin-3-yl]sulfanyl}benzoic acid

> <CAS>
459421-31-9

> <PriceCoeff>
1.00

> <MW>
412.48

> <Description>
solid

> <FSP3>
0.30

> <clogP>
3.47

> <TPSA>
152.01

> <Acceptor>
5

> <Donor>
0

> <RotBonds>
4

> <HAC>
28

> <Collection>
General

$$$$
F1383-0007
  -ISIS-  06222321142D

 29 31  0  0  0  0  0  0  0  0999 V2000
    5.2375   -2.2042    0.0000 N   0  0  3  0  0  0  0  0  0  0  0  0
    5.9917   -2.5417    0.0000 C   0  0  0  0  0  0  0  0  0  0  0  0
    5.3167   -1.3792    0.0000 C   0  0  0  0  0  0  0  0  0  0  0  0
    6.5500   -1.9250    0.0000 C   0  0  3  0  0  0  0  0  0  0  0  0
    6.1292   -1.2042    0.0000 C   0  0  0  0  0  0  0  0  0  0  0  0
    8.5292   -2.8292    0.0000 C   0  0  0  0  0  0  0  0  0  0  0  0
    7.3667   -2.0042    0.0000 S   0  0  0  0  0  0  0  0  0  0  0  0
    7.7125   -2.7542    0.0000 C   0  0  0  0  0  0  0  0  0  0  0  0
    9.0042   -2.1542    0.0000 C   0  0  0  0  0  0  0  0  0  0  0  0
    4.5250   -2.6250    0.0000 C   0  0  0  0  0  0  0  0  0  0  0  0
    1.6542   -2.6292    0.0000 C   0  0  0  0  0  0  0  0  0  0  0  0
    6.1667   -3.3542    0.0000 O   0  0  0  0  0  0  0  0  0  0  0  0
    4.7042   -0.8292    0.0000 O   0  0  0  0  0  0  0  0  0  0  0  0
    1.6542   -3.4542    0.0000 C   0  0  0  0  0  0  0  0  0  0  0  0
    8.6625   -1.4042    0.0000 O   0  0  0  0  0  0  0  0  0  0  0  0
    2.3667   -2.2167    0.0000 C   0  0  0  0  0  0  0  0  0  0  0  0
    2.3792   -3.8750    0.0000 C   0  0  0  0  0  0  0  0  0  0  0  0
    3.0917   -2.6292    0.0000 C   0  0  0  0  0  0  0  0  0  0  0  0
    3.8042   -2.2125    0.0000 C   0  0  0  0  0  0  0  0  0  0  0  0
    9.8292   -2.2375    0.0000 O   0  0  0  0  0  0  0  0  0  0  0  0
    3.0917   -3.4542    0.0000 C   0  0  0  0  0  0  0  0  0  0  0  0
    0.9375   -2.2167    0.0000 O   0  0  0  0  0  0  0  0  0  0  0  0
    8.8667   -3.5792    0.0000 C   0  0  0  0  0  0  0  0  0  0  0  0
    0.9417   -3.8792    0.0000 O   0  0  0  0  0  0  0  0  0  0  0  0
    7.2250   -3.4250    0.0000 C   0  0  0  0  0  0  0  0  0  0  0  0
    0.9292   -1.3875    0.0000 C   0  0  0  0  0  0  0  0  0  0  0  0
    0.2167   -3.4667    0.0000 C   0  0  0  0  0  0  0  0  0  0  0  0
    8.3875   -4.2542    0.0000 C   0  0  0  0  0  0  0  0  0  0  0  0
    7.5667   -4.1750    0.0000 C   0  0  0  0  0  0  0  0  0  0  0  0
  2  1  1  0  0  0  0
  3  1  1  0  0  0  0
  4  2  1  0  0  0  0
  5  3  1  0  0  0  0
  6  8  1  0  0  0  0
  7  4  1  0  0  0  0
  8  7  1  0  0  0  0
  9  6  1  0  0  0  0
 10  1  1  0  0  0  0
 11 16  1  0  0  0  0
 12  2  2  0  0  0  0
 13  3  2  0  0  0  0
 14 17  1  0  0  0  0
 15  9  2  0  0  0  0
 16 18  2  0  0  0  0
 17 21  2  0  0  0  0
 18 19  1  0  0  0  0
 19 10  1  0  0  0  0
 20  9  1  0  0  0  0
 21 18  1  0  0  0  0
 22 11  1  0  0  0  0
 23  6  2  0  0  0  0
 24 14  1  0  0  0  0
 25  8  2  0  0  0  0
 26 22  1  0  0  0  0
 27 24  1  0  0  0  0
 28 29  2  0  0  0  0
 29 25  1  0  0  0  0
  5  4  1  0  0  0  0
 14 11  2  0  0  0  0
 28 23  1  0  0  0  0
M  END
> <IDNUMBER>
F1383-0007

> <Chemical_Name>
2-({1-[2-(3,4-dimethoxyphenyl)ethyl]-2,5-dioxopyrrolidin-3-yl}sulfanyl)benzoic acid

> <CAS>
526190-70-5

> <PriceCoeff>
1.00

> <MW>
415.46

> <Description>
solid

> <FSP3>
0.29

> <clogP>
2.99

> <TPSA>
118.44

> <Acceptor>
6

> <Donor>
0

> <RotBonds>
8

> <HAC>
29

> <Collection>
General

$$$$
F3210-0017
  -ISIS-  06222321152D

 28 30  0  0  0  0  0  0  0  0999 V2000
    4.3917   -2.2792    0.0000 C   0  0  0  0  0  0  0  0  0  0  0  0
    3.5042   -3.2750    0.0000 C   0  0  0  0  0  0  0  0  0  0  0  0
    5.4625    0.0250    0.0000 N   0  0  0  0  0  0  0  0  0  0  0  0
    5.8792   -0.6792    0.0000 C   0  0  0  0  0  0  0  0  0  0  0  0
    3.5875   -2.4542    0.0000 C   0  0  0  0  0  0  0  0  0  0  0  0
    4.7292   -1.5250    0.0000 C   0  0  0  0  0  0  0  0  0  0  0  0
    2.0667   -2.4500    0.0000 N   0  3  0  0  0  0  0  0  0  0  0  0
    2.7917   -3.6917    0.0000 C   0  0  0  0  0  0  0  0  0  0  0  0
    4.8042   -2.9917    0.0000 C   0  0  0  0  0  0  0  0  0  0  0  0
    2.0792   -3.2792    0.0000 C   0  0  0  0  0  0  0  0  0  0  0  0
    5.5417   -1.4375    0.0000 N   0  0  0  0  0  0  0  0  0  0  0  0
    4.2542   -3.6042    0.0000 O   0  0  0  0  0  0  0  0  0  0  0  0
    6.0125    0.6458    0.0000 C   0  0  0  0  0  0  0  0  0  0  0  0
    6.7667    0.3083    0.0000 N   0  0  0  0  0  0  0  0  0  0  0  0
    6.6792   -0.5125    0.0000 S   0  0  0  0  0  0  0  0  0  0  0  0
    5.8375    1.4500    0.0000 C   0  0  0  0  0  0  0  0  0  0  0  0
    1.3667   -3.6917    0.0000 C   0  0  0  0  0  0  0  0  0  0  0  0
    2.7917   -4.5167    0.0000 C   0  0  0  0  0  0  0  0  0  0  0  0
    2.7875   -2.0375    0.0000 O   0  5  0  0  0  0  0  0  0  0  0  0
    1.3542   -2.0417    0.0000 O   0  0  0  0  0  0  0  0  0  0  0  0
    4.2417   -0.8625    0.0000 O   0  0  0  0  0  0  0  0  0  0  0  0
    6.4500    2.0083    0.0000 C   0  0  0  0  0  0  0  0  0  0  0  0
    7.2292    1.7500    0.0000 O   0  0  0  0  0  0  0  0  0  0  0  0
    1.3667   -4.5167    0.0000 C   0  0  0  0  0  0  0  0  0  0  0  0
    2.0792   -4.9292    0.0000 C   0  0  0  0  0  0  0  0  0  0  0  0
    0.6500   -4.9292    0.0000 Cl  0  0  0  0  0  0  0  0  0  0  0  0
    5.6292   -3.0792    0.0000 C   0  0  0  0  0  0  0  0  0  0  0  0
    6.2750    2.8083    0.0000 C   0  0  0  0  0  0  0  0  0  0  0  0
  2  5  2  0  0  0  0
  3  4  2  0  0  0  0
  4 11  1  0  0  0  0
  5  1  1  0  0  0  0
  6  1  1  0  0  0  0
  7 10  1  0  0  0  0
  8  2  1  0  0  0  0
  9  1  2  0  0  0  0
 10  8  2  0  0  0  0
 11  6  1  0  0  0  0
 12  9  1  0  0  0  0
 13  3  1  0  0  0  0
 14 15  1  0  0  0  0
 15  4  1  0  0  0  0
 16 13  1  0  0  0  0
 17 10  1  0  0  0  0
 18  8  1  0  0  0  0
 19  7  1  0  0  0  0
 20  7  2  0  0  0  0
 21  6  2  0  0  0  0
 22 16  1  0  0  0  0
 23 22  2  0  0  0  0
 24 25  1  0  0  0  0
 25 18  2  0  0  0  0
 26 24  1  0  0  0  0
 27  9  1  0  0  0  0
 28 22  1  0  0  0  0
 12  2  1  0  0  0  0
 13 14  2  0  0  0  0
 24 17  2  0  0  0  0
M  CHG  2   7   1  19  -1
M  END
> <IDNUMBER>
F3210-0017

> <Chemical_Name>
5-(4-chloro-2-nitrophenyl)-2-methyl-N-[3-(2-oxopropyl)-1,2,4-thiadiazol-5-yl]furan-3-carboxamide

> <CAS>
900136-75-6

> <PriceCoeff>
1.00

> <MW>
420.83

> <Description>
solid

> <FSP3>
0.18

> <clogP>
2.40

> <TPSA>
156.47

> <Acceptor>
7

> <Donor>
1

> <RotBonds>
6

> <HAC>
28

> <Collection>
General

$$$$
F2019-1588
  -ISIS-  06222304352D

 35 38  0  0  0  0  0  0  0  0999 V2000
   -3.1583    2.9833    0.0000 C   0  0  0  0  0  0  0  0  0  0  0  0
   -2.4375    2.5625    0.0000 N   0  0  3  0  0  0  0  0  0  0  0  0
   -3.9125    2.6458    0.0000 N   0  0  0  0  0  0  0  0  0  0  0  0
   -0.2958    0.4958    0.0000 N   0  0  3  0  0  0  0  0  0  0  0  0
   -3.2458    3.8083    0.0000 S   0  0  0  0  0  0  0  0  0  0  0  0
   -1.7250    2.9833    0.0000 C   0  0  0  0  0  0  0  0  0  0  0  0
   -4.4708    3.2583    0.0000 C   0  0  0  0  0  0  0  0  0  0  0  0
   -4.0583    3.9708    0.0000 C   0  0  0  0  0  0  0  0  0  0  0  0
   -0.2958    1.3333    0.0000 C   0  0  0  0  0  0  0  0  0  0  0  0
    0.3500   -0.0167    0.0000 C   0  0  0  0  0  0  0  0  0  0  0  0
   -0.9958    0.0458    0.0000 C   0  0  0  0  0  0  0  0  0  0  0  0
   -1.0125    2.5625    0.0000 C   0  0  0  0  0  0  0  0  0  0  0  0
   -5.2833    3.2500    0.0000 C   0  0  0  0  0  0  0  0  0  0  0  0
   -4.4708    4.6792    0.0000 C   0  0  0  0  0  0  0  0  0  0  0  0
   -5.2958    4.6667    0.0000 C   0  0  0  0  0  0  0  0  0  0  0  0
   -5.7083    3.9583    0.0000 C   0  0  0  0  0  0  0  0  0  0  0  0
   -1.0083    1.7458    0.0000 C   0  0  0  0  0  0  0  0  0  0  0  0
   -5.8500    5.2792    0.0000 O   0  0  0  0  0  0  0  0  0  0  0  0
   -6.5042    4.1250    0.0000 O   0  0  0  0  0  0  0  0  0  0  0  0
   -1.7250    3.8000    0.0000 O   0  0  0  0  0  0  0  0  0  0  0  0
   -6.5917    4.9417    0.0000 C   0  0  0  0  0  0  0  0  0  0  0  0
    0.0667   -0.7917    0.0000 C   0  0  0  0  0  0  0  0  0  0  0  0
   -0.7583   -0.7667    0.0000 C   0  0  0  0  0  0  0  0  0  0  0  0
    1.1417    0.1958    0.0000 O   0  0  0  0  0  0  0  0  0  0  0  0
   -1.7583    0.3333    0.0000 O   0  0  0  0  0  0  0  0  0  0  0  0
   -2.4375    1.7375    0.0000 C   0  0  0  0  0  0  0  0  0  0  0  0
   -3.1583    1.3250    0.0000 C   0  0  0  0  0  0  0  0  0  0  0  0
   -3.8708    0.0875    0.0000 N   0  0  3  0  0  0  0  0  0  0  0  0
    0.4167    1.7333    0.0000 C   0  0  0  0  0  0  0  0  0  0  0  0
   -0.2875    2.9833    0.0000 C   0  0  0  0  0  0  0  0  0  0  0  0
   -3.1583    0.5000    0.0000 C   0  0  0  0  0  0  0  0  0  0  0  0
    0.4250    2.5625    0.0000 C   0  0  0  0  0  0  0  0  0  0  0  0
   -3.8708   -0.7375    0.0000 C   0  0  0  0  0  0  0  0  0  0  0  0
   -4.5833    0.5000    0.0000 C   0  0  0  0  0  0  0  0  0  0  0  0
    2.6584    2.3958    0.0000 Cl  0  0  0  0  0  0  0  0  0  0  0  0
  3  1  2  0  0  0  0
  4  9  1  0  0  0  0
  5  1  1  0  0  0  0
  6  2  1  0  0  0  0
  7  3  1  0  0  0  0
  8  5  1  0  0  0  0
  9 17  1  0  0  0  0
 10  4  1  0  0  0  0
 11  4  1  0  0  0  0
 12  6  1  0  0  0  0
 13  7  1  0  0  0  0
 14  8  1  0  0  0  0
 15 14  2  0  0  0  0
 16 13  2  0  0  0  0
 17 12  2  0  0  0  0
 18 15  1  0  0  0  0
 19 16  1  0  0  0  0
 20  6  2  0  0  0  0
 21 18  1  0  0  0  0
 22 10  1  0  0  0  0
 23 11  1  0  0  0  0
 24 10  2  0  0  0  0
 25 11  2  0  0  0  0
 26  2  1  0  0  0  0
 27 26  1  0  0  0  0
 28 31  1  0  0  0  0
 29 32  1  0  0  0  0
 30 12  1  0  0  0  0
 31 27  1  0  0  0  0
 32 30  2  0  0  0  0
 33 28  1  0  0  0  0
 34 28  1  0  0  0  0
  8  7  2  0  0  0  0
 15 16  1  0  0  0  0
 19 21  1  0  0  0  0
  9 29  2  0  0  0  0
 23 22  1  0  0  0  0
  2  1  1  0  0  0  0
M  END
> <IDNUMBER>
F2019-1588

> <Chemical_Name>
N-[3-(dimethylamino)propyl]-N-{4,6-dioxa-10-thia-12-azatricyclo[7.3.0.0^{3,7}]dodeca-1(9),2,7,11-tetraen-11-yl}-3-(2,5-dioxopyrrolidin-1-yl)benzamide hydrochloride

> <CAS>
1052537-38-8

> <PriceCoeff>
1.00

> <MW>
480.54

> <Description>
solid

> <FSP3>
0.33

> <clogP>
1.94

> <TPSA>
120.52

> <Acceptor>
6

> <Donor>
1

> <RotBonds>
8

> <HAC>
34

> <Collection>
General

$$$$
F0466-0043
  -ISIS-  06222321142D

 31 34  0  0  0  0  0  0  0  0999 V2000
   -1.5458    2.1958    0.0000 N   0  0  3  0  0  0  0  0  0  0  0  0
    0.6667    1.9125    0.0000 C   0  0  0  0  0  0  0  0  0  0  0  0
   -1.1625    2.0958    0.0000 C   0  0  0  0  0  0  0  0  0  0  0  0
    0.9500    2.1958    0.0000 C   0  0  0  0  0  0  0  0  0  0  0  0
   -1.8208    1.9125    0.0000 C   0  0  0  0  0  0  0  0  0  0  0  0
   -1.7208    2.5333    0.0000 C   0  0  0  0  0  0  0  0  0  0  0  0
   -0.2208    2.5333    0.0000 C   0  0  0  0  0  0  0  0  0  0  0  0
    0.3000    2.0208    0.0000 C   0  0  0  0  0  0  0  0  0  0  0  0
    0.1667    2.4333    0.0000 N   0  0  0  0  0  0  0  0  0  0  0  0
   -0.8833    2.3708    0.0000 C   0  0  0  0  0  0  0  0  0  0  0  0
   -0.5000    2.2500    0.0000 C   0  0  0  0  0  0  0  0  0  0  0  0
    0.8000    1.5333    0.0000 C   0  0  0  0  0  0  0  0  0  0  0  0
   -0.3208    2.9125    0.0000 O   0  0  0  0  0  0  0  0  0  0  0  0
    0.8500    2.5708    0.0000 O   0  0  0  0  0  0  0  0  0  0  0  0
   -2.1208    2.4708    0.0000 C   0  0  0  0  0  0  0  0  0  0  0  0
   -2.1625    2.0958    0.0000 C   0  0  0  0  0  0  0  0  0  0  0  0
   -1.7833    1.5125    0.0000 O   0  0  0  0  0  0  0  0  0  0  0  0
   -1.5625    2.9125    0.0000 O   0  0  0  0  0  0  0  0  0  0  0  0
    1.3292    2.0958    0.0000 C   0  0  0  0  0  0  0  0  0  0  0  0
    0.0042    1.7333    0.0000 C   0  0  0  0  0  0  0  0  0  0  0  0
    0.5042    1.2500    0.0000 C   0  0  0  0  0  0  0  0  0  0  0  0
    0.1292    1.3500    0.0000 C   0  0  0  0  0  0  0  0  0  0  0  0
   -1.0625    1.7125    0.0000 C   0  0  0  0  0  0  0  0  0  0  0  0
   -0.4000    1.8708    0.0000 C   0  0  0  0  0  0  0  0  0  0  0  0
   -0.6833    1.6125    0.0000 C   0  0  0  0  0  0  0  0  0  0  0  0
    1.6042    2.3500    0.0000 C   0  0  0  0  0  0  0  0  0  0  0  0
    1.4292    1.7125    0.0000 C   0  0  0  0  0  0  0  0  0  0  0  0
    0.6042    0.8500    0.0000 C   0  0  0  0  0  0  0  0  0  0  0  0
    1.8042    1.5958    0.0000 C   0  0  0  0  0  0  0  0  0  0  0  0
    2.0000    2.2500    0.0000 C   0  0  0  0  0  0  0  0  0  0  0  0
    2.1000    1.8708    0.0000 C   0  0  0  0  0  0  0  0  0  0  0  0
  2  8  1  0  0  0  0
  3  1  1  0  0  0  0
  4  2  1  0  0  0  0
  5  1  1  0  0  0  0
  6  1  1  0  0  0  0
  7 11  1  0  0  0  0
  8  9  1  0  0  0  0
  9  7  1  0  0  0  0
 10  3  2  0  0  0  0
 11 10  1  0  0  0  0
 12  2  2  0  0  0  0
 13  7  2  0  0  0  0
 14  4  2  0  0  0  0
 15  6  1  0  0  0  0
 16  5  1  0  0  0  0
 17  5  2  0  0  0  0
 18  6  2  0  0  0  0
 19  4  1  0  0  0  0
 20  8  2  0  0  0  0
 21 22  2  0  0  0  0
 22 20  1  0  0  0  0
 23  3  1  0  0  0  0
 24 25  1  0  0  0  0
 25 23  2  0  0  0  0
 26 19  1  0  0  0  0
 27 19  2  0  0  0  0
 28 21  1  0  0  0  0
 29 27  1  0  0  0  0
 30 26  2  0  0  0  0
 31 29  2  0  0  0  0
 15 16  1  0  0  0  0
 11 24  2  0  0  0  0
 21 12  1  0  0  0  0
 31 30  1  0  0  0  0
M  END
> <IDNUMBER>
F0466-0043

> <Chemical_Name>
N-(2-benzoyl-4-methylphenyl)-3-(2,5-dioxopyrrolidin-1-yl)benzamide

> <CAS>
391867-75-7

> <PriceCoeff>
1.00

> <MW>
412.44

> <Description>
solid

> <FSP3>
0.12

> <clogP>
3.23

> <TPSA>
83.55

> <Acceptor>
4

> <Donor>
1

> <RotBonds>
5

> <HAC>
31

> <Collection>
General

$$$$
F3023-0304
  -ISIS-  06222321462D

 29 31  0  0  0  0  0  0  0  0999 V2000
    8.8500   -5.7750    0.0000 N   0  0  3  0  0  0  0  0  0  0  0  0
    7.8042   -5.1625    0.0000 C   0  0  0  0  0  0  0  0  0  0  0  0
    9.2667   -5.1917    0.0000 C   0  0  0  0  0  0  0  0  0  0  0  0
    8.1292   -5.7792    0.0000 C   0  0  0  0  0  0  0  0  0  0  0  0
    9.2750   -6.3542    0.0000 C   0  0  0  0  0  0  0  0  0  0  0  0
    7.8417   -4.5292    0.0000 N   0  3  0  0  0  0  0  0  0  0  0  0
    9.9542   -6.1292    0.0000 C   0  0  3  0  0  0  0  0  0  0  0  0
    9.9542   -5.4125    0.0000 C   0  0  0  0  0  0  0  0  0  0  0  0
   11.1917   -6.2500    0.0000 C   0  0  0  0  0  0  0  0  0  0  0  0
   11.7667   -6.6667    0.0000 C   0  0  0  0  0  0  0  0  0  0  0  0
   10.5375   -6.5417    0.0000 S   0  0  0  0  0  0  0  0  0  0  0  0
   11.7000   -7.3875    0.0000 C   0  0  0  0  0  0  0  0  0  0  0  0
    7.0542   -5.1667    0.0000 C   0  0  0  0  0  0  0  0  0  0  0  0
    7.7792   -6.4000    0.0000 C   0  0  0  0  0  0  0  0  0  0  0  0
   11.2542   -5.5417    0.0000 N   0  0  0  0  0  0  0  0  0  0  0  0
    8.4417   -4.5292    0.0000 O   0  5  0  0  0  0  0  0  0  0  0  0
    9.0417   -4.5042    0.0000 O   0  0  0  0  0  0  0  0  0  0  0  0
    7.5375   -3.9167    0.0000 O   0  0  0  0  0  0  0  0  0  0  0  0
    9.0542   -7.0375    0.0000 O   0  0  0  0  0  0  0  0  0  0  0  0
   12.2792   -7.8042    0.0000 O   0  0  0  0  0  0  0  0  0  0  0  0
    6.7042   -5.7875    0.0000 C   0  0  0  0  0  0  0  0  0  0  0  0
    7.0667   -6.4042    0.0000 C   0  0  0  0  0  0  0  0  0  0  0  0
   11.0417   -7.6792    0.0000 O   0  0  0  0  0  0  0  0  0  0  0  0
   12.4250   -6.3750    0.0000 C   0  0  0  0  0  0  0  0  0  0  0  0
    5.9875   -5.7917    0.0000 O   0  0  0  0  0  0  0  0  0  0  0  0
   11.9042   -5.2417    0.0000 C   0  0  0  0  0  0  0  0  0  0  0  0
    5.6250   -5.1750    0.0000 C   0  0  0  0  0  0  0  0  0  0  0  0
   12.4917   -5.6625    0.0000 C   0  0  0  0  0  0  0  0  0  0  0  0
    4.9042   -5.1792    0.0000 C   0  0  0  0  0  0  0  0  0  0  0  0
  2  4  2  0  0  0  0
  3  1  1  0  0  0  0
  4  1  1  0  0  0  0
  5  1  1  0  0  0  0
  6  2  1  0  0  0  0
  7  5  1  0  0  0  0
  8  3  1  0  0  0  0
  9 11  1  0  0  0  0
 10  9  2  0  0  0  0
 11  7  1  0  0  0  0
 12 10  1  0  0  0  0
 13  2  1  0  0  0  0
 14  4  1  0  0  0  0
 15  9  1  0  0  0  0
 16  6  1  0  0  0  0
 17  3  2  0  0  0  0
 18  6  2  0  0  0  0
 19  5  2  0  0  0  0
 20 12  2  0  0  0  0
 21 22  1  0  0  0  0
 22 14  2  0  0  0  0
 23 12  1  0  0  0  0
 24 10  1  0  0  0  0
 25 21  1  0  0  0  0
 26 15  2  0  0  0  0
 27 25  1  0  0  0  0
 28 26  1  0  0  0  0
 29 27  1  0  0  0  0
  8  7  1  0  0  0  0
 21 13  2  0  0  0  0
 28 24  2  0  0  0  0
M  CHG  2   6   1  16  -1
M  END
> <IDNUMBER>
F3023-0304

> <Chemical_Name>
2-{[1-(4-ethoxy-2-nitrophenyl)-2,5-dioxopyrrolidin-3-yl]sulfanyl}pyridine-3-carboxylic acid

> <CAS>
500201-80-9

> <PriceCoeff>
1.00

> <MW>
417.39

> <Description>
solid

> <FSP3>
0.22

> <clogP>
2.45

> <TPSA>
165.24

> <Acceptor>
8

> <Donor>
1

> <RotBonds>
7

> <HAC>
29

> <Collection>
General

$$$$
F3385-0117
  -ISIS-  06222321462D

 28 31  0  0  0  0  0  0  0  0999 V2000
    0.7042   -3.2917    0.0000 C   0  0  0  0  0  0  0  0  0  0  0  0
   -0.7250   -2.4667    0.0000 C   0  0  0  0  0  0  0  0  0  0  0  0
   -0.7250   -3.2917    0.0000 C   0  0  0  0  0  0  0  0  0  0  0  0
   -0.0125   -3.7042    0.0000 C   0  0  0  0  0  0  0  0  0  0  0  0
   -1.4375   -2.0542    0.0000 C   0  0  0  0  0  0  0  0  0  0  0  0
   -0.0125   -2.0542    0.0000 O   0  0  0  0  0  0  0  0  0  0  0  0
    0.7042   -2.4667    0.0000 C   0  0  0  0  0  0  0  0  0  0  0  0
   -1.4375   -1.2292    0.0000 C   0  0  0  0  0  0  0  0  0  0  0  0
   -1.4375   -3.7042    0.0000 C   0  0  0  0  0  0  0  0  0  0  0  0
    1.4167   -3.7042    0.0000 C   0  0  0  0  0  0  0  0  0  0  0  0
   -0.7250   -0.8167    0.0000 N   0  0  3  0  0  0  0  0  0  0  0  0
   -2.1583   -2.4667    0.0000 C   0  0  0  0  0  0  0  0  0  0  0  0
   -0.0125   -4.5292    0.0000 O   0  0  0  0  0  0  0  0  0  0  0  0
   -2.1583   -3.2917    0.0000 C   0  0  0  0  0  0  0  0  0  0  0  0
    2.1292   -3.2917    0.0000 C   0  0  0  0  0  0  0  0  0  0  0  0
    1.4167   -4.5292    0.0000 C   0  0  0  0  0  0  0  0  0  0  0  0
    2.8500   -4.5292    0.0000 C   0  0  0  0  0  0  0  0  0  0  0  0
    2.1292   -4.9417    0.0000 C   0  0  0  0  0  0  0  0  0  0  0  0
    2.8500   -3.7042    0.0000 C   0  0  0  0  0  0  0  0  0  0  0  0
   -2.8750   -2.0542    0.0000 O   0  0  0  0  0  0  0  0  0  0  0  0
    3.5750   -4.9500    0.0000 O   0  0  0  0  0  0  0  0  0  0  0  0
   -0.0833   -1.3292    0.0000 C   0  0  0  0  0  0  0  0  0  0  0  0
   -0.7250    0.0125    0.0000 C   0  0  0  0  0  0  0  0  0  0  0  0
    3.5792   -5.7792    0.0000 C   0  0  0  0  0  0  0  0  0  0  0  0
    0.7167   -1.1417    0.0000 C   0  0  0  0  0  0  0  0  0  0  0  0
   -0.0833    0.5250    0.0000 C   0  0  0  0  0  0  0  0  0  0  0  0
    1.0750   -0.4042    0.0000 C   0  0  0  0  0  0  0  0  0  0  0  0
    0.7167    0.3458    0.0000 C   0  0  0  0  0  0  0  0  0  0  0  0
  2  6  1  0  0  0  0
  3  4  1  0  0  0  0
  4  1  1  0  0  0  0
  5  2  2  0  0  0  0
  6  7  1  0  0  0  0
  7  1  2  0  0  0  0
  8  5  1  0  0  0  0
  9  3  2  0  0  0  0
 10  1  1  0  0  0  0
 11  8  1  0  0  0  0
 12  5  1  0  0  0  0
 13  4  2  0  0  0  0
 14  9  1  0  0  0  0
 15 10  1  0  0  0  0
 16 10  2  0  0  0  0
 17 18  2  0  0  0  0
 18 16  1  0  0  0  0
 19 15  2  0  0  0  0
 20 12  1  0  0  0  0
 21 17  1  0  0  0  0
 22 11  1  0  0  0  0
 23 11  1  0  0  0  0
 24 21  1  0  0  0  0
 25 22  1  0  0  0  0
 26 23  1  0  0  0  0
 27 25  1  0  0  0  0
 28 26  1  0  0  0  0
  2  3  1  0  0  0  0
 17 19  1  0  0  0  0
 12 14  2  0  0  0  0
 27 28  1  0  0  0  0
M  END
> <IDNUMBER>
F3385-0117

> <Chemical_Name>
8-[(azepan-1-yl)methyl]-7-hydroxy-3-(4-methoxyphenyl)-4H-chromen-4-one

> <CAS>
637753-60-7

> <PriceCoeff>
1.00

> <MW>
379.45

> <Description>
solid

> <FSP3>
0.35

> <clogP>
4.18

> <TPSA>
59.00

> <Acceptor>
4

> <Donor>
2

> <RotBonds>
4

> <HAC>
28

> <Collection>
General

> <Reference_compound>
CHEMBL463936

> <Similarity>
0.8060

$$$$
F0343-0002
  -ISIS-  06222321142D

 19 22  0  0  0  0  0  0  0  0999 V2000
   -0.5500    1.5500    0.0000 C   0  0  0  0  0  0  0  0  0  0  0  0
   -0.9333    1.0333    0.0000 N   0  0  0  0  0  0  0  0  0  0  0  0
   -0.9333    2.0708    0.0000 S   0  0  0  0  0  0  0  0  0  0  0  0
    0.4042    1.0000    0.0000 N   0  0  0  0  0  0  0  0  0  0  0  0
    0.0792    1.5500    0.0000 C   0  0  0  0  0  0  0  0  0  0  0  0
   -1.5333    1.2333    0.0000 C   0  0  0  0  0  0  0  0  0  0  0  0
   -1.5333    1.8708    0.0000 C   0  0  0  0  0  0  0  0  0  0  0  0
    1.0500    1.0208    0.0000 C   0  0  0  0  0  0  0  0  0  0  0  0
    0.3792    2.1000    0.0000 C   0  0  0  0  0  0  0  0  0  0  0  0
    1.3500    1.5625    0.0000 C   0  0  0  0  0  0  0  0  0  0  0  0
    1.0167    2.1000    0.0000 C   0  0  0  0  0  0  0  0  0  0  0  0
   -2.0958    0.9125    0.0000 C   0  0  0  0  0  0  0  0  0  0  0  0
   -2.0958    2.1958    0.0000 C   0  0  0  0  0  0  0  0  0  0  0  0
    1.3792    0.4708    0.0000 C   0  0  0  0  0  0  0  0  0  0  0  0
    1.9875    1.5625    0.0000 C   0  0  0  0  0  0  0  0  0  0  0  0
   -2.6500    1.8708    0.0000 C   0  0  0  0  0  0  0  0  0  0  0  0
   -2.6500    1.2333    0.0000 C   0  0  0  0  0  0  0  0  0  0  0  0
    2.0167    0.4833    0.0000 C   0  0  0  0  0  0  0  0  0  0  0  0
    2.3167    1.0333    0.0000 C   0  0  0  0  0  0  0  0  0  0  0  0
  2  1  2  0  0  0  0
  3  1  1  0  0  0  0
  4  5  1  0  0  0  0
  5  1  1  0  0  0  0
  6  2  1  0  0  0  0
  7  3  1  0  0  0  0
  8  4  2  0  0  0  0
  9  5  2  0  0  0  0
 10 11  2  0  0  0  0
 11  9  1  0  0  0  0
 12  6  1  0  0  0  0
 13  7  1  0  0  0  0
 14  8  1  0  0  0  0
 15 10  1  0  0  0  0
 16 13  2  0  0  0  0
 17 12  2  0  0  0  0
 18 14  2  0  0  0  0
 19 15  2  0  0  0  0
  7  6  2  0  0  0  0
  8 10  1  0  0  0  0
 17 16  1  0  0  0  0
 18 19  1  0  0  0  0
M  END
> <IDNUMBER>
F0343-0002

> <Chemical_Name>
2-(1,3-benzothiazol-2-yl)quinoline

> <CAS>
24613-99-8

> <PriceCoeff>
1.00

> <MW>
262.33

> <Description>
solid

> <FSP3>
0.00

> <clogP>
4.36

> <TPSA>
54.02

> <Acceptor>
2

> <Donor>
1

> <RotBonds>
1

> <HAC>
19

> <Collection>
General

> <Reference_compound>
CHEMBL2269945

> <Similarity>
1.0000

$$$$
F3023-0383
  -ISIS-  06222321152D

 23 25  0  0  0  0  0  0  0  0999 V2000
    4.8000   -4.5917    0.0000 N   0  0  3  0  0  0  0  0  0  0  0  0
    4.3792   -4.0042    0.0000 C   0  0  0  0  0  0  0  0  0  0  0  0
    4.3750   -5.1750    0.0000 C   0  0  0  0  0  0  0  0  0  0  0  0
    3.6917   -4.9417    0.0000 C   0  0  3  0  0  0  0  0  0  0  0  0
    3.6917   -4.2292    0.0000 C   0  0  0  0  0  0  0  0  0  0  0  0
    5.5167   -4.6000    0.0000 C   0  0  0  0  0  0  0  0  0  0  0  0
    3.1125   -5.3667    0.0000 N   0  0  0  0  0  0  0  0  0  0  0  0
    4.6042   -3.3292    0.0000 O   0  0  0  0  0  0  0  0  0  0  0  0
    4.5917   -5.8542    0.0000 O   0  0  0  0  0  0  0  0  0  0  0  0
    5.8667   -3.9792    0.0000 C   0  0  0  0  0  0  0  0  0  0  0  0
    2.4542   -5.0667    0.0000 C   0  0  0  0  0  0  0  0  0  0  0  0
    5.5167   -3.3625    0.0000 Cl  0  0  0  0  0  0  0  0  0  0  0  0
    1.1542   -4.4792    0.0000 C   0  0  0  0  0  0  0  0  0  0  0  0
    2.3917   -4.3542    0.0000 C   0  0  0  0  0  0  0  0  0  0  0  0
    1.8792   -5.4875    0.0000 C   0  0  0  0  0  0  0  0  0  0  0  0
    1.2292   -5.1917    0.0000 C   0  0  0  0  0  0  0  0  0  0  0  0
    1.7417   -4.0625    0.0000 C   0  0  0  0  0  0  0  0  0  0  0  0
    5.8667   -5.2250    0.0000 C   0  0  0  0  0  0  0  0  0  0  0  0
    6.5875   -3.9792    0.0000 C   0  0  0  0  0  0  0  0  0  0  0  0
    0.5042   -4.1792    0.0000 C   0  0  0  0  0  0  0  0  0  0  0  0
    6.5792   -5.2292    0.0000 C   0  0  0  0  0  0  0  0  0  0  0  0
   -0.0833   -4.6042    0.0000 C   0  0  0  0  0  0  0  0  0  0  0  0
    6.9417   -4.6042    0.0000 C   0  0  0  0  0  0  0  0  0  0  0  0
  2  1  1  0  0  0  0
  3  1  1  0  0  0  0
  4  3  1  0  0  0  0
  5  2  1  0  0  0  0
  6  1  1  0  0  0  0
  7  4  1  0  0  0  0
  8  2  2  0  0  0  0
  9  3  2  0  0  0  0
 10  6  1  0  0  0  0
 11  7  1  0  0  0  0
 12 10  1  0  0  0  0
 13 16  1  0  0  0  0
 14 11  2  0  0  0  0
 15 11  1  0  0  0  0
 16 15  2  0  0  0  0
 17 14  1  0  0  0  0
 18  6  2  0  0  0  0
 19 10  2  0  0  0  0
 20 13  1  0  0  0  0
 21 18  1  0  0  0  0
 22 20  1  0  0  0  0
 23 21  2  0  0  0  0
  4  5  1  0  0  0  0
 23 19  1  0  0  0  0
 13 17  2  0  0  0  0
M  END
> <IDNUMBER>
F3023-0383

> <Chemical_Name>
1-(2-chlorophenyl)-3-[(4-ethylphenyl)amino]pyrrolidine-2,5-dione

> <CAS>
1008036-47-2

> <PriceCoeff>
1.00

> <MW>
328.79

> <Description>
solid

> <FSP3>
0.22

> <clogP>
4.11

> <TPSA>
49.41

> <Acceptor>
3

> <Donor>
1

> <RotBonds>
4

> <HAC>
23

> <Collection>
General

$$$$
F3386-5305
  -ISIS-  06222321152D

 24 26  0  0  0  0  0  0  0  0999 V2000
    6.2167   -2.0167    0.0000 N   0  0  3  0  0  0  0  0  0  0  0  0
    5.3917   -2.0167    0.0000 C   0  0  0  0  0  0  0  0  0  0  0  0
    4.9792   -1.3000    0.0000 C   0  0  0  0  0  0  0  0  0  0  0  0
    6.6292   -2.7292    0.0000 C   0  0  0  0  0  0  0  0  0  0  0  0
    6.6292   -1.3000    0.0000 C   0  0  0  0  0  0  0  0  0  0  0  0
    4.9792   -2.7292    0.0000 O   0  0  0  0  0  0  0  0  0  0  0  0
    5.3917   -0.5917    0.0000 C   0  0  0  0  0  0  0  0  0  0  0  0
    4.1542   -1.3042    0.0000 C   0  0  0  0  0  0  0  0  0  0  0  0
    6.2167   -3.4417    0.0000 C   0  0  0  0  0  0  0  0  0  0  0  0
    7.4542   -1.3000    0.0000 C   0  0  0  0  0  0  0  0  0  0  0  0
    3.7417   -0.5917    0.0000 C   0  0  0  0  0  0  0  0  0  0  0  0
    4.9792    0.1208    0.0000 C   0  0  0  0  0  0  0  0  0  0  0  0
    4.1542    0.1208    0.0000 C   0  0  0  0  0  0  0  0  0  0  0  0
    3.7417    0.8375    0.0000 C   0  0  0  0  0  0  0  0  0  0  0  0
    7.8542   -0.5875    0.0000 C   0  0  0  0  0  0  0  0  0  0  0  0
    5.3917   -3.4417    0.0000 C   0  0  0  0  0  0  0  0  0  0  0  0
    6.6292   -4.1542    0.0000 C   0  0  0  0  0  0  0  0  0  0  0  0
    7.8625   -2.0167    0.0000 C   0  0  0  0  0  0  0  0  0  0  0  0
    4.9792   -4.1542    0.0000 C   0  0  0  0  0  0  0  0  0  0  0  0
    6.2250   -4.8667    0.0000 C   0  0  0  0  0  0  0  0  0  0  0  0
    8.6875   -2.0167    0.0000 C   0  0  0  0  0  0  0  0  0  0  0  0
    8.6792   -0.5792    0.0000 C   0  0  0  0  0  0  0  0  0  0  0  0
    5.3917   -4.8667    0.0000 C   0  0  0  0  0  0  0  0  0  0  0  0
    9.1000   -1.3000    0.0000 C   0  0  0  0  0  0  0  0  0  0  0  0
  2  1  1  0  0  0  0
  3  2  1  0  0  0  0
  4  1  1  0  0  0  0
  5  1  1  0  0  0  0
  6  2  2  0  0  0  0
  7  3  2  0  0  0  0
  8  3  1  0  0  0  0
  9  4  1  0  0  0  0
 10  5  1  0  0  0  0
 11  8  2  0  0  0  0
 12  7  1  0  0  0  0
 13 11  1  0  0  0  0
 14 13  1  0  0  0  0
 15 10  1  0  0  0  0
 16  9  2  0  0  0  0
 17  9  1  0  0  0  0
 18 10  2  0  0  0  0
 19 16  1  0  0  0  0
 20 17  2  0  0  0  0
 21 18  1  0  0  0  0
 22 15  2  0  0  0  0
 23 20  1  0  0  0  0
 24 21  2  0  0  0  0
 24 22  1  0  0  0  0
 19 23  2  0  0  0  0
 12 13  2  0  0  0  0
M  END
> <IDNUMBER>
F3386-5305

> <Chemical_Name>
N,N-dibenzyl-4-methylbenzamide

> <CAS>
88229-28-1

> <PriceCoeff>
1.00

> <MW>
315.42

> <Description>
solid

> <FSP3>
0.14

> <clogP>
5.06

> <TPSA>
20.31

> <Acceptor>
1

> <Donor>
0

> <RotBonds>
6

> <HAC>
24

> <Collection>
General

> <Reference_compound>
CHEMBL1453317

> <Similarity>
0.8720

$$$$
F2899-2239
  -ISIS-  06222321462D

 32 36  0  0  0  0  0  0  0  0999 V2000
   -5.2875    2.9708    0.0000 C   0  0  0  0  0  0  0  0  0  0  0  0
   -4.5833    2.5583    0.0000 N   0  0  3  0  0  0  0  0  0  0  0  0
   -2.4375    0.4958    0.0000 N   0  0  3  0  0  0  0  0  0  0  0  0
   -6.0167    2.6250    0.0000 N   0  0  0  0  0  0  0  0  0  0  0  0
   -5.3750    3.7583    0.0000 S   0  0  0  0  0  0  0  0  0  0  0  0
   -3.8708    2.9708    0.0000 C   0  0  0  0  0  0  0  0  0  0  0  0
   -2.4333    1.3250    0.0000 C   0  0  0  0  0  0  0  0  0  0  0  0
   -6.1667    3.9250    0.0000 C   0  0  0  0  0  0  0  0  0  0  0  0
   -1.7958   -0.0167    0.0000 C   0  0  0  0  0  0  0  0  0  0  0  0
   -3.1333    0.0458    0.0000 C   0  0  0  0  0  0  0  0  0  0  0  0
   -6.5625    3.2208    0.0000 C   0  0  0  0  0  0  0  0  0  0  0  0
   -3.1500    2.5625    0.0000 C   0  0  0  0  0  0  0  0  0  0  0  0
   -3.1500    1.7375    0.0000 C   0  0  0  0  0  0  0  0  0  0  0  0
   -4.5833    1.7500    0.0000 C   0  0  0  0  0  0  0  0  0  0  0  0
   -6.5792    4.6042    0.0000 C   0  0  0  0  0  0  0  0  0  0  0  0
   -5.2833    1.3458    0.0000 C   0  0  0  0  0  0  0  0  0  0  0  0
   -5.2708    0.5333    0.0000 O   0  0  0  0  0  0  0  0  0  0  0  0
   -3.8708    3.8000    0.0000 O   0  0  0  0  0  0  0  0  0  0  0  0
   -2.0708   -0.7917    0.0000 C   0  0  0  0  0  0  0  0  0  0  0  0
   -2.8958   -0.7667    0.0000 C   0  0  0  0  0  0  0  0  0  0  0  0
   -0.9958    0.1958    0.0000 O   0  0  0  0  0  0  0  0  0  0  0  0
   -3.9000    0.3333    0.0000 O   0  0  0  0  0  0  0  0  0  0  0  0
   -6.0417    1.5958    0.0000 C   0  0  0  0  0  0  0  0  0  0  0  0
   -6.0292    0.2750    0.0000 C   0  0  0  0  0  0  0  0  0  0  0  0
   -6.5167    0.9250    0.0000 C   0  0  0  0  0  0  0  0  0  0  0  0
   -7.3792    3.2125    0.0000 C   0  0  0  0  0  0  0  0  0  0  0  0
   -7.3917    4.6042    0.0000 C   0  0  0  0  0  0  0  0  0  0  0  0
   -7.7792    3.9208    0.0000 C   0  0  0  0  0  0  0  0  0  0  0  0
   -8.0292    5.5542    0.0000 F   0  0  0  0  0  0  0  0  0  0  0  0
   -1.7208    1.7333    0.0000 C   0  0  0  0  0  0  0  0  0  0  0  0
   -2.4333    2.9833    0.0000 C   0  0  0  0  0  0  0  0  0  0  0  0
   -1.7208    2.5583    0.0000 C   0  0  0  0  0  0  0  0  0  0  0  0
  2  1  1  0  0  0  0
  3  7  1  0  0  0  0
  4  1  2  0  0  0  0
  5  1  1  0  0  0  0
  6  2  1  0  0  0  0
  7 13  1  0  0  0  0
  8  5  1  0  0  0  0
  9  3  1  0  0  0  0
 10  3  1  0  0  0  0
 11  4  1  0  0  0  0
 12  6  1  0  0  0  0
 13 12  2  0  0  0  0
 14  2  1  0  0  0  0
 15  8  1  0  0  0  0
 16 14  1  0  0  0  0
 17 16  1  0  0  0  0
 18  6  2  0  0  0  0
 19  9  1  0  0  0  0
 20 10  1  0  0  0  0
 21  9  2  0  0  0  0
 22 10  2  0  0  0  0
 23 16  2  0  0  0  0
 24 17  1  0  0  0  0
 25 23  1  0  0  0  0
 26 11  1  0  0  0  0
 27 15  2  0  0  0  0
 28 26  2  0  0  0  0
 29 27  1  0  0  0  0
 30 32  1  0  0  0  0
 31 12  1  0  0  0  0
 32 31  2  0  0  0  0
 11  8  2  0  0  0  0
 27 28  1  0  0  0  0
 24 25  2  0  0  0  0
  7 30  2  0  0  0  0
 20 19  1  0  0  0  0
M  END
> <IDNUMBER>
F2899-2239

> <Chemical_Name>
3-(2,5-dioxopyrrolidin-1-yl)-N-(6-fluoro-1,3-benzothiazol-2-yl)-N-[(furan-2-yl)methyl]benzamide

> <CAS>
922389-87-5

> <PriceCoeff>
1.00

> <MW>
449.45

> <Description>
solid

> <FSP3>
0.13

> <clogP>
2.65

> <TPSA>
111.96

> <Acceptor>
5

> <Donor>
0

> <RotBonds>
6

> <HAC>
32

> <Collection>
General

$$$$
F3023-0308
  -ISIS-  06222321152D

 27 29  0  0  0  0  0  0  0  0999 V2000
    8.8500   -5.7750    0.0000 N   0  0  3  0  0  0  0  0  0  0  0  0
    7.7750   -5.1625    0.0000 C   0  0  0  0  0  0  0  0  0  0  0  0
    9.2667   -5.1917    0.0000 C   0  0  0  0  0  0  0  0  0  0  0  0
    8.1292   -5.7792    0.0000 C   0  0  0  0  0  0  0  0  0  0  0  0
    9.2750   -6.3542    0.0000 C   0  0  0  0  0  0  0  0  0  0  0  0
    7.7667   -4.4417    0.0000 N   0  3  0  0  0  0  0  0  0  0  0  0
    9.9542   -6.1292    0.0000 C   0  0  3  0  0  0  0  0  0  0  0  0
    9.9542   -5.4125    0.0000 C   0  0  0  0  0  0  0  0  0  0  0  0
   11.1917   -6.2500    0.0000 C   0  0  0  0  0  0  0  0  0  0  0  0
   11.7667   -6.6667    0.0000 C   0  0  0  0  0  0  0  0  0  0  0  0
   10.5375   -6.5417    0.0000 S   0  0  0  0  0  0  0  0  0  0  0  0
   11.7000   -7.3875    0.0000 C   0  0  0  0  0  0  0  0  0  0  0  0
    7.0542   -5.1667    0.0000 C   0  0  0  0  0  0  0  0  0  0  0  0
    7.7792   -6.4000    0.0000 C   0  0  0  0  0  0  0  0  0  0  0  0
   11.2542   -5.5417    0.0000 N   0  0  0  0  0  0  0  0  0  0  0  0
    8.3875   -4.0792    0.0000 O   0  5  0  0  0  0  0  0  0  0  0  0
    9.0417   -4.5042    0.0000 O   0  0  0  0  0  0  0  0  0  0  0  0
    7.1417   -4.0917    0.0000 O   0  0  0  0  0  0  0  0  0  0  0  0
    9.0542   -7.0375    0.0000 O   0  0  0  0  0  0  0  0  0  0  0  0
   12.2792   -7.8042    0.0000 O   0  0  0  0  0  0  0  0  0  0  0  0
    6.7042   -5.7875    0.0000 C   0  0  0  0  0  0  0  0  0  0  0  0
    7.0667   -6.4042    0.0000 C   0  0  0  0  0  0  0  0  0  0  0  0
   11.0417   -7.6792    0.0000 O   0  0  0  0  0  0  0  0  0  0  0  0
    5.9875   -5.7917    0.0000 Cl  0  0  0  0  0  0  0  0  0  0  0  0
   12.4250   -6.3750    0.0000 C   0  0  0  0  0  0  0  0  0  0  0  0
   11.9042   -5.2417    0.0000 C   0  0  0  0  0  0  0  0  0  0  0  0
   12.4917   -5.6625    0.0000 C   0  0  0  0  0  0  0  0  0  0  0  0
  2  4  2  0  0  0  0
  3  1  1  0  0  0  0
  4  1  1  0  0  0  0
  5  1  1  0  0  0  0
  6  2  1  0  0  0  0
  7  5  1  0  0  0  0
  8  3  1  0  0  0  0
  9 11  1  0  0  0  0
 10  9  2  0  0  0  0
 11  7  1  0  0  0  0
 12 10  1  0  0  0  0
 13  2  1  0  0  0  0
 14  4  1  0  0  0  0
 15  9  1  0  0  0  0
 16  6  1  0  0  0  0
 17  3  2  0  0  0  0
 18  6  2  0  0  0  0
 19  5  2  0  0  0  0
 20 12  2  0  0  0  0
 21 22  1  0  0  0  0
 22 14  2  0  0  0  0
 23 12  1  0  0  0  0
 24 21  1  0  0  0  0
 25 10  1  0  0  0  0
 26 15  2  0  0  0  0
 27 26  1  0  0  0  0
  8  7  1  0  0  0  0
 21 13  2  0  0  0  0
 27 25  2  0  0  0  0
M  CHG  2   6   1  16  -1
M  END
> <IDNUMBER>
F3023-0308

> <Chemical_Name>
2-{[1-(4-chloro-2-nitrophenyl)-2,5-dioxopyrrolidin-3-yl]sulfanyl}pyridine-3-carboxylic acid

> <CAS>
831177-63-0

> <PriceCoeff>
1.00

> <MW>
407.79

> <Description>
solid

> <FSP3>
0.12

> <clogP>
2.66

> <TPSA>
156.01

> <Acceptor>
7

> <Donor>
1

> <RotBonds>
5

> <HAC>
27

> <Collection>
General

$$$$
F3115-0039
  -ISIS-  06222321442D

 23 25  0  0  0  0  0  0  0  0999 V2000
    1.0625   -2.1917    0.0000 N   0  0  3  0  0  0  0  0  0  0  0  0
    1.5417   -1.5167    0.0000 C   0  0  0  0  0  0  0  0  0  0  0  0
    1.5500   -2.8542    0.0000 C   0  0  0  0  0  0  0  0  0  0  0  0
    2.3292   -2.5917    0.0000 C   0  0  3  0  0  0  0  0  0  0  0  0
    2.3292   -1.7667    0.0000 C   0  0  0  0  0  0  0  0  0  0  0  0
    0.2375   -2.2000    0.0000 C   0  0  0  0  0  0  0  0  0  0  0  0
   -0.1750   -1.4917    0.0000 C   0  0  0  0  0  0  0  0  0  0  0  0
    3.0042   -3.0792    0.0000 N   0  0  0  0  0  0  0  0  0  0  0  0
   -0.1708   -2.9125    0.0000 C   0  0  0  0  0  0  0  0  0  0  0  0
    1.2792   -0.7375    0.0000 O   0  0  0  0  0  0  0  0  0  0  0  0
    1.3000   -3.6417    0.0000 O   0  0  0  0  0  0  0  0  0  0  0  0
   -1.0000   -1.4917    0.0000 C   0  0  0  0  0  0  0  0  0  0  0  0
    3.7542   -2.7375    0.0000 C   0  0  0  0  0  0  0  0  0  0  0  0
    0.2292   -0.7750    0.0000 Br  0  0  0  0  0  0  0  0  0  0  0  0
   -0.9875   -2.9167    0.0000 C   0  0  0  0  0  0  0  0  0  0  0  0
   -1.4083   -2.2125    0.0000 C   0  0  0  0  0  0  0  0  0  0  0  0
    5.2542   -2.0625    0.0000 C   0  0  0  0  0  0  0  0  0  0  0  0
    6.0042   -1.7167    0.0000 F   0  0  0  0  0  0  0  0  0  0  0  0
    4.4167   -3.2167    0.0000 C   0  0  0  0  0  0  0  0  0  0  0  0
    3.8292   -1.9167    0.0000 C   0  0  0  0  0  0  0  0  0  0  0  0
    4.5792   -1.5792    0.0000 C   0  0  0  0  0  0  0  0  0  0  0  0
    5.1750   -2.8792    0.0000 C   0  0  0  0  0  0  0  0  0  0  0  0
   -2.2333   -2.2167    0.0000 C   0  0  0  0  0  0  0  0  0  0  0  0
  2  1  1  0  0  0  0
  3  1  1  0  0  0  0
  4  3  1  0  0  0  0
  5  2  1  0  0  0  0
  6  1  1  0  0  0  0
  7  6  1  0  0  0  0
  8  4  1  0  0  0  0
  9  6  2  0  0  0  0
 10  2  2  0  0  0  0
 11  3  2  0  0  0  0
 12  7  2  0  0  0  0
 13  8  1  0  0  0  0
 14  7  1  0  0  0  0
 15  9  1  0  0  0  0
 16 15  2  0  0  0  0
 17 21  1  0  0  0  0
 18 17  1  0  0  0  0
 19 13  2  0  0  0  0
 20 13  1  0  0  0  0
 21 20  2  0  0  0  0
 22 19  1  0  0  0  0
 23 16  1  0  0  0  0
  4  5  1  0  0  0  0
 12 16  1  0  0  0  0
 22 17  2  0  0  0  0
M  END
> <IDNUMBER>
F3115-0039

> <Chemical_Name>
1-(2-bromo-4-methylphenyl)-3-[(4-fluorophenyl)amino]pyrrolidine-2,5-dione

> <CAS>
473705-03-2

> <PriceCoeff>
1.00

> <MW>
377.21

> <Description>
solid

> <FSP3>
0.18

> <clogP>
4.11

> <TPSA>
49.41

> <Acceptor>
3

> <Donor>
1

> <RotBonds>
3

> <HAC>
23

> <Collection>
General

$$$$
F0758-0117
  -ISIS-  06222321442D

 22 24  0  0  0  0  0  0  0  0999 V2000
   -0.4000    0.6125    0.0000 C   0  0  0  0  0  0  0  0  0  0  0  0
   -0.8208   -0.1542    0.0000 C   0  0  0  0  0  0  0  0  0  0  0  0
   -0.8500    1.3833    0.0000 C   0  0  0  0  0  0  0  0  0  0  0  0
   -1.7208   -0.1542    0.0000 C   0  0  0  0  0  0  0  0  0  0  0  0
   -2.1708    0.6000    0.0000 C   0  0  0  0  0  0  0  0  0  0  0  0
   -1.7500    1.3833    0.0000 O   0  0  0  0  0  0  0  0  0  0  0  0
   -3.0833    0.5833    0.0000 C   0  0  0  0  0  0  0  0  0  0  0  0
   -2.1500   -0.9500    0.0000 C   0  0  0  0  0  0  0  0  0  0  0  0
   -0.3458   -0.9167    0.0000 O   0  0  0  0  0  0  0  0  0  0  0  0
    0.4792    0.6125    0.0000 C   0  0  0  0  0  0  0  0  0  0  0  0
   -3.5208   -0.1875    0.0000 C   0  0  0  0  0  0  0  0  0  0  0  0
   -4.4208   -0.1875    0.0000 O   0  0  0  0  0  0  0  0  0  0  0  0
   -3.0500   -0.9500    0.0000 C   0  0  0  0  0  0  0  0  0  0  0  0
   -0.4125    2.1458    0.0000 C   0  0  0  0  0  0  0  0  0  0  0  0
   -4.8625   -0.9500    0.0000 C   0  0  3  0  0  0  0  0  0  0  0  0
    0.9292    1.3833    0.0000 C   0  0  0  0  0  0  0  0  0  0  0  0
    0.9292   -0.1542    0.0000 C   0  0  0  0  0  0  0  0  0  0  0  0
   -4.4333   -1.7167    0.0000 C   0  0  0  0  0  0  0  0  0  0  0  0
   -5.7333   -0.9375    0.0000 C   0  0  0  0  0  0  0  0  0  0  0  0
    1.8167    1.3833    0.0000 C   0  0  0  0  0  0  0  0  0  0  0  0
    1.8167   -0.1542    0.0000 C   0  0  0  0  0  0  0  0  0  0  0  0
    2.2542    0.6125    0.0000 C   0  0  0  0  0  0  0  0  0  0  0  0
  2  1  1  0  0  0  0
  3  1  2  0  0  0  0
  4  2  1  0  0  0  0
  5  6  1  0  0  0  0
  6  3  1  0  0  0  0
  7  5  1  0  0  0  0
  8  4  1  0  0  0  0
  9  2  2  0  0  0  0
 10  1  1  0  0  0  0
 11  7  2  0  0  0  0
 12 11  1  0  0  0  0
 13  8  2  0  0  0  0
 14  3  1  0  0  0  0
 15 12  1  0  0  0  0
 16 10  1  0  0  0  0
 17 10  2  0  0  0  0
 18 15  1  0  0  0  0
 19 15  1  0  0  0  0
 20 16  2  0  0  0  0
 21 17  1  0  0  0  0
 22 21  2  0  0  0  0
  4  5  2  0  0  0  0
 22 20  1  0  0  0  0
 13 11  1  0  0  0  0
M  END
> <IDNUMBER>
F0758-0117

> <Chemical_Name>
2-methyl-3-phenyl-7-(propan-2-yloxy)-4H-chromen-4-one

> <CAS>
35212-25-0

> <PriceCoeff>
1.00

> <MW>
294.34

> <Description>
solid

> <FSP3>
0.21

> <clogP>
4.12

> <TPSA>
35.53

> <Acceptor>
3

> <Donor>
0

> <RotBonds>
3

> <HAC>
22

> <Collection>
General

> <Reference_compound>
CHEMBL463936

> <Similarity>
0.8050

$$$$
F1199-0101
  -ISIS-  06222321142D

 28 30  0  0  0  0  0  0  0  0999 V2000
    1.2417   -1.1167    0.0000 N   0  0  3  0  0  0  0  0  0  0  0  0
    1.9125   -0.6292    0.0000 C   0  0  0  0  0  0  0  0  0  0  0  0
    1.5000   -1.9125    0.0000 C   0  0  0  0  0  0  0  0  0  0  0  0
    2.3167   -1.9125    0.0000 C   0  0  3  0  0  0  0  0  0  0  0  0
    2.5792   -1.1167    0.0000 C   0  0  0  0  0  0  0  0  0  0  0  0
    4.1167   -3.1667    0.0000 C   0  0  0  0  0  0  0  0  0  0  0  0
    2.8167   -2.5792    0.0000 S   0  0  0  0  0  0  0  0  0  0  0  0
    3.6417   -2.4917    0.0000 C   0  0  0  0  0  0  0  0  0  0  0  0
    3.7792   -3.9167    0.0000 C   0  0  0  0  0  0  0  0  0  0  0  0
    0.4542   -0.8625    0.0000 C   0  0  0  0  0  0  0  0  0  0  0  0
   -1.9083   -0.0917    0.0000 C   0  0  0  0  0  0  0  0  0  0  0  0
    1.9125    0.1958    0.0000 O   0  0  0  0  0  0  0  0  0  0  0  0
    1.0042   -2.5792    0.0000 O   0  0  0  0  0  0  0  0  0  0  0  0
   -1.1208   -0.3542    0.0000 C   0  0  0  0  0  0  0  0  0  0  0  0
    4.2625   -4.5917    0.0000 O   0  0  0  0  0  0  0  0  0  0  0  0
   -2.5208   -0.6542    0.0000 O   0  0  0  0  0  0  0  0  0  0  0  0
    0.2875   -0.0542    0.0000 C   0  0  0  0  0  0  0  0  0  0  0  0
   -0.1583   -1.4167    0.0000 C   0  0  0  0  0  0  0  0  0  0  0  0
   -0.9458   -1.1667    0.0000 C   0  0  0  0  0  0  0  0  0  0  0  0
   -0.5000    0.2000    0.0000 C   0  0  0  0  0  0  0  0  0  0  0  0
    2.9542   -4.0042    0.0000 O   0  0  0  0  0  0  0  0  0  0  0  0
   -2.0833    0.7083    0.0000 O   0  0  0  0  0  0  0  0  0  0  0  0
    4.9417   -3.0792    0.0000 C   0  0  0  0  0  0  0  0  0  0  0  0
    3.9667   -1.7375    0.0000 C   0  0  0  0  0  0  0  0  0  0  0  0
   -1.4708    1.2583    0.0000 C   0  0  0  0  0  0  0  0  0  0  0  0
    5.2875   -2.3167    0.0000 C   0  0  0  0  0  0  0  0  0  0  0  0
    4.7917   -1.6500    0.0000 C   0  0  0  0  0  0  0  0  0  0  0  0
   -1.6375    2.0708    0.0000 C   0  0  0  0  0  0  0  0  0  0  0  0
  2  1  1  0  0  0  0
  3  1  1  0  0  0  0
  4  3  1  0  0  0  0
  5  2  1  0  0  0  0
  6  8  2  0  0  0  0
  7  4  1  0  0  0  0
  8  7  1  0  0  0  0
  9  6  1  0  0  0  0
 10  1  1  0  0  0  0
 11 14  1  0  0  0  0
 12  2  2  0  0  0  0
 13  3  2  0  0  0  0
 14 19  1  0  0  0  0
 15  9  2  0  0  0  0
 16 11  2  0  0  0  0
 17 10  2  0  0  0  0
 18 10  1  0  0  0  0
 19 18  2  0  0  0  0
 20 17  1  0  0  0  0
 21  9  1  0  0  0  0
 22 11  1  0  0  0  0
 23  6  1  0  0  0  0
 24  8  1  0  0  0  0
 25 22  1  0  0  0  0
 26 27  1  0  0  0  0
 27 24  2  0  0  0  0
 28 25  1  0  0  0  0
  5  4  1  0  0  0  0
 14 20  2  0  0  0  0
 26 23  2  0  0  0  0
M  END
> <IDNUMBER>
F1199-0101

> <Chemical_Name>
2-({1-[4-(ethoxycarbonyl)phenyl]-2,5-dioxopyrrolidin-3-yl}sulfanyl)benzoic acid

> <CAS>
459421-29-5

> <PriceCoeff>
1.00

> <MW>
399.42

> <Description>
solid

> <FSP3>
0.20

> <clogP>
3.08

> <TPSA>
126.28

> <Acceptor>
6

> <Donor>
0

> <RotBonds>
7

> <HAC>
28

> <Collection>
General

$$$$
F2146-0718
  -ISIS-  06222304352D

 26 27  0  0  0  0  0  0  0  0999 V2000
    3.6042   -2.8750    0.0000 C   0  0  0  0  0  0  0  0  0  0  0  0
    2.9375   -2.3875    0.0000 S   0  0  0  0  0  0  0  0  0  0  0  0
    3.3417   -3.6583    0.0000 N   0  0  3  0  0  0  0  0  0  0  0  0
    2.2667   -2.8750    0.0000 C   0  0  0  0  0  0  0  0  0  0  0  0
    2.5167   -3.6583    0.0000 C   0  0  0  0  0  0  0  0  0  0  0  0
    4.3958   -2.6167    0.0000 N   0  0  0  0  0  0  0  0  0  0  0  0
    1.9667   -4.2708    0.0000 C   0  0  0  0  0  0  0  0  0  0  0  0
    1.4583   -2.6917    0.0000 C   0  0  0  0  0  0  0  0  0  0  0  0
    1.1625   -4.0958    0.0000 C   0  0  0  0  0  0  0  0  0  0  0  0
    0.9000   -3.3125    0.0000 C   0  0  0  0  0  0  0  0  0  0  0  0
    3.8375   -4.3292    0.0000 C   0  0  0  0  0  0  0  0  0  0  0  0
    2.2208   -5.0500    0.0000 O   0  0  0  0  0  0  0  0  0  0  0  0
    1.2083   -1.9083    0.0000 C   0  0  0  0  0  0  0  0  0  0  0  0
    1.7417   -5.7167    0.0000 C   0  0  0  0  0  0  0  0  0  0  0  0
    3.5000   -5.0917    0.0000 C   0  0  0  0  0  0  0  0  0  0  0  0
    7.4306   -2.7996    0.0000 S   0  0  3  0  0  0  0  0  0  0  0  0
    7.0278   -3.5094    0.0000 C   0  0  0  0  0  0  0  0  0  0  0  0
    6.7197   -2.3783    0.0000 O   0  0  0  0  0  0  0  0  0  0  0  0
    7.8364   -2.0785    0.0000 O   0  0  0  0  0  0  0  0  0  0  0  0
    8.1518   -3.2054    0.0000 O   0  0  0  0  0  0  0  0  0  0  0  0
    7.4432   -4.2270    0.0000 C   0  0  0  0  0  0  0  0  0  0  0  0
    6.1973   -3.5136    0.0000 C   0  0  0  0  0  0  0  0  0  0  0  0
    7.0261   -4.9452    0.0000 C   0  0  0  0  0  0  0  0  0  0  0  0
    5.7894   -4.2311    0.0000 C   0  0  0  0  0  0  0  0  0  0  0  0
    6.2028   -4.9451    0.0000 C   0  0  0  0  0  0  0  0  0  0  0  0
    5.7892   -5.6612    0.0000 C   0  0  0  0  0  0  0  0  0  0  0  0
 13  8  1  0  0  0  0
 14 12  1  0  0  0  0
 15 11  1  0  0  0  0
  4  5  2  0  0  0  0
  9 10  1  0  0  0  0
  2  1  1  0  0  0  0
  3  1  1  0  0  0  0
  4  2  1  0  0  0  0
  5  3  1  0  0  0  0
  6  1  2  0  0  0  0
  7  5  1  0  0  0  0
  8  4  1  0  0  0  0
  9  7  2  0  0  0  0
 10  8  2  0  0  0  0
 11  3  1  0  0  0  0
 12  7  1  0  0  0  0
 17 16  1  0  0  0  0
 18 16  2  0  0  0  0
 19 16  2  0  0  0  0
 20 16  1  0  0  0  0
 21 17  1  0  0  0  0
 22 17  2  0  0  0  0
 23 21  2  0  0  0  0
 24 22  1  0  0  0  0
 25 24  2  0  0  0  0
 26 25  1  0  0  0  0
 23 25  1  0  0  0  0
M  END
> <IDNUMBER>
F2146-0718

> <Chemical_Name>
3-ethyl-4-methoxy-7-methyl-2,3-dihydro-1,3-benzothiazol-2-imine; 4-methylbenzene-1-sulfonic acid

> <CAS>
2034154-92-0

> <PriceCoeff>
1.00

> <MW>
222.31

> <Description>
solid

> <FSP3>
0.36

> <clogP>
4.19

> <TPSA>
61.62

> <Acceptor>
1

> <Donor>
1

> <RotBonds>
2

> <HAC>
15

> <Collection>
General

> <Reference_compound>
PRI5904

> <Similarity>
0.8060

$$$$
F3023-0287
  -ISIS-  06222321462D

 31 34  0  0  0  0  0  0  0  0999 V2000
    9.2542   -6.6250    0.0000 N   0  0  3  0  0  0  0  0  0  0  0  0
    8.5375   -6.6292    0.0000 C   0  0  0  0  0  0  0  0  0  0  0  0
    8.1125   -6.0542    0.0000 C   0  0  0  0  0  0  0  0  0  0  0  0
    9.6750   -6.0417    0.0000 C   0  0  0  0  0  0  0  0  0  0  0  0
    8.1167   -7.2167    0.0000 S   0  0  0  0  0  0  0  0  0  0  0  0
    9.6792   -7.2042    0.0000 C   0  0  0  0  0  0  0  0  0  0  0  0
    7.4375   -7.0000    0.0000 C   0  0  0  0  0  0  0  0  0  0  0  0
    7.4375   -6.2792    0.0000 C   0  0  0  0  0  0  0  0  0  0  0  0
   10.3625   -6.9792    0.0000 C   0  0  3  0  0  0  0  0  0  0  0  0
   10.3542   -6.2625    0.0000 C   0  0  0  0  0  0  0  0  0  0  0  0
   11.5917   -7.1000    0.0000 C   0  0  0  0  0  0  0  0  0  0  0  0
   12.1750   -7.5167    0.0000 C   0  0  0  0  0  0  0  0  0  0  0  0
   10.9417   -7.3917    0.0000 S   0  0  0  0  0  0  0  0  0  0  0  0
    8.3292   -5.3750    0.0000 C   0  0  0  0  0  0  0  0  0  0  0  0
   12.1042   -8.2375    0.0000 C   0  0  0  0  0  0  0  0  0  0  0  0
    6.8167   -5.9292    0.0000 C   0  0  0  0  0  0  0  0  0  0  0  0
   11.6625   -6.3917    0.0000 N   0  0  0  0  0  0  0  0  0  0  0  0
    6.8167   -7.3542    0.0000 C   0  0  0  0  0  0  0  0  0  0  0  0
    9.4500   -5.3625    0.0000 O   0  0  0  0  0  0  0  0  0  0  0  0
    9.4625   -7.8875    0.0000 O   0  0  0  0  0  0  0  0  0  0  0  0
    8.8250   -5.2750    0.0000 O   0  0  0  0  0  0  0  0  0  0  0  0
   12.6792   -8.6542    0.0000 O   0  0  0  0  0  0  0  0  0  0  0  0
   11.4500   -8.5292    0.0000 O   0  0  0  0  0  0  0  0  0  0  0  0
    7.8417   -4.8417    0.0000 O   0  0  0  0  0  0  0  0  0  0  0  0
    6.2000   -6.2792    0.0000 C   0  0  0  0  0  0  0  0  0  0  0  0
    6.2000   -7.0000    0.0000 C   0  0  3  0  0  0  0  0  0  0  0  0
   12.8292   -7.2250    0.0000 C   0  0  0  0  0  0  0  0  0  0  0  0
   12.3125   -6.0917    0.0000 C   0  0  0  0  0  0  0  0  0  0  0  0
    8.0625   -4.1625    0.0000 C   0  0  0  0  0  0  0  0  0  0  0  0
    5.5792   -7.3625    0.0000 C   0  0  0  0  0  0  0  0  0  0  0  0
   12.9000   -6.5125    0.0000 C   0  0  0  0  0  0  0  0  0  0  0  0
  2  1  1  0  0  0  0
  3  2  2  0  0  0  0
  4  1  1  0  0  0  0
  5  2  1  0  0  0  0
  6  1  1  0  0  0  0
  7  5  1  0  0  0  0
  8  3  1  0  0  0  0
  9  6  1  0  0  0  0
 10  4  1  0  0  0  0
 11 13  1  0  0  0  0
 12 11  2  0  0  0  0
 13  9  1  0  0  0  0
 14  3  1  0  0  0  0
 15 12  1  0  0  0  0
 16  8  1  0  0  0  0
 17 11  1  0  0  0  0
 18  7  1  0  0  0  0
 19  4  2  0  0  0  0
 20  6  2  0  0  0  0
 21 14  2  0  0  0  0
 22 15  2  0  0  0  0
 23 15  1  0  0  0  0
 24 14  1  0  0  0  0
 25 16  1  0  0  0  0
 26 18  1  0  0  0  0
 27 12  1  0  0  0  0
 28 17  2  0  0  0  0
 29 24  1  0  0  0  0
 30 26  1  0  0  0  0
 31 28  1  0  0  0  0
 10  9  1  0  0  0  0
  8  7  2  0  0  0  0
 26 25  1  0  0  0  0
 31 27  2  0  0  0  0
M  END
> <IDNUMBER>
F3023-0287

> <Chemical_Name>
2-({1-[3-(methoxycarbonyl)-6-methyl-4,5,6,7-tetrahydro-1-benzothiophen-2-yl]-2,5-dioxopyrrolidin-3-yl}sulfanyl)pyridine-3-carboxylic acid

> <CAS>
830352-05-1

> <PriceCoeff>
1.00

> <MW>
460.52

> <Description>
solid

> <FSP3>
0.38

> <clogP>
3.82

> <TPSA>
167.41

> <Acceptor>
7

> <Donor>
1

> <RotBonds>
6

> <HAC>
31

> <Collection>
General

$$$$
F3385-3717
  -ISIS-  06222321462D

 26 29  0  0  0  0  0  0  0  0999 V2000
    7.0500    0.0750    0.0000 C   0  0  0  0  0  0  0  0  0  0  0  0
    6.3250   -0.3375    0.0000 C   0  0  0  0  0  0  0  0  0  0  0  0
    5.6042    0.0750    0.0000 C   0  0  0  0  0  0  0  0  0  0  0  0
    7.0500    0.9083    0.0000 C   0  0  0  0  0  0  0  0  0  0  0  0
    5.6125    0.9083    0.0000 C   0  0  0  0  0  0  0  0  0  0  0  0
    6.3292    1.3333    0.0000 O   0  0  0  0  0  0  0  0  0  0  0  0
    4.8917    1.3208    0.0000 C   0  0  0  0  0  0  0  0  0  0  0  0
    4.8917   -0.3292    0.0000 C   0  0  0  0  0  0  0  0  0  0  0  0
    7.7542   -0.3375    0.0000 C   0  0  0  0  0  0  0  0  0  0  0  0
    6.3250   -1.1625    0.0000 O   0  0  0  0  0  0  0  0  0  0  0  0
    4.1792    0.9083    0.0000 C   0  0  0  0  0  0  0  0  0  0  0  0
    3.4667    1.3208    0.0000 N   0  0  0  0  0  0  0  0  0  0  0  0
    4.1792    0.0875    0.0000 C   0  0  0  0  0  0  0  0  0  0  0  0
    2.7542    0.9083    0.0000 C   0  0  0  0  0  0  0  0  0  0  0  0
    1.3250    0.0833    0.0000 C   0  0  0  0  0  0  0  0  0  0  0  0
    2.7542    0.0833    0.0000 C   0  0  0  0  0  0  0  0  0  0  0  0
    2.0417    1.3208    0.0000 C   0  0  0  0  0  0  0  0  0  0  0  0
    1.3250    0.9083    0.0000 C   0  0  0  0  0  0  0  0  0  0  0  0
    2.0417   -0.3292    0.0000 C   0  0  0  0  0  0  0  0  0  0  0  0
    0.6125   -0.3292    0.0000 O   0  0  0  0  0  0  0  0  0  0  0  0
    7.7542   -1.1667    0.0000 C   0  0  0  0  0  0  0  0  0  0  0  0
    8.4667    0.0708    0.0000 C   0  0  0  0  0  0  0  0  0  0  0  0
    0.6125   -1.1542    0.0000 C   0  0  0  0  0  0  0  0  0  0  0  0
    8.4667   -1.5792    0.0000 C   0  0  0  0  0  0  0  0  0  0  0  0
    9.1792   -0.3417    0.0000 C   0  0  0  0  0  0  0  0  0  0  0  0
    9.1792   -1.1667    0.0000 C   0  0  0  0  0  0  0  0  0  0  0  0
  2  1  1  0  0  0  0
  3  2  1  0  0  0  0
  4  1  2  0  0  0  0
  5  6  1  0  0  0  0
  6  4  1  0  0  0  0
  7  5  2  0  0  0  0
  8  3  2  0  0  0  0
  9  1  1  0  0  0  0
 10  2  2  0  0  0  0
 11  7  1  0  0  0  0
 12 11  1  0  0  0  0
 13  8  1  0  0  0  0
 14 12  1  0  0  0  0
 15 18  2  0  0  0  0
 16 14  1  0  0  0  0
 17 14  2  0  0  0  0
 18 17  1  0  0  0  0
 19 16  2  0  0  0  0
 20 15  1  0  0  0  0
 21  9  2  0  0  0  0
 22  9  1  0  0  0  0
 23 20  1  0  0  0  0
 24 21  1  0  0  0  0
 25 22  2  0  0  0  0
 26 25  1  0  0  0  0
  5  3  1  0  0  0  0
 24 26  2  0  0  0  0
 11 13  2  0  0  0  0
 19 15  1  0  0  0  0
M  END
> <IDNUMBER>
F3385-3717

> <Chemical_Name>
7-[(4-methoxyphenyl)amino]-3-phenyl-4H-chromen-4-one

> <CAS>
864752-12-5

> <PriceCoeff>
1.00

> <MW>
343.38

> <Description>
solid

> <FSP3>
0.05

> <clogP>
4.85

> <TPSA>
47.56

> <Acceptor>
4

> <Donor>
1

> <RotBonds>
4

> <HAC>
26

> <Collection>
General

> <Reference_compound>
CHEMBL44

> <Similarity>
0.8210

$$$$
F2146-0709
  -ISIS-  06222304352D

 26 27  0  0  0  0  0  0  0  0999 V2000
    6.2708   -2.2292    0.0000 C   0  0  0  0  0  0  0  0  0  0  0  0
    6.0125   -3.0042    0.0000 N   0  0  3  0  0  0  0  0  0  0  0  0
    5.6125   -1.7417    0.0000 S   0  0  0  0  0  0  0  0  0  0  0  0
    4.9458   -2.2292    0.0000 C   0  0  0  0  0  0  0  0  0  0  0  0
    5.2000   -3.0042    0.0000 C   0  0  0  0  0  0  0  0  0  0  0  0
    7.0542   -1.9750    0.0000 N   0  0  0  0  0  0  0  0  0  0  0  0
    4.1458   -2.0500    0.0000 C   0  0  0  0  0  0  0  0  0  0  0  0
    4.6500   -3.6125    0.0000 C   0  0  0  0  0  0  0  0  0  0  0  0
    3.5958   -2.6625    0.0000 C   0  0  0  0  0  0  0  0  0  0  0  0
    6.5000   -3.6708    0.0000 C   0  0  0  0  0  0  0  0  0  0  0  0
    3.8542   -3.4375    0.0000 C   0  0  0  0  0  0  0  0  0  0  0  0
    2.7917   -2.4917    0.0000 O   0  0  0  0  0  0  0  0  0  0  0  0
    2.2417   -3.1042    0.0000 C   0  0  0  0  0  0  0  0  0  0  0  0
    6.1667   -4.4250    0.0000 C   0  0  0  0  0  0  0  0  0  0  0  0
    2.5000   -3.8875    0.0000 C   0  0  0  0  0  0  0  0  0  0  0  0
   10.0890   -2.0163    0.0000 S   0  0  3  0  0  0  0  0  0  0  0  0
    9.6862   -2.7261    0.0000 C   0  0  0  0  0  0  0  0  0  0  0  0
    9.3781   -1.5950    0.0000 O   0  0  0  0  0  0  0  0  0  0  0  0
   10.4948   -1.2952    0.0000 O   0  0  0  0  0  0  0  0  0  0  0  0
   10.8102   -2.4221    0.0000 O   0  0  0  0  0  0  0  0  0  0  0  0
   10.1016   -3.4437    0.0000 C   0  0  0  0  0  0  0  0  0  0  0  0
    8.8557   -2.7303    0.0000 C   0  0  0  0  0  0  0  0  0  0  0  0
    9.6845   -4.1619    0.0000 C   0  0  0  0  0  0  0  0  0  0  0  0
    8.4478   -3.4478    0.0000 C   0  0  0  0  0  0  0  0  0  0  0  0
    8.8612   -4.1618    0.0000 C   0  0  0  0  0  0  0  0  0  0  0  0
    8.4476   -4.8779    0.0000 C   0  0  0  0  0  0  0  0  0  0  0  0
 13 12  1  0  0  0  0
 14 10  1  0  0  0  0
 15 13  1  0  0  0  0
  4  5  2  0  0  0  0
 11  9  1  0  0  0  0
  2  1  1  0  0  0  0
  3  1  1  0  0  0  0
  4  3  1  0  0  0  0
  5  2  1  0  0  0  0
  6  1  2  0  0  0  0
  7  4  1  0  0  0  0
  8  5  1  0  0  0  0
  9  7  2  0  0  0  0
 10  2  1  0  0  0  0
 11  8  2  0  0  0  0
 12  9  1  0  0  0  0
 17 16  1  0  0  0  0
 18 16  2  0  0  0  0
 19 16  2  0  0  0  0
 20 16  1  0  0  0  0
 21 17  1  0  0  0  0
 22 17  2  0  0  0  0
 23 21  2  0  0  0  0
 24 22  1  0  0  0  0
 25 24  2  0  0  0  0
 26 25  1  0  0  0  0
 23 25  1  0  0  0  0
M  END
> <IDNUMBER>
F2146-0709

> <Chemical_Name>
4-methylbenzene-1-sulfonic acid; 6-ethoxy-3-ethyl-2,3-dihydro-1,3-benzothiazol-2-imine

> <CAS>
2034155-63-8

> <PriceCoeff>
1.00

> <MW>
222.31

> <Description>
solid

> <FSP3>
0.36

> <clogP>
4.22

> <TPSA>
61.62

> <Acceptor>
1

> <Donor>
1

> <RotBonds>
3

> <HAC>
15

> <Collection>
General

> <Reference_compound>
PRI5904

> <Similarity>
0.8060

$$$$
F1190-0498
  -ISIS-  06222321452D

 20 22  0  0  0  0  0  0  0  0999 V2000
    2.6125    1.2458    0.0000 C   0  0  3  0  0  0  0  0  0  0  0  0
    1.1667    0.4083    0.0000 C   0  0  0  0  0  0  0  0  0  0  0  0
    1.8917    1.6625    0.0000 O   0  0  0  0  0  0  0  0  0  0  0  0
    1.8875   -0.0042    0.0000 C   0  0  0  0  0  0  0  0  0  0  0  0
    1.1750    1.2458    0.0000 C   0  0  0  0  0  0  0  0  0  0  0  0
    2.6125    0.4083    0.0000 C   0  0  0  0  0  0  0  0  0  0  0  0
    3.3250    1.6500    0.0000 C   0  0  0  0  0  0  0  0  0  0  0  0
    0.4542   -0.0000    0.0000 C   0  0  0  0  0  0  0  0  0  0  0  0
    3.3292    2.4708    0.0000 C   0  0  0  0  0  0  0  0  0  0  0  0
    1.8875   -0.8292    0.0000 O   0  0  0  0  0  0  0  0  0  0  0  0
    0.4542    1.6583    0.0000 C   0  0  0  0  0  0  0  0  0  0  0  0
   -0.2583    0.4125    0.0000 C   0  0  0  0  0  0  0  0  0  0  0  0
    2.6042    2.8833    0.0000 Cl  0  0  0  0  0  0  0  0  0  0  0  0
   -0.2583    1.2375    0.0000 C   0  0  0  0  0  0  0  0  0  0  0  0
    4.0417    1.2333    0.0000 C   0  0  0  0  0  0  0  0  0  0  0  0
   -0.9708   -0.0000    0.0000 O   0  0  0  0  0  0  0  0  0  0  0  0
    4.0417    2.8833    0.0000 C   0  0  0  0  0  0  0  0  0  0  0  0
   -0.9708   -0.8250    0.0000 C   0  0  0  0  0  0  0  0  0  0  0  0
    4.7542    1.6458    0.0000 C   0  0  0  0  0  0  0  0  0  0  0  0
    4.7542    2.4708    0.0000 C   0  0  0  0  0  0  0  0  0  0  0  0
  2  4  1  0  0  0  0
  3  1  1  0  0  0  0
  4  6  1  0  0  0  0
  5  3  1  0  0  0  0
  6  1  1  0  0  0  0
  7  1  1  0  0  0  0
  8  2  2  0  0  0  0
  9  7  1  0  0  0  0
 10  4  2  0  0  0  0
 11  5  2  0  0  0  0
 12  8  1  0  0  0  0
 13  9  1  0  0  0  0
 14 11  1  0  0  0  0
 15  7  2  0  0  0  0
 16 12  1  0  0  0  0
 17  9  2  0  0  0  0
 18 16  1  0  0  0  0
 19 15  1  0  0  0  0
 20 19  2  0  0  0  0
  2  5  1  0  0  0  0
 20 17  1  0  0  0  0
 12 14  2  0  0  0  0
M  END
> <IDNUMBER>
F1190-0498

> <Chemical_Name>
2-(2-chlorophenyl)-6-methoxy-3,4-dihydro-2H-1-benzopyran-4-one

> <CAS>
101272-90-6

> <PriceCoeff>
1.00

> <MW>
288.73

> <Description>
solid

> <FSP3>
0.19

> <clogP>
4.22

> <TPSA>
35.53

> <Acceptor>
3

> <Donor>
0

> <RotBonds>
2

> <HAC>
20

> <Collection>
General

> <Reference_compound>
CHEMBL274318

> <Similarity>
0.8070

$$$$
F3394-1157
  -ISIS-  06222321152D

 30 33  0  0  0  0  0  0  0  0999 V2000
    5.1167   -4.3000    0.0000 C   0  0  0  0  0  0  0  0  0  0  0  0
    5.0167   -3.4792    0.0000 C   0  0  0  0  0  0  0  0  0  0  0  0
    3.7042   -4.4792    0.0000 N   0  0  3  0  0  0  0  0  0  0  0  0
    3.6042   -3.6667    0.0000 C   0  0  0  0  0  0  0  0  0  0  0  0
    4.2542   -3.1667    0.0000 N   0  0  0  0  0  0  0  0  0  0  0  0
    4.4625   -4.8042    0.0000 C   0  0  0  0  0  0  0  0  0  0  0  0
    5.7542   -3.1375    0.0000 S   0  0  0  0  0  0  0  0  0  0  0  0
    5.9292   -4.4542    0.0000 C   0  0  0  0  0  0  0  0  0  0  0  0
    6.3292   -3.7167    0.0000 C   0  0  0  0  0  0  0  0  0  0  0  0
    2.8417   -3.3417    0.0000 S   0  0  0  0  0  0  0  0  0  0  0  0
    3.3125   -1.2042    0.0000 C   0  0  0  0  0  0  0  0  0  0  0  0
    3.0542   -4.9792    0.0000 C   0  0  0  0  0  0  0  0  0  0  0  0
    4.5792   -5.6167    0.0000 O   0  0  0  0  0  0  0  0  0  0  0  0
    3.9667   -0.7167    0.0000 C   0  0  0  0  0  0  0  0  0  0  0  0
    3.4042   -2.0250    0.0000 C   0  0  0  0  0  0  0  0  0  0  0  0
    3.8667    0.1000    0.0000 C   0  0  0  0  0  0  0  0  0  0  0  0
    2.7500   -2.5167    0.0000 C   0  0  0  0  0  0  0  0  0  0  0  0
    3.1125    0.4333    0.0000 C   0  0  0  0  0  0  0  0  0  0  0  0
    2.5500   -0.8792    0.0000 C   0  0  0  0  0  0  0  0  0  0  0  0
    4.1667   -2.3500    0.0000 O   0  0  0  0  0  0  0  0  0  0  0  0
    2.4417   -0.0625    0.0000 C   0  0  0  0  0  0  0  0  0  0  0  0
    6.2875   -5.2000    0.0000 C   0  0  0  0  0  0  0  0  0  0  0  0
    7.1542   -3.5917    0.0000 C   0  0  0  0  0  0  0  0  0  0  0  0
    4.5292    0.5958    0.0000 C   0  0  0  0  0  0  0  0  0  0  0  0
    3.1542   -5.8042    0.0000 C   0  0  0  0  0  0  0  0  0  0  0  0
    2.2875   -4.6750    0.0000 C   0  0  0  0  0  0  0  0  0  0  0  0
    3.0167    1.2500    0.0000 C   0  0  0  0  0  0  0  0  0  0  0  0
    1.6375   -5.1667    0.0000 C   0  0  0  0  0  0  0  0  0  0  0  0
    2.5042   -6.3125    0.0000 C   0  0  0  0  0  0  0  0  0  0  0  0
    1.7417   -5.9917    0.0000 C   0  0  0  0  0  0  0  0  0  0  0  0
  2  1  2  0  0  0  0
  3  6  1  0  0  0  0
  4  3  1  0  0  0  0
  5  2  1  0  0  0  0
  6  1  1  0  0  0  0
  7  2  1  0  0  0  0
  8  1  1  0  0  0  0
  9  8  2  0  0  0  0
 10  4  1  0  0  0  0
 11 15  1  0  0  0  0
 12  3  1  0  0  0  0
 13  6  2  0  0  0  0
 14 11  2  0  0  0  0
 15 17  1  0  0  0  0
 16 14  1  0  0  0  0
 17 10  1  0  0  0  0
 18 21  1  0  0  0  0
 19 11  1  0  0  0  0
 20 15  2  0  0  0  0
 21 19  2  0  0  0  0
 22  8  1  0  0  0  0
 23  9  1  0  0  0  0
 24 16  1  0  0  0  0
 25 12  1  0  0  0  0
 26 12  2  0  0  0  0
 27 18  1  0  0  0  0
 28 26  1  0  0  0  0
 29 25  2  0  0  0  0
 30 28  2  0  0  0  0
  7  9  1  0  0  0  0
  4  5  2  0  0  0  0
 30 29  1  0  0  0  0
 16 18  2  0  0  0  0
M  END
> <IDNUMBER>
F3394-1157

> <Chemical_Name>
2-{[2-(3,4-dimethylphenyl)-2-oxoethyl]sulfanyl}-5,6-dimethyl-3-phenyl-3H,4H-thieno[2,3-d]pyrimidin-4-one

> <CAS>
708286-73-1

> <PriceCoeff>
1.00

> <MW>
434.57

> <Description>
solid

> <FSP3>
0.21

> <clogP>
6.42

> <TPSA>
103.28

> <Acceptor>
3

> <Donor>
0

> <RotBonds>
5

> <HAC>
30

> <Collection>
General

> <Reference_compound>
CHEMBL577016

> <Similarity>
0.8580

$$$$
F5833-7571
  -ISIS-  06222321442D

 29 32  0  0  0  0  0  0  0  0999 V2000
   -3.8625    7.5292    0.0000 N   0  0  3  0  0  0  0  0  0  0  0  0
   -4.5833    7.9417    0.0000 C   0  0  0  0  0  0  0  0  0  0  0  0
   -3.8583    6.7000    0.0000 C   0  0  0  0  0  0  0  0  0  0  0  0
   -4.5833    3.8000    0.0000 C   0  0  0  0  0  0  0  0  0  0  0  0
   -3.1458    6.2792    0.0000 C   0  0  0  0  0  0  0  0  0  0  0  0
   -3.8625    4.2125    0.0000 N   0  0  0  0  0  0  0  0  0  0  0  0
   -4.5833    6.2792    0.0000 C   0  0  0  0  0  0  0  0  0  0  0  0
   -4.5833    2.9583    0.0000 C   0  0  0  0  0  0  0  0  0  0  0  0
   -5.3000    7.5292    0.0000 O   0  0  0  0  0  0  0  0  0  0  0  0
   -3.8625    5.0292    0.0000 C   0  0  0  0  0  0  0  0  0  0  0  0
   -3.1458    5.4542    0.0000 C   0  0  0  0  0  0  0  0  0  0  0  0
   -4.5833    8.7667    0.0000 C   0  0  0  0  0  0  0  0  0  0  0  0
   -5.2833    4.1917    0.0000 O   0  0  0  0  0  0  0  0  0  0  0  0
   -5.2833    2.5458    0.0000 C   0  0  0  0  0  0  0  0  0  0  0  0
   -3.8583    2.5250    0.0000 C   0  0  0  0  0  0  0  0  0  0  0  0
   -3.1375    7.9292    0.0000 C   0  0  0  0  0  0  0  0  0  0  0  0
   -4.5833    5.4542    0.0000 C   0  0  0  0  0  0  0  0  0  0  0  0
   -3.8583    1.7083    0.0000 C   0  0  0  0  0  0  0  0  0  0  0  0
   -5.2958    1.7208    0.0000 C   0  0  0  0  0  0  0  0  0  0  0  0
   -4.5958    1.2958    0.0000 C   0  0  0  0  0  0  0  0  0  0  0  0
   -2.4250    6.6917    0.0000 C   0  0  0  0  0  0  0  0  0  0  0  0
   -2.4208    7.5167    0.0000 C   0  0  0  0  0  0  0  0  0  0  0  0
   -3.8583    9.1792    0.0000 C   0  0  0  0  0  0  0  0  0  0  0  0
   -5.2958    9.1667    0.0000 C   0  0  0  0  0  0  0  0  0  0  0  0
   -4.5958    0.4625    0.0000 C   0  0  0  0  0  0  0  0  0  0  0  0
   -5.3208    0.0583    0.0000 C   0  0  0  0  0  0  0  0  0  0  0  0
   -5.3000   10.0042    0.0000 C   0  0  0  0  0  0  0  0  0  0  0  0
   -3.8583   10.0042    0.0000 C   0  0  0  0  0  0  0  0  0  0  0  0
   -4.5708   10.4250    0.0000 C   0  0  0  0  0  0  0  0  0  0  0  0
  2  1  1  0  0  0  0
  3  1  1  0  0  0  0
  4  6  1  0  0  0  0
  5  3  2  0  0  0  0
  6 10  1  0  0  0  0
  7  3  1  0  0  0  0
  8  4  1  0  0  0  0
  9  2  2  0  0  0  0
 10 17  1  0  0  0  0
 11  5  1  0  0  0  0
 12  2  1  0  0  0  0
 13  4  2  0  0  0  0
 14  8  2  0  0  0  0
 15  8  1  0  0  0  0
 16  1  1  0  0  0  0
 17  7  2  0  0  0  0
 18 15  2  0  0  0  0
 19 14  1  0  0  0  0
 20 18  1  0  0  0  0
 21 22  1  0  0  0  0
 22 16  1  0  0  0  0
 23 12  2  0  0  0  0
 24 12  1  0  0  0  0
 25 20  1  0  0  0  0
 26 25  1  0  0  0  0
 27 24  2  0  0  0  0
 28 23  1  0  0  0  0
 29 27  1  0  0  0  0
 21  5  1  0  0  0  0
 11 10  2  0  0  0  0
 29 28  2  0  0  0  0
 19 20  2  0  0  0  0
M  END
> <IDNUMBER>
F5833-7571

> <Chemical_Name>
N-(1-benzoyl-1,2,3,4-tetrahydroquinolin-6-yl)-4-ethylbenzamide

> <CAS>
1210423-54-3

> <PriceCoeff>
1.00

> <MW>
384.47

> <Description>
solid

> <FSP3>
0.20

> <clogP>
4.58

> <TPSA>
49.41

> <Acceptor>
2

> <Donor>
1

> <RotBonds>
5

> <HAC>
29

> <Collection>
General

> <Reference_compound>
CHEMBL2286417

> <Similarity>
0.8020

$$$$
F2040-0165
  -ISIS-  06222321452D

 30 33  0  0  0  0  0  0  0  0999 V2000
   -3.0333    7.5042    0.0000 N   0  0  3  0  0  0  0  0  0  0  0  0
   -3.7458    7.9250    0.0000 C   0  0  0  0  0  0  0  0  0  0  0  0
   -3.7708    0.4875    0.0000 N   0  3  0  0  0  0  0  0  0  0  0  0
   -3.7708    2.9833    0.0000 C   0  0  0  0  0  0  0  0  0  0  0  0
   -3.7583    3.8000    0.0000 C   0  0  0  0  0  0  0  0  0  0  0  0
   -3.0333    6.6792    0.0000 C   0  0  0  0  0  0  0  0  0  0  0  0
   -3.0375    2.5583    0.0000 C   0  0  0  0  0  0  0  0  0  0  0  0
   -3.7333    8.7542    0.0000 C   0  0  0  0  0  0  0  0  0  0  0  0
   -3.7625    1.3125    0.0000 C   0  0  0  0  0  0  0  0  0  0  0  0
   -3.0375    1.7250    0.0000 C   0  0  0  0  0  0  0  0  0  0  0  0
   -3.0458    4.2125    0.0000 N   0  0  0  0  0  0  0  0  0  0  0  0
   -2.3208    6.2667    0.0000 C   0  0  0  0  0  0  0  0  0  0  0  0
   -4.4833    2.5625    0.0000 C   0  0  0  0  0  0  0  0  0  0  0  0
   -3.7500    6.2750    0.0000 C   0  0  0  0  0  0  0  0  0  0  0  0
   -4.4833    0.0833    0.0000 O   0  5  0  0  0  0  0  0  0  0  0  0
   -4.4083    9.2500    0.0000 O   0  0  0  0  0  0  0  0  0  0  0  0
   -3.0583    0.0750    0.0000 O   0  0  0  0  0  0  0  0  0  0  0  0
   -4.4708    7.5250    0.0000 O   0  0  0  0  0  0  0  0  0  0  0  0
   -3.0458    5.0292    0.0000 C   0  0  0  0  0  0  0  0  0  0  0  0
   -2.3250    5.4417    0.0000 C   0  0  0  0  0  0  0  0  0  0  0  0
   -4.4750    4.2042    0.0000 O   0  0  0  0  0  0  0  0  0  0  0  0
   -3.0625    9.2375    0.0000 C   0  0  0  0  0  0  0  0  0  0  0  0
   -4.4833    1.7333    0.0000 C   0  0  0  0  0  0  0  0  0  0  0  0
   -4.1333   10.0292    0.0000 C   0  0  0  0  0  0  0  0  0  0  0  0
   -3.3083   10.0292    0.0000 C   0  0  0  0  0  0  0  0  0  0  0  0
   -2.3083    7.9042    0.0000 C   0  0  0  0  0  0  0  0  0  0  0  0
   -2.3208    2.9625    0.0000 Cl  0  0  0  0  0  0  0  0  0  0  0  0
   -3.7583    5.4542    0.0000 C   0  0  0  0  0  0  0  0  0  0  0  0
   -1.6083    6.6667    0.0000 C   0  0  0  0  0  0  0  0  0  0  0  0
   -1.6000    7.4917    0.0000 C   0  0  0  0  0  0  0  0  0  0  0  0
  2  1  1  0  0  0  0
  3  9  1  0  0  0  0
  4  5  1  0  0  0  0
  5 11  1  0  0  0  0
  6  1  1  0  0  0  0
  7  4  1  0  0  0  0
  8  2  1  0  0  0  0
  9 23  2  0  0  0  0
 10  7  2  0  0  0  0
 11 19  1  0  0  0  0
 12  6  2  0  0  0  0
 13  4  2  0  0  0  0
 14  6  1  0  0  0  0
 15  3  1  0  0  0  0
 16  8  1  0  0  0  0
 17  3  2  0  0  0  0
 18  2  2  0  0  0  0
 19 28  1  0  0  0  0
 20 12  1  0  0  0  0
 21  5  2  0  0  0  0
 22  8  2  0  0  0  0
 23 13  1  0  0  0  0
 24 16  1  0  0  0  0
 25 22  1  0  0  0  0
 26  1  1  0  0  0  0
 27  7  1  0  0  0  0
 28 14  2  0  0  0  0
 29 30  1  0  0  0  0
 30 26  1  0  0  0  0
 29 12  1  0  0  0  0
 19 20  2  0  0  0  0
 25 24  2  0  0  0  0
  9 10  1  0  0  0  0
M  CHG  2   3   1  15  -1
M  END
> <IDNUMBER>
F2040-0165

> <Chemical_Name>
2-chloro-N-[1-(furan-2-carbonyl)-1,2,3,4-tetrahydroquinolin-6-yl]-4-nitrobenzamide

> <CAS>
941986-43-2

> <PriceCoeff>
1.00

> <MW>
425.82

> <Description>
solid

> <FSP3>
0.14

> <clogP>
2.85

> <TPSA>
105.69

> <Acceptor>
5

> <Donor>
1

> <RotBonds>
5

> <HAC>
30

> <Collection>
General

$$$$
F3139-0687
  -ISIS-  06222321462D

 26 29  0  0  0  0  0  0  0  0999 V2000
    2.2542   -7.0875    0.0000 C   0  0  0  0  0  0  0  0  0  0  0  0
    0.8292   -7.0875    0.0000 C   0  0  0  0  0  0  0  0  0  0  0  0
    1.5417   -7.5000    0.0000 C   0  0  0  0  0  0  0  0  0  0  0  0
    2.2542   -6.2625    0.0000 C   0  0  0  0  0  0  0  0  0  0  0  0
    0.8292   -6.2625    0.0000 C   0  0  0  0  0  0  0  0  0  0  0  0
    2.9750   -7.5000    0.0000 C   0  0  0  0  0  0  0  0  0  0  0  0
    1.5417   -5.8500    0.0000 O   0  0  0  0  0  0  0  0  0  0  0  0
    0.1167   -7.5000    0.0000 C   0  0  0  0  0  0  0  0  0  0  0  0
    0.1167   -5.8500    0.0000 C   0  0  0  0  0  0  0  0  0  0  0  0
    4.4042   -7.5000    0.0000 C   0  0  0  0  0  0  0  0  0  0  0  0
   -0.5958   -6.2625    0.0000 C   0  0  0  0  0  0  0  0  0  0  0  0
    3.6917   -7.0875    0.0000 C   0  0  0  0  0  0  0  0  0  0  0  0
   -0.5958   -7.0875    0.0000 C   0  0  0  0  0  0  0  0  0  0  0  0
    4.4042   -8.3292    0.0000 C   0  0  0  0  0  0  0  0  0  0  0  0
    1.5417   -8.3250    0.0000 O   0  0  0  0  0  0  0  0  0  0  0  0
    5.0500   -6.9875    0.0000 O   0  0  0  0  0  0  0  0  0  0  0  0
    2.9750   -8.3292    0.0000 C   0  0  0  0  0  0  0  0  0  0  0  0
    5.0500   -8.8417    0.0000 O   0  0  0  0  0  0  0  0  0  0  0  0
    3.6875   -8.7417    0.0000 C   0  0  0  0  0  0  0  0  0  0  0  0
   -1.3208   -5.8500    0.0000 O   0  0  0  0  0  0  0  0  0  0  0  0
    6.2042   -7.9042    0.0000 C   0  0  0  0  0  0  0  0  0  0  0  0
    5.8500   -7.1667    0.0000 C   0  0  0  0  0  0  0  0  0  0  0  0
    5.8500   -8.6542    0.0000 C   0  0  0  0  0  0  0  0  0  0  0  0
   -1.3125   -7.5000    0.0000 C   0  0  0  0  0  0  0  0  0  0  0  0
   -1.3208   -5.0250    0.0000 C   0  0  0  0  0  0  0  0  0  0  0  0
   -2.0250   -7.0875    0.0000 C   0  0  0  0  0  0  0  0  0  0  0  0
  2  3  1  0  0  0  0
  3  1  1  0  0  0  0
  4  1  2  0  0  0  0
  5  7  1  0  0  0  0
  6  1  1  0  0  0  0
  7  4  1  0  0  0  0
  8  2  2  0  0  0  0
  9  5  2  0  0  0  0
 10 12  2  0  0  0  0
 11  9  1  0  0  0  0
 12  6  1  0  0  0  0
 13  8  1  0  0  0  0
 14 19  2  0  0  0  0
 15  3  2  0  0  0  0
 16 10  1  0  0  0  0
 17  6  2  0  0  0  0
 18 14  1  0  0  0  0
 19 17  1  0  0  0  0
 20 11  1  0  0  0  0
 21 22  1  0  0  0  0
 22 16  1  0  0  0  0
 23 18  1  0  0  0  0
 24 13  1  0  0  0  0
 25 20  1  0  0  0  0
 26 24  1  0  0  0  0
  5  2  1  0  0  0  0
 10 14  1  0  0  0  0
 11 13  2  0  0  0  0
 21 23  1  0  0  0  0
M  END
> <IDNUMBER>
F3139-0687

> <Chemical_Name>
3-(3,4-dihydro-2H-1,5-benzodioxepin-7-yl)-6-ethyl-7-methoxy-4H-chromen-4-one

> <CAS>
610754-41-1

> <PriceCoeff>
1.00

> <MW>
352.38

> <Description>
solid

> <FSP3>
0.29

> <clogP>
4.20

> <TPSA>
53.99

> <Acceptor>
5

> <Donor>
0

> <RotBonds>
3

> <HAC>
26

> <Collection>
General

> <Reference_compound>
CHEMBL455048

> <Similarity>
0.8610

$$$$
F3325-0132
  -ISIS-  06222321462D

 27 29  0  0  0  0  0  0  0  0999 V2000
    3.0375   -3.0417    0.0000 N   0  0  3  0  0  0  0  0  0  0  0  0
    3.4875   -2.3500    0.0000 C   0  0  0  0  0  0  0  0  0  0  0  0
    3.5542   -3.6917    0.0000 C   0  0  0  0  0  0  0  0  0  0  0  0
    4.3250   -3.4000    0.0000 C   0  0  3  0  0  0  0  0  0  0  0  0
    4.2875   -2.5667    0.0000 C   0  0  0  0  0  0  0  0  0  0  0  0
    2.2125   -3.0875    0.0000 C   0  0  0  0  0  0  0  0  0  0  0  0
    0.4917   -1.7292    0.0000 C   0  0  3  0  0  0  0  0  0  0  0  0
    5.0625   -3.7792    0.0000 N   0  0  0  0  0  0  0  0  0  0  0  0
    0.9417   -2.4292    0.0000 C   0  0  0  0  0  0  0  0  0  0  0  0
    1.7667   -2.3875    0.0000 C   0  0  0  0  0  0  0  0  0  0  0  0
    3.1917   -1.5792    0.0000 O   0  0  0  0  0  0  0  0  0  0  0  0
    3.3375   -4.4875    0.0000 O   0  0  0  0  0  0  0  0  0  0  0  0
    7.1500   -2.4292    0.0000 C   0  0  0  0  0  0  0  0  0  0  0  0
    7.8417   -1.9875    0.0000 N   0  0  3  0  0  0  0  0  0  0  0  0
    0.0917   -1.1042    0.0000 F   0  0  0  0  0  0  0  0  0  0  0  0
    0.7625   -0.9167    0.0000 F   0  0  0  0  0  0  0  0  0  0  0  0
   -0.3583   -1.6417    0.0000 F   0  0  0  0  0  0  0  0  0  0  0  0
    5.7625   -3.3292    0.0000 C   0  0  0  0  0  0  0  0  0  0  0  0
    7.1917   -3.2625    0.0000 C   0  0  0  0  0  0  0  0  0  0  0  0
    6.4167   -2.0542    0.0000 C   0  0  0  0  0  0  0  0  0  0  0  0
    6.4917   -3.7042    0.0000 C   0  0  0  0  0  0  0  0  0  0  0  0
    5.7250   -2.5042    0.0000 C   0  0  0  0  0  0  0  0  0  0  0  0
    1.8417   -3.8167    0.0000 C   0  0  0  0  0  0  0  0  0  0  0  0
    0.5667   -3.1667    0.0000 C   0  0  0  0  0  0  0  0  0  0  0  0
    1.0167   -3.8542    0.0000 C   0  0  0  0  0  0  0  0  0  0  0  0
    7.8042   -1.1625    0.0000 C   0  0  0  0  0  0  0  0  0  0  0  0
    8.5792   -2.3625    0.0000 C   0  0  0  0  0  0  0  0  0  0  0  0
  2  1  1  0  0  0  0
  3  1  1  0  0  0  0
  4  3  1  0  0  0  0
  5  2  1  0  0  0  0
  6  1  1  0  0  0  0
  7  9  1  0  0  0  0
  8  4  1  0  0  0  0
  9 10  1  0  0  0  0
 10  6  2  0  0  0  0
 11  2  2  0  0  0  0
 12  3  2  0  0  0  0
 13 20  2  0  0  0  0
 14 13  1  0  0  0  0
 15  7  1  0  0  0  0
 16  7  1  0  0  0  0
 17  7  1  0  0  0  0
 18  8  1  0  0  0  0
 19 21  2  0  0  0  0
 20 22  1  0  0  0  0
 21 18  1  0  0  0  0
 22 18  2  0  0  0  0
 23  6  1  0  0  0  0
 24 25  1  0  0  0  0
 25 23  2  0  0  0  0
 26 14  1  0  0  0  0
 27 14  1  0  0  0  0
  5  4  1  0  0  0  0
  9 24  2  0  0  0  0
 19 13  1  0  0  0  0
M  END
> <IDNUMBER>
F3325-0132

> <Chemical_Name>
3-{[4-(dimethylamino)phenyl]amino}-1-[3-(trifluoromethyl)phenyl]pyrrolidine-2,5-dione

> <CAS>
1025395-91-8

> <PriceCoeff>
1.00

> <MW>
377.36

> <Description>
solid

> <FSP3>
0.26

> <clogP>
4.02

> <TPSA>
52.65

> <Acceptor>
4

> <Donor>
2

> <RotBonds>
4

> <HAC>
27

> <Collection>
General

$$$$
F3023-0397
  -ISIS-  06222321152D

 23 25  0  0  0  0  0  0  0  0999 V2000
   11.0292   -6.1542    0.0000 N   0  0  3  0  0  0  0  0  0  0  0  0
   10.6042   -6.7375    0.0000 C   0  0  0  0  0  0  0  0  0  0  0  0
   10.6042   -5.5750    0.0000 C   0  0  0  0  0  0  0  0  0  0  0  0
    9.9167   -6.5042    0.0000 C   0  0  3  0  0  0  0  0  0  0  0  0
    9.9250   -5.7917    0.0000 C   0  0  0  0  0  0  0  0  0  0  0  0
   11.7417   -6.1625    0.0000 C   0  0  0  0  0  0  0  0  0  0  0  0
    9.3417   -6.9292    0.0000 N   0  0  0  0  0  0  0  0  0  0  0  0
   10.8167   -7.4167    0.0000 O   0  0  0  0  0  0  0  0  0  0  0  0
   10.8292   -4.8917    0.0000 O   0  0  0  0  0  0  0  0  0  0  0  0
    8.6875   -6.6292    0.0000 C   0  0  0  0  0  0  0  0  0  0  0  0
   12.1042   -5.5417    0.0000 C   0  0  0  0  0  0  0  0  0  0  0  0
    7.3875   -6.0417    0.0000 C   0  0  0  0  0  0  0  0  0  0  0  0
    8.1125   -7.0500    0.0000 C   0  0  0  0  0  0  0  0  0  0  0  0
    8.6167   -5.9167    0.0000 C   0  0  0  0  0  0  0  0  0  0  0  0
    7.9667   -5.6250    0.0000 C   0  0  0  0  0  0  0  0  0  0  0  0
    7.4542   -6.7542    0.0000 C   0  0  0  0  0  0  0  0  0  0  0  0
   12.8250   -5.5500    0.0000 C   0  0  0  0  0  0  0  0  0  0  0  0
    6.7292   -5.7417    0.0000 C   0  0  0  0  0  0  0  0  0  0  0  0
   13.1750   -6.1667    0.0000 C   0  0  0  0  0  0  0  0  0  0  0  0
   13.1792   -4.9292    0.0000 C   0  0  0  0  0  0  0  0  0  0  0  0
   13.8917   -4.9292    0.0000 C   0  0  0  0  0  0  0  0  0  0  0  0
   13.8917   -6.1792    0.0000 C   0  0  0  0  0  0  0  0  0  0  0  0
   14.2542   -5.5542    0.0000 C   0  0  0  0  0  0  0  0  0  0  0  0
  2  1  1  0  0  0  0
  3  1  1  0  0  0  0
  4  2  1  0  0  0  0
  5  3  1  0  0  0  0
  6  1  1  0  0  0  0
  7  4  1  0  0  0  0
  8  2  2  0  0  0  0
  9  3  2  0  0  0  0
 10  7  1  0  0  0  0
 11  6  1  0  0  0  0
 12 15  2  0  0  0  0
 13 10  1  0  0  0  0
 14 10  2  0  0  0  0
 15 14  1  0  0  0  0
 16 13  2  0  0  0  0
 17 11  1  0  0  0  0
 18 12  1  0  0  0  0
 19 17  2  0  0  0  0
 20 17  1  0  0  0  0
 21 20  2  0  0  0  0
 22 19  1  0  0  0  0
 23 21  1  0  0  0  0
  4  5  1  0  0  0  0
 23 22  2  0  0  0  0
 16 12  1  0  0  0  0
M  END
> <IDNUMBER>
F3023-0397

> <Chemical_Name>
3-[(4-methylphenyl)amino]-1-(2-phenylethyl)pyrrolidine-2,5-dione

> <CAS>
1009168-09-5

> <PriceCoeff>
1.00

> <MW>
308.37

> <Description>
solid

> <FSP3>
0.26

> <clogP>
4.25

> <TPSA>
49.41

> <Acceptor>
3

> <Donor>
1

> <RotBonds>
5

> <HAC>
23

> <Collection>
General

$$$$
F0440-0391
  -ISIS-  06222321442D

 29 31  0  0  0  0  0  0  0  0999 V2000
    1.8042    2.4125    0.0000 N   0  0  3  0  0  0  0  0  0  0  0  0
   -0.7208    1.0625    0.0000 C   0  0  0  0  0  0  0  0  0  0  0  0
   -1.1625    1.5000    0.0000 C   0  0  0  0  0  0  0  0  0  0  0  0
    1.1000    1.6208    0.0000 C   0  0  0  0  0  0  0  0  0  0  0  0
    1.6792    1.8125    0.0000 C   0  0  0  0  0  0  0  0  0  0  0  0
    0.6292    2.0458    0.0000 C   0  0  0  0  0  0  0  0  0  0  0  0
    1.4000    2.9000    0.0000 C   0  0  0  0  0  0  0  0  0  0  0  0
    2.4000    2.6458    0.0000 C   0  0  0  0  0  0  0  0  0  0  0  0
   -1.0000    2.1000    0.0000 C   0  0  0  0  0  0  0  0  0  0  0  0
   -0.1208    1.2208    0.0000 C   0  0  0  0  0  0  0  0  0  0  0  0
    0.0292    1.8625    0.0000 N   0  0  0  0  0  0  0  0  0  0  0  0
   -0.9000    0.4625    0.0000 C   0  0  0  0  0  0  0  0  0  0  0  0
   -1.4208    2.5458    0.0000 C   0  0  0  0  0  0  0  0  0  0  0  0
    0.9542    1.0125    0.0000 O   0  0  0  0  0  0  0  0  0  0  0  0
   -1.7625    1.3458    0.0000 O   0  0  0  0  0  0  0  0  0  0  0  0
    0.7667    2.6458    0.0000 O   0  0  0  0  0  0  0  0  0  0  0  0
    1.7542    3.4208    0.0000 C   0  0  0  0  0  0  0  0  0  0  0  0
    2.3500    3.2708    0.0000 C   0  0  0  0  0  0  0  0  0  0  0  0
    0.7792    3.0208    0.0000 O   0  0  0  0  0  0  0  0  0  0  0  0
    2.9042    2.2708    0.0000 O   0  0  0  0  0  0  0  0  0  0  0  0
    0.3042    0.7833    0.0000 C   0  0  0  0  0  0  0  0  0  0  0  0
   -0.4625    0.0208    0.0000 C   0  0  0  0  0  0  0  0  0  0  0  0
   -2.0625    2.4000    0.0000 Cl  0  0  0  0  0  0  0  0  0  0  0  0
    0.1292    0.2000    0.0000 C   0  0  0  0  0  0  0  0  0  0  0  0
   -0.6458   -0.6000    0.0000 Br  0  0  0  0  0  0  0  0  0  0  0  0
   -0.4000    2.2708    0.0000 C   0  0  0  0  0  0  0  0  0  0  0  0
   -1.2625    3.1458    0.0000 C   0  0  0  0  0  0  0  0  0  0  0  0
   -0.2208    2.8458    0.0000 C   0  0  0  0  0  0  0  0  0  0  0  0
   -0.6625    3.3000    0.0000 C   0  0  0  0  0  0  0  0  0  0  0  0
  2 10  2  0  0  0  0
  3  2  1  0  0  0  0
  4  5  1  0  0  0  0
  5  1  1  0  0  0  0
  6  4  1  0  0  0  0
  7  1  1  0  0  0  0
  8  1  1  0  0  0  0
  9  3  1  0  0  0  0
 10 11  1  0  0  0  0
 11  6  1  0  0  0  0
 12  2  1  0  0  0  0
 13  9  1  0  0  0  0
 14  4  2  0  0  0  0
 15  3  2  0  0  0  0
 16  6  2  0  0  0  0
 17  7  1  0  0  0  0
 18  8  1  0  0  0  0
 19  7  2  0  0  0  0
 20  8  2  0  0  0  0
 21 10  1  0  0  0  0
 22 24  1  0  0  0  0
 23 13  1  0  0  0  0
 24 21  2  0  0  0  0
 25 22  1  0  0  0  0
 26  9  2  0  0  0  0
 27 13  2  0  0  0  0
 28 26  1  0  0  0  0
 29 28  2  0  0  0  0
 18 17  1  0  0  0  0
 22 12  2  0  0  0  0
 29 27  1  0  0  0  0
M  END
> <IDNUMBER>
F0440-0391

> <Chemical_Name>
N-[4-bromo-2-(2-chlorobenzoyl)phenyl]-3-(2,5-dioxopyrrolidin-1-yl)-2-oxopropanamide

> <CAS>
329903-17-5

> <PriceCoeff>
1.00

> <MW>
477.69

> <Description>
solid

> <FSP3>
0.15

> <clogP>
2.73

> <TPSA>
100.62

> <Acceptor>
5

> <Donor>
1

> <RotBonds>
6

> <HAC>
29

> <Collection>
General

$$$$
F2146-0732
  -ISIS-  06222304352D

 28 29  0  0  0  0  0  0  0  0999 V2000
    4.6542   -3.2667    0.0000 C   0  0  0  0  0  0  0  0  0  0  0  0
    4.4000   -4.0542    0.0000 N   0  0  3  0  0  0  0  0  0  0  0  0
    3.9917   -2.7792    0.0000 S   0  0  0  0  0  0  0  0  0  0  0  0
    3.5750   -4.0542    0.0000 C   0  0  0  0  0  0  0  0  0  0  0  0
    3.3167   -3.2667    0.0000 C   0  0  0  0  0  0  0  0  0  0  0  0
    3.0167   -4.6667    0.0000 C   0  0  0  0  0  0  0  0  0  0  0  0
    2.5083   -3.0917    0.0000 C   0  0  0  0  0  0  0  0  0  0  0  0
    5.4458   -3.0125    0.0000 N   0  0  0  0  0  0  0  0  0  0  0  0
    2.2125   -4.4917    0.0000 C   0  0  0  0  0  0  0  0  0  0  0  0
    1.9500   -3.7083    0.0000 C   0  0  0  0  0  0  0  0  0  0  0  0
    4.8875   -4.7292    0.0000 C   0  0  0  0  0  0  0  0  0  0  0  0
    5.0375   -6.1625    0.0000 O   0  0  0  0  0  0  0  0  0  0  0  0
    1.6542   -5.1042    0.0000 C   0  0  0  0  0  0  0  0  0  0  0  0
    1.1375   -3.5333    0.0000 C   0  0  0  0  0  0  0  0  0  0  0  0
    4.5500   -5.4875    0.0000 C   0  0  0  0  0  0  0  0  0  0  0  0
    4.7000   -6.9208    0.0000 C   0  0  0  0  0  0  0  0  0  0  0  0
    5.1833   -7.5917    0.0000 C   0  0  0  0  0  0  0  0  0  0  0  0
    8.4806   -4.1163    0.0000 S   0  0  3  0  0  0  0  0  0  0  0  0
    8.0778   -4.8261    0.0000 C   0  0  0  0  0  0  0  0  0  0  0  0
    7.7697   -3.6950    0.0000 O   0  0  0  0  0  0  0  0  0  0  0  0
    8.8864   -3.3952    0.0000 O   0  0  0  0  0  0  0  0  0  0  0  0
    9.2018   -4.5221    0.0000 O   0  0  0  0  0  0  0  0  0  0  0  0
    8.4932   -5.5437    0.0000 C   0  0  0  0  0  0  0  0  0  0  0  0
    7.2473   -4.8303    0.0000 C   0  0  0  0  0  0  0  0  0  0  0  0
    8.0761   -6.2619    0.0000 C   0  0  0  0  0  0  0  0  0  0  0  0
    6.8394   -5.5478    0.0000 C   0  0  0  0  0  0  0  0  0  0  0  0
    7.2528   -6.2618    0.0000 C   0  0  0  0  0  0  0  0  0  0  0  0
    6.8392   -6.9779    0.0000 C   0  0  0  0  0  0  0  0  0  0  0  0
 13  9  1  0  0  0  0
 14 10  1  0  0  0  0
 15 11  1  0  0  0  0
 16 12  1  0  0  0  0
 17 16  1  0  0  0  0
  5  4  2  0  0  0  0
  9 10  1  0  0  0  0
  2  1  1  0  0  0  0
  3  1  1  0  0  0  0
  4  2  1  0  0  0  0
  5  3  1  0  0  0  0
  6  4  1  0  0  0  0
  7  5  1  0  0  0  0
  8  1  2  0  0  0  0
  9  6  2  0  0  0  0
 10  7  2  0  0  0  0
 11  2  1  0  0  0  0
 12 15  1  0  0  0  0
 19 18  1  0  0  0  0
 20 18  2  0  0  0  0
 21 18  2  0  0  0  0
 22 18  1  0  0  0  0
 23 19  1  0  0  0  0
 24 19  2  0  0  0  0
 25 23  2  0  0  0  0
 26 24  1  0  0  0  0
 27 26  2  0  0  0  0
 28 27  1  0  0  0  0
 25 27  1  0  0  0  0
M  END
> <IDNUMBER>
F2146-0732

> <Chemical_Name>
3-(2-ethoxyethyl)-5,6-dimethyl-2,3-dihydro-1,3-benzothiazol-2-imine; 4-methylbenzene-1-sulfonic acid

> <CAS>
2034154-94-2

> <PriceCoeff>
1.00

> <MW>
250.36

> <Description>
solid

> <FSP3>
0.46

> <clogP>
4.25

> <TPSA>
61.62

> <Acceptor>
1

> <Donor>
1

> <RotBonds>
4

> <HAC>
17

> <Collection>
General

> <Reference_compound>
PRI5904

> <Similarity>
0.8060

$$$$
F0327-0377
  -ISIS-  06222321142D

 31 34  0  0  0  0  0  0  0  0999 V2000
    4.5500   -2.3375    0.0000 N   0  0  3  0  0  0  0  0  0  0  0  0
    0.6167    0.0833    0.0000 C   0  0  0  0  0  0  0  0  0  0  0  0
    1.1292    0.6000    0.0000 C   0  0  0  0  0  0  0  0  0  0  0  0
    5.1875   -1.9375    0.0000 C   0  0  0  0  0  0  0  0  0  0  0  0
    4.7292   -3.0375    0.0000 C   0  0  0  0  0  0  0  0  0  0  0  0
    0.8167   -0.6292    0.0000 C   0  0  0  0  0  0  0  0  0  0  0  0
    1.7292   -1.5167    0.0000 C   0  0  0  0  0  0  0  0  0  0  0  0
    1.5292   -0.8000    0.0000 N   0  0  0  0  0  0  0  0  0  0  0  0
    3.8500   -2.1375    0.0000 C   0  0  0  0  0  0  0  0  0  0  0  0
    2.4292   -1.7167    0.0000 C   0  0  0  0  0  0  0  0  0  0  0  0
   -0.1000    0.2625    0.0000 C   0  0  0  0  0  0  0  0  0  0  0  0
    1.8792    0.5208    0.0000 O   0  0  0  0  0  0  0  0  0  0  0  0
    1.2042   -2.0375    0.0000 O   0  0  0  0  0  0  0  0  0  0  0  0
    5.7500   -2.4167    0.0000 C   0  0  0  0  0  0  0  0  0  0  0  0
    5.4667   -3.1000    0.0000 C   0  0  0  0  0  0  0  0  0  0  0  0
    5.2500   -1.2000    0.0000 O   0  0  0  0  0  0  0  0  0  0  0  0
    4.2667   -3.6167    0.0000 O   0  0  0  0  0  0  0  0  0  0  0  0
    0.8542    1.2833    0.0000 C   0  0  0  0  0  0  0  0  0  0  0  0
    0.3167   -1.1542    0.0000 C   0  0  0  0  0  0  0  0  0  0  0  0
    3.6667   -1.4167    0.0000 C   0  0  0  0  0  0  0  0  0  0  0  0
    3.3292   -2.6375    0.0000 C   0  0  0  0  0  0  0  0  0  0  0  0
    2.6042   -2.4375    0.0000 C   0  0  0  0  0  0  0  0  0  0  0  0
    2.9667   -1.2167    0.0000 C   0  0  0  0  0  0  0  0  0  0  0  0
   -0.6125   -0.2792    0.0000 C   0  0  0  0  0  0  0  0  0  0  0  0
   -0.4000   -0.9792    0.0000 C   0  0  0  0  0  0  0  0  0  0  0  0
    1.3042    1.8708    0.0000 C   0  0  0  0  0  0  0  0  0  0  0  0
    0.1292    1.3708    0.0000 C   0  0  0  0  0  0  0  0  0  0  0  0
   -1.3333   -0.1167    0.0000 C   0  0  0  0  0  0  0  0  0  0  0  0
    1.0375    2.5500    0.0000 C   0  0  0  0  0  0  0  0  0  0  0  0
   -0.1500    2.0625    0.0000 C   0  0  0  0  0  0  0  0  0  0  0  0
    0.3042    2.6500    0.0000 C   0  0  0  0  0  0  0  0  0  0  0  0
  2  6  2  0  0  0  0
  3  2  1  0  0  0  0
  4  1  1  0  0  0  0
  5  1  1  0  0  0  0
  6  8  1  0  0  0  0
  7 10  1  0  0  0  0
  8  7  1  0  0  0  0
  9  1  1  0  0  0  0
 10 22  2  0  0  0  0
 11  2  1  0  0  0  0
 12  3  2  0  0  0  0
 13  7  2  0  0  0  0
 14  4  1  0  0  0  0
 15  5  1  0  0  0  0
 16  4  2  0  0  0  0
 17  5  2  0  0  0  0
 18  3  1  0  0  0  0
 19  6  1  0  0  0  0
 20  9  1  0  0  0  0
 21  9  2  0  0  0  0
 22 21  1  0  0  0  0
 23 20  2  0  0  0  0
 24 25  1  0  0  0  0
 25 19  2  0  0  0  0
 26 18  2  0  0  0  0
 27 18  1  0  0  0  0
 28 24  1  0  0  0  0
 29 26  1  0  0  0  0
 30 27  2  0  0  0  0
 31 30  1  0  0  0  0
 15 14  1  0  0  0  0
 23 10  1  0  0  0  0
 24 11  2  0  0  0  0
 31 29  2  0  0  0  0
M  END
> <IDNUMBER>
F0327-0377

> <Chemical_Name>
N-(2-benzoyl-4-methylphenyl)-4-(2,5-dioxopyrrolidin-1-yl)benzamide

> <CAS>
330200-93-6

> <PriceCoeff>
1.00

> <MW>
412.44

> <Description>
solid

> <FSP3>
0.12

> <clogP>
3.23

> <TPSA>
83.55

> <Acceptor>
4

> <Donor>
1

> <RotBonds>
5

> <HAC>
31

> <Collection>
General

$$$$
F0758-0026
  -ISIS-  06222321142D

 22 24  0  0  0  0  0  0  0  0999 V2000
   -0.8708    0.1708    0.0000 C   0  0  0  0  0  0  0  0  0  0  0  0
   -1.7125    1.6125    0.0000 C   0  0  0  0  0  0  0  0  0  0  0  0
   -0.0333    0.6500    0.0000 C   0  0  0  0  0  0  0  0  0  0  0  0
   -1.7125    0.6500    0.0000 C   0  0  0  0  0  0  0  0  0  0  0  0
   -0.8708    2.0958    0.0000 O   0  0  0  0  0  0  0  0  0  0  0  0
   -0.0333    1.6125    0.0000 C   0  0  0  0  0  0  0  0  0  0  0  0
   -2.5333    2.0958    0.0000 C   0  0  0  0  0  0  0  0  0  0  0  0
   -2.5333    0.1708    0.0000 C   0  0  0  0  0  0  0  0  0  0  0  0
   -0.8708   -0.7875    0.0000 O   0  0  0  0  0  0  0  0  0  0  0  0
   -3.3708    1.6125    0.0000 C   0  0  0  0  0  0  0  0  0  0  0  0
    0.8042    0.1708    0.0000 C   0  0  0  0  0  0  0  0  0  0  0  0
   -3.3708    0.6500    0.0000 C   0  0  0  0  0  0  0  0  0  0  0  0
    0.8292    2.1125    0.0000 C   0  0  0  0  0  0  0  0  0  0  0  0
   -4.2333    2.1125    0.0000 O   0  0  0  0  0  0  0  0  0  0  0  0
   -2.5125    2.9958    0.0000 C   0  0  0  0  0  0  0  0  0  0  0  0
    0.8042   -0.7875    0.0000 C   0  0  0  0  0  0  0  0  0  0  0  0
    1.6292    0.6500    0.0000 C   0  0  0  0  0  0  0  0  0  0  0  0
   -5.0500    1.6333    0.0000 C   0  0  0  0  0  0  0  0  0  0  0  0
   -5.8958    2.1125    0.0000 C   0  0  0  0  0  0  0  0  0  0  0  0
    1.6292   -1.2667    0.0000 C   0  0  0  0  0  0  0  0  0  0  0  0
    2.4667    0.1708    0.0000 C   0  0  0  0  0  0  0  0  0  0  0  0
    2.4667   -0.7875    0.0000 C   0  0  0  0  0  0  0  0  0  0  0  0
  2  4  2  0  0  0  0
  3  1  1  0  0  0  0
  4  1  1  0  0  0  0
  5  2  1  0  0  0  0
  6  3  2  0  0  0  0
  7  2  1  0  0  0  0
  8  4  1  0  0  0  0
  9  1  2  0  0  0  0
 10 12  1  0  0  0  0
 11  3  1  0  0  0  0
 12  8  2  0  0  0  0
 13  6  1  0  0  0  0
 14 10  1  0  0  0  0
 15  7  1  0  0  0  0
 16 11  1  0  0  0  0
 17 11  2  0  0  0  0
 18 14  1  0  0  0  0
 19 18  1  0  0  0  0
 20 16  2  0  0  0  0
 21 17  1  0  0  0  0
 22 21  2  0  0  0  0
  5  6  1  0  0  0  0
  7 10  2  0  0  0  0
 20 22  1  0  0  0  0
M  END
> <IDNUMBER>
F0758-0026

> <Chemical_Name>
7-ethoxy-2,8-dimethyl-3-phenyl-4H-chromen-4-one

> <CAS>
315233-56-8

> <PriceCoeff>
1.00

> <MW>
294.34

> <Description>
solid

> <FSP3>
0.21

> <clogP>
4.31

> <TPSA>
35.53

> <Acceptor>
3

> <Donor>
0

> <RotBonds>
3

> <HAC>
22

> <Collection>
General

> <Reference_compound>
CHEMBL463936

> <Similarity>
0.8290

$$$$
F0196-0379
  -ISIS-  06222321442D

 25 28  0  0  0  0  0  0  0  0999 V2000
    1.1167   -0.7292    0.0000 C   0  0  0  0  0  0  0  0  0  0  0  0
   -0.1458   -0.7292    0.0000 C   0  0  0  0  0  0  0  0  0  0  0  0
    0.4792   -1.0875    0.0000 C   0  0  0  0  0  0  0  0  0  0  0  0
    1.1167   -0.0042    0.0000 C   0  0  0  0  0  0  0  0  0  0  0  0
   -0.1458   -0.0042    0.0000 C   0  0  0  0  0  0  0  0  0  0  0  0
    1.7375   -1.0875    0.0000 C   0  0  0  0  0  0  0  0  0  0  0  0
    0.4792    0.3708    0.0000 O   0  0  0  0  0  0  0  0  0  0  0  0
   -0.7625   -1.0875    0.0000 C   0  0  0  0  0  0  0  0  0  0  0  0
   -0.7625    0.3708    0.0000 C   0  0  0  0  0  0  0  0  0  0  0  0
    2.9792   -1.0875    0.0000 C   0  0  0  0  0  0  0  0  0  0  0  0
   -1.4000   -0.0042    0.0000 C   0  0  0  0  0  0  0  0  0  0  0  0
    2.3542   -0.7292    0.0000 C   0  0  0  0  0  0  0  0  0  0  0  0
   -1.4000   -0.7292    0.0000 C   0  0  0  0  0  0  0  0  0  0  0  0
    2.9792   -1.8042    0.0000 C   0  0  0  0  0  0  0  0  0  0  0  0
    0.4792   -1.8042    0.0000 O   0  0  0  0  0  0  0  0  0  0  0  0
    3.6000   -0.7292    0.0000 O   0  0  0  0  0  0  0  0  0  0  0  0
    1.7167   -1.8042    0.0000 C   0  0  0  0  0  0  0  0  0  0  0  0
    3.6000   -2.1667    0.0000 O   0  0  0  0  0  0  0  0  0  0  0  0
    2.3375   -2.1667    0.0000 C   0  0  0  0  0  0  0  0  0  0  0  0
   -2.0458    0.3708    0.0000 O   0  0  0  0  0  0  0  0  0  0  0  0
   -2.0458   -1.0875    0.0000 C   0  0  0  0  0  0  0  0  0  0  0  0
    4.2375   -1.0875    0.0000 C   0  0  0  0  0  0  0  0  0  0  0  0
    4.2167   -1.8042    0.0000 C   0  0  0  0  0  0  0  0  0  0  0  0
   -2.6625   -0.0042    0.0000 C   0  0  0  0  0  0  0  0  0  0  0  0
   -2.6625   -0.7042    0.0000 C   0  0  0  0  0  0  0  0  0  0  0  0
  2  3  1  0  0  0  0
  3  1  1  0  0  0  0
  4  1  2  0  0  0  0
  5  7  1  0  0  0  0
  6  1  1  0  0  0  0
  7  4  1  0  0  0  0
  8  2  1  0  0  0  0
  9  5  1  0  0  0  0
 10 12  1  0  0  0  0
 11  9  2  0  0  0  0
 12  6  2  0  0  0  0
 13  8  2  0  0  0  0
 14 19  1  0  0  0  0
 15  3  2  0  0  0  0
 16 10  1  0  0  0  0
 17  6  1  0  0  0  0
 18 14  1  0  0  0  0
 19 17  2  0  0  0  0
 20 11  1  0  0  0  0
 21 13  1  0  0  0  0
 22 16  1  0  0  0  0
 23 18  1  0  0  0  0
 24 20  1  0  0  0  0
 25 21  1  0  0  0  0
  5  2  2  0  0  0  0
 14 10  2  0  0  0  0
 11 13  1  0  0  0  0
 22 23  1  0  0  0  0
M  END
> <IDNUMBER>
F0196-0379

> <Chemical_Name>
3-(2,3-dihydro-1,4-benzodioxin-6-yl)-6-ethyl-7-methoxy-4H-chromen-4-one

> <CAS>
170511-22-5

> <PriceCoeff>
1.00

> <MW>
338.35

> <Description>
solid

> <FSP3>
0.25

> <clogP>
4.05

> <TPSA>
53.99

> <Acceptor>
5

> <Donor>
0

> <RotBonds>
3

> <HAC>
25

> <Collection>
General

> <Reference_compound>
CHEMBL455048

> <Similarity>
0.8650

$$$$
F2146-0731
  -ISIS-  06222304352D

 28 29  0  0  0  0  0  0  0  0999 V2000
    4.3917   -3.2667    0.0000 C   0  0  0  0  0  0  0  0  0  0  0  0
    4.1375   -4.0542    0.0000 N   0  0  3  0  0  0  0  0  0  0  0  0
    3.7375   -2.7792    0.0000 S   0  0  0  0  0  0  0  0  0  0  0  0
    3.3125   -4.0542    0.0000 C   0  0  0  0  0  0  0  0  0  0  0  0
    3.0583   -3.2667    0.0000 C   0  0  0  0  0  0  0  0  0  0  0  0
    2.2500   -3.0917    0.0000 C   0  0  0  0  0  0  0  0  0  0  0  0
    5.1833   -3.0125    0.0000 N   0  0  0  0  0  0  0  0  0  0  0  0
    2.7542   -4.6667    0.0000 C   0  0  0  0  0  0  0  0  0  0  0  0
    1.6917   -3.7083    0.0000 C   0  0  0  0  0  0  0  0  0  0  0  0
    1.9500   -4.4917    0.0000 C   0  0  0  0  0  0  0  0  0  0  0  0
    4.6292   -4.7292    0.0000 C   0  0  0  0  0  0  0  0  0  0  0  0
    1.9958   -2.3042    0.0000 C   0  0  0  0  0  0  0  0  0  0  0  0
    4.7792   -6.1625    0.0000 O   0  0  0  0  0  0  0  0  0  0  0  0
    1.3958   -5.1083    0.0000 C   0  0  0  0  0  0  0  0  0  0  0  0
    4.2875   -5.4875    0.0000 C   0  0  0  0  0  0  0  0  0  0  0  0
    4.4375   -6.9208    0.0000 C   0  0  0  0  0  0  0  0  0  0  0  0
    3.6167   -7.0042    0.0000 C   0  0  0  0  0  0  0  0  0  0  0  0
    8.2181   -3.6413    0.0000 S   0  0  3  0  0  0  0  0  0  0  0  0
    7.8153   -4.3511    0.0000 C   0  0  0  0  0  0  0  0  0  0  0  0
    7.5072   -3.2200    0.0000 O   0  0  0  0  0  0  0  0  0  0  0  0
    8.6239   -2.9202    0.0000 O   0  0  0  0  0  0  0  0  0  0  0  0
    8.9393   -4.0471    0.0000 O   0  0  0  0  0  0  0  0  0  0  0  0
    8.2307   -5.0687    0.0000 C   0  0  0  0  0  0  0  0  0  0  0  0
    6.9848   -4.3553    0.0000 C   0  0  0  0  0  0  0  0  0  0  0  0
    7.8136   -5.7869    0.0000 C   0  0  0  0  0  0  0  0  0  0  0  0
    6.5769   -5.0728    0.0000 C   0  0  0  0  0  0  0  0  0  0  0  0
    6.9903   -5.7868    0.0000 C   0  0  0  0  0  0  0  0  0  0  0  0
    6.5767   -6.5029    0.0000 C   0  0  0  0  0  0  0  0  0  0  0  0
 13 15  1  0  0  0  0
 14 10  1  0  0  0  0
 15 11  1  0  0  0  0
 16 13  1  0  0  0  0
 17 16  1  0  0  0  0
  5  4  2  0  0  0  0
 10  9  1  0  0  0  0
  2  1  1  0  0  0  0
  3  1  1  0  0  0  0
  4  2  1  0  0  0  0
  5  3  1  0  0  0  0
  6  5  1  0  0  0  0
  7  1  2  0  0  0  0
  8  4  1  0  0  0  0
  9  6  2  0  0  0  0
 10  8  2  0  0  0  0
 11  2  1  0  0  0  0
 12  6  1  0  0  0  0
 19 18  1  0  0  0  0
 20 18  2  0  0  0  0
 21 18  2  0  0  0  0
 22 18  1  0  0  0  0
 23 19  1  0  0  0  0
 24 19  2  0  0  0  0
 25 23  2  0  0  0  0
 26 24  1  0  0  0  0
 27 26  2  0  0  0  0
 28 27  1  0  0  0  0
 25 27  1  0  0  0  0
M  END
> <IDNUMBER>
F2146-0731

> <Chemical_Name>
3-(2-ethoxyethyl)-5,7-dimethyl-2,3-dihydro-1,3-benzothiazol-2-imine; 4-methylbenzene-1-sulfonic acid

> <CAS>
2034156-83-5

> <PriceCoeff>
1.00

> <MW>
250.36

> <Description>
solid

> <FSP3>
0.46

> <clogP>
4.30

> <TPSA>
61.62

> <Acceptor>
1

> <Donor>
1

> <RotBonds>
4

> <HAC>
17

> <Collection>
General

> <Reference_compound>
PRI5904

> <Similarity>
0.8060

$$$$
F1593-0029
  -ISIS-  06222321452D

 30 34  0  0  0  0  0  0  0  0999 V2000
    1.9000   -0.7167    0.0000 N   0  0  3  0  0  0  0  0  0  0  0  0
    3.6250    0.0583    0.0000 C   0  0  0  0  0  0  0  0  0  0  0  0
    2.1042   -2.6000    0.0000 C   0  0  0  0  0  0  0  0  0  0  0  0
    0.2542    0.2208    0.0000 C   0  0  0  0  0  0  0  0  0  0  0  0
    3.9542   -2.9792    0.0000 C   0  0  3  0  0  0  0  0  0  0  0  0
    4.9000   -1.3500    0.0000 C   0  0  0  0  0  0  0  0  0  0  0  0
   -1.3708   -0.7292    0.0000 C   0  0  0  0  0  0  0  0  0  0  0  0
   12.2292   -5.4500    0.0000 N   0  0  3  0  0  0  0  0  0  0  0  0
    4.7292   -4.7042    0.0000 N   0  0  0  0  0  0  0  0  0  0  0  0
    4.0042    1.9083    0.0000 O   0  0  0  0  0  0  0  0  0  0  0  0
   10.3625   -5.2667    0.0000 C   0  0  0  0  0  0  0  0  0  0  0  0
    0.7000   -3.8750    0.0000 O   0  0  0  0  0  0  0  0  0  0  0  0
   16.0000   -5.8292    0.0000 O   0  0  0  0  0  0  0  0  0  0  0  0
    9.5792   -3.5417    0.0000 C   0  0  0  0  0  0  0  0  0  0  0  0
    9.2667   -6.8000    0.0000 C   0  0  0  0  0  0  0  0  0  0  0  0
    6.6042   -4.8875    0.0000 C   0  0  0  0  0  0  0  0  0  0  0  0
   -3.0000    0.1958    0.0000 C   0  0  0  0  0  0  0  0  0  0  0  0
    0.2542    2.1083    0.0000 C   0  0  0  0  0  0  0  0  0  0  0  0
    7.7000   -3.3625    0.0000 C   0  0  0  0  0  0  0  0  0  0  0  0
    7.3875   -6.6125    0.0000 C   0  0  0  0  0  0  0  0  0  0  0  0
   13.3292   -3.9042    0.0000 C   0  0  0  0  0  0  0  0  0  0  0  0
   13.0167   -7.1792    0.0000 C   0  0  0  0  0  0  0  0  0  0  0  0
   -1.3458   -2.6042    0.0000 C   0  0  0  0  0  0  0  0  0  0  0  0
   -1.3833    3.0500    0.0000 C   0  0  0  0  0  0  0  0  0  0  0  0
   14.8917   -7.3667    0.0000 C   0  0  0  0  0  0  0  0  0  0  0  0
   15.2167   -4.1000    0.0000 C   0  0  0  0  0  0  0  0  0  0  0  0
   -3.0208    2.0958    0.0000 C   0  0  0  0  0  0  0  0  0  0  0  0
   -4.6208   -0.7542    0.0000 C   0  0  0  0  0  0  0  0  0  0  0  0
   -2.9583   -3.5625    0.0000 C   0  0  0  0  0  0  0  0  0  0  0  0
   -4.6083   -2.6417    0.0000 C   0  0  0  0  0  0  0  0  0  0  0  0
  2  1  1  0  0  0  0
  3  1  1  0  0  0  0
  4  1  1  0  0  0  0
  5  3  1  0  0  0  0
  6  2  1  0  0  0  0
  7  4  1  0  0  0  0
  8 11  1  0  0  0  0
  9  5  1  0  0  0  0
 10  2  2  0  0  0  0
 11 15  2  0  0  0  0
 12  3  2  0  0  0  0
 13 25  1  0  0  0  0
 14 19  2  0  0  0  0
 15 20  1  0  0  0  0
 16  9  1  0  0  0  0
 17  7  1  0  0  0  0
 18  4  2  0  0  0  0
 19 16  1  0  0  0  0
 20 16  2  0  0  0  0
 21  8  1  0  0  0  0
 22  8  1  0  0  0  0
 23  7  2  0  0  0  0
 24 18  1  0  0  0  0
 25 22  1  0  0  0  0
 26 21  1  0  0  0  0
 27 24  2  0  0  0  0
 28 17  2  0  0  0  0
 29 23  1  0  0  0  0
 30 29  2  0  0  0  0
  6  5  1  0  0  0  0
 27 17  1  0  0  0  0
 30 28  1  0  0  0  0
 14 11  1  0  0  0  0
 13 26  1  0  0  0  0
M  END
> <IDNUMBER>
F1593-0029

> <Chemical_Name>
3-{[4-(morpholin-4-yl)phenyl]amino}-1-(naphthalen-1-yl)pyrrolidine-2,5-dione

> <CAS>
1007919-98-3

> <PriceCoeff>
1.00

> <MW>
401.46

> <Description>
solid

> <FSP3>
0.25

> <clogP>
3.12

> <TPSA>
61.88

> <Acceptor>
5

> <Donor>
2

> <RotBonds>
4

> <HAC>
30

> <Collection>
General

$$$$
F2384-0320
  -ISIS-  06222321462D

 25 27  0  0  0  0  0  0  0  0999 V2000
   -3.0458    7.5167    0.0000 N   0  0  3  0  0  0  0  0  0  0  0  0
   -3.0458    6.6917    0.0000 C   0  0  0  0  0  0  0  0  0  0  0  0
   -2.3250    7.9292    0.0000 C   0  0  0  0  0  0  0  0  0  0  0  0
   -3.7500    3.8000    0.0000 C   0  0  0  0  0  0  0  0  0  0  0  0
   -2.3250    6.2667    0.0000 C   0  0  0  0  0  0  0  0  0  0  0  0
   -3.0375    4.2125    0.0000 N   0  0  0  0  0  0  0  0  0  0  0  0
   -3.7583    2.9833    0.0000 C   0  0  0  0  0  0  0  0  0  0  0  0
   -3.7583    6.2792    0.0000 C   0  0  0  0  0  0  0  0  0  0  0  0
   -3.0375    5.0292    0.0000 C   0  0  0  0  0  0  0  0  0  0  0  0
   -2.3250    5.4542    0.0000 C   0  0  0  0  0  0  0  0  0  0  0  0
   -4.4708    4.2042    0.0000 O   0  0  0  0  0  0  0  0  0  0  0  0
   -1.6083    7.5125    0.0000 C   0  0  0  0  0  0  0  0  0  0  0  0
   -2.3208    8.7542    0.0000 O   0  0  0  0  0  0  0  0  0  0  0  0
   -1.6208    6.6875    0.0000 C   0  0  0  0  0  0  0  0  0  0  0  0
   -4.4750    2.5625    0.0000 C   0  0  0  0  0  0  0  0  0  0  0  0
   -3.7583    5.4542    0.0000 C   0  0  0  0  0  0  0  0  0  0  0  0
   -3.7625    7.9375    0.0000 C   0  0  0  0  0  0  0  0  0  0  0  0
   -4.4833    1.7375    0.0000 C   0  0  0  0  0  0  0  0  0  0  0  0
   -5.1958    1.3333    0.0000 Cl  0  0  0  0  0  0  0  0  0  0  0  0
   -3.0458    2.5583    0.0000 C   0  0  0  0  0  0  0  0  0  0  0  0
   -3.0458    1.7250    0.0000 C   0  0  0  0  0  0  0  0  0  0  0  0
   -3.7625    1.3208    0.0000 C   0  0  0  0  0  0  0  0  0  0  0  0
   -3.7583    8.7542    0.0000 C   0  0  0  0  0  0  0  0  0  0  0  0
   -4.4708    9.1750    0.0000 C   0  0  0  0  0  0  0  0  0  0  0  0
   -4.4708   10.0042    0.0000 C   0  0  0  0  0  0  0  0  0  0  0  0
  2  1  1  0  0  0  0
  3  1  1  0  0  0  0
  4  6  1  0  0  0  0
  5  2  2  0  0  0  0
  6  9  1  0  0  0  0
  7  4  1  0  0  0  0
  8  2  1  0  0  0  0
  9 16  1  0  0  0  0
 10  5  1  0  0  0  0
 11  4  2  0  0  0  0
 12  3  1  0  0  0  0
 13  3  2  0  0  0  0
 14 12  1  0  0  0  0
 15  7  2  0  0  0  0
 16  8  2  0  0  0  0
 17  1  1  0  0  0  0
 18 15  1  0  0  0  0
 19 18  1  0  0  0  0
 20  7  1  0  0  0  0
 21 20  2  0  0  0  0
 22 21  1  0  0  0  0
 23 17  1  0  0  0  0
 24 23  1  0  0  0  0
 25 24  1  0  0  0  0
  5 14  1  0  0  0  0
 10  9  2  0  0  0  0
 22 18  2  0  0  0  0
M  END
> <IDNUMBER>
F2384-0320

> <Chemical_Name>
N-(1-butyl-2-oxo-1,2,3,4-tetrahydroquinolin-6-yl)-3-chlorobenzamide

> <CAS>
955221-64-4

> <PriceCoeff>
1.00

> <MW>
356.85

> <Description>
solid

> <FSP3>
0.30

> <clogP>
4.37

> <TPSA>
49.41

> <Acceptor>
2

> <Donor>
1

> <RotBonds>
5

> <HAC>
25

> <Collection>
General

> <Reference_compound>
CHEMBL2286415

> <Similarity>
0.8060

$$$$
F2384-0258
  -ISIS-  06222321142D

 25 27  0  0  0  0  0  0  0  0999 V2000
   -3.0458    7.5167    0.0000 N   0  0  3  0  0  0  0  0  0  0  0  0
   -3.0458    6.6917    0.0000 C   0  0  0  0  0  0  0  0  0  0  0  0
   -2.3250    7.9292    0.0000 C   0  0  0  0  0  0  0  0  0  0  0  0
   -3.7500    3.8000    0.0000 C   0  0  0  0  0  0  0  0  0  0  0  0
   -2.3250    6.2667    0.0000 C   0  0  0  0  0  0  0  0  0  0  0  0
   -3.0375    4.2125    0.0000 N   0  0  0  0  0  0  0  0  0  0  0  0
   -3.7583    6.2792    0.0000 C   0  0  0  0  0  0  0  0  0  0  0  0
   -3.7583    2.9833    0.0000 C   0  0  0  0  0  0  0  0  0  0  0  0
   -3.0375    5.0292    0.0000 C   0  0  0  0  0  0  0  0  0  0  0  0
   -2.3250    5.4542    0.0000 C   0  0  0  0  0  0  0  0  0  0  0  0
   -1.6083    7.5125    0.0000 C   0  0  0  0  0  0  0  0  0  0  0  0
   -4.4708    4.2042    0.0000 O   0  0  0  0  0  0  0  0  0  0  0  0
   -2.3208    8.7542    0.0000 O   0  0  0  0  0  0  0  0  0  0  0  0
   -1.6208    6.6875    0.0000 C   0  0  0  0  0  0  0  0  0  0  0  0
   -3.0458    2.5583    0.0000 C   0  0  0  0  0  0  0  0  0  0  0  0
   -4.4708    2.5708    0.0000 C   0  0  0  0  0  0  0  0  0  0  0  0
   -3.7583    5.4542    0.0000 C   0  0  0  0  0  0  0  0  0  0  0  0
   -3.7625    7.9375    0.0000 C   0  0  0  0  0  0  0  0  0  0  0  0
   -3.7625    1.3208    0.0000 C   0  0  0  0  0  0  0  0  0  0  0  0
   -3.0458    1.7333    0.0000 C   0  0  0  0  0  0  0  0  0  0  0  0
   -4.4750    1.7375    0.0000 C   0  0  0  0  0  0  0  0  0  0  0  0
   -3.7708    0.4958    0.0000 Cl  0  0  0  0  0  0  0  0  0  0  0  0
   -3.7583    8.7542    0.0000 C   0  0  0  0  0  0  0  0  0  0  0  0
   -4.4708    9.1750    0.0000 C   0  0  0  0  0  0  0  0  0  0  0  0
   -4.4708   10.0042    0.0000 C   0  0  0  0  0  0  0  0  0  0  0  0
  2  1  1  0  0  0  0
  3  1  1  0  0  0  0
  4  6  1  0  0  0  0
  5  2  2  0  0  0  0
  6  9  1  0  0  0  0
  7  2  1  0  0  0  0
  8  4  1  0  0  0  0
  9 17  1  0  0  0  0
 10  5  1  0  0  0  0
 11  3  1  0  0  0  0
 12  4  2  0  0  0  0
 13  3  2  0  0  0  0
 14 11  1  0  0  0  0
 15  8  1  0  0  0  0
 16  8  2  0  0  0  0
 17  7  2  0  0  0  0
 18  1  1  0  0  0  0
 19 21  2  0  0  0  0
 20 15  2  0  0  0  0
 21 16  1  0  0  0  0
 22 19  1  0  0  0  0
 23 18  1  0  0  0  0
 24 23  1  0  0  0  0
 25 24  1  0  0  0  0
  5 14  1  0  0  0  0
 10  9  2  0  0  0  0
 20 19  1  0  0  0  0
M  END
> <IDNUMBER>
F2384-0258

> <Chemical_Name>
N-(1-butyl-2-oxo-1,2,3,4-tetrahydroquinolin-6-yl)-4-chlorobenzamide

> <CAS>
1021280-71-6

> <PriceCoeff>
1.00

> <MW>
356.85

> <Description>
solid

> <FSP3>
0.30

> <clogP>
4.37

> <TPSA>
49.41

> <Acceptor>
2

> <Donor>
1

> <RotBonds>
5

> <HAC>
25

> <Collection>
General

> <Reference_compound>
CHEMBL2286415

> <Similarity>
0.8240

$$$$
F3139-0624
  -ISIS-  06222321152D

 20 22  0  0  0  0  0  0  0  0999 V2000
    5.2750   -0.4292    0.0000 C   0  0  0  0  0  0  0  0  0  0  0  0
    5.2750   -1.2667    0.0000 C   0  0  0  0  0  0  0  0  0  0  0  0
    3.8375   -0.4292    0.0000 C   0  0  0  0  0  0  0  0  0  0  0  0
    4.5542   -0.0125    0.0000 O   0  0  0  0  0  0  0  0  0  0  0  0
    4.5500   -1.6792    0.0000 C   0  0  0  0  0  0  0  0  0  0  0  0
    3.8292   -1.2667    0.0000 C   0  0  0  0  0  0  0  0  0  0  0  0
    3.1167   -0.0167    0.0000 C   0  0  0  0  0  0  0  0  0  0  0  0
    5.9875   -0.0250    0.0000 C   0  0  0  0  0  0  0  0  0  0  0  0
    3.1167   -1.6750    0.0000 C   0  0  0  0  0  0  0  0  0  0  0  0
    4.5500   -2.5042    0.0000 O   0  0  0  0  0  0  0  0  0  0  0  0
    6.7042   -0.4417    0.0000 C   0  0  0  0  0  0  0  0  0  0  0  0
    5.9917    0.7958    0.0000 C   0  0  0  0  0  0  0  0  0  0  0  0
    2.4042   -0.4375    0.0000 C   0  0  0  0  0  0  0  0  0  0  0  0
    2.4042   -1.2625    0.0000 C   0  0  0  0  0  0  0  0  0  0  0  0
    6.7042    1.2083    0.0000 C   0  0  0  0  0  0  0  0  0  0  0  0
    7.4167   -0.0292    0.0000 C   0  0  0  0  0  0  0  0  0  0  0  0
    7.4167    0.7958    0.0000 C   0  0  0  0  0  0  0  0  0  0  0  0
    1.6917   -0.0167    0.0000 O   0  0  0  0  0  0  0  0  0  0  0  0
    8.1375    1.2083    0.0000 C   0  0  0  0  0  0  0  0  0  0  0  0
    0.9792   -0.4375    0.0000 C   0  0  0  0  0  0  0  0  0  0  0  0
  2  1  2  0  0  0  0
  3  4  1  0  0  0  0
  4  1  1  0  0  0  0
  5  2  1  0  0  0  0
  6  3  1  0  0  0  0
  7  3  2  0  0  0  0
  8  1  1  0  0  0  0
  9  6  2  0  0  0  0
 10  5  2  0  0  0  0
 11  8  2  0  0  0  0
 12  8  1  0  0  0  0
 13  7  1  0  0  0  0
 14 13  2  0  0  0  0
 15 12  2  0  0  0  0
 16 11  1  0  0  0  0
 17 15  1  0  0  0  0
 18 13  1  0  0  0  0
 19 17  1  0  0  0  0
 20 18  1  0  0  0  0
  6  5  1  0  0  0  0
 16 17  2  0  0  0  0
 14  9  1  0  0  0  0
M  END
> <IDNUMBER>
F3139-0624

> <Chemical_Name>
7-methoxy-2-(4-methylphenyl)-4H-chromen-4-one

> <CAS>
108980-49-0

> <PriceCoeff>
1.00

> <MW>
266.29

> <Description>
solid

> <FSP3>
0.12

> <clogP>
4.09

> <TPSA>
35.53

> <Acceptor>
3

> <Donor>
0

> <RotBonds>
2

> <HAC>
20

> <Collection>
General

> <Reference_compound>
CHEMBL275638

> <Similarity>
0.9350

$$$$
F9994-0444
  -ISIS-  06222321472D

 18 19  0  0  0  0  0  0  0  0999 V2000
   -0.1958    1.0333    0.0000 C   0  0  0  0  0  0  0  0  0  0  0  0
    0.5167   -3.5000    0.0000 C   0  0  0  0  0  0  0  0  0  0  0  0
   -0.1958   -1.4417    0.0000 C   0  0  0  0  0  0  0  0  0  0  0  0
    0.5167   -1.0292    0.0000 C   0  0  0  0  0  0  0  0  0  0  0  0
   -0.1958   -3.9167    0.0000 C   0  0  0  0  0  0  0  0  0  0  0  0
    0.5167    1.4458    0.0000 C   0  0  0  0  0  0  0  0  0  0  0  0
   -0.1958    0.2083    0.0000 C   0  0  0  0  0  0  0  0  0  0  0  0
    0.5167   -2.6792    0.0000 C   0  0  0  0  0  0  0  0  0  0  0  0
   -0.1958   -2.2667    0.0000 C   0  0  0  0  0  0  0  0  0  0  0  0
    0.5167   -0.2042    0.0000 C   0  0  0  0  0  0  0  0  0  0  0  0
   -0.9125   -3.5042    0.0000 C   0  0  0  0  0  0  0  0  0  0  0  0
    1.2292    1.0333    0.0000 C   0  0  0  0  0  0  0  0  0  0  0  0
   -0.9083    1.4458    0.0000 O   0  0  0  0  0  0  0  0  0  0  0  0
    1.2292   -3.9125    0.0000 O   0  0  0  0  0  0  0  0  0  0  0  0
   -0.9125   -2.6792    0.0000 C   0  0  0  0  0  0  0  0  0  0  0  0
    1.2292    0.2083    0.0000 C   0  0  0  0  0  0  0  0  0  0  0  0
   -0.1958   -4.7417    0.0000 O   0  0  0  0  0  0  0  0  0  0  0  0
    0.5125    2.2708    0.0000 O   0  0  0  0  0  0  0  0  0  0  0  0
  2  8  2  0  0  0  0
  3  4  2  0  0  0  0
  4 10  1  0  0  0  0
  5 11  2  0  0  0  0
  6  1  1  0  0  0  0
  7  1  2  0  0  0  0
  8  9  1  0  0  0  0
  9  3  1  0  0  0  0
 10  7  1  0  0  0  0
 11 15  1  0  0  0  0
 12  6  2  0  0  0  0
 13  1  1  0  0  0  0
 14  2  1  0  0  0  0
 15  9  2  0  0  0  0
 16 10  2  0  0  0  0
 17  5  1  0  0  0  0
 18  6  1  0  0  0  0
 16 12  1  0  0  0  0
  2  5  1  0  0  0  0
M  END
> <IDNUMBER>
F9994-0444

> <Chemical_Name>
4-[(1E)-2-(3,4-dihydroxyphenyl)ethenyl]benzene-1,2-diol

> <CAS>
136273-05-7

> <PriceCoeff>
1.00

> <MW>
244.25

> <Description>
solid

> <FSP3>
0.00

> <clogP>
2.31

> <TPSA>
80.92

> <Acceptor>
4

> <Donor>
4

> <RotBonds>
2

> <HAC>
18

> <Collection>
General

> <Reference_compound>
PRI37067

> <Similarity>
0.8510

$$$$
F3095-3041
  -ISIS-  06222321462D

 24 24  0  0  0  0  0  0  0  0999 V2000
    3.6292    0.8625    0.0000 N   0  0  3  0  0  0  0  0  0  0  0  0
    2.9042    1.2708    0.0000 C   0  0  0  0  0  0  0  0  0  0  0  0
    2.1917    0.8625    0.0000 C   0  0  0  0  0  0  0  0  0  0  0  0
    0.0542   -0.3667    0.0000 C   0  0  0  0  0  0  0  0  0  0  0  0
    1.5000    1.2708    0.0000 C   0  0  0  0  0  0  0  0  0  0  0  0
    3.6292    0.0458    0.0000 C   0  0  0  0  0  0  0  0  0  0  0  0
    4.3500    1.2833    0.0000 C   0  0  0  0  0  0  0  0  0  0  0  0
   -0.6458    0.0208    0.0000 C   0  0  0  0  0  0  0  0  0  0  0  0
    2.9042    2.1000    0.0000 O   0  0  0  0  0  0  0  0  0  0  0  0
    0.7667    0.0208    0.0000 C   0  0  0  0  0  0  0  0  0  0  0  0
    0.7667    0.8500    0.0000 C   0  0  0  0  0  0  0  0  0  0  0  0
   -0.6458    0.8500    0.0000 C   0  0  0  0  0  0  0  0  0  0  0  0
    0.0542    1.2625    0.0000 C   0  0  0  0  0  0  0  0  0  0  0  0
    0.0542   -1.2000    0.0000 O   0  0  0  0  0  0  0  0  0  0  0  0
   -1.3500   -0.3667    0.0000 O   0  0  0  0  0  0  0  0  0  0  0  0
    2.9167   -0.3542    0.0000 C   0  0  3  0  0  0  0  0  0  0  0  0
    4.3500    2.1000    0.0000 C   0  0  3  0  0  0  0  0  0  0  0  0
   -2.0708    0.0208    0.0000 C   0  0  0  0  0  0  0  0  0  0  0  0
   -0.6458   -1.6042    0.0000 C   0  0  0  0  0  0  0  0  0  0  0  0
    2.9167   -1.1792    0.0000 C   0  0  0  0  0  0  0  0  0  0  0  0
    2.1917    0.0333    0.0000 C   0  0  0  0  0  0  0  0  0  0  0  0
    5.0500    2.5208    0.0000 C   0  0  0  0  0  0  0  0  0  0  0  0
    3.6167    2.5208    0.0000 C   0  0  0  0  0  0  0  0  0  0  0  0
   -2.7833   -0.3542    0.0000 C   0  0  0  0  0  0  0  0  0  0  0  0
  2  1  1  0  0  0  0
  3  2  1  0  0  0  0
  4 10  2  0  0  0  0
  5  3  2  0  0  0  0
  6  1  1  0  0  0  0
  7  1  1  0  0  0  0
  8 12  2  0  0  0  0
  9  2  2  0  0  0  0
 10 11  1  0  0  0  0
 11  5  1  0  0  0  0
 12 13  1  0  0  0  0
 13 11  2  0  0  0  0
 14  4  1  0  0  0  0
 15  8  1  0  0  0  0
 16  6  1  0  0  0  0
 17  7  1  0  0  0  0
 18 15  1  0  0  0  0
 19 14  1  0  0  0  0
 20 16  1  0  0  0  0
 21 16  1  0  0  0  0
 22 17  1  0  0  0  0
 23 17  1  0  0  0  0
 24 18  1  0  0  0  0
  8  4  1  0  0  0  0
M  END
> <IDNUMBER>
F3095-3041

> <Chemical_Name>
(2E)-3-(4-ethoxy-3-methoxyphenyl)-N,N-bis(2-methylpropyl)prop-2-enamide

> <CAS>
302807-69-8

> <PriceCoeff>
1.00

> <MW>
333.47

> <Description>
solid

> <FSP3>
0.55

> <clogP>
4.80

> <TPSA>
38.77

> <Acceptor>
3

> <Donor>
0

> <RotBonds>
10

> <HAC>
24

> <Collection>
General

> <Reference_compound>
CHEMBL252709

> <Similarity>
0.8130

$$$$
F0758-0076
  -ISIS-  06222321142D

 21 23  0  0  0  0  0  0  0  0999 V2000
    0.9292    1.2458    0.0000 C   0  0  0  0  0  0  0  0  0  0  0  0
   -0.4125    0.4833    0.0000 C   0  0  0  0  0  0  0  0  0  0  0  0
    0.4875    0.4625    0.0000 C   0  0  0  0  0  0  0  0  0  0  0  0
   -0.8500    1.2458    0.0000 C   0  0  0  0  0  0  0  0  0  0  0  0
   -0.4125    2.0208    0.0000 O   0  0  0  0  0  0  0  0  0  0  0  0
    0.4875    2.0208    0.0000 C   0  0  0  0  0  0  0  0  0  0  0  0
   -1.7500    1.2625    0.0000 C   0  0  0  0  0  0  0  0  0  0  0  0
   -0.8708   -0.3000    0.0000 C   0  0  0  0  0  0  0  0  0  0  0  0
   -2.1958    0.4833    0.0000 C   0  0  0  0  0  0  0  0  0  0  0  0
    1.8042    1.2208    0.0000 C   0  0  0  0  0  0  0  0  0  0  0  0
    0.9500   -0.3167    0.0000 O   0  0  0  0  0  0  0  0  0  0  0  0
   -1.7500   -0.3000    0.0000 C   0  0  0  0  0  0  0  0  0  0  0  0
   -3.0708    0.5000    0.0000 O   0  0  0  0  0  0  0  0  0  0  0  0
   -2.3625    2.0333    0.0000 C   0  0  0  0  0  0  0  0  0  0  0  0
    2.2500    0.4625    0.0000 C   0  0  0  0  0  0  0  0  0  0  0  0
    2.2667    2.0000    0.0000 C   0  0  0  0  0  0  0  0  0  0  0  0
   -3.5208   -0.2500    0.0000 C   0  0  0  0  0  0  0  0  0  0  0  0
   -4.4083   -0.2292    0.0000 C   0  0  0  0  0  0  0  0  0  0  0  0
    3.1500    2.0000    0.0000 C   0  0  0  0  0  0  0  0  0  0  0  0
    3.1500    0.4458    0.0000 C   0  0  0  0  0  0  0  0  0  0  0  0
    3.5875    1.2208    0.0000 C   0  0  0  0  0  0  0  0  0  0  0  0
  2  3  1  0  0  0  0
  3  1  1  0  0  0  0
  4  5  1  0  0  0  0
  5  6  1  0  0  0  0
  6  1  2  0  0  0  0
  7  4  1  0  0  0  0
  8  2  1  0  0  0  0
  9  7  2  0  0  0  0
 10  1  1  0  0  0  0
 11  3  2  0  0  0  0
 12  8  2  0  0  0  0
 13  9  1  0  0  0  0
 14  7  1  0  0  0  0
 15 10  2  0  0  0  0
 16 10  1  0  0  0  0
 17 13  1  0  0  0  0
 18 17  1  0  0  0  0
 19 16  2  0  0  0  0
 20 15  1  0  0  0  0
 21 19  1  0  0  0  0
  4  2  2  0  0  0  0
 20 21  2  0  0  0  0
  9 12  1  0  0  0  0
M  END
> <IDNUMBER>
F0758-0076

> <Chemical_Name>
7-ethoxy-8-methyl-3-phenyl-4H-chromen-4-one

> <CAS>
163218-84-6

> <PriceCoeff>
1.00

> <MW>
280.32

> <Description>
solid

> <FSP3>
0.17

> <clogP>
4.11

> <TPSA>
35.53

> <Acceptor>
3

> <Donor>
0

> <RotBonds>
3

> <HAC>
21

> <Collection>
General

> <Reference_compound>
CHEMBL44

> <Similarity>
0.8840

$$$$
F3205-0064
  -ISIS-  06222321152D

 26 28  0  0  0  0  0  0  0  0999 V2000
   -0.1333   -0.1417    0.0000 N   0  0  3  0  0  0  0  0  0  0  0  0
   -0.9583   -0.1375    0.0000 C   0  0  0  0  0  0  0  0  0  0  0  0
   -1.4375    0.5333    0.0000 C   0  0  0  0  0  0  0  0  0  0  0  0
    0.3542    0.5208    0.0000 C   0  0  0  0  0  0  0  0  0  0  0  0
    0.3500   -0.8167    0.0000 C   0  0  0  0  0  0  0  0  0  0  0  0
    1.1292   -0.5667    0.0000 C   0  0  3  0  0  0  0  0  0  0  0  0
    1.1417    0.2583    0.0000 C   0  0  0  0  0  0  0  0  0  0  0  0
    3.2792   -1.0000    0.0000 C   0  0  0  0  0  0  0  0  0  0  0  0
    1.8417   -0.9875    0.0000 S   0  0  0  0  0  0  0  0  0  0  0  0
   -1.1833    1.3208    0.0000 C   0  0  0  0  0  0  0  0  0  0  0  0
   -1.4458   -0.8042    0.0000 S   0  0  0  0  0  0  0  0  0  0  0  0
    2.5667   -0.5792    0.0000 C   0  0  0  0  0  0  0  0  0  0  0  0
    3.2667   -1.8250    0.0000 C   0  0  0  0  0  0  0  0  0  0  0  0
   -2.2250    0.2833    0.0000 C   0  0  0  0  0  0  0  0  0  0  0  0
   -2.2333   -0.5417    0.0000 C   0  0  0  0  0  0  0  0  0  0  0  0
    0.1042    1.3083    0.0000 O   0  0  0  0  0  0  0  0  0  0  0  0
    0.0917   -1.6000    0.0000 O   0  0  0  0  0  0  0  0  0  0  0  0
   -0.3708    1.4833    0.0000 O   0  0  0  0  0  0  0  0  0  0  0  0
    3.9792   -2.2417    0.0000 O   0  0  0  0  0  0  0  0  0  0  0  0
    2.5542   -2.2292    0.0000 O   0  0  0  0  0  0  0  0  0  0  0  0
   -1.7250    1.9333    0.0000 O   0  0  0  0  0  0  0  0  0  0  0  0
    4.0000   -0.5917    0.0000 C   0  0  0  0  0  0  0  0  0  0  0  0
    2.5750    0.2500    0.0000 C   0  0  0  0  0  0  0  0  0  0  0  0
   -1.4708    2.7125    0.0000 C   0  0  0  0  0  0  0  0  0  0  0  0
    4.0042    0.2375    0.0000 C   0  0  0  0  0  0  0  0  0  0  0  0
    3.2917    0.6583    0.0000 C   0  0  0  0  0  0  0  0  0  0  0  0
  2  1  1  0  0  0  0
  3  2  2  0  0  0  0
  4  1  1  0  0  0  0
  5  1  1  0  0  0  0
  6  5  1  0  0  0  0
  7  4  1  0  0  0  0
  8 12  1  0  0  0  0
  9  6  1  0  0  0  0
 10  3  1  0  0  0  0
 11  2  1  0  0  0  0
 12  9  1  0  0  0  0
 13  8  1  0  0  0  0
 14  3  1  0  0  0  0
 15 11  1  0  0  0  0
 16  4  2  0  0  0  0
 17  5  2  0  0  0  0
 18 10  2  0  0  0  0
 19 13  2  0  0  0  0
 20 13  1  0  0  0  0
 21 10  1  0  0  0  0
 22  8  2  0  0  0  0
 23 12  2  0  0  0  0
 24 21  1  0  0  0  0
 25 26  2  0  0  0  0
 26 23  1  0  0  0  0
  6  7  1  0  0  0  0
 15 14  2  0  0  0  0
 25 22  1  0  0  0  0
M  END
> <IDNUMBER>
F3205-0064

> <Chemical_Name>
2-({1-[3-(methoxycarbonyl)thiophen-2-yl]-2,5-dioxopyrrolidin-3-yl}sulfanyl)benzoic acid

> <CAS>
881484-69-1

> <PriceCoeff>
1.00

> <MW>
391.42

> <Description>
solid

> <FSP3>
0.18

> <clogP>
2.29

> <TPSA>
154.52

> <Acceptor>
6

> <Donor>
0

> <RotBonds>
6

> <HAC>
26

> <Collection>
General

$$$$
F1751-0037
  -ISIS-  06222321452D

 29 32  0  0  0  0  0  0  0  0999 V2000
    4.1042   -0.1667    0.0000 C   0  0  0  0  0  0  0  0  0  0  0  0
    1.8917   -0.9667    0.0000 N   0  0  3  0  0  0  0  0  0  0  0  0
    4.8167   -0.0792    0.0000 N   0  0  3  0  0  0  0  0  0  0  0  0
    1.9667   -0.2417    0.0000 C   0  0  0  0  0  0  0  0  0  0  0  0
    2.5542   -1.2542    0.0000 C   0  0  0  0  0  0  0  0  0  0  0  0
    3.8042    0.4875    0.0000 C   0  0  3  0  0  0  0  0  0  0  0  0
    3.7542   -0.7917    0.0000 C   0  0  0  0  0  0  0  0  0  0  0  0
    3.0375   -0.7167    0.0000 C   0  0  3  0  0  0  0  0  0  0  0  0
   -0.5958   -2.4125    0.0000 N   0  3  0  0  0  0  0  0  0  0  0  0
    4.9625    0.6208    0.0000 C   0  0  0  0  0  0  0  0  0  0  0  0
    4.3375    0.9750    0.0000 C   0  0  0  0  0  0  0  0  0  0  0  0
    2.6750   -0.0917    0.0000 C   0  0  0  0  0  0  0  0  0  0  0  0
    1.2750   -1.3292    0.0000 C   0  0  0  0  0  0  0  0  0  0  0  0
    0.0292   -2.0542    0.0000 C   0  0  0  0  0  0  0  0  0  0  0  0
   -1.2208   -2.0542    0.0000 O   0  5  0  0  0  0  0  0  0  0  0  0
    1.4292    0.2333    0.0000 O   0  0  0  0  0  0  0  0  0  0  0  0
   -0.5958   -3.1292    0.0000 O   0  0  0  0  0  0  0  0  0  0  0  0
    2.7042   -1.9625    0.0000 O   0  0  0  0  0  0  0  0  0  0  0  0
    1.2750   -2.0542    0.0000 C   0  0  0  0  0  0  0  0  0  0  0  0
    0.6500   -0.9667    0.0000 C   0  0  0  0  0  0  0  0  0  0  0  0
    0.6500   -2.4125    0.0000 C   0  0  0  0  0  0  0  0  0  0  0  0
    0.0292   -1.3292    0.0000 C   0  0  0  0  0  0  0  0  0  0  0  0
    5.3042   -0.6125    0.0000 C   0  0  0  0  0  0  0  0  0  0  0  0
    3.1042    0.6750    0.0000 C   0  0  0  0  0  0  0  0  0  0  0  0
    3.6167    1.1875    0.0000 C   0  0  0  0  0  0  0  0  0  0  0  0
    5.5792    0.9833    0.0000 C   0  0  0  0  0  0  0  0  0  0  0  0
    4.3292    1.6958    0.0000 C   0  0  0  0  0  0  0  0  0  0  0  0
    4.9417    2.0583    0.0000 C   0  0  0  0  0  0  0  0  0  0  0  0
    5.5750    1.7083    0.0000 C   0  0  0  0  0  0  0  0  0  0  0  0
  2  5  1  0  0  0  0
  3  1  1  0  0  0  0
  4 12  1  0  0  0  0
  5  8  1  0  0  0  0
  6  1  1  0  0  0  0
  7  1  2  0  0  0  0
  8  7  1  0  0  0  0
  9 14  1  0  0  0  0
 10  3  1  0  0  0  0
 11  6  1  0  0  0  0
 12  8  1  0  0  0  0
 13  2  1  0  0  0  0
 14 22  2  0  0  0  0
 15  9  1  0  0  0  0
 16  4  2  0  0  0  0
 17  9  2  0  0  0  0
 18  5  2  0  0  0  0
 19 13  1  0  0  0  0
 20 13  2  0  0  0  0
 21 19  2  0  0  0  0
 22 20  1  0  0  0  0
 23  3  1  0  0  0  0
 24  6  1  0  0  0  0
 25  6  1  0  0  0  0
 26 10  1  0  0  0  0
 27 11  1  0  0  0  0
 28 27  2  0  0  0  0
 29 26  2  0  0  0  0
 11 10  2  0  0  0  0
  4  2  1  0  0  0  0
 29 28  1  0  0  0  0
 14 21  1  0  0  0  0
M  CHG  2   9   1  15  -1
M  END
> <IDNUMBER>
F1751-0037

> <Chemical_Name>
1-(4-nitrophenyl)-3-{[(2E)-1,3,3-trimethyl-2,3-dihydro-1H-indol-2-ylidene]methyl}pyrrolidine-2,5-dione

> <CAS>
1164562-93-9

> <PriceCoeff>
1.00

> <MW>
391.42

> <Description>
solid

> <FSP3>
0.27

> <clogP>
4.07

> <TPSA>
83.76

> <Acceptor>
5

> <Donor>
1

> <RotBonds>
3

> <HAC>
29

> <Collection>
General

$$$$
F3097-0487
  -ISIS-  06222321462D

 20 22  0  0  0  0  0  0  0  0999 V2000
   -0.5625   -0.9000    0.0000 C   0  0  0  0  0  0  0  0  0  0  0  0
    0.6042   -1.5792    0.0000 C   0  0  0  0  0  0  0  0  0  0  0  0
    1.7667   -0.9000    0.0000 C   0  0  0  0  0  0  0  0  0  0  0  0
    1.7667    0.4333    0.0000 C   0  0  0  0  0  0  0  0  0  0  0  0
   -0.5625    0.4333    0.0000 C   0  0  0  0  0  0  0  0  0  0  0  0
    0.6042    1.1125    0.0000 O   0  0  0  0  0  0  0  0  0  0  0  0
   -1.7208   -1.5792    0.0000 C   0  0  0  0  0  0  0  0  0  0  0  0
   -1.7208    1.1125    0.0000 C   0  0  0  0  0  0  0  0  0  0  0  0
   -2.9125   -0.9000    0.0000 C   0  0  0  0  0  0  0  0  0  0  0  0
   -2.9125    0.4333    0.0000 C   0  0  0  0  0  0  0  0  0  0  0  0
    0.6042   -2.9500    0.0000 O   0  0  0  0  0  0  0  0  0  0  0  0
    2.9167    1.1125    0.0000 C   0  0  0  0  0  0  0  0  0  0  0  0
   -1.7208   -2.9500    0.0000 O   0  0  0  0  0  0  0  0  0  0  0  0
   -4.1000    1.1500    0.0000 O   0  0  0  0  0  0  0  0  0  0  0  0
    4.0792    0.4333    0.0000 C   0  0  0  0  0  0  0  0  0  0  0  0
    2.9167    2.4625    0.0000 C   0  0  0  0  0  0  0  0  0  0  0  0
   -5.2708    0.5125    0.0000 C   0  0  0  0  0  0  0  0  0  0  0  0
    5.2375    1.1125    0.0000 C   0  0  0  0  0  0  0  0  0  0  0  0
    4.0792    3.1458    0.0000 C   0  0  0  0  0  0  0  0  0  0  0  0
    5.2375    2.4625    0.0000 C   0  0  0  0  0  0  0  0  0  0  0  0
  2  1  1  0  0  0  0
  3  2  1  0  0  0  0
  4  6  1  0  0  0  0
  5  1  1  0  0  0  0
  6  5  1  0  0  0  0
  7  1  2  0  0  0  0
  8  5  2  0  0  0  0
  9  7  1  0  0  0  0
 10  9  2  0  0  0  0
 11  2  2  0  0  0  0
 12  4  1  0  0  0  0
 13  7  1  0  0  0  0
 14 10  1  0  0  0  0
 15 12  2  0  0  0  0
 16 12  1  0  0  0  0
 17 14  1  0  0  0  0
 18 15  1  0  0  0  0
 19 16  2  0  0  0  0
 20 19  1  0  0  0  0
 10  8  1  0  0  0  0
  3  4  2  0  0  0  0
 20 18  2  0  0  0  0
M  END
> <IDNUMBER>
F3097-0487

> <Chemical_Name>
5-hydroxy-7-methoxy-2-phenyl-4H-chromen-4-one

> <CAS>
520-28-5

> <PriceCoeff>
1.00

> <MW>
268.26

> <Description>
solid

> <FSP3>
0.06

> <clogP>
4.15

> <TPSA>
55.76

> <Acceptor>
4

> <Donor>
1

> <RotBonds>
2

> <HAC>
20

> <Collection>
General

> <Reference_compound>
CHEMBL275638

> <Similarity>
0.9300

$$$$
F0433-0006
  -ISIS-  06222321142D

 20 21  0  0  0  0  0  0  0  0999 V2000
   -2.1000    0.6333    0.0000 S   0  0  3  0  0  0  0  0  0  0  0  0
   -0.9625    0.3333    0.0000 C   0  0  0  0  0  0  0  0  0  0  0  0
    0.1667    0.0333    0.0000 C   0  0  0  0  0  0  0  0  0  0  0  0
   -0.3000    0.5125    0.0000 C   0  0  0  0  0  0  0  0  0  0  0  0
   -1.4458    0.8125    0.0000 N   0  0  0  0  0  0  0  0  0  0  0  0
    0.0042   -0.6000    0.0000 C   0  0  0  0  0  0  0  0  0  0  0  0
   -1.1208   -0.3167    0.0000 C   0  0  0  0  0  0  0  0  0  0  0  0
   -0.6458   -0.8000    0.0000 C   0  0  0  0  0  0  0  0  0  0  0  0
   -2.2833    1.2958    0.0000 O   0  0  0  0  0  0  0  0  0  0  0  0
   -1.9208   -0.0500    0.0000 O   0  0  0  0  0  0  0  0  0  0  0  0
   -2.7625    0.4500    0.0000 C   0  0  0  0  0  0  0  0  0  0  0  0
    0.8292    0.2333    0.0000 Cl  0  0  0  0  0  0  0  0  0  0  0  0
   -0.1458    1.1708    0.0000 Cl  0  0  0  0  0  0  0  0  0  0  0  0
    0.5000   -1.0792    0.0000 O   0  0  0  0  0  0  0  0  0  0  0  0
   -0.7000   -1.5042    0.0000 Cl  0  0  0  0  0  0  0  0  0  0  0  0
   -2.9458   -0.2000    0.0000 C   0  0  0  0  0  0  0  0  0  0  0  0
   -3.2208    0.9333    0.0000 C   0  0  0  0  0  0  0  0  0  0  0  0
   -3.8833    0.7500    0.0000 C   0  0  0  0  0  0  0  0  0  0  0  0
   -3.6000   -0.3792    0.0000 C   0  0  0  0  0  0  0  0  0  0  0  0
   -4.0625    0.1125    0.0000 C   0  0  0  0  0  0  0  0  0  0  0  0
  2  5  1  0  0  0  0
  3  4  2  0  0  0  0
  4  2  1  0  0  0  0
  5  1  1  0  0  0  0
  6  8  2  0  0  0  0
  7  2  2  0  0  0  0
  8  7  1  0  0  0  0
  9  1  2  0  0  0  0
 10  1  2  0  0  0  0
 11  1  1  0  0  0  0
 12  3  1  0  0  0  0
 13  4  1  0  0  0  0
 14  6  1  0  0  0  0
 15  8  1  0  0  0  0
 16 11  2  0  0  0  0
 17 11  1  0  0  0  0
 18 17  2  0  0  0  0
 19 16  1  0  0  0  0
 20 18  1  0  0  0  0
 20 19  2  0  0  0  0
  6  3  1  0  0  0  0
M  END
> <IDNUMBER>
F0433-0006

> <Chemical_Name>
N-(2,3,5-trichloro-4-hydroxyphenyl)benzenesulfonamide

> <CAS>
68375-07-5

> <PriceCoeff>
1.00

> <MW>
352.62

> <Description>
solid

> <FSP3>
0.00

> <clogP>
3.36

> <TPSA>
74.78

> <Acceptor>
4

> <Donor>
2

> <RotBonds>
3

> <HAC>
20

> <Collection>
General

$$$$
F3023-0384
  -ISIS-  06222321152D

 25 27  0  0  0  0  0  0  0  0999 V2000
   10.6042   -6.1542    0.0000 N   0  0  3  0  0  0  0  0  0  0  0  0
   10.1875   -5.5750    0.0000 C   0  0  0  0  0  0  0  0  0  0  0  0
   10.1792   -6.7375    0.0000 C   0  0  0  0  0  0  0  0  0  0  0  0
    9.5000   -6.5042    0.0000 C   0  0  3  0  0  0  0  0  0  0  0  0
    9.5042   -5.7917    0.0000 C   0  0  0  0  0  0  0  0  0  0  0  0
   11.3250   -6.1625    0.0000 C   0  0  0  0  0  0  0  0  0  0  0  0
    8.9167   -6.9292    0.0000 N   0  0  0  0  0  0  0  0  0  0  0  0
   10.4125   -4.8917    0.0000 O   0  0  0  0  0  0  0  0  0  0  0  0
   10.3917   -7.4167    0.0000 O   0  0  0  0  0  0  0  0  0  0  0  0
   11.6792   -5.5417    0.0000 C   0  0  0  0  0  0  0  0  0  0  0  0
    8.2667   -6.6292    0.0000 C   0  0  0  0  0  0  0  0  0  0  0  0
    6.9667   -6.0417    0.0000 C   0  0  0  0  0  0  0  0  0  0  0  0
    7.6917   -7.0500    0.0000 C   0  0  0  0  0  0  0  0  0  0  0  0
    8.2000   -5.9167    0.0000 C   0  0  0  0  0  0  0  0  0  0  0  0
   11.3250   -4.9250    0.0000 O   0  0  0  0  0  0  0  0  0  0  0  0
    7.0375   -6.7542    0.0000 C   0  0  0  0  0  0  0  0  0  0  0  0
    7.5500   -5.6250    0.0000 C   0  0  0  0  0  0  0  0  0  0  0  0
   11.6750   -6.7875    0.0000 C   0  0  0  0  0  0  0  0  0  0  0  0
   12.3917   -5.5417    0.0000 C   0  0  0  0  0  0  0  0  0  0  0  0
    6.3125   -5.7417    0.0000 C   0  0  0  0  0  0  0  0  0  0  0  0
   11.6792   -4.3042    0.0000 C   0  0  0  0  0  0  0  0  0  0  0  0
   12.3917   -6.7917    0.0000 C   0  0  0  0  0  0  0  0  0  0  0  0
    5.7292   -6.1667    0.0000 C   0  0  0  0  0  0  0  0  0  0  0  0
   11.3250   -3.6792    0.0000 C   0  0  0  0  0  0  0  0  0  0  0  0
   12.7542   -6.1667    0.0000 C   0  0  0  0  0  0  0  0  0  0  0  0
  2  1  1  0  0  0  0
  3  1  1  0  0  0  0
  4  3  1  0  0  0  0
  5  2  1  0  0  0  0
  6  1  1  0  0  0  0
  7  4  1  0  0  0  0
  8  2  2  0  0  0  0
  9  3  2  0  0  0  0
 10  6  1  0  0  0  0
 11  7  1  0  0  0  0
 12 17  2  0  0  0  0
 13 11  1  0  0  0  0
 14 11  2  0  0  0  0
 15 10  1  0  0  0  0
 16 13  2  0  0  0  0
 17 14  1  0  0  0  0
 18  6  2  0  0  0  0
 19 10  2  0  0  0  0
 20 12  1  0  0  0  0
 21 15  1  0  0  0  0
 22 18  1  0  0  0  0
 23 20  1  0  0  0  0
 24 21  1  0  0  0  0
 25 22  2  0  0  0  0
  4  5  1  0  0  0  0
 25 19  1  0  0  0  0
 16 12  1  0  0  0  0
M  END
> <IDNUMBER>
F3023-0384

> <Chemical_Name>
1-(2-ethoxyphenyl)-3-[(4-ethylphenyl)amino]pyrrolidine-2,5-dione

> <CAS>
1008666-79-2

> <PriceCoeff>
1.00

> <MW>
338.40

> <Description>
solid

> <FSP3>
0.30

> <clogP>
4.13

> <TPSA>
58.64

> <Acceptor>
4

> <Donor>
1

> <RotBonds>
6

> <HAC>
25

> <Collection>
General

$$$$
F3222-2558
  -ISIS-  06222321152D

 35 39  0  0  0  0  0  0  0  0999 V2000
    5.8292   -8.8792    0.0000 C   0  0  0  0  0  0  0  0  0  0  0  0
    6.4917   -7.6125    0.0000 N   0  0  3  0  0  0  0  0  0  0  0  0
    5.1000   -8.5000    0.0000 C   0  0  0  0  0  0  0  0  0  0  0  0
    6.5292   -8.4375    0.0000 C   0  0  0  0  0  0  0  0  0  0  0  0
    5.0667   -7.6667    0.0000 N   0  0  0  0  0  0  0  0  0  0  0  0
    5.7667   -7.2292    0.0000 C   0  0  0  0  0  0  0  0  0  0  0  0
    5.6875   -9.6917    0.0000 C   0  0  0  0  0  0  0  0  0  0  0  0
    4.8750   -9.8125    0.0000 C   0  0  0  0  0  0  0  0  0  0  0  0
    4.5042   -9.0792    0.0000 S   0  0  0  0  0  0  0  0  0  0  0  0
    5.0792  -11.2250    0.0000 N   0  0  3  0  0  0  0  0  0  0  0  0
    4.5667  -10.5750    0.0000 C   0  0  0  0  0  0  0  0  0  0  0  0
    4.7792  -11.9917    0.0000 C   0  0  0  0  0  0  0  0  0  0  0  0
    7.2000   -7.1542    0.0000 C   0  0  0  0  0  0  0  0  0  0  0  0
    5.7292   -6.4042    0.0000 S   0  0  0  0  0  0  0  0  0  0  0  0
    6.1917  -10.3417    0.0000 C   0  0  0  0  0  0  0  0  0  0  0  0
    7.9375   -7.5292    0.0000 C   0  0  0  0  0  0  0  0  0  0  0  0
    7.2750   -8.8167    0.0000 O   0  0  0  0  0  0  0  0  0  0  0  0
    6.4000   -5.1417    0.0000 C   0  0  0  0  0  0  0  0  0  0  0  0
    5.8875  -11.1042    0.0000 C   0  0  0  0  0  0  0  0  0  0  0  0
    5.6667   -4.7417    0.0000 N   0  0  0  0  0  0  0  0  0  0  0  0
    8.7042   -7.2292    0.0000 O   0  0  0  0  0  0  0  0  0  0  0  0
    3.9625  -12.1167    0.0000 O   0  0  0  0  0  0  0  0  0  0  0  0
    7.9917   -8.3542    0.0000 C   0  0  0  0  0  0  0  0  0  0  0  0
    9.2250   -7.8625    0.0000 C   0  0  0  0  0  0  0  0  0  0  0  0
    4.9667   -5.1792    0.0000 C   0  0  0  0  0  0  0  0  0  0  0  0
    8.7875   -8.5625    0.0000 C   0  0  0  0  0  0  0  0  0  0  0  0
    7.1000   -4.7042    0.0000 O   0  0  0  0  0  0  0  0  0  0  0  0
    6.4292   -5.9667    0.0000 C   0  0  0  0  0  0  0  0  0  0  0  0
    4.9875   -6.0042    0.0000 C   0  0  0  0  0  0  0  0  0  0  0  0
    4.2792   -6.4292    0.0000 C   0  0  0  0  0  0  0  0  0  0  0  0
    5.2917  -12.6375    0.0000 C   0  0  0  0  0  0  0  0  0  0  0  0
    3.5292   -5.2167    0.0000 C   0  0  0  0  0  0  0  0  0  0  0  0
    4.2375   -4.7792    0.0000 C   0  0  0  0  0  0  0  0  0  0  0  0
    3.5542   -6.0417    0.0000 C   0  0  0  0  0  0  0  0  0  0  0  0
    4.3042   -7.2542    0.0000 C   0  0  0  0  0  0  0  0  0  0  0  0
  2  4  1  0  0  0  0
  3  1  2  0  0  0  0
  4  1  1  0  0  0  0
  5  3  1  0  0  0  0
  6  2  1  0  0  0  0
  7  1  1  0  0  0  0
  8  7  2  0  0  0  0
  9  3  1  0  0  0  0
 10 19  1  0  0  0  0
 11  8  1  0  0  0  0
 12 10  1  0  0  0  0
 13  2  1  0  0  0  0
 14  6  1  0  0  0  0
 15  7  1  0  0  0  0
 16 13  1  0  0  0  0
 17  4  2  0  0  0  0
 18 28  1  0  0  0  0
 19 15  1  0  0  0  0
 20 18  1  0  0  0  0
 21 16  1  0  0  0  0
 22 12  2  0  0  0  0
 23 16  2  0  0  0  0
 24 21  1  0  0  0  0
 25 20  1  0  0  0  0
 26 23  1  0  0  0  0
 27 18  2  0  0  0  0
 28 14  1  0  0  0  0
 29 25  2  0  0  0  0
 30 29  1  0  0  0  0
 31 12  1  0  0  0  0
 32 33  2  0  0  0  0
 33 25  1  0  0  0  0
 34 32  1  0  0  0  0
 35 30  1  0  0  0  0
  9  8  1  0  0  0  0
 10 11  1  0  0  0  0
  6  5  2  0  0  0  0
 26 24  2  0  0  0  0
 30 34  2  0  0  0  0
M  END
> <IDNUMBER>
F3222-2558

> <Chemical_Name>
2-({11-acetyl-4-[(furan-2-yl)methyl]-3-oxo-8-thia-4,6,11-triazatricyclo[7.4.0.0^{2,7}]trideca-1(9),2(7),5-trien-5-yl}sulfanyl)-N-(3-methylphenyl)acetamide

> <CAS>
1185063-82-4

> <PriceCoeff>
1.00

> <MW>
508.61

> <Description>
solid

> <FSP3>
0.28

> <clogP>
2.05

> <TPSA>
148.76

> <Acceptor>
5

> <Donor>
1

> <RotBonds>
7

> <HAC>
35

> <Collection>
General

> <Reference_compound>
CHEMBL577016

> <Similarity>
0.8210

$$$$
F3222-1466
  -ISIS-  06222321442D

 35 39  0  0  0  0  0  0  0  0999 V2000
    7.3500   -9.5500    0.0000 C   0  0  0  0  0  0  0  0  0  0  0  0
    5.9167   -9.4750    0.0000 N   0  0  3  0  0  0  0  0  0  0  0  0
    7.3042  -10.3667    0.0000 C   0  0  0  0  0  0  0  0  0  0  0  0
    6.6542   -9.1000    0.0000 C   0  0  0  0  0  0  0  0  0  0  0  0
    6.5667  -10.7417    0.0000 N   0  0  0  0  0  0  0  0  0  0  0  0
    5.8750  -10.2917    0.0000 C   0  0  0  0  0  0  0  0  0  0  0  0
    8.1417   -9.3375    0.0000 C   0  0  0  0  0  0  0  0  0  0  0  0
    8.5917  -10.0292    0.0000 C   0  0  0  0  0  0  0  0  0  0  0  0
    8.0750  -10.6667    0.0000 S   0  0  0  0  0  0  0  0  0  0  0  0
    9.8042   -9.2667    0.0000 N   0  0  3  0  0  0  0  0  0  0  0  0
    9.4167   -9.9917    0.0000 C   0  0  0  0  0  0  0  0  0  0  0  0
   10.6292   -9.2417    0.0000 C   0  0  0  0  0  0  0  0  0  0  0  0
    5.2125   -9.0167    0.0000 C   0  0  0  0  0  0  0  0  0  0  0  0
    5.1292  -10.6542    0.0000 S   0  0  0  0  0  0  0  0  0  0  0  0
    8.5250   -8.6000    0.0000 C   0  0  0  0  0  0  0  0  0  0  0  0
    5.2500   -8.1917    0.0000 C   0  0  0  0  0  0  0  0  0  0  0  0
    6.7000   -8.2750    0.0000 O   0  0  0  0  0  0  0  0  0  0  0  0
    3.7000  -10.5542    0.0000 C   0  0  0  0  0  0  0  0  0  0  0  0
    9.3500   -8.5542    0.0000 C   0  0  0  0  0  0  0  0  0  0  0  0
    4.6667   -7.6042    0.0000 O   0  0  0  0  0  0  0  0  0  0  0  0
    3.0167  -10.0917    0.0000 N   0  0  0  0  0  0  0  0  0  0  0  0
   11.0625   -9.9500    0.0000 O   0  0  0  0  0  0  0  0  0  0  0  0
    5.9875   -7.8042    0.0000 C   0  0  0  0  0  0  0  0  0  0  0  0
    5.0417   -6.8750    0.0000 C   0  0  0  0  0  0  0  0  0  0  0  0
    5.8542   -6.9917    0.0000 C   0  0  0  0  0  0  0  0  0  0  0  0
    3.6375  -11.3792    0.0000 O   0  0  0  0  0  0  0  0  0  0  0  0
    4.4417  -10.1917    0.0000 C   0  0  0  0  0  0  0  0  0  0  0  0
    2.2667  -10.4500    0.0000 C   0  0  0  0  0  0  0  0  0  0  0  0
    0.7750  -11.1667    0.0000 C   0  0  0  0  0  0  0  0  0  0  0  0
    2.2042  -11.2750    0.0000 C   0  0  0  0  0  0  0  0  0  0  0  0
    1.5875   -9.9792    0.0000 C   0  0  0  0  0  0  0  0  0  0  0  0
    1.4667  -11.6375    0.0000 C   0  0  0  0  0  0  0  0  0  0  0  0
    0.8417  -10.3417    0.0000 C   0  0  0  0  0  0  0  0  0  0  0  0
   11.0292   -8.5167    0.0000 C   0  0  0  0  0  0  0  0  0  0  0  0
    0.0167  -11.5250    0.0000 C   0  0  0  0  0  0  0  0  0  0  0  0
  2  4  1  0  0  0  0
  3  1  2  0  0  0  0
  4  1  1  0  0  0  0
  5  3  1  0  0  0  0
  6  2  1  0  0  0  0
  7  1  1  0  0  0  0
  8  7  2  0  0  0  0
  9  3  1  0  0  0  0
 10 19  1  0  0  0  0
 11  8  1  0  0  0  0
 12 10  1  0  0  0  0
 13  2  1  0  0  0  0
 14  6  1  0  0  0  0
 15  7  1  0  0  0  0
 16 13  1  0  0  0  0
 17  4  2  0  0  0  0
 18 27  1  0  0  0  0
 19 15  1  0  0  0  0
 20 16  1  0  0  0  0
 21 18  1  0  0  0  0
 22 12  2  0  0  0  0
 23 16  2  0  0  0  0
 24 20  1  0  0  0  0
 25 23  1  0  0  0  0
 26 18  2  0  0  0  0
 27 14  1  0  0  0  0
 28 21  1  0  0  0  0
 29 33  1  0  0  0  0
 30 28  2  0  0  0  0
 31 28  1  0  0  0  0
 32 30  1  0  0  0  0
 33 31  2  0  0  0  0
 34 12  1  0  0  0  0
 35 29  1  0  0  0  0
  9  8  1  0  0  0  0
 10 11  1  0  0  0  0
  6  5  2  0  0  0  0
 25 24  2  0  0  0  0
 32 29  2  0  0  0  0
M  END
> <IDNUMBER>
F3222-1466

> <Chemical_Name>
2-({11-acetyl-4-[(furan-2-yl)methyl]-3-oxo-8-thia-4,6,11-triazatricyclo[7.4.0.0^{2,7}]trideca-1(9),2(7),5-trien-5-yl}sulfanyl)-N-(4-methylphenyl)acetamide

> <CAS>
1215481-48-3

> <PriceCoeff>
1.00

> <MW>
508.61

> <Description>
solid

> <FSP3>
0.28

> <clogP>
2.05

> <TPSA>
148.76

> <Acceptor>
5

> <Donor>
1

> <RotBonds>
7

> <HAC>
35

> <Collection>
General

> <Reference_compound>
CHEMBL577016

> <Similarity>
0.8210

$$$$
F1589-0512
  -ISIS-  06222321142D

 28 30  0  0  0  0  0  0  0  0999 V2000
   -0.3708   -4.4250    0.0000 N   0  3  0  0  0  0  0  0  0  0  0  0
    4.3417   -1.6792    0.0000 C   0  0  0  0  0  0  0  0  0  0  0  0
    5.5917   -2.2375    0.0000 O   0  0  0  0  0  0  0  0  0  0  0  0
    6.5042   -1.2250    0.0000 C   0  0  0  0  0  0  0  0  0  0  0  0
    3.1792   -2.3750    0.0000 C   0  0  0  0  0  0  0  0  0  0  0  0
    7.8542   -1.3625    0.0000 C   0  0  0  0  0  0  0  0  0  0  0  0
    1.9875   -1.6917    0.0000 C   0  0  0  0  0  0  0  0  0  0  0  0
    0.8125   -3.7417    0.0000 C   0  0  0  0  0  0  0  0  0  0  0  0
    4.4875   -0.3292    0.0000 C   0  0  0  0  0  0  0  0  0  0  0  0
    5.8250   -0.0292    0.0000 C   0  0  0  0  0  0  0  0  0  0  0  0
    0.8125   -2.3750    0.0000 C   0  0  0  0  0  0  0  0  0  0  0  0
    8.6625   -0.2542    0.0000 N   0  0  0  0  0  0  0  0  0  0  0  0
    3.1792   -3.7417    0.0000 C   0  0  0  0  0  0  0  0  0  0  0  0
   -1.5500   -3.7417    0.0000 O   0  5  0  0  0  0  0  0  0  0  0  0
   14.6292   -2.0417    0.0000 C   0  0  0  0  0  0  0  0  0  0  0  0
   -0.3708   -5.7917    0.0000 O   0  0  0  0  0  0  0  0  0  0  0  0
   14.0750   -0.8042    0.0000 N   0  0  0  0  0  0  0  0  0  0  0  0
    8.4292   -2.6000    0.0000 O   0  0  0  0  0  0  0  0  0  0  0  0
    1.9875   -4.4250    0.0000 C   0  0  0  0  0  0  0  0  0  0  0  0
   16.0000   -2.1750    0.0000 O   0  0  0  0  0  0  0  0  0  0  0  0
   10.0167   -0.3917    0.0000 C   0  0  0  0  0  0  0  0  0  0  0  0
    1.9875   -0.3292    0.0000 Cl  0  0  0  0  0  0  0  0  0  0  0  0
   12.7250   -0.6667    0.0000 C   0  0  0  0  0  0  0  0  0  0  0  0
   10.8042    0.7208    0.0000 C   0  0  0  0  0  0  0  0  0  0  0  0
   10.5625   -1.6375    0.0000 C   0  0  0  0  0  0  0  0  0  0  0  0
   11.9292   -1.7750    0.0000 C   0  0  0  0  0  0  0  0  0  0  0  0
   12.1542    0.5833    0.0000 C   0  0  0  0  0  0  0  0  0  0  0  0
   13.8500   -3.1417    0.0000 C   0  0  0  0  0  0  0  0  0  0  0  0
  2  5  1  0  0  0  0
  3  2  1  0  0  0  0
  4  3  1  0  0  0  0
  5 13  1  0  0  0  0
  6  4  1  0  0  0  0
  7 11  1  0  0  0  0
  8  1  1  0  0  0  0
  9  2  2  0  0  0  0
 10  9  1  0  0  0  0
 11  8  2  0  0  0  0
 12  6  1  0  0  0  0
 13 19  2  0  0  0  0
 14  1  1  0  0  0  0
 15 17  1  0  0  0  0
 16  1  2  0  0  0  0
 17 23  1  0  0  0  0
 18  6  2  0  0  0  0
 19  8  1  0  0  0  0
 20 15  2  0  0  0  0
 21 12  1  0  0  0  0
 22  7  1  0  0  0  0
 23 26  2  0  0  0  0
 24 21  1  0  0  0  0
 25 21  2  0  0  0  0
 26 25  1  0  0  0  0
 27 24  2  0  0  0  0
 28 15  1  0  0  0  0
  5  7  2  0  0  0  0
  4 10  2  0  0  0  0
 27 23  1  0  0  0  0
M  CHG  2   1   1  14  -1
M  END
> <IDNUMBER>
F1589-0512

> <Chemical_Name>
5-(2-chloro-4-nitrophenyl)-N-(4-acetamidophenyl)furan-2-carboxamide

> <CAS>
618397-19-6

> <PriceCoeff>
1.00

> <MW>
399.78

> <Description>
solid

> <FSP3>
0.05

> <clogP>
3.25

> <TPSA>
114.48

> <Acceptor>
5

> <Donor>
2

> <RotBonds>
5

> <HAC>
28

> <Collection>
General

$$$$
F2146-0729
  -ISIS-  06222304352D

 27 28  0  0  0  0  0  0  0  0999 V2000
    4.7583   -3.5625    0.0000 C   0  0  0  0  0  0  0  0  0  0  0  0
    4.5000   -4.3458    0.0000 N   0  0  3  0  0  0  0  0  0  0  0  0
    4.0917   -3.0750    0.0000 S   0  0  0  0  0  0  0  0  0  0  0  0
    3.4208   -3.5625    0.0000 C   0  0  0  0  0  0  0  0  0  0  0  0
    3.6750   -4.3458    0.0000 C   0  0  0  0  0  0  0  0  0  0  0  0
    2.6125   -3.3792    0.0000 C   0  0  0  0  0  0  0  0  0  0  0  0
    5.5500   -3.3042    0.0000 N   0  0  0  0  0  0  0  0  0  0  0  0
    3.1208   -4.9583    0.0000 C   0  0  0  0  0  0  0  0  0  0  0  0
    2.0542   -4.0000    0.0000 C   0  0  0  0  0  0  0  0  0  0  0  0
    4.9917   -5.0167    0.0000 C   0  0  0  0  0  0  0  0  0  0  0  0
    2.3167   -4.7833    0.0000 C   0  0  0  0  0  0  0  0  0  0  0  0
    1.2458   -3.8292    0.0000 Br  0  0  0  0  0  0  0  0  0  0  0  0
    3.8625   -5.8667    0.0000 O   0  0  0  0  0  0  0  0  0  0  0  0
    4.6542   -5.7792    0.0000 C   0  0  0  0  0  0  0  0  0  0  0  0
    3.5000   -6.6208    0.0000 C   0  0  0  0  0  0  0  0  0  0  0  0
    2.6750   -6.6833    0.0000 C   0  0  0  0  0  0  0  0  0  0  0  0
    8.5848   -3.8121    0.0000 S   0  0  3  0  0  0  0  0  0  0  0  0
    8.1820   -4.5219    0.0000 C   0  0  0  0  0  0  0  0  0  0  0  0
    7.8739   -3.3908    0.0000 O   0  0  0  0  0  0  0  0  0  0  0  0
    8.9906   -3.0910    0.0000 O   0  0  0  0  0  0  0  0  0  0  0  0
    9.3060   -4.2179    0.0000 O   0  0  0  0  0  0  0  0  0  0  0  0
    8.5974   -5.2395    0.0000 C   0  0  0  0  0  0  0  0  0  0  0  0
    7.3515   -4.5261    0.0000 C   0  0  0  0  0  0  0  0  0  0  0  0
    8.1803   -5.9577    0.0000 C   0  0  0  0  0  0  0  0  0  0  0  0
    6.9436   -5.2436    0.0000 C   0  0  0  0  0  0  0  0  0  0  0  0
    7.3570   -5.9576    0.0000 C   0  0  0  0  0  0  0  0  0  0  0  0
    6.9434   -6.6737    0.0000 C   0  0  0  0  0  0  0  0  0  0  0  0
 13 14  1  0  0  0  0
 14 10  1  0  0  0  0
 15 13  1  0  0  0  0
 16 15  1  0  0  0  0
  4  5  2  0  0  0  0
 11  9  1  0  0  0  0
  2  1  1  0  0  0  0
  3  1  1  0  0  0  0
  4  3  1  0  0  0  0
  5  2  1  0  0  0  0
  6  4  1  0  0  0  0
  7  1  2  0  0  0  0
  8  5  1  0  0  0  0
  9  6  2  0  0  0  0
 10  2  1  0  0  0  0
 11  8  2  0  0  0  0
 12  9  1  0  0  0  0
 18 17  1  0  0  0  0
 19 17  2  0  0  0  0
 20 17  2  0  0  0  0
 21 17  1  0  0  0  0
 22 18  1  0  0  0  0
 23 18  2  0  0  0  0
 24 22  2  0  0  0  0
 25 23  1  0  0  0  0
 26 25  2  0  0  0  0
 27 26  1  0  0  0  0
 24 26  1  0  0  0  0
M  END
> <IDNUMBER>
F2146-0729

> <Chemical_Name>
4-methylbenzene-1-sulfonic acid; 6-bromo-3-(2-ethoxyethyl)-2,3-dihydro-1,3-benzothiazol-2-imine

> <CAS>
2034155-44-5

> <PriceCoeff>
1.00

> <MW>
301.20

> <Description>
solid

> <FSP3>
0.36

> <clogP>
4.16

> <TPSA>
61.62

> <Acceptor>
1

> <Donor>
1

> <RotBonds>
4

> <HAC>
16

> <Collection>
General

> <Reference_compound>
PRI5904

> <Similarity>
0.8060

$$$$
F2040-0259
  -ISIS-  06222321142D

 30 33  0  0  0  0  0  0  0  0999 V2000
   -3.0333    7.5042    0.0000 N   0  0  3  0  0  0  0  0  0  0  0  0
   -3.7458    7.9250    0.0000 C   0  0  0  0  0  0  0  0  0  0  0  0
   -3.7708    0.4875    0.0000 N   0  3  0  0  0  0  0  0  0  0  0  0
   -3.7708    2.9833    0.0000 C   0  0  0  0  0  0  0  0  0  0  0  0
   -3.7583    3.8000    0.0000 C   0  0  0  0  0  0  0  0  0  0  0  0
   -3.0333    6.6792    0.0000 C   0  0  0  0  0  0  0  0  0  0  0  0
   -3.7333    8.7542    0.0000 C   0  0  0  0  0  0  0  0  0  0  0  0
   -3.0375    2.5583    0.0000 C   0  0  0  0  0  0  0  0  0  0  0  0
   -3.7625    1.3125    0.0000 C   0  0  0  0  0  0  0  0  0  0  0  0
   -3.0375    1.7250    0.0000 C   0  0  0  0  0  0  0  0  0  0  0  0
   -3.0458    4.2125    0.0000 N   0  0  0  0  0  0  0  0  0  0  0  0
   -2.3208    6.2667    0.0000 C   0  0  0  0  0  0  0  0  0  0  0  0
   -4.4833    2.5625    0.0000 C   0  0  0  0  0  0  0  0  0  0  0  0
   -4.4083    9.2500    0.0000 S   0  0  0  0  0  0  0  0  0  0  0  0
   -3.7500    6.2750    0.0000 C   0  0  0  0  0  0  0  0  0  0  0  0
   -4.4833    0.0833    0.0000 O   0  5  0  0  0  0  0  0  0  0  0  0
   -3.0583    0.0750    0.0000 O   0  0  0  0  0  0  0  0  0  0  0  0
   -4.4708    7.5250    0.0000 O   0  0  0  0  0  0  0  0  0  0  0  0
   -3.0458    5.0292    0.0000 C   0  0  0  0  0  0  0  0  0  0  0  0
   -2.3250    5.4417    0.0000 C   0  0  0  0  0  0  0  0  0  0  0  0
   -4.4750    4.2042    0.0000 O   0  0  0  0  0  0  0  0  0  0  0  0
   -3.0625    9.2375    0.0000 C   0  0  0  0  0  0  0  0  0  0  0  0
   -4.4833    1.7333    0.0000 C   0  0  0  0  0  0  0  0  0  0  0  0
   -4.1333   10.0292    0.0000 C   0  0  0  0  0  0  0  0  0  0  0  0
   -3.3083   10.0292    0.0000 C   0  0  0  0  0  0  0  0  0  0  0  0
   -2.3083    7.9042    0.0000 C   0  0  0  0  0  0  0  0  0  0  0  0
   -2.3208    2.9625    0.0000 Cl  0  0  0  0  0  0  0  0  0  0  0  0
   -3.7583    5.4542    0.0000 C   0  0  0  0  0  0  0  0  0  0  0  0
   -1.6083    6.6667    0.0000 C   0  0  0  0  0  0  0  0  0  0  0  0
   -1.6000    7.4917    0.0000 C   0  0  0  0  0  0  0  0  0  0  0  0
  2  1  1  0  0  0  0
  3  9  1  0  0  0  0
  4  5  1  0  0  0  0
  5 11  1  0  0  0  0
  6  1  1  0  0  0  0
  7  2  1  0  0  0  0
  8  4  1  0  0  0  0
  9 23  2  0  0  0  0
 10  8  2  0  0  0  0
 11 19  1  0  0  0  0
 12  6  2  0  0  0  0
 13  4  2  0  0  0  0
 14  7  1  0  0  0  0
 15  6  1  0  0  0  0
 16  3  1  0  0  0  0
 17  3  2  0  0  0  0
 18  2  2  0  0  0  0
 19 28  1  0  0  0  0
 20 12  1  0  0  0  0
 21  5  2  0  0  0  0
 22  7  2  0  0  0  0
 23 13  1  0  0  0  0
 24 14  1  0  0  0  0
 25 22  1  0  0  0  0
 26  1  1  0  0  0  0
 27  8  1  0  0  0  0
 28 15  2  0  0  0  0
 29 30  1  0  0  0  0
 30 26  1  0  0  0  0
 29 12  1  0  0  0  0
 19 20  2  0  0  0  0
 25 24  2  0  0  0  0
  9 10  1  0  0  0  0
M  CHG  2   3   1  16  -1
M  END
> <IDNUMBER>
F2040-0259

> <Chemical_Name>
2-chloro-4-nitro-N-[1-(thiophene-2-carbonyl)-1,2,3,4-tetrahydroquinolin-6-yl]benzamide

> <CAS>
897620-39-2

> <PriceCoeff>
1.00

> <MW>
441.89

> <Description>
solid

> <FSP3>
0.14

> <clogP>
3.45

> <TPSA>
120.79

> <Acceptor>
4

> <Donor>
1

> <RotBonds>
5

> <HAC>
30

> <Collection>
General

$$$$
F1913-0659
  -ISIS-  06222321452D

 13 12  0  0  0  0  0  0  0  0999 V2000
   -3.6500    2.1208    0.0000 C   0  0  0  0  0  0  0  0  0  0  0  0
   -3.1833    1.8500    0.0000 O   0  0  0  0  0  0  0  0  0  0  0  0
   -4.1083    1.8500    0.0000 C   0  0  0  0  0  0  0  0  0  0  0  0
   -3.6500    2.6583    0.0000 O   0  0  0  0  0  0  0  0  0  0  0  0
   -4.1083    1.3208    0.0000 C   0  0  3  0  0  0  0  0  0  0  0  0
   -3.1833    2.9208    0.0000 C   0  0  0  0  0  0  0  0  0  0  0  0
   -3.6500    1.0500    0.0000 C   0  0  0  0  0  0  0  0  0  0  0  0
   -4.5792    1.0500    0.0000 C   0  0  0  0  0  0  0  0  0  0  0  0
   -5.0375    1.3208    0.0000 C   0  0  0  0  0  0  0  0  0  0  0  0
   -3.1833    1.3208    0.0000 C   0  0  0  0  0  0  0  0  0  0  0  0
   -3.1833    3.4583    0.0000 C   0  0  0  0  0  0  0  0  0  0  0  0
   -5.5000    1.0500    0.0000 C   0  0  0  0  0  0  0  0  0  0  0  0
   -2.7208    1.0458    0.0000 C   0  0  0  0  0  0  0  0  0  0  0  0
  2  1  2  0  0  0  0
  3  1  1  0  0  0  0
  4  1  1  0  0  0  0
  5  3  1  0  0  0  0
  6  4  1  0  0  0  0
  7  5  1  0  0  0  0
  8  5  1  0  0  0  0
  9  8  1  0  0  0  0
 10  7  1  0  0  0  0
 11  6  1  0  0  0  0
 12  9  1  0  0  0  0
 13 10  1  0  0  0  0
M  END
> <IDNUMBER>
F1913-0659

> <Chemical_Name>
ethyl 3-propylhexanoate

> <CAS>
1089315-43-4

> <PriceCoeff>
1.00

> <MW>
186.29

> <Description>
liquid

> <FSP3>
0.91

> <clogP>
4.28

> <TPSA>
26.30

> <Acceptor>
2

> <Donor>
0

> <RotBonds>
8

> <HAC>
13

> <Collection>
General

> <Reference_compound>
CHEMBL2268562

> <Similarity>
0.8060

$$$$
F0745-0118
  -ISIS-  06222321452D

 20 21  0  0  0  0  0  0  0  0999 V2000
   -1.1458   -0.1500    0.0000 N   0  0  3  0  0  0  0  0  0  0  0  0
   -1.3708    1.8958    0.0000 N   0  0  3  0  0  0  0  0  0  0  0  0
   -1.8833    0.5125    0.0000 C   0  0  0  0  0  0  0  0  0  0  0  0
   -1.5208    0.9333    0.0000 C   0  0  0  0  0  0  0  0  0  0  0  0
   -0.9208   -0.6500    0.0000 C   0  0  0  0  0  0  0  0  0  0  0  0
   -0.8458    1.8125    0.0000 C   0  0  0  0  0  0  0  0  0  0  0  0
   -1.7000   -0.0000    0.0000 N   0  0  0  0  0  0  0  0  0  0  0  0
   -1.7208    1.4500    0.0000 N   0  0  0  0  0  0  0  0  0  0  0  0
   -0.7208    0.2333    0.0000 C   0  0  0  0  0  0  0  0  0  0  0  0
   -1.4958    2.4208    0.0000 C   0  0  0  0  0  0  0  0  0  0  0  0
   -0.3833   -0.5667    0.0000 S   0  0  0  0  0  0  0  0  0  0  0  0
   -0.5958    2.3458    0.0000 S   0  0  0  0  0  0  0  0  0  0  0  0
   -0.2625   -0.0500    0.0000 C   0  0  0  0  0  0  0  0  0  0  0  0
   -1.0208    2.7125    0.0000 C   0  0  0  0  0  0  0  0  0  0  0  0
   -1.2000   -1.1500    0.0000 S   0  0  0  0  0  0  0  0  0  0  0  0
   -0.6000    1.2958    0.0000 S   0  0  0  0  0  0  0  0  0  0  0  0
   -1.1500    0.8625    0.0000 O   0  0  0  0  0  0  0  0  0  0  0  0
   -2.4208    0.6125    0.0000 O   0  0  0  0  0  0  0  0  0  0  0  0
   -0.7708    0.5500    0.0000 O   0  0  0  0  0  0  0  0  0  0  0  0
   -2.0208    2.6333    0.0000 O   0  0  0  0  0  0  0  0  0  0  0  0
  2  8  1  0  0  0  0
  3  7  1  0  0  0  0
  4  3  1  0  0  0  0
  5  1  1  0  0  0  0
  6  2  1  0  0  0  0
  7  1  1  0  0  0  0
  8  4  1  0  0  0  0
  9  1  1  0  0  0  0
 10  2  1  0  0  0  0
 11  5  1  0  0  0  0
 12  6  1  0  0  0  0
 13  9  1  0  0  0  0
 14 10  1  0  0  0  0
 15  5  2  0  0  0  0
 16  6  2  0  0  0  0
 17  4  2  0  0  0  0
 18  3  2  0  0  0  0
 19  9  2  0  0  0  0
 20 10  2  0  0  0  0
 13 11  1  0  0  0  0
 12 14  1  0  0  0  0
M  END
> <IDNUMBER>
F0745-0118

> <Chemical_Name>
N,N'-bis(4-oxo-2-sulfanylidene-1,3-thiazolidin-3-yl)ethanediamide

> <CAS>
98437-08-2

> <PriceCoeff>
1.00

> <MW>
350.42

> <Description>
solid

> <FSP3>
0.25

> <clogP>
-2.57

> <TPSA>
213.60

> <Acceptor>
6

> <Donor>
2

> <RotBonds>
3

> <HAC>
20

> <Collection>
General

> <Reference_compound>
CHEMBL2268838

> <Similarity>
0.8270

$$$$
F2018-4001
  -ISIS-  06222304352D

 36 38  0  0  0  0  0  0  0  0999 V2000
   -3.1583    2.9833    0.0000 C   0  0  0  0  0  0  0  0  0  0  0  0
   -3.9333    2.6333    0.0000 N   0  0  0  0  0  0  0  0  0  0  0  0
   -2.4375    2.5625    0.0000 N   0  0  3  0  0  0  0  0  0  0  0  0
   -0.2958    0.4958    0.0000 N   0  0  3  0  0  0  0  0  0  0  0  0
   -3.2458    3.8333    0.0000 S   0  0  0  0  0  0  0  0  0  0  0  0
   -1.7250    2.9833    0.0000 C   0  0  0  0  0  0  0  0  0  0  0  0
   -4.5083    3.2708    0.0000 C   0  0  0  0  0  0  0  0  0  0  0  0
   -0.2958    1.3333    0.0000 C   0  0  0  0  0  0  0  0  0  0  0  0
    0.3500   -0.0167    0.0000 C   0  0  0  0  0  0  0  0  0  0  0  0
   -0.9958    0.0458    0.0000 C   0  0  0  0  0  0  0  0  0  0  0  0
   -4.0833    4.0000    0.0000 C   0  0  0  0  0  0  0  0  0  0  0  0
   -1.0125    2.5625    0.0000 C   0  0  0  0  0  0  0  0  0  0  0  0
   -1.0083    1.7458    0.0000 C   0  0  0  0  0  0  0  0  0  0  0  0
   -2.4375    1.7375    0.0000 C   0  0  0  0  0  0  0  0  0  0  0  0
   -1.7250    3.8000    0.0000 O   0  0  0  0  0  0  0  0  0  0  0  0
   -5.3458    3.2708    0.0000 C   0  0  0  0  0  0  0  0  0  0  0  0
    0.0667   -0.7917    0.0000 C   0  0  0  0  0  0  0  0  0  0  0  0
   -0.7583   -0.7667    0.0000 C   0  0  0  0  0  0  0  0  0  0  0  0
    1.1417    0.1958    0.0000 O   0  0  0  0  0  0  0  0  0  0  0  0
   -1.7583    0.3333    0.0000 O   0  0  0  0  0  0  0  0  0  0  0  0
   -3.1583    1.3250    0.0000 C   0  0  0  0  0  0  0  0  0  0  0  0
   -3.1583    0.5000    0.0000 N   0  0  3  0  0  0  0  0  0  0  0  0
    0.4167    1.7333    0.0000 C   0  0  0  0  0  0  0  0  0  0  0  0
   -5.7708    2.5333    0.0000 O   0  0  0  0  0  0  0  0  0  0  0  0
   -4.5000    4.7167    0.0000 C   0  0  0  0  0  0  0  0  0  0  0  0
   -0.2875    2.9833    0.0000 C   0  0  0  0  0  0  0  0  0  0  0  0
    0.4250    2.5625    0.0000 C   0  0  0  0  0  0  0  0  0  0  0  0
   -5.3500    4.7292    0.0000 C   0  0  0  0  0  0  0  0  0  0  0  0
   -5.7708    3.9958    0.0000 C   0  0  0  0  0  0  0  0  0  0  0  0
   -2.4375    0.0875    0.0000 C   0  0  0  0  0  0  0  0  0  0  0  0
   -3.8708    0.0875    0.0000 C   0  0  0  0  0  0  0  0  0  0  0  0
   -5.3458    1.8000    0.0000 C   0  0  0  0  0  0  0  0  0  0  0  0
   -4.5833    0.5000    0.0000 C   0  0  0  0  0  0  0  0  0  0  0  0
   -2.4375   -0.7375    0.0000 C   0  0  0  0  0  0  0  0  0  0  0  0
   -5.5833    1.2625    0.0000 C   0  0  0  0  0  0  0  0  0  0  0  0
    2.6584    2.0625    0.0000 Cl  0  0  0  0  0  0  0  0  0  0  0  0
  3  1  1  0  0  0  0
  4  8  1  0  0  0  0
  5  1  1  0  0  0  0
  6  3  1  0  0  0  0
  7  2  1  0  0  0  0
  8 13  1  0  0  0  0
  9  4  1  0  0  0  0
 10  4  1  0  0  0  0
 11  5  1  0  0  0  0
 12  6  1  0  0  0  0
 13 12  2  0  0  0  0
 14  3  1  0  0  0  0
 15  6  2  0  0  0  0
 16  7  1  0  0  0  0
 17  9  1  0  0  0  0
 18 10  1  0  0  0  0
 19  9  2  0  0  0  0
 20 10  2  0  0  0  0
 21 14  1  0  0  0  0
 22 21  1  0  0  0  0
 23 27  1  0  0  0  0
 24 16  1  0  0  0  0
 25 11  1  0  0  0  0
 26 12  1  0  0  0  0
 27 26  2  0  0  0  0
 28 25  2  0  0  0  0
 29 16  2  0  0  0  0
 30 22  1  0  0  0  0
 31 22  1  0  0  0  0
 32 24  1  0  0  0  0
 33 31  1  0  0  0  0
 34 30  1  0  0  0  0
 35 32  1  0  0  0  0
 11  7  2  0  0  0  0
 29 28  1  0  0  0  0
  8 23  2  0  0  0  0
 18 17  1  0  0  0  0
  2  1  2  0  0  0  0
M  END
> <IDNUMBER>
F2018-4001

> <Chemical_Name>
N-[2-(diethylamino)ethyl]-3-(2,5-dioxopyrrolidin-1-yl)-N-(4-ethoxy-1,3-benzothiazol-2-yl)benzamide hydrochloride

> <CAS>
1135198-10-5

> <PriceCoeff>
1.00

> <MW>
494.61

> <Description>
solid

> <FSP3>
0.38

> <clogP>
3.01

> <TPSA>
111.29

> <Acceptor>
5

> <Donor>
1

> <RotBonds>
11

> <HAC>
35

> <Collection>
General

$$$$
F2517-0143
  -ISIS-  06222321142D

 36 39  0  0  0  0  0  0  0  0999 V2000
   -3.1583    5.0250    0.0000 C   0  0  0  0  0  0  0  0  0  0  0  0
   -3.8708    0.5083    0.0000 N   0  0  3  0  0  0  0  0  0  0  0  0
   -3.8250    5.5042    0.0000 O   0  0  0  0  0  0  0  0  0  0  0  0
   -3.5750    6.2792    0.0000 C   0  0  0  0  0  0  0  0  0  0  0  0
   -2.7583    6.2792    0.0000 N   0  0  0  0  0  0  0  0  0  0  0  0
   -3.1583    4.2042    0.0000 N   0  0  0  0  0  0  0  0  0  0  0  0
   -2.4833    5.5042    0.0000 N   0  0  0  0  0  0  0  0  0  0  0  0
   -3.8708    3.8000    0.0000 C   0  0  0  0  0  0  0  0  0  0  0  0
   -4.5083   -0.0042    0.0000 C   0  0  0  0  0  0  0  0  0  0  0  0
   -3.1833    0.0458    0.0000 C   0  0  0  0  0  0  0  0  0  0  0  0
   -4.0583    6.9292    0.0000 C   0  0  0  0  0  0  0  0  0  0  0  0
   -5.0208    8.2542    0.0000 C   0  0  0  0  0  0  0  0  0  0  0  0
   -4.2083    8.3500    0.0000 C   0  0  0  0  0  0  0  0  0  0  0  0
   -5.3458    7.5042    0.0000 C   0  0  0  0  0  0  0  0  0  0  0  0
   -3.7208    7.6875    0.0000 C   0  0  0  0  0  0  0  0  0  0  0  0
   -4.8583    6.8417    0.0000 C   0  0  0  0  0  0  0  0  0  0  0  0
   -3.8708    1.3333    0.0000 C   0  0  0  0  0  0  0  0  0  0  0  0
   -3.8708    2.9833    0.0000 C   0  0  0  0  0  0  0  0  0  0  0  0
   -4.5833    4.2042    0.0000 O   0  0  0  0  0  0  0  0  0  0  0  0
   -4.2250   -0.7667    0.0000 C   0  0  0  0  0  0  0  0  0  0  0  0
   -3.4125   -0.7500    0.0000 C   0  0  0  0  0  0  0  0  0  0  0  0
   -5.3083    0.2208    0.0000 O   0  0  0  0  0  0  0  0  0  0  0  0
   -2.3958    0.3333    0.0000 O   0  0  0  0  0  0  0  0  0  0  0  0
   -3.1500    1.7458    0.0000 C   0  0  0  0  0  0  0  0  0  0  0  0
   -4.5833    1.7458    0.0000 C   0  0  0  0  0  0  0  0  0  0  0  0
   -4.5708    2.5708    0.0000 C   0  0  0  0  0  0  0  0  0  0  0  0
   -3.1458    2.5625    0.0000 C   0  0  0  0  0  0  0  0  0  0  0  0
   -5.5000    8.9167    0.0000 O   0  0  0  0  0  0  0  0  0  0  0  0
   -6.1542    7.4167    0.0000 O   0  0  0  0  0  0  0  0  0  0  0  0
   -3.8708    9.0917    0.0000 O   0  0  0  0  0  0  0  0  0  0  0  0
   -6.3042    8.8292    0.0000 C   0  0  0  0  0  0  0  0  0  0  0  0
   -6.4667    6.6667    0.0000 C   0  0  0  0  0  0  0  0  0  0  0  0
   -4.3583    9.7500    0.0000 C   0  0  0  0  0  0  0  0  0  0  0  0
   -3.8333   10.6542    0.0000 C   0  0  0  0  0  0  0  0  0  0  0  0
   -6.7917    9.4917    0.0000 C   0  0  0  0  0  0  0  0  0  0  0  0
   -7.1417    6.6250    0.0000 C   0  0  0  0  0  0  0  0  0  0  0  0
  2 17  1  0  0  0  0
  3  1  1  0  0  0  0
  4  3  1  0  0  0  0
  5  7  1  0  0  0  0
  6  1  1  0  0  0  0
  7  1  2  0  0  0  0
  8  6  1  0  0  0  0
  9  2  1  0  0  0  0
 10  2  1  0  0  0  0
 11  4  1  0  0  0  0
 12 14  1  0  0  0  0
 13 15  1  0  0  0  0
 14 16  2  0  0  0  0
 15 11  2  0  0  0  0
 16 11  1  0  0  0  0
 17 24  1  0  0  0  0
 18  8  1  0  0  0  0
 19  8  2  0  0  0  0
 20  9  1  0  0  0  0
 21 10  1  0  0  0  0
 22  9  2  0  0  0  0
 23 10  2  0  0  0  0
 24 27  2  0  0  0  0
 25 26  1  0  0  0  0
 26 18  2  0  0  0  0
 27 18  1  0  0  0  0
 28 12  1  0  0  0  0
 29 14  1  0  0  0  0
 30 13  1  0  0  0  0
 31 28  1  0  0  0  0
 32 29  1  0  0  0  0
 33 30  1  0  0  0  0
 34 33  1  0  0  0  0
 35 31  1  0  0  0  0
 36 32  1  0  0  0  0
  5  4  2  0  0  0  0
 25 17  2  0  0  0  0
 13 12  2  0  0  0  0
 21 20  1  0  0  0  0
M  END
> <IDNUMBER>
F2517-0143

> <Chemical_Name>
4-(2,5-dioxopyrrolidin-1-yl)-N-[5-(3,4,5-triethoxyphenyl)-1,3,4-oxadiazol-2-yl]benzamide

> <CAS>
891126-45-7

> <PriceCoeff>
1.00

> <MW>
494.50

> <Description>
solid

> <FSP3>
0.32

> <clogP>
1.66

> <TPSA>
133.09

> <Acceptor>
9

> <Donor>
1

> <RotBonds>
10

> <HAC>
36

> <Collection>
General

$$$$
F3139-0640
  -ISIS-  06222321462D

 20 22  0  0  0  0  0  0  0  0999 V2000
    5.2750   -0.4292    0.0000 C   0  0  0  0  0  0  0  0  0  0  0  0
    5.2750   -1.2667    0.0000 C   0  0  0  0  0  0  0  0  0  0  0  0
    3.8292   -1.2667    0.0000 C   0  0  0  0  0  0  0  0  0  0  0  0
    4.5500   -1.6792    0.0000 C   0  0  0  0  0  0  0  0  0  0  0  0
    4.5542   -0.0125    0.0000 O   0  0  0  0  0  0  0  0  0  0  0  0
    3.8375   -0.4292    0.0000 C   0  0  0  0  0  0  0  0  0  0  0  0
    5.9875   -0.0250    0.0000 C   0  0  0  0  0  0  0  0  0  0  0  0
    3.1167   -1.6750    0.0000 C   0  0  0  0  0  0  0  0  0  0  0  0
    4.5500   -2.5042    0.0000 O   0  0  0  0  0  0  0  0  0  0  0  0
    3.1167   -0.0167    0.0000 C   0  0  0  0  0  0  0  0  0  0  0  0
    6.7042   -0.4417    0.0000 C   0  0  0  0  0  0  0  0  0  0  0  0
    5.9917    0.7958    0.0000 C   0  0  0  0  0  0  0  0  0  0  0  0
    2.4042   -1.2625    0.0000 C   0  0  0  0  0  0  0  0  0  0  0  0
    2.4042   -0.4375    0.0000 C   0  0  0  0  0  0  0  0  0  0  0  0
    6.7042    1.2083    0.0000 C   0  0  0  0  0  0  0  0  0  0  0  0
    7.4167   -0.0292    0.0000 C   0  0  0  0  0  0  0  0  0  0  0  0
    7.4167    0.7958    0.0000 C   0  0  0  0  0  0  0  0  0  0  0  0
    1.6917   -1.6667    0.0000 O   0  0  0  0  0  0  0  0  0  0  0  0
    8.1375    1.2083    0.0000 C   0  0  0  0  0  0  0  0  0  0  0  0
    1.6917   -2.4917    0.0000 C   0  0  0  0  0  0  0  0  0  0  0  0
  2  1  2  0  0  0  0
  3  6  1  0  0  0  0
  4  2  1  0  0  0  0
  5  1  1  0  0  0  0
  6  5  1  0  0  0  0
  7  1  1  0  0  0  0
  8  3  2  0  0  0  0
  9  4  2  0  0  0  0
 10  6  2  0  0  0  0
 11  7  2  0  0  0  0
 12  7  1  0  0  0  0
 13 14  2  0  0  0  0
 14 10  1  0  0  0  0
 15 12  2  0  0  0  0
 16 11  1  0  0  0  0
 17 15  1  0  0  0  0
 18 13  1  0  0  0  0
 19 17  1  0  0  0  0
 20 18  1  0  0  0  0
  3  4  1  0  0  0  0
 16 17  2  0  0  0  0
 13  8  1  0  0  0  0
M  END
> <IDNUMBER>
F3139-0640

> <Chemical_Name>
6-methoxy-2-(4-methylphenyl)-4H-chromen-4-one

> <CAS>
208998-53-2

> <PriceCoeff>
1.00

> <MW>
266.29

> <Description>
solid

> <FSP3>
0.12

> <clogP>
4.09

> <TPSA>
35.53

> <Acceptor>
3

> <Donor>
0

> <RotBonds>
2

> <HAC>
20

> <Collection>
General

> <Reference_compound>
CHEMBL275638

> <Similarity>
0.9240

$$$$
F0737-0246
  -ISIS-  06222321142D

 29 33  0  0  0  0  0  0  0  0999 V2000
   -2.4500   -0.2042    0.0000 C   0  0  0  0  0  0  0  0  0  0  0  0
   -4.0333    0.6958    0.0000 C   0  0  0  0  0  0  0  0  0  0  0  0
   -3.4708    0.2708    0.0000 C   0  0  0  0  0  0  0  0  0  0  0  0
    1.4792    0.0833    0.0000 N   0  0  3  0  0  0  0  0  0  0  0  0
   -2.9125   -0.7292    0.0000 N   0  0  0  0  0  0  0  0  0  0  0  0
   -4.0958    1.3958    0.0000 N   0  0  0  0  0  0  0  0  0  0  0  0
   -1.7333   -0.2875    0.0000 N   0  0  0  0  0  0  0  0  0  0  0  0
   -2.7708    0.4125    0.0000 S   0  0  0  0  0  0  0  0  0  0  0  0
   -3.5500   -0.4292    0.0000 C   0  0  0  0  0  0  0  0  0  0  0  0
   -5.1333    0.9500    0.0000 S   0  0  0  0  0  0  0  0  0  0  0  0
   -4.6708    0.4125    0.0000 C   0  0  0  0  0  0  0  0  0  0  0  0
   -1.3333    0.2958    0.0000 C   0  0  0  0  0  0  0  0  0  0  0  0
   -4.7708    1.5500    0.0000 C   0  0  0  0  0  0  0  0  0  0  0  0
    1.9042    0.6000    0.0000 C   0  0  0  0  0  0  0  0  0  0  0  0
    1.8792   -0.4667    0.0000 C   0  0  0  0  0  0  0  0  0  0  0  0
    0.7875    0.0958    0.0000 C   0  0  0  0  0  0  0  0  0  0  0  0
   -0.6333    0.2125    0.0000 C   0  0  0  0  0  0  0  0  0  0  0  0
   -1.6125    0.9333    0.0000 O   0  0  0  0  0  0  0  0  0  0  0  0
    2.5542    0.3833    0.0000 C   0  0  0  0  0  0  0  0  0  0  0  0
    2.5167   -0.2792    0.0000 C   0  0  0  0  0  0  0  0  0  0  0  0
   -4.1708   -0.7042    0.0000 C   0  0  0  0  0  0  0  0  0  0  0  0
    1.7167    1.3125    0.0000 O   0  0  0  0  0  0  0  0  0  0  0  0
    1.6542   -1.1792    0.0000 O   0  0  0  0  0  0  0  0  0  0  0  0
   -4.7500   -0.2875    0.0000 C   0  0  0  0  0  0  0  0  0  0  0  0
    0.4875    0.7125    0.0000 C   0  0  0  0  0  0  0  0  0  0  0  0
    0.3667   -0.5042    0.0000 C   0  0  0  0  0  0  0  0  0  0  0  0
   -0.3333   -0.4292    0.0000 C   0  0  0  0  0  0  0  0  0  0  0  0
   -0.2125    0.7958    0.0000 C   0  0  0  0  0  0  0  0  0  0  0  0
   -5.0500    2.2125    0.0000 C   0  0  0  0  0  0  0  0  0  0  0  0
  2  3  1  0  0  0  0
  3  8  1  0  0  0  0
  4 16  1  0  0  0  0
  5  1  2  0  0  0  0
  6  2  1  0  0  0  0
  7  1  1  0  0  0  0
  8  1  1  0  0  0  0
  9  5  1  0  0  0  0
 10 11  1  0  0  0  0
 11  2  2  0  0  0  0
 12  7  1  0  0  0  0
 13  6  2  0  0  0  0
 14  4  1  0  0  0  0
 15  4  1  0  0  0  0
 16 25  1  0  0  0  0
 17 12  1  0  0  0  0
 18 12  2  0  0  0  0
 19 14  1  0  0  0  0
 20 15  1  0  0  0  0
 21  9  1  0  0  0  0
 22 14  2  0  0  0  0
 23 15  2  0  0  0  0
 24 21  2  0  0  0  0
 25 28  2  0  0  0  0
 26 27  1  0  0  0  0
 27 17  2  0  0  0  0
 28 17  1  0  0  0  0
 29 13  1  0  0  0  0
  9  3  2  0  0  0  0
 11 24  1  0  0  0  0
 10 13  1  0  0  0  0
 16 26  2  0  0  0  0
 19 20  1  0  0  0  0
M  END
> <IDNUMBER>
F0737-0246

> <Chemical_Name>
4-(2,5-dioxopyrrolidin-1-yl)-N-{11-methyl-3,10-dithia-5,12-diazatricyclo[7.3.0.0^{2,6}]dodeca-1(9),2(6),4,7,11-pentaen-4-yl}benzamide

> <CAS>
441290-39-7

> <PriceCoeff>
1.00

> <MW>
422.48

> <Description>
solid

> <FSP3>
0.15

> <clogP>
2.18

> <TPSA>
148.74

> <Acceptor>
5

> <Donor>
1

> <RotBonds>
3

> <HAC>
29

> <Collection>
General

$$$$
F1190-0499
  -ISIS-  06222321142D

 19 21  0  0  0  0  0  0  0  0999 V2000
    2.6125    1.2458    0.0000 C   0  0  3  0  0  0  0  0  0  0  0  0
    1.1667    0.4083    0.0000 C   0  0  0  0  0  0  0  0  0  0  0  0
    1.8917    1.6625    0.0000 O   0  0  0  0  0  0  0  0  0  0  0  0
    1.8875   -0.0042    0.0000 C   0  0  0  0  0  0  0  0  0  0  0  0
    1.1750    1.2458    0.0000 C   0  0  0  0  0  0  0  0  0  0  0  0
    2.6125    0.4083    0.0000 C   0  0  0  0  0  0  0  0  0  0  0  0
    3.3250    1.6500    0.0000 C   0  0  0  0  0  0  0  0  0  0  0  0
    0.4542   -0.0000    0.0000 C   0  0  0  0  0  0  0  0  0  0  0  0
    3.3292    2.4708    0.0000 C   0  0  0  0  0  0  0  0  0  0  0  0
    1.8875   -0.8292    0.0000 O   0  0  0  0  0  0  0  0  0  0  0  0
    0.4542    1.6583    0.0000 C   0  0  0  0  0  0  0  0  0  0  0  0
   -0.2583    0.4125    0.0000 C   0  0  0  0  0  0  0  0  0  0  0  0
    2.6042    2.8833    0.0000 Cl  0  0  0  0  0  0  0  0  0  0  0  0
   -0.2583    1.2375    0.0000 C   0  0  0  0  0  0  0  0  0  0  0  0
    4.0417    1.2333    0.0000 C   0  0  0  0  0  0  0  0  0  0  0  0
    4.0417    2.8833    0.0000 C   0  0  0  0  0  0  0  0  0  0  0  0
   -0.9708   -0.0000    0.0000 C   0  0  0  0  0  0  0  0  0  0  0  0
    4.7542    1.6458    0.0000 C   0  0  0  0  0  0  0  0  0  0  0  0
    4.7542    2.4708    0.0000 C   0  0  0  0  0  0  0  0  0  0  0  0
  2  4  1  0  0  0  0
  3  1  1  0  0  0  0
  4  6  1  0  0  0  0
  5  3  1  0  0  0  0
  6  1  1  0  0  0  0
  7  1  1  0  0  0  0
  8  2  2  0  0  0  0
  9  7  1  0  0  0  0
 10  4  2  0  0  0  0
 11  5  2  0  0  0  0
 12  8  1  0  0  0  0
 13  9  1  0  0  0  0
 14 11  1  0  0  0  0
 15  7  2  0  0  0  0
 16  9  2  0  0  0  0
 17 12  1  0  0  0  0
 18 15  1  0  0  0  0
 19 18  2  0  0  0  0
  2  5  1  0  0  0  0
 19 16  1  0  0  0  0
 12 14  2  0  0  0  0
M  END
> <IDNUMBER>
F1190-0499

> <Chemical_Name>
2-(2-chlorophenyl)-6-methyl-3,4-dihydro-2H-1-benzopyran-4-one

> <CAS>
610758-70-8

> <PriceCoeff>
1.00

> <MW>
272.73

> <Description>
solid

> <FSP3>
0.19

> <clogP>
4.69

> <TPSA>
26.30

> <Acceptor>
2

> <Donor>
0

> <RotBonds>
1

> <HAC>
19

> <Collection>
General

> <Reference_compound>
CHEMBL274318

> <Similarity>
0.8260

$$$$
F6660-4201
  -ISIS-  06222321472D

 16 18  0  0  0  0  0  0  0  0999 V2000
    6.1250   -2.3500    0.0000 N   0  0  0  0  0  0  0  0  0  0  0  0
    5.4542   -1.8625    0.0000 C   0  0  0  0  0  0  0  0  0  0  0  0
    6.7917   -1.8667    0.0000 C   0  0  0  0  0  0  0  0  0  0  0  0
    6.5417   -1.0792    0.0000 N   0  0  0  0  0  0  0  0  0  0  0  0
    5.7167   -1.0792    0.0000 O   0  0  0  0  0  0  0  0  0  0  0  0
    4.6750   -2.1167    0.0000 C   0  0  0  0  0  0  0  0  0  0  0  0
    4.4167   -2.9042    0.0000 N   0  0  0  0  0  0  0  0  0  0  0  0
    7.5750   -2.1167    0.0000 C   0  0  0  0  0  0  0  0  0  0  0  0
    4.0042   -1.6292    0.0000 C   0  0  0  0  0  0  0  0  0  0  0  0
    3.5917   -2.9042    0.0000 C   0  0  0  0  0  0  0  0  0  0  0  0
    9.1417   -2.6292    0.0000 N   0  0  0  0  0  0  0  0  0  0  0  0
    3.3417   -2.1167    0.0000 C   0  0  0  0  0  0  0  0  0  0  0  0
    8.5292   -3.1792    0.0000 C   0  0  0  0  0  0  0  0  0  0  0  0
    8.9667   -1.8167    0.0000 C   0  0  0  0  0  0  0  0  0  0  0  0
    7.7417   -2.9292    0.0000 C   0  0  0  0  0  0  0  0  0  0  0  0
    8.1875   -1.5667    0.0000 C   0  0  0  0  0  0  0  0  0  0  0  0
  2  1  2  0  0  0  0
  3  1  1  0  0  0  0
  4  3  2  0  0  0  0
  5  2  1  0  0  0  0
  6  2  1  0  0  0  0
  7  6  1  0  0  0  0
  8  3  1  0  0  0  0
  9  6  2  0  0  0  0
 10  7  1  0  0  0  0
 11 14  1  0  0  0  0
 12  9  1  0  0  0  0
 13 15  1  0  0  0  0
 14 16  2  0  0  0  0
 15  8  2  0  0  0  0
 16  8  1  0  0  0  0
  4  5  1  0  0  0  0
 13 11  2  0  0  0  0
 12 10  2  0  0  0  0
M  END
> <IDNUMBER>
F6660-4201

> <Chemical_Name>
4-[5-(1H-pyrrol-2-yl)-1,2,4-oxadiazol-3-yl]pyridine

> <CAS>
1060943-83-0

> <PriceCoeff>
1.00

> <MW>
212.21

> <Description>
solid

> <FSP3>
0.00

> <clogP>
1.30

> <TPSA>
67.60

> <Acceptor>
4

> <Donor>
2

> <RotBonds>
2

> <HAC>
16

> <Collection>
General

> <Reference_compound>
CHEMBL2268705

> <Similarity>
0.8180

$$$$
F3139-0623
  -ISIS-  06222321152D

 22 24  0  0  0  0  0  0  0  0999 V2000
    5.2750   -0.4292    0.0000 C   0  0  0  0  0  0  0  0  0  0  0  0
    5.2750   -1.2667    0.0000 C   0  0  0  0  0  0  0  0  0  0  0  0
    3.8292   -1.2667    0.0000 C   0  0  0  0  0  0  0  0  0  0  0  0
    4.5500   -1.6792    0.0000 C   0  0  0  0  0  0  0  0  0  0  0  0
    4.5542   -0.0125    0.0000 O   0  0  0  0  0  0  0  0  0  0  0  0
    3.8375   -0.4292    0.0000 C   0  0  0  0  0  0  0  0  0  0  0  0
    5.9875   -0.0250    0.0000 C   0  0  0  0  0  0  0  0  0  0  0  0
    6.7042   -0.4417    0.0000 C   0  0  0  0  0  0  0  0  0  0  0  0
    7.4167   -0.0292    0.0000 C   0  0  0  0  0  0  0  0  0  0  0  0
    3.1167   -1.6750    0.0000 C   0  0  0  0  0  0  0  0  0  0  0  0
    4.5500   -2.5042    0.0000 O   0  0  0  0  0  0  0  0  0  0  0  0
    7.4167    0.7958    0.0000 C   0  0  0  0  0  0  0  0  0  0  0  0
    3.1167   -0.0167    0.0000 C   0  0  0  0  0  0  0  0  0  0  0  0
    5.9917    0.7958    0.0000 C   0  0  0  0  0  0  0  0  0  0  0  0
    6.7042    1.2083    0.0000 C   0  0  0  0  0  0  0  0  0  0  0  0
    2.4042   -1.2625    0.0000 C   0  0  0  0  0  0  0  0  0  0  0  0
    2.4042   -0.4375    0.0000 C   0  0  0  0  0  0  0  0  0  0  0  0
    8.1292   -0.4417    0.0000 O   0  0  0  0  0  0  0  0  0  0  0  0
    1.6917   -1.6750    0.0000 Br  0  0  0  0  0  0  0  0  0  0  0  0
    8.1417    1.2083    0.0000 O   0  0  0  0  0  0  0  0  0  0  0  0
    8.8417   -0.0292    0.0000 C   0  0  0  0  0  0  0  0  0  0  0  0
    8.1417    2.0333    0.0000 C   0  0  0  0  0  0  0  0  0  0  0  0
  2  1  2  0  0  0  0
  3  6  1  0  0  0  0
  4  2  1  0  0  0  0
  5  1  1  0  0  0  0
  6  5  1  0  0  0  0
  7  1  1  0  0  0  0
  8  7  2  0  0  0  0
  9  8  1  0  0  0  0
 10  3  2  0  0  0  0
 11  4  2  0  0  0  0
 12 15  1  0  0  0  0
 13  6  2  0  0  0  0
 14  7  1  0  0  0  0
 15 14  2  0  0  0  0
 16 17  2  0  0  0  0
 17 13  1  0  0  0  0
 18  9  1  0  0  0  0
 19 16  1  0  0  0  0
 20 12  1  0  0  0  0
 21 18  1  0  0  0  0
 22 20  1  0  0  0  0
  3  4  1  0  0  0  0
  9 12  2  0  0  0  0
 16 10  1  0  0  0  0
M  END
> <IDNUMBER>
F3139-0623

> <Chemical_Name>
6-bromo-2-(3,4-dimethoxyphenyl)-4H-chromen-4-one

> <CAS>
54197-78-3

> <PriceCoeff>
1.00

> <MW>
361.19

> <Description>
solid

> <FSP3>
0.12

> <clogP>
4.02

> <TPSA>
44.76

> <Acceptor>
4

> <Donor>
0

> <RotBonds>
3

> <HAC>
22

> <Collection>
General

> <Reference_compound>
CHEMBL276915

> <Similarity>
0.8030

$$$$
F2707-0518
  -ISIS-  06222321462D

 25 28  0  0  0  0  0  0  0  0999 V2000
   -2.4208    1.8958    0.0000 N   0  0  3  0  0  0  0  0  0  0  0  0
   -1.6625    1.5583    0.0000 C   0  0  0  0  0  0  0  0  0  0  0  0
   -2.4958    2.7208    0.0000 C   0  0  3  0  0  0  0  0  0  0  0  0
   -3.2458    3.0458    0.0000 C   0  0  0  0  0  0  0  0  0  0  0  0
   -3.9125    2.5708    0.0000 N   0  0  3  0  0  0  0  0  0  0  0  0
   -1.8333    3.1958    0.0000 C   0  0  0  0  0  0  0  0  0  0  0  0
   -1.5833    0.7375    0.0000 N   0  0  0  0  0  0  0  0  0  0  0  0
   -3.0833    1.4208    0.0000 C   0  0  0  0  0  0  0  0  0  0  0  0
   -1.8250    4.0125    0.0000 S   0  0  0  0  0  0  0  0  0  0  0  0
   -3.6708    0.1208    0.0000 C   0  0  0  0  0  0  0  0  0  0  0  0
   -3.0083    0.5958    0.0000 C   0  0  0  0  0  0  0  0  0  0  0  0
   -3.5000    3.8333    0.0000 C   0  0  0  0  0  0  0  0  0  0  0  0
   -0.9958    2.0375    0.0000 O   0  0  0  0  0  0  0  0  0  0  0  0
   -4.5833    3.0458    0.0000 C   0  0  0  0  0  0  0  0  0  0  0  0
   -2.2500    0.2583    0.0000 C   0  0  0  0  0  0  0  0  0  0  0  0
   -3.8333    1.7583    0.0000 C   0  0  0  0  0  0  0  0  0  0  0  0
   -4.3333    3.8333    0.0000 C   0  0  0  0  0  0  0  0  0  0  0  0
   -3.5833   -0.7042    0.0000 C   0  0  0  0  0  0  0  0  0  0  0  0
   -1.0458    2.9458    0.0000 C   0  0  0  0  0  0  0  0  0  0  0  0
   -1.0500    4.2667    0.0000 C   0  0  0  0  0  0  0  0  0  0  0  0
   -0.5625    3.6083    0.0000 C   0  0  0  0  0  0  0  0  0  0  0  0
   -2.8458   -1.0417    0.0000 C   0  0  0  0  0  0  0  0  0  0  0  0
   -4.4208    0.4583    0.0000 Cl  0  0  0  0  0  0  0  0  0  0  0  0
   -2.1708   -0.5667    0.0000 C   0  0  0  0  0  0  0  0  0  0  0  0
   -4.2583   -1.1792    0.0000 Cl  0  0  0  0  0  0  0  0  0  0  0  0
  2  1  1  0  0  0  0
  3  1  1  0  0  0  0
  4  3  1  0  0  0  0
  5 16  1  0  0  0  0
  6  3  1  0  0  0  0
  7  2  1  0  0  0  0
  8  1  1  0  0  0  0
  9  6  1  0  0  0  0
 10 11  1  0  0  0  0
 11 15  2  0  0  0  0
 12  4  2  0  0  0  0
 13  2  2  0  0  0  0
 14  5  1  0  0  0  0
 15  7  1  0  0  0  0
 16  8  1  0  0  0  0
 17 12  1  0  0  0  0
 18 22  1  0  0  0  0
 19  6  2  0  0  0  0
 20  9  1  0  0  0  0
 21 19  1  0  0  0  0
 22 24  2  0  0  0  0
 23 10  1  0  0  0  0
 24 15  1  0  0  0  0
 25 18  1  0  0  0  0
  5  4  1  0  0  0  0
 20 21  2  0  0  0  0
 14 17  2  0  0  0  0
 18 10  2  0  0  0  0
M  END
> <IDNUMBER>
F2707-0518

> <Chemical_Name>
N-(3,4-dichlorophenyl)-1-(thiophen-2-yl)-1H,2H,3H,4H-pyrrolo[1,2-a]pyrazine-2-carboxamide

> <CAS>
900003-58-9

> <PriceCoeff>
1.00

> <MW>
392.30

> <Description>
solid

> <FSP3>
0.17

> <clogP>
4.43

> <TPSA>
65.51

> <Acceptor>
1

> <Donor>
1

> <RotBonds>
3

> <HAC>
25

> <Collection>
General

$$$$
F3139-1043
  -ISIS-  06222321152D

 26 29  0  0  0  0  0  0  0  0999 V2000
    4.2875   -3.0167    0.0000 C   0  0  0  0  0  0  0  0  0  0  0  0
    2.8542   -3.0167    0.0000 C   0  0  0  0  0  0  0  0  0  0  0  0
    3.5667   -3.4292    0.0000 C   0  0  0  0  0  0  0  0  0  0  0  0
    4.2875   -2.1917    0.0000 C   0  0  0  0  0  0  0  0  0  0  0  0
    2.8542   -2.1917    0.0000 C   0  0  0  0  0  0  0  0  0  0  0  0
    5.0000   -3.4375    0.0000 C   0  0  0  0  0  0  0  0  0  0  0  0
    3.5667   -1.7792    0.0000 O   0  0  0  0  0  0  0  0  0  0  0  0
    2.1417   -3.4292    0.0000 C   0  0  0  0  0  0  0  0  0  0  0  0
    2.1417   -1.7792    0.0000 C   0  0  0  0  0  0  0  0  0  0  0  0
    6.4292   -3.4292    0.0000 C   0  0  0  0  0  0  0  0  0  0  0  0
    1.4292   -2.2000    0.0000 C   0  0  0  0  0  0  0  0  0  0  0  0
    5.7167   -3.0167    0.0000 C   0  0  0  0  0  0  0  0  0  0  0  0
    1.4292   -3.0167    0.0000 C   0  0  0  0  0  0  0  0  0  0  0  0
    6.4292   -4.2542    0.0000 C   0  0  0  0  0  0  0  0  0  0  0  0
    3.5667   -4.2542    0.0000 O   0  0  0  0  0  0  0  0  0  0  0  0
    7.1500   -3.0167    0.0000 O   0  0  0  0  0  0  0  0  0  0  0  0
    5.0000   -4.2542    0.0000 C   0  0  0  0  0  0  0  0  0  0  0  0
    7.1417   -4.6750    0.0000 O   0  0  0  0  0  0  0  0  0  0  0  0
    5.7125   -4.6750    0.0000 C   0  0  0  0  0  0  0  0  0  0  0  0
    0.7042   -1.7792    0.0000 O   0  0  0  0  0  0  0  0  0  0  0  0
    0.7125   -3.4292    0.0000 C   0  0  0  0  0  0  0  0  0  0  0  0
    7.8667   -3.4375    0.0000 C   0  0  0  0  0  0  0  0  0  0  0  0
    7.8625   -4.2667    0.0000 C   0  0  0  0  0  0  0  0  0  0  0  0
   -0.0083   -2.1917    0.0000 C   0  0  0  0  0  0  0  0  0  0  0  0
    0.7042   -4.2542    0.0000 C   0  0  0  0  0  0  0  0  0  0  0  0
   -0.7208   -1.7667    0.0000 C   0  0  0  0  0  0  0  0  0  0  0  0
  2  3  1  0  0  0  0
  3  1  1  0  0  0  0
  4  1  2  0  0  0  0
  5  7  1  0  0  0  0
  6  1  1  0  0  0  0
  7  4  1  0  0  0  0
  8  2  2  0  0  0  0
  9  5  2  0  0  0  0
 10 12  2  0  0  0  0
 11  9  1  0  0  0  0
 12  6  1  0  0  0  0
 13  8  1  0  0  0  0
 14 19  2  0  0  0  0
 15  3  2  0  0  0  0
 16 10  1  0  0  0  0
 17  6  2  0  0  0  0
 18 14  1  0  0  0  0
 19 17  1  0  0  0  0
 20 11  1  0  0  0  0
 21 13  1  0  0  0  0
 22 16  1  0  0  0  0
 23 18  1  0  0  0  0
 24 20  1  0  0  0  0
 25 21  1  0  0  0  0
 26 24  1  0  0  0  0
  2  5  1  0  0  0  0
 14 10  1  0  0  0  0
 13 11  2  0  0  0  0
 23 22  1  0  0  0  0
M  END
> <IDNUMBER>
F3139-1043

> <Chemical_Name>
3-(2,3-dihydro-1,4-benzodioxin-6-yl)-7-ethoxy-6-ethyl-4H-chromen-4-one

> <CAS>
610762-12-4

> <PriceCoeff>
1.00

> <MW>
352.38

> <Description>
solid

> <FSP3>
0.29

> <clogP>
4.57

> <TPSA>
53.99

> <Acceptor>
5

> <Donor>
0

> <RotBonds>
4

> <HAC>
26

> <Collection>
General

> <Reference_compound>
CHEMBL455048

> <Similarity>
0.8650

$$$$
F3023-0286
  -ISIS-  06222321462D

 27 29  0  0  0  0  0  0  0  0999 V2000
    9.2542   -6.6250    0.0000 N   0  0  3  0  0  0  0  0  0  0  0  0
    8.5375   -6.6292    0.0000 C   0  0  0  0  0  0  0  0  0  0  0  0
    8.1125   -6.0542    0.0000 C   0  0  0  0  0  0  0  0  0  0  0  0
    9.6750   -6.0417    0.0000 C   0  0  0  0  0  0  0  0  0  0  0  0
    9.6792   -7.2042    0.0000 C   0  0  0  0  0  0  0  0  0  0  0  0
    8.1167   -7.2167    0.0000 S   0  0  0  0  0  0  0  0  0  0  0  0
   10.3625   -6.9792    0.0000 C   0  0  3  0  0  0  0  0  0  0  0  0
   10.3542   -6.2625    0.0000 C   0  0  0  0  0  0  0  0  0  0  0  0
   12.1750   -7.5167    0.0000 C   0  0  0  0  0  0  0  0  0  0  0  0
    7.4375   -6.2792    0.0000 C   0  0  0  0  0  0  0  0  0  0  0  0
    8.3292   -5.3750    0.0000 C   0  0  0  0  0  0  0  0  0  0  0  0
   10.9417   -7.3917    0.0000 S   0  0  0  0  0  0  0  0  0  0  0  0
   11.5917   -7.1000    0.0000 C   0  0  0  0  0  0  0  0  0  0  0  0
    7.4375   -7.0000    0.0000 C   0  0  0  0  0  0  0  0  0  0  0  0
   12.1042   -8.2375    0.0000 C   0  0  0  0  0  0  0  0  0  0  0  0
    9.4500   -5.3625    0.0000 O   0  0  0  0  0  0  0  0  0  0  0  0
    9.4625   -7.8875    0.0000 O   0  0  0  0  0  0  0  0  0  0  0  0
    8.8250   -5.2750    0.0000 O   0  0  0  0  0  0  0  0  0  0  0  0
   12.6792   -8.6542    0.0000 O   0  0  0  0  0  0  0  0  0  0  0  0
   11.4500   -8.5292    0.0000 O   0  0  0  0  0  0  0  0  0  0  0  0
    7.8417   -4.8417    0.0000 O   0  0  0  0  0  0  0  0  0  0  0  0
   12.8292   -7.2250    0.0000 C   0  0  0  0  0  0  0  0  0  0  0  0
   11.6625   -6.3917    0.0000 C   0  0  0  0  0  0  0  0  0  0  0  0
    6.8167   -7.3542    0.0000 C   0  0  0  0  0  0  0  0  0  0  0  0
    8.0625   -4.1625    0.0000 C   0  0  0  0  0  0  0  0  0  0  0  0
   12.9000   -6.5125    0.0000 C   0  0  0  0  0  0  0  0  0  0  0  0
   12.3125   -6.0917    0.0000 C   0  0  0  0  0  0  0  0  0  0  0  0
  2  1  1  0  0  0  0
  3  2  2  0  0  0  0
  4  1  1  0  0  0  0
  5  1  1  0  0  0  0
  6  2  1  0  0  0  0
  7  5  1  0  0  0  0
  8  4  1  0  0  0  0
  9 13  2  0  0  0  0
 10  3  1  0  0  0  0
 11  3  1  0  0  0  0
 12  7  1  0  0  0  0
 13 12  1  0  0  0  0
 14  6  1  0  0  0  0
 15  9  1  0  0  0  0
 16  4  2  0  0  0  0
 17  5  2  0  0  0  0
 18 11  2  0  0  0  0
 19 15  2  0  0  0  0
 20 15  1  0  0  0  0
 21 11  1  0  0  0  0
 22  9  1  0  0  0  0
 23 13  1  0  0  0  0
 24 14  1  0  0  0  0
 25 21  1  0  0  0  0
 26 27  1  0  0  0  0
 27 23  2  0  0  0  0
  8  7  1  0  0  0  0
 10 14  2  0  0  0  0
 26 22  2  0  0  0  0
M  END
> <IDNUMBER>
F3023-0286

> <Chemical_Name>
2-({1-[3-(methoxycarbonyl)-5-methylthiophen-2-yl]-2,5-dioxopyrrolidin-3-yl}sulfanyl)benzoic acid

> <CAS>
831228-85-4

> <PriceCoeff>
1.00

> <MW>
405.44

> <Description>
solid

> <FSP3>
0.22

> <clogP>
2.79

> <TPSA>
154.52

> <Acceptor>
6

> <Donor>
0

> <RotBonds>
6

> <HAC>
27

> <Collection>
General

$$$$
F2384-0143
  -ISIS-  06222321142D

 28 31  0  0  0  0  0  0  0  0999 V2000
   -3.0458    7.5167    0.0000 N   0  0  3  0  0  0  0  0  0  0  0  0
   -3.0458    6.6917    0.0000 C   0  0  0  0  0  0  0  0  0  0  0  0
   -2.3250    7.9292    0.0000 C   0  0  0  0  0  0  0  0  0  0  0  0
   -3.7500    3.8000    0.0000 C   0  0  0  0  0  0  0  0  0  0  0  0
   -2.3250    6.2667    0.0000 C   0  0  0  0  0  0  0  0  0  0  0  0
   -3.0375    4.2125    0.0000 N   0  0  0  0  0  0  0  0  0  0  0  0
   -3.7625    7.9375    0.0000 C   0  0  0  0  0  0  0  0  0  0  0  0
   -3.7583    6.2792    0.0000 C   0  0  0  0  0  0  0  0  0  0  0  0
   -3.7583    2.9833    0.0000 C   0  0  0  0  0  0  0  0  0  0  0  0
   -3.0375    5.0292    0.0000 C   0  0  0  0  0  0  0  0  0  0  0  0
   -2.3250    5.4542    0.0000 C   0  0  0  0  0  0  0  0  0  0  0  0
   -1.6083    7.5125    0.0000 C   0  0  0  0  0  0  0  0  0  0  0  0
   -4.4708    4.2042    0.0000 O   0  0  0  0  0  0  0  0  0  0  0  0
   -2.3208    8.7542    0.0000 O   0  0  0  0  0  0  0  0  0  0  0  0
   -1.6208    6.6875    0.0000 C   0  0  0  0  0  0  0  0  0  0  0  0
   -3.0458    2.5583    0.0000 C   0  0  0  0  0  0  0  0  0  0  0  0
   -4.4708    2.5708    0.0000 C   0  0  0  0  0  0  0  0  0  0  0  0
   -3.7583    5.4542    0.0000 C   0  0  0  0  0  0  0  0  0  0  0  0
   -3.7625    1.3208    0.0000 C   0  0  0  0  0  0  0  0  0  0  0  0
   -3.7583    8.7542    0.0000 C   0  0  0  0  0  0  0  0  0  0  0  0
   -3.0458    1.7333    0.0000 C   0  0  0  0  0  0  0  0  0  0  0  0
   -4.4750    1.7375    0.0000 C   0  0  0  0  0  0  0  0  0  0  0  0
   -3.7708    0.4958    0.0000 Cl  0  0  0  0  0  0  0  0  0  0  0  0
   -4.4750    9.1667    0.0000 C   0  0  0  0  0  0  0  0  0  0  0  0
   -3.0458    9.1667    0.0000 C   0  0  0  0  0  0  0  0  0  0  0  0
   -3.0458    9.9917    0.0000 C   0  0  0  0  0  0  0  0  0  0  0  0
   -4.4833    9.9917    0.0000 C   0  0  0  0  0  0  0  0  0  0  0  0
   -3.7583   10.4125    0.0000 C   0  0  0  0  0  0  0  0  0  0  0  0
  2  1  1  0  0  0  0
  3  1  1  0  0  0  0
  4  6  1  0  0  0  0
  5  2  2  0  0  0  0
  6 10  1  0  0  0  0
  7  1  1  0  0  0  0
  8  2  1  0  0  0  0
  9  4  1  0  0  0  0
 10 18  1  0  0  0  0
 11  5  1  0  0  0  0
 12  3  1  0  0  0  0
 13  4  2  0  0  0  0
 14  3  2  0  0  0  0
 15 12  1  0  0  0  0
 16  9  1  0  0  0  0
 17  9  2  0  0  0  0
 18  8  2  0  0  0  0
 19 22  2  0  0  0  0
 20  7  1  0  0  0  0
 21 16  2  0  0  0  0
 22 17  1  0  0  0  0
 23 19  1  0  0  0  0
 24 20  1  0  0  0  0
 25 20  2  0  0  0  0
 26 25  1  0  0  0  0
 27 24  2  0  0  0  0
 28 26  2  0  0  0  0
  5 15  1  0  0  0  0
 10 11  2  0  0  0  0
 27 28  1  0  0  0  0
 21 19  1  0  0  0  0
M  END
> <IDNUMBER>
F2384-0143

> <Chemical_Name>
N-(1-benzyl-2-oxo-1,2,3,4-tetrahydroquinolin-6-yl)-4-chlorobenzamide

> <CAS>
955219-99-5

> <PriceCoeff>
1.00

> <MW>
390.86

> <Description>
solid

> <FSP3>
0.13

> <clogP>
4.55

> <TPSA>
49.41

> <Acceptor>
2

> <Donor>
1

> <RotBonds>
4

> <HAC>
28

> <Collection>
General

> <Reference_compound>
CHEMBL2286415

> <Similarity>
0.8110

$$$$
F2146-0781
  -ISIS-  06222304352D

 24 25  0  0  0  0  0  0  0  0999 V2000
   -0.8500    2.3208    0.0000 C   0  0  0  0  0  0  0  0  0  0  0  0
   -1.2000    1.2667    0.0000 N   0  0  3  0  0  0  0  0  0  0  0  0
   -1.7458    2.9667    0.0000 S   0  0  0  0  0  0  0  0  0  0  0  0
   -2.6375    2.3167    0.0000 C   0  0  0  0  0  0  0  0  0  0  0  0
   -2.2958    1.2667    0.0000 C   0  0  0  0  0  0  0  0  0  0  0  0
    0.2083    2.6583    0.0000 N   0  0  0  0  0  0  0  0  0  0  0  0
   -3.0292    0.4500    0.0000 C   0  0  0  0  0  0  0  0  0  0  0  0
   -3.7125    2.5500    0.0000 C   0  0  0  0  0  0  0  0  0  0  0  0
   -0.5417    0.3708    0.0000 C   0  0  0  0  0  0  0  0  0  0  0  0
   -4.1042    0.6792    0.0000 C   0  0  0  0  0  0  0  0  0  0  0  0
   -4.4458    1.7250    0.0000 C   0  0  0  0  0  0  0  0  0  0  0  0
   -5.5292    1.9542    0.0000 C   0  0  0  0  0  0  0  0  0  0  0  0
    0.5500    0.4875    0.0000 C   0  0  0  0  0  0  0  0  0  0  0  0
    3.4848    2.7337    0.0000 S   0  0  3  0  0  0  0  0  0  0  0  0
    3.0820    2.0239    0.0000 C   0  0  0  0  0  0  0  0  0  0  0  0
    2.7739    3.1550    0.0000 O   0  0  0  0  0  0  0  0  0  0  0  0
    3.8906    3.4548    0.0000 O   0  0  0  0  0  0  0  0  0  0  0  0
    4.2060    2.3279    0.0000 O   0  0  0  0  0  0  0  0  0  0  0  0
    3.4974    1.3063    0.0000 C   0  0  0  0  0  0  0  0  0  0  0  0
    2.2515    2.0197    0.0000 C   0  0  0  0  0  0  0  0  0  0  0  0
    3.0803    0.5881    0.0000 C   0  0  0  0  0  0  0  0  0  0  0  0
    1.8436    1.3022    0.0000 C   0  0  0  0  0  0  0  0  0  0  0  0
    2.2570    0.5882    0.0000 C   0  0  0  0  0  0  0  0  0  0  0  0
    1.8434   -0.1279    0.0000 C   0  0  0  0  0  0  0  0  0  0  0  0
 13  9  1  0  0  0  0
  4  5  2  0  0  0  0
 10 11  1  0  0  0  0
  2  1  1  0  0  0  0
  3  1  1  0  0  0  0
  4  3  1  0  0  0  0
  5  2  1  0  0  0  0
  6  1  2  0  0  0  0
  7  5  1  0  0  0  0
  8  4  1  0  0  0  0
  9  2  1  0  0  0  0
 10  7  2  0  0  0  0
 11  8  2  0  0  0  0
 12 11  1  0  0  0  0
 15 14  1  0  0  0  0
 16 14  2  0  0  0  0
 17 14  2  0  0  0  0
 18 14  1  0  0  0  0
 19 15  1  0  0  0  0
 20 15  2  0  0  0  0
 21 19  2  0  0  0  0
 22 20  1  0  0  0  0
 23 22  2  0  0  0  0
 24 23  1  0  0  0  0
 21 23  1  0  0  0  0
M  END
> <IDNUMBER>
F2146-0781

> <Chemical_Name>
3-ethyl-6-methyl-2,3-dihydro-1,3-benzothiazol-2-imine; 4-methylbenzene-1-sulfonic acid

> <CAS>
2034154-23-7

> <PriceCoeff>
1.00

> <MW>
192.28

> <Description>
solid

> <FSP3>
0.30

> <clogP>
4.27

> <TPSA>
52.39

> <Acceptor>
0

> <Donor>
1

> <RotBonds>
1

> <HAC>
13

> <Collection>
General

> <Reference_compound>
PRI5904

> <Similarity>
0.8060

$$$$
F3386-1384
  -ISIS-  06222321152D

 23 25  0  0  0  0  0  0  0  0999 V2000
    5.5375   -1.9167    0.0000 S   0  0  3  0  0  0  0  0  0  0  0  0
    6.3625   -1.9042    0.0000 N   0  0  0  0  0  0  0  0  0  0  0  0
    7.1875   -1.9042    0.0000 C   0  0  0  0  0  0  0  0  0  0  0  0
    4.7125   -1.9167    0.0000 C   0  0  0  0  0  0  0  0  0  0  0  0
    2.2292   -1.9500    0.0000 O   0  0  0  0  0  0  0  0  0  0  0  0
    1.8167   -1.2292    0.0000 C   0  0  0  0  0  0  0  0  0  0  0  0
    3.4792   -1.2167    0.0000 C   0  0  0  0  0  0  0  0  0  0  0  0
    3.0667   -1.9417    0.0000 C   0  0  0  0  0  0  0  0  0  0  0  0
    3.0625   -0.5042    0.0000 C   0  0  0  0  0  0  0  0  0  0  0  0
    7.5917   -2.6167    0.0000 C   0  0  0  0  0  0  0  0  0  0  0  0
    5.5292   -1.0917    0.0000 O   0  0  0  0  0  0  0  0  0  0  0  0
    5.5417   -2.7417    0.0000 O   0  0  0  0  0  0  0  0  0  0  0  0
    4.2917   -1.2167    0.0000 C   0  0  0  0  0  0  0  0  0  0  0  0
    2.2292   -0.5042    0.0000 C   0  0  0  0  0  0  0  0  0  0  0  0
    7.5917   -1.1917    0.0000 C   0  0  0  0  0  0  0  0  0  0  0  0
    4.3167   -2.6375    0.0000 C   0  0  0  0  0  0  0  0  0  0  0  0
    0.9917   -1.2292    0.0000 O   0  0  0  0  0  0  0  0  0  0  0  0
    3.4917   -2.6500    0.0000 C   0  0  0  0  0  0  0  0  0  0  0  0
    8.4125   -1.1875    0.0000 C   0  0  0  0  0  0  0  0  0  0  0  0
    8.4167   -2.6125    0.0000 C   0  0  0  0  0  0  0  0  0  0  0  0
    8.8292   -1.9000    0.0000 C   0  0  0  0  0  0  0  0  0  0  0  0
    8.8292   -3.3292    0.0000 Cl  0  0  0  0  0  0  0  0  0  0  0  0
    7.1750   -0.4792    0.0000 O   0  0  0  0  0  0  0  0  0  0  0  0
  2  1  1  0  0  0  0
  3  2  1  0  0  0  0
  4  1  1  0  0  0  0
  5  8  1  0  0  0  0
  6  5  1  0  0  0  0
  7 13  1  0  0  0  0
  8 18  1  0  0  0  0
  9  7  1  0  0  0  0
 10  3  2  0  0  0  0
 11  1  2  0  0  0  0
 12  1  2  0  0  0  0
 13  4  2  0  0  0  0
 14  9  2  0  0  0  0
 15  3  1  0  0  0  0
 16  4  1  0  0  0  0
 17  6  2  0  0  0  0
 18 16  2  0  0  0  0
 19 15  2  0  0  0  0
 20 10  1  0  0  0  0
 21 19  1  0  0  0  0
 22 20  1  0  0  0  0
 23 15  1  0  0  0  0
  8  7  2  0  0  0  0
  6 14  1  0  0  0  0
 21 20  2  0  0  0  0
M  END
> <IDNUMBER>
F3386-1384

> <Chemical_Name>
N-(5-chloro-2-hydroxyphenyl)-2-oxo-2H-chromene-6-sulfonamide

> <CAS>
1170655-93-2

> <PriceCoeff>
1.00

> <MW>
351.76

> <Description>
solid

> <FSP3>
0.00

> <clogP>
3.10

> <TPSA>
101.08

> <Acceptor>
6

> <Donor>
2

> <RotBonds>
3

> <HAC>
23

> <Collection>
General

$$$$
F3215-0278
  -ISIS-  06222321462D

 29 31  0  0  0  0  0  0  0  0999 V2000
    3.5042   -0.8542    0.0000 C   0  0  0  0  0  0  0  0  0  0  0  0
    2.4542   -1.6667    0.0000 C   0  0  0  0  0  0  0  0  0  0  0  0
    2.6917   -0.8792    0.0000 C   0  0  0  0  0  0  0  0  0  0  0  0
    2.1625   -3.2792    0.0000 N   0  3  0  0  0  0  0  0  0  0  0  0
    1.6792   -1.9417    0.0000 C   0  0  0  0  0  0  0  0  0  0  0  0
    3.9667   -0.1667    0.0000 C   0  0  0  0  0  0  0  0  0  0  0  0
    3.7792   -1.6375    0.0000 C   0  0  0  0  0  0  0  0  0  0  0  0
    1.5292   -2.7500    0.0000 C   0  0  0  0  0  0  0  0  0  0  0  0
    3.1292   -2.1375    0.0000 O   0  0  0  0  0  0  0  0  0  0  0  0
    4.7917   -0.2292    0.0000 N   0  0  0  0  0  0  0  0  0  0  0  0
    0.7542   -3.0250    0.0000 C   0  0  0  0  0  0  0  0  0  0  0  0
    1.0542   -1.4042    0.0000 C   0  0  0  0  0  0  0  0  0  0  0  0
    2.0042   -4.0917    0.0000 O   0  5  0  0  0  0  0  0  0  0  0  0
    7.4667    2.4333    0.0000 C   0  0  0  0  0  0  0  0  0  0  0  0
    2.9417   -3.0042    0.0000 O   0  0  0  0  0  0  0  0  0  0  0  0
    6.6500    2.4958    0.0000 N   0  0  0  0  0  0  0  0  0  0  0  0
    3.6125    0.5708    0.0000 O   0  0  0  0  0  0  0  0  0  0  0  0
    7.9375    3.1125    0.0000 O   0  0  0  0  0  0  0  0  0  0  0  0
    0.1292   -2.4875    0.0000 C   0  0  0  0  0  0  0  0  0  0  0  0
    5.2542    0.4500    0.0000 C   0  0  0  0  0  0  0  0  0  0  0  0
    6.1792    1.8125    0.0000 C   0  0  0  0  0  0  0  0  0  0  0  0
    0.2792   -1.6750    0.0000 C   0  0  0  0  0  0  0  0  0  0  0  0
   -0.5875   -2.8917    0.0000 Cl  0  0  0  0  0  0  0  0  0  0  0  0
    4.5750   -1.8667    0.0000 C   0  0  0  0  0  0  0  0  0  0  0  0
    4.8917    1.1958    0.0000 C   0  0  0  0  0  0  0  0  0  0  0  0
    6.0750    0.3875    0.0000 C   0  0  0  0  0  0  0  0  0  0  0  0
    6.5417    1.0708    0.0000 C   0  0  0  0  0  0  0  0  0  0  0  0
    5.3542    1.8708    0.0000 C   0  0  0  0  0  0  0  0  0  0  0  0
    7.8292    1.6875    0.0000 C   0  0  0  0  0  0  0  0  0  0  0  0
  2  3  2  0  0  0  0
  3  1  1  0  0  0  0
  4  8  1  0  0  0  0
  5  2  1  0  0  0  0
  6  1  1  0  0  0  0
  7  1  2  0  0  0  0
  8  5  1  0  0  0  0
  9  7  1  0  0  0  0
 10  6  1  0  0  0  0
 11  8  2  0  0  0  0
 12  5  2  0  0  0  0
 13  4  1  0  0  0  0
 14 16  1  0  0  0  0
 15  4  2  0  0  0  0
 16 21  1  0  0  0  0
 17  6  2  0  0  0  0
 18 14  2  0  0  0  0
 19 22  2  0  0  0  0
 20 10  1  0  0  0  0
 21 27  2  0  0  0  0
 22 12  1  0  0  0  0
 23 19  1  0  0  0  0
 24  7  1  0  0  0  0
 25 20  1  0  0  0  0
 26 20  2  0  0  0  0
 27 26  1  0  0  0  0
 28 25  2  0  0  0  0
 29 14  1  0  0  0  0
  2  9  1  0  0  0  0
 21 28  1  0  0  0  0
 11 19  1  0  0  0  0
M  CHG  2   4   1  13  -1
M  END
> <IDNUMBER>
F3215-0278

> <Chemical_Name>
5-(4-chloro-2-nitrophenyl)-N-(4-acetamidophenyl)-2-methylfuran-3-carboxamide

> <CAS>
876874-52-1

> <PriceCoeff>
1.00

> <MW>
413.81

> <Description>
solid

> <FSP3>
0.10

> <clogP>
3.66

> <TPSA>
114.48

> <Acceptor>
5

> <Donor>
2

> <RotBonds>
5

> <HAC>
29

> <Collection>
General

$$$$
F2147-0933
  -ISIS-  06222321462D

 18 20  0  0  0  0  0  0  0  0999 V2000
    1.8167   -3.9417    0.0000 C   0  0  3  0  0  0  0  0  0  0  0  0
    2.5708   -3.5417    0.0000 O   0  0  0  0  0  0  0  0  0  0  0  0
    2.2375   -3.2292    0.0000 O   0  0  0  0  0  0  0  0  0  0  0  0
    1.1500   -3.5417    0.0000 O   0  0  0  0  0  0  0  0  0  0  0  0
    1.8583   -2.3042    0.0000 C   0  0  3  0  0  0  0  0  0  0  0  0
    1.8167   -4.7667    0.0000 C   0  0  0  0  0  0  0  0  0  0  0  0
    2.5708   -2.7167    0.0000 C   0  0  0  0  0  0  0  0  0  0  0  0
    1.1500   -2.7167    0.0000 C   0  0  0  0  0  0  0  0  0  0  0  0
    1.4417   -3.0167    0.0000 C   0  0  0  0  0  0  0  0  0  0  0  0
    1.0958   -5.1708    0.0000 C   0  0  0  0  0  0  0  0  0  0  0  0
    2.5250   -5.1750    0.0000 C   0  0  0  0  0  0  0  0  0  0  0  0
    1.8042   -6.4125    0.0000 C   0  0  0  0  0  0  0  0  0  0  0  0
    2.5250   -6.0000    0.0000 C   0  0  0  0  0  0  0  0  0  0  0  0
    1.0917   -5.9958    0.0000 C   0  0  0  0  0  0  0  0  0  0  0  0
    1.8000   -7.2375    0.0000 I   0  0  0  0  0  0  0  0  0  0  0  0
    1.8542   -1.4792    0.0000 C   0  0  0  0  0  0  0  0  0  0  0  0
    2.5625   -1.0583    0.0000 C   0  0  0  0  0  0  0  0  0  0  0  0
    2.5542   -0.2333    0.0000 C   0  0  0  0  0  0  0  0  0  0  0  0
  2  1  1  0  0  0  0
  3  1  1  0  0  0  0
  4  1  1  0  0  0  0
  5  9  1  0  0  0  0
  6  1  1  0  0  0  0
  7  2  1  0  0  0  0
  8  4  1  0  0  0  0
  9  3  1  0  0  0  0
 10  6  2  0  0  0  0
 11  6  1  0  0  0  0
 12 13  1  0  0  0  0
 13 11  2  0  0  0  0
 14 10  1  0  0  0  0
 15 12  1  0  0  0  0
 16  5  1  0  0  0  0
 17 16  1  0  0  0  0
 18 17  1  0  0  0  0
  5  7  1  0  0  0  0
  5  8  1  0  0  0  0
 12 14  2  0  0  0  0
M  END
> <IDNUMBER>
F2147-0933

> <Chemical_Name>
1-(4-iodophenyl)-4-propyl-2,6,7-trioxabicyclo[2.2.2]octane

> <CAS>
108614-59-1

> <PriceCoeff>
1.00

> <MW>
360.19

> <Description>
solid

> <FSP3>
0.57

> <clogP>
4.15

> <TPSA>
27.69

> <Acceptor>
3

> <Donor>
0

> <RotBonds>
3

> <HAC>
18

> <Collection>
General

> <Reference_compound>
CHEMBL2288583

> <Similarity>
0.8210

$$$$
F3222-1467
  -ISIS-  06222321462D

 36 40  0  0  0  0  0  0  0  0999 V2000
    6.1000   -9.0292    0.0000 C   0  0  0  0  0  0  0  0  0  0  0  0
    4.7375   -8.5875    0.0000 N   0  0  3  0  0  0  0  0  0  0  0  0
    5.8375   -9.8250    0.0000 C   0  0  0  0  0  0  0  0  0  0  0  0
    5.5500   -8.4250    0.0000 C   0  0  0  0  0  0  0  0  0  0  0  0
    5.0292   -9.9875    0.0000 N   0  0  0  0  0  0  0  0  0  0  0  0
    4.4792   -9.3750    0.0000 C   0  0  0  0  0  0  0  0  0  0  0  0
    6.9375   -9.0375    0.0000 C   0  0  0  0  0  0  0  0  0  0  0  0
    7.1875   -9.8292    0.0000 C   0  0  0  0  0  0  0  0  0  0  0  0
    6.5042  -10.3125    0.0000 S   0  0  0  0  0  0  0  0  0  0  0  0
    8.5667   -9.3875    0.0000 N   0  0  3  0  0  0  0  0  0  0  0  0
    8.0000  -10.0125    0.0000 C   0  0  0  0  0  0  0  0  0  0  0  0
    9.3667   -9.5667    0.0000 C   0  0  0  0  0  0  0  0  0  0  0  0
    4.1917   -7.9750    0.0000 C   0  0  0  0  0  0  0  0  0  0  0  0
    3.6792   -9.5417    0.0000 S   0  0  0  0  0  0  0  0  0  0  0  0
    7.4875   -8.4250    0.0000 C   0  0  0  0  0  0  0  0  0  0  0  0
    3.3792   -8.1500    0.0000 C   0  0  0  0  0  0  0  0  0  0  0  0
    5.8125   -7.6292    0.0000 O   0  0  0  0  0  0  0  0  0  0  0  0
    3.9750  -10.9542    0.0000 C   0  0  0  0  0  0  0  0  0  0  0  0
    8.3125   -8.6000    0.0000 C   0  0  0  0  0  0  0  0  0  0  0  0
    3.7125  -11.7417    0.0000 N   0  0  0  0  0  0  0  0  0  0  0  0
    4.5542  -13.7625    0.0000 C   0  0  0  0  0  0  0  0  0  0  0  0
    2.7667   -7.5917    0.0000 O   0  0  0  0  0  0  0  0  0  0  0  0
    4.2750  -12.3625    0.0000 C   0  0  0  0  0  0  0  0  0  0  0  0
    4.0125  -13.1417    0.0000 C   0  0  0  0  0  0  0  0  0  0  0  0
    5.3625  -13.5917    0.0000 C   0  0  0  0  0  0  0  0  0  0  0  0
    9.6167  -10.3500    0.0000 O   0  0  0  0  0  0  0  0  0  0  0  0
    3.0417   -8.9042    0.0000 C   0  0  0  0  0  0  0  0  0  0  0  0
    2.0542   -8.0000    0.0000 C   0  0  0  0  0  0  0  0  0  0  0  0
    2.2292   -8.8167    0.0000 C   0  0  0  0  0  0  0  0  0  0  0  0
    4.7750  -10.7667    0.0000 O   0  0  0  0  0  0  0  0  0  0  0  0
    3.4167  -10.3292    0.0000 C   0  0  0  0  0  0  0  0  0  0  0  0
    5.6375  -12.8042    0.0000 C   0  0  0  0  0  0  0  0  0  0  0  0
    5.0875  -12.2000    0.0000 C   0  0  0  0  0  0  0  0  0  0  0  0
    9.9167   -8.9542    0.0000 C   0  0  0  0  0  0  0  0  0  0  0  0
    4.2792  -14.5500    0.0000 C   0  0  0  0  0  0  0  0  0  0  0  0
    5.9167  -14.2167    0.0000 C   0  0  0  0  0  0  0  0  0  0  0  0
  2  4  1  0  0  0  0
  3  1  2  0  0  0  0
  4  1  1  0  0  0  0
  5  3  1  0  0  0  0
  6  2  1  0  0  0  0
  7  1  1  0  0  0  0
  8  7  2  0  0  0  0
  9  3  1  0  0  0  0
 10 19  1  0  0  0  0
 11  8  1  0  0  0  0
 12 10  1  0  0  0  0
 13  2  1  0  0  0  0
 14  6  1  0  0  0  0
 15  7  1  0  0  0  0
 16 13  1  0  0  0  0
 17  4  2  0  0  0  0
 18 31  1  0  0  0  0
 19 15  1  0  0  0  0
 20 18  1  0  0  0  0
 21 24  2  0  0  0  0
 22 16  1  0  0  0  0
 23 20  1  0  0  0  0
 24 23  1  0  0  0  0
 25 32  2  0  0  0  0
 26 12  2  0  0  0  0
 27 16  2  0  0  0  0
 28 22  1  0  0  0  0
 29 27  1  0  0  0  0
 30 18  2  0  0  0  0
 31 14  1  0  0  0  0
 32 33  1  0  0  0  0
 33 23  2  0  0  0  0
 34 12  1  0  0  0  0
 35 21  1  0  0  0  0
 36 25  1  0  0  0  0
  9  8  1  0  0  0  0
 10 11  1  0  0  0  0
  6  5  2  0  0  0  0
 29 28  2  0  0  0  0
 25 21  1  0  0  0  0
M  END
> <IDNUMBER>
F3222-1467

> <Chemical_Name>
2-({11-acetyl-4-[(furan-2-yl)methyl]-3-oxo-8-thia-4,6,11-triazatricyclo[7.4.0.0^{2,7}]trideca-1(9),2(7),5-trien-5-yl}sulfanyl)-N-(3,4-dimethylphenyl)acetamide

> <CAS>
1189711-83-8

> <PriceCoeff>
1.00

> <MW>
522.64

> <Description>
solid

> <FSP3>
0.31

> <clogP>
2.50

> <TPSA>
148.76

> <Acceptor>
5

> <Donor>
1

> <RotBonds>
7

> <HAC>
36

> <Collection>
General

> <Reference_compound>
CHEMBL577016

> <Similarity>
0.8210

$$$$
F3023-0880
  -ISIS-  06222321152D

 27 29  0  0  0  0  0  0  0  0999 V2000
    4.1417   -6.4042    0.0000 N   0  0  3  0  0  0  0  0  0  0  0  0
    4.5625   -5.8292    0.0000 C   0  0  0  0  0  0  0  0  0  0  0  0
    4.5667   -6.9750    0.0000 C   0  0  0  0  0  0  0  0  0  0  0  0
    5.2417   -6.7542    0.0000 C   0  0  3  0  0  0  0  0  0  0  0  0
    5.2375   -6.0417    0.0000 C   0  0  0  0  0  0  0  0  0  0  0  0
    3.4375   -6.4042    0.0000 C   0  0  0  0  0  0  0  0  0  0  0  0
    2.0167   -5.1917    0.0000 C   0  0  3  0  0  0  0  0  0  0  0  0
    5.8125   -7.1667    0.0000 N   0  0  0  0  0  0  0  0  0  0  0  0
    2.3750   -5.8000    0.0000 C   0  0  0  0  0  0  0  0  0  0  0  0
    3.0792   -5.7917    0.0000 C   0  0  0  0  0  0  0  0  0  0  0  0
    4.3375   -5.1542    0.0000 O   0  0  0  0  0  0  0  0  0  0  0  0
    4.3542   -7.6500    0.0000 O   0  0  0  0  0  0  0  0  0  0  0  0
    1.6917   -4.6375    0.0000 F   0  0  0  0  0  0  0  0  0  0  0  0
    2.2750   -4.5000    0.0000 F   0  0  0  0  0  0  0  0  0  0  0  0
    1.2792   -5.0792    0.0000 F   0  0  0  0  0  0  0  0  0  0  0  0
    6.4625   -6.8792    0.0000 C   0  0  0  0  0  0  0  0  0  0  0  0
    7.7542   -6.3042    0.0000 C   0  0  0  0  0  0  0  0  0  0  0  0
    3.0917   -7.0250    0.0000 C   0  0  0  0  0  0  0  0  0  0  0  0
    6.5292   -6.1750    0.0000 C   0  0  0  0  0  0  0  0  0  0  0  0
    7.0292   -7.2917    0.0000 C   0  0  0  0  0  0  0  0  0  0  0  0
    7.6792   -7.0042    0.0000 C   0  0  0  0  0  0  0  0  0  0  0  0
    7.1750   -5.8875    0.0000 C   0  0  0  0  0  0  0  0  0  0  0  0
    8.4042   -6.0125    0.0000 O   0  0  0  0  0  0  0  0  0  0  0  0
    2.0250   -6.4167    0.0000 C   0  0  0  0  0  0  0  0  0  0  0  0
    2.3792   -7.0292    0.0000 C   0  0  0  0  0  0  0  0  0  0  0  0
    8.9792   -6.4292    0.0000 C   0  0  0  0  0  0  0  0  0  0  0  0
    9.6250   -6.1375    0.0000 C   0  0  0  0  0  0  0  0  0  0  0  0
  2  1  1  0  0  0  0
  3  1  1  0  0  0  0
  4  3  1  0  0  0  0
  5  2  1  0  0  0  0
  6  1  1  0  0  0  0
  7  9  1  0  0  0  0
  8  4  1  0  0  0  0
  9 10  1  0  0  0  0
 10  6  2  0  0  0  0
 11  2  2  0  0  0  0
 12  3  2  0  0  0  0
 13  7  1  0  0  0  0
 14  7  1  0  0  0  0
 15  7  1  0  0  0  0
 16  8  1  0  0  0  0
 17 21  2  0  0  0  0
 18  6  1  0  0  0  0
 19 16  1  0  0  0  0
 20 16  2  0  0  0  0
 21 20  1  0  0  0  0
 22 19  2  0  0  0  0
 23 17  1  0  0  0  0
 24 25  1  0  0  0  0
 25 18  2  0  0  0  0
 26 23  1  0  0  0  0
 27 26  1  0  0  0  0
  5  4  1  0  0  0  0
 24  9  2  0  0  0  0
 22 17  1  0  0  0  0
M  END
> <IDNUMBER>
F3023-0880

> <Chemical_Name>
3-[(4-ethoxyphenyl)amino]-1-[3-(trifluoromethyl)phenyl]pyrrolidine-2,5-dione

> <CAS>
1008247-60-6

> <PriceCoeff>
1.00

> <MW>
378.35

> <Description>
solid

> <FSP3>
0.26

> <clogP>
4.49

> <TPSA>
58.64

> <Acceptor>
4

> <Donor>
1

> <RotBonds>
5

> <HAC>
27

> <Collection>
General

$$$$
F3385-2858
  -ISIS-  06222321152D

 29 32  0  0  0  0  0  0  0  0999 V2000
    1.7542    0.9125    0.0000 C   0  0  0  0  0  0  0  0  0  0  0  0
    1.1875    0.5958    0.0000 C   0  0  0  0  0  0  0  0  0  0  0  0
    0.6250    0.9208    0.0000 C   0  0  0  0  0  0  0  0  0  0  0  0
    1.7542    1.5708    0.0000 C   0  0  0  0  0  0  0  0  0  0  0  0
    0.6250    1.5708    0.0000 C   0  0  0  0  0  0  0  0  0  0  0  0
    1.1875    1.8958    0.0000 O   0  0  0  0  0  0  0  0  0  0  0  0
    2.3042    0.5958    0.0000 C   0  0  0  0  0  0  0  0  0  0  0  0
    0.0625    0.5958    0.0000 C   0  0  0  0  0  0  0  0  0  0  0  0
    0.0625    1.8958    0.0000 C   0  0  0  0  0  0  0  0  0  0  0  0
   -2.1708    1.8958    0.0000 C   0  0  0  0  0  0  0  0  0  0  0  0
    1.1792   -0.0542    0.0000 O   0  0  0  0  0  0  0  0  0  0  0  0
    2.3042   -0.0542    0.0000 C   0  0  0  0  0  0  0  0  0  0  0  0
   -1.6125    1.5708    0.0000 C   0  0  0  0  0  0  0  0  0  0  0  0
   -2.1708    2.5333    0.0000 O   0  0  0  0  0  0  0  0  0  0  0  0
   -2.7333    1.5708    0.0000 C   0  0  0  0  0  0  0  0  0  0  0  0
   -0.4958    1.5625    0.0000 C   0  0  0  0  0  0  0  0  0  0  0  0
   -1.0583    1.8958    0.0000 O   0  0  0  0  0  0  0  0  0  0  0  0
   -0.4958    0.9208    0.0000 C   0  0  0  0  0  0  0  0  0  0  0  0
    1.7500   -0.3667    0.0000 O   0  0  0  0  0  0  0  0  0  0  0  0
    2.8667    0.9125    0.0000 C   0  0  0  0  0  0  0  0  0  0  0  0
    2.8667   -0.3792    0.0000 C   0  0  0  0  0  0  0  0  0  0  0  0
   -2.7208    0.9250    0.0000 C   0  0  0  0  0  0  0  0  0  0  0  0
   -3.2833    1.8833    0.0000 C   0  0  0  0  0  0  0  0  0  0  0  0
    1.7417   -1.0167    0.0000 C   0  0  0  0  0  0  0  0  0  0  0  0
    3.4250    0.5958    0.0000 C   0  0  0  0  0  0  0  0  0  0  0  0
   -3.2750    0.5958    0.0000 C   0  0  0  0  0  0  0  0  0  0  0  0
    3.4250   -0.0542    0.0000 C   0  0  0  0  0  0  0  0  0  0  0  0
   -3.8458    1.5583    0.0000 C   0  0  0  0  0  0  0  0  0  0  0  0
   -3.8375    0.9208    0.0000 C   0  0  0  0  0  0  0  0  0  0  0  0
  2  1  1  0  0  0  0
  3  2  1  0  0  0  0
  4  1  2  0  0  0  0
  5  6  1  0  0  0  0
  6  4  1  0  0  0  0
  7  1  1  0  0  0  0
  8  3  2  0  0  0  0
  9  5  2  0  0  0  0
 10 13  1  0  0  0  0
 11  2  2  0  0  0  0
 12  7  2  0  0  0  0
 13 17  1  0  0  0  0
 14 10  2  0  0  0  0
 15 10  1  0  0  0  0
 16  9  1  0  0  0  0
 17 16  1  0  0  0  0
 18  8  1  0  0  0  0
 19 12  1  0  0  0  0
 20  7  1  0  0  0  0
 21 12  1  0  0  0  0
 22 15  1  0  0  0  0
 23 15  2  0  0  0  0
 24 19  1  0  0  0  0
 25 20  2  0  0  0  0
 26 22  2  0  0  0  0
 27 25  1  0  0  0  0
 28 23  1  0  0  0  0
 29 28  2  0  0  0  0
  3  5  1  0  0  0  0
 27 21  2  0  0  0  0
 18 16  2  0  0  0  0
 29 26  1  0  0  0  0
M  END
> <IDNUMBER>
F3385-2858

> <Chemical_Name>
3-(2-methoxyphenyl)-7-(2-oxo-2-phenylethoxy)-4H-chromen-4-one

> <CAS>
316127-08-9

> <PriceCoeff>
1.00

> <MW>
386.40

> <Description>
solid

> <FSP3>
0.08

> <clogP>
3.42

> <TPSA>
61.83

> <Acceptor>
5

> <Donor>
0

> <RotBonds>
6

> <HAC>
29

> <Collection>
General

> <Reference_compound>
CHEMBL44

> <Similarity>
0.8320

$$$$
F1243-0007
  -ISIS-  06222321142D

 19 20  0  0  0  0  0  0  0  0999 V2000
    2.1500    0.4208    0.0000 C   0  0  0  0  0  0  0  0  0  0  0  0
    3.6125   -0.4292    0.0000 C   0  0  0  0  0  0  0  0  0  0  0  0
    2.1750   -0.4292    0.0000 O   0  0  0  0  0  0  0  0  0  0  0  0
    2.9042   -0.8417    0.0000 C   0  0  0  0  0  0  0  0  0  0  0  0
    4.3250   -0.8417    0.0000 C   0  0  0  0  0  0  0  0  0  0  0  0
    1.4375    0.8250    0.0000 N   0  0  3  0  0  0  0  0  0  0  0  0
    2.8792    0.8250    0.0000 O   0  0  0  0  0  0  0  0  0  0  0  0
    2.9042   -1.6625    0.0000 C   0  0  0  0  0  0  0  0  0  0  0  0
    4.3250   -1.6625    0.0000 C   0  0  0  0  0  0  0  0  0  0  0  0
    3.6125   -2.0792    0.0000 C   0  0  0  0  0  0  0  0  0  0  0  0
    3.6042    0.3958    0.0000 Cl  0  0  0  0  0  0  0  0  0  0  0  0
    5.0375   -0.4292    0.0000 C   0  0  0  0  0  0  0  0  0  0  0  0
    1.4375    1.6625    0.0000 C   0  0  0  0  0  0  0  0  0  0  0  0
    0.7167    0.4083    0.0000 C   0  0  0  0  0  0  0  0  0  0  0  0
    5.0375   -2.0792    0.0000 C   0  0  0  0  0  0  0  0  0  0  0  0
   -0.0125    0.8208    0.0000 C   0  0  0  0  0  0  0  0  0  0  0  0
    0.7042    2.0833    0.0000 C   0  0  0  0  0  0  0  0  0  0  0  0
    5.7667   -0.8417    0.0000 C   0  0  0  0  0  0  0  0  0  0  0  0
    5.7667   -1.6625    0.0000 C   0  0  0  0  0  0  0  0  0  0  0  0
  2  4  1  0  0  0  0
  3  1  1  0  0  0  0
  4  3  1  0  0  0  0
  5  2  2  0  0  0  0
  6  1  1  0  0  0  0
  7  1  2  0  0  0  0
  8  4  2  0  0  0  0
  9 10  2  0  0  0  0
 10  8  1  0  0  0  0
 11  2  1  0  0  0  0
 12  5  1  0  0  0  0
 13  6  1  0  0  0  0
 14  6  1  0  0  0  0
 15  9  1  0  0  0  0
 16 14  1  0  0  0  0
 17 13  1  0  0  0  0
 18 12  2  0  0  0  0
 19 15  2  0  0  0  0
  5  9  1  0  0  0  0
 18 19  1  0  0  0  0
M  END
> <IDNUMBER>
F1243-0007

> <Chemical_Name>
1-chloronaphthalen-2-yl N,N-diethylcarbamate

> <CAS>
526190-31-8

> <PriceCoeff>
1.00

> <MW>
277.75

> <Description>
solid

> <FSP3>
0.27

> <clogP>
4.09

> <TPSA>
29.54

> <Acceptor>
2

> <Donor>
0

> <RotBonds>
5

> <HAC>
19

> <Collection>
General

> <Reference_compound>
CHEMBL1319997

> <Similarity>
0.8150

$$$$
F1457-0027
  -ISIS-  06222321452D

 28 30  0  0  0  0  0  0  0  0999 V2000
    4.2417   -1.7750    0.0000 N   0  0  3  0  0  0  0  0  0  0  0  0
    2.2750   -2.5625    0.0000 C   0  0  0  0  0  0  0  0  0  0  0  0
    0.4667   -1.4167    0.0000 C   0  0  0  0  0  0  0  0  0  0  0  0
    4.7750    0.3083    0.0000 C   0  0  0  0  0  0  0  0  0  0  0  0
    1.7417   -4.6292    0.0000 S   0  0  0  0  0  0  0  0  0  0  0  0
    6.0542   -2.9292    0.0000 C   0  0  0  0  0  0  0  0  0  0  0  0
   -1.1833   -2.7917    0.0000 C   0  0  0  0  0  0  0  0  0  0  0  0
   -0.3958   -4.7750    0.0000 C   0  0  0  0  0  0  0  0  0  0  0  0
    7.7167   -1.5625    0.0000 C   0  0  3  0  0  0  0  0  0  0  0  0
    6.9292    0.4333    0.0000 C   0  0  0  0  0  0  0  0  0  0  0  0
   12.4167   -4.7000    0.0000 C   0  0  0  0  0  0  0  0  0  0  0  0
    0.3292    0.7083    0.0000 C   0  0  0  0  0  0  0  0  0  0  0  0
    9.7750   -2.1000    0.0000 S   0  0  0  0  0  0  0  0  0  0  0  0
   10.3542   -4.1667    0.0000 C   0  0  0  0  0  0  0  0  0  0  0  0
   13.9167   -3.1667    0.0000 C   0  0  0  0  0  0  0  0  0  0  0  0
    3.4042    1.9583    0.0000 O   0  0  0  0  0  0  0  0  0  0  0  0
    6.1750   -5.0667    0.0000 O   0  0  0  0  0  0  0  0  0  0  0  0
   -1.5875    1.6500    0.0000 O   0  0  0  0  0  0  0  0  0  0  0  0
   13.3292   -1.0917    0.0000 O   0  0  0  0  0  0  0  0  0  0  0  0
   16.0000   -3.6917    0.0000 O   0  0  0  0  0  0  0  0  0  0  0  0
    2.1125    1.8958    0.0000 O   0  0  0  0  0  0  0  0  0  0  0  0
   -3.2458   -2.2625    0.0000 C   0  0  0  0  0  0  0  0  0  0  0  0
   -1.5333   -6.5750    0.0000 C   0  0  0  0  0  0  0  0  0  0  0  0
   13.0000   -6.7542    0.0000 C   0  0  0  0  0  0  0  0  0  0  0  0
    8.8375   -5.6917    0.0000 C   0  0  0  0  0  0  0  0  0  0  0  0
    1.9667    4.0167    0.0000 C   0  0  0  0  0  0  0  0  0  0  0  0
   11.4917   -8.3000    0.0000 C   0  0  0  0  0  0  0  0  0  0  0  0
    9.4125   -7.7625    0.0000 C   0  0  0  0  0  0  0  0  0  0  0  0
  2  1  1  0  0  0  0
  3  2  2  0  0  0  0
  4  1  1  0  0  0  0
  5  2  1  0  0  0  0
  6  1  1  0  0  0  0
  7  3  1  0  0  0  0
  8  5  1  0  0  0  0
  9  6  1  0  0  0  0
 10  4  1  0  0  0  0
 11 14  1  0  0  0  0
 12  3  1  0  0  0  0
 13  9  1  0  0  0  0
 14 13  1  0  0  0  0
 15 11  1  0  0  0  0
 16  4  2  0  0  0  0
 17  6  2  0  0  0  0
 18 12  2  0  0  0  0
 19 15  2  0  0  0  0
 20 15  1  0  0  0  0
 21 12  1  0  0  0  0
 22  7  1  0  0  0  0
 23  8  1  0  0  0  0
 24 11  2  0  0  0  0
 25 14  2  0  0  0  0
 26 21  1  0  0  0  0
 27 28  2  0  0  0  0
 28 25  1  0  0  0  0
  9 10  1  0  0  0  0
  7  8  2  0  0  0  0
 24 27  1  0  0  0  0
M  END
> <IDNUMBER>
F1457-0027

> <Chemical_Name>
2-({1-[3-(methoxycarbonyl)-4,5-dimethylthiophen-2-yl]-2,5-dioxopyrrolidin-3-yl}sulfanyl)benzoic acid

> <CAS>
512838-49-2

> <PriceCoeff>
1.00

> <MW>
419.47

> <Description>
solid

> <FSP3>
0.26

> <clogP>
3.24

> <TPSA>
154.52

> <Acceptor>
6

> <Donor>
0

> <RotBonds>
6

> <HAC>
28

> <Collection>
General

$$$$
F2517-0155
  -ISIS-  06222321462D

 36 39  0  0  0  0  0  0  0  0999 V2000
   -5.2958    1.3333    0.0000 N   0  0  3  0  0  0  0  0  0  0  0  0
   -3.1583    5.0250    0.0000 C   0  0  0  0  0  0  0  0  0  0  0  0
   -3.8250    5.5042    0.0000 O   0  0  0  0  0  0  0  0  0  0  0  0
   -3.5750    6.2792    0.0000 C   0  0  0  0  0  0  0  0  0  0  0  0
   -2.7583    6.2792    0.0000 N   0  0  0  0  0  0  0  0  0  0  0  0
   -3.1583    4.2042    0.0000 N   0  0  0  0  0  0  0  0  0  0  0  0
   -2.4833    5.5042    0.0000 N   0  0  0  0  0  0  0  0  0  0  0  0
   -4.5833    1.7458    0.0000 C   0  0  0  0  0  0  0  0  0  0  0  0
   -3.8708    3.8000    0.0000 C   0  0  0  0  0  0  0  0  0  0  0  0
   -6.0167    1.7083    0.0000 C   0  0  0  0  0  0  0  0  0  0  0  0
   -5.4083    0.5208    0.0000 C   0  0  0  0  0  0  0  0  0  0  0  0
   -4.0583    6.9292    0.0000 C   0  0  0  0  0  0  0  0  0  0  0  0
   -5.0208    8.2542    0.0000 C   0  0  0  0  0  0  0  0  0  0  0  0
   -5.3458    7.5042    0.0000 C   0  0  0  0  0  0  0  0  0  0  0  0
   -4.2083    8.3500    0.0000 C   0  0  0  0  0  0  0  0  0  0  0  0
   -4.5833    2.5708    0.0000 C   0  0  0  0  0  0  0  0  0  0  0  0
   -3.7208    7.6875    0.0000 C   0  0  0  0  0  0  0  0  0  0  0  0
   -4.8583    6.8417    0.0000 C   0  0  0  0  0  0  0  0  0  0  0  0
   -3.8708    2.9833    0.0000 C   0  0  0  0  0  0  0  0  0  0  0  0
   -4.5833    4.2042    0.0000 O   0  0  0  0  0  0  0  0  0  0  0  0
   -6.5917    1.0958    0.0000 C   0  0  0  0  0  0  0  0  0  0  0  0
   -6.2125    0.3750    0.0000 C   0  0  0  0  0  0  0  0  0  0  0  0
   -6.1542    2.5208    0.0000 O   0  0  0  0  0  0  0  0  0  0  0  0
   -4.8333   -0.0542    0.0000 O   0  0  0  0  0  0  0  0  0  0  0  0
   -5.5000    8.9167    0.0000 O   0  0  0  0  0  0  0  0  0  0  0  0
   -3.8708    9.0917    0.0000 O   0  0  0  0  0  0  0  0  0  0  0  0
   -6.1542    7.4167    0.0000 O   0  0  0  0  0  0  0  0  0  0  0  0
   -3.8708    1.3333    0.0000 C   0  0  0  0  0  0  0  0  0  0  0  0
   -3.1500    2.5833    0.0000 C   0  0  0  0  0  0  0  0  0  0  0  0
   -3.1500    1.7500    0.0000 C   0  0  0  0  0  0  0  0  0  0  0  0
   -6.3042    8.8292    0.0000 C   0  0  0  0  0  0  0  0  0  0  0  0
   -6.4667    6.6667    0.0000 C   0  0  0  0  0  0  0  0  0  0  0  0
   -4.3583    9.7500    0.0000 C   0  0  0  0  0  0  0  0  0  0  0  0
   -3.8333   10.6542    0.0000 C   0  0  0  0  0  0  0  0  0  0  0  0
   -6.7917    9.4917    0.0000 C   0  0  0  0  0  0  0  0  0  0  0  0
   -7.1417    6.6250    0.0000 C   0  0  0  0  0  0  0  0  0  0  0  0
  2  6  1  0  0  0  0
  3  2  1  0  0  0  0
  4  3  1  0  0  0  0
  5  7  1  0  0  0  0
  6  9  1  0  0  0  0
  7  2  2  0  0  0  0
  8  1  1  0  0  0  0
  9 19  1  0  0  0  0
 10  1  1  0  0  0  0
 11  1  1  0  0  0  0
 12  4  1  0  0  0  0
 13 14  1  0  0  0  0
 14 18  2  0  0  0  0
 15 17  1  0  0  0  0
 16  8  1  0  0  0  0
 17 12  2  0  0  0  0
 18 12  1  0  0  0  0
 19 16  2  0  0  0  0
 20  9  2  0  0  0  0
 21 10  1  0  0  0  0
 22 11  1  0  0  0  0
 23 10  2  0  0  0  0
 24 11  2  0  0  0  0
 25 13  1  0  0  0  0
 26 15  1  0  0  0  0
 27 14  1  0  0  0  0
 28  8  2  0  0  0  0
 29 30  2  0  0  0  0
 30 28  1  0  0  0  0
 31 25  1  0  0  0  0
 32 27  1  0  0  0  0
 33 26  1  0  0  0  0
 34 33  1  0  0  0  0
 35 31  1  0  0  0  0
 36 32  1  0  0  0  0
 22 21  1  0  0  0  0
 19 29  1  0  0  0  0
  5  4  2  0  0  0  0
 15 13  2  0  0  0  0
M  END
> <IDNUMBER>
F2517-0155

> <Chemical_Name>
3-(2,5-dioxopyrrolidin-1-yl)-N-[5-(3,4,5-triethoxyphenyl)-1,3,4-oxadiazol-2-yl]benzamide

> <CAS>
891127-41-6

> <PriceCoeff>
1.00

> <MW>
494.50

> <Description>
solid

> <FSP3>
0.32

> <clogP>
1.66

> <TPSA>
133.09

> <Acceptor>
9

> <Donor>
1

> <RotBonds>
10

> <HAC>
36

> <Collection>
General

$$$$
F3385-0004
  -ISIS-  06222321462D

 19 21  0  0  0  0  0  0  0  0999 V2000
    5.2750   -0.4292    0.0000 C   0  0  0  0  0  0  0  0  0  0  0  0
    5.2750   -1.2667    0.0000 C   0  0  0  0  0  0  0  0  0  0  0  0
    3.8292   -1.2667    0.0000 C   0  0  0  0  0  0  0  0  0  0  0  0
    4.5500   -1.6792    0.0000 C   0  0  0  0  0  0  0  0  0  0  0  0
    4.5542   -0.0125    0.0000 O   0  0  0  0  0  0  0  0  0  0  0  0
    3.8375   -0.4292    0.0000 C   0  0  0  0  0  0  0  0  0  0  0  0
    5.9875   -0.0250    0.0000 C   0  0  0  0  0  0  0  0  0  0  0  0
    3.1167   -1.6750    0.0000 C   0  0  0  0  0  0  0  0  0  0  0  0
    4.5500   -2.5042    0.0000 O   0  0  0  0  0  0  0  0  0  0  0  0
    3.1167   -0.0167    0.0000 C   0  0  0  0  0  0  0  0  0  0  0  0
    6.7042   -0.4417    0.0000 C   0  0  0  0  0  0  0  0  0  0  0  0
    5.9917    0.7958    0.0000 C   0  0  0  0  0  0  0  0  0  0  0  0
    2.4042   -1.2625    0.0000 C   0  0  0  0  0  0  0  0  0  0  0  0
    2.4042   -0.4375    0.0000 C   0  0  0  0  0  0  0  0  0  0  0  0
    6.7042    1.2083    0.0000 C   0  0  0  0  0  0  0  0  0  0  0  0
    7.4167   -0.0292    0.0000 C   0  0  0  0  0  0  0  0  0  0  0  0
    7.4167    0.7958    0.0000 C   0  0  0  0  0  0  0  0  0  0  0  0
    1.6917   -1.6750    0.0000 C   0  0  0  0  0  0  0  0  0  0  0  0
    8.1375    1.2083    0.0000 C   0  0  0  0  0  0  0  0  0  0  0  0
  2  1  2  0  0  0  0
  3  6  1  0  0  0  0
  4  2  1  0  0  0  0
  5  1  1  0  0  0  0
  6  5  1  0  0  0  0
  7  1  1  0  0  0  0
  8  3  2  0  0  0  0
  9  4  2  0  0  0  0
 10  6  2  0  0  0  0
 11  7  2  0  0  0  0
 12  7  1  0  0  0  0
 13 14  2  0  0  0  0
 14 10  1  0  0  0  0
 15 12  2  0  0  0  0
 16 11  1  0  0  0  0
 17 15  1  0  0  0  0
 18 13  1  0  0  0  0
 19 17  1  0  0  0  0
  3  4  1  0  0  0  0
 16 17  2  0  0  0  0
 13  8  1  0  0  0  0
M  END
> <IDNUMBER>
F3385-0004

> <Chemical_Name>
6-methyl-2-(4-methylphenyl)-4H-chromen-4-one

> <CAS>
88952-74-3

> <PriceCoeff>
1.00

> <MW>
250.29

> <Description>
solid

> <FSP3>
0.12

> <clogP>
4.48

> <TPSA>
26.30

> <Acceptor>
2

> <Donor>
0

> <RotBonds>
1

> <HAC>
19

> <Collection>
General

> <Reference_compound>
CHEMBL275638

> <Similarity>
0.9520

$$$$
F3139-0613
  -ISIS-  06222321152D

 19 21  0  0  0  0  0  0  0  0999 V2000
    5.2750   -0.4292    0.0000 C   0  0  0  0  0  0  0  0  0  0  0  0
    5.2750   -1.2667    0.0000 C   0  0  0  0  0  0  0  0  0  0  0  0
    4.5542   -0.0125    0.0000 O   0  0  0  0  0  0  0  0  0  0  0  0
    3.8292   -1.2667    0.0000 C   0  0  0  0  0  0  0  0  0  0  0  0
    4.5500   -1.6792    0.0000 C   0  0  0  0  0  0  0  0  0  0  0  0
    3.8375   -0.4292    0.0000 C   0  0  0  0  0  0  0  0  0  0  0  0
    5.9875   -0.0250    0.0000 C   0  0  0  0  0  0  0  0  0  0  0  0
    3.1167   -1.6750    0.0000 C   0  0  0  0  0  0  0  0  0  0  0  0
    5.9917    0.7958    0.0000 C   0  0  0  0  0  0  0  0  0  0  0  0
    4.5500   -2.5042    0.0000 O   0  0  0  0  0  0  0  0  0  0  0  0
    3.1167   -0.0167    0.0000 C   0  0  0  0  0  0  0  0  0  0  0  0
    2.4042   -1.2625    0.0000 C   0  0  0  0  0  0  0  0  0  0  0  0
    5.2667    1.2083    0.0000 F   0  0  0  0  0  0  0  0  0  0  0  0
    2.4042   -0.4375    0.0000 C   0  0  0  0  0  0  0  0  0  0  0  0
    6.7042   -0.4417    0.0000 C   0  0  0  0  0  0  0  0  0  0  0  0
    6.7042    1.2083    0.0000 C   0  0  0  0  0  0  0  0  0  0  0  0
    1.6917   -1.6750    0.0000 C   0  0  0  0  0  0  0  0  0  0  0  0
    7.4167   -0.0292    0.0000 C   0  0  0  0  0  0  0  0  0  0  0  0
    7.4167    0.7958    0.0000 C   0  0  0  0  0  0  0  0  0  0  0  0
  2  1  2  0  0  0  0
  3  1  1  0  0  0  0
  4  6  1  0  0  0  0
  5  2  1  0  0  0  0
  6  3  1  0  0  0  0
  7  1  1  0  0  0  0
  8  4  2  0  0  0  0
  9  7  1  0  0  0  0
 10  5  2  0  0  0  0
 11  6  2  0  0  0  0
 12 14  2  0  0  0  0
 13  9  1  0  0  0  0
 14 11  1  0  0  0  0
 15  7  2  0  0  0  0
 16  9  2  0  0  0  0
 17 12  1  0  0  0  0
 18 15  1  0  0  0  0
 19 18  2  0  0  0  0
  4  5  1  0  0  0  0
 16 19  1  0  0  0  0
 12  8  1  0  0  0  0
M  END
> <IDNUMBER>
F3139-0613

> <Chemical_Name>
2-(2-fluorophenyl)-6-methyl-4H-chromen-4-one

> <CAS>
637747-66-1

> <PriceCoeff>
1.00

> <MW>
254.26

> <Description>
solid

> <FSP3>
0.06

> <clogP>
4.12

> <TPSA>
26.30

> <Acceptor>
2

> <Donor>
0

> <RotBonds>
1

> <HAC>
19

> <Collection>
General

> <Reference_compound>
CHEMBL275638

> <Similarity>
0.8280

$$$$
F3139-0697
  -ISIS-  06222321152D

 26 28  0  0  0  0  0  0  0  0999 V2000
    2.2542   -2.8000    0.0000 C   0  0  0  0  0  0  0  0  0  0  0  0
    1.5417   -3.2125    0.0000 C   0  0  0  0  0  0  0  0  0  0  0  0
    2.2542   -1.9750    0.0000 C   0  0  0  0  0  0  0  0  0  0  0  0
    0.8292   -2.8000    0.0000 C   0  0  0  0  0  0  0  0  0  0  0  0
    0.8292   -1.9750    0.0000 C   0  0  0  0  0  0  0  0  0  0  0  0
    1.5417   -1.5625    0.0000 O   0  0  0  0  0  0  0  0  0  0  0  0
    2.9750   -3.2125    0.0000 C   0  0  0  0  0  0  0  0  0  0  0  0
    0.1167   -1.5625    0.0000 C   0  0  0  0  0  0  0  0  0  0  0  0
    0.1167   -3.2125    0.0000 C   0  0  0  0  0  0  0  0  0  0  0  0
    1.5417   -4.0375    0.0000 O   0  0  0  0  0  0  0  0  0  0  0  0
    2.9750   -4.0417    0.0000 C   0  0  0  0  0  0  0  0  0  0  0  0
   -3.4625   -1.9542    0.0000 C   0  0  0  0  0  0  0  0  0  0  0  0
   -2.7458   -1.5500    0.0000 C   0  0  0  0  0  0  0  0  0  0  0  0
   -0.5958   -1.9750    0.0000 C   0  0  0  0  0  0  0  0  0  0  0  0
   -0.5958   -2.8000    0.0000 C   0  0  0  0  0  0  0  0  0  0  0  0
    2.9792   -1.5625    0.0000 C   0  0  0  0  0  0  0  0  0  0  0  0
   -2.0333   -1.9667    0.0000 C   0  0  0  0  0  0  0  0  0  0  0  0
    2.2542   -4.4417    0.0000 O   0  0  0  0  0  0  0  0  0  0  0  0
   -1.3208   -1.5625    0.0000 O   0  0  0  0  0  0  0  0  0  0  0  0
    3.6917   -2.8000    0.0000 C   0  0  0  0  0  0  0  0  0  0  0  0
   -3.4750   -2.7792    0.0000 C   0  0  0  0  0  0  0  0  0  0  0  0
   -4.1750   -1.5375    0.0000 C   0  0  0  0  0  0  0  0  0  0  0  0
    3.6875   -4.4542    0.0000 C   0  0  0  0  0  0  0  0  0  0  0  0
    2.2542   -5.2750    0.0000 C   0  0  0  0  0  0  0  0  0  0  0  0
    4.4042   -3.2125    0.0000 C   0  0  0  0  0  0  0  0  0  0  0  0
    4.4042   -4.0417    0.0000 C   0  0  0  0  0  0  0  0  0  0  0  0
  2  1  1  0  0  0  0
  3  1  2  0  0  0  0
  4  2  1  0  0  0  0
  5  6  1  0  0  0  0
  6  3  1  0  0  0  0
  7  1  1  0  0  0  0
  8  5  2  0  0  0  0
  9  4  2  0  0  0  0
 10  2  2  0  0  0  0
 11  7  2  0  0  0  0
 12 13  2  0  0  0  0
 13 17  1  0  0  0  0
 14  8  1  0  0  0  0
 15  9  1  0  0  0  0
 16  3  1  0  0  0  0
 17 19  1  0  0  0  0
 18 11  1  0  0  0  0
 19 14  1  0  0  0  0
 20  7  1  0  0  0  0
 21 12  1  0  0  0  0
 22 12  1  0  0  0  0
 23 11  1  0  0  0  0
 24 18  1  0  0  0  0
 25 20  2  0  0  0  0
 26 25  1  0  0  0  0
  5  4  1  0  0  0  0
 23 26  2  0  0  0  0
 14 15  2  0  0  0  0
M  END
> <IDNUMBER>
F3139-0697

> <Chemical_Name>
3-(2-methoxyphenyl)-2-methyl-7-[(3-methylbut-2-en-1-yl)oxy]-4H-chromen-4-one

> <CAS>
610765-11-2

> <PriceCoeff>
1.00

> <MW>
350.41

> <Description>
solid

> <FSP3>
0.23

> <clogP>
4.36

> <TPSA>
44.76

> <Acceptor>
4

> <Donor>
0

> <RotBonds>
5

> <HAC>
26

> <Collection>
General

> <Reference_compound>
CHEMBL458134

> <Similarity>
0.8100

$$$$
F0779-0619
  -ISIS-  06222321442D

 30 34  0  0  0  0  0  0  0  0999 V2000
   -1.8208    1.8958    0.0000 C   0  0  0  0  0  0  0  0  0  0  0  0
   -1.2125    1.4833    0.0000 C   0  0  0  0  0  0  0  0  0  0  0  0
    3.3500    0.5625    0.0000 N   0  0  3  0  0  0  0  0  0  0  0  0
   -0.5000    1.7208    0.0000 N   0  0  0  0  0  0  0  0  0  0  0  0
   -2.5458    1.6500    0.0000 N   0  0  0  0  0  0  0  0  0  0  0  0
   -0.0708    1.1333    0.0000 C   0  0  0  0  0  0  0  0  0  0  0  0
   -1.7833    2.5958    0.0000 S   0  0  0  0  0  0  0  0  0  0  0  0
    0.6542    1.1333    0.0000 N   0  0  0  0  0  0  0  0  0  0  0  0
    2.9500    1.1833    0.0000 C   0  0  0  0  0  0  0  0  0  0  0  0
    1.0542    1.8000    0.0000 C   0  0  0  0  0  0  0  0  0  0  0  0
    4.0792    0.4958    0.0000 C   0  0  0  0  0  0  0  0  0  0  0  0
    3.1000   -0.1292    0.0000 C   0  0  0  0  0  0  0  0  0  0  0  0
   -0.4500    0.5333    0.0000 S   0  0  0  0  0  0  0  0  0  0  0  0
   -1.1833    0.7458    0.0000 C   0  0  0  0  0  0  0  0  0  0  0  0
   -2.9500    2.2708    0.0000 C   0  0  0  0  0  0  0  0  0  0  0  0
   -2.4708    2.8458    0.0000 C   0  0  0  0  0  0  0  0  0  0  0  0
    2.1875    1.1708    0.0000 C   0  0  0  0  0  0  0  0  0  0  0  0
    1.7875    1.8125    0.0000 C   0  0  0  0  0  0  0  0  0  0  0  0
    0.6375    2.4625    0.0000 O   0  0  0  0  0  0  0  0  0  0  0  0
    4.2875   -0.2167    0.0000 C   0  0  0  0  0  0  0  0  0  0  0  0
    3.6500   -0.5875    0.0000 C   0  0  0  0  0  0  0  0  0  0  0  0
    4.6167    1.0833    0.0000 O   0  0  0  0  0  0  0  0  0  0  0  0
    2.3167   -0.3792    0.0000 O   0  0  0  0  0  0  0  0  0  0  0  0
    3.3167    1.8500    0.0000 C   0  0  0  0  0  0  0  0  0  0  0  0
    2.1500    2.4625    0.0000 C   0  0  0  0  0  0  0  0  0  0  0  0
    2.9042    2.5000    0.0000 C   0  0  0  0  0  0  0  0  0  0  0  0
   -3.7000    2.3833    0.0000 C   0  0  0  0  0  0  0  0  0  0  0  0
   -2.7333    3.5625    0.0000 C   0  0  0  0  0  0  0  0  0  0  0  0
   -3.4833    3.6958    0.0000 C   0  0  0  0  0  0  0  0  0  0  0  0
   -3.9958    3.0958    0.0000 C   0  0  0  0  0  0  0  0  0  0  0  0
  2  1  1  0  0  0  0
  3  9  1  0  0  0  0
  4  2  1  0  0  0  0
  5  1  2  0  0  0  0
  6  4  2  0  0  0  0
  7  1  1  0  0  0  0
  8  6  1  0  0  0  0
  9 17  1  0  0  0  0
 10  8  1  0  0  0  0
 11  3  1  0  0  0  0
 12  3  1  0  0  0  0
 13 14  1  0  0  0  0
 14  2  2  0  0  0  0
 15  5  1  0  0  0  0
 16  7  1  0  0  0  0
 17 18  2  0  0  0  0
 18 10  1  0  0  0  0
 19 10  2  0  0  0  0
 20 11  1  0  0  0  0
 21 12  1  0  0  0  0
 22 11  2  0  0  0  0
 23 12  2  0  0  0  0
 24 26  1  0  0  0  0
 25 18  1  0  0  0  0
 26 25  2  0  0  0  0
 27 15  1  0  0  0  0
 28 16  1  0  0  0  0
 29 28  2  0  0  0  0
 30 27  2  0  0  0  0
 16 15  2  0  0  0  0
 13  6  1  0  0  0  0
 29 30  1  0  0  0  0
  9 24  2  0  0  0  0
 20 21  1  0  0  0  0
M  END
> <IDNUMBER>
F0779-0619

> <Chemical_Name>
N-[4-(1,3-benzothiazol-2-yl)-1,3-thiazol-2-yl]-3-(2,5-dioxopyrrolidin-1-yl)benzamide

> <CAS>
477486-60-5

> <PriceCoeff>
1.00

> <MW>
434.49

> <Description>
solid

> <FSP3>
0.10

> <clogP>
2.36

> <TPSA>
148.74

> <Acceptor>
5

> <Donor>
1

> <RotBonds>
4

> <HAC>
30

> <Collection>
General

$$$$
F3139-0641
  -ISIS-  06222321462D

 20 22  0  0  0  0  0  0  0  0999 V2000
    5.2750   -0.4292    0.0000 C   0  0  0  0  0  0  0  0  0  0  0  0
    5.2750   -1.2667    0.0000 C   0  0  0  0  0  0  0  0  0  0  0  0
    4.5542   -0.0125    0.0000 O   0  0  0  0  0  0  0  0  0  0  0  0
    3.8292   -1.2667    0.0000 C   0  0  0  0  0  0  0  0  0  0  0  0
    4.5500   -1.6792    0.0000 C   0  0  0  0  0  0  0  0  0  0  0  0
    3.8375   -0.4292    0.0000 C   0  0  0  0  0  0  0  0  0  0  0  0
    5.9875   -0.0250    0.0000 C   0  0  0  0  0  0  0  0  0  0  0  0
    3.1167   -1.6750    0.0000 C   0  0  0  0  0  0  0  0  0  0  0  0
    6.7042   -0.4417    0.0000 C   0  0  0  0  0  0  0  0  0  0  0  0
    4.5500   -2.5042    0.0000 O   0  0  0  0  0  0  0  0  0  0  0  0
    3.1167   -0.0167    0.0000 C   0  0  0  0  0  0  0  0  0  0  0  0
    2.4042   -1.2625    0.0000 C   0  0  0  0  0  0  0  0  0  0  0  0
    6.6917   -1.2667    0.0000 Cl  0  0  0  0  0  0  0  0  0  0  0  0
    2.4042   -0.4375    0.0000 C   0  0  0  0  0  0  0  0  0  0  0  0
    5.9917    0.7958    0.0000 C   0  0  0  0  0  0  0  0  0  0  0  0
    1.6917   -1.6667    0.0000 O   0  0  0  0  0  0  0  0  0  0  0  0
    7.4167   -0.0292    0.0000 C   0  0  0  0  0  0  0  0  0  0  0  0
    1.6917   -2.4917    0.0000 C   0  0  0  0  0  0  0  0  0  0  0  0
    6.7042    1.2083    0.0000 C   0  0  0  0  0  0  0  0  0  0  0  0
    7.4167    0.7958    0.0000 C   0  0  0  0  0  0  0  0  0  0  0  0
  2  1  2  0  0  0  0
  3  1  1  0  0  0  0
  4  6  1  0  0  0  0
  5  2  1  0  0  0  0
  6  3  1  0  0  0  0
  7  1  1  0  0  0  0
  8  4  2  0  0  0  0
  9  7  2  0  0  0  0
 10  5  2  0  0  0  0
 11  6  2  0  0  0  0
 12 14  2  0  0  0  0
 13  9  1  0  0  0  0
 14 11  1  0  0  0  0
 15  7  1  0  0  0  0
 16 12  1  0  0  0  0
 17  9  1  0  0  0  0
 18 16  1  0  0  0  0
 19 15  2  0  0  0  0
 20 19  1  0  0  0  0
  4  5  1  0  0  0  0
 17 20  2  0  0  0  0
 12  8  1  0  0  0  0
M  END
> <IDNUMBER>
F3139-0641

> <Chemical_Name>
2-(2-chlorophenyl)-6-methoxy-4H-chromen-4-one

> <CAS>
332102-81-5

> <PriceCoeff>
1.00

> <MW>
286.71

> <Description>
solid

> <FSP3>
0.06

> <clogP>
4.05

> <TPSA>
35.53

> <Acceptor>
3

> <Donor>
0

> <RotBonds>
2

> <HAC>
20

> <Collection>
General

> <Reference_compound>
CHEMBL275638

> <Similarity>
0.8280

$$$$
F5854-2005
  -ISIS-  06222321152D

 26 28  0  0  0  0  0  0  0  0999 V2000
   -4.5708    3.8000    0.0000 C   0  0  0  0  0  0  0  0  0  0  0  0
   -3.8583    4.2125    0.0000 N   0  0  3  0  0  0  0  0  0  0  0  0
   -4.5833    2.9833    0.0000 N   0  0  0  0  0  0  0  0  0  0  0  0
   -1.7083    3.8000    0.0000 C   0  0  0  0  0  0  0  0  0  0  0  0
   -6.0042    1.3375    0.0000 C   0  0  0  0  0  0  0  0  0  0  0  0
   -0.9458    4.1042    0.0000 S   0  0  0  0  0  0  0  0  0  0  0  0
   -5.3000    1.7458    0.0000 C   0  0  0  0  0  0  0  0  0  0  0  0
   -5.2958    2.5833    0.0000 C   0  0  0  0  0  0  0  0  0  0  0  0
   -5.2958    4.2125    0.0000 O   0  0  0  0  0  0  0  0  0  0  0  0
   -3.8583    5.0292    0.0000 C   0  0  0  0  0  0  0  0  0  0  0  0
   -6.7167    1.7458    0.0000 C   0  0  0  0  0  0  0  0  0  0  0  0
   -3.1458    3.8083    0.0000 C   0  0  0  0  0  0  0  0  0  0  0  0
   -0.4083    3.4958    0.0000 C   0  0  0  0  0  0  0  0  0  0  0  0
   -2.4250    4.2042    0.0000 C   0  0  0  0  0  0  0  0  0  0  0  0
   -1.6250    2.9708    0.0000 C   0  0  0  0  0  0  0  0  0  0  0  0
   -5.9958    5.4500    0.0000 N   0  0  0  0  0  0  0  0  0  0  0  0
   -0.8250    2.7958    0.0000 C   0  0  0  0  0  0  0  0  0  0  0  0
   -4.5708    5.4417    0.0000 C   0  0  0  0  0  0  0  0  0  0  0  0
   -6.7167    2.5708    0.0000 C   0  0  0  0  0  0  0  0  0  0  0  0
   -6.0042    0.5083    0.0000 Cl  0  0  0  0  0  0  0  0  0  0  0  0
   -6.0042    2.9833    0.0000 C   0  0  0  0  0  0  0  0  0  0  0  0
   -7.4375    1.3250    0.0000 Cl  0  0  0  0  0  0  0  0  0  0  0  0
   -5.2833    5.0292    0.0000 C   0  0  0  0  0  0  0  0  0  0  0  0
   -5.9958    6.2792    0.0000 C   0  0  0  0  0  0  0  0  0  0  0  0
   -4.5625    6.2667    0.0000 C   0  0  0  0  0  0  0  0  0  0  0  0
   -5.2875    6.7042    0.0000 C   0  0  0  0  0  0  0  0  0  0  0  0
  2  1  1  0  0  0  0
  3  1  1  0  0  0  0
  4 14  1  0  0  0  0
  5  7  1  0  0  0  0
  6  4  1  0  0  0  0
  7  8  2  0  0  0  0
  8  3  1  0  0  0  0
  9  1  2  0  0  0  0
 10  2  1  0  0  0  0
 11 19  1  0  0  0  0
 12  2  1  0  0  0  0
 13  6  1  0  0  0  0
 14 12  1  0  0  0  0
 15  4  2  0  0  0  0
 16 23  1  0  0  0  0
 17 15  1  0  0  0  0
 18 10  1  0  0  0  0
 19 21  2  0  0  0  0
 20  5  1  0  0  0  0
 21  8  1  0  0  0  0
 22 11  1  0  0  0  0
 23 18  2  0  0  0  0
 24 26  1  0  0  0  0
 25 18  1  0  0  0  0
 26 25  2  0  0  0  0
  5 11  2  0  0  0  0
 17 13  2  0  0  0  0
 16 24  2  0  0  0  0
M  END
> <IDNUMBER>
F5854-2005

> <Chemical_Name>
3-(3,4-dichlorophenyl)-1-[(pyridin-3-yl)methyl]-1-[2-(thiophen-2-yl)ethyl]urea

> <CAS>
1396715-59-5

> <PriceCoeff>
1.00

> <MW>
406.33

> <Description>
solid

> <FSP3>
0.16

> <clogP>
4.47

> <TPSA>
73.47

> <Acceptor>
2

> <Donor>
2

> <RotBonds>
7

> <HAC>
26

> <Collection>
General

$$$$
F0196-0383
  -ISIS-  06222321452D

 26 29  0  0  0  0  0  0  0  0999 V2000
   -0.4833    1.1458    0.0000 C   0  0  0  0  0  0  0  0  0  0  0  0
   -1.1458    0.7625    0.0000 C   0  0  0  0  0  0  0  0  0  0  0  0
   -1.8000    1.1458    0.0000 C   0  0  0  0  0  0  0  0  0  0  0  0
   -0.4833    1.9000    0.0000 C   0  0  0  0  0  0  0  0  0  0  0  0
   -1.8000    1.9000    0.0000 C   0  0  0  0  0  0  0  0  0  0  0  0
   -1.1458    2.2833    0.0000 O   0  0  0  0  0  0  0  0  0  0  0  0
    0.3000    0.8458    0.0000 C   0  0  0  0  0  0  0  0  0  0  0  0
   -2.4458    0.7625    0.0000 C   0  0  0  0  0  0  0  0  0  0  0  0
   -2.4458    2.2833    0.0000 C   0  0  0  0  0  0  0  0  0  0  0  0
    0.8375    1.3333    0.0000 C   0  0  0  0  0  0  0  0  0  0  0  0
    1.5792    1.1500    0.0000 C   0  0  0  0  0  0  0  0  0  0  0  0
   -3.1000    1.9000    0.0000 C   0  0  0  0  0  0  0  0  0  0  0  0
   -3.1000    1.1458    0.0000 C   0  0  0  0  0  0  0  0  0  0  0  0
   -1.1458   -0.0000    0.0000 O   0  0  0  0  0  0  0  0  0  0  0  0
    1.8000    0.4125    0.0000 C   0  0  0  0  0  0  0  0  0  0  0  0
    2.1917    1.5625    0.0000 O   0  0  0  0  0  0  0  0  0  0  0  0
    2.5375    0.3958    0.0000 O   0  0  0  0  0  0  0  0  0  0  0  0
    0.5000    0.1000    0.0000 C   0  0  0  0  0  0  0  0  0  0  0  0
    2.8042    1.0958    0.0000 C   0  0  0  0  0  0  0  0  0  0  0  0
    1.2167   -0.0917    0.0000 C   0  0  0  0  0  0  0  0  0  0  0  0
    0.1667    2.2708    0.0000 C   0  0  0  0  0  0  0  0  0  0  0  0
   -3.7833    2.3000    0.0000 O   0  0  0  0  0  0  0  0  0  0  0  0
   -3.7500    0.7708    0.0000 C   0  0  0  0  0  0  0  0  0  0  0  0
   -4.4833    1.8958    0.0000 C   0  0  0  0  0  0  0  0  0  0  0  0
   -4.4083    1.1458    0.0000 C   0  0  0  0  0  0  0  0  0  0  0  0
   -5.0625    0.7708    0.0000 C   0  0  0  0  0  0  0  0  0  0  0  0
  2  1  1  0  0  0  0
  3  2  1  0  0  0  0
  4  1  2  0  0  0  0
  5  6  1  0  0  0  0
  6  4  1  0  0  0  0
  7  1  1  0  0  0  0
  8  3  1  0  0  0  0
  9  5  1  0  0  0  0
 10  7  2  0  0  0  0
 11 10  1  0  0  0  0
 12  9  2  0  0  0  0
 13  8  2  0  0  0  0
 14  2  2  0  0  0  0
 15 20  1  0  0  0  0
 16 11  1  0  0  0  0
 17 15  1  0  0  0  0
 18  7  1  0  0  0  0
 19 16  1  0  0  0  0
 20 18  2  0  0  0  0
 21  4  1  0  0  0  0
 22 12  1  0  0  0  0
 23 13  1  0  0  0  0
 24 22  1  0  0  0  0
 25 23  1  0  0  0  0
 26 25  1  0  0  0  0
  3  5  2  0  0  0  0
 15 11  2  0  0  0  0
 13 12  1  0  0  0  0
 19 17  1  0  0  0  0
M  END
> <IDNUMBER>
F0196-0383

> <Chemical_Name>
3-(2H-1,3-benzodioxol-5-yl)-7-methoxy-2-methyl-6-propyl-4H-chromen-4-one

> <CAS>
170241-52-8

> <PriceCoeff>
1.00

> <MW>
352.38

> <Description>
solid

> <FSP3>
0.29

> <clogP>
4.81

> <TPSA>
53.99

> <Acceptor>
5

> <Donor>
0

> <RotBonds>
4

> <HAC>
26

> <Collection>
General

> <Reference_compound>
CHEMBL519221

> <Similarity>
0.8090

$$$$
F3139-0629
  -ISIS-  06222321462D

 19 21  0  0  0  0  0  0  0  0999 V2000
    5.2750   -0.4292    0.0000 C   0  0  0  0  0  0  0  0  0  0  0  0
    5.2750   -1.2667    0.0000 C   0  0  0  0  0  0  0  0  0  0  0  0
    3.8292   -1.2667    0.0000 C   0  0  0  0  0  0  0  0  0  0  0  0
    4.5500   -1.6792    0.0000 C   0  0  0  0  0  0  0  0  0  0  0  0
    4.5542   -0.0125    0.0000 O   0  0  0  0  0  0  0  0  0  0  0  0
    3.8375   -0.4292    0.0000 C   0  0  0  0  0  0  0  0  0  0  0  0
    5.9875   -0.0250    0.0000 C   0  0  0  0  0  0  0  0  0  0  0  0
    3.1167   -1.6750    0.0000 C   0  0  0  0  0  0  0  0  0  0  0  0
    4.5500   -2.5042    0.0000 O   0  0  0  0  0  0  0  0  0  0  0  0
    3.1167   -0.0167    0.0000 C   0  0  0  0  0  0  0  0  0  0  0  0
    6.7042   -0.4417    0.0000 C   0  0  0  0  0  0  0  0  0  0  0  0
    5.9917    0.7958    0.0000 C   0  0  0  0  0  0  0  0  0  0  0  0
    2.4042   -1.2625    0.0000 C   0  0  0  0  0  0  0  0  0  0  0  0
    2.4042   -0.4375    0.0000 C   0  0  0  0  0  0  0  0  0  0  0  0
    6.7042    1.2083    0.0000 C   0  0  0  0  0  0  0  0  0  0  0  0
    7.4167   -0.0292    0.0000 C   0  0  0  0  0  0  0  0  0  0  0  0
    7.4167    0.7958    0.0000 C   0  0  0  0  0  0  0  0  0  0  0  0
    1.6917   -1.6750    0.0000 F   0  0  0  0  0  0  0  0  0  0  0  0
    8.1375    1.2083    0.0000 C   0  0  0  0  0  0  0  0  0  0  0  0
  2  1  2  0  0  0  0
  3  6  1  0  0  0  0
  4  2  1  0  0  0  0
  5  1  1  0  0  0  0
  6  5  1  0  0  0  0
  7  1  1  0  0  0  0
  8  3  2  0  0  0  0
  9  4  2  0  0  0  0
 10  6  2  0  0  0  0
 11  7  2  0  0  0  0
 12  7  1  0  0  0  0
 13 14  2  0  0  0  0
 14 10  1  0  0  0  0
 15 12  2  0  0  0  0
 16 11  1  0  0  0  0
 17 15  1  0  0  0  0
 18 13  1  0  0  0  0
 19 17  1  0  0  0  0
  3  4  1  0  0  0  0
 16 17  2  0  0  0  0
 13  8  1  0  0  0  0
M  END
> <IDNUMBER>
F3139-0629

> <Chemical_Name>
6-fluoro-2-(4-methylphenyl)-4H-chromen-4-one

> <CAS>
445224-49-7

> <PriceCoeff>
1.00

> <MW>
254.26

> <Description>
solid

> <FSP3>
0.06

> <clogP>
4.12

> <TPSA>
26.30

> <Acceptor>
2

> <Donor>
0

> <RotBonds>
1

> <HAC>
19

> <Collection>
General

> <Reference_compound>
CHEMBL275638

> <Similarity>
0.8930

$$$$
F0327-0373
  -ISIS-  06222321142D

 31 34  0  0  0  0  0  0  0  0999 V2000
    4.5500   -2.3375    0.0000 N   0  0  3  0  0  0  0  0  0  0  0  0
    0.6167    0.0833    0.0000 C   0  0  0  0  0  0  0  0  0  0  0  0
    1.1292    0.6000    0.0000 C   0  0  0  0  0  0  0  0  0  0  0  0
    5.1875   -1.9375    0.0000 C   0  0  0  0  0  0  0  0  0  0  0  0
    4.7292   -3.0375    0.0000 C   0  0  0  0  0  0  0  0  0  0  0  0
    0.8167   -0.6292    0.0000 C   0  0  0  0  0  0  0  0  0  0  0  0
    1.7292   -1.5167    0.0000 C   0  0  0  0  0  0  0  0  0  0  0  0
    1.5292   -0.8000    0.0000 N   0  0  0  0  0  0  0  0  0  0  0  0
    3.8500   -2.1375    0.0000 C   0  0  0  0  0  0  0  0  0  0  0  0
    2.4292   -1.7167    0.0000 C   0  0  0  0  0  0  0  0  0  0  0  0
   -0.1000    0.2625    0.0000 C   0  0  0  0  0  0  0  0  0  0  0  0
    1.8792    0.5208    0.0000 O   0  0  0  0  0  0  0  0  0  0  0  0
    1.2042   -2.0375    0.0000 O   0  0  0  0  0  0  0  0  0  0  0  0
    5.7500   -2.4167    0.0000 C   0  0  0  0  0  0  0  0  0  0  0  0
    5.4667   -3.1000    0.0000 C   0  0  0  0  0  0  0  0  0  0  0  0
    5.2500   -1.2000    0.0000 O   0  0  0  0  0  0  0  0  0  0  0  0
    4.2667   -3.6167    0.0000 O   0  0  0  0  0  0  0  0  0  0  0  0
    0.8542    1.2833    0.0000 C   0  0  0  0  0  0  0  0  0  0  0  0
    0.3167   -1.1542    0.0000 C   0  0  0  0  0  0  0  0  0  0  0  0
    3.6667   -1.4167    0.0000 C   0  0  0  0  0  0  0  0  0  0  0  0
    3.3292   -2.6375    0.0000 C   0  0  0  0  0  0  0  0  0  0  0  0
    2.6042   -2.4375    0.0000 C   0  0  0  0  0  0  0  0  0  0  0  0
    2.9667   -1.2167    0.0000 C   0  0  0  0  0  0  0  0  0  0  0  0
   -0.6125   -0.2792    0.0000 C   0  0  0  0  0  0  0  0  0  0  0  0
   -0.4000   -0.9792    0.0000 C   0  0  0  0  0  0  0  0  0  0  0  0
   -1.3333   -0.1167    0.0000 Cl  0  0  0  0  0  0  0  0  0  0  0  0
    1.3042    1.8708    0.0000 C   0  0  0  0  0  0  0  0  0  0  0  0
    0.1292    1.3708    0.0000 C   0  0  0  0  0  0  0  0  0  0  0  0
    1.0375    2.5500    0.0000 C   0  0  0  0  0  0  0  0  0  0  0  0
   -0.1500    2.0625    0.0000 C   0  0  0  0  0  0  0  0  0  0  0  0
    0.3042    2.6500    0.0000 C   0  0  0  0  0  0  0  0  0  0  0  0
  2  6  2  0  0  0  0
  3  2  1  0  0  0  0
  4  1  1  0  0  0  0
  5  1  1  0  0  0  0
  6  8  1  0  0  0  0
  7 10  1  0  0  0  0
  8  7  1  0  0  0  0
  9  1  1  0  0  0  0
 10 22  2  0  0  0  0
 11  2  1  0  0  0  0
 12  3  2  0  0  0  0
 13  7  2  0  0  0  0
 14  4  1  0  0  0  0
 15  5  1  0  0  0  0
 16  4  2  0  0  0  0
 17  5  2  0  0  0  0
 18  3  1  0  0  0  0
 19  6  1  0  0  0  0
 20  9  1  0  0  0  0
 21  9  2  0  0  0  0
 22 21  1  0  0  0  0
 23 20  2  0  0  0  0
 24 25  1  0  0  0  0
 25 19  2  0  0  0  0
 26 24  1  0  0  0  0
 27 18  2  0  0  0  0
 28 18  1  0  0  0  0
 29 27  1  0  0  0  0
 30 28  2  0  0  0  0
 31 30  1  0  0  0  0
 14 15  1  0  0  0  0
 10 23  1  0  0  0  0
 11 24  2  0  0  0  0
 29 31  2  0  0  0  0
M  END
> <IDNUMBER>
F0327-0373

> <Chemical_Name>
N-(2-benzoyl-4-chlorophenyl)-4-(2,5-dioxopyrrolidin-1-yl)benzamide

> <CAS>
329906-62-9

> <PriceCoeff>
1.00

> <MW>
432.86

> <Description>
solid

> <FSP3>
0.08

> <clogP>
3.55

> <TPSA>
83.55

> <Acceptor>
4

> <Donor>
1

> <RotBonds>
5

> <HAC>
31

> <Collection>
General

$$$$
F3385-0990
  -ISIS-  06222321152D

 22 24  0  0  0  0  0  0  0  0999 V2000
    1.4792   -0.5167    0.0000 C   0  0  0  0  0  0  0  0  0  0  0  0
    0.7667   -0.9292    0.0000 C   0  0  0  0  0  0  0  0  0  0  0  0
    0.0542   -0.5292    0.0000 C   0  0  0  0  0  0  0  0  0  0  0  0
    1.4750    0.3125    0.0000 C   0  0  0  0  0  0  0  0  0  0  0  0
    0.0417    0.3000    0.0000 C   0  0  0  0  0  0  0  0  0  0  0  0
    0.7542    0.7208    0.0000 O   0  0  0  0  0  0  0  0  0  0  0  0
   -0.6583   -0.9375    0.0000 C   0  0  0  0  0  0  0  0  0  0  0  0
   -0.6708    0.7083    0.0000 C   0  0  0  0  0  0  0  0  0  0  0  0
    2.1917   -0.9250    0.0000 C   0  0  0  0  0  0  0  0  0  0  0  0
    0.7750   -1.7542    0.0000 O   0  0  0  0  0  0  0  0  0  0  0  0
   -3.5250    0.6958    0.0000 C   0  0  0  0  0  0  0  0  0  0  0  0
   -1.3833    0.2958    0.0000 C   0  0  0  0  0  0  0  0  0  0  0  0
   -3.5333    1.5125    0.0000 C   0  0  0  0  0  0  0  0  0  0  0  0
   -2.0958    0.7000    0.0000 O   0  0  0  0  0  0  0  0  0  0  0  0
   -1.3708   -0.5292    0.0000 C   0  0  0  0  0  0  0  0  0  0  0  0
   -2.8083    0.2833    0.0000 C   0  0  0  0  0  0  0  0  0  0  0  0
   -4.2333    0.2708    0.0000 C   0  0  0  0  0  0  0  0  0  0  0  0
    2.1917   -1.7500    0.0000 C   0  0  0  0  0  0  0  0  0  0  0  0
    2.9042   -0.5042    0.0000 C   0  0  0  0  0  0  0  0  0  0  0  0
    2.9167   -2.1542    0.0000 C   0  0  0  0  0  0  0  0  0  0  0  0
    3.6167   -0.9125    0.0000 C   0  0  0  0  0  0  0  0  0  0  0  0
    3.6250   -1.7417    0.0000 C   0  0  0  0  0  0  0  0  0  0  0  0
  2  1  1  0  0  0  0
  3  2  1  0  0  0  0
  4  1  2  0  0  0  0
  5  6  1  0  0  0  0
  6  4  1  0  0  0  0
  7  3  1  0  0  0  0
  8  5  1  0  0  0  0
  9  1  1  0  0  0  0
 10  2  2  0  0  0  0
 11 16  1  0  0  0  0
 12  8  2  0  0  0  0
 13 11  2  0  0  0  0
 14 12  1  0  0  0  0
 15  7  2  0  0  0  0
 16 14  1  0  0  0  0
 17 11  1  0  0  0  0
 18  9  2  0  0  0  0
 19  9  1  0  0  0  0
 20 18  1  0  0  0  0
 21 19  2  0  0  0  0
 22 21  1  0  0  0  0
  3  5  2  0  0  0  0
 22 20  2  0  0  0  0
 15 12  1  0  0  0  0
M  END
> <IDNUMBER>
F3385-0990

> <Chemical_Name>
7-[(2-methylprop-2-en-1-yl)oxy]-3-phenyl-4H-chromen-4-one

> <CAS>
262282-08-6

> <PriceCoeff>
1.00

> <MW>
292.33

> <Description>
solid

> <FSP3>
0.11

> <clogP>
4.26

> <TPSA>
35.53

> <Acceptor>
3

> <Donor>
0

> <RotBonds>
4

> <HAC>
22

> <Collection>
General

> <Reference_compound>
CHEMBL44

> <Similarity>
0.8550

$$$$
F0196-0377
  -ISIS-  06222321442D

 27 30  0  0  0  0  0  0  0  0999 V2000
    1.0000   -0.6875    0.0000 C   0  0  0  0  0  0  0  0  0  0  0  0
   -0.2833   -0.6875    0.0000 C   0  0  0  0  0  0  0  0  0  0  0  0
    0.3542   -1.0500    0.0000 C   0  0  0  0  0  0  0  0  0  0  0  0
    1.0000    0.0333    0.0000 C   0  0  0  0  0  0  0  0  0  0  0  0
   -0.2833    0.0333    0.0000 C   0  0  0  0  0  0  0  0  0  0  0  0
    1.6167   -1.0500    0.0000 C   0  0  0  0  0  0  0  0  0  0  0  0
    0.3542    0.4125    0.0000 O   0  0  0  0  0  0  0  0  0  0  0  0
   -0.9208   -1.0500    0.0000 C   0  0  0  0  0  0  0  0  0  0  0  0
   -0.9208    0.4125    0.0000 C   0  0  0  0  0  0  0  0  0  0  0  0
    2.9000   -1.0500    0.0000 C   0  0  0  0  0  0  0  0  0  0  0  0
   -1.5625    0.0333    0.0000 C   0  0  0  0  0  0  0  0  0  0  0  0
    2.2542   -0.6875    0.0000 C   0  0  0  0  0  0  0  0  0  0  0  0
   -1.5625   -0.6875    0.0000 C   0  0  0  0  0  0  0  0  0  0  0  0
    2.9000   -1.7667    0.0000 C   0  0  0  0  0  0  0  0  0  0  0  0
    0.3542   -1.7875    0.0000 O   0  0  0  0  0  0  0  0  0  0  0  0
    3.4542   -0.6042    0.0000 O   0  0  0  0  0  0  0  0  0  0  0  0
    1.6167   -1.7667    0.0000 C   0  0  0  0  0  0  0  0  0  0  0  0
    3.4542   -2.2042    0.0000 O   0  0  0  0  0  0  0  0  0  0  0  0
    2.2542   -2.1292    0.0000 C   0  0  0  0  0  0  0  0  0  0  0  0
   -2.2208    0.3958    0.0000 O   0  0  0  0  0  0  0  0  0  0  0  0
    4.4792   -1.4042    0.0000 C   0  0  0  0  0  0  0  0  0  0  0  0
    4.1542   -0.7667    0.0000 C   0  0  0  0  0  0  0  0  0  0  0  0
    4.1542   -2.0500    0.0000 C   0  0  0  0  0  0  0  0  0  0  0  0
   -2.2208   -1.0292    0.0000 C   0  0  0  0  0  0  0  0  0  0  0  0
   -2.8458   -0.0292    0.0000 C   0  0  0  0  0  0  0  0  0  0  0  0
   -2.8458   -0.6292    0.0000 C   0  0  0  0  0  0  0  0  0  0  0  0
   -3.5000   -0.9667    0.0000 C   0  0  0  0  0  0  0  0  0  0  0  0
  2  3  1  0  0  0  0
  3  1  1  0  0  0  0
  4  1  2  0  0  0  0
  5  7  1  0  0  0  0
  6  1  1  0  0  0  0
  7  4  1  0  0  0  0
  8  2  1  0  0  0  0
  9  5  1  0  0  0  0
 10 12  1  0  0  0  0
 11  9  2  0  0  0  0
 12  6  2  0  0  0  0
 13  8  2  0  0  0  0
 14 19  1  0  0  0  0
 15  3  2  0  0  0  0
 16 10  1  0  0  0  0
 17  6  1  0  0  0  0
 18 14  1  0  0  0  0
 19 17  2  0  0  0  0
 20 11  1  0  0  0  0
 21 22  1  0  0  0  0
 22 16  1  0  0  0  0
 23 18  1  0  0  0  0
 24 13  1  0  0  0  0
 25 20  1  0  0  0  0
 26 24  1  0  0  0  0
 27 26  1  0  0  0  0
  5  2  2  0  0  0  0
 14 10  2  0  0  0  0
 11 13  1  0  0  0  0
 21 23  1  0  0  0  0
M  END
> <IDNUMBER>
F0196-0377

> <Chemical_Name>
3-(3,4-dihydro-2H-1,5-benzodioxepin-7-yl)-7-methoxy-6-propyl-4H-chromen-4-one

> <CAS>
170511-40-7

> <PriceCoeff>
1.00

> <MW>
366.41

> <Description>
solid

> <FSP3>
0.32

> <clogP>
4.73

> <TPSA>
53.99

> <Acceptor>
5

> <Donor>
0

> <RotBonds>
4

> <HAC>
27

> <Collection>
General

> <Reference_compound>
CHEMBL455048

> <Similarity>
0.8610

$$$$
F1420-0613
  -ISIS-  06222321142D

 31 34  0  0  0  0  0  0  0  0999 V2000
   -1.0458   -6.5292    0.0000 S   0  0  3  0  0  0  0  0  0  0  0  0
    2.3750   -5.7042    0.0000 C   0  0  0  0  0  0  0  0  0  0  0  0
    6.9125   -6.4167    0.0000 N   0  0  3  0  0  0  0  0  0  0  0  0
    1.8875   -5.0375    0.0000 N   0  0  0  0  0  0  0  0  0  0  0  0
    3.2000   -5.7042    0.0000 N   0  0  0  0  0  0  0  0  0  0  0  0
    1.8875   -6.3792    0.0000 S   0  0  0  0  0  0  0  0  0  0  0  0
   -0.3333   -6.1167    0.0000 C   0  0  0  0  0  0  0  0  0  0  0  0
    3.6167   -6.4167    0.0000 C   0  0  0  0  0  0  0  0  0  0  0  0
    1.1000   -6.1250    0.0000 C   0  0  0  0  0  0  0  0  0  0  0  0
    7.3917   -7.0875    0.0000 C   0  0  0  0  0  0  0  0  0  0  0  0
    7.3917   -5.7500    0.0000 C   0  0  0  0  0  0  0  0  0  0  0  0
    1.1000   -5.2917    0.0000 C   0  0  0  0  0  0  0  0  0  0  0  0
    0.3792   -6.5292    0.0000 C   0  0  0  0  0  0  0  0  0  0  0  0
   -1.8458   -6.7417    0.0000 N   0  0  3  0  0  0  0  0  0  0  0  0
    6.0875   -6.4167    0.0000 C   0  0  0  0  0  0  0  0  0  0  0  0
   -1.4458   -5.5917    0.0000 O   0  0  0  0  0  0  0  0  0  0  0  0
   -0.7333   -7.4667    0.0000 O   0  0  0  0  0  0  0  0  0  0  0  0
    4.4417   -6.4167    0.0000 C   0  0  0  0  0  0  0  0  0  0  0  0
    3.2000   -7.1375    0.0000 O   0  0  0  0  0  0  0  0  0  0  0  0
    8.1792   -6.8292    0.0000 C   0  0  0  0  0  0  0  0  0  0  0  0
    8.1792   -6.0042    0.0000 C   0  0  0  0  0  0  0  0  0  0  0  0
    7.1292   -4.9667    0.0000 O   0  0  0  0  0  0  0  0  0  0  0  0
    7.1375   -7.8667    0.0000 O   0  0  0  0  0  0  0  0  0  0  0  0
   -0.3333   -5.2917    0.0000 C   0  0  0  0  0  0  0  0  0  0  0  0
    0.3792   -4.8792    0.0000 C   0  0  0  0  0  0  0  0  0  0  0  0
    5.6667   -5.7042    0.0000 C   0  0  0  0  0  0  0  0  0  0  0  0
    5.6750   -7.1375    0.0000 C   0  0  0  0  0  0  0  0  0  0  0  0
    4.8500   -5.7042    0.0000 C   0  0  0  0  0  0  0  0  0  0  0  0
    4.8500   -7.1375    0.0000 C   0  0  0  0  0  0  0  0  0  0  0  0
   -2.0625   -7.5375    0.0000 C   0  0  0  0  0  0  0  0  0  0  0  0
   -2.4333   -6.1542    0.0000 C   0  0  0  0  0  0  0  0  0  0  0  0
  2  6  1  0  0  0  0
  3 15  1  0  0  0  0
  4 12  1  0  0  0  0
  5  2  1  0  0  0  0
  6  9  1  0  0  0  0
  7  1  1  0  0  0  0
  8  5  1  0  0  0  0
  9 13  2  0  0  0  0
 10  3  1  0  0  0  0
 11  3  1  0  0  0  0
 12 25  2  0  0  0  0
 13  7  1  0  0  0  0
 14  1  1  0  0  0  0
 15 27  2  0  0  0  0
 16  1  2  0  0  0  0
 17  1  2  0  0  0  0
 18  8  1  0  0  0  0
 19  8  2  0  0  0  0
 20 10  1  0  0  0  0
 21 11  1  0  0  0  0
 22 11  2  0  0  0  0
 23 10  2  0  0  0  0
 24  7  2  0  0  0  0
 25 24  1  0  0  0  0
 26 28  2  0  0  0  0
 27 29  1  0  0  0  0
 28 18  1  0  0  0  0
 29 18  2  0  0  0  0
 30 14  1  0  0  0  0
 31 14  1  0  0  0  0
 12  9  1  0  0  0  0
  2  4  2  0  0  0  0
 26 15  1  0  0  0  0
 21 20  1  0  0  0  0
M  END
> <IDNUMBER>
F1420-0613

> <Chemical_Name>
N-[6-(dimethylsulfamoyl)-1,3-benzothiazol-2-yl]-4-(2,5-dioxopyrrolidin-1-yl)benzamide

> <CAS>
923194-91-6

> <PriceCoeff>
1.00

> <MW>
458.51

> <Description>
solid

> <FSP3>
0.20

> <clogP>
0.89

> <TPSA>
153.37

> <Acceptor>
6

> <Donor>
1

> <RotBonds>
5

> <HAC>
31

> <Collection>
General

$$$$
F5833-7585
  -ISIS-  06222321152D

 30 33  0  0  0  0  0  0  0  0999 V2000
   -3.8625    7.5292    0.0000 N   0  0  3  0  0  0  0  0  0  0  0  0
   -4.5833    7.9417    0.0000 C   0  0  0  0  0  0  0  0  0  0  0  0
   -3.8583    6.7000    0.0000 C   0  0  0  0  0  0  0  0  0  0  0  0
   -4.5833    3.8000    0.0000 C   0  0  0  0  0  0  0  0  0  0  0  0
   -3.1458    6.2792    0.0000 C   0  0  0  0  0  0  0  0  0  0  0  0
   -3.8625    4.2125    0.0000 N   0  0  0  0  0  0  0  0  0  0  0  0
   -4.5833    6.2792    0.0000 C   0  0  0  0  0  0  0  0  0  0  0  0
   -4.5833    2.9583    0.0000 C   0  0  0  0  0  0  0  0  0  0  0  0
   -5.3000    7.5292    0.0000 O   0  0  0  0  0  0  0  0  0  0  0  0
   -3.8625    5.0292    0.0000 C   0  0  0  0  0  0  0  0  0  0  0  0
   -3.1458    5.4542    0.0000 C   0  0  0  0  0  0  0  0  0  0  0  0
   -4.5833    8.7667    0.0000 C   0  0  0  0  0  0  0  0  0  0  0  0
   -5.2833    4.2000    0.0000 O   0  0  0  0  0  0  0  0  0  0  0  0
   -5.2833    2.5458    0.0000 C   0  0  0  0  0  0  0  0  0  0  0  0
   -3.8583    2.5375    0.0000 C   0  0  0  0  0  0  0  0  0  0  0  0
   -3.1375    7.9292    0.0000 C   0  0  0  0  0  0  0  0  0  0  0  0
   -4.5833    5.4542    0.0000 C   0  0  0  0  0  0  0  0  0  0  0  0
   -3.8583    1.7125    0.0000 C   0  0  0  0  0  0  0  0  0  0  0  0
   -5.2875    1.7333    0.0000 C   0  0  0  0  0  0  0  0  0  0  0  0
   -4.5958    1.3000    0.0000 C   0  0  0  0  0  0  0  0  0  0  0  0
   -2.4250    6.6917    0.0000 C   0  0  0  0  0  0  0  0  0  0  0  0
   -2.4208    7.5167    0.0000 C   0  0  0  0  0  0  0  0  0  0  0  0
   -3.8583    9.1792    0.0000 C   0  0  0  0  0  0  0  0  0  0  0  0
   -5.2958    9.1667    0.0000 C   0  0  0  0  0  0  0  0  0  0  0  0
   -4.5958    0.4708    0.0000 C   0  0  0  0  0  0  0  0  0  0  0  0
   -5.3333    0.0625    0.0000 C   0  0  0  0  0  0  0  0  0  0  0  0
   -5.3333   -0.7667    0.0000 C   0  0  0  0  0  0  0  0  0  0  0  0
   -3.8583   10.0042    0.0000 C   0  0  0  0  0  0  0  0  0  0  0  0
   -5.3000   10.0042    0.0000 C   0  0  0  0  0  0  0  0  0  0  0  0
   -4.5708   10.4250    0.0000 C   0  0  0  0  0  0  0  0  0  0  0  0
  2  1  1  0  0  0  0
  3  1  1  0  0  0  0
  4  6  1  0  0  0  0
  5  3  2  0  0  0  0
  6 10  1  0  0  0  0
  7  3  1  0  0  0  0
  8  4  1  0  0  0  0
  9  2  2  0  0  0  0
 10 17  1  0  0  0  0
 11  5  1  0  0  0  0
 12  2  1  0  0  0  0
 13  4  2  0  0  0  0
 14  8  2  0  0  0  0
 15  8  1  0  0  0  0
 16  1  1  0  0  0  0
 17  7  2  0  0  0  0
 18 15  2  0  0  0  0
 19 14  1  0  0  0  0
 20 18  1  0  0  0  0
 21 22  1  0  0  0  0
 22 16  1  0  0  0  0
 23 12  2  0  0  0  0
 24 12  1  0  0  0  0
 25 20  1  0  0  0  0
 26 25  1  0  0  0  0
 27 26  1  0  0  0  0
 28 23  1  0  0  0  0
 29 24  2  0  0  0  0
 30 29  1  0  0  0  0
 21  5  1  0  0  0  0
 11 10  2  0  0  0  0
 30 28  2  0  0  0  0
 20 19  2  0  0  0  0
M  END
> <IDNUMBER>
F5833-7585

> <Chemical_Name>
N-(1-benzoyl-1,2,3,4-tetrahydroquinolin-6-yl)-4-propylbenzamide

> <CAS>
1210710-84-1

> <PriceCoeff>
1.00

> <MW>
398.50

> <Description>
solid

> <FSP3>
0.23

> <clogP>
5.11

> <TPSA>
49.41

> <Acceptor>
2

> <Donor>
1

> <RotBonds>
6

> <HAC>
30

> <Collection>
General

> <Reference_compound>
CHEMBL2286417

> <Similarity>
0.8020

$$$$
F1443-0922
  -ISIS-  06222321442D

 28 31  0  0  0  0  0  0  0  0999 V2000
    8.1667   -0.7417    0.0000 C   0  0  3  0  0  0  0  0  0  0  0  0
    2.2750   -4.0875    0.0000 C   0  0  3  0  0  0  0  0  0  0  0  0
    2.2542   -6.3542    0.0000 C   0  0  0  0  0  0  0  0  0  0  0  0
    8.1292   -3.0042    0.0000 C   0  0  3  0  0  0  0  0  0  0  0  0
    4.2292   -2.9625    0.0000 C   0  0  3  0  0  0  0  0  0  0  0  0
    6.1667   -4.1125    0.0000 C   0  0  3  0  0  0  0  0  0  0  0  0
   12.1042   -0.8125    0.0000 C   0  0  3  0  0  0  0  0  0  0  0  0
    4.2167   -7.4667    0.0000 C   0  0  0  0  0  0  0  0  0  0  0  0
    6.2125    0.4083    0.0000 C   0  0  0  0  0  0  0  0  0  0  0  0
    6.1667   -6.3542    0.0000 C   0  0  0  0  0  0  0  0  0  0  0  0
    4.2500   -0.6917    0.0000 C   0  0  0  0  0  0  0  0  0  0  0  0
   10.0792   -4.1792    0.0000 C   0  0  0  0  0  0  0  0  0  0  0  0
    0.3250   -2.9375    0.0000 C   0  0  0  0  0  0  0  0  0  0  0  0
   12.0667   -3.0792    0.0000 C   0  0  0  0  0  0  0  0  0  0  0  0
    0.3250   -7.4667    0.0000 C   0  0  0  0  0  0  0  0  0  0  0  0
   14.0542    0.3375    0.0000 C   0  0  3  0  0  0  0  0  0  0  0  0
    8.1667    1.5250    0.0000 C   0  0  0  0  0  0  0  0  0  0  0  0
   -1.6083   -4.0875    0.0000 C   0  0  0  0  0  0  0  0  0  0  0  0
   -1.6083   -6.3542    0.0000 C   0  0  3  0  0  0  0  0  0  0  0  0
    2.2542   -1.8167    0.0000 C   0  0  0  0  0  0  0  0  0  0  0  0
   -3.5833   -7.4667    0.0000 O   0  0  0  0  0  0  0  0  0  0  0  0
   15.9750   -3.0417    0.0000 C   0  0  0  0  0  0  0  0  0  0  0  0
   16.0000   -0.8000    0.0000 C   0  0  0  0  0  0  0  0  0  0  0  0
   14.0417    2.5833    0.0000 C   0  0  0  0  0  0  0  0  0  0  0  0
   14.0250   -4.1542    0.0000 C   0  0  0  0  0  0  0  0  0  0  0  0
   14.0250   -6.4250    0.0000 C   0  0  3  0  0  0  0  0  0  0  0  0
   12.0542   -7.5375    0.0000 C   0  0  0  0  0  0  0  0  0  0  0  0
   15.9625   -7.5375    0.0000 C   0  0  0  0  0  0  0  0  0  0  0  0
  2  5  1  0  0  0  0
  3  2  1  0  0  0  0
  4  1  1  0  0  0  0
  5 11  1  0  0  0  0
  6  4  1  0  0  0  0
  7  1  1  0  0  0  0
  8 10  1  0  0  0  0
  9  1  1  0  0  0  0
 10  6  1  0  0  0  0
 11  9  1  0  0  0  0
 12  4  1  0  0  0  0
 13  2  1  0  0  0  0
 14  7  1  0  0  0  0
 15  3  1  0  0  0  0
 16  7  1  0  0  0  0
 17  1  1  0  0  0  0
 18 13  1  0  0  0  0
 19 18  1  0  0  0  0
 20  2  1  0  0  0  0
 21 19  1  0  0  0  0
 22 23  1  0  0  0  0
 23 16  1  0  0  0  0
 24 16  1  0  0  0  0
 25 22  1  0  0  0  0
 26 25  1  0  0  0  0
 27 26  1  0  0  0  0
 28 26  1  0  0  0  0
 12 14  1  0  0  0  0
  5  6  1  0  0  0  0
  3  8  2  0  0  0  0
 15 19  1  0  0  0  0
M  END
> <IDNUMBER>
F1443-0922

> <Chemical_Name>
2,15-dimethyl-14-(6-methylheptan-2-yl)tetracyclo[8.7.0.0^{2,7}.0^{11,15}]heptadec-7-en-5-ol

> <CAS>
2226426-17-9

> <PriceCoeff>
1.00

> <MW>
386.65

> <Description>
solid

> <FSP3>
0.93

> <clogP>
9.52

> <TPSA>
20.23

> <Acceptor>
1

> <Donor>
1

> <RotBonds>
5

> <HAC>
28

> <Collection>
General

> <Reference_compound>
CHEMBL505813

> <Similarity>
0.8330

$$$$
F2146-0780
  -ISIS-  06222304352D

 25 26  0  0  0  0  0  0  0  0999 V2000
   -0.7542    2.2667    0.0000 C   0  0  0  0  0  0  0  0  0  0  0  0
   -1.0875    1.2583    0.0000 N   0  0  3  0  0  0  0  0  0  0  0  0
   -1.6125    2.8833    0.0000 S   0  0  0  0  0  0  0  0  0  0  0  0
   -2.4667    2.2625    0.0000 C   0  0  0  0  0  0  0  0  0  0  0  0
   -2.1375    1.2583    0.0000 C   0  0  0  0  0  0  0  0  0  0  0  0
   -3.4958    2.4875    0.0000 C   0  0  0  0  0  0  0  0  0  0  0  0
    0.2583    2.5917    0.0000 N   0  0  0  0  0  0  0  0  0  0  0  0
   -2.8417    0.4750    0.0000 C   0  0  0  0  0  0  0  0  0  0  0  0
   -4.2000    1.7000    0.0000 C   0  0  0  0  0  0  0  0  0  0  0  0
   -0.4583    0.4042    0.0000 C   0  0  0  0  0  0  0  0  0  0  0  0
   -3.8708    0.6958    0.0000 C   0  0  0  0  0  0  0  0  0  0  0  0
   -5.2375    1.9167    0.0000 S   0  0  0  0  0  0  0  0  0  0  0  0
   -5.5667    2.9292    0.0000 C   0  0  0  0  0  0  0  0  0  0  0  0
    0.5875    0.5167    0.0000 C   0  0  0  0  0  0  0  0  0  0  0  0
    3.5223    2.7087    0.0000 S   0  0  3  0  0  0  0  0  0  0  0  0
    3.1195    1.9989    0.0000 C   0  0  0  0  0  0  0  0  0  0  0  0
    2.8114    3.1300    0.0000 O   0  0  0  0  0  0  0  0  0  0  0  0
    3.9281    3.4298    0.0000 O   0  0  0  0  0  0  0  0  0  0  0  0
    4.2435    2.3029    0.0000 O   0  0  0  0  0  0  0  0  0  0  0  0
    3.5349    1.2813    0.0000 C   0  0  0  0  0  0  0  0  0  0  0  0
    2.2890    1.9947    0.0000 C   0  0  0  0  0  0  0  0  0  0  0  0
    3.1178    0.5631    0.0000 C   0  0  0  0  0  0  0  0  0  0  0  0
    1.8811    1.2772    0.0000 C   0  0  0  0  0  0  0  0  0  0  0  0
    2.2945    0.5632    0.0000 C   0  0  0  0  0  0  0  0  0  0  0  0
    1.8809   -0.1529    0.0000 C   0  0  0  0  0  0  0  0  0  0  0  0
 13 12  1  0  0  0  0
 14 10  1  0  0  0  0
  4  5  2  0  0  0  0
 11  9  1  0  0  0  0
  2  1  1  0  0  0  0
  3  1  1  0  0  0  0
  4  3  1  0  0  0  0
  5  2  1  0  0  0  0
  6  4  1  0  0  0  0
  7  1  2  0  0  0  0
  8  5  1  0  0  0  0
  9  6  2  0  0  0  0
 10  2  1  0  0  0  0
 11  8  2  0  0  0  0
 12  9  1  0  0  0  0
 16 15  1  0  0  0  0
 17 15  2  0  0  0  0
 18 15  2  0  0  0  0
 19 15  1  0  0  0  0
 20 16  1  0  0  0  0
 21 16  2  0  0  0  0
 22 20  2  0  0  0  0
 23 21  1  0  0  0  0
 24 23  2  0  0  0  0
 25 24  1  0  0  0  0
 22 24  1  0  0  0  0
M  END
> <IDNUMBER>
F2146-0780

> <Chemical_Name>
3-ethyl-6-(methylsulfanyl)-2,3-dihydro-1,3-benzothiazol-2-imine; 4-methylbenzene-1-sulfonic acid

> <CAS>
2034155-01-4

> <PriceCoeff>
1.00

> <MW>
224.35

> <Description>
solid

> <FSP3>
0.30

> <clogP>
4.33

> <TPSA>
77.69

> <Acceptor>
0

> <Donor>
1

> <RotBonds>
2

> <HAC>
14

> <Collection>
General

> <Reference_compound>
PRI5904

> <Similarity>
0.8060

$$$$
F3139-0642
  -ISIS-  06222321462D

 20 22  0  0  0  0  0  0  0  0999 V2000
    5.2750   -0.4292    0.0000 C   0  0  0  0  0  0  0  0  0  0  0  0
    5.2750   -1.2667    0.0000 C   0  0  0  0  0  0  0  0  0  0  0  0
    3.8292   -1.2667    0.0000 C   0  0  0  0  0  0  0  0  0  0  0  0
    4.5500   -1.6792    0.0000 C   0  0  0  0  0  0  0  0  0  0  0  0
    4.5542   -0.0125    0.0000 O   0  0  0  0  0  0  0  0  0  0  0  0
    3.8375   -0.4292    0.0000 C   0  0  0  0  0  0  0  0  0  0  0  0
    5.9875   -0.0250    0.0000 C   0  0  0  0  0  0  0  0  0  0  0  0
    3.1167   -1.6750    0.0000 C   0  0  0  0  0  0  0  0  0  0  0  0
    4.5500   -2.5042    0.0000 O   0  0  0  0  0  0  0  0  0  0  0  0
    3.1167   -0.0167    0.0000 C   0  0  0  0  0  0  0  0  0  0  0  0
    6.7042   -0.4417    0.0000 C   0  0  0  0  0  0  0  0  0  0  0  0
    5.9917    0.7958    0.0000 C   0  0  0  0  0  0  0  0  0  0  0  0
    2.4042   -1.2625    0.0000 C   0  0  0  0  0  0  0  0  0  0  0  0
    7.4167    0.7958    0.0000 C   0  0  0  0  0  0  0  0  0  0  0  0
    2.4042   -0.4375    0.0000 C   0  0  0  0  0  0  0  0  0  0  0  0
    6.7042    1.2083    0.0000 C   0  0  0  0  0  0  0  0  0  0  0  0
    7.4167   -0.0292    0.0000 C   0  0  0  0  0  0  0  0  0  0  0  0
    8.1375    1.2083    0.0000 Cl  0  0  0  0  0  0  0  0  0  0  0  0
    1.6917   -1.6667    0.0000 O   0  0  0  0  0  0  0  0  0  0  0  0
    1.6917   -2.4917    0.0000 C   0  0  0  0  0  0  0  0  0  0  0  0
  2  1  2  0  0  0  0
  3  6  1  0  0  0  0
  4  2  1  0  0  0  0
  5  1  1  0  0  0  0
  6  5  1  0  0  0  0
  7  1  1  0  0  0  0
  8  3  2  0  0  0  0
  9  4  2  0  0  0  0
 10  6  2  0  0  0  0
 11  7  2  0  0  0  0
 12  7  1  0  0  0  0
 13 15  2  0  0  0  0
 14 16  1  0  0  0  0
 15 10  1  0  0  0  0
 16 12  2  0  0  0  0
 17 11  1  0  0  0  0
 18 14  1  0  0  0  0
 19 13  1  0  0  0  0
 20 19  1  0  0  0  0
  3  4  1  0  0  0  0
 17 14  2  0  0  0  0
 13  8  1  0  0  0  0
M  END
> <IDNUMBER>
F3139-0642

> <Chemical_Name>
2-(4-chlorophenyl)-6-methoxy-4H-chromen-4-one

> <CAS>
70355-31-6

> <PriceCoeff>
1.00

> <MW>
286.71

> <Description>
solid

> <FSP3>
0.06

> <clogP>
4.30

> <TPSA>
35.53

> <Acceptor>
3

> <Donor>
0

> <RotBonds>
2

> <HAC>
20

> <Collection>
General

> <Reference_compound>
CHEMBL275638

> <Similarity>
0.8780

$$$$
F1916-0009
  -ISIS-  06222321142D

 17 18  0  0  0  0  0  0  0  0999 V2000
    2.2667   -1.8625    0.0000 O   0  0  0  0  0  0  0  0  0  0  0  0
   -1.3083   -3.1042    0.0000 O   0  0  0  0  0  0  0  0  0  0  0  0
    5.8417   -3.0792    0.0000 O   0  0  0  0  0  0  0  0  0  0  0  0
    1.5542   -2.2792    0.0000 C   0  0  0  0  0  0  0  0  0  0  0  0
    2.9792   -2.2667    0.0000 C   0  0  0  0  0  0  0  0  0  0  0  0
    5.1292   -3.5000    0.0000 C   0  0  0  0  0  0  0  0  0  0  0  0
   -0.5958   -3.5167    0.0000 C   0  0  0  0  0  0  0  0  0  0  0  0
    0.1250   -3.1042    0.0000 C   0  0  0  0  0  0  0  0  0  0  0  0
    4.4125   -3.0875    0.0000 C   0  0  0  0  0  0  0  0  0  0  0  0
    0.8375   -1.8667    0.0000 C   0  0  0  0  0  0  0  0  0  0  0  0
    2.9792   -3.0917    0.0000 C   0  0  0  0  0  0  0  0  0  0  0  0
    1.5542   -3.1042    0.0000 C   0  0  0  0  0  0  0  0  0  0  0  0
    3.6875   -1.8542    0.0000 C   0  0  0  0  0  0  0  0  0  0  0  0
    3.6917   -3.5042    0.0000 C   0  0  0  0  0  0  0  0  0  0  0  0
    0.1250   -2.2792    0.0000 C   0  0  0  0  0  0  0  0  0  0  0  0
    4.4042   -2.2542    0.0000 C   0  0  0  0  0  0  0  0  0  0  0  0
    0.8375   -3.5167    0.0000 C   0  0  0  0  0  0  0  0  0  0  0  0
  2  7  2  0  0  0  0
  3  6  2  0  0  0  0
  4  1  1  0  0  0  0
  5  1  1  0  0  0  0
  6  9  1  0  0  0  0
  7  8  1  0  0  0  0
  8 17  1  0  0  0  0
  9 16  1  0  0  0  0
 10  4  2  0  0  0  0
 11  5  2  0  0  0  0
 12  4  1  0  0  0  0
 13  5  1  0  0  0  0
 14 11  1  0  0  0  0
 15 10  1  0  0  0  0
 16 13  2  0  0  0  0
 17 12  2  0  0  0  0
  9 14  2  0  0  0  0
  8 15  2  0  0  0  0
M  END
> <IDNUMBER>
F1916-0009

> <Chemical_Name>
4-(4-formylphenoxy)benzaldehyde

> <CAS>
2215-76-1

> <PriceCoeff>
1.00

> <MW>
226.23

> <Description>
solid

> <FSP3>
0.00

> <clogP>
2.95

> <TPSA>
43.37

> <Acceptor>
3

> <Donor>
0

> <RotBonds>
4

> <HAC>
17

> <Collection>
General

> <Reference_compound>
CHEMBL161598

> <Similarity>
0.8620

$$$$
F1065-0148
  -ISIS-  06222321142D

 23 25  0  0  0  0  0  0  0  0999 V2000
   -0.8333    0.5833    0.0000 N   0  0  3  0  0  0  0  0  0  0  0  0
   -0.5833   -0.7167    0.0000 C   0  0  0  0  0  0  0  0  0  0  0  0
    0.6875   -0.9000    0.0000 C   0  0  3  0  0  0  0  0  0  0  0  0
    0.3042    1.1708    0.0000 C   0  0  0  0  0  0  0  0  0  0  0  0
    1.2667    0.2958    0.0000 C   0  0  0  0  0  0  0  0  0  0  0  0
   -1.8833    1.3333    0.0000 C   0  0  0  0  0  0  0  0  0  0  0  0
    1.3500   -2.0167    0.0000 N   0  0  3  0  0  0  0  0  0  0  0  0
   -3.0625    0.7958    0.0000 C   0  0  0  0  0  0  0  0  0  0  0  0
   -1.4958   -1.6375    0.0000 O   0  0  0  0  0  0  0  0  0  0  0  0
    0.4667    2.4708    0.0000 O   0  0  0  0  0  0  0  0  0  0  0  0
    2.6542   -2.0167    0.0000 C   0  0  0  0  0  0  0  0  0  0  0  0
   -4.1125    1.5125    0.0000 C   0  0  0  0  0  0  0  0  0  0  0  0
    0.7000   -3.1500    0.0000 O   0  0  0  0  0  0  0  0  0  0  0  0
   -1.7958    2.6500    0.0000 C   0  0  0  0  0  0  0  0  0  0  0  0
   -3.1833   -0.4875    0.0000 C   0  0  0  0  0  0  0  0  0  0  0  0
   -2.8500    3.3583    0.0000 C   0  0  0  0  0  0  0  0  0  0  0  0
   -4.0000    2.8125    0.0000 C   0  0  0  0  0  0  0  0  0  0  0  0
   -5.2708    0.9458    0.0000 C   0  0  0  0  0  0  0  0  0  0  0  0
    3.2875   -3.1292    0.0000 C   0  0  0  0  0  0  0  0  0  0  0  0
    3.2792   -0.8667    0.0000 C   0  0  0  0  0  0  0  0  0  0  0  0
    4.5875   -0.8667    0.0000 C   0  0  0  0  0  0  0  0  0  0  0  0
    4.6167   -3.1042    0.0000 C   0  0  0  0  0  0  0  0  0  0  0  0
    5.2375   -2.0000    0.0000 C   0  0  0  0  0  0  0  0  0  0  0  0
  2  1  1  0  0  0  0
  3  2  1  0  0  0  0
  4  1  1  0  0  0  0
  5  4  1  0  0  0  0
  6  1  1  0  0  0  0
  7  3  1  0  0  0  0
  8  6  1  0  0  0  0
  9  2  2  0  0  0  0
 10  4  2  0  0  0  0
 11  7  1  0  0  0  0
 12  8  2  0  0  0  0
 13  7  1  0  0  0  0
 14  6  2  0  0  0  0
 15  8  1  0  0  0  0
 16 14  1  0  0  0  0
 17 16  2  0  0  0  0
 18 12  1  0  0  0  0
 19 11  1  0  0  0  0
 20 11  2  0  0  0  0
 21 20  1  0  0  0  0
 22 19  2  0  0  0  0
 23 21  2  0  0  0  0
  5  3  1  0  0  0  0
 12 17  1  0  0  0  0
 23 22  1  0  0  0  0
M  END
> <IDNUMBER>
F1065-0148

> <Chemical_Name>
1-(2,3-dimethylphenyl)-3-(N-phenylhydroxyamino)pyrrolidine-2,5-dione

> <CAS>
317814-61-2

> <PriceCoeff>
1.00

> <MW>
310.35

> <Description>
solid

> <FSP3>
0.22

> <clogP>
3.25

> <TPSA>
60.85

> <Acceptor>
4

> <Donor>
2

> <RotBonds>
3

> <HAC>
23

> <Collection>
General

$$$$
F2206-0129
  -ISIS-  06222321462D

 29 32  0  0  0  0  0  0  0  0999 V2000
   -2.7583    8.7542    0.0000 C   0  0  0  0  0  0  0  0  0  0  0  0
   -2.5000    7.9792    0.0000 N   0  0  0  0  0  0  0  0  0  0  0  0
   -3.5833    8.7542    0.0000 N   0  0  3  0  0  0  0  0  0  0  0  0
   -2.3500    9.4792    0.0000 N   0  0  0  0  0  0  0  0  0  0  0  0
   -3.1708    7.4917    0.0000 C   0  0  0  0  0  0  0  0  0  0  0  0
   -3.8583    0.5000    0.0000 N   0  3  0  0  0  0  0  0  0  0  0  0
   -3.8708    2.9833    0.0000 C   0  0  0  0  0  0  0  0  0  0  0  0
   -3.8708    3.8000    0.0000 C   0  0  0  0  0  0  0  0  0  0  0  0
   -3.8333    7.9667    0.0000 C   0  0  0  0  0  0  0  0  0  0  0  0
   -4.5833    2.5708    0.0000 C   0  0  0  0  0  0  0  0  0  0  0  0
   -4.0000    9.4667    0.0000 C   0  0  0  0  0  0  0  0  0  0  0  0
   -3.8583    1.3333    0.0000 C   0  0  0  0  0  0  0  0  0  0  0  0
   -4.5833    1.7458    0.0000 C   0  0  0  0  0  0  0  0  0  0  0  0
   -3.5875   10.1792    0.0000 C   0  0  0  0  0  0  0  0  0  0  0  0
   -3.1583    4.2042    0.0000 N   0  0  0  0  0  0  0  0  0  0  0  0
   -3.1583    2.5708    0.0000 C   0  0  0  0  0  0  0  0  0  0  0  0
   -2.7708   10.1917    0.0000 C   0  0  0  0  0  0  0  0  0  0  0  0
   -3.1625    6.6667    0.0000 C   0  0  0  0  0  0  0  0  0  0  0  0
   -4.5583    0.0958    0.0000 O   0  5  0  0  0  0  0  0  0  0  0  0
   -3.1458    0.1000    0.0000 O   0  0  0  0  0  0  0  0  0  0  0  0
   -4.5833    4.2042    0.0000 O   0  0  0  0  0  0  0  0  0  0  0  0
   -3.1458    1.7458    0.0000 C   0  0  0  0  0  0  0  0  0  0  0  0
   -3.8750    6.2542    0.0000 C   0  0  0  0  0  0  0  0  0  0  0  0
   -2.4458    6.2667    0.0000 C   0  0  0  0  0  0  0  0  0  0  0  0
   -3.1583    5.0250    0.0000 C   0  0  0  0  0  0  0  0  0  0  0  0
   -5.2875    2.9708    0.0000 Cl  0  0  0  0  0  0  0  0  0  0  0  0
   -3.8750    5.4375    0.0000 C   0  0  0  0  0  0  0  0  0  0  0  0
   -2.4458    5.4417    0.0000 C   0  0  0  0  0  0  0  0  0  0  0  0
   -2.3625   10.9042    0.0000 C   0  0  0  0  0  0  0  0  0  0  0  0
  2  1  2  0  0  0  0
  3  1  1  0  0  0  0
  4  1  1  0  0  0  0
  5  2  1  0  0  0  0
  6 12  1  0  0  0  0
  7  8  1  0  0  0  0
  8 15  1  0  0  0  0
  9  3  1  0  0  0  0
 10  7  1  0  0  0  0
 11  3  1  0  0  0  0
 12 22  2  0  0  0  0
 13 10  2  0  0  0  0
 14 17  1  0  0  0  0
 15 25  1  0  0  0  0
 16  7  2  0  0  0  0
 17  4  2  0  0  0  0
 18  5  1  0  0  0  0
 19  6  1  0  0  0  0
 20  6  2  0  0  0  0
 21  8  2  0  0  0  0
 22 16  1  0  0  0  0
 23 18  2  0  0  0  0
 24 18  1  0  0  0  0
 25 28  1  0  0  0  0
 26 10  1  0  0  0  0
 27 23  1  0  0  0  0
 28 24  2  0  0  0  0
 29 17  1  0  0  0  0
  9  5  2  0  0  0  0
 14 11  2  0  0  0  0
 27 25  2  0  0  0  0
 13 12  1  0  0  0  0
M  CHG  2   6   1  19  -1
M  END
> <IDNUMBER>
F2206-0129

> <Chemical_Name>
2-chloro-N-(4-{7-methylimidazo[1,2-a]pyrimidin-2-yl}phenyl)-4-nitrobenzamide

> <CAS>
923122-37-6

> <PriceCoeff>
1.00

> <MW>
407.81

> <Description>
solid

> <FSP3>
0.05

> <clogP>
3.55

> <TPSA>
102.43

> <Acceptor>
5

> <Donor>
1

> <RotBonds>
4

> <HAC>
29

> <Collection>
General

$$$$
F2146-0717
  -ISIS-  06222304352D

 25 26  0  0  0  0  0  0  0  0999 V2000
    2.2208   -3.2167    0.0000 C   0  0  0  0  0  0  0  0  0  0  0  0
    1.9625   -4.0000    0.0000 N   0  0  3  0  0  0  0  0  0  0  0  0
    1.5542   -2.7292    0.0000 S   0  0  0  0  0  0  0  0  0  0  0  0
    1.1375   -4.0000    0.0000 C   0  0  0  0  0  0  0  0  0  0  0  0
    0.8833   -3.2167    0.0000 C   0  0  0  0  0  0  0  0  0  0  0  0
    0.0750   -3.0333    0.0000 C   0  0  0  0  0  0  0  0  0  0  0  0
    3.0125   -2.9583    0.0000 N   0  0  0  0  0  0  0  0  0  0  0  0
    0.5833   -4.6125    0.0000 C   0  0  0  0  0  0  0  0  0  0  0  0
   -0.4833   -3.6542    0.0000 C   0  0  0  0  0  0  0  0  0  0  0  0
   -0.2208   -4.4375    0.0000 C   0  0  0  0  0  0  0  0  0  0  0  0
    2.4542   -4.6708    0.0000 C   0  0  0  0  0  0  0  0  0  0  0  0
   -0.1750   -2.2500    0.0000 C   0  0  0  0  0  0  0  0  0  0  0  0
   -0.7708   -5.0542    0.0000 C   0  0  0  0  0  0  0  0  0  0  0  0
    2.1167   -5.4333    0.0000 C   0  0  0  0  0  0  0  0  0  0  0  0
    6.0473   -2.8288    0.0000 S   0  0  3  0  0  0  0  0  0  0  0  0
    5.6445   -3.5386    0.0000 C   0  0  0  0  0  0  0  0  0  0  0  0
    5.3364   -2.4075    0.0000 O   0  0  0  0  0  0  0  0  0  0  0  0
    6.4531   -2.1077    0.0000 O   0  0  0  0  0  0  0  0  0  0  0  0
    6.7685   -3.2346    0.0000 O   0  0  0  0  0  0  0  0  0  0  0  0
    6.0599   -4.2562    0.0000 C   0  0  0  0  0  0  0  0  0  0  0  0
    4.8140   -3.5428    0.0000 C   0  0  0  0  0  0  0  0  0  0  0  0
    5.6428   -4.9744    0.0000 C   0  0  0  0  0  0  0  0  0  0  0  0
    4.4061   -4.2603    0.0000 C   0  0  0  0  0  0  0  0  0  0  0  0
    4.8195   -4.9743    0.0000 C   0  0  0  0  0  0  0  0  0  0  0  0
    4.4059   -5.6904    0.0000 C   0  0  0  0  0  0  0  0  0  0  0  0
 13 10  1  0  0  0  0
 14 11  1  0  0  0  0
  5  4  2  0  0  0  0
 10  9  1  0  0  0  0
  2  1  1  0  0  0  0
  3  1  1  0  0  0  0
  4  2  1  0  0  0  0
  5  3  1  0  0  0  0
  6  5  1  0  0  0  0
  7  1  2  0  0  0  0
  8  4  1  0  0  0  0
  9  6  2  0  0  0  0
 10  8  2  0  0  0  0
 11  2  1  0  0  0  0
 12  6  1  0  0  0  0
 16 15  1  0  0  0  0
 17 15  2  0  0  0  0
 18 15  2  0  0  0  0
 19 15  1  0  0  0  0
 20 16  1  0  0  0  0
 21 16  2  0  0  0  0
 22 20  2  0  0  0  0
 23 21  1  0  0  0  0
 24 23  2  0  0  0  0
 25 24  1  0  0  0  0
 22 24  1  0  0  0  0
M  END
> <IDNUMBER>
F2146-0717

> <Chemical_Name>
3-ethyl-5,7-dimethyl-2,3-dihydro-1,3-benzothiazol-2-imine; 4-methylbenzene-1-sulfonic acid

> <CAS>
2034155-41-2

> <PriceCoeff>
1.00

> <MW>
206.31

> <Description>
solid

> <FSP3>
0.36

> <clogP>
4.77

> <TPSA>
52.39

> <Acceptor>
0

> <Donor>
1

> <RotBonds>
1

> <HAC>
14

> <Collection>
General

> <Reference_compound>
PRI5904

> <Similarity>
0.8060

$$$$
F0400-0026
  -ISIS-  06222321452D

 18 20  0  0  0  0  0  0  0  0999 V2000
   -1.9333    0.7833    0.0000 C   0  0  0  0  0  0  0  0  0  0  0  0
   -1.9333    1.4458    0.0000 C   0  0  0  0  0  0  0  0  0  0  0  0
   -3.0958    0.7833    0.0000 C   0  0  0  0  0  0  0  0  0  0  0  0
   -2.5125    0.4500    0.0000 O   0  0  0  0  0  0  0  0  0  0  0  0
   -2.5125    1.7708    0.0000 C   0  0  0  0  0  0  0  0  0  0  0  0
   -3.0958    1.4458    0.0000 C   0  0  0  0  0  0  0  0  0  0  0  0
   -3.6708    0.4500    0.0000 C   0  0  0  0  0  0  0  0  0  0  0  0
   -3.6708    1.7708    0.0000 C   0  0  0  0  0  0  0  0  0  0  0  0
   -1.3500    0.4500    0.0000 C   0  0  0  0  0  0  0  0  0  0  0  0
   -2.5833    2.4833    0.0000 O   0  0  0  0  0  0  0  0  0  0  0  0
   -4.2500    0.7833    0.0000 C   0  0  0  0  0  0  0  0  0  0  0  0
   -4.2500    1.4458    0.0000 C   0  0  0  0  0  0  0  0  0  0  0  0
   -4.7500    0.4333    0.0000 Cl  0  0  0  0  0  0  0  0  0  0  0  0
   -1.3458   -0.2167    0.0000 C   0  0  0  0  0  0  0  0  0  0  0  0
   -0.7958    0.7958    0.0000 C   0  0  0  0  0  0  0  0  0  0  0  0
   -0.1958    0.4625    0.0000 C   0  0  0  0  0  0  0  0  0  0  0  0
   -0.7500   -0.5500    0.0000 C   0  0  0  0  0  0  0  0  0  0  0  0
   -0.1833   -0.1875    0.0000 C   0  0  0  0  0  0  0  0  0  0  0  0
  2  1  2  0  0  0  0
  3  4  1  0  0  0  0
  4  1  1  0  0  0  0
  5  2  1  0  0  0  0
  6  3  2  0  0  0  0
  7  3  1  0  0  0  0
  8  6  1  0  0  0  0
  9  1  1  0  0  0  0
 10  5  2  0  0  0  0
 11  7  2  0  0  0  0
 12 11  1  0  0  0  0
 13 11  1  0  0  0  0
 14  9  2  0  0  0  0
 15  9  1  0  0  0  0
 16 15  2  0  0  0  0
 17 14  1  0  0  0  0
 18 16  1  0  0  0  0
  6  5  1  0  0  0  0
 18 17  2  0  0  0  0
  8 12  2  0  0  0  0
M  END
> <IDNUMBER>
F0400-0026

> <Chemical_Name>
7-chloro-2-phenyl-4H-chromen-4-one

> <CAS>
1148-48-7

> <PriceCoeff>
1.00

> <MW>
256.68

> <Description>
solid

> <FSP3>
0.00

> <clogP>
4.19

> <TPSA>
26.30

> <Acceptor>
2

> <Donor>
0

> <RotBonds>
1

> <HAC>
18

> <Collection>
General

> <Reference_compound>
CHEMBL275638

> <Similarity>
0.9140

$$$$
F0472-0061
  -ISIS-  06222321452D

 26 29  0  0  0  0  0  0  0  0999 V2000
    6.3167   -2.9000    0.0000 C   0  0  0  0  0  0  0  0  0  0  0  0
    6.6500   -3.6542    0.0000 C   0  0  0  0  0  0  0  0  0  0  0  0
    6.8042   -2.2292    0.0000 C   0  0  0  0  0  0  0  0  0  0  0  0
    5.0042   -3.4500    0.0000 C   0  0  0  0  0  0  0  0  0  0  0  0
    5.5000   -2.8000    0.0000 C   0  0  3  0  0  0  0  0  0  0  0  0
    7.6292   -2.3042    0.0000 O   0  0  0  0  0  0  0  0  0  0  0  0
    7.4667   -3.7292    0.0000 C   0  0  0  0  0  0  0  0  0  0  0  0
    4.3542   -1.9667    0.0000 N   0  3  0  0  0  0  0  0  0  0  0  0
    5.2500   -4.2500    0.0000 C   0  0  0  0  0  0  0  0  0  0  0  0
    4.6000   -4.7000    0.0000 N   0  0  0  0  0  0  0  0  0  0  0  0
    7.9542   -3.0667    0.0000 C   0  0  0  0  0  0  0  0  0  0  0  0
    4.2000   -3.4500    0.0000 C   0  0  0  0  0  0  0  0  0  0  0  0
    5.1667   -2.0500    0.0000 C   0  0  0  0  0  0  0  0  0  0  0  0
    3.9500   -4.2167    0.0000 C   0  0  0  0  0  0  0  0  0  0  0  0
    6.4667   -1.4667    0.0000 O   0  0  0  0  0  0  0  0  0  0  0  0
    4.3542   -1.0542    0.0000 O   0  5  0  0  0  0  0  0  0  0  0  0
    3.4000   -1.8667    0.0000 O   0  0  0  0  0  0  0  0  0  0  0  0
    6.1667   -4.3167    0.0000 O   0  0  0  0  0  0  0  0  0  0  0  0
    7.8000   -4.4792    0.0000 C   0  0  0  0  0  0  0  0  0  0  0  0
    3.6542   -2.8292    0.0000 C   0  0  0  0  0  0  0  0  0  0  0  0
    8.7667   -3.1500    0.0000 C   0  0  0  0  0  0  0  0  0  0  0  0
    3.1500   -4.3667    0.0000 C   0  0  0  0  0  0  0  0  0  0  0  0
    8.6167   -4.5667    0.0000 C   0  0  0  0  0  0  0  0  0  0  0  0
    2.8542   -3.0000    0.0000 C   0  0  0  0  0  0  0  0  0  0  0  0
    9.1000   -3.9042    0.0000 C   0  0  0  0  0  0  0  0  0  0  0  0
    2.6042   -3.7667    0.0000 C   0  0  0  0  0  0  0  0  0  0  0  0
  2  1  2  0  0  0  0
  3  1  1  0  0  0  0
  4  5  1  0  0  0  0
  5  1  1  0  0  0  0
  6  3  1  0  0  0  0
  7  2  1  0  0  0  0
  8 13  1  0  0  0  0
  9  4  2  0  0  0  0
 10  9  1  0  0  0  0
 11  6  1  0  0  0  0
 12  4  1  0  0  0  0
 13  5  1  0  0  0  0
 14 12  2  0  0  0  0
 15  3  2  0  0  0  0
 16  8  1  0  0  0  0
 17  8  2  0  0  0  0
 18  2  1  0  0  0  0
 19  7  1  0  0  0  0
 20 12  1  0  0  0  0
 21 11  1  0  0  0  0
 22 14  1  0  0  0  0
 23 19  2  0  0  0  0
 24 20  2  0  0  0  0
 25 21  2  0  0  0  0
 26 24  1  0  0  0  0
 11  7  2  0  0  0  0
 10 14  1  0  0  0  0
 25 23  1  0  0  0  0
 22 26  2  0  0  0  0
M  CHG  2   8   1  16  -1
M  END
> <IDNUMBER>
F0472-0061

> <Chemical_Name>
4-hydroxy-3-[1-(1H-indol-3-yl)-2-nitroethyl]-2H-chromen-2-one

> <CAS>
325474-34-8

> <PriceCoeff>
1.00

> <MW>
350.32

> <Description>
solid

> <FSP3>
0.11

> <clogP>
2.82

> <TPSA>
105.46

> <Acceptor>
5

> <Donor>
2

> <RotBonds>
4

> <HAC>
26

> <Collection>
General

$$$$
F2638-0066
  -ISIS-  06222321462D

 31 34  0  0  0  0  0  0  0  0999 V2000
   -2.8208    0.1208    0.0000 N   0  0  3  0  0  0  0  0  0  0  0  0
   -3.4958   -0.3542    0.0000 C   0  0  0  0  0  0  0  0  0  0  0  0
   -2.0625   -0.2167    0.0000 C   0  0  0  0  0  0  0  0  0  0  0  0
   -1.9875   -1.0417    0.0000 N   0  0  0  0  0  0  0  0  0  0  0  0
   -3.4083   -1.1792    0.0000 C   0  0  0  0  0  0  0  0  0  0  0  0
   -0.3875    5.9500    0.0000 N   0  3  0  0  0  0  0  0  0  0  0  0
   -2.4625    4.6417    0.0000 C   0  0  0  0  0  0  0  0  0  0  0  0
   -3.1583    4.2042    0.0000 C   0  0  0  0  0  0  0  0  0  0  0  0
   -2.6583   -1.5250    0.0000 C   0  0  0  0  0  0  0  0  0  0  0  0
   -1.7458    4.2542    0.0000 C   0  0  0  0  0  0  0  0  0  0  0  0
   -1.0833    5.5125    0.0000 C   0  0  0  0  0  0  0  0  0  0  0  0
   -1.0458    4.6917    0.0000 C   0  0  0  0  0  0  0  0  0  0  0  0
   -3.1250    3.3958    0.0000 N   0  0  0  0  0  0  0  0  0  0  0  0
   -2.8875    0.9458    0.0000 C   0  0  0  0  0  0  0  0  0  0  0  0
   -2.4958    5.4542    0.0000 C   0  0  0  0  0  0  0  0  0  0  0  0
   -4.2458   -0.0167    0.0000 O   0  0  0  0  0  0  0  0  0  0  0  0
    0.3417    5.5667    0.0000 O   0  5  0  0  0  0  0  0  0  0  0  0
   -0.4125    6.7750    0.0000 O   0  0  0  0  0  0  0  0  0  0  0  0
   -3.8833    4.5875    0.0000 O   0  0  0  0  0  0  0  0  0  0  0  0
   -1.8083    5.8917    0.0000 C   0  0  0  0  0  0  0  0  0  0  0  0
   -3.6333    1.2833    0.0000 C   0  0  0  0  0  0  0  0  0  0  0  0
   -2.2208    1.4125    0.0000 C   0  0  0  0  0  0  0  0  0  0  0  0
   -3.0458    2.5708    0.0000 C   0  0  0  0  0  0  0  0  0  0  0  0
   -1.7083    3.4458    0.0000 Cl  0  0  0  0  0  0  0  0  0  0  0  0
   -1.3958    0.2583    0.0000 C   0  0  0  0  0  0  0  0  0  0  0  0
   -4.0833   -1.6542    0.0000 C   0  0  0  0  0  0  0  0  0  0  0  0
   -3.7208    2.0958    0.0000 C   0  0  0  0  0  0  0  0  0  0  0  0
   -2.2958    2.2333    0.0000 C   0  0  0  0  0  0  0  0  0  0  0  0
   -2.5875   -2.3417    0.0000 C   0  0  0  0  0  0  0  0  0  0  0  0
   -4.0083   -2.4667    0.0000 C   0  0  0  0  0  0  0  0  0  0  0  0
   -3.2583   -2.8167    0.0000 C   0  0  0  0  0  0  0  0  0  0  0  0
  2  1  1  0  0  0  0
  3  1  1  0  0  0  0
  4  3  2  0  0  0  0
  5  2  1  0  0  0  0
  6 11  1  0  0  0  0
  7  8  1  0  0  0  0
  8 13  1  0  0  0  0
  9  4  1  0  0  0  0
 10  7  2  0  0  0  0
 11 20  1  0  0  0  0
 12 10  1  0  0  0  0
 13 23  1  0  0  0  0
 14  1  1  0  0  0  0
 15  7  1  0  0  0  0
 16  2  2  0  0  0  0
 17  6  1  0  0  0  0
 18  6  2  0  0  0  0
 19  8  2  0  0  0  0
 20 15  2  0  0  0  0
 21 14  1  0  0  0  0
 22 14  2  0  0  0  0
 23 28  2  0  0  0  0
 24 10  1  0  0  0  0
 25  3  1  0  0  0  0
 26  5  2  0  0  0  0
 27 21  2  0  0  0  0
 28 22  1  0  0  0  0
 29  9  2  0  0  0  0
 30 26  1  0  0  0  0
 31 29  1  0  0  0  0
 23 27  1  0  0  0  0
  9  5  1  0  0  0  0
 31 30  2  0  0  0  0
 11 12  2  0  0  0  0
M  CHG  2   6   1  17  -1
M  END
> <IDNUMBER>
F2638-0066

> <Chemical_Name>
2-chloro-N-[4-(2-methyl-4-oxo-3,4-dihydroquinazolin-3-yl)phenyl]-4-nitrobenzamide

> <CAS>
904279-34-1

> <PriceCoeff>
1.00

> <MW>
434.83

> <Description>
solid

> <FSP3>
0.05

> <clogP>
3.82

> <TPSA>
104.91

> <Acceptor>
5

> <Donor>
1

> <RotBonds>
4

> <HAC>
31

> <Collection>
General

$$$$
F0921-2538
  -ISIS-  06222321142D

 19 20  0  0  0  0  0  0  0  0999 V2000
   -5.7583    4.4667    0.0000 C   0  0  0  0  0  0  0  0  0  0  0  0
   -1.7500    2.2208    0.0000 O   0  0  0  0  0  0  0  0  0  0  0  0
   -1.7083   -2.2917    0.0000 C   0  0  0  0  0  0  0  0  0  0  0  0
    2.1917   -4.6500    0.0000 C   0  0  0  0  0  0  0  0  0  0  0  0
    2.1917   -9.1250    0.0000 C   0  0  0  0  0  0  0  0  0  0  0  0
   -5.7583    9.1667    0.0000 N   0  0  3  0  0  0  0  0  0  0  0  0
   -1.7083  -11.3792    0.0000 C   0  0  0  0  0  0  0  0  0  0  0  0
   -9.7167    2.2833    0.0000 O   0  0  0  0  0  0  0  0  0  0  0  0
   -5.6458   -4.6500    0.0000 C   0  0  0  0  0  0  0  0  0  0  0  0
   -5.6458   -9.1250    0.0000 C   0  0  0  0  0  0  0  0  0  0  0  0
   -1.7500  -15.9542    0.0000 Cl  0  0  0  0  0  0  0  0  0  0  0  0
    6.1250   -2.2917    0.0000 C   0  0  0  0  0  0  0  0  0  0  0  0
    6.1250  -11.3792    0.0000 C   0  0  0  0  0  0  0  0  0  0  0  0
   -9.7167   11.4042    0.0000 C   0  0  0  0  0  0  0  0  0  0  0  0
   -1.8708   11.4042    0.0000 C   0  0  0  0  0  0  0  0  0  0  0  0
   -1.8708   16.0000    0.0000 C   0  0  0  0  0  0  0  0  0  0  0  0
   -9.7167   16.0000    0.0000 C   0  0  0  0  0  0  0  0  0  0  0  0
   10.1417   -9.1250    0.0000 C   0  0  0  0  0  0  0  0  0  0  0  0
   10.1417   -4.6500    0.0000 C   0  0  0  0  0  0  0  0  0  0  0  0
  2  1  1  0  0  0  0
  3  2  1  0  0  0  0
  4  3  2  0  0  0  0
  5  4  1  0  0  0  0
  6  1  1  0  0  0  0
  7 10  1  0  0  0  0
  8  1  2  0  0  0  0
  9  3  1  0  0  0  0
 10  9  2  0  0  0  0
 11  7  1  0  0  0  0
 12  4  1  0  0  0  0
 13  5  1  0  0  0  0
 14  6  1  0  0  0  0
 15  6  1  0  0  0  0
 16 15  1  0  0  0  0
 17 14  1  0  0  0  0
 18 19  1  0  0  0  0
 19 12  2  0  0  0  0
  5  7  2  0  0  0  0
 18 13  2  0  0  0  0
M  END
> <IDNUMBER>
F0921-2538

> <Chemical_Name>
4-chloronaphthalen-1-yl N,N-diethylcarbamate

> <CAS>
431906-85-3

> <PriceCoeff>
1.00

> <MW>
277.75

> <Description>
solid

> <FSP3>
0.27

> <clogP>
4.51

> <TPSA>
29.54

> <Acceptor>
2

> <Donor>
0

> <RotBonds>
5

> <HAC>
19

> <Collection>
General

> <Reference_compound>
CHEMBL2288479

> <Similarity>
0.8530

$$$$
F2666-0047
  -ISIS-  06222321152D

 26 29  0  0  0  0  0  0  0  0999 V2000
   -3.8458    7.4000    0.0000 N   0  0  3  0  0  0  0  0  0  0  0  0
   -5.7958    1.7708    0.0000 N   0  3  0  0  0  0  0  0  0  0  0  0
   -5.1458    2.1500    0.0000 C   0  0  0  0  0  0  0  0  0  0  0  0
   -4.5583    7.6292    0.0000 C   0  0  0  0  0  0  0  0  0  0  0  0
   -3.8458    6.6500    0.0000 C   0  0  0  0  0  0  0  0  0  0  0  0
   -4.4958    6.2750    0.0000 C   0  0  0  0  0  0  0  0  0  0  0  0
   -4.4875    4.0250    0.0000 C   0  0  0  0  0  0  0  0  0  0  0  0
   -3.2000    6.2750    0.0000 C   0  0  0  0  0  0  0  0  0  0  0  0
   -5.1458    2.9000    0.0000 C   0  0  0  0  0  0  0  0  0  0  0  0
   -5.0583    6.7792    0.0000 C   0  0  0  0  0  0  0  0  0  0  0  0
   -3.8458    4.4000    0.0000 N   0  0  0  0  0  0  0  0  0  0  0  0
   -4.4958    3.2750    0.0000 C   0  0  0  0  0  0  0  0  0  0  0  0
   -3.8458    5.1500    0.0000 C   0  0  0  0  0  0  0  0  0  0  0  0
   -4.4958    1.7750    0.0000 C   0  0  0  0  0  0  0  0  0  0  0  0
   -5.7958    1.0208    0.0000 O   0  5  0  0  0  0  0  0  0  0  0  0
   -4.4958    5.5250    0.0000 C   0  0  0  0  0  0  0  0  0  0  0  0
   -3.2000    5.5250    0.0000 C   0  0  0  0  0  0  0  0  0  0  0  0
   -6.4417    2.1458    0.0000 O   0  0  0  0  0  0  0  0  0  0  0  0
   -4.7083    8.3667    0.0000 O   0  0  0  0  0  0  0  0  0  0  0  0
   -5.1458    4.4000    0.0000 O   0  0  0  0  0  0  0  0  0  0  0  0
   -3.8458    2.9000    0.0000 C   0  0  0  0  0  0  0  0  0  0  0  0
   -3.8458    2.1500    0.0000 C   0  0  0  0  0  0  0  0  0  0  0  0
   -3.2000    7.7750    0.0000 C   0  0  0  0  0  0  0  0  0  0  0  0
   -4.4958    1.0250    0.0000 Cl  0  0  0  0  0  0  0  0  0  0  0  0
   -2.5500    6.6500    0.0000 C   0  0  0  0  0  0  0  0  0  0  0  0
   -2.5500    7.4000    0.0000 C   0  0  0  0  0  0  0  0  0  0  0  0
  2  3  1  0  0  0  0
  3  9  1  0  0  0  0
  4  1  1  0  0  0  0
  5  1  1  0  0  0  0
  6  5  1  0  0  0  0
  7 11  1  0  0  0  0
  8  5  2  0  0  0  0
  9 12  2  0  0  0  0
 10  4  1  0  0  0  0
 11 13  1  0  0  0  0
 12  7  1  0  0  0  0
 13 17  2  0  0  0  0
 14 22  1  0  0  0  0
 15  2  1  0  0  0  0
 16  6  2  0  0  0  0
 17  8  1  0  0  0  0
 18  2  2  0  0  0  0
 19  4  2  0  0  0  0
 20  7  2  0  0  0  0
 21 12  1  0  0  0  0
 22 21  2  0  0  0  0
 23  1  1  0  0  0  0
 24 14  1  0  0  0  0
 25 26  1  0  0  0  0
 26 23  1  0  0  0  0
 10  6  1  0  0  0  0
 25  8  1  0  0  0  0
 13 16  1  0  0  0  0
  3 14  2  0  0  0  0
M  CHG  2   2   1  15  -1
M  END
> <IDNUMBER>
F2666-0047

> <Chemical_Name>
4-chloro-3-nitro-N-{2-oxo-1-azatricyclo[6.3.1.0^{4,12}]dodeca-4,6,8(12)-trien-6-yl}benzamide

> <CAS>
898410-81-6

> <PriceCoeff>
1.00

> <MW>
371.77

> <Description>
solid

> <FSP3>
0.22

> <clogP>
2.74

> <TPSA>
92.55

> <Acceptor>
4

> <Donor>
1

> <RotBonds>
3

> <HAC>
26

> <Collection>
General

$$$$
F2638-0065
  -ISIS-  06222321442D

 31 34  0  0  0  0  0  0  0  0999 V2000
   -2.9875    0.5458    0.0000 N   0  0  3  0  0  0  0  0  0  0  0  0
   -3.3708   -0.2042    0.0000 C   0  0  0  0  0  0  0  0  0  0  0  0
   -2.1583    0.5833    0.0000 C   0  0  0  0  0  0  0  0  0  0  0  0
   -1.7083   -0.1167    0.0000 N   0  0  0  0  0  0  0  0  0  0  0  0
   -2.9125   -0.8917    0.0000 C   0  0  0  0  0  0  0  0  0  0  0  0
   -0.3875    5.9500    0.0000 N   0  3  0  0  0  0  0  0  0  0  0  0
   -2.4625    4.6417    0.0000 C   0  0  0  0  0  0  0  0  0  0  0  0
   -3.1583    4.2042    0.0000 C   0  0  0  0  0  0  0  0  0  0  0  0
   -3.4333    1.2375    0.0000 C   0  0  0  0  0  0  0  0  0  0  0  0
   -2.0833   -0.8500    0.0000 C   0  0  0  0  0  0  0  0  0  0  0  0
   -1.7458    4.2542    0.0000 C   0  0  0  0  0  0  0  0  0  0  0  0
   -1.0833    5.5125    0.0000 C   0  0  0  0  0  0  0  0  0  0  0  0
   -1.0458    4.6917    0.0000 C   0  0  0  0  0  0  0  0  0  0  0  0
   -3.1250    3.3958    0.0000 N   0  0  0  0  0  0  0  0  0  0  0  0
   -3.0583    1.9708    0.0000 C   0  0  0  0  0  0  0  0  0  0  0  0
   -2.4958    5.4542    0.0000 C   0  0  0  0  0  0  0  0  0  0  0  0
   -4.1958   -0.2417    0.0000 O   0  0  0  0  0  0  0  0  0  0  0  0
    0.3417    5.5667    0.0000 O   0  5  0  0  0  0  0  0  0  0  0  0
   -0.4125    6.7750    0.0000 O   0  0  0  0  0  0  0  0  0  0  0  0
   -3.5000    2.6583    0.0000 C   0  0  0  0  0  0  0  0  0  0  0  0
   -3.8833    4.5875    0.0000 O   0  0  0  0  0  0  0  0  0  0  0  0
   -1.8083    5.8917    0.0000 C   0  0  0  0  0  0  0  0  0  0  0  0
   -1.7083    3.4458    0.0000 Cl  0  0  0  0  0  0  0  0  0  0  0  0
   -1.7833    1.3208    0.0000 C   0  0  0  0  0  0  0  0  0  0  0  0
   -3.2958   -1.6292    0.0000 C   0  0  0  0  0  0  0  0  0  0  0  0
   -4.2500    1.1958    0.0000 C   0  0  0  0  0  0  0  0  0  0  0  0
   -1.6375   -1.5500    0.0000 C   0  0  0  0  0  0  0  0  0  0  0  0
   -4.6958    1.8833    0.0000 C   0  0  0  0  0  0  0  0  0  0  0  0
   -4.3333    2.6125    0.0000 C   0  0  0  0  0  0  0  0  0  0  0  0
   -2.8458   -2.3167    0.0000 C   0  0  0  0  0  0  0  0  0  0  0  0
   -2.0208   -2.2792    0.0000 C   0  0  0  0  0  0  0  0  0  0  0  0
  2  1  1  0  0  0  0
  3  1  1  0  0  0  0
  4  3  2  0  0  0  0
  5  2  1  0  0  0  0
  6 12  1  0  0  0  0
  7  8  1  0  0  0  0
  8 14  1  0  0  0  0
  9  1  1  0  0  0  0
 10  4  1  0  0  0  0
 11  7  2  0  0  0  0
 12 22  1  0  0  0  0
 13 11  1  0  0  0  0
 14 20  1  0  0  0  0
 15  9  2  0  0  0  0
 16  7  1  0  0  0  0
 17  2  2  0  0  0  0
 18  6  1  0  0  0  0
 19  6  2  0  0  0  0
 20 15  1  0  0  0  0
 21  8  2  0  0  0  0
 22 16  2  0  0  0  0
 23 11  1  0  0  0  0
 24  3  1  0  0  0  0
 25  5  2  0  0  0  0
 26  9  1  0  0  0  0
 27 10  2  0  0  0  0
 28 26  2  0  0  0  0
 29 28  1  0  0  0  0
 30 25  1  0  0  0  0
 31 27  1  0  0  0  0
 10  5  1  0  0  0  0
 29 20  2  0  0  0  0
 31 30  2  0  0  0  0
 12 13  2  0  0  0  0
M  CHG  2   6   1  18  -1
M  END
> <IDNUMBER>
F2638-0065

> <Chemical_Name>
2-chloro-N-[3-(2-methyl-4-oxo-3,4-dihydroquinazolin-3-yl)phenyl]-4-nitrobenzamide

> <CAS>
898420-17-2

> <PriceCoeff>
1.00

> <MW>
434.83

> <Description>
solid

> <FSP3>
0.05

> <clogP>
3.82

> <TPSA>
104.91

> <Acceptor>
5

> <Donor>
1

> <RotBonds>
4

> <HAC>
31

> <Collection>
General

$$$$
F3394-0325
  -ISIS-  06222321462D

 33 37  0  0  0  0  0  0  0  0999 V2000
    3.8542    3.4333    0.0000 C   0  0  0  0  0  0  0  0  0  0  0  0
    3.1000    3.0958    0.0000 C   0  0  0  0  0  0  0  0  0  0  0  0
    4.4417    2.1250    0.0000 N   0  0  3  0  0  0  0  0  0  0  0  0
    3.6875    1.7875    0.0000 C   0  0  0  0  0  0  0  0  0  0  0  0
    3.0167    2.2750    0.0000 N   0  0  0  0  0  0  0  0  0  0  0  0
    4.5292    2.9583    0.0000 C   0  0  0  0  0  0  0  0  0  0  0  0
    2.5417    3.7083    0.0000 S   0  0  0  0  0  0  0  0  0  0  0  0
    3.7667    4.2417    0.0000 C   0  0  0  0  0  0  0  0  0  0  0  0
    2.9542    4.4167    0.0000 C   0  0  0  0  0  0  0  0  0  0  0  0
    3.6792    0.9625    0.0000 S   0  0  0  0  0  0  0  0  0  0  0  0
    5.1042    1.6458    0.0000 C   0  0  0  0  0  0  0  0  0  0  0  0
    5.2792    3.2958    0.0000 O   0  0  0  0  0  0  0  0  0  0  0  0
    2.2500    0.9750    0.0000 C   0  0  0  0  0  0  0  0  0  0  0  0
    0.0917    2.2333    0.0000 C   0  0  0  0  0  0  0  0  0  0  0  0
    1.5250    0.5708    0.0000 N   0  0  0  0  0  0  0  0  0  0  0  0
    0.0917    3.0583    0.0000 C   0  0  0  0  0  0  0  0  0  0  0  0
    0.8042    1.8208    0.0000 C   0  0  0  0  0  0  0  0  0  0  0  0
    0.8042    0.9958    0.0000 C   0  0  0  0  0  0  0  0  0  0  0  0
    2.2542    1.8083    0.0000 O   0  0  0  0  0  0  0  0  0  0  0  0
   -0.6250    3.4708    0.0000 O   0  0  0  0  0  0  0  0  0  0  0  0
    2.9625    0.5583    0.0000 C   0  0  0  0  0  0  0  0  0  0  0  0
    4.1792    4.9542    0.0000 C   0  0  0  0  0  0  0  0  0  0  0  0
    2.8750    5.2417    0.0000 C   0  0  0  0  0  0  0  0  0  0  0  0
    3.6292    5.5750    0.0000 C   0  0  0  0  0  0  0  0  0  0  0  0
   -0.6250    1.8208    0.0000 C   0  0  0  0  0  0  0  0  0  0  0  0
   -0.6250    0.9958    0.0000 C   0  0  0  0  0  0  0  0  0  0  0  0
    0.0917    0.5833    0.0000 C   0  0  0  0  0  0  0  0  0  0  0  0
    0.8042    3.4708    0.0000 C   0  0  0  0  0  0  0  0  0  0  0  0
    5.0167    0.8208    0.0000 C   0  0  0  0  0  0  0  0  0  0  0  0
    5.8542    1.9833    0.0000 C   0  0  0  0  0  0  0  0  0  0  0  0
    6.5250    1.4958    0.0000 C   0  0  0  0  0  0  0  0  0  0  0  0
    5.6875    0.3375    0.0000 C   0  0  0  0  0  0  0  0  0  0  0  0
    6.4417    0.6708    0.0000 C   0  0  0  0  0  0  0  0  0  0  0  0
  2  1  2  0  0  0  0
  3  6  1  0  0  0  0
  4  3  1  0  0  0  0
  5  2  1  0  0  0  0
  6  1  1  0  0  0  0
  7  2  1  0  0  0  0
  8  1  1  0  0  0  0
  9  8  2  0  0  0  0
 10  4  1  0  0  0  0
 11  3  1  0  0  0  0
 12  6  2  0  0  0  0
 13 21  1  0  0  0  0
 14 17  1  0  0  0  0
 15 13  1  0  0  0  0
 16 14  1  0  0  0  0
 17 18  2  0  0  0  0
 18 15  1  0  0  0  0
 19 13  2  0  0  0  0
 20 16  2  0  0  0  0
 21 10  1  0  0  0  0
 22  8  1  0  0  0  0
 23  9  1  0  0  0  0
 24 22  1  0  0  0  0
 25 26  1  0  0  0  0
 26 27  2  0  0  0  0
 27 18  1  0  0  0  0
 28 16  1  0  0  0  0
 29 11  2  0  0  0  0
 30 11  1  0  0  0  0
 31 30  2  0  0  0  0
 32 29  1  0  0  0  0
 33 31  1  0  0  0  0
  9  7  1  0  0  0  0
  5  4  2  0  0  0  0
 24 23  1  0  0  0  0
 32 33  2  0  0  0  0
 14 25  2  0  0  0  0
M  END
> <IDNUMBER>
F3394-0325

> <Chemical_Name>
N-(3-acetylphenyl)-2-({12-oxo-11-phenyl-7-thia-9,11-diazatricyclo[6.4.0.0^{2,6}]dodeca-1(8),2(6),9-trien-10-yl}sulfanyl)acetamide

> <CAS>
667913-10-2

> <PriceCoeff>
1.00

> <MW>
475.58

> <Description>
solid

> <FSP3>
0.20

> <clogP>
5.03

> <TPSA>
132.38

> <Acceptor>
4

> <Donor>
1

> <RotBonds>
6

> <HAC>
33

> <Collection>
General

> <Reference_compound>
CHEMBL577016

> <Similarity>
0.8260

$$$$
F3222-1464
  -ISIS-  06222321152D

 36 40  0  0  0  0  0  0  0  0999 V2000
    6.7542   -7.9375    0.0000 C   0  0  0  0  0  0  0  0  0  0  0  0
    5.3750   -7.5792    0.0000 N   0  0  3  0  0  0  0  0  0  0  0  0
    6.5500   -8.7375    0.0000 C   0  0  0  0  0  0  0  0  0  0  0  0
    6.1667   -7.3542    0.0000 C   0  0  0  0  0  0  0  0  0  0  0  0
    5.7542   -8.9542    0.0000 N   0  0  0  0  0  0  0  0  0  0  0  0
    5.1667   -8.3792    0.0000 C   0  0  0  0  0  0  0  0  0  0  0  0
    7.5917   -7.8792    0.0000 C   0  0  0  0  0  0  0  0  0  0  0  0
    7.8917   -8.6542    0.0000 C   0  0  0  0  0  0  0  0  0  0  0  0
    7.2500   -9.1917    0.0000 S   0  0  0  0  0  0  0  0  0  0  0  0
    9.2417   -8.1292    0.0000 N   0  0  3  0  0  0  0  0  0  0  0  0
    8.7125   -8.7792    0.0000 C   0  0  0  0  0  0  0  0  0  0  0  0
   10.0542   -8.2625    0.0000 C   0  0  0  0  0  0  0  0  0  0  0  0
    4.7875   -7.0000    0.0000 C   0  0  0  0  0  0  0  0  0  0  0  0
    4.3792   -8.6000    0.0000 S   0  0  0  0  0  0  0  0  0  0  0  0
    8.1042   -7.2375    0.0000 C   0  0  0  0  0  0  0  0  0  0  0  0
    3.9917   -7.2250    0.0000 C   0  0  0  0  0  0  0  0  0  0  0  0
    6.3792   -6.5500    0.0000 O   0  0  0  0  0  0  0  0  0  0  0  0
    4.7542   -9.9875    0.0000 C   0  0  0  0  0  0  0  0  0  0  0  0
    8.9375   -7.3542    0.0000 C   0  0  0  0  0  0  0  0  0  0  0  0
    3.3417   -6.7042    0.0000 O   0  0  0  0  0  0  0  0  0  0  0  0
    4.5417  -10.7917    0.0000 N   0  0  0  0  0  0  0  0  0  0  0  0
   10.3500   -9.0292    0.0000 O   0  0  0  0  0  0  0  0  0  0  0  0
    3.6917   -8.0000    0.0000 C   0  0  0  0  0  0  0  0  0  0  0  0
    2.6542   -7.1542    0.0000 C   0  0  0  0  0  0  0  0  0  0  0  0
    2.8792   -7.9542    0.0000 C   0  0  0  0  0  0  0  0  0  0  0  0
    5.5417   -9.7500    0.0000 O   0  0  0  0  0  0  0  0  0  0  0  0
    4.1667   -9.4042    0.0000 C   0  0  0  0  0  0  0  0  0  0  0  0
    5.1417  -11.3750    0.0000 C   0  0  0  0  0  0  0  0  0  0  0  0
    6.3125  -12.5292    0.0000 C   0  0  0  0  0  0  0  0  0  0  0  0
    4.9292  -12.1625    0.0000 C   0  0  0  0  0  0  0  0  0  0  0  0
    5.9417  -11.1625    0.0000 C   0  0  0  0  0  0  0  0  0  0  0  0
    5.5167  -12.7500    0.0000 C   0  0  0  0  0  0  0  0  0  0  0  0
    6.5292  -11.7292    0.0000 C   0  0  0  0  0  0  0  0  0  0  0  0
   10.5667   -7.6167    0.0000 C   0  0  0  0  0  0  0  0  0  0  0  0
    6.9042  -13.1250    0.0000 C   0  0  0  0  0  0  0  0  0  0  0  0
    6.6917  -13.9292    0.0000 C   0  0  0  0  0  0  0  0  0  0  0  0
  2  4  1  0  0  0  0
  3  1  2  0  0  0  0
  4  1  1  0  0  0  0
  5  3  1  0  0  0  0
  6  2  1  0  0  0  0
  7  1  1  0  0  0  0
  8  7  2  0  0  0  0
  9  3  1  0  0  0  0
 10 19  1  0  0  0  0
 11  8  1  0  0  0  0
 12 10  1  0  0  0  0
 13  2  1  0  0  0  0
 14  6  1  0  0  0  0
 15  7  1  0  0  0  0
 16 13  1  0  0  0  0
 17  4  2  0  0  0  0
 18 27  1  0  0  0  0
 19 15  1  0  0  0  0
 20 16  1  0  0  0  0
 21 18  1  0  0  0  0
 22 12  2  0  0  0  0
 23 16  2  0  0  0  0
 24 20  1  0  0  0  0
 25 23  1  0  0  0  0
 26 18  2  0  0  0  0
 27 14  1  0  0  0  0
 28 21  1  0  0  0  0
 29 33  2  0  0  0  0
 30 28  1  0  0  0  0
 31 28  2  0  0  0  0
 32 30  2  0  0  0  0
 33 31  1  0  0  0  0
 34 12  1  0  0  0  0
 35 29  1  0  0  0  0
 36 35  1  0  0  0  0
  9  8  1  0  0  0  0
 10 11  1  0  0  0  0
  6  5  2  0  0  0  0
 25 24  2  0  0  0  0
 29 32  1  0  0  0  0
M  END
> <IDNUMBER>
F3222-1464

> <Chemical_Name>
2-({11-acetyl-4-[(furan-2-yl)methyl]-3-oxo-8-thia-4,6,11-triazatricyclo[7.4.0.0^{2,7}]trideca-1(9),2(7),5-trien-5-yl}sulfanyl)-N-(4-ethylphenyl)acetamide

> <CAS>
1189706-81-7

> <PriceCoeff>
1.00

> <MW>
522.64

> <Description>
solid

> <FSP3>
0.31

> <clogP>
2.58

> <TPSA>
148.76

> <Acceptor>
5

> <Donor>
1

> <RotBonds>
8

> <HAC>
36

> <Collection>
General

> <Reference_compound>
CHEMBL577016

> <Similarity>
0.8210

$$$$
F3222-2791
  -ISIS-  06222321152D

 36 40  0  0  0  0  0  0  0  0999 V2000
    6.2042   -8.8792    0.0000 C   0  0  0  0  0  0  0  0  0  0  0  0
    6.8667   -7.6125    0.0000 N   0  0  3  0  0  0  0  0  0  0  0  0
    5.4750   -8.5000    0.0000 C   0  0  0  0  0  0  0  0  0  0  0  0
    6.9042   -8.4375    0.0000 C   0  0  0  0  0  0  0  0  0  0  0  0
    5.4417   -7.6667    0.0000 N   0  0  0  0  0  0  0  0  0  0  0  0
    6.1417   -7.2292    0.0000 C   0  0  0  0  0  0  0  0  0  0  0  0
    6.0625   -9.6917    0.0000 C   0  0  0  0  0  0  0  0  0  0  0  0
    5.2500   -9.8125    0.0000 C   0  0  0  0  0  0  0  0  0  0  0  0
    4.8792   -9.0792    0.0000 S   0  0  0  0  0  0  0  0  0  0  0  0
    5.4542  -11.2250    0.0000 N   0  0  3  0  0  0  0  0  0  0  0  0
    4.9417  -10.5750    0.0000 C   0  0  0  0  0  0  0  0  0  0  0  0
    5.1542  -11.9917    0.0000 C   0  0  0  0  0  0  0  0  0  0  0  0
    7.5750   -7.1542    0.0000 C   0  0  0  0  0  0  0  0  0  0  0  0
    6.1042   -6.4042    0.0000 S   0  0  0  0  0  0  0  0  0  0  0  0
    6.5667  -10.3417    0.0000 C   0  0  0  0  0  0  0  0  0  0  0  0
    8.3125   -7.5292    0.0000 C   0  0  0  0  0  0  0  0  0  0  0  0
    7.6500   -8.8167    0.0000 O   0  0  0  0  0  0  0  0  0  0  0  0
    6.7750   -5.1417    0.0000 C   0  0  0  0  0  0  0  0  0  0  0  0
    6.2625  -11.1042    0.0000 C   0  0  0  0  0  0  0  0  0  0  0  0
    7.4750   -4.7042    0.0000 N   0  0  0  0  0  0  0  0  0  0  0  0
    9.0792   -7.2292    0.0000 O   0  0  0  0  0  0  0  0  0  0  0  0
    4.3375  -12.1167    0.0000 O   0  0  0  0  0  0  0  0  0  0  0  0
    8.3667   -8.3542    0.0000 C   0  0  0  0  0  0  0  0  0  0  0  0
    9.6000   -7.8625    0.0000 C   0  0  0  0  0  0  0  0  0  0  0  0
    7.4542   -3.8792    0.0000 C   0  0  0  0  0  0  0  0  0  0  0  0
    9.1625   -8.5625    0.0000 C   0  0  0  0  0  0  0  0  0  0  0  0
    6.0417   -4.7417    0.0000 O   0  0  0  0  0  0  0  0  0  0  0  0
    6.8042   -5.9667    0.0000 C   0  0  0  0  0  0  0  0  0  0  0  0
    6.7292   -3.4750    0.0000 C   0  0  0  0  0  0  0  0  0  0  0  0
    6.7167   -2.6500    0.0000 C   0  0  0  0  0  0  0  0  0  0  0  0
    5.6667  -12.6375    0.0000 C   0  0  0  0  0  0  0  0  0  0  0  0
    8.1417   -2.6250    0.0000 C   0  0  0  0  0  0  0  0  0  0  0  0
    8.1542   -3.4542    0.0000 C   0  0  0  0  0  0  0  0  0  0  0  0
    7.4250   -2.2167    0.0000 C   0  0  0  0  0  0  0  0  0  0  0  0
    5.9875   -2.2417    0.0000 C   0  0  0  0  0  0  0  0  0  0  0  0
    5.2750   -2.6750    0.0000 C   0  0  0  0  0  0  0  0  0  0  0  0
  2  4  1  0  0  0  0
  3  1  2  0  0  0  0
  4  1  1  0  0  0  0
  5  3  1  0  0  0  0
  6  2  1  0  0  0  0
  7  1  1  0  0  0  0
  8  7  2  0  0  0  0
  9  3  1  0  0  0  0
 10 19  1  0  0  0  0
 11  8  1  0  0  0  0
 12 10  1  0  0  0  0
 13  2  1  0  0  0  0
 14  6  1  0  0  0  0
 15  7  1  0  0  0  0
 16 13  1  0  0  0  0
 17  4  2  0  0  0  0
 18 28  1  0  0  0  0
 19 15  1  0  0  0  0
 20 18  1  0  0  0  0
 21 16  1  0  0  0  0
 22 12  2  0  0  0  0
 23 16  2  0  0  0  0
 24 21  1  0  0  0  0
 25 20  1  0  0  0  0
 26 23  1  0  0  0  0
 27 18  2  0  0  0  0
 28 14  1  0  0  0  0
 29 25  1  0  0  0  0
 30 29  2  0  0  0  0
 31 12  1  0  0  0  0
 32 33  1  0  0  0  0
 33 25  2  0  0  0  0
 34 32  2  0  0  0  0
 35 30  1  0  0  0  0
 36 35  1  0  0  0  0
  9  8  1  0  0  0  0
 10 11  1  0  0  0  0
  6  5  2  0  0  0  0
 26 24  2  0  0  0  0
 30 34  1  0  0  0  0
M  END
> <IDNUMBER>
F3222-2791

> <Chemical_Name>
2-({11-acetyl-4-[(furan-2-yl)methyl]-3-oxo-8-thia-4,6,11-triazatricyclo[7.4.0.0^{2,7}]trideca-1(9),2(7),5-trien-5-yl}sulfanyl)-N-(3-ethylphenyl)acetamide

> <CAS>
1185080-69-6

> <PriceCoeff>
1.00

> <MW>
522.64

> <Description>
solid

> <FSP3>
0.31

> <clogP>
2.58

> <TPSA>
148.76

> <Acceptor>
5

> <Donor>
1

> <RotBonds>
8

> <HAC>
36

> <Collection>
General

> <Reference_compound>
CHEMBL577016

> <Similarity>
0.8210

$$$$
F0825-0278
  -ISIS-  06222321142D

 20 22  0  0  0  0  0  0  0  0999 V2000
   -1.6000    0.7625    0.0000 N   0  0  3  0  0  0  0  0  0  0  0  0
   -1.9833    1.1708    0.0000 C   0  0  0  0  0  0  0  0  0  0  0  0
   -1.0500    0.7958    0.0000 N   0  0  0  0  0  0  0  0  0  0  0  0
   -1.8625    0.2833    0.0000 C   0  0  0  0  0  0  0  0  0  0  0  0
   -0.7958    1.2708    0.0000 C   0  0  0  0  0  0  0  0  0  0  0  0
   -2.4833    0.9333    0.0000 S   0  0  0  0  0  0  0  0  0  0  0  0
   -0.2458    1.2708    0.0000 C   0  0  0  0  0  0  0  0  0  0  0  0
    0.0292    1.7500    0.0000 C   0  0  0  0  0  0  0  0  0  0  0  0
   -2.4125    0.4000    0.0000 C   0  0  0  0  0  0  0  0  0  0  0  0
   -1.8833    1.7208    0.0000 S   0  0  0  0  0  0  0  0  0  0  0  0
   -1.0708    1.7208    0.0000 O   0  0  0  0  0  0  0  0  0  0  0  0
   -1.6125   -0.2292    0.0000 O   0  0  0  0  0  0  0  0  0  0  0  0
    0.6000    1.7500    0.0000 C   0  0  0  0  0  0  0  0  0  0  0  0
    0.0375    0.7833    0.0000 C   0  0  0  0  0  0  0  0  0  0  0  0
   -0.2500    2.2208    0.0000 C   0  0  0  0  0  0  0  0  0  0  0  0
    0.6292    0.7958    0.0000 C   0  0  0  0  0  0  0  0  0  0  0  0
    0.8875    1.2708    0.0000 C   0  0  0  0  0  0  0  0  0  0  0  0
    0.8500    2.2333    0.0000 C   0  0  0  0  0  0  0  0  0  0  0  0
    0.0167    2.7125    0.0000 C   0  0  0  0  0  0  0  0  0  0  0  0
    0.5792    2.7125    0.0000 C   0  0  0  0  0  0  0  0  0  0  0  0
  2  1  1  0  0  0  0
  3  1  1  0  0  0  0
  4  1  1  0  0  0  0
  5  3  1  0  0  0  0
  6  2  1  0  0  0  0
  7  5  1  0  0  0  0
  8  7  2  0  0  0  0
  9  4  1  0  0  0  0
 10  2  2  0  0  0  0
 11  5  2  0  0  0  0
 12  4  2  0  0  0  0
 13  8  1  0  0  0  0
 14  7  1  0  0  0  0
 15  8  1  0  0  0  0
 16 14  2  0  0  0  0
 17 16  1  0  0  0  0
 18 13  1  0  0  0  0
 19 15  2  0  0  0  0
 20 19  1  0  0  0  0
  9  6  1  0  0  0  0
 17 13  2  0  0  0  0
 18 20  2  0  0  0  0
M  END
> <IDNUMBER>
F0825-0278

> <Chemical_Name>
N-(4-oxo-2-sulfanylidene-1,3-thiazolidin-3-yl)naphthalene-1-carboxamide

> <CAS>
315684-11-8

> <PriceCoeff>
1.00

> <MW>
302.37

> <Description>
solid

> <FSP3>
0.07

> <clogP>
1.97

> <TPSA>
106.80

> <Acceptor>
3

> <Donor>
1

> <RotBonds>
2

> <HAC>
20

> <Collection>
General

> <Reference_compound>
CHEMBL2268839

> <Similarity>
0.9330

$$$$
F3139-0635
  -ISIS-  06222321462D

 19 21  0  0  0  0  0  0  0  0999 V2000
    5.2750   -0.4292    0.0000 C   0  0  0  0  0  0  0  0  0  0  0  0
    5.2750   -1.2667    0.0000 C   0  0  0  0  0  0  0  0  0  0  0  0
    4.5542   -0.0125    0.0000 O   0  0  0  0  0  0  0  0  0  0  0  0
    3.8292   -1.2667    0.0000 C   0  0  0  0  0  0  0  0  0  0  0  0
    4.5500   -1.6792    0.0000 C   0  0  0  0  0  0  0  0  0  0  0  0
    3.8375   -0.4292    0.0000 C   0  0  0  0  0  0  0  0  0  0  0  0
    5.9875   -0.0250    0.0000 C   0  0  0  0  0  0  0  0  0  0  0  0
    3.1167   -1.6750    0.0000 C   0  0  0  0  0  0  0  0  0  0  0  0
    6.7042   -0.4417    0.0000 C   0  0  0  0  0  0  0  0  0  0  0  0
    4.5500   -2.5042    0.0000 O   0  0  0  0  0  0  0  0  0  0  0  0
    3.1167   -0.0167    0.0000 C   0  0  0  0  0  0  0  0  0  0  0  0
    2.4042   -1.2625    0.0000 C   0  0  0  0  0  0  0  0  0  0  0  0
    6.6917   -1.2667    0.0000 Cl  0  0  0  0  0  0  0  0  0  0  0  0
    2.4042   -0.4375    0.0000 C   0  0  0  0  0  0  0  0  0  0  0  0
    1.6917   -1.6750    0.0000 F   0  0  0  0  0  0  0  0  0  0  0  0
    5.9917    0.7958    0.0000 C   0  0  0  0  0  0  0  0  0  0  0  0
    7.4167   -0.0292    0.0000 C   0  0  0  0  0  0  0  0  0  0  0  0
    6.7042    1.2083    0.0000 C   0  0  0  0  0  0  0  0  0  0  0  0
    7.4167    0.7958    0.0000 C   0  0  0  0  0  0  0  0  0  0  0  0
  2  1  2  0  0  0  0
  3  1  1  0  0  0  0
  4  6  1  0  0  0  0
  5  2  1  0  0  0  0
  6  3  1  0  0  0  0
  7  1  1  0  0  0  0
  8  4  2  0  0  0  0
  9  7  2  0  0  0  0
 10  5  2  0  0  0  0
 11  6  2  0  0  0  0
 12 14  2  0  0  0  0
 13  9  1  0  0  0  0
 14 11  1  0  0  0  0
 15 12  1  0  0  0  0
 16  7  1  0  0  0  0
 17  9  1  0  0  0  0
 18 16  2  0  0  0  0
 19 18  1  0  0  0  0
  4  5  1  0  0  0  0
 17 19  2  0  0  0  0
 12  8  1  0  0  0  0
M  END
> <IDNUMBER>
F3139-0635

> <Chemical_Name>
2-(2-chlorophenyl)-6-fluoro-4H-chromen-4-one

> <CAS>
527751-46-8

> <PriceCoeff>
1.00

> <MW>
274.67

> <Description>
solid

> <FSP3>
0.00

> <clogP>
4.09

> <TPSA>
26.30

> <Acceptor>
2

> <Donor>
0

> <RotBonds>
1

> <HAC>
19

> <Collection>
General

> <Reference_compound>
CHEMBL275638

> <Similarity>
0.8030

$$$$
F0327-0376
  -ISIS-  06222321142D

 31 34  0  0  0  0  0  0  0  0999 V2000
    4.5500   -2.3375    0.0000 N   0  0  3  0  0  0  0  0  0  0  0  0
    0.6167    0.0833    0.0000 C   0  0  0  0  0  0  0  0  0  0  0  0
    1.1292    0.6000    0.0000 C   0  0  0  0  0  0  0  0  0  0  0  0
    5.1875   -1.9375    0.0000 C   0  0  0  0  0  0  0  0  0  0  0  0
    4.7292   -3.0375    0.0000 C   0  0  0  0  0  0  0  0  0  0  0  0
    0.8167   -0.6292    0.0000 C   0  0  0  0  0  0  0  0  0  0  0  0
    1.7292   -1.5167    0.0000 C   0  0  0  0  0  0  0  0  0  0  0  0
    1.5292   -0.8000    0.0000 N   0  0  0  0  0  0  0  0  0  0  0  0
    3.8500   -2.1375    0.0000 C   0  0  0  0  0  0  0  0  0  0  0  0
    2.4292   -1.7167    0.0000 C   0  0  0  0  0  0  0  0  0  0  0  0
   -0.1000    0.2625    0.0000 C   0  0  0  0  0  0  0  0  0  0  0  0
    1.8792    0.5208    0.0000 O   0  0  0  0  0  0  0  0  0  0  0  0
    1.2042   -2.0375    0.0000 O   0  0  0  0  0  0  0  0  0  0  0  0
    5.7500   -2.4167    0.0000 C   0  0  0  0  0  0  0  0  0  0  0  0
    5.4667   -3.1000    0.0000 C   0  0  0  0  0  0  0  0  0  0  0  0
    5.2500   -1.2000    0.0000 O   0  0  0  0  0  0  0  0  0  0  0  0
    4.2667   -3.6167    0.0000 O   0  0  0  0  0  0  0  0  0  0  0  0
    0.8542    1.2833    0.0000 C   0  0  0  0  0  0  0  0  0  0  0  0
    0.3167   -1.1542    0.0000 C   0  0  0  0  0  0  0  0  0  0  0  0
    3.6667   -1.4167    0.0000 C   0  0  0  0  0  0  0  0  0  0  0  0
    3.3292   -2.6375    0.0000 C   0  0  0  0  0  0  0  0  0  0  0  0
    2.6042   -2.4375    0.0000 C   0  0  0  0  0  0  0  0  0  0  0  0
    2.9667   -1.2167    0.0000 C   0  0  0  0  0  0  0  0  0  0  0  0
   -0.6125   -0.2792    0.0000 C   0  0  0  0  0  0  0  0  0  0  0  0
   -0.4000   -0.9792    0.0000 C   0  0  0  0  0  0  0  0  0  0  0  0
   -1.3333   -0.1167    0.0000 Br  0  0  0  0  0  0  0  0  0  0  0  0
    1.3042    1.8708    0.0000 C   0  0  0  0  0  0  0  0  0  0  0  0
    0.1292    1.3708    0.0000 C   0  0  0  0  0  0  0  0  0  0  0  0
    1.0375    2.5500    0.0000 C   0  0  0  0  0  0  0  0  0  0  0  0
   -0.1500    2.0625    0.0000 C   0  0  0  0  0  0  0  0  0  0  0  0
    0.3042    2.6500    0.0000 C   0  0  0  0  0  0  0  0  0  0  0  0
  2  6  2  0  0  0  0
  3  2  1  0  0  0  0
  4  1  1  0  0  0  0
  5  1  1  0  0  0  0
  6  8  1  0  0  0  0
  7 10  1  0  0  0  0
  8  7  1  0  0  0  0
  9  1  1  0  0  0  0
 10 22  2  0  0  0  0
 11  2  1  0  0  0  0
 12  3  2  0  0  0  0
 13  7  2  0  0  0  0
 14  4  1  0  0  0  0
 15  5  1  0  0  0  0
 16  4  2  0  0  0  0
 17  5  2  0  0  0  0
 18  3  1  0  0  0  0
 19  6  1  0  0  0  0
 20  9  1  0  0  0  0
 21  9  2  0  0  0  0
 22 21  1  0  0  0  0
 23 20  2  0  0  0  0
 24 25  1  0  0  0  0
 25 19  2  0  0  0  0
 26 24  1  0  0  0  0
 27 18  2  0  0  0  0
 28 18  1  0  0  0  0
 29 27  1  0  0  0  0
 30 28  2  0  0  0  0
 31 30  1  0  0  0  0
 15 14  1  0  0  0  0
 23 10  1  0  0  0  0
 24 11  2  0  0  0  0
 31 29  2  0  0  0  0
M  END
> <IDNUMBER>
F0327-0376

> <Chemical_Name>
N-(2-benzoyl-4-bromophenyl)-4-(2,5-dioxopyrrolidin-1-yl)benzamide

> <CAS>
392246-42-3

> <PriceCoeff>
1.00

> <MW>
477.31

> <Description>
solid

> <FSP3>
0.08

> <clogP>
3.70

> <TPSA>
83.55

> <Acceptor>
4

> <Donor>
1

> <RotBonds>
5

> <HAC>
31

> <Collection>
General

$$$$
F3139-0964
  -ISIS-  06222321152D

 23 25  0  0  0  0  0  0  0  0999 V2000
   13.6542   -5.8667    0.0000 C   0  0  0  0  0  0  0  0  0  0  0  0
   12.9375   -6.2792    0.0000 C   0  0  0  0  0  0  0  0  0  0  0  0
   12.2250   -5.8667    0.0000 C   0  0  0  0  0  0  0  0  0  0  0  0
   13.6542   -5.0417    0.0000 C   0  0  0  0  0  0  0  0  0  0  0  0
   12.2250   -5.0417    0.0000 C   0  0  0  0  0  0  0  0  0  0  0  0
   12.9375   -4.6292    0.0000 O   0  0  0  0  0  0  0  0  0  0  0  0
   11.5125   -6.2792    0.0000 C   0  0  0  0  0  0  0  0  0  0  0  0
   11.5125   -4.6292    0.0000 C   0  0  0  0  0  0  0  0  0  0  0  0
   14.3667   -6.2875    0.0000 C   0  0  0  0  0  0  0  0  0  0  0  0
   12.9375   -7.1042    0.0000 O   0  0  0  0  0  0  0  0  0  0  0  0
    7.9292   -5.0292    0.0000 C   0  0  0  0  0  0  0  0  0  0  0  0
    8.6417   -4.6167    0.0000 C   0  0  0  0  0  0  0  0  0  0  0  0
   10.7917   -5.0500    0.0000 C   0  0  0  0  0  0  0  0  0  0  0  0
   10.7917   -5.8667    0.0000 C   0  0  0  0  0  0  0  0  0  0  0  0
    9.3542   -5.0417    0.0000 C   0  0  0  0  0  0  0  0  0  0  0  0
   10.0750   -4.6292    0.0000 O   0  0  0  0  0  0  0  0  0  0  0  0
    7.2167   -4.6125    0.0000 C   0  0  0  0  0  0  0  0  0  0  0  0
    7.9167   -5.8542    0.0000 C   0  0  0  0  0  0  0  0  0  0  0  0
   14.3667   -7.1125    0.0000 C   0  0  0  0  0  0  0  0  0  0  0  0
   15.0875   -5.8667    0.0000 C   0  0  0  0  0  0  0  0  0  0  0  0
   15.8000   -6.2792    0.0000 C   0  0  0  0  0  0  0  0  0  0  0  0
   15.0792   -7.5250    0.0000 C   0  0  0  0  0  0  0  0  0  0  0  0
   15.7917   -7.1042    0.0000 C   0  0  0  0  0  0  0  0  0  0  0  0
  2  1  1  0  0  0  0
  3  2  1  0  0  0  0
  4  1  2  0  0  0  0
  5  6  1  0  0  0  0
  6  4  1  0  0  0  0
  7  3  2  0  0  0  0
  8  5  2  0  0  0  0
  9  1  1  0  0  0  0
 10  2  2  0  0  0  0
 11 12  2  0  0  0  0
 12 15  1  0  0  0  0
 13  8  1  0  0  0  0
 14  7  1  0  0  0  0
 15 16  1  0  0  0  0
 16 13  1  0  0  0  0
 17 11  1  0  0  0  0
 18 11  1  0  0  0  0
 19  9  2  0  0  0  0
 20  9  1  0  0  0  0
 21 20  2  0  0  0  0
 22 19  1  0  0  0  0
 23 21  1  0  0  0  0
  5  3  1  0  0  0  0
 22 23  2  0  0  0  0
 13 14  2  0  0  0  0
M  END
> <IDNUMBER>
F3139-0964

> <Chemical_Name>
7-[(3-methylbut-2-en-1-yl)oxy]-3-phenyl-4H-chromen-4-one

> <CAS>
66346-74-5

> <PriceCoeff>
1.00

> <MW>
306.36

> <Description>
solid

> <FSP3>
0.15

> <clogP>
4.79

> <TPSA>
35.53

> <Acceptor>
3

> <Donor>
0

> <RotBonds>
4

> <HAC>
23

> <Collection>
General

> <Reference_compound>
CHEMBL44

> <Similarity>
0.8460

$$$$
F0804-1671
  -ISIS-  06222321142D

 27 30  0  0  0  0  0  0  0  0999 V2000
    0.5500    0.6958    0.0000 C   0  0  0  0  0  0  0  0  0  0  0  0
    0.1500   -0.0250    0.0000 S   0  0  0  0  0  0  0  0  0  0  0  0
   -0.7583    0.9583    0.0000 N   0  0  0  0  0  0  0  0  0  0  0  0
   -0.6583    0.1375    0.0000 C   0  0  0  0  0  0  0  0  0  0  0  0
   -0.0083    1.3000    0.0000 C   0  0  0  0  0  0  0  0  0  0  0  0
    1.3667    0.7875    0.0000 C   0  0  0  0  0  0  0  0  0  0  0  0
    4.8042   -2.6500    0.0000 N   0  0  0  0  0  0  0  0  0  0  0  0
    3.9792   -2.6542    0.0000 C   0  0  0  0  0  0  0  0  0  0  0  0
    5.0625   -3.4250    0.0000 C   0  0  0  0  0  0  0  0  0  0  0  0
    4.4042   -3.9167    0.0000 S   0  0  0  0  0  0  0  0  0  0  0  0
    3.7375   -3.4375    0.0000 C   0  0  0  0  0  0  0  0  0  0  0  0
    1.8625    0.1250    0.0000 N   0  0  0  0  0  0  0  0  0  0  0  0
    3.4917   -1.9875    0.0000 C   0  0  0  0  0  0  0  0  0  0  0  0
   -1.2708   -0.4167    0.0000 C   0  0  0  0  0  0  0  0  0  0  0  0
    1.6917    1.5458    0.0000 O   0  0  0  0  0  0  0  0  0  0  0  0
    2.5042   -0.6667    0.0000 C   0  0  0  0  0  0  0  0  0  0  0  0
    2.6667   -2.0792    0.0000 C   0  0  0  0  0  0  0  0  0  0  0  0
    3.8250   -1.2292    0.0000 C   0  0  0  0  0  0  0  0  0  0  0  0
    2.1792   -1.4250    0.0000 C   0  0  0  0  0  0  0  0  0  0  0  0
    3.3292   -0.5667    0.0000 C   0  0  0  0  0  0  0  0  0  0  0  0
    0.1542    2.1083    0.0000 C   0  0  0  0  0  0  0  0  0  0  0  0
    5.8542   -3.6750    0.0000 C   0  0  0  0  0  0  0  0  0  0  0  0
   -2.0583   -0.1750    0.0000 C   0  0  0  0  0  0  0  0  0  0  0  0
   -1.0875   -1.2250    0.0000 C   0  0  0  0  0  0  0  0  0  0  0  0
   -2.6583   -0.7292    0.0000 C   0  0  0  0  0  0  0  0  0  0  0  0
   -1.7000   -1.7792    0.0000 C   0  0  0  0  0  0  0  0  0  0  0  0
   -2.4833   -1.5375    0.0000 C   0  0  0  0  0  0  0  0  0  0  0  0
  2  1  1  0  0  0  0
  3  5  1  0  0  0  0
  4  2  1  0  0  0  0
  5  1  2  0  0  0  0
  6  1  1  0  0  0  0
  7  8  1  0  0  0  0
  8 13  1  0  0  0  0
  9  7  2  0  0  0  0
 10 11  1  0  0  0  0
 11  8  2  0  0  0  0
 12  6  1  0  0  0  0
 13 18  1  0  0  0  0
 14  4  1  0  0  0  0
 15  6  2  0  0  0  0
 16 12  1  0  0  0  0
 17 19  1  0  0  0  0
 18 20  2  0  0  0  0
 19 16  2  0  0  0  0
 20 16  1  0  0  0  0
 21  5  1  0  0  0  0
 22  9  1  0  0  0  0
 23 14  2  0  0  0  0
 24 14  1  0  0  0  0
 25 23  1  0  0  0  0
 26 24  2  0  0  0  0
 27 26  1  0  0  0  0
  3  4  2  0  0  0  0
 17 13  2  0  0  0  0
 25 27  2  0  0  0  0
  9 10  1  0  0  0  0
M  END
> <IDNUMBER>
F0804-1671

> <Chemical_Name>
4-methyl-N-[4-(2-methyl-1,3-thiazol-4-yl)phenyl]-2-phenyl-1,3-thiazole-5-carboxamide

> <CAS>
364625-70-7

> <PriceCoeff>
1.00

> <MW>
391.51

> <Description>
solid

> <FSP3>
0.10

> <clogP>
4.98

> <TPSA>
111.36

> <Acceptor>
3

> <Donor>
1

> <RotBonds>
4

> <HAC>
27

> <Collection>
General

> <Reference_compound>
CHEMBL2289414

> <Similarity>
0.8020

$$$$
F2231-0026
  -ISIS-  06222321442D

 31 34  0  0  0  0  0  0  0  0999 V2000
   -3.2333    2.8958    0.0000 S   0  0  3  0  0  0  0  0  0  0  0  0
    0.2750    3.1708    0.0000 C   0  0  0  0  0  0  0  0  0  0  0  0
    4.4542    2.2500    0.0000 N   0  0  3  0  0  0  0  0  0  0  0  0
    0.0250    2.3833    0.0000 N   0  0  0  0  0  0  0  0  0  0  0  0
    1.0625    3.4208    0.0000 N   0  0  0  0  0  0  0  0  0  0  0  0
   -0.3833    3.6458    0.0000 S   0  0  0  0  0  0  0  0  0  0  0  0
   -2.4125    2.7250    0.0000 C   0  0  0  0  0  0  0  0  0  0  0  0
    3.8500    2.8083    0.0000 C   0  0  0  0  0  0  0  0  0  0  0  0
    1.6667    2.8625    0.0000 C   0  0  0  0  0  0  0  0  0  0  0  0
   -1.0583    3.1708    0.0000 C   0  0  0  0  0  0  0  0  0  0  0  0
    5.2667    2.3958    0.0000 C   0  0  0  0  0  0  0  0  0  0  0  0
    4.3250    1.4458    0.0000 C   0  0  0  0  0  0  0  0  0  0  0  0
   -0.8000    2.3833    0.0000 C   0  0  0  0  0  0  0  0  0  0  0  0
   -1.8583    3.3375    0.0000 C   0  0  0  0  0  0  0  0  0  0  0  0
   -4.0458    3.0583    0.0000 N   0  0  3  0  0  0  0  0  0  0  0  0
    3.0625    2.5625    0.0000 C   0  0  0  0  0  0  0  0  0  0  0  0
    2.4542    3.1125    0.0000 C   0  0  0  0  0  0  0  0  0  0  0  0
   -3.3958    2.0833    0.0000 O   0  0  0  0  0  0  0  0  0  0  0  0
   -3.0708    3.7083    0.0000 O   0  0  0  0  0  0  0  0  0  0  0  0
    1.4917    2.0625    0.0000 O   0  0  0  0  0  0  0  0  0  0  0  0
    5.6500    1.6583    0.0000 C   0  0  0  0  0  0  0  0  0  0  0  0
    5.0792    1.0708    0.0000 C   0  0  0  0  0  0  0  0  0  0  0  0
    5.6417    3.1125    0.0000 O   0  0  0  0  0  0  0  0  0  0  0  0
    3.5917    1.0708    0.0000 O   0  0  0  0  0  0  0  0  0  0  0  0
   -2.1583    1.9458    0.0000 C   0  0  0  0  0  0  0  0  0  0  0  0
   -1.3583    1.7708    0.0000 C   0  0  0  0  0  0  0  0  0  0  0  0
    4.0292    3.6083    0.0000 C   0  0  0  0  0  0  0  0  0  0  0  0
    2.6292    3.9208    0.0000 C   0  0  0  0  0  0  0  0  0  0  0  0
    3.4167    4.1667    0.0000 C   0  0  0  0  0  0  0  0  0  0  0  0
   -4.5833    2.4333    0.0000 C   0  0  0  0  0  0  0  0  0  0  0  0
   -4.3083    3.8333    0.0000 C   0  0  0  0  0  0  0  0  0  0  0  0
  2  6  1  0  0  0  0
  3  8  1  0  0  0  0
  4 13  1  0  0  0  0
  5  2  1  0  0  0  0
  6 10  1  0  0  0  0
  7  1  1  0  0  0  0
  8 16  1  0  0  0  0
  9  5  1  0  0  0  0
 10 14  1  0  0  0  0
 11  3  1  0  0  0  0
 12  3  1  0  0  0  0
 13 26  1  0  0  0  0
 14  7  2  0  0  0  0
 15  1  1  0  0  0  0
 16 17  2  0  0  0  0
 17  9  1  0  0  0  0
 18  1  2  0  0  0  0
 19  1  2  0  0  0  0
 20  9  2  0  0  0  0
 21 11  1  0  0  0  0
 22 12  1  0  0  0  0
 23 11  2  0  0  0  0
 24 12  2  0  0  0  0
 25  7  1  0  0  0  0
 26 25  2  0  0  0  0
 27 29  1  0  0  0  0
 28 17  1  0  0  0  0
 29 28  2  0  0  0  0
 30 15  1  0  0  0  0
 31 15  1  0  0  0  0
 10 13  2  0  0  0  0
  4  2  2  0  0  0  0
 27  8  2  0  0  0  0
 21 22  1  0  0  0  0
M  END
> <IDNUMBER>
F2231-0026

> <Chemical_Name>
N-[6-(dimethylsulfamoyl)-1,3-benzothiazol-2-yl]-3-(2,5-dioxopyrrolidin-1-yl)benzamide

> <CAS>
923193-23-1

> <PriceCoeff>
1.00

> <MW>
458.51

> <Description>
solid

> <FSP3>
0.20

> <clogP>
0.89

> <TPSA>
153.37

> <Acceptor>
6

> <Donor>
1

> <RotBonds>
5

> <HAC>
31

> <Collection>
General

$$$$
F1920-0045
  -ISIS-  06222321452D

 19 21  0  0  0  0  0  0  0  0999 V2000
    6.6167   -2.2792    0.0000 C   0  0  0  0  0  0  0  0  0  0  0  0
    6.6167   -1.4500    0.0000 C   0  0  0  0  0  0  0  0  0  0  0  0
    5.1917   -1.4500    0.0000 C   0  0  0  0  0  0  0  0  0  0  0  0
    5.9042   -1.0292    0.0000 C   0  0  0  0  0  0  0  0  0  0  0  0
    5.9042   -2.6917    0.0000 O   0  0  0  0  0  0  0  0  0  0  0  0
    5.1875   -2.2750    0.0000 C   0  0  0  0  0  0  0  0  0  0  0  0
    7.3292   -2.6917    0.0000 C   0  0  0  0  0  0  0  0  0  0  0  0
    4.4750   -1.0375    0.0000 C   0  0  0  0  0  0  0  0  0  0  0  0
    5.9042   -0.2042    0.0000 O   0  0  0  0  0  0  0  0  0  0  0  0
    4.4750   -2.6917    0.0000 C   0  0  0  0  0  0  0  0  0  0  0  0
    7.3292   -3.5167    0.0000 C   0  0  0  0  0  0  0  0  0  0  0  0
    8.0417   -2.2792    0.0000 C   0  0  0  0  0  0  0  0  0  0  0  0
    3.7625   -1.4500    0.0000 C   0  0  0  0  0  0  0  0  0  0  0  0
    8.7542   -3.5167    0.0000 C   0  0  0  0  0  0  0  0  0  0  0  0
    3.7625   -2.2792    0.0000 C   0  0  0  0  0  0  0  0  0  0  0  0
    8.7542   -2.6917    0.0000 C   0  0  0  0  0  0  0  0  0  0  0  0
    8.0417   -3.9292    0.0000 C   0  0  0  0  0  0  0  0  0  0  0  0
    9.4750   -3.9292    0.0000 Cl  0  0  0  0  0  0  0  0  0  0  0  0
    3.0500   -1.0417    0.0000 C   0  0  0  0  0  0  0  0  0  0  0  0
  2  1  2  0  0  0  0
  3  6  1  0  0  0  0
  4  2  1  0  0  0  0
  5  1  1  0  0  0  0
  6  5  1  0  0  0  0
  7  1  1  0  0  0  0
  8  3  2  0  0  0  0
  9  4  2  0  0  0  0
 10  6  2  0  0  0  0
 11  7  2  0  0  0  0
 12  7  1  0  0  0  0
 13 15  2  0  0  0  0
 14 16  1  0  0  0  0
 15 10  1  0  0  0  0
 16 12  2  0  0  0  0
 17 11  1  0  0  0  0
 18 14  1  0  0  0  0
 19 13  1  0  0  0  0
  4  3  1  0  0  0  0
 17 14  2  0  0  0  0
 13  8  1  0  0  0  0
M  END
> <IDNUMBER>
F1920-0045

> <Chemical_Name>
2-(4-chlorophenyl)-6-methyl-4H-chromen-4-one

> <CAS>
60402-30-4

> <PriceCoeff>
1.00

> <MW>
270.71

> <Description>
solid

> <FSP3>
0.06

> <clogP>
4.69

> <TPSA>
26.30

> <Acceptor>
2

> <Donor>
0

> <RotBonds>
1

> <HAC>
19

> <Collection>
General

> <Reference_compound>
CHEMBL275638

> <Similarity>
0.8930

$$$$
F3023-0381
  -ISIS-  06222321462D

 28 30  0  0  0  0  0  0  0  0999 V2000
   11.3167   -6.1542    0.0000 N   0  0  3  0  0  0  0  0  0  0  0  0
   10.8917   -6.7375    0.0000 C   0  0  0  0  0  0  0  0  0  0  0  0
   10.8917   -5.5750    0.0000 C   0  0  0  0  0  0  0  0  0  0  0  0
   10.2042   -6.5042    0.0000 C   0  0  3  0  0  0  0  0  0  0  0  0
   10.2167   -5.7917    0.0000 C   0  0  0  0  0  0  0  0  0  0  0  0
   12.0375   -6.1625    0.0000 C   0  0  0  0  0  0  0  0  0  0  0  0
    9.6292   -6.9292    0.0000 N   0  0  0  0  0  0  0  0  0  0  0  0
   14.1792   -6.1667    0.0000 C   0  0  0  0  0  0  0  0  0  0  0  0
   11.1125   -7.4167    0.0000 O   0  0  0  0  0  0  0  0  0  0  0  0
   11.1250   -4.8917    0.0000 O   0  0  0  0  0  0  0  0  0  0  0  0
   14.5375   -6.7917    0.0000 C   0  0  0  0  0  0  0  0  0  0  0  0
   13.4625   -6.1667    0.0000 C   0  0  0  0  0  0  0  0  0  0  0  0
    8.9792   -6.6292    0.0000 C   0  0  0  0  0  0  0  0  0  0  0  0
   14.1750   -7.4167    0.0000 C   0  0  0  0  0  0  0  0  0  0  0  0
   13.1042   -6.7875    0.0000 C   0  0  0  0  0  0  0  0  0  0  0  0
   12.3917   -6.7792    0.0000 C   0  0  0  0  0  0  0  0  0  0  0  0
   13.4542   -7.4125    0.0000 C   0  0  0  0  0  0  0  0  0  0  0  0
   14.5375   -5.5542    0.0000 O   0  0  0  0  0  0  0  0  0  0  0  0
    7.6792   -6.0417    0.0000 C   0  0  0  0  0  0  0  0  0  0  0  0
    8.9125   -5.9167    0.0000 C   0  0  0  0  0  0  0  0  0  0  0  0
    8.4042   -7.0500    0.0000 C   0  0  0  0  0  0  0  0  0  0  0  0
   15.2542   -6.8000    0.0000 O   0  0  0  0  0  0  0  0  0  0  0  0
    8.2625   -5.6250    0.0000 C   0  0  0  0  0  0  0  0  0  0  0  0
    7.7500   -6.7542    0.0000 C   0  0  0  0  0  0  0  0  0  0  0  0
    7.0250   -5.7417    0.0000 C   0  0  0  0  0  0  0  0  0  0  0  0
   15.2542   -5.5542    0.0000 C   0  0  0  0  0  0  0  0  0  0  0  0
   15.6042   -7.4167    0.0000 C   0  0  0  0  0  0  0  0  0  0  0  0
    6.4417   -6.1667    0.0000 C   0  0  0  0  0  0  0  0  0  0  0  0
  2  1  1  0  0  0  0
  3  1  1  0  0  0  0
  4  2  1  0  0  0  0
  5  3  1  0  0  0  0
  6  1  1  0  0  0  0
  7  4  1  0  0  0  0
  8 12  2  0  0  0  0
  9  2  2  0  0  0  0
 10  3  2  0  0  0  0
 11 14  2  0  0  0  0
 12 15  1  0  0  0  0
 13  7  1  0  0  0  0
 14 17  1  0  0  0  0
 15 16  1  0  0  0  0
 16  6  1  0  0  0  0
 17 15  2  0  0  0  0
 18  8  1  0  0  0  0
 19 24  1  0  0  0  0
 20 13  2  0  0  0  0
 21 13  1  0  0  0  0
 22 11  1  0  0  0  0
 23 20  1  0  0  0  0
 24 21  2  0  0  0  0
 25 19  1  0  0  0  0
 26 18  1  0  0  0  0
 27 22  1  0  0  0  0
 28 25  1  0  0  0  0
  4  5  1  0  0  0  0
 11  8  1  0  0  0  0
 19 23  2  0  0  0  0
M  END
> <IDNUMBER>
F3023-0381

> <Chemical_Name>
1-[2-(3,4-dimethoxyphenyl)ethyl]-3-[(4-ethylphenyl)amino]pyrrolidine-2,5-dione

> <CAS>
1008185-96-3

> <PriceCoeff>
1.00

> <MW>
382.45

> <Description>
solid

> <FSP3>
0.36

> <clogP>
4.44

> <TPSA>
67.87

> <Acceptor>
5

> <Donor>
1

> <RotBonds>
8

> <HAC>
28

> <Collection>
General

$$$$
F3096-1151
  -ISIS-  06222321462D

 20 21  0  0  0  0  0  0  0  0999 V2000
    6.7000   -8.1667    0.0000 C   0  0  0  0  0  0  0  0  0  0  0  0
    6.0500   -9.3667    0.0000 N   0  3  0  0  0  0  0  0  0  0  0  0
    6.2167   -7.3292    0.0000 C   0  0  0  0  0  0  0  0  0  0  0  0
    4.7167   -6.4042    0.0000 C   0  0  0  0  0  0  0  0  0  0  0  0
    5.2542   -7.3292    0.0000 N   0  0  0  0  0  0  0  0  0  0  0  0
    7.6542   -8.1542    0.0000 C   0  0  0  0  0  0  0  0  0  0  0  0
    4.6875   -9.4000    0.0000 O   0  5  0  0  0  0  0  0  0  0  0  0
    3.6500   -6.4042    0.0000 C   0  0  0  0  0  0  0  0  0  0  0  0
    6.7667  -10.5292    0.0000 O   0  0  0  0  0  0  0  0  0  0  0  0
    5.2500   -5.4875    0.0000 O   0  0  0  0  0  0  0  0  0  0  0  0
    6.7000   -6.5000    0.0000 C   0  0  0  0  0  0  0  0  0  0  0  0
    3.1167   -5.4792    0.0000 C   0  0  0  0  0  0  0  0  0  0  0  0
    3.1167   -7.3292    0.0000 C   0  0  0  0  0  0  0  0  0  0  0  0
    8.1375   -7.3292    0.0000 C   0  0  0  0  0  0  0  0  0  0  0  0
    1.5167   -6.4042    0.0000 C   0  0  0  0  0  0  0  0  0  0  0  0
    7.6542   -6.5000    0.0000 C   0  0  0  0  0  0  0  0  0  0  0  0
    2.0542   -7.3292    0.0000 C   0  0  0  0  0  0  0  0  0  0  0  0
    2.0542   -5.4792    0.0000 C   0  0  0  0  0  0  0  0  0  0  0  0
    9.1000   -7.3167    0.0000 Cl  0  0  0  0  0  0  0  0  0  0  0  0
    0.4500   -6.4042    0.0000 Br  0  0  0  0  0  0  0  0  0  0  0  0
  2  1  1  0  0  0  0
  3  1  2  0  0  0  0
  4  5  1  0  0  0  0
  5  3  1  0  0  0  0
  6  1  1  0  0  0  0
  7  2  1  0  0  0  0
  8  4  1  0  0  0  0
  9  2  2  0  0  0  0
 10  4  2  0  0  0  0
 11  3  1  0  0  0  0
 12  8  2  0  0  0  0
 13  8  1  0  0  0  0
 14  6  2  0  0  0  0
 15 17  1  0  0  0  0
 16 14  1  0  0  0  0
 17 13  2  0  0  0  0
 18 12  1  0  0  0  0
 19 14  1  0  0  0  0
 20 15  1  0  0  0  0
 11 16  2  0  0  0  0
 18 15  2  0  0  0  0
M  CHG  2   2   1   7  -1
M  END
> <IDNUMBER>
F3096-1151

> <Chemical_Name>
4-bromo-N-(4-chloro-2-nitrophenyl)benzamide

> <CAS>
119200-04-3

> <PriceCoeff>
1.00

> <MW>
355.57

> <Description>
solid

> <FSP3>
0.00

> <clogP>
4.18

> <TPSA>
72.24

> <Acceptor>
3

> <Donor>
1

> <RotBonds>
3

> <HAC>
20

> <Collection>
General

$$$$
F3139-0634
  -ISIS-  06222321462D

 21 23  0  0  0  0  0  0  0  0999 V2000
    5.2750   -0.4292    0.0000 C   0  0  0  0  0  0  0  0  0  0  0  0
    5.2750   -1.2667    0.0000 C   0  0  0  0  0  0  0  0  0  0  0  0
    4.5542   -0.0125    0.0000 O   0  0  0  0  0  0  0  0  0  0  0  0
    3.8375   -0.4292    0.0000 C   0  0  0  0  0  0  0  0  0  0  0  0
    4.5500   -1.6792    0.0000 C   0  0  0  0  0  0  0  0  0  0  0  0
    5.9875   -0.0250    0.0000 C   0  0  0  0  0  0  0  0  0  0  0  0
    3.8292   -1.2667    0.0000 C   0  0  0  0  0  0  0  0  0  0  0  0
    6.7042   -0.4417    0.0000 C   0  0  0  0  0  0  0  0  0  0  0  0
    3.1167   -0.0167    0.0000 C   0  0  0  0  0  0  0  0  0  0  0  0
    7.4167   -0.0292    0.0000 C   0  0  0  0  0  0  0  0  0  0  0  0
    3.1167   -1.6750    0.0000 C   0  0  0  0  0  0  0  0  0  0  0  0
    5.9917    0.7958    0.0000 C   0  0  0  0  0  0  0  0  0  0  0  0
    4.5500   -2.5042    0.0000 O   0  0  0  0  0  0  0  0  0  0  0  0
    7.4167    0.7958    0.0000 C   0  0  0  0  0  0  0  0  0  0  0  0
    2.4042   -0.4375    0.0000 C   0  0  0  0  0  0  0  0  0  0  0  0
    6.6917   -1.2667    0.0000 Cl  0  0  0  0  0  0  0  0  0  0  0  0
    6.7042    1.2083    0.0000 C   0  0  0  0  0  0  0  0  0  0  0  0
    2.4042   -1.2625    0.0000 C   0  0  0  0  0  0  0  0  0  0  0  0
    8.1375    1.2083    0.0000 Cl  0  0  0  0  0  0  0  0  0  0  0  0
    1.6917   -0.0167    0.0000 O   0  0  0  0  0  0  0  0  0  0  0  0
    0.9792   -0.4375    0.0000 C   0  0  0  0  0  0  0  0  0  0  0  0
  2  1  2  0  0  0  0
  3  1  1  0  0  0  0
  4  3  1  0  0  0  0
  5  2  1  0  0  0  0
  6  1  1  0  0  0  0
  7  4  1  0  0  0  0
  8  6  2  0  0  0  0
  9  4  2  0  0  0  0
 10  8  1  0  0  0  0
 11  7  2  0  0  0  0
 12  6  1  0  0  0  0
 13  5  2  0  0  0  0
 14 17  1  0  0  0  0
 15  9  1  0  0  0  0
 16  8  1  0  0  0  0
 17 12  2  0  0  0  0
 18 15  2  0  0  0  0
 19 14  1  0  0  0  0
 20 15  1  0  0  0  0
 21 20  1  0  0  0  0
  5  7  1  0  0  0  0
 10 14  2  0  0  0  0
 18 11  1  0  0  0  0
M  END
> <IDNUMBER>
F3139-0634

> <Chemical_Name>
2-(2,4-dichlorophenyl)-7-methoxy-4H-chromen-4-one

> <CAS>
637747-69-4

> <PriceCoeff>
1.00

> <MW>
321.15

> <Description>
solid

> <FSP3>
0.06

> <clogP>
4.76

> <TPSA>
35.53

> <Acceptor>
3

> <Donor>
0

> <RotBonds>
2

> <HAC>
21

> <Collection>
General

> <Reference_compound>
CHEMBL275638

> <Similarity>
0.8200

$$$$
F3139-0626
  -ISIS-  06222321462D

 19 21  0  0  0  0  0  0  0  0999 V2000
    5.2750   -0.4292    0.0000 C   0  0  0  0  0  0  0  0  0  0  0  0
    5.2750   -1.2667    0.0000 C   0  0  0  0  0  0  0  0  0  0  0  0
    3.8292   -1.2667    0.0000 C   0  0  0  0  0  0  0  0  0  0  0  0
    4.5500   -1.6792    0.0000 C   0  0  0  0  0  0  0  0  0  0  0  0
    4.5542   -0.0125    0.0000 O   0  0  0  0  0  0  0  0  0  0  0  0
    3.8375   -0.4292    0.0000 C   0  0  0  0  0  0  0  0  0  0  0  0
    5.9875   -0.0250    0.0000 C   0  0  0  0  0  0  0  0  0  0  0  0
    3.1167   -1.6750    0.0000 C   0  0  0  0  0  0  0  0  0  0  0  0
    4.5500   -2.5042    0.0000 O   0  0  0  0  0  0  0  0  0  0  0  0
    3.1167   -0.0167    0.0000 C   0  0  0  0  0  0  0  0  0  0  0  0
    6.7042   -0.4417    0.0000 C   0  0  0  0  0  0  0  0  0  0  0  0
    5.9917    0.7958    0.0000 C   0  0  0  0  0  0  0  0  0  0  0  0
    2.4042   -1.2625    0.0000 C   0  0  0  0  0  0  0  0  0  0  0  0
    2.4042   -0.4375    0.0000 C   0  0  0  0  0  0  0  0  0  0  0  0
    6.7042    1.2083    0.0000 C   0  0  0  0  0  0  0  0  0  0  0  0
    7.4167   -0.0292    0.0000 C   0  0  0  0  0  0  0  0  0  0  0  0
    7.4167    0.7958    0.0000 C   0  0  0  0  0  0  0  0  0  0  0  0
    1.6917   -1.6750    0.0000 Cl  0  0  0  0  0  0  0  0  0  0  0  0
    8.1375    1.2083    0.0000 C   0  0  0  0  0  0  0  0  0  0  0  0
  2  1  2  0  0  0  0
  3  6  1  0  0  0  0
  4  2  1  0  0  0  0
  5  1  1  0  0  0  0
  6  5  1  0  0  0  0
  7  1  1  0  0  0  0
  8  3  2  0  0  0  0
  9  4  2  0  0  0  0
 10  6  2  0  0  0  0
 11  7  2  0  0  0  0
 12  7  1  0  0  0  0
 13 14  2  0  0  0  0
 14 10  1  0  0  0  0
 15 12  2  0  0  0  0
 16 11  1  0  0  0  0
 17 15  1  0  0  0  0
 18 13  1  0  0  0  0
 19 17  1  0  0  0  0
  3  4  1  0  0  0  0
 16 17  2  0  0  0  0
 13  8  1  0  0  0  0
M  END
> <IDNUMBER>
F3139-0626

> <Chemical_Name>
6-chloro-2-(4-methylphenyl)-4H-chromen-4-one

> <CAS>
41255-31-6

> <PriceCoeff>
1.00

> <MW>
270.71

> <Description>
solid

> <FSP3>
0.06

> <clogP>
4.69

> <TPSA>
26.30

> <Acceptor>
2

> <Donor>
0

> <RotBonds>
1

> <HAC>
19

> <Collection>
General

> <Reference_compound>
CHEMBL275638

> <Similarity>
0.8880

$$$$
F3023-0886
  -ISIS-  06222321152D

 27 29  0  0  0  0  0  0  0  0999 V2000
    4.1417   -6.4042    0.0000 N   0  0  3  0  0  0  0  0  0  0  0  0
    4.5625   -5.8292    0.0000 C   0  0  0  0  0  0  0  0  0  0  0  0
    4.5667   -6.9750    0.0000 C   0  0  0  0  0  0  0  0  0  0  0  0
    5.2417   -6.7542    0.0000 C   0  0  3  0  0  0  0  0  0  0  0  0
    5.2375   -6.0417    0.0000 C   0  0  0  0  0  0  0  0  0  0  0  0
    5.8125   -7.1667    0.0000 N   0  0  0  0  0  0  0  0  0  0  0  0
    3.4375   -6.4042    0.0000 C   0  0  0  0  0  0  0  0  0  0  0  0
    0.9542   -5.8125    0.0000 C   0  0  3  0  0  0  0  0  0  0  0  0
    4.3375   -5.1542    0.0000 O   0  0  0  0  0  0  0  0  0  0  0  0
    4.3542   -7.6500    0.0000 O   0  0  0  0  0  0  0  0  0  0  0  0
    1.3167   -6.4167    0.0000 S   0  0  0  0  0  0  0  0  0  0  0  0
    3.0792   -5.7917    0.0000 C   0  0  0  0  0  0  0  0  0  0  0  0
    3.0917   -7.0250    0.0000 C   0  0  0  0  0  0  0  0  0  0  0  0
    6.4625   -6.8792    0.0000 C   0  0  0  0  0  0  0  0  0  0  0  0
    2.0250   -6.4167    0.0000 C   0  0  0  0  0  0  0  0  0  0  0  0
    0.2417   -5.8167    0.0000 F   0  0  0  0  0  0  0  0  0  0  0  0
    1.3042   -5.1917    0.0000 F   0  0  0  0  0  0  0  0  0  0  0  0
    7.7542   -6.3042    0.0000 C   0  0  0  0  0  0  0  0  0  0  0  0
    2.3792   -7.0292    0.0000 C   0  0  0  0  0  0  0  0  0  0  0  0
    2.3750   -5.8000    0.0000 C   0  0  0  0  0  0  0  0  0  0  0  0
    6.5292   -6.1750    0.0000 C   0  0  0  0  0  0  0  0  0  0  0  0
    7.0292   -7.2917    0.0000 C   0  0  0  0  0  0  0  0  0  0  0  0
    7.6792   -7.0042    0.0000 C   0  0  0  0  0  0  0  0  0  0  0  0
    7.1750   -5.8875    0.0000 C   0  0  0  0  0  0  0  0  0  0  0  0
    8.4042   -6.0125    0.0000 O   0  0  0  0  0  0  0  0  0  0  0  0
    8.9792   -6.4292    0.0000 C   0  0  0  0  0  0  0  0  0  0  0  0
    9.6250   -6.1375    0.0000 C   0  0  0  0  0  0  0  0  0  0  0  0
  2  1  1  0  0  0  0
  3  1  1  0  0  0  0
  4  3  1  0  0  0  0
  5  2  1  0  0  0  0
  6  4  1  0  0  0  0
  7  1  1  0  0  0  0
  8 11  1  0  0  0  0
  9  2  2  0  0  0  0
 10  3  2  0  0  0  0
 11 15  1  0  0  0  0
 12  7  2  0  0  0  0
 13  7  1  0  0  0  0
 14  6  1  0  0  0  0
 15 19  1  0  0  0  0
 16  8  1  0  0  0  0
 17  8  1  0  0  0  0
 18 23  2  0  0  0  0
 19 13  2  0  0  0  0
 20 12  1  0  0  0  0
 21 14  1  0  0  0  0
 22 14  2  0  0  0  0
 23 22  1  0  0  0  0
 24 21  2  0  0  0  0
 25 18  1  0  0  0  0
 26 25  1  0  0  0  0
 27 26  1  0  0  0  0
  5  4  1  0  0  0  0
 15 20  2  0  0  0  0
 24 18  1  0  0  0  0
M  END
> <IDNUMBER>
F3023-0886

> <Chemical_Name>
1-{4-[(difluoromethyl)sulfanyl]phenyl}-3-[(4-ethoxyphenyl)amino]pyrrolidine-2,5-dione

> <CAS>
1009675-11-9

> <PriceCoeff>
1.00

> <MW>
392.42

> <Description>
solid

> <FSP3>
0.26

> <clogP>
4.12

> <TPSA>
83.94

> <Acceptor>
4

> <Donor>
1

> <RotBonds>
7

> <HAC>
27

> <Collection>
General

$$$$
F3205-0104
  -ISIS-  06222321152D

 27 29  0  0  0  0  0  0  0  0999 V2000
    1.5667   -0.0542    0.0000 N   0  0  3  0  0  0  0  0  0  0  0  0
    0.7417   -0.0500    0.0000 C   0  0  0  0  0  0  0  0  0  0  0  0
    0.2542    0.6208    0.0000 C   0  0  0  0  0  0  0  0  0  0  0  0
    2.0542    0.6083    0.0000 C   0  0  0  0  0  0  0  0  0  0  0  0
    2.0417   -0.7292    0.0000 C   0  0  0  0  0  0  0  0  0  0  0  0
    2.8292   -0.4792    0.0000 C   0  0  3  0  0  0  0  0  0  0  0  0
    2.8375    0.3458    0.0000 C   0  0  0  0  0  0  0  0  0  0  0  0
    4.9750   -0.9125    0.0000 C   0  0  0  0  0  0  0  0  0  0  0  0
    3.5417   -0.9000    0.0000 S   0  0  0  0  0  0  0  0  0  0  0  0
    0.5167    1.4083    0.0000 C   0  0  0  0  0  0  0  0  0  0  0  0
    0.2500   -0.7167    0.0000 S   0  0  0  0  0  0  0  0  0  0  0  0
    4.2625   -0.4917    0.0000 C   0  0  0  0  0  0  0  0  0  0  0  0
    4.9667   -1.7375    0.0000 C   0  0  0  0  0  0  0  0  0  0  0  0
   -0.5333    0.3708    0.0000 C   0  0  0  0  0  0  0  0  0  0  0  0
   -0.5333   -0.4542    0.0000 C   0  0  0  0  0  0  0  0  0  0  0  0
    1.8042    1.3958    0.0000 O   0  0  0  0  0  0  0  0  0  0  0  0
    1.7875   -1.5125    0.0000 O   0  0  0  0  0  0  0  0  0  0  0  0
    1.3250    1.5708    0.0000 O   0  0  0  0  0  0  0  0  0  0  0  0
    4.2500   -2.1417    0.0000 O   0  0  0  0  0  0  0  0  0  0  0  0
   -0.0333    2.0208    0.0000 O   0  0  0  0  0  0  0  0  0  0  0  0
    5.6750   -2.1542    0.0000 O   0  0  0  0  0  0  0  0  0  0  0  0
    5.6917   -0.5042    0.0000 C   0  0  0  0  0  0  0  0  0  0  0  0
    4.2667    0.3375    0.0000 C   0  0  0  0  0  0  0  0  0  0  0  0
    0.2292    2.8000    0.0000 C   0  0  0  0  0  0  0  0  0  0  0  0
    5.6667   -2.9792    0.0000 C   0  0  0  0  0  0  0  0  0  0  0  0
    5.7000    0.3250    0.0000 C   0  0  0  0  0  0  0  0  0  0  0  0
    4.9875    0.7458    0.0000 C   0  0  0  0  0  0  0  0  0  0  0  0
  2  1  1  0  0  0  0
  3  2  2  0  0  0  0
  4  1  1  0  0  0  0
  5  1  1  0  0  0  0
  6  5  1  0  0  0  0
  7  4  1  0  0  0  0
  8 12  1  0  0  0  0
  9  6  1  0  0  0  0
 10  3  1  0  0  0  0
 11  2  1  0  0  0  0
 12  9  1  0  0  0  0
 13  8  1  0  0  0  0
 14  3  1  0  0  0  0
 15 11  1  0  0  0  0
 16  4  2  0  0  0  0
 17  5  2  0  0  0  0
 18 10  2  0  0  0  0
 19 13  2  0  0  0  0
 20 10  1  0  0  0  0
 21 13  1  0  0  0  0
 22  8  2  0  0  0  0
 23 12  2  0  0  0  0
 24 20  1  0  0  0  0
 25 21  1  0  0  0  0
 26 27  2  0  0  0  0
 27 23  1  0  0  0  0
  6  7  1  0  0  0  0
 15 14  2  0  0  0  0
 26 22  1  0  0  0  0
M  END
> <IDNUMBER>
F3205-0104

> <Chemical_Name>
methyl 2-(3-{[2-(methoxycarbonyl)phenyl]sulfanyl}-2,5-dioxopyrrolidin-1-yl)thiophene-3-carboxylate

> <CAS>
881485-29-6

> <PriceCoeff>
1.00

> <MW>
405.44

> <Description>
solid

> <FSP3>
0.22

> <clogP>
3.25

> <TPSA>
143.52

> <Acceptor>
6

> <Donor>
0

> <RotBonds>
7

> <HAC>
27

> <Collection>
General

$$$$
F3139-0625
  -ISIS-  06222321462D

 19 21  0  0  0  0  0  0  0  0999 V2000
    5.2750   -0.4292    0.0000 C   0  0  0  0  0  0  0  0  0  0  0  0
    5.2750   -1.2667    0.0000 C   0  0  0  0  0  0  0  0  0  0  0  0
    3.8292   -1.2667    0.0000 C   0  0  0  0  0  0  0  0  0  0  0  0
    4.5500   -1.6792    0.0000 C   0  0  0  0  0  0  0  0  0  0  0  0
    4.5542   -0.0125    0.0000 O   0  0  0  0  0  0  0  0  0  0  0  0
    3.8375   -0.4292    0.0000 C   0  0  0  0  0  0  0  0  0  0  0  0
    5.9875   -0.0250    0.0000 C   0  0  0  0  0  0  0  0  0  0  0  0
    3.1167   -1.6750    0.0000 C   0  0  0  0  0  0  0  0  0  0  0  0
    4.5500   -2.5042    0.0000 O   0  0  0  0  0  0  0  0  0  0  0  0
    3.1167   -0.0167    0.0000 C   0  0  0  0  0  0  0  0  0  0  0  0
    6.7042   -0.4417    0.0000 C   0  0  0  0  0  0  0  0  0  0  0  0
    5.9917    0.7958    0.0000 C   0  0  0  0  0  0  0  0  0  0  0  0
    2.4042   -1.2625    0.0000 C   0  0  0  0  0  0  0  0  0  0  0  0
    7.4167    0.7958    0.0000 C   0  0  0  0  0  0  0  0  0  0  0  0
    2.4042   -0.4375    0.0000 C   0  0  0  0  0  0  0  0  0  0  0  0
    6.7042    1.2083    0.0000 C   0  0  0  0  0  0  0  0  0  0  0  0
    7.4167   -0.0292    0.0000 C   0  0  0  0  0  0  0  0  0  0  0  0
    1.6917   -1.6750    0.0000 F   0  0  0  0  0  0  0  0  0  0  0  0
    8.1375    1.2083    0.0000 Cl  0  0  0  0  0  0  0  0  0  0  0  0
  2  1  2  0  0  0  0
  3  6  1  0  0  0  0
  4  2  1  0  0  0  0
  5  1  1  0  0  0  0
  6  5  1  0  0  0  0
  7  1  1  0  0  0  0
  8  3  2  0  0  0  0
  9  4  2  0  0  0  0
 10  6  2  0  0  0  0
 11  7  2  0  0  0  0
 12  7  1  0  0  0  0
 13 15  2  0  0  0  0
 14 16  1  0  0  0  0
 15 10  1  0  0  0  0
 16 12  2  0  0  0  0
 17 11  1  0  0  0  0
 18 13  1  0  0  0  0
 19 14  1  0  0  0  0
  3  4  1  0  0  0  0
 17 14  2  0  0  0  0
 13  8  1  0  0  0  0
M  END
> <IDNUMBER>
F3139-0625

> <Chemical_Name>
2-(4-chlorophenyl)-6-fluoro-4H-chromen-4-one

> <CAS>
288400-97-5

> <PriceCoeff>
1.00

> <MW>
274.67

> <Description>
solid

> <FSP3>
0.00

> <clogP>
4.34

> <TPSA>
26.30

> <Acceptor>
2

> <Donor>
0

> <RotBonds>
1

> <HAC>
19

> <Collection>
General

> <Reference_compound>
CHEMBL275638

> <Similarity>
0.8500

$$$$
F3385-3067
  -ISIS-  06222321462D

 32 35  0  0  0  0  0  0  0  0999 V2000
    6.8292   -0.3000    0.0000 C   0  0  0  0  0  0  0  0  0  0  0  0
    5.3917    0.5333    0.0000 C   0  0  0  0  0  0  0  0  0  0  0  0
    5.3917   -0.3000    0.0000 C   0  0  0  0  0  0  0  0  0  0  0  0
    6.1042   -0.7125    0.0000 C   0  0  0  0  0  0  0  0  0  0  0  0
    4.6792    0.9458    0.0000 C   0  0  0  0  0  0  0  0  0  0  0  0
    6.1125    0.9583    0.0000 O   0  0  0  0  0  0  0  0  0  0  0  0
    6.8292    0.5333    0.0000 C   0  0  0  0  0  0  0  0  0  0  0  0
    7.5417   -0.7125    0.0000 C   0  0  0  0  0  0  0  0  0  0  0  0
    4.6792   -0.7042    0.0000 C   0  0  0  0  0  0  0  0  0  0  0  0
    8.2542   -0.3042    0.0000 C   0  0  0  0  0  0  0  0  0  0  0  0
    4.6750    1.7708    0.0000 C   0  0  0  0  0  0  0  0  0  0  0  0
    3.9667    0.5333    0.0000 C   0  0  0  0  0  0  0  0  0  0  0  0
    8.9667   -0.7167    0.0000 C   0  0  0  0  0  0  0  0  0  0  0  0
    6.1042   -1.5375    0.0000 O   0  0  0  0  0  0  0  0  0  0  0  0
    3.9625    2.1833    0.0000 N   0  0  3  0  0  0  0  0  0  0  0  0
    8.9667   -1.5417    0.0000 C   0  0  0  0  0  0  0  0  0  0  0  0
    7.5375   -1.5417    0.0000 C   0  0  0  0  0  0  0  0  0  0  0  0
    3.9667   -0.2917    0.0000 C   0  0  0  0  0  0  0  0  0  0  0  0
    8.2500   -1.9542    0.0000 C   0  0  0  0  0  0  0  0  0  0  0  0
    3.2500    1.7708    0.0000 C   0  0  0  0  0  0  0  0  0  0  0  0
    9.6792   -0.3042    0.0000 O   0  0  0  0  0  0  0  0  0  0  0  0
    3.2500    0.9458    0.0000 O   0  0  0  0  0  0  0  0  0  0  0  0
    2.5292    2.1833    0.0000 C   0  0  0  0  0  0  0  0  0  0  0  0
    9.6792   -1.9542    0.0000 O   0  0  0  0  0  0  0  0  0  0  0  0
    3.9625    3.0083    0.0000 C   0  0  0  0  0  0  0  0  0  0  0  0
    9.6792    0.5208    0.0000 C   0  0  0  0  0  0  0  0  0  0  0  0
    2.5375    3.0208    0.0000 C   0  0  0  0  0  0  0  0  0  0  0  0
    1.8167    1.7708    0.0000 C   0  0  0  0  0  0  0  0  0  0  0  0
   10.3917   -1.5417    0.0000 C   0  0  0  0  0  0  0  0  0  0  0  0
    1.1042    2.1833    0.0000 C   0  0  0  0  0  0  0  0  0  0  0  0
    1.8167    3.4333    0.0000 C   0  0  0  0  0  0  0  0  0  0  0  0
    1.1042    3.0208    0.0000 C   0  0  0  0  0  0  0  0  0  0  0  0
  2  6  1  0  0  0  0
  3  4  1  0  0  0  0
  4  1  1  0  0  0  0
  5  2  2  0  0  0  0
  6  7  1  0  0  0  0
  7  1  2  0  0  0  0
  8  1  1  0  0  0  0
  9  3  2  0  0  0  0
 10  8  1  0  0  0  0
 11  5  1  0  0  0  0
 12  5  1  0  0  0  0
 13 10  2  0  0  0  0
 14  4  2  0  0  0  0
 15 11  1  0  0  0  0
 16 19  2  0  0  0  0
 17  8  2  0  0  0  0
 18  9  1  0  0  0  0
 19 17  1  0  0  0  0
 20 15  1  0  0  0  0
 21 13  1  0  0  0  0
 22 12  1  0  0  0  0
 23 20  1  0  0  0  0
 24 16  1  0  0  0  0
 25 15  1  0  0  0  0
 26 21  1  0  0  0  0
 27 23  2  0  0  0  0
 28 23  1  0  0  0  0
 29 24  1  0  0  0  0
 30 28  2  0  0  0  0
 31 27  1  0  0  0  0
 32 30  1  0  0  0  0
  3  2  1  0  0  0  0
 13 16  1  0  0  0  0
 18 12  2  0  0  0  0
 32 31  2  0  0  0  0
M  END
> <IDNUMBER>
F3385-3067

> <Chemical_Name>
8-{[benzyl(methyl)amino]methyl}-3-(3,4-dimethoxyphenyl)-7-hydroxy-4H-chromen-4-one

> <CAS>
845652-45-1

> <PriceCoeff>
1.00

> <MW>
431.48

> <Description>
solid

> <FSP3>
0.19

> <clogP>
3.93

> <TPSA>
68.23

> <Acceptor>
5

> <Donor>
2

> <RotBonds>
7

> <HAC>
32

> <Collection>
General

> <Reference_compound>
CHEMBL455048

> <Similarity>
0.8230

$$$$
F3385-1240
  -ISIS-  06222321152D

 28 31  0  0  0  0  0  0  0  0999 V2000
    6.7292   -0.6125    0.0000 C   0  0  0  0  0  0  0  0  0  0  0  0
    6.0042   -1.0250    0.0000 C   0  0  0  0  0  0  0  0  0  0  0  0
    5.2875   -0.6125    0.0000 C   0  0  0  0  0  0  0  0  0  0  0  0
    6.7292    0.2208    0.0000 C   0  0  0  0  0  0  0  0  0  0  0  0
    5.2917    0.2208    0.0000 C   0  0  0  0  0  0  0  0  0  0  0  0
    6.0042    0.6458    0.0000 O   0  0  0  0  0  0  0  0  0  0  0  0
    7.4375   -1.0250    0.0000 C   0  0  0  0  0  0  0  0  0  0  0  0
    4.5750   -1.0167    0.0000 C   0  0  0  0  0  0  0  0  0  0  0  0
    4.5750    0.6333    0.0000 C   0  0  0  0  0  0  0  0  0  0  0  0
    6.0042   -1.8500    0.0000 O   0  0  0  0  0  0  0  0  0  0  0  0
    3.8625    0.2208    0.0000 C   0  0  0  0  0  0  0  0  0  0  0  0
    7.4292   -1.8542    0.0000 C   0  0  0  0  0  0  0  0  0  0  0  0
    8.1500   -0.6167    0.0000 C   0  0  0  0  0  0  0  0  0  0  0  0
    3.1500    0.6333    0.0000 O   0  0  0  0  0  0  0  0  0  0  0  0
    3.8625   -0.6042    0.0000 C   0  0  0  0  0  0  0  0  0  0  0  0
    0.2917    1.4583    0.0000 C   0  0  0  0  0  0  0  0  0  0  0  0
    1.7167    0.6333    0.0000 C   0  0  0  0  0  0  0  0  0  0  0  0
    8.8625   -1.8542    0.0000 C   0  0  0  0  0  0  0  0  0  0  0  0
    2.4292    0.2208    0.0000 C   0  0  0  0  0  0  0  0  0  0  0  0
    8.8625   -1.0292    0.0000 C   0  0  0  0  0  0  0  0  0  0  0  0
    8.1417   -2.2667    0.0000 C   0  0  0  0  0  0  0  0  0  0  0  0
   -0.4208    1.8708    0.0000 F   0  0  0  0  0  0  0  0  0  0  0  0
    0.2917    0.6250    0.0000 C   0  0  0  0  0  0  0  0  0  0  0  0
    1.0042    1.8708    0.0000 C   0  0  0  0  0  0  0  0  0  0  0  0
    1.0125    0.2208    0.0000 C   0  0  0  0  0  0  0  0  0  0  0  0
    1.7250    1.4583    0.0000 C   0  0  0  0  0  0  0  0  0  0  0  0
    9.5750   -2.2667    0.0000 O   0  0  0  0  0  0  0  0  0  0  0  0
   10.2917   -1.8542    0.0000 C   0  0  0  0  0  0  0  0  0  0  0  0
  2  1  1  0  0  0  0
  3  2  1  0  0  0  0
  4  1  2  0  0  0  0
  5  6  1  0  0  0  0
  6  4  1  0  0  0  0
  7  1  1  0  0  0  0
  8  3  2  0  0  0  0
  9  5  2  0  0  0  0
 10  2  2  0  0  0  0
 11  9  1  0  0  0  0
 12  7  2  0  0  0  0
 13  7  1  0  0  0  0
 14 11  1  0  0  0  0
 15  8  1  0  0  0  0
 16 24  2  0  0  0  0
 17 19  1  0  0  0  0
 18 20  1  0  0  0  0
 19 14  1  0  0  0  0
 20 13  2  0  0  0  0
 21 12  1  0  0  0  0
 22 16  1  0  0  0  0
 23 25  2  0  0  0  0
 24 26  1  0  0  0  0
 25 17  1  0  0  0  0
 26 17  2  0  0  0  0
 27 18  1  0  0  0  0
 28 27  1  0  0  0  0
 18 21  2  0  0  0  0
  3  5  1  0  0  0  0
 15 11  2  0  0  0  0
 16 23  1  0  0  0  0
M  END
> <IDNUMBER>
F3385-1240

> <Chemical_Name>
7-[(4-fluorophenyl)methoxy]-3-(4-methoxyphenyl)-4H-chromen-4-one

> <CAS>
331809-55-3

> <PriceCoeff>
1.00

> <MW>
376.38

> <Description>
solid

> <FSP3>
0.09

> <clogP>
4.93

> <TPSA>
44.76

> <Acceptor>
4

> <Donor>
0

> <RotBonds>
5

> <HAC>
28

> <Collection>
General

> <Reference_compound>
CHEMBL44

> <Similarity>
0.8170

$$$$
F0779-0470
  -ISIS-  06222321452D

 26 30  0  0  0  0  0  0  0  0999 V2000
    0.7875    0.8208    0.0000 C   0  0  0  0  0  0  0  0  0  0  0  0
    1.9375   -1.1000    0.0000 N   0  0  3  0  0  0  0  0  0  0  0  0
    0.3542    0.2208    0.0000 N   0  0  0  0  0  0  0  0  0  0  0  0
   -0.3458    0.4625    0.0000 C   0  0  0  0  0  0  0  0  0  0  0  0
   -0.3125    1.2125    0.0000 C   0  0  0  0  0  0  0  0  0  0  0  0
    0.4000    1.4333    0.0000 S   0  0  0  0  0  0  0  0  0  0  0  0
   -1.0000    0.1125    0.0000 C   0  0  0  0  0  0  0  0  0  0  0  0
    1.5375    0.8208    0.0000 N   0  0  0  0  0  0  0  0  0  0  0  0
    2.6667   -1.1875    0.0000 C   0  0  0  0  0  0  0  0  0  0  0  0
    1.6667   -1.7875    0.0000 C   0  0  0  0  0  0  0  0  0  0  0  0
   -1.6208    1.2458    0.0000 C   0  0  0  0  0  0  0  0  0  0  0  0
   -1.6500    0.4958    0.0000 C   0  0  0  0  0  0  0  0  0  0  0  0
    1.9167    0.1625    0.0000 C   0  0  0  0  0  0  0  0  0  0  0  0
   -0.9708    1.5958    0.0000 C   0  0  0  0  0  0  0  0  0  0  0  0
    1.5667   -0.4542    0.0000 C   0  0  0  0  0  0  0  0  0  0  0  0
   -2.3208    0.1333    0.0000 C   0  0  0  0  0  0  0  0  0  0  0  0
   -2.3333    1.4625    0.0000 C   0  0  0  0  0  0  0  0  0  0  0  0
    2.8500   -1.9042    0.0000 C   0  0  0  0  0  0  0  0  0  0  0  0
    2.2042   -2.2667    0.0000 C   0  0  0  0  0  0  0  0  0  0  0  0
    3.2000   -0.6167    0.0000 O   0  0  0  0  0  0  0  0  0  0  0  0
    0.8875   -2.0000    0.0000 O   0  0  0  0  0  0  0  0  0  0  0  0
    2.6792    0.1833    0.0000 O   0  0  0  0  0  0  0  0  0  0  0  0
   -2.8625    0.6500    0.0000 C   0  0  0  0  0  0  0  0  0  0  0  0
   -1.0333   -0.6167    0.0000 C   0  0  0  0  0  0  0  0  0  0  0  0
   -1.6958   -0.9792    0.0000 C   0  0  0  0  0  0  0  0  0  0  0  0
   -2.3500   -0.6292    0.0000 C   0  0  0  0  0  0  0  0  0  0  0  0
  2 15  1  0  0  0  0
  3  1  2  0  0  0  0
  4  3  1  0  0  0  0
  5  6  1  0  0  0  0
  6  1  1  0  0  0  0
  7  4  1  0  0  0  0
  8  1  1  0  0  0  0
  9  2  1  0  0  0  0
 10  2  1  0  0  0  0
 11 14  2  0  0  0  0
 12  7  2  0  0  0  0
 13  8  1  0  0  0  0
 14  5  1  0  0  0  0
 15 13  1  0  0  0  0
 16 12  1  0  0  0  0
 17 11  1  0  0  0  0
 18  9  1  0  0  0  0
 19 10  1  0  0  0  0
 20  9  2  0  0  0  0
 21 10  2  0  0  0  0
 22 13  2  0  0  0  0
 23 17  1  0  0  0  0
 24  7  1  0  0  0  0
 25 24  2  0  0  0  0
 26 25  1  0  0  0  0
  5  4  2  0  0  0  0
 11 12  1  0  0  0  0
 19 18  1  0  0  0  0
 23 16  1  0  0  0  0
 16 26  2  0  0  0  0
M  END
> <IDNUMBER>
F0779-0470

> <Chemical_Name>
2-(2,5-dioxopyrrolidin-1-yl)-N-{5-thia-3-azatetracyclo[6.6.1.0^{2,6}.0^{11,15}]pentadeca-1(15),2(6),3,7,11,13-hexaen-4-yl}acetamide

> <CAS>
477326-07-1

> <PriceCoeff>
1.00

> <MW>
365.41

> <Description>
solid

> <FSP3>
0.26

> <clogP>
3.07

> <TPSA>
107.61

> <Acceptor>
4

> <Donor>
1

> <RotBonds>
3

> <HAC>
26

> <Collection>
General

$$$$
F2146-0710
  -ISIS-  06222304352D

 24 25  0  0  0  0  0  0  0  0999 V2000
    4.6708   -2.6500    0.0000 C   0  0  0  0  0  0  0  0  0  0  0  0
    4.4125   -3.4333    0.0000 N   0  0  3  0  0  0  0  0  0  0  0  0
    4.0042   -2.1625    0.0000 S   0  0  0  0  0  0  0  0  0  0  0  0
    3.3333   -2.6500    0.0000 C   0  0  0  0  0  0  0  0  0  0  0  0
    3.5875   -3.4333    0.0000 C   0  0  0  0  0  0  0  0  0  0  0  0
    2.5250   -2.4667    0.0000 C   0  0  0  0  0  0  0  0  0  0  0  0
    5.4625   -2.3917    0.0000 N   0  0  0  0  0  0  0  0  0  0  0  0
    3.0333   -4.0458    0.0000 C   0  0  0  0  0  0  0  0  0  0  0  0
    1.9667   -3.0875    0.0000 C   0  0  0  0  0  0  0  0  0  0  0  0
    4.9042   -4.1042    0.0000 C   0  0  0  0  0  0  0  0  0  0  0  0
    2.2292   -3.8708    0.0000 C   0  0  0  0  0  0  0  0  0  0  0  0
    1.1542   -2.9167    0.0000 Cl  0  0  0  0  0  0  0  0  0  0  0  0
    4.5667   -4.8667    0.0000 C   0  0  0  0  0  0  0  0  0  0  0  0
    8.4973   -2.4454    0.0000 S   0  0  3  0  0  0  0  0  0  0  0  0
    8.0945   -3.1552    0.0000 C   0  0  0  0  0  0  0  0  0  0  0  0
    7.7864   -2.0241    0.0000 O   0  0  0  0  0  0  0  0  0  0  0  0
    8.9031   -1.7243    0.0000 O   0  0  0  0  0  0  0  0  0  0  0  0
    9.2185   -2.8512    0.0000 O   0  0  0  0  0  0  0  0  0  0  0  0
    8.5099   -3.8728    0.0000 C   0  0  0  0  0  0  0  0  0  0  0  0
    7.2640   -3.1594    0.0000 C   0  0  0  0  0  0  0  0  0  0  0  0
    8.0928   -4.5910    0.0000 C   0  0  0  0  0  0  0  0  0  0  0  0
    6.8561   -3.8769    0.0000 C   0  0  0  0  0  0  0  0  0  0  0  0
    7.2695   -4.5909    0.0000 C   0  0  0  0  0  0  0  0  0  0  0  0
    6.8559   -5.3070    0.0000 C   0  0  0  0  0  0  0  0  0  0  0  0
 13 10  1  0  0  0  0
  4  5  2  0  0  0  0
 11  9  1  0  0  0  0
  2  1  1  0  0  0  0
  3  1  1  0  0  0  0
  4  3  1  0  0  0  0
  5  2  1  0  0  0  0
  6  4  1  0  0  0  0
  7  1  2  0  0  0  0
  8  5  1  0  0  0  0
  9  6  2  0  0  0  0
 10  2  1  0  0  0  0
 11  8  2  0  0  0  0
 12  9  1  0  0  0  0
 15 14  1  0  0  0  0
 16 14  2  0  0  0  0
 17 14  2  0  0  0  0
 18 14  1  0  0  0  0
 19 15  1  0  0  0  0
 20 15  2  0  0  0  0
 21 19  2  0  0  0  0
 22 20  1  0  0  0  0
 23 22  2  0  0  0  0
 24 23  1  0  0  0  0
 21 23  1  0  0  0  0
M  END
> <IDNUMBER>
F2146-0710

> <Chemical_Name>
4-methylbenzene-1-sulfonic acid; 6-chloro-3-ethyl-2,3-dihydro-1,3-benzothiazol-2-imine

> <CAS>
2034157-11-2

> <PriceCoeff>
1.00

> <MW>
212.70

> <Description>
solid

> <FSP3>
0.22

> <clogP>
4.49

> <TPSA>
52.39

> <Acceptor>
0

> <Donor>
1

> <RotBonds>
1

> <HAC>
13

> <Collection>
General

> <Reference_compound>
PRI5904

> <Similarity>
0.8060

$$$$
F0918-0101
  -ISIS-  06222321142D

 17 18  0  0  0  0  0  0  0  0999 V2000
    5.7542   -4.8042    0.0000 S   0  0  3  0  0  0  0  0  0  0  0  0
    5.7542   -1.0917    0.0000 O   0  0  0  0  0  0  0  0  0  0  0  0
    9.4292   -4.8042    0.0000 O   0  0  0  0  0  0  0  0  0  0  0  0
    1.9542   -4.8042    0.0000 O   0  0  0  0  0  0  0  0  0  0  0  0
    5.7542   -8.6042    0.0000 C   0  0  0  0  0  0  0  0  0  0  0  0
    2.4917    0.7000    0.0000 C   0  0  0  0  0  0  0  0  0  0  0  0
   -3.8750    4.5000    0.0000 C   0  0  0  0  0  0  0  0  0  0  0  0
   -7.0792    6.3792    0.0000 Cl  0  0  0  0  0  0  0  0  0  0  0  0
    2.5792    4.3917    0.0000 C   0  0  0  0  0  0  0  0  0  0  0  0
   -0.7000   -1.0917    0.0000 C   0  0  0  0  0  0  0  0  0  0  0  0
   -0.6333    6.2917    0.0000 C   0  0  0  0  0  0  0  0  0  0  0  0
   -3.8750    0.7000    0.0000 C   0  0  0  0  0  0  0  0  0  0  0  0
    8.9500  -10.4000    0.0000 C   0  0  0  0  0  0  0  0  0  0  0  0
    2.4917  -10.4000    0.0000 C   0  0  0  0  0  0  0  0  0  0  0  0
    9.0375  -14.0042    0.0000 C   0  0  0  0  0  0  0  0  0  0  0  0
    2.5792  -14.1125    0.0000 C   0  0  0  0  0  0  0  0  0  0  0  0
    5.7542  -16.0000    0.0000 C   0  0  0  0  0  0  0  0  0  0  0  0
  2  1  1  0  0  0  0
  3  1  2  0  0  0  0
  4  1  2  0  0  0  0
  5  1  1  0  0  0  0
  6  2  1  0  0  0  0
  7 12  2  0  0  0  0
  8  7  1  0  0  0  0
  9  6  1  0  0  0  0
 10  6  2  0  0  0  0
 11  9  2  0  0  0  0
 12 10  1  0  0  0  0
 13  5  2  0  0  0  0
 14  5  1  0  0  0  0
 15 13  1  0  0  0  0
 16 14  2  0  0  0  0
 17 16  1  0  0  0  0
 17 15  2  0  0  0  0
  7 11  1  0  0  0  0
M  END
> <IDNUMBER>
F0918-0101

> <Chemical_Name>
4-chlorophenyl benzenesulfonate

> <CAS>
80-38-6

> <PriceCoeff>
1.00

> <MW>
268.72

> <Description>
solid

> <FSP3>
0.00

> <clogP>
3.94

> <TPSA>
51.75

> <Acceptor>
3

> <Donor>
0

> <RotBonds>
3

> <HAC>
17

> <Collection>
General

> <Reference_compound>
PRI3215

> <Similarity>
1.0000

$$$$
F3139-0616
  -ISIS-  06222321152D

 19 21  0  0  0  0  0  0  0  0999 V2000
    5.2750   -0.4292    0.0000 C   0  0  0  0  0  0  0  0  0  0  0  0
    5.2750   -1.2667    0.0000 C   0  0  0  0  0  0  0  0  0  0  0  0
    3.8292   -1.2667    0.0000 C   0  0  0  0  0  0  0  0  0  0  0  0
    4.5500   -1.6792    0.0000 C   0  0  0  0  0  0  0  0  0  0  0  0
    4.5542   -0.0125    0.0000 O   0  0  0  0  0  0  0  0  0  0  0  0
    3.8375   -0.4292    0.0000 C   0  0  0  0  0  0  0  0  0  0  0  0
    5.9875   -0.0250    0.0000 C   0  0  0  0  0  0  0  0  0  0  0  0
    3.1167   -1.6750    0.0000 C   0  0  0  0  0  0  0  0  0  0  0  0
    4.5500   -2.5042    0.0000 O   0  0  0  0  0  0  0  0  0  0  0  0
    3.1167   -0.0167    0.0000 C   0  0  0  0  0  0  0  0  0  0  0  0
    5.9917    0.7958    0.0000 C   0  0  0  0  0  0  0  0  0  0  0  0
    6.7042   -0.4417    0.0000 C   0  0  0  0  0  0  0  0  0  0  0  0
    2.4042   -1.2625    0.0000 C   0  0  0  0  0  0  0  0  0  0  0  0
    2.4042   -0.4375    0.0000 C   0  0  0  0  0  0  0  0  0  0  0  0
    7.4167   -0.0292    0.0000 C   0  0  0  0  0  0  0  0  0  0  0  0
    6.7042    1.2083    0.0000 C   0  0  0  0  0  0  0  0  0  0  0  0
    7.4167    0.7958    0.0000 C   0  0  0  0  0  0  0  0  0  0  0  0
    1.6917   -1.6750    0.0000 Br  0  0  0  0  0  0  0  0  0  0  0  0
    8.1375    1.2083    0.0000 C   0  0  0  0  0  0  0  0  0  0  0  0
  2  1  2  0  0  0  0
  3  6  1  0  0  0  0
  4  2  1  0  0  0  0
  5  1  1  0  0  0  0
  6  5  1  0  0  0  0
  7  1  1  0  0  0  0
  8  3  2  0  0  0  0
  9  4  2  0  0  0  0
 10  6  2  0  0  0  0
 11  7  1  0  0  0  0
 12  7  2  0  0  0  0
 13 14  2  0  0  0  0
 14 10  1  0  0  0  0
 15 12  1  0  0  0  0
 16 11  2  0  0  0  0
 17 15  2  0  0  0  0
 18 13  1  0  0  0  0
 19 17  1  0  0  0  0
  3  4  1  0  0  0  0
 16 17  1  0  0  0  0
 13  8  1  0  0  0  0
M  END
> <IDNUMBER>
F3139-0616

> <Chemical_Name>
6-bromo-2-(4-methylphenyl)-4H-chromen-4-one

> <CAS>
41255-32-7

> <PriceCoeff>
1.00

> <MW>
315.16

> <Description>
solid

> <FSP3>
0.06

> <clogP>
4.84

> <TPSA>
26.30

> <Acceptor>
2

> <Donor>
0

> <RotBonds>
1

> <HAC>
19

> <Collection>
General

> <Reference_compound>
CHEMBL275638

> <Similarity>
0.8740

$$$$
F0196-1271
  -ISIS-  06222321442D

 29 32  0  0  0  0  0  0  0  0999 V2000
    1.0875    1.1958    0.0000 C   0  0  0  0  0  0  0  0  0  0  0  0
   -0.1958    1.1958    0.0000 C   0  0  0  0  0  0  0  0  0  0  0  0
    0.4500    0.8333    0.0000 C   0  0  0  0  0  0  0  0  0  0  0  0
    1.0875    1.9583    0.0000 C   0  0  0  0  0  0  0  0  0  0  0  0
   -0.1958    1.9583    0.0000 C   0  0  0  0  0  0  0  0  0  0  0  0
    1.7292    0.8333    0.0000 C   0  0  0  0  0  0  0  0  0  0  0  0
    0.4500    2.3125    0.0000 O   0  0  0  0  0  0  0  0  0  0  0  0
   -0.8333    0.8333    0.0000 C   0  0  0  0  0  0  0  0  0  0  0  0
   -1.4708    1.9583    0.0000 C   0  0  0  0  0  0  0  0  0  0  0  0
   -0.8333    2.3125    0.0000 C   0  0  0  0  0  0  0  0  0  0  0  0
   -1.4708    1.1958    0.0000 C   0  0  0  0  0  0  0  0  0  0  0  0
    3.0042    0.8333    0.0000 C   0  0  0  0  0  0  0  0  0  0  0  0
    2.3667    1.1958    0.0000 C   0  0  0  0  0  0  0  0  0  0  0  0
   -2.1333    2.3333    0.0000 O   0  0  0  0  0  0  0  0  0  0  0  0
   -2.1333    3.0958    0.0000 C   0  0  0  0  0  0  0  0  0  0  0  0
    3.0042    0.0708    0.0000 C   0  0  0  0  0  0  0  0  0  0  0  0
    0.4500    0.0708    0.0000 O   0  0  0  0  0  0  0  0  0  0  0  0
    3.5875    1.2958    0.0000 O   0  0  0  0  0  0  0  0  0  0  0  0
    1.7292    0.0708    0.0000 C   0  0  0  0  0  0  0  0  0  0  0  0
    3.5875   -0.3875    0.0000 O   0  0  0  0  0  0  0  0  0  0  0  0
   -2.7708    3.4583    0.0000 O   0  0  0  0  0  0  0  0  0  0  0  0
    2.3667   -0.3042    0.0000 C   0  0  0  0  0  0  0  0  0  0  0  0
    4.6292    0.4500    0.0000 C   0  0  0  0  0  0  0  0  0  0  0  0
    4.3042    1.1125    0.0000 C   0  0  0  0  0  0  0  0  0  0  0  0
    4.3042   -0.2292    0.0000 C   0  0  0  0  0  0  0  0  0  0  0  0
   -2.1333    0.8125    0.0000 C   0  0  0  0  0  0  0  0  0  0  0  0
   -1.6500    3.3958    0.0000 C   0  0  0  0  0  0  0  0  0  0  0  0
   -2.7958    1.1958    0.0000 C   0  0  0  0  0  0  0  0  0  0  0  0
   -3.4500    0.8125    0.0000 C   0  0  0  0  0  0  0  0  0  0  0  0
  2  3  1  0  0  0  0
  3  1  1  0  0  0  0
  4  1  2  0  0  0  0
  5  7  1  0  0  0  0
  6  1  1  0  0  0  0
  7  4  1  0  0  0  0
  8  2  1  0  0  0  0
  9 10  2  0  0  0  0
 10  5  1  0  0  0  0
 11  8  2  0  0  0  0
 12 13  1  0  0  0  0
 13  6  2  0  0  0  0
 14  9  1  0  0  0  0
 15 14  1  0  0  0  0
 16 22  1  0  0  0  0
 17  3  2  0  0  0  0
 18 12  1  0  0  0  0
 19  6  1  0  0  0  0
 20 16  1  0  0  0  0
 21 15  2  0  0  0  0
 22 19  2  0  0  0  0
 23 24  1  0  0  0  0
 24 18  1  0  0  0  0
 25 20  1  0  0  0  0
 26 11  1  0  0  0  0
 27 15  1  0  0  0  0
 28 26  1  0  0  0  0
 29 28  1  0  0  0  0
  2  5  2  0  0  0  0
 16 12  2  0  0  0  0
 11  9  1  0  0  0  0
 25 23  1  0  0  0  0
M  END
> <IDNUMBER>
F0196-1271

> <Chemical_Name>
3-(3,4-dihydro-2H-1,5-benzodioxepin-7-yl)-4-oxo-6-propyl-4H-chromen-7-yl acetate

> <CAS>
170511-42-9

> <PriceCoeff>
1.00

> <MW>
394.42

> <Description>
solid

> <FSP3>
0.30

> <clogP>
4.16

> <TPSA>
71.06

> <Acceptor>
6

> <Donor>
0

> <RotBonds>
5

> <HAC>
29

> <Collection>
General

> <Reference_compound>
CHEMBL455048

> <Similarity>
0.8340

$$$$
F3386-4724
  -ISIS-  06222321152D

 17 18  0  0  0  0  0  0  0  0999 V2000
    5.2667   -2.3167    0.0000 S   0  0  3  0  0  0  0  0  0  0  0  0
    6.0917   -2.3250    0.0000 O   0  0  0  0  0  0  0  0  0  0  0  0
    4.4417   -2.3167    0.0000 C   0  0  0  0  0  0  0  0  0  0  0  0
    5.2667   -1.4917    0.0000 O   0  0  0  0  0  0  0  0  0  0  0  0
    5.2667   -3.1417    0.0000 O   0  0  0  0  0  0  0  0  0  0  0  0
    4.0292   -3.0250    0.0000 C   0  0  0  0  0  0  0  0  0  0  0  0
    4.0375   -1.5917    0.0000 C   0  0  0  0  0  0  0  0  0  0  0  0
    6.9167   -2.3250    0.0000 C   0  0  0  0  0  0  0  0  0  0  0  0
    2.7917   -2.3042    0.0000 C   0  0  0  0  0  0  0  0  0  0  0  0
    3.2042   -3.0250    0.0000 C   0  0  0  0  0  0  0  0  0  0  0  0
    3.2125   -1.5917    0.0000 C   0  0  0  0  0  0  0  0  0  0  0  0
    1.9667   -2.3000    0.0000 Br  0  0  0  0  0  0  0  0  0  0  0  0
    7.3250   -3.0292    0.0000 C   0  0  0  0  0  0  0  0  0  0  0  0
    7.3167   -1.6167    0.0000 C   0  0  0  0  0  0  0  0  0  0  0  0
    8.1417   -1.6125    0.0000 C   0  0  0  0  0  0  0  0  0  0  0  0
    8.1417   -3.0375    0.0000 C   0  0  0  0  0  0  0  0  0  0  0  0
    8.5542   -2.3250    0.0000 C   0  0  0  0  0  0  0  0  0  0  0  0
  2  1  1  0  0  0  0
  3  1  1  0  0  0  0
  4  1  2  0  0  0  0
  5  1  2  0  0  0  0
  6  3  1  0  0  0  0
  7  3  2  0  0  0  0
  8  2  1  0  0  0  0
  9 11  2  0  0  0  0
 10  6  2  0  0  0  0
 11  7  1  0  0  0  0
 12  9  1  0  0  0  0
 13  8  2  0  0  0  0
 14  8  1  0  0  0  0
 15 14  2  0  0  0  0
 16 13  1  0  0  0  0
 17 15  1  0  0  0  0
 10  9  1  0  0  0  0
 16 17  2  0  0  0  0
M  END
> <IDNUMBER>
F3386-4724

> <Chemical_Name>
phenyl 4-bromobenzene-1-sulfonate

> <CAS>
5455-14-1

> <PriceCoeff>
1.00

> <MW>
313.17

> <Description>
solid

> <FSP3>
0.00

> <clogP>
3.95

> <TPSA>
18.63

> <Acceptor>
3

> <Donor>
0

> <RotBonds>
3

> <HAC>
17

> <Collection>
General

> <Reference_compound>
PRI3215

> <Similarity>
0.8030

$$$$
F3139-0619
  -ISIS-  06222321462D

 19 21  0  0  0  0  0  0  0  0999 V2000
    5.2750   -0.4292    0.0000 C   0  0  0  0  0  0  0  0  0  0  0  0
    5.2750   -1.2667    0.0000 C   0  0  0  0  0  0  0  0  0  0  0  0
    4.5542   -0.0125    0.0000 O   0  0  0  0  0  0  0  0  0  0  0  0
    3.8292   -1.2667    0.0000 C   0  0  0  0  0  0  0  0  0  0  0  0
    4.5500   -1.6792    0.0000 C   0  0  0  0  0  0  0  0  0  0  0  0
    3.8375   -0.4292    0.0000 C   0  0  0  0  0  0  0  0  0  0  0  0
    5.9875   -0.0250    0.0000 C   0  0  0  0  0  0  0  0  0  0  0  0
    3.1167   -1.6750    0.0000 C   0  0  0  0  0  0  0  0  0  0  0  0
    6.7000   -0.4417    0.0000 C   0  0  0  0  0  0  0  0  0  0  0  0
    4.5500   -2.5042    0.0000 O   0  0  0  0  0  0  0  0  0  0  0  0
    3.1167   -0.0167    0.0000 C   0  0  0  0  0  0  0  0  0  0  0  0
    2.4042   -1.2625    0.0000 C   0  0  0  0  0  0  0  0  0  0  0  0
    6.6917   -1.2667    0.0000 F   0  0  0  0  0  0  0  0  0  0  0  0
    2.4042   -0.4375    0.0000 C   0  0  0  0  0  0  0  0  0  0  0  0
    1.6917   -1.6750    0.0000 Cl  0  0  0  0  0  0  0  0  0  0  0  0
    5.9917    0.7958    0.0000 C   0  0  0  0  0  0  0  0  0  0  0  0
    7.4167   -0.0292    0.0000 C   0  0  0  0  0  0  0  0  0  0  0  0
    6.7042    1.2083    0.0000 C   0  0  0  0  0  0  0  0  0  0  0  0
    7.4167    0.7958    0.0000 C   0  0  0  0  0  0  0  0  0  0  0  0
  2  1  2  0  0  0  0
  3  1  1  0  0  0  0
  4  6  1  0  0  0  0
  5  2  1  0  0  0  0
  6  3  1  0  0  0  0
  7  1  1  0  0  0  0
  8  4  2  0  0  0  0
  9  7  2  0  0  0  0
 10  5  2  0  0  0  0
 11  6  2  0  0  0  0
 12 14  2  0  0  0  0
 13  9  1  0  0  0  0
 14 11  1  0  0  0  0
 15 12  1  0  0  0  0
 16  7  1  0  0  0  0
 17  9  1  0  0  0  0
 18 16  2  0  0  0  0
 19 18  1  0  0  0  0
  4  5  1  0  0  0  0
 17 19  2  0  0  0  0
 12  8  1  0  0  0  0
M  END
> <IDNUMBER>
F3139-0619

> <Chemical_Name>
6-chloro-2-(2-fluorophenyl)-4H-chromen-4-one

> <CAS>
213894-66-7

> <PriceCoeff>
1.00

> <MW>
274.67

> <Description>
solid

> <FSP3>
0.00

> <clogP>
4.34

> <TPSA>
26.30

> <Acceptor>
2

> <Donor>
0

> <RotBonds>
1

> <HAC>
19

> <Collection>
General

> <Reference_compound>
CHEMBL477846

> <Similarity>
0.8380

$$$$
F3139-0637
  -ISIS-  06222321442D

 19 21  0  0  0  0  0  0  0  0999 V2000
   10.3625   -0.8417    0.0000 C   0  0  0  0  0  0  0  0  0  0  0  0
   10.3625   -2.4667    0.0000 C   0  0  0  0  0  0  0  0  0  0  0  0
    7.5292   -2.4667    0.0000 C   0  0  0  0  0  0  0  0  0  0  0  0
    8.9542   -3.2792    0.0000 C   0  0  0  0  0  0  0  0  0  0  0  0
    8.9542   -0.0042    0.0000 O   0  0  0  0  0  0  0  0  0  0  0  0
    7.5292   -0.8417    0.0000 C   0  0  0  0  0  0  0  0  0  0  0  0
   11.7667   -0.0292    0.0000 C   0  0  0  0  0  0  0  0  0  0  0  0
    6.1292   -3.2792    0.0000 C   0  0  0  0  0  0  0  0  0  0  0  0
    8.9542   -4.9167    0.0000 O   0  0  0  0  0  0  0  0  0  0  0  0
    6.1292   -0.0292    0.0000 C   0  0  0  0  0  0  0  0  0  0  0  0
   13.1792   -0.8542    0.0000 C   0  0  0  0  0  0  0  0  0  0  0  0
   11.7792    1.5708    0.0000 C   0  0  0  0  0  0  0  0  0  0  0  0
    4.7167   -2.4667    0.0000 C   0  0  0  0  0  0  0  0  0  0  0  0
   14.5917    1.5708    0.0000 C   0  0  0  0  0  0  0  0  0  0  0  0
    4.7167   -0.8417    0.0000 C   0  0  0  0  0  0  0  0  0  0  0  0
   13.1792    2.3625    0.0000 C   0  0  0  0  0  0  0  0  0  0  0  0
   14.5667   -0.0542    0.0000 C   0  0  0  0  0  0  0  0  0  0  0  0
    3.3167   -3.2792    0.0000 Cl  0  0  0  0  0  0  0  0  0  0  0  0
   16.0000    2.3625    0.0000 F   0  0  0  0  0  0  0  0  0  0  0  0
  2  1  2  0  0  0  0
  3  6  1  0  0  0  0
  4  2  1  0  0  0  0
  5  1  1  0  0  0  0
  6  5  1  0  0  0  0
  7  1  1  0  0  0  0
  8  3  2  0  0  0  0
  9  4  2  0  0  0  0
 10  6  2  0  0  0  0
 11  7  2  0  0  0  0
 12  7  1  0  0  0  0
 13 15  2  0  0  0  0
 14 16  1  0  0  0  0
 15 10  1  0  0  0  0
 16 12  2  0  0  0  0
 17 11  1  0  0  0  0
 18 13  1  0  0  0  0
 19 14  1  0  0  0  0
  3  4  1  0  0  0  0
 17 14  2  0  0  0  0
 13  8  1  0  0  0  0
M  END
> <IDNUMBER>
F3139-0637

> <Chemical_Name>
6-chloro-2-(4-fluorophenyl)-4H-chromen-4-one

> <CAS>
213894-75-8

> <PriceCoeff>
1.00

> <MW>
274.67

> <Description>
solid

> <FSP3>
0.00

> <clogP>
4.34

> <TPSA>
26.30

> <Acceptor>
2

> <Donor>
0

> <RotBonds>
1

> <HAC>
19

> <Collection>
General

> <Reference_compound>
CHEMBL275638

> <Similarity>
0.8410

$$$$
F1751-0008
  -ISIS-  06222321452D

 27 30  0  0  0  0  0  0  0  0999 V2000
    1.3292    0.0333    0.0000 N   0  0  3  0  0  0  0  0  0  0  0  0
    1.9375    0.4708    0.0000 C   0  0  0  0  0  0  0  0  0  0  0  0
    1.5625   -0.6875    0.0000 C   0  0  0  0  0  0  0  0  0  0  0  0
    0.6500    0.2458    0.0000 C   0  0  0  0  0  0  0  0  0  0  0  0
    2.3125   -0.6875    0.0000 C   0  0  3  0  0  0  0  0  0  0  0  0
    2.5417    0.0333    0.0000 C   0  0  0  0  0  0  0  0  0  0  0  0
    3.4250   -1.0792    0.0000 C   0  0  0  0  0  0  0  0  0  0  0  0
    3.9292   -1.5792    0.0000 C   0  0  0  0  0  0  0  0  0  0  0  0
    2.7292   -1.2667    0.0000 S   0  0  0  0  0  0  0  0  0  0  0  0
    3.7417   -2.2792    0.0000 C   0  0  0  0  0  0  0  0  0  0  0  0
    0.5000    0.9500    0.0000 C   0  0  0  0  0  0  0  0  0  0  0  0
    3.6042   -0.3875    0.0000 N   0  0  0  0  0  0  0  0  0  0  0  0
    1.9292    1.1833    0.0000 O   0  0  0  0  0  0  0  0  0  0  0  0
    1.1375   -1.2667    0.0000 O   0  0  0  0  0  0  0  0  0  0  0  0
    4.2542   -2.7792    0.0000 O   0  0  0  0  0  0  0  0  0  0  0  0
   -0.1833    1.1708    0.0000 C   0  0  0  0  0  0  0  0  0  0  0  0
    3.0542   -2.4667    0.0000 O   0  0  0  0  0  0  0  0  0  0  0  0
    0.1167   -0.2292    0.0000 C   0  0  0  0  0  0  0  0  0  0  0  0
    4.6167   -1.3917    0.0000 C   0  0  0  0  0  0  0  0  0  0  0  0
    1.0292    1.4250    0.0000 C   0  0  0  0  0  0  0  0  0  0  0  0
   -0.5625   -0.0125    0.0000 C   0  0  0  0  0  0  0  0  0  0  0  0
    4.2917   -0.1917    0.0000 C   0  0  0  0  0  0  0  0  0  0  0  0
   -0.7125    0.6958    0.0000 C   0  0  0  0  0  0  0  0  0  0  0  0
   -0.3333    1.8708    0.0000 C   0  0  0  0  0  0  0  0  0  0  0  0
    4.8042   -0.7042    0.0000 C   0  0  0  0  0  0  0  0  0  0  0  0
    0.8792    2.1250    0.0000 C   0  0  0  0  0  0  0  0  0  0  0  0
    0.1917    2.3458    0.0000 C   0  0  0  0  0  0  0  0  0  0  0  0
  2  1  1  0  0  0  0
  3  1  1  0  0  0  0
  4  1  1  0  0  0  0
  5  3  1  0  0  0  0
  6  2  1  0  0  0  0
  7  9  1  0  0  0  0
  8  7  2  0  0  0  0
  9  5  1  0  0  0  0
 10  8  1  0  0  0  0
 11  4  2  0  0  0  0
 12  7  1  0  0  0  0
 13  2  2  0  0  0  0
 14  3  2  0  0  0  0
 15 10  2  0  0  0  0
 16 11  1  0  0  0  0
 17 10  1  0  0  0  0
 18  4  1  0  0  0  0
 19  8  1  0  0  0  0
 20 11  1  0  0  0  0
 21 18  2  0  0  0  0
 22 12  2  0  0  0  0
 23 21  1  0  0  0  0
 24 16  1  0  0  0  0
 25 22  1  0  0  0  0
 26 20  2  0  0  0  0
 27 26  1  0  0  0  0
  5  6  1  0  0  0  0
 16 23  2  0  0  0  0
 27 24  2  0  0  0  0
 19 25  2  0  0  0  0
M  END
> <IDNUMBER>
F1751-0008

> <Chemical_Name>
2-{[1-(naphthalen-1-yl)-2,5-dioxopyrrolidin-3-yl]sulfanyl}pyridine-3-carboxylic acid

> <CAS>
745027-88-7

> <PriceCoeff>
1.00

> <MW>
378.40

> <Description>
solid

> <FSP3>
0.10

> <clogP>
2.68

> <TPSA>
112.87

> <Acceptor>
5

> <Donor>
1

> <RotBonds>
4

> <HAC>
27

> <Collection>
General

$$$$
F2664-0047
  -ISIS-  06222321152D

 26 29  0  0  0  0  0  0  0  0999 V2000
   -3.6958    7.3417    0.0000 N   0  0  3  0  0  0  0  0  0  0  0  0
   -5.8083    1.7250    0.0000 N   0  3  0  0  0  0  0  0  0  0  0  0
   -5.1583    2.1083    0.0000 C   0  0  0  0  0  0  0  0  0  0  0  0
   -3.8583    6.6042    0.0000 C   0  0  0  0  0  0  0  0  0  0  0  0
   -3.2083    6.2292    0.0000 C   0  0  0  0  0  0  0  0  0  0  0  0
   -4.5000    6.2292    0.0000 C   0  0  0  0  0  0  0  0  0  0  0  0
   -4.2583    7.8417    0.0000 C   0  0  0  0  0  0  0  0  0  0  0  0
   -4.4958    3.9833    0.0000 C   0  0  0  0  0  0  0  0  0  0  0  0
   -5.1583    2.8583    0.0000 C   0  0  0  0  0  0  0  0  0  0  0  0
   -3.8583    4.3542    0.0000 N   0  0  0  0  0  0  0  0  0  0  0  0
   -4.5000    3.2333    0.0000 C   0  0  0  0  0  0  0  0  0  0  0  0
   -2.9500    7.4167    0.0000 C   0  0  0  0  0  0  0  0  0  0  0  0
   -3.8583    5.1042    0.0000 C   0  0  0  0  0  0  0  0  0  0  0  0
   -4.5000    1.7333    0.0000 C   0  0  0  0  0  0  0  0  0  0  0  0
   -5.8083    0.9750    0.0000 O   0  5  0  0  0  0  0  0  0  0  0  0
   -4.5000    5.4792    0.0000 C   0  0  0  0  0  0  0  0  0  0  0  0
   -3.2083    5.4792    0.0000 C   0  0  0  0  0  0  0  0  0  0  0  0
   -6.4542    2.1000    0.0000 O   0  0  0  0  0  0  0  0  0  0  0  0
   -2.6458    6.7292    0.0000 C   0  0  0  0  0  0  0  0  0  0  0  0
   -5.1583    6.6042    0.0000 C   0  0  0  0  0  0  0  0  0  0  0  0
   -5.1583    7.3542    0.0000 C   0  0  0  0  0  0  0  0  0  0  0  0
   -5.1583    4.3542    0.0000 O   0  0  0  0  0  0  0  0  0  0  0  0
   -4.0208    8.5542    0.0000 O   0  0  0  0  0  0  0  0  0  0  0  0
   -3.8583    2.8583    0.0000 C   0  0  0  0  0  0  0  0  0  0  0  0
   -3.8583    2.1083    0.0000 C   0  0  0  0  0  0  0  0  0  0  0  0
   -4.5000    0.9833    0.0000 Cl  0  0  0  0  0  0  0  0  0  0  0  0
  2  3  1  0  0  0  0
  3  9  1  0  0  0  0
  4  1  1  0  0  0  0
  5  4  2  0  0  0  0
  6  4  1  0  0  0  0
  7  1  1  0  0  0  0
  8 10  1  0  0  0  0
  9 11  2  0  0  0  0
 10 13  1  0  0  0  0
 11  8  1  0  0  0  0
 12  1  1  0  0  0  0
 13 16  1  0  0  0  0
 14 25  1  0  0  0  0
 15  2  1  0  0  0  0
 16  6  2  0  0  0  0
 17  5  1  0  0  0  0
 18  2  2  0  0  0  0
 19 12  1  0  0  0  0
 20 21  1  0  0  0  0
 21  7  1  0  0  0  0
 22  8  2  0  0  0  0
 23  7  2  0  0  0  0
 24 11  1  0  0  0  0
 25 24  2  0  0  0  0
 26 14  1  0  0  0  0
 19  5  1  0  0  0  0
 20  6  1  0  0  0  0
 13 17  2  0  0  0  0
 14  3  2  0  0  0  0
M  CHG  2   2   1  15  -1
M  END
> <IDNUMBER>
F2664-0047

> <Chemical_Name>
4-chloro-3-nitro-N-{11-oxo-1-azatricyclo[6.3.1.0^{4,12}]dodeca-4(12),5,7-trien-6-yl}benzamide

> <CAS>
898435-28-4

> <PriceCoeff>
1.00

> <MW>
371.77

> <Description>
solid

> <FSP3>
0.22

> <clogP>
2.81

> <TPSA>
92.55

> <Acceptor>
4

> <Donor>
1

> <RotBonds>
3

> <HAC>
26

> <Collection>
General

$$$$
F3139-0617
  -ISIS-  06222321152D

 19 21  0  0  0  0  0  0  0  0999 V2000
    5.2750   -0.4292    0.0000 C   0  0  0  0  0  0  0  0  0  0  0  0
    5.2750   -1.2667    0.0000 C   0  0  0  0  0  0  0  0  0  0  0  0
    4.5542   -0.0125    0.0000 O   0  0  0  0  0  0  0  0  0  0  0  0
    3.8292   -1.2667    0.0000 C   0  0  0  0  0  0  0  0  0  0  0  0
    4.5500   -1.6792    0.0000 C   0  0  0  0  0  0  0  0  0  0  0  0
    3.8375   -0.4292    0.0000 C   0  0  0  0  0  0  0  0  0  0  0  0
    5.9875   -0.0250    0.0000 C   0  0  0  0  0  0  0  0  0  0  0  0
    3.1167   -1.6750    0.0000 C   0  0  0  0  0  0  0  0  0  0  0  0
    6.7042   -0.4417    0.0000 C   0  0  0  0  0  0  0  0  0  0  0  0
    4.5500   -2.5042    0.0000 O   0  0  0  0  0  0  0  0  0  0  0  0
    3.1167   -0.0167    0.0000 C   0  0  0  0  0  0  0  0  0  0  0  0
    2.4042   -1.2625    0.0000 C   0  0  0  0  0  0  0  0  0  0  0  0
    6.6917   -1.2667    0.0000 F   0  0  0  0  0  0  0  0  0  0  0  0
    2.4042   -0.4375    0.0000 C   0  0  0  0  0  0  0  0  0  0  0  0
    1.6917   -1.6750    0.0000 Br  0  0  0  0  0  0  0  0  0  0  0  0
    5.9917    0.7958    0.0000 C   0  0  0  0  0  0  0  0  0  0  0  0
    7.4167   -0.0292    0.0000 C   0  0  0  0  0  0  0  0  0  0  0  0
    6.7042    1.2083    0.0000 C   0  0  0  0  0  0  0  0  0  0  0  0
    7.4167    0.7958    0.0000 C   0  0  0  0  0  0  0  0  0  0  0  0
  2  1  2  0  0  0  0
  3  1  1  0  0  0  0
  4  6  1  0  0  0  0
  5  2  1  0  0  0  0
  6  3  1  0  0  0  0
  7  1  1  0  0  0  0
  8  4  2  0  0  0  0
  9  7  2  0  0  0  0
 10  5  2  0  0  0  0
 11  6  2  0  0  0  0
 12 14  2  0  0  0  0
 13  9  1  0  0  0  0
 14 11  1  0  0  0  0
 15 12  1  0  0  0  0
 16  7  1  0  0  0  0
 17  9  1  0  0  0  0
 18 16  2  0  0  0  0
 19 18  1  0  0  0  0
  4  5  1  0  0  0  0
 17 19  2  0  0  0  0
 12  8  1  0  0  0  0
M  END
> <IDNUMBER>
F3139-0617

> <Chemical_Name>
6-bromo-2-(2-fluorophenyl)-4H-chromen-4-one

> <CAS>
213894-67-8

> <PriceCoeff>
1.00

> <MW>
319.13

> <Description>
solid

> <FSP3>
0.00

> <clogP>
4.49

> <TPSA>
26.30

> <Acceptor>
2

> <Donor>
0

> <RotBonds>
1

> <HAC>
19

> <Collection>
General

> <Reference_compound>
CHEMBL477846

> <Similarity>
0.8220

$$$$
F3228-0111
  -ISIS-  06222321442D

 25 27  0  0  0  0  0  0  0  0999 V2000
    5.2750   -0.4292    0.0000 C   0  0  0  0  0  0  0  0  0  0  0  0
    4.5542   -0.0125    0.0000 O   0  0  0  0  0  0  0  0  0  0  0  0
    3.8375   -0.4292    0.0000 C   0  0  0  0  0  0  0  0  0  0  0  0
    3.8292   -1.2667    0.0000 C   0  0  0  0  0  0  0  0  0  0  0  0
    5.2750   -1.2667    0.0000 C   0  0  0  0  0  0  0  0  0  0  0  0
    4.5500   -1.6792    0.0000 C   0  0  0  0  0  0  0  0  0  0  0  0
    5.9875   -0.0250    0.0000 C   0  0  0  0  0  0  0  0  0  0  0  0
    7.4167    0.7958    0.0000 C   0  0  0  0  0  0  0  0  0  0  0  0
    3.1167   -0.0167    0.0000 C   0  0  0  0  0  0  0  0  0  0  0  0
    7.4167   -0.0292    0.0000 C   0  0  0  0  0  0  0  0  0  0  0  0
    6.7042    1.2083    0.0000 C   0  0  0  0  0  0  0  0  0  0  0  0
    6.7042   -0.4417    0.0000 C   0  0  0  0  0  0  0  0  0  0  0  0
    5.9917    0.7958    0.0000 C   0  0  0  0  0  0  0  0  0  0  0  0
    2.4042   -0.4375    0.0000 C   0  0  0  0  0  0  0  0  0  0  0  0
    3.1167   -1.6750    0.0000 C   0  0  0  0  0  0  0  0  0  0  0  0
    2.4042   -1.2625    0.0000 C   0  0  0  0  0  0  0  0  0  0  0  0
    4.5500   -2.5042    0.0000 O   0  0  0  0  0  0  0  0  0  0  0  0
    3.1250    0.8083    0.0000 Cl  0  0  0  0  0  0  0  0  0  0  0  0
    8.1417    1.2083    0.0000 O   0  0  0  0  0  0  0  0  0  0  0  0
    6.7042    2.0333    0.0000 O   0  0  0  0  0  0  0  0  0  0  0  0
    8.1292   -0.4417    0.0000 O   0  0  0  0  0  0  0  0  0  0  0  0
    1.6917   -1.6750    0.0000 Cl  0  0  0  0  0  0  0  0  0  0  0  0
    8.1417    2.0333    0.0000 C   0  0  0  0  0  0  0  0  0  0  0  0
    5.9917    2.4458    0.0000 C   0  0  0  0  0  0  0  0  0  0  0  0
    8.8417   -0.0292    0.0000 C   0  0  0  0  0  0  0  0  0  0  0  0
  2  1  1  0  0  0  0
  3  2  1  0  0  0  0
  4  6  1  0  0  0  0
  5  1  2  0  0  0  0
  6  5  1  0  0  0  0
  7  1  1  0  0  0  0
  8 11  1  0  0  0  0
  9  3  2  0  0  0  0
 10 12  1  0  0  0  0
 11 13  2  0  0  0  0
 12  7  2  0  0  0  0
 13  7  1  0  0  0  0
 14  9  1  0  0  0  0
 15  4  2  0  0  0  0
 16 15  1  0  0  0  0
 17  6  2  0  0  0  0
 18  9  1  0  0  0  0
 19  8  1  0  0  0  0
 20 11  1  0  0  0  0
 21 10  1  0  0  0  0
 22 16  1  0  0  0  0
 23 19  1  0  0  0  0
 24 20  1  0  0  0  0
 25 21  1  0  0  0  0
  8 10  2  0  0  0  0
  4  3  1  0  0  0  0
 16 14  2  0  0  0  0
M  END
> <IDNUMBER>
F3228-0111

> <Chemical_Name>
6,8-dichloro-2-(3,4,5-trimethoxyphenyl)-4H-chromen-4-one

> <CAS>
878046-78-7

> <PriceCoeff>
1.00

> <MW>
381.21

> <Description>
solid

> <FSP3>
0.17

> <clogP>
4.21

> <TPSA>
53.99

> <Acceptor>
5

> <Donor>
0

> <RotBonds>
4

> <HAC>
25

> <Collection>
General

> <Reference_compound>
CHEMBL293478

> <Similarity>
0.8100

$$$$
F1595-0020
  -ISIS-  06222321142D

 23 25  0  0  0  0  0  0  0  0999 V2000
    1.2625   -0.4875    0.0000 C   0  0  0  0  0  0  0  0  0  0  0  0
    0.5417   -0.9042    0.0000 N   0  0  3  0  0  0  0  0  0  0  0  0
    1.9792   -0.9042    0.0000 N   0  0  0  0  0  0  0  0  0  0  0  0
   -0.8875   -1.7292    0.0000 N   0  0  3  0  0  0  0  0  0  0  0  0
    2.6917   -0.4792    0.0000 C   0  0  0  0  0  0  0  0  0  0  0  0
    1.2625    0.3458    0.0000 S   0  0  0  0  0  0  0  0  0  0  0  0
    0.5417   -1.7292    0.0000 C   0  0  0  0  0  0  0  0  0  0  0  0
   -0.1708   -0.4875    0.0000 C   0  0  0  0  0  0  0  0  0  0  0  0
   -0.1708   -2.1417    0.0000 C   0  0  0  0  0  0  0  0  0  0  0  0
   -0.8958   -0.9042    0.0000 C   0  0  0  0  0  0  0  0  0  0  0  0
   -1.6083   -2.1500    0.0000 C   0  0  0  0  0  0  0  0  0  0  0  0
    3.4125   -0.8917    0.0000 C   0  0  0  0  0  0  0  0  0  0  0  0
    3.4167   -1.7167    0.0000 O   0  0  0  0  0  0  0  0  0  0  0  0
    2.6792    0.3458    0.0000 C   0  0  0  0  0  0  0  0  0  0  0  0
   -2.3333   -1.7375    0.0000 C   0  0  0  0  0  0  0  0  0  0  0  0
   -1.6083   -2.9792    0.0000 C   0  0  0  0  0  0  0  0  0  0  0  0
    4.1250   -0.4750    0.0000 C   0  0  0  0  0  0  0  0  0  0  0  0
    4.1292   -2.1250    0.0000 C   0  0  0  0  0  0  0  0  0  0  0  0
    3.3917    0.7583    0.0000 C   0  0  0  0  0  0  0  0  0  0  0  0
   -3.0458   -2.1500    0.0000 C   0  0  0  0  0  0  0  0  0  0  0  0
    4.1167    0.3583    0.0000 C   0  0  0  0  0  0  0  0  0  0  0  0
   -2.3333   -3.4000    0.0000 C   0  0  0  0  0  0  0  0  0  0  0  0
   -3.0458   -2.9792    0.0000 C   0  0  0  0  0  0  0  0  0  0  0  0
  2  1  1  0  0  0  0
  3  1  1  0  0  0  0
  4 10  1  0  0  0  0
  5  3  1  0  0  0  0
  6  1  2  0  0  0  0
  7  2  1  0  0  0  0
  8  2  1  0  0  0  0
  9  7  1  0  0  0  0
 10  8  1  0  0  0  0
 11  4  1  0  0  0  0
 12  5  2  0  0  0  0
 13 12  1  0  0  0  0
 14  5  1  0  0  0  0
 15 11  2  0  0  0  0
 16 11  1  0  0  0  0
 17 12  1  0  0  0  0
 18 13  1  0  0  0  0
 19 14  2  0  0  0  0
 20 15  1  0  0  0  0
 21 19  1  0  0  0  0
 22 16  2  0  0  0  0
 23 22  1  0  0  0  0
  4  9  1  0  0  0  0
 21 17  2  0  0  0  0
 23 20  2  0  0  0  0
M  END
> <IDNUMBER>
F1595-0020

> <Chemical_Name>
N-(2-methoxyphenyl)-4-phenylpiperazine-1-carbothioamide

> <CAS>
431057-08-8

> <PriceCoeff>
1.00

> <MW>
327.44

> <Description>
solid

> <FSP3>
0.28

> <clogP>
3.52

> <TPSA>
59.83

> <Acceptor>
3

> <Donor>
3

> <RotBonds>
4

> <HAC>
23

> <Collection>
General

> <Reference_compound>
CHEMBL4064806

> <Similarity>
0.8590

$$$$
F2666-0117
  -ISIS-  06222321152D

 27 30  0  0  0  0  0  0  0  0999 V2000
   -3.8500    7.4042    0.0000 N   0  0  3  0  0  0  0  0  0  0  0  0
   -4.5625    7.6292    0.0000 C   0  0  0  0  0  0  0  0  0  0  0  0
   -3.8500    6.6542    0.0000 C   0  0  0  0  0  0  0  0  0  0  0  0
   -5.8000    1.7750    0.0000 N   0  3  0  0  0  0  0  0  0  0  0  0
   -5.1458    2.1583    0.0000 C   0  0  0  0  0  0  0  0  0  0  0  0
   -4.5000    6.2792    0.0000 C   0  0  0  0  0  0  0  0  0  0  0  0
   -5.0583    6.7792    0.0000 C   0  0  3  0  0  0  0  0  0  0  0  0
   -3.2083    6.2792    0.0000 C   0  0  0  0  0  0  0  0  0  0  0  0
   -4.4958    4.0292    0.0000 C   0  0  0  0  0  0  0  0  0  0  0  0
   -5.1458    2.9083    0.0000 C   0  0  0  0  0  0  0  0  0  0  0  0
   -3.8500    4.4042    0.0000 N   0  0  0  0  0  0  0  0  0  0  0  0
   -4.4958    3.2833    0.0000 C   0  0  0  0  0  0  0  0  0  0  0  0
   -3.8500    5.1542    0.0000 C   0  0  0  0  0  0  0  0  0  0  0  0
   -4.5000    5.5292    0.0000 C   0  0  0  0  0  0  0  0  0  0  0  0
   -4.4958    1.7833    0.0000 C   0  0  0  0  0  0  0  0  0  0  0  0
   -5.8000    1.0250    0.0000 O   0  5  0  0  0  0  0  0  0  0  0  0
   -3.2083    5.5292    0.0000 C   0  0  0  0  0  0  0  0  0  0  0  0
   -4.7083    8.3667    0.0000 O   0  0  0  0  0  0  0  0  0  0  0  0
   -6.4500    2.1500    0.0000 O   0  0  0  0  0  0  0  0  0  0  0  0
   -5.1458    4.4042    0.0000 O   0  0  0  0  0  0  0  0  0  0  0  0
   -3.8500    2.9083    0.0000 C   0  0  0  0  0  0  0  0  0  0  0  0
   -3.8500    2.1583    0.0000 C   0  0  0  0  0  0  0  0  0  0  0  0
   -3.2083    7.7792    0.0000 C   0  0  0  0  0  0  0  0  0  0  0  0
   -4.4958    1.0333    0.0000 Cl  0  0  0  0  0  0  0  0  0  0  0  0
   -2.5583    6.6542    0.0000 C   0  0  0  0  0  0  0  0  0  0  0  0
   -5.7833    6.5542    0.0000 C   0  0  0  0  0  0  0  0  0  0  0  0
   -2.5583    7.4042    0.0000 C   0  0  0  0  0  0  0  0  0  0  0  0
  2  1  1  0  0  0  0
  3  1  1  0  0  0  0
  4  5  1  0  0  0  0
  5 10  1  0  0  0  0
  6  3  1  0  0  0  0
  7  2  1  0  0  0  0
  8  3  2  0  0  0  0
  9 11  1  0  0  0  0
 10 12  2  0  0  0  0
 11 13  1  0  0  0  0
 12  9  1  0  0  0  0
 13 17  2  0  0  0  0
 14  6  2  0  0  0  0
 15 22  1  0  0  0  0
 16  4  1  0  0  0  0
 17  8  1  0  0  0  0
 18  2  2  0  0  0  0
 19  4  2  0  0  0  0
 20  9  2  0  0  0  0
 21 12  1  0  0  0  0
 22 21  2  0  0  0  0
 23  1  1  0  0  0  0
 24 15  1  0  0  0  0
 25 27  1  0  0  0  0
 26  7  1  0  0  0  0
 27 23  1  0  0  0  0
  7  6  1  0  0  0  0
 25  8  1  0  0  0  0
 13 14  1  0  0  0  0
  5 15  2  0  0  0  0
M  CHG  2   4   1  16  -1
M  END
> <IDNUMBER>
F2666-0117

> <Chemical_Name>
4-chloro-N-{3-methyl-2-oxo-1-azatricyclo[6.3.1.0^{4,12}]dodeca-4,6,8(12)-trien-6-yl}-3-nitrobenzamide

> <CAS>
898411-01-3

> <PriceCoeff>
1.00

> <MW>
385.80

> <Description>
solid

> <FSP3>
0.26

> <clogP>
3.26

> <TPSA>
92.55

> <Acceptor>
4

> <Donor>
1

> <RotBonds>
3

> <HAC>
27

> <Collection>
General

$$$$
F1065-0535
  -ISIS-  06222321452D

 29 31  0  0  0  0  0  0  0  0999 V2000
   -0.3333    0.1958    0.0000 N   0  0  3  0  0  0  0  0  0  0  0  0
   -1.3833   -0.0000    0.0000 C   0  0  0  0  0  0  0  0  0  0  0  0
   -2.1708    0.7500    0.0000 C   0  0  0  0  0  0  0  0  0  0  0  0
    0.1375    1.1625    0.0000 C   0  0  0  0  0  0  0  0  0  0  0  0
   -1.8833   -1.0000    0.0000 S   0  0  0  0  0  0  0  0  0  0  0  0
    0.4667   -0.5375    0.0000 C   0  0  0  0  0  0  0  0  0  0  0  0
   -3.1500    0.2333    0.0000 C   0  0  0  0  0  0  0  0  0  0  0  0
   -2.9500   -0.8792    0.0000 C   0  0  0  0  0  0  0  0  0  0  0  0
    1.4042   -0.0000    0.0000 C   0  0  3  0  0  0  0  0  0  0  0  0
    1.1875    1.0625    0.0000 C   0  0  0  0  0  0  0  0  0  0  0  0
    4.2042   -0.5375    0.0000 C   0  0  0  0  0  0  0  0  0  0  0  0
   -2.0500    1.8208    0.0000 C   0  0  0  0  0  0  0  0  0  0  0  0
    2.3542   -0.5375    0.0000 S   0  0  0  0  0  0  0  0  0  0  0  0
    3.2875    0.0208    0.0000 C   0  0  0  0  0  0  0  0  0  0  0  0
    4.2042   -1.6042    0.0000 C   0  0  0  0  0  0  0  0  0  0  0  0
   -0.2208    2.1625    0.0000 O   0  0  0  0  0  0  0  0  0  0  0  0
    0.3667   -1.6042    0.0000 O   0  0  0  0  0  0  0  0  0  0  0  0
   -1.0500    2.2708    0.0000 O   0  0  0  0  0  0  0  0  0  0  0  0
    5.1500   -2.1542    0.0000 O   0  0  0  0  0  0  0  0  0  0  0  0
    3.2875   -2.1542    0.0000 O   0  0  0  0  0  0  0  0  0  0  0  0
   -2.9000    2.5208    0.0000 O   0  0  0  0  0  0  0  0  0  0  0  0
   -4.1000    0.7333    0.0000 C   0  0  0  0  0  0  0  0  0  0  0  0
   -3.6958   -1.6167    0.0000 C   0  0  0  0  0  0  0  0  0  0  0  0
    5.1500    0.0208    0.0000 C   0  0  0  0  0  0  0  0  0  0  0  0
    3.2875    1.1000    0.0000 C   0  0  0  0  0  0  0  0  0  0  0  0
   -3.9583    2.0500    0.0000 C   0  0  0  0  0  0  0  0  0  0  0  0
    5.1500    1.1000    0.0000 C   0  0  0  0  0  0  0  0  0  0  0  0
    4.2042    1.6458    0.0000 C   0  0  0  0  0  0  0  0  0  0  0  0
   -4.8333    2.6625    0.0000 C   0  0  0  0  0  0  0  0  0  0  0  0
  2  1  1  0  0  0  0
  3  2  2  0  0  0  0
  4  1  1  0  0  0  0
  5  2  1  0  0  0  0
  6  1  1  0  0  0  0
  7  3  1  0  0  0  0
  8  5  1  0  0  0  0
  9  6  1  0  0  0  0
 10  4  1  0  0  0  0
 11 14  2  0  0  0  0
 12  3  1  0  0  0  0
 13  9  1  0  0  0  0
 14 13  1  0  0  0  0
 15 11  1  0  0  0  0
 16  4  2  0  0  0  0
 17  6  2  0  0  0  0
 18 12  2  0  0  0  0
 19 15  2  0  0  0  0
 20 15  1  0  0  0  0
 21 12  1  0  0  0  0
 22  7  1  0  0  0  0
 23  8  1  0  0  0  0
 24 11  1  0  0  0  0
 25 14  1  0  0  0  0
 26 21  1  0  0  0  0
 27 28  1  0  0  0  0
 28 25  2  0  0  0  0
 29 26  1  0  0  0  0
  9 10  1  0  0  0  0
  7  8  2  0  0  0  0
 24 27  2  0  0  0  0
M  END
> <IDNUMBER>
F1065-0535

> <Chemical_Name>
2-({1-[3-(ethoxycarbonyl)-4,5-dimethylthiophen-2-yl]-2,5-dioxopyrrolidin-3-yl}sulfanyl)benzoic acid

> <CAS>
303033-65-0

> <PriceCoeff>
1.00

> <MW>
433.50

> <Description>
solid

> <FSP3>
0.30

> <clogP>
3.77

> <TPSA>
154.52

> <Acceptor>
6

> <Donor>
0

> <RotBonds>
7

> <HAC>
29

> <Collection>
General

$$$$
F0466-0012
  -ISIS-  06222321142D

 27 30  0  0  0  0  0  0  0  0999 V2000
   -3.2708   -0.6542    0.0000 C   0  0  0  0  0  0  0  0  0  0  0  0
    0.2000   -2.1542    0.0000 N   0  0  3  0  0  0  0  0  0  0  0  0
   -3.6333   -1.1792    0.0000 N   0  0  3  0  0  0  0  0  0  0  0  0
   -3.6333   -0.1792    0.0000 S   0  0  0  0  0  0  0  0  0  0  0  0
   -0.4125   -2.1792    0.0000 C   0  0  0  0  0  0  0  0  0  0  0  0
   -2.6333   -0.6500    0.0000 N   0  0  0  0  0  0  0  0  0  0  0  0
   -4.2208   -1.0000    0.0000 C   0  0  0  0  0  0  0  0  0  0  0  0
    0.5167   -2.6792    0.0000 C   0  0  0  0  0  0  0  0  0  0  0  0
    0.6167   -1.6792    0.0000 C   0  0  0  0  0  0  0  0  0  0  0  0
   -4.2208   -0.3542    0.0000 C   0  0  0  0  0  0  0  0  0  0  0  0
   -1.6708   -1.1500    0.0000 C   0  0  0  0  0  0  0  0  0  0  0  0
   -2.3125   -1.1542    0.0000 N   0  0  0  0  0  0  0  0  0  0  0  0
   -0.7333   -1.6500    0.0000 C   0  0  0  0  0  0  0  0  0  0  0  0
   -1.3500   -1.6542    0.0000 C   0  0  0  0  0  0  0  0  0  0  0  0
    1.1500   -2.5500    0.0000 C   0  0  0  0  0  0  0  0  0  0  0  0
    1.1792   -1.9167    0.0000 C   0  0  0  0  0  0  0  0  0  0  0  0
    0.2792   -3.2792    0.0000 O   0  0  0  0  0  0  0  0  0  0  0  0
    0.5000   -1.0542    0.0000 O   0  0  0  0  0  0  0  0  0  0  0  0
   -1.3708   -0.6000    0.0000 O   0  0  0  0  0  0  0  0  0  0  0  0
   -3.4125   -1.8000    0.0000 C   0  0  0  0  0  0  0  0  0  0  0  0
   -0.7125   -2.7167    0.0000 C   0  0  0  0  0  0  0  0  0  0  0  0
   -4.7500   -1.3000    0.0000 C   0  0  0  0  0  0  0  0  0  0  0  0
   -4.7500   -0.0542    0.0000 C   0  0  0  0  0  0  0  0  0  0  0  0
   -1.6500   -2.2167    0.0000 C   0  0  0  0  0  0  0  0  0  0  0  0
   -1.3333   -2.7500    0.0000 C   0  0  0  0  0  0  0  0  0  0  0  0
   -5.2958   -1.0000    0.0000 C   0  0  0  0  0  0  0  0  0  0  0  0
   -5.2958   -0.3542    0.0000 C   0  0  0  0  0  0  0  0  0  0  0  0
  2  5  1  0  0  0  0
  3  1  1  0  0  0  0
  4  1  1  0  0  0  0
  5 13  2  0  0  0  0
  6  1  2  0  0  0  0
  7  3  1  0  0  0  0
  8  2  1  0  0  0  0
  9  2  1  0  0  0  0
 10  4  1  0  0  0  0
 11 12  1  0  0  0  0
 12  6  1  0  0  0  0
 13 14  1  0  0  0  0
 14 11  1  0  0  0  0
 15  8  1  0  0  0  0
 16  9  1  0  0  0  0
 17  8  2  0  0  0  0
 18  9  2  0  0  0  0
 19 11  2  0  0  0  0
 20  3  1  0  0  0  0
 21 25  2  0  0  0  0
 22  7  1  0  0  0  0
 23 10  1  0  0  0  0
 24 14  2  0  0  0  0
 25 24  1  0  0  0  0
 26 22  2  0  0  0  0
 27 23  2  0  0  0  0
  7 10  2  0  0  0  0
 27 26  1  0  0  0  0
  5 21  1  0  0  0  0
 16 15  1  0  0  0  0
M  END
> <IDNUMBER>
F0466-0012

> <Chemical_Name>
3-(2,5-dioxopyrrolidin-1-yl)-N'-[(2E)-3-methyl-2,3-dihydro-1,3-benzothiazol-2-ylidene]benzohydrazide

> <CAS>
476321-59-2

> <PriceCoeff>
1.00

> <MW>
380.42

> <Description>
solid

> <FSP3>
0.16

> <clogP>
2.95

> <TPSA>
107.38

> <Acceptor>
3

> <Donor>
2

> <RotBonds>
3

> <HAC>
27

> <Collection>
General

$$$$
F0882-0657
  -ISIS-  06222321142D

 28 31  0  0  0  0  0  0  0  0999 V2000
   -0.2000    0.8625    0.0000 C   0  0  0  0  0  0  0  0  0  0  0  0
    0.4375    0.8833    0.0000 N   0  0  0  0  0  0  0  0  0  0  0  0
   -0.5625    0.3208    0.0000 N   0  0  3  0  0  0  0  0  0  0  0  0
    3.3042    0.4208    0.0000 N   0  0  3  0  0  0  0  0  0  0  0  0
   -0.5625    1.3458    0.0000 S   0  0  0  0  0  0  0  0  0  0  0  0
   -1.1625    0.5208    0.0000 C   0  0  0  0  0  0  0  0  0  0  0  0
   -1.1625    1.1625    0.0000 C   0  0  0  0  0  0  0  0  0  0  0  0
    0.7792    0.3458    0.0000 C   0  0  0  0  0  0  0  0  0  0  0  0
    3.6792    0.9333    0.0000 C   0  0  0  0  0  0  0  0  0  0  0  0
    3.6875   -0.0542    0.0000 C   0  0  0  0  0  0  0  0  0  0  0  0
    2.6792    0.4000    0.0000 C   0  0  0  0  0  0  0  0  0  0  0  0
    1.4167    0.3625    0.0000 C   0  0  0  0  0  0  0  0  0  0  0  0
   -1.7208    0.2000    0.0000 C   0  0  0  0  0  0  0  0  0  0  0  0
    0.4792   -0.2167    0.0000 O   0  0  0  0  0  0  0  0  0  0  0  0
    4.2667    0.7500    0.0000 C   0  0  0  0  0  0  0  0  0  0  0  0
    4.2792    0.1625    0.0000 C   0  0  0  0  0  0  0  0  0  0  0  0
    3.4500    1.5708    0.0000 O   0  0  0  0  0  0  0  0  0  0  0  0
    3.5292   -0.7042    0.0000 O   0  0  0  0  0  0  0  0  0  0  0  0
    2.3792   -0.1542    0.0000 C   0  0  0  0  0  0  0  0  0  0  0  0
    2.3542    0.9458    0.0000 C   0  0  0  0  0  0  0  0  0  0  0  0
    1.7167    0.9208    0.0000 C   0  0  0  0  0  0  0  0  0  0  0  0
    1.7375   -0.1792    0.0000 C   0  0  0  0  0  0  0  0  0  0  0  0
   -0.3625   -0.3000    0.0000 C   0  0  0  0  0  0  0  0  0  0  0  0
   -1.7208    1.4833    0.0000 C   0  0  0  0  0  0  0  0  0  0  0  0
   -1.7458   -0.4542    0.0000 O   0  0  0  0  0  0  0  0  0  0  0  0
   -2.2625    1.1625    0.0000 C   0  0  0  0  0  0  0  0  0  0  0  0
   -2.2625    0.5000    0.0000 C   0  0  0  0  0  0  0  0  0  0  0  0
   -1.2000   -0.7792    0.0000 C   0  0  0  0  0  0  0  0  0  0  0  0
  2  1  2  0  0  0  0
  3  1  1  0  0  0  0
  4 11  1  0  0  0  0
  5  1  1  0  0  0  0
  6  3  1  0  0  0  0
  7  5  1  0  0  0  0
  8  2  1  0  0  0  0
  9  4  1  0  0  0  0
 10  4  1  0  0  0  0
 11 19  2  0  0  0  0
 12  8  1  0  0  0  0
 13  6  1  0  0  0  0
 14  8  2  0  0  0  0
 15  9  1  0  0  0  0
 16 10  1  0  0  0  0
 17  9  2  0  0  0  0
 18 10  2  0  0  0  0
 19 22  1  0  0  0  0
 20 21  2  0  0  0  0
 21 12  1  0  0  0  0
 22 12  2  0  0  0  0
 23  3  1  0  0  0  0
 24  7  1  0  0  0  0
 25 13  1  0  0  0  0
 26 24  2  0  0  0  0
 27 13  2  0  0  0  0
 28 25  1  0  0  0  0
  6  7  2  0  0  0  0
 26 27  1  0  0  0  0
 11 20  1  0  0  0  0
 16 15  1  0  0  0  0
M  END
> <IDNUMBER>
F0882-0657

> <Chemical_Name>
4-(2,5-dioxopyrrolidin-1-yl)-N-[(2E)-4-methoxy-3-methyl-2,3-dihydro-1,3-benzothiazol-2-ylidene]benzamide

> <CAS>
477557-23-6

> <PriceCoeff>
1.00

> <MW>
395.43

> <Description>
solid

> <FSP3>
0.20

> <clogP>
2.87

> <TPSA>
104.58

> <Acceptor>
4

> <Donor>
0

> <RotBonds>
4

> <HAC>
28

> <Collection>
General

$$$$
F3374-0266
  -ISIS-  06222321152D

 30 33  0  0  0  0  0  0  0  0999 V2000
    4.2750   -3.2125    0.0000 N   0  0  3  0  0  0  0  0  0  0  0  0
    4.9542   -2.9167    0.0000 C   0  0  0  0  0  0  0  0  0  0  0  0
    4.3417   -3.9542    0.0000 C   0  0  0  0  0  0  0  0  0  0  0  0
   -0.8958    0.5625    0.0000 N   0  3  0  0  0  0  0  0  0  0  0  0
    5.0750   -4.1167    0.0000 C   0  0  0  0  0  0  0  0  0  0  0  0
    5.4542   -3.4750    0.0000 C   0  0  0  0  0  0  0  0  0  0  0  0
    1.6917   -1.7000    0.0000 C   0  0  0  0  0  0  0  0  0  0  0  0
    1.7042   -0.9542    0.0000 N   0  0  0  0  0  0  0  0  0  0  0  0
   -0.2500    0.1833    0.0000 C   0  0  0  0  0  0  0  0  0  0  0  0
    0.4125    0.5583    0.0000 C   0  0  0  0  0  0  0  0  0  0  0  0
    3.6292   -2.8375    0.0000 C   0  0  0  0  0  0  0  0  0  0  0  0
    1.0542   -0.5750    0.0000 C   0  0  0  0  0  0  0  0  0  0  0  0
    1.0625    0.1833    0.0000 C   0  0  0  0  0  0  0  0  0  0  0  0
    5.1167   -2.1875    0.0000 O   0  0  0  0  0  0  0  0  0  0  0  0
    3.7875   -4.4542    0.0000 O   0  0  0  0  0  0  0  0  0  0  0  0
   -1.5500    0.1958    0.0000 O   0  5  0  0  0  0  0  0  0  0  0  0
    2.3417   -2.0792    0.0000 C   0  0  0  0  0  0  0  0  0  0  0  0
   -0.8875    1.3125    0.0000 O   0  0  0  0  0  0  0  0  0  0  0  0
    1.0417   -2.0667    0.0000 O   0  0  0  0  0  0  0  0  0  0  0  0
   -0.2500   -0.5667    0.0000 C   0  0  0  0  0  0  0  0  0  0  0  0
    0.4000   -0.9500    0.0000 C   0  0  0  0  0  0  0  0  0  0  0  0
    3.6375   -2.0917    0.0000 C   0  0  0  0  0  0  0  0  0  0  0  0
    2.9792   -3.2042    0.0000 C   0  0  0  0  0  0  0  0  0  0  0  0
    2.3417   -2.8292    0.0000 C   0  0  0  0  0  0  0  0  0  0  0  0
    2.9917   -1.7125    0.0000 C   0  0  0  0  0  0  0  0  0  0  0  0
    1.7125    0.5583    0.0000 Cl  0  0  0  0  0  0  0  0  0  0  0  0
    6.2000   -3.4750    0.0000 C   0  0  0  0  0  0  0  0  0  0  0  0
    5.4417   -4.7667    0.0000 C   0  0  0  0  0  0  0  0  0  0  0  0
    6.1917   -4.7750    0.0000 C   0  0  0  0  0  0  0  0  0  0  0  0
    6.5750   -4.1250    0.0000 C   0  0  0  0  0  0  0  0  0  0  0  0
  2  1  1  0  0  0  0
  3  1  1  0  0  0  0
  4  9  1  0  0  0  0
  5  3  1  0  0  0  0
  6  2  1  0  0  0  0
  7 17  1  0  0  0  0
  8  7  1  0  0  0  0
  9 20  2  0  0  0  0
 10 13  2  0  0  0  0
 11  1  1  0  0  0  0
 12  8  1  0  0  0  0
 13 12  1  0  0  0  0
 14  2  2  0  0  0  0
 15  3  2  0  0  0  0
 16  4  1  0  0  0  0
 17 24  1  0  0  0  0
 18  4  2  0  0  0  0
 19  7  2  0  0  0  0
 20 21  1  0  0  0  0
 21 12  2  0  0  0  0
 22 11  2  0  0  0  0
 23 11  1  0  0  0  0
 24 23  2  0  0  0  0
 25 22  1  0  0  0  0
 26 13  1  0  0  0  0
 27  6  1  0  0  0  0
 28  5  1  0  0  0  0
 29 28  2  0  0  0  0
 30 27  2  0  0  0  0
  5  6  2  0  0  0  0
 25 17  2  0  0  0  0
 29 30  1  0  0  0  0
  9 10  1  0  0  0  0
M  CHG  2   4   1  16  -1
M  END
> <IDNUMBER>
F3374-0266

> <Chemical_Name>
N-(2-chloro-4-nitrophenyl)-4-(1,3-dioxo-2,3-dihydro-1H-isoindol-2-yl)benzamide

> <CAS>
955299-38-4

> <PriceCoeff>
1.00

> <MW>
421.79

> <Description>
solid

> <FSP3>
0.00

> <clogP>
3.47

> <TPSA>
109.62

> <Acceptor>
5

> <Donor>
1

> <RotBonds>
4

> <HAC>
30

> <Collection>
General

$$$$
F2271-0114
  -ISIS-  06222321142D

 25 27  0  0  0  0  0  0  0  0999 V2000
   -2.3333    7.9292    0.0000 C   0  0  0  0  0  0  0  0  0  0  0  0
   -2.3333    8.7542    0.0000 N   0  0  3  0  0  0  0  0  0  0  0  0
   -1.6208    7.5125    0.0000 C   0  0  0  0  0  0  0  0  0  0  0  0
   -3.7500    3.8000    0.0000 C   0  0  0  0  0  0  0  0  0  0  0  0
   -3.0458    7.5125    0.0000 C   0  0  0  0  0  0  0  0  0  0  0  0
   -3.7583    2.9833    0.0000 C   0  0  0  0  0  0  0  0  0  0  0  0
   -1.6125    6.6792    0.0000 C   0  0  0  0  0  0  0  0  0  0  0  0
   -4.4708    4.2042    0.0000 O   0  0  0  0  0  0  0  0  0  0  0  0
   -3.0375    4.2125    0.0000 N   0  0  0  0  0  0  0  0  0  0  0  0
   -3.0458    2.5583    0.0000 C   0  0  0  0  0  0  0  0  0  0  0  0
   -4.4708    2.5708    0.0000 C   0  0  0  0  0  0  0  0  0  0  0  0
   -3.0500    6.6875    0.0000 C   0  0  0  0  0  0  0  0  0  0  0  0
   -2.3333    6.2667    0.0000 C   0  0  0  0  0  0  0  0  0  0  0  0
   -3.7625    1.3208    0.0000 C   0  0  0  0  0  0  0  0  0  0  0  0
   -3.0458    1.7333    0.0000 C   0  0  0  0  0  0  0  0  0  0  0  0
   -4.4750    1.7375    0.0000 C   0  0  0  0  0  0  0  0  0  0  0  0
   -3.7708    0.4958    0.0000 Cl  0  0  0  0  0  0  0  0  0  0  0  0
   -1.6208    9.1625    0.0000 C   0  0  0  0  0  0  0  0  0  0  0  0
   -3.0500    9.1542    0.0000 C   0  0  0  0  0  0  0  0  0  0  0  0
   -3.0375    5.0292    0.0000 C   0  0  0  0  0  0  0  0  0  0  0  0
   -0.9083    7.9250    0.0000 C   0  0  0  0  0  0  0  0  0  0  0  0
   -0.9083    8.7417    0.0000 C   0  0  0  0  0  0  0  0  0  0  0  0
   -2.3333    5.4417    0.0000 C   0  0  0  0  0  0  0  0  0  0  0  0
   -3.0500    9.9792    0.0000 C   0  0  0  0  0  0  0  0  0  0  0  0
   -3.7625   10.3917    0.0000 C   0  0  0  0  0  0  0  0  0  0  0  0
  2  1  1  0  0  0  0
  3  1  2  0  0  0  0
  4  9  1  0  0  0  0
  5  1  1  0  0  0  0
  6  4  1  0  0  0  0
  7  3  1  0  0  0  0
  8  4  2  0  0  0  0
  9 20  1  0  0  0  0
 10  6  1  0  0  0  0
 11  6  2  0  0  0  0
 12  5  2  0  0  0  0
 13 12  1  0  0  0  0
 14 16  2  0  0  0  0
 15 10  2  0  0  0  0
 16 11  1  0  0  0  0
 17 14  1  0  0  0  0
 18  2  1  0  0  0  0
 19  2  1  0  0  0  0
 20 23  1  0  0  0  0
 21  3  1  0  0  0  0
 22 21  1  0  0  0  0
 23 13  1  0  0  0  0
 24 19  1  0  0  0  0
 25 24  1  0  0  0  0
  7 13  2  0  0  0  0
 22 18  1  0  0  0  0
 15 14  1  0  0  0  0
M  END
> <IDNUMBER>
F2271-0114

> <Chemical_Name>
4-chloro-N-[2-(1-propyl-1,2,3,4-tetrahydroquinolin-6-yl)ethyl]benzamide

> <CAS>
955527-53-4

> <PriceCoeff>
1.00

> <MW>
356.89

> <Description>
solid

> <FSP3>
0.38

> <clogP>
5.76

> <TPSA>
32.34

> <Acceptor>
2

> <Donor>
2

> <RotBonds>
6

> <HAC>
25

> <Collection>
General

> <Reference_compound>
CHEMBL2286415

> <Similarity>
0.8110

$$$$
F3385-2912
  -ISIS-  06222321462D

 29 32  0  0  0  0  0  0  0  0999 V2000
    4.0625    0.2500    0.0000 C   0  0  0  0  0  0  0  0  0  0  0  0
    3.4917   -0.0667    0.0000 C   0  0  0  0  0  0  0  0  0  0  0  0
    2.9292    0.2583    0.0000 C   0  0  0  0  0  0  0  0  0  0  0  0
    4.0625    0.9083    0.0000 C   0  0  0  0  0  0  0  0  0  0  0  0
    2.9292    0.9083    0.0000 C   0  0  0  0  0  0  0  0  0  0  0  0
    3.4917    1.2333    0.0000 O   0  0  0  0  0  0  0  0  0  0  0  0
    2.3667   -0.0667    0.0000 C   0  0  0  0  0  0  0  0  0  0  0  0
    2.3667    1.2250    0.0000 C   0  0  0  0  0  0  0  0  0  0  0  0
    0.1375    1.2333    0.0000 C   0  0  0  0  0  0  0  0  0  0  0  0
    4.6167   -0.0667    0.0000 C   0  0  0  0  0  0  0  0  0  0  0  0
    3.4917   -0.7167    0.0000 O   0  0  0  0  0  0  0  0  0  0  0  0
   -0.4250    0.9083    0.0000 C   0  0  0  0  0  0  0  0  0  0  0  0
    0.6917    0.9083    0.0000 C   0  0  0  0  0  0  0  0  0  0  0  0
    0.1375    1.8750    0.0000 O   0  0  0  0  0  0  0  0  0  0  0  0
    1.8125    0.9000    0.0000 C   0  0  0  0  0  0  0  0  0  0  0  0
    1.2542    1.2250    0.0000 O   0  0  0  0  0  0  0  0  0  0  0  0
   -0.9833    1.2333    0.0000 C   0  0  0  0  0  0  0  0  0  0  0  0
   -0.4250    0.2625    0.0000 C   0  0  0  0  0  0  0  0  0  0  0  0
    1.8125    0.2583    0.0000 C   0  0  0  0  0  0  0  0  0  0  0  0
   -1.5458    0.2625    0.0000 C   0  0  0  0  0  0  0  0  0  0  0  0
   -0.9833   -0.0625    0.0000 C   0  0  0  0  0  0  0  0  0  0  0  0
   -1.5458    0.9083    0.0000 C   0  0  0  0  0  0  0  0  0  0  0  0
   -2.1083   -0.0625    0.0000 O   0  0  0  0  0  0  0  0  0  0  0  0
    4.6167   -0.7167    0.0000 C   0  0  0  0  0  0  0  0  0  0  0  0
    5.1750    0.2500    0.0000 C   0  0  0  0  0  0  0  0  0  0  0  0
   -2.1083   -0.7042    0.0000 C   0  0  0  0  0  0  0  0  0  0  0  0
    5.1750   -1.0417    0.0000 C   0  0  0  0  0  0  0  0  0  0  0  0
    5.7292   -0.0667    0.0000 C   0  0  0  0  0  0  0  0  0  0  0  0
    5.7292   -0.7167    0.0000 C   0  0  0  0  0  0  0  0  0  0  0  0
  2  1  1  0  0  0  0
  3  2  1  0  0  0  0
  4  1  2  0  0  0  0
  5  6  1  0  0  0  0
  6  4  1  0  0  0  0
  7  3  2  0  0  0  0
  8  5  2  0  0  0  0
  9 13  1  0  0  0  0
 10  1  1  0  0  0  0
 11  2  2  0  0  0  0
 12  9  1  0  0  0  0
 13 16  1  0  0  0  0
 14  9  2  0  0  0  0
 15  8  1  0  0  0  0
 16 15  1  0  0  0  0
 17 12  2  0  0  0  0
 18 12  1  0  0  0  0
 19  7  1  0  0  0  0
 20 21  1  0  0  0  0
 21 18  2  0  0  0  0
 22 17  1  0  0  0  0
 23 20  1  0  0  0  0
 24 10  2  0  0  0  0
 25 10  1  0  0  0  0
 26 23  1  0  0  0  0
 27 24  1  0  0  0  0
 28 25  2  0  0  0  0
 29 28  1  0  0  0  0
  3  5  1  0  0  0  0
 29 27  2  0  0  0  0
 19 15  2  0  0  0  0
 20 22  2  0  0  0  0
M  END
> <IDNUMBER>
F3385-2912

> <Chemical_Name>
7-[2-(4-methoxyphenyl)-2-oxoethoxy]-3-phenyl-4H-chromen-4-one

> <CAS>
858767-60-9

> <PriceCoeff>
1.00

> <MW>
386.40

> <Description>
solid

> <FSP3>
0.08

> <clogP>
4.26

> <TPSA>
61.83

> <Acceptor>
5

> <Donor>
0

> <RotBonds>
6

> <HAC>
29

> <Collection>
General

> <Reference_compound>
CHEMBL44

> <Similarity>
0.8580

$$$$
F2147-0935
  -ISIS-  06222321142D

 23 25  0  0  0  0  0  0  0  0999 V2000
    4.9375   -2.2625    0.0000 C   0  0  3  0  0  0  0  0  0  0  0  0
    5.6917   -1.8667    0.0000 O   0  0  0  0  0  0  0  0  0  0  0  0
    5.3542   -1.5417    0.0000 O   0  0  0  0  0  0  0  0  0  0  0  0
    4.2625   -1.8667    0.0000 O   0  0  0  0  0  0  0  0  0  0  0  0
    4.9750   -0.6167    0.0000 C   0  0  3  0  0  0  0  0  0  0  0  0
    4.9125   -6.3917    0.0000 C   0  0  0  0  0  0  0  0  0  0  0  0
    4.9167   -5.5708    0.0000 C   0  0  0  0  0  0  0  0  0  0  0  0
    4.9292   -3.0917    0.0000 C   0  0  0  0  0  0  0  0  0  0  0  0
    4.9042   -7.2167    0.0000 Si  0  0  3  0  0  0  0  0  0  0  0  0
    5.6917   -1.0375    0.0000 C   0  0  0  0  0  0  0  0  0  0  0  0
    4.2625   -1.0375    0.0000 C   0  0  0  0  0  0  0  0  0  0  0  0
    4.5542   -1.3292    0.0000 C   0  0  0  0  0  0  0  0  0  0  0  0
    4.9208   -4.7458    0.0000 C   0  0  0  0  0  0  0  0  0  0  0  0
    5.6458   -3.5042    0.0000 C   0  0  0  0  0  0  0  0  0  0  0  0
    4.2083   -3.5000    0.0000 C   0  0  0  0  0  0  0  0  0  0  0  0
    4.2042   -4.3292    0.0000 C   0  0  0  0  0  0  0  0  0  0  0  0
    5.6458   -4.3333    0.0000 C   0  0  0  0  0  0  0  0  0  0  0  0
    4.9667    0.2125    0.0000 C   0  0  0  0  0  0  0  0  0  0  0  0
    4.1917   -7.6292    0.0000 C   0  0  0  0  0  0  0  0  0  0  0  0
    5.6167   -7.6333    0.0000 C   0  0  0  0  0  0  0  0  0  0  0  0
    4.9042   -8.0417    0.0000 C   0  0  0  0  0  0  0  0  0  0  0  0
    5.6833    0.6333    0.0000 C   0  0  0  0  0  0  0  0  0  0  0  0
    5.6750    1.4625    0.0000 C   0  0  0  0  0  0  0  0  0  0  0  0
  2  1  1  0  0  0  0
  3  1  1  0  0  0  0
  4  1  1  0  0  0  0
  5 10  1  0  0  0  0
  6  7  3  0  0  0  0
  7 13  1  0  0  0  0
  8  1  1  0  0  0  0
  9  6  1  0  0  0  0
 10  2  1  0  0  0  0
 11  4  1  0  0  0  0
 12  3  1  0  0  0  0
 13 17  1  0  0  0  0
 14  8  1  0  0  0  0
 15  8  2  0  0  0  0
 16 15  1  0  0  0  0
 17 14  2  0  0  0  0
 18  5  1  0  0  0  0
 19  9  1  0  0  0  0
 20  9  1  0  0  0  0
 21  9  1  0  0  0  0
 22 18  1  0  0  0  0
 23 22  1  0  0  0  0
  5 11  1  0  0  0  0
 12  5  1  0  0  0  0
 13 16  2  0  0  0  0
M  END
> <IDNUMBER>
F2147-0935

> <Chemical_Name>
trimethyl[2-(4-{4-propyl-2,6,7-trioxabicyclo[2.2.2]octan-1-yl}phenyl)ethynyl]silane

> <CAS>
108613-97-4

> <PriceCoeff>
1.00

> <MW>
330.49

> <Description>
solid

> <FSP3>
0.58

> <clogP>
5.52

> <TPSA>
27.69

> <Acceptor>
3

> <Donor>
0

> <RotBonds>
3

> <HAC>
23

> <Collection>
General

> <Reference_compound>
CHEMBL563818

> <Similarity>
0.8050

$$$$
F2668-0047
  -ISIS-  06222321152D

 27 30  0  0  0  0  0  0  0  0999 V2000
   -5.8125    1.8125    0.0000 N   0  3  0  0  0  0  0  0  0  0  0  0
   -5.1583    2.1958    0.0000 C   0  0  0  0  0  0  0  0  0  0  0  0
   -3.8625    7.4417    0.0000 N   0  0  3  0  0  0  0  0  0  0  0  0
   -3.8625    6.6917    0.0000 C   0  0  0  0  0  0  0  0  0  0  0  0
   -4.5208    6.3167    0.0000 C   0  0  0  0  0  0  0  0  0  0  0  0
   -4.5083    7.8167    0.0000 C   0  0  0  0  0  0  0  0  0  0  0  0
   -4.5083    4.0667    0.0000 C   0  0  0  0  0  0  0  0  0  0  0  0
   -3.2208    6.3167    0.0000 C   0  0  0  0  0  0  0  0  0  0  0  0
   -5.1583    2.9458    0.0000 C   0  0  0  0  0  0  0  0  0  0  0  0
   -3.8625    4.4417    0.0000 N   0  0  0  0  0  0  0  0  0  0  0  0
   -4.5083    3.3208    0.0000 C   0  0  0  0  0  0  0  0  0  0  0  0
   -3.8625    5.1917    0.0000 C   0  0  0  0  0  0  0  0  0  0  0  0
   -4.5083    1.8208    0.0000 C   0  0  0  0  0  0  0  0  0  0  0  0
   -5.8125    1.0625    0.0000 O   0  5  0  0  0  0  0  0  0  0  0  0
   -4.5208    5.5667    0.0000 C   0  0  0  0  0  0  0  0  0  0  0  0
   -3.2208    5.5667    0.0000 C   0  0  0  0  0  0  0  0  0  0  0  0
   -6.4625    2.1875    0.0000 O   0  0  0  0  0  0  0  0  0  0  0  0
   -5.1625    6.6917    0.0000 C   0  0  0  0  0  0  0  0  0  0  0  0
   -5.1583    7.4417    0.0000 C   0  0  0  0  0  0  0  0  0  0  0  0
   -5.1583    4.4417    0.0000 O   0  0  0  0  0  0  0  0  0  0  0  0
   -4.5083    8.5667    0.0000 O   0  0  0  0  0  0  0  0  0  0  0  0
   -3.8625    2.9458    0.0000 C   0  0  0  0  0  0  0  0  0  0  0  0
   -3.8625    2.1958    0.0000 C   0  0  0  0  0  0  0  0  0  0  0  0
   -3.2208    7.8167    0.0000 C   0  0  0  0  0  0  0  0  0  0  0  0
   -4.5083    1.0708    0.0000 Cl  0  0  0  0  0  0  0  0  0  0  0  0
   -2.5708    6.6917    0.0000 C   0  0  0  0  0  0  0  0  0  0  0  0
   -2.5708    7.4417    0.0000 C   0  0  0  0  0  0  0  0  0  0  0  0
  2  1  1  0  0  0  0
  3  4  1  0  0  0  0
  4  8  2  0  0  0  0
  5 15  2  0  0  0  0
  6  3  1  0  0  0  0
  7 11  1  0  0  0  0
  8 16  1  0  0  0  0
  9  2  1  0  0  0  0
 10  7  1  0  0  0  0
 11  9  2  0  0  0  0
 12 10  1  0  0  0  0
 13  2  2  0  0  0  0
 14  1  1  0  0  0  0
 15 12  1  0  0  0  0
 16 12  2  0  0  0  0
 17  1  2  0  0  0  0
 18  5  1  0  0  0  0
 19 18  1  0  0  0  0
 20  7  2  0  0  0  0
 21  6  2  0  0  0  0
 22 23  2  0  0  0  0
 23 13  1  0  0  0  0
 24 27  1  0  0  0  0
 25 13  1  0  0  0  0
 26  8  1  0  0  0  0
 27 26  1  0  0  0  0
 11 22  1  0  0  0  0
  4  5  1  0  0  0  0
 19  6  1  0  0  0  0
 24  3  1  0  0  0  0
M  CHG  2   1   1  14  -1
M  END
> <IDNUMBER>
F2668-0047

> <Chemical_Name>
4-chloro-3-nitro-N-{2-oxo-1-azatricyclo[7.3.1.0^{5,13}]trideca-5,7,9(13)-trien-7-yl}benzamide

> <CAS>
898455-50-0

> <PriceCoeff>
1.00

> <MW>
385.80

> <Description>
solid

> <FSP3>
0.26

> <clogP>
3.37

> <TPSA>
92.55

> <Acceptor>
4

> <Donor>
1

> <RotBonds>
3

> <HAC>
27

> <Collection>
General

$$$$
F3023-0922
  -ISIS-  06222321152D

 30 34  0  0  0  0  0  0  0  0999 V2000
    3.6250   -5.4042    0.0000 N   0  0  3  0  0  0  0  0  0  0  0  0
    4.0417   -5.9750    0.0000 C   0  0  0  0  0  0  0  0  0  0  0  0
    4.0417   -4.8292    0.0000 C   0  0  0  0  0  0  0  0  0  0  0  0
    4.7167   -5.7542    0.0000 C   0  0  3  0  0  0  0  0  0  0  0  0
    4.7167   -5.0417    0.0000 C   0  0  0  0  0  0  0  0  0  0  0  0
    5.2917   -6.1667    0.0000 N   0  0  3  0  0  0  0  0  0  0  0  0
    6.4375   -7.0000    0.0000 N   0  0  3  0  0  0  0  0  0  0  0  0
    2.9167   -5.4042    0.0000 C   0  0  0  0  0  0  0  0  0  0  0  0
    1.5042   -6.6417    0.0000 C   0  0  0  0  0  0  0  0  0  0  0  0
    7.0042   -7.4167    0.0000 C   0  0  0  0  0  0  0  0  0  0  0  0
    3.8292   -6.6500    0.0000 O   0  0  0  0  0  0  0  0  0  0  0  0
    1.8667   -7.2542    0.0000 C   0  0  0  0  0  0  0  0  0  0  0  0
    0.8167   -6.8000    0.0000 O   0  0  0  0  0  0  0  0  0  0  0  0
    3.8167   -4.1542    0.0000 O   0  0  0  0  0  0  0  0  0  0  0  0
    1.4000   -7.7792    0.0000 O   0  0  0  0  0  0  0  0  0  0  0  0
    5.2167   -6.8667    0.0000 C   0  0  0  0  0  0  0  0  0  0  0  0
    5.9375   -5.8750    0.0000 C   0  0  0  0  0  0  0  0  0  0  0  0
    6.5125   -6.2917    0.0000 C   0  0  0  0  0  0  0  0  0  0  0  0
    5.7875   -7.2875    0.0000 C   0  0  0  0  0  0  0  0  0  0  0  0
    0.7500   -7.5000    0.0000 C   0  0  0  0  0  0  0  0  0  0  0  0
    1.8542   -6.0292    0.0000 C   0  0  0  0  0  0  0  0  0  0  0  0
    2.5667   -6.0250    0.0000 C   0  0  0  0  0  0  0  0  0  0  0  0
    2.5792   -7.2417    0.0000 C   0  0  0  0  0  0  0  0  0  0  0  0
    7.6500   -7.1250    0.0000 C   0  0  0  0  0  0  0  0  0  0  0  0
    6.9292   -8.1167    0.0000 C   0  0  0  0  0  0  0  0  0  0  0  0
    8.1542   -8.2417    0.0000 C   0  0  0  0  0  0  0  0  0  0  0  0
    2.9250   -6.6292    0.0000 C   0  0  0  0  0  0  0  0  0  0  0  0
    8.2250   -7.5375    0.0000 C   0  0  0  0  0  0  0  0  0  0  0  0
    7.5042   -8.5292    0.0000 C   0  0  0  0  0  0  0  0  0  0  0  0
    8.7292   -8.6542    0.0000 F   0  0  0  0  0  0  0  0  0  0  0  0
  2  1  1  0  0  0  0
  3  1  1  0  0  0  0
  4  2  1  0  0  0  0
  5  3  1  0  0  0  0
  6  4  1  0  0  0  0
  7 18  1  0  0  0  0
  8  1  1  0  0  0  0
  9 21  1  0  0  0  0
 10  7  1  0  0  0  0
 11  2  2  0  0  0  0
 12 23  1  0  0  0  0
 13  9  1  0  0  0  0
 14  3  2  0  0  0  0
 15 12  1  0  0  0  0
 16  6  1  0  0  0  0
 17  6  1  0  0  0  0
 18 17  1  0  0  0  0
 19 16  1  0  0  0  0
 20 13  1  0  0  0  0
 21 22  2  0  0  0  0
 22  8  1  0  0  0  0
 23 27  2  0  0  0  0
 24 10  1  0  0  0  0
 25 10  2  0  0  0  0
 26 29  2  0  0  0  0
 27 22  1  0  0  0  0
 28 24  2  0  0  0  0
 29 25  1  0  0  0  0
 30 26  1  0  0  0  0
  5  4  1  0  0  0  0
  9 12  2  0  0  0  0
  7 19  1  0  0  0  0
 15 20  1  0  0  0  0
 26 28  1  0  0  0  0
M  END
> <IDNUMBER>
F3023-0922

> <Chemical_Name>
1-[(2H-1,3-benzodioxol-5-yl)methyl]-3-[4-(4-fluorophenyl)piperazin-1-yl]pyrrolidine-2,5-dione

> <CAS>
857494-29-2

> <PriceCoeff>
1.00

> <MW>
411.43

> <Description>
solid

> <FSP3>
0.36

> <clogP>
4.17

> <TPSA>
62.32

> <Acceptor>
5

> <Donor>
2

> <RotBonds>
4

> <HAC>
30

> <Collection>
General

$$$$
F2049-0482
  -ISIS-  06222321142D

 28 31  0  0  0  0  0  0  0  0999 V2000
   -4.4833    6.6875    0.0000 N   0  0  3  0  0  0  0  0  0  0  0  0
   -5.2083    6.2667    0.0000 C   0  0  0  0  0  0  0  0  0  0  0  0
   -3.7583    6.2792    0.0000 C   0  0  0  0  0  0  0  0  0  0  0  0
   -3.7500    3.8000    0.0000 C   0  0  0  0  0  0  0  0  0  0  0  0
   -3.0375    4.2125    0.0000 N   0  0  0  0  0  0  0  0  0  0  0  0
   -3.7583    5.4500    0.0000 C   0  0  0  0  0  0  0  0  0  0  0  0
   -3.7500    2.9625    0.0000 C   0  0  0  0  0  0  0  0  0  0  0  0
   -3.0458    6.6917    0.0000 C   0  0  0  0  0  0  0  0  0  0  0  0
   -3.0375    5.0292    0.0000 C   0  0  0  0  0  0  0  0  0  0  0  0
   -5.1958    5.4375    0.0000 O   0  0  0  0  0  0  0  0  0  0  0  0
   -5.9208    6.6792    0.0000 C   0  0  0  0  0  0  0  0  0  0  0  0
   -4.4583    4.2042    0.0000 O   0  0  0  0  0  0  0  0  0  0  0  0
   -2.3250    6.2792    0.0000 C   0  0  0  0  0  0  0  0  0  0  0  0
   -3.0208    2.5583    0.0000 C   0  0  0  0  0  0  0  0  0  0  0  0
   -4.4583    2.5458    0.0000 C   0  0  0  0  0  0  0  0  0  0  0  0
   -4.4833    7.5167    0.0000 C   0  0  0  0  0  0  0  0  0  0  0  0
   -2.3250    5.4542    0.0000 C   0  0  0  0  0  0  0  0  0  0  0  0
   -3.0083    1.7375    0.0000 C   0  0  0  0  0  0  0  0  0  0  0  0
   -4.4458    1.7333    0.0000 C   0  0  0  0  0  0  0  0  0  0  0  0
   -3.7458    1.3125    0.0000 C   0  0  0  0  0  0  0  0  0  0  0  0
   -3.7708    7.9292    0.0000 C   0  0  0  0  0  0  0  0  0  0  0  0
   -3.0500    7.5167    0.0000 C   0  0  0  0  0  0  0  0  0  0  0  0
   -6.6167    6.2542    0.0000 C   0  0  0  0  0  0  0  0  0  0  0  0
   -5.9208    7.5042    0.0000 C   0  0  0  0  0  0  0  0  0  0  0  0
   -3.7375    0.4750    0.0000 C   0  0  0  0  0  0  0  0  0  0  0  0
   -7.3417    6.6667    0.0000 C   0  0  0  0  0  0  0  0  0  0  0  0
   -6.6292    7.9167    0.0000 C   0  0  0  0  0  0  0  0  0  0  0  0
   -7.3417    7.5042    0.0000 C   0  0  0  0  0  0  0  0  0  0  0  0
  2  1  1  0  0  0  0
  3  1  1  0  0  0  0
  4  5  1  0  0  0  0
  5  9  1  0  0  0  0
  6  3  1  0  0  0  0
  7  4  1  0  0  0  0
  8  3  2  0  0  0  0
  9  6  2  0  0  0  0
 10  2  2  0  0  0  0
 11  2  1  0  0  0  0
 12  4  2  0  0  0  0
 13  8  1  0  0  0  0
 14  7  1  0  0  0  0
 15  7  2  0  0  0  0
 16  1  1  0  0  0  0
 17 13  2  0  0  0  0
 18 14  2  0  0  0  0
 19 15  1  0  0  0  0
 20 19  2  0  0  0  0
 21 16  1  0  0  0  0
 22 21  1  0  0  0  0
 23 11  1  0  0  0  0
 24 11  2  0  0  0  0
 25 20  1  0  0  0  0
 26 23  2  0  0  0  0
 27 24  1  0  0  0  0
 28 27  2  0  0  0  0
 22  8  1  0  0  0  0
 17  9  1  0  0  0  0
 28 26  1  0  0  0  0
 20 18  1  0  0  0  0
M  END
> <IDNUMBER>
F2049-0482

> <Chemical_Name>
N-(1-benzoyl-1,2,3,4-tetrahydroquinolin-7-yl)-4-methylbenzamide

> <CAS>
946368-69-0

> <PriceCoeff>
1.00

> <MW>
370.44

> <Description>
solid

> <FSP3>
0.17

> <clogP>
4.05

> <TPSA>
49.41

> <Acceptor>
2

> <Donor>
1

> <RotBonds>
4

> <HAC>
28

> <Collection>
General

> <Reference_compound>
CHEMBL2286415

> <Similarity>
0.8010

$$$$
F3386-3206
  -ISIS-  06222321152D

 23 25  0  0  0  0  0  0  0  0999 V2000
    5.3042   -0.8417    0.0000 C   0  0  0  0  0  0  0  0  0  0  0  0
    6.1292   -0.8417    0.0000 C   0  0  0  0  0  0  0  0  0  0  0  0
    4.9042   -0.1250    0.0000 N   0  0  3  0  0  0  0  0  0  0  0  0
    5.3167    0.5875    0.0000 N   0  0  0  0  0  0  0  0  0  0  0  0
    6.5500   -0.1375    0.0000 C   0  0  0  0  0  0  0  0  0  0  0  0
    6.1417    0.5833    0.0000 C   0  0  0  0  0  0  0  0  0  0  0  0
    7.3750   -0.1417    0.0000 N   0  0  0  0  0  0  0  0  0  0  0  0
    4.8917   -1.5542    0.0000 O   0  0  0  0  0  0  0  0  0  0  0  0
    4.0792   -0.1167    0.0000 C   0  0  0  0  0  0  0  0  0  0  0  0
    6.5375   -1.5667    0.0000 Cl  0  0  0  0  0  0  0  0  0  0  0  0
    7.7792   -0.8625    0.0000 C   0  0  0  0  0  0  0  0  0  0  0  0
    8.6042   -0.8667    0.0000 C   0  0  0  0  0  0  0  0  0  0  0  0
   10.2542   -0.8875    0.0000 C   0  0  0  0  0  0  0  0  0  0  0  0
    9.0042   -1.5917    0.0000 C   0  0  0  0  0  0  0  0  0  0  0  0
    9.0167   -0.1583    0.0000 C   0  0  0  0  0  0  0  0  0  0  0  0
    9.8417   -0.1667    0.0000 C   0  0  0  0  0  0  0  0  0  0  0  0
    9.8292   -1.5917    0.0000 C   0  0  0  0  0  0  0  0  0  0  0  0
    3.6667   -0.8292    0.0000 C   0  0  0  0  0  0  0  0  0  0  0  0
    3.6667    0.6000    0.0000 C   0  0  0  0  0  0  0  0  0  0  0  0
   11.0792   -0.8917    0.0000 C   0  0  0  0  0  0  0  0  0  0  0  0
    2.8417   -0.8292    0.0000 C   0  0  0  0  0  0  0  0  0  0  0  0
    2.8417    0.6083    0.0000 C   0  0  0  0  0  0  0  0  0  0  0  0
    2.4292   -0.1042    0.0000 C   0  0  0  0  0  0  0  0  0  0  0  0
  2  1  1  0  0  0  0
  3  1  1  0  0  0  0
  4  3  1  0  0  0  0
  5  2  2  0  0  0  0
  6  4  2  0  0  0  0
  7  5  1  0  0  0  0
  8  1  2  0  0  0  0
  9  3  1  0  0  0  0
 10  2  1  0  0  0  0
 11  7  1  0  0  0  0
 12 11  1  0  0  0  0
 13 16  1  0  0  0  0
 14 12  2  0  0  0  0
 15 12  1  0  0  0  0
 16 15  2  0  0  0  0
 17 14  1  0  0  0  0
 18  9  1  0  0  0  0
 19  9  2  0  0  0  0
 20 13  1  0  0  0  0
 21 18  2  0  0  0  0
 22 19  1  0  0  0  0
 23 22  2  0  0  0  0
  5  6  1  0  0  0  0
 23 21  1  0  0  0  0
 17 13  2  0  0  0  0
M  END
> <IDNUMBER>
F3386-3206

> <Chemical_Name>
4-chloro-5-{[(4-methylphenyl)methyl]amino}-2-phenyl-2,3-dihydropyridazin-3-one

> <CAS>
923812-87-7

> <PriceCoeff>
1.00

> <MW>
325.79

> <Description>
solid

> <FSP3>
0.11

> <clogP>
3.97

> <TPSA>
44.70

> <Acceptor>
2

> <Donor>
2

> <RotBonds>
4

> <HAC>
23

> <Collection>
General

> <Reference_compound>
CHEMBL1881194

> <Similarity>
0.8370

$$$$
F2049-0480
  -ISIS-  06222321442D

 28 31  0  0  0  0  0  0  0  0999 V2000
   -4.4833    6.6875    0.0000 N   0  0  3  0  0  0  0  0  0  0  0  0
   -5.2083    6.2667    0.0000 C   0  0  0  0  0  0  0  0  0  0  0  0
   -3.7583    6.2792    0.0000 C   0  0  0  0  0  0  0  0  0  0  0  0
   -3.7500    3.8000    0.0000 C   0  0  0  0  0  0  0  0  0  0  0  0
   -3.0375    4.2125    0.0000 N   0  0  0  0  0  0  0  0  0  0  0  0
   -3.7583    5.4500    0.0000 C   0  0  0  0  0  0  0  0  0  0  0  0
   -3.7625    2.9708    0.0000 C   0  0  0  0  0  0  0  0  0  0  0  0
   -3.0458    6.6917    0.0000 C   0  0  0  0  0  0  0  0  0  0  0  0
   -3.0375    5.0292    0.0000 C   0  0  0  0  0  0  0  0  0  0  0  0
   -5.1958    5.4375    0.0000 O   0  0  0  0  0  0  0  0  0  0  0  0
   -5.9208    6.6792    0.0000 C   0  0  0  0  0  0  0  0  0  0  0  0
   -4.4833    4.2042    0.0000 O   0  0  0  0  0  0  0  0  0  0  0  0
   -4.4708    2.5625    0.0000 C   0  0  0  0  0  0  0  0  0  0  0  0
   -2.3250    6.2792    0.0000 C   0  0  0  0  0  0  0  0  0  0  0  0
   -4.4833    7.5167    0.0000 C   0  0  0  0  0  0  0  0  0  0  0  0
   -2.3250    5.4542    0.0000 C   0  0  0  0  0  0  0  0  0  0  0  0
   -4.4583    1.7250    0.0000 C   0  0  0  0  0  0  0  0  0  0  0  0
   -3.0375    2.5708    0.0000 C   0  0  0  0  0  0  0  0  0  0  0  0
   -3.7708    7.9292    0.0000 C   0  0  0  0  0  0  0  0  0  0  0  0
   -3.0458    1.7375    0.0000 C   0  0  0  0  0  0  0  0  0  0  0  0
   -3.0500    7.5167    0.0000 C   0  0  0  0  0  0  0  0  0  0  0  0
   -5.9208    7.5042    0.0000 C   0  0  0  0  0  0  0  0  0  0  0  0
   -6.6167    6.2542    0.0000 C   0  0  0  0  0  0  0  0  0  0  0  0
   -3.7500    1.3208    0.0000 C   0  0  0  0  0  0  0  0  0  0  0  0
   -5.1750    1.2958    0.0000 C   0  0  0  0  0  0  0  0  0  0  0  0
   -7.3417    6.6667    0.0000 C   0  0  0  0  0  0  0  0  0  0  0  0
   -6.6292    7.9167    0.0000 C   0  0  0  0  0  0  0  0  0  0  0  0
   -7.3417    7.5042    0.0000 C   0  0  0  0  0  0  0  0  0  0  0  0
  2  1  1  0  0  0  0
  3  1  1  0  0  0  0
  4  5  1  0  0  0  0
  5  9  1  0  0  0  0
  6  3  1  0  0  0  0
  7  4  1  0  0  0  0
  8  3  2  0  0  0  0
  9  6  2  0  0  0  0
 10  2  2  0  0  0  0
 11  2  1  0  0  0  0
 12  4  2  0  0  0  0
 13  7  2  0  0  0  0
 14  8  1  0  0  0  0
 15  1  1  0  0  0  0
 16 14  2  0  0  0  0
 17 13  1  0  0  0  0
 18  7  1  0  0  0  0
 19 15  1  0  0  0  0
 20 18  2  0  0  0  0
 21 19  1  0  0  0  0
 22 11  2  0  0  0  0
 23 11  1  0  0  0  0
 24 20  1  0  0  0  0
 25 17  1  0  0  0  0
 26 23  2  0  0  0  0
 27 22  1  0  0  0  0
 28 26  1  0  0  0  0
 21  8  1  0  0  0  0
 16  9  1  0  0  0  0
 28 27  2  0  0  0  0
 17 24  2  0  0  0  0
M  END
> <IDNUMBER>
F2049-0480

> <Chemical_Name>
N-(1-benzoyl-1,2,3,4-tetrahydroquinolin-7-yl)-3-methylbenzamide

> <CAS>
946321-03-5

> <PriceCoeff>
1.00

> <MW>
370.44

> <Description>
solid

> <FSP3>
0.17

> <clogP>
4.05

> <TPSA>
49.41

> <Acceptor>
2

> <Donor>
1

> <RotBonds>
4

> <HAC>
28

> <Collection>
General

> <Reference_compound>
CHEMBL2286417

> <Similarity>
0.8270

$$$$
F3139-0632
  -ISIS-  06222321152D

 20 22  0  0  0  0  0  0  0  0999 V2000
    5.2750   -0.4292    0.0000 C   0  0  0  0  0  0  0  0  0  0  0  0
    5.2750   -1.2667    0.0000 C   0  0  0  0  0  0  0  0  0  0  0  0
    4.5542   -0.0125    0.0000 O   0  0  0  0  0  0  0  0  0  0  0  0
    3.8292   -1.2667    0.0000 C   0  0  0  0  0  0  0  0  0  0  0  0
    4.5500   -1.6792    0.0000 C   0  0  0  0  0  0  0  0  0  0  0  0
    5.9875   -0.0250    0.0000 C   0  0  0  0  0  0  0  0  0  0  0  0
    3.8375   -0.4292    0.0000 C   0  0  0  0  0  0  0  0  0  0  0  0
    6.7042   -0.4417    0.0000 C   0  0  0  0  0  0  0  0  0  0  0  0
    7.4167   -0.0292    0.0000 C   0  0  0  0  0  0  0  0  0  0  0  0
    5.9917    0.7958    0.0000 C   0  0  0  0  0  0  0  0  0  0  0  0
    3.1167   -1.6750    0.0000 C   0  0  0  0  0  0  0  0  0  0  0  0
    4.5500   -2.5042    0.0000 O   0  0  0  0  0  0  0  0  0  0  0  0
    3.1167   -0.0167    0.0000 C   0  0  0  0  0  0  0  0  0  0  0  0
    7.4167    0.7958    0.0000 C   0  0  0  0  0  0  0  0  0  0  0  0
    6.6917   -1.2667    0.0000 Cl  0  0  0  0  0  0  0  0  0  0  0  0
    6.7042    1.2083    0.0000 C   0  0  0  0  0  0  0  0  0  0  0  0
    2.4042   -1.2625    0.0000 C   0  0  0  0  0  0  0  0  0  0  0  0
    2.4042   -0.4375    0.0000 C   0  0  0  0  0  0  0  0  0  0  0  0
    8.1375    1.2083    0.0000 Cl  0  0  0  0  0  0  0  0  0  0  0  0
    1.6917   -1.6750    0.0000 C   0  0  0  0  0  0  0  0  0  0  0  0
  2  1  2  0  0  0  0
  3  1  1  0  0  0  0
  4  7  1  0  0  0  0
  5  2  1  0  0  0  0
  6  1  1  0  0  0  0
  7  3  1  0  0  0  0
  8  6  2  0  0  0  0
  9  8  1  0  0  0  0
 10  6  1  0  0  0  0
 11  4  2  0  0  0  0
 12  5  2  0  0  0  0
 13  7  2  0  0  0  0
 14 16  1  0  0  0  0
 15  8  1  0  0  0  0
 16 10  2  0  0  0  0
 17 18  2  0  0  0  0
 18 13  1  0  0  0  0
 19 14  1  0  0  0  0
 20 17  1  0  0  0  0
  4  5  1  0  0  0  0
  9 14  2  0  0  0  0
 17 11  1  0  0  0  0
M  END
> <IDNUMBER>
F3139-0632

> <Chemical_Name>
2-(2,4-dichlorophenyl)-6-methyl-4H-chromen-4-one

> <CAS>
637747-68-3

> <PriceCoeff>
1.00

> <MW>
305.16

> <Description>
solid

> <FSP3>
0.06

> <clogP>
5.16

> <TPSA>
26.30

> <Acceptor>
2

> <Donor>
0

> <RotBonds>
1

> <HAC>
20

> <Collection>
General

> <Reference_compound>
CHEMBL275638

> <Similarity>
0.8240

$$$$
F2879-8737
  -ISIS-  06222321462D

 28 31  0  0  0  0  0  0  0  0999 V2000
   -0.4958   -0.2875    0.0000 N   0  0  0  0  0  0  0  0  0  0  0  0
   -5.8458    5.4375    0.0000 N   0  0  0  0  0  0  0  0  0  0  0  0
   -0.9583    0.2875    0.0000 C   0  0  0  0  0  0  0  0  0  0  0  0
   -5.4208    4.8167    0.0000 C   0  0  0  0  0  0  0  0  0  0  0  0
   -2.8458    2.3458    0.0000 C   0  0  0  0  0  0  0  0  0  0  0  0
   -3.4833    2.7458    0.0000 C   0  0  0  0  0  0  0  0  0  0  0  0
   -1.6583    0.0208    0.0000 C   0  0  0  0  0  0  0  0  0  0  0  0
   -4.7083    5.0292    0.0000 C   0  0  0  0  0  0  0  0  0  0  0  0
   -1.6125   -0.7250    0.0000 C   0  0  0  0  0  0  0  0  0  0  0  0
   -4.6833    5.7917    0.0000 C   0  0  0  0  0  0  0  0  0  0  0  0
   -0.8958   -0.9167    0.0000 C   0  0  0  0  0  0  0  0  0  0  0  0
   -5.3958    6.0292    0.0000 C   0  0  0  0  0  0  0  0  0  0  0  0
   -2.1875    2.6958    0.0000 O   0  0  0  0  0  0  0  0  0  0  0  0
   -4.1458    2.3958    0.0000 O   0  0  0  0  0  0  0  0  0  0  0  0
   -2.8833    1.5875    0.0000 N   0  0  0  0  0  0  0  0  0  0  0  0
   -3.4583    3.4958    0.0000 N   0  0  0  0  0  0  0  0  0  0  0  0
   -2.2500    1.1833    0.0000 C   0  0  0  0  0  0  0  0  0  0  0  0
   -4.0958    3.8958    0.0000 C   0  0  0  0  0  0  0  0  0  0  0  0
   -4.0625    4.6417    0.0000 C   0  0  0  0  0  0  0  0  0  0  0  0
   -2.2875    0.4333    0.0000 C   0  0  0  0  0  0  0  0  0  0  0  0
   -2.1375   -1.2542    0.0000 C   0  0  0  0  0  0  0  0  0  0  0  0
   -4.1208    6.2792    0.0000 C   0  0  0  0  0  0  0  0  0  0  0  0
   -0.6958   -1.6375    0.0000 C   0  0  0  0  0  0  0  0  0  0  0  0
   -5.5333    6.7667    0.0000 C   0  0  0  0  0  0  0  0  0  0  0  0
   -1.9458   -1.9667    0.0000 C   0  0  0  0  0  0  0  0  0  0  0  0
   -4.2708    7.0167    0.0000 C   0  0  0  0  0  0  0  0  0  0  0  0
   -1.2208   -2.1667    0.0000 C   0  0  0  0  0  0  0  0  0  0  0  0
   -4.9708    7.2625    0.0000 C   0  0  0  0  0  0  0  0  0  0  0  0
  2  4  1  0  0  0  0
  3  1  1  0  0  0  0
  4  8  2  0  0  0  0
  5 15  1  0  0  0  0
  6  5  1  0  0  0  0
  7  3  2  0  0  0  0
  8 19  1  0  0  0  0
  9 11  1  0  0  0  0
 10  8  1  0  0  0  0
 11  1  1  0  0  0  0
 12 10  1  0  0  0  0
 13  5  2  0  0  0  0
 14  6  2  0  0  0  0
 15 17  1  0  0  0  0
 16  6  1  0  0  0  0
 17 20  1  0  0  0  0
 18 16  1  0  0  0  0
 19 18  1  0  0  0  0
 20  7  1  0  0  0  0
 21  9  2  0  0  0  0
 22 10  2  0  0  0  0
 23 11  2  0  0  0  0
 24 12  2  0  0  0  0
 25 27  2  0  0  0  0
 26 22  1  0  0  0  0
 27 23  1  0  0  0  0
 28 26  2  0  0  0  0
  9  7  1  0  0  0  0
 25 21  1  0  0  0  0
 12  2  1  0  0  0  0
 28 24  1  0  0  0  0
M  END
> <IDNUMBER>
F2879-8737

> <Chemical_Name>
N,N'-bis[2-(1H-indol-3-yl)ethyl]ethanediamide

> <CAS>
220061-08-5

> <PriceCoeff>
1.00

> <MW>
374.44

> <Description>
solid

> <FSP3>
0.18

> <clogP>
2.41

> <TPSA>
89.78

> <Acceptor>
2

> <Donor>
4

> <RotBonds>
7

> <HAC>
28

> <Collection>
General

> <Reference_compound>
CHEMBL33171

> <Similarity>
0.8210

$$$$
F3222-2557
  -ISIS-  06222321152D

 36 40  0  0  0  0  0  0  0  0999 V2000
    4.4375   -9.7125    0.0000 C   0  0  0  0  0  0  0  0  0  0  0  0
    3.7042   -8.4917    0.0000 N   0  0  3  0  0  0  0  0  0  0  0  0
    5.1542   -9.2917    0.0000 C   0  0  0  0  0  0  0  0  0  0  0  0
    3.7167   -9.3167    0.0000 C   0  0  0  0  0  0  0  0  0  0  0  0
    5.1292   -8.4750    0.0000 N   0  0  0  0  0  0  0  0  0  0  0  0
    4.4167   -8.0750    0.0000 C   0  0  0  0  0  0  0  0  0  0  0  0
    4.6167  -10.5292    0.0000 C   0  0  0  0  0  0  0  0  0  0  0  0
    5.4417  -10.6000    0.0000 C   0  0  0  0  0  0  0  0  0  0  0  0
    5.7667   -9.8417    0.0000 S   0  0  0  0  0  0  0  0  0  0  0  0
    5.3167  -12.0292    0.0000 N   0  0  3  0  0  0  0  0  0  0  0  0
    5.8042  -11.3417    0.0000 C   0  0  0  0  0  0  0  0  0  0  0  0
    5.6667  -12.7792    0.0000 C   0  0  0  0  0  0  0  0  0  0  0  0
    4.4125   -7.2542    0.0000 S   0  0  0  0  0  0  0  0  0  0  0  0
    5.8292   -7.2292    0.0000 C   0  0  0  0  0  0  0  0  0  0  0  0
    3.0000   -8.0875    0.0000 C   0  0  0  0  0  0  0  0  0  0  0  0
    6.5417   -6.7917    0.0000 N   0  0  3  0  0  0  0  0  0  0  0  0
    4.1417  -11.2042    0.0000 C   0  0  0  0  0  0  0  0  0  0  0  0
    2.9875   -7.2625    0.0000 C   0  0  0  0  0  0  0  0  0  0  0  0
    3.0042   -9.7375    0.0000 O   0  0  0  0  0  0  0  0  0  0  0  0
    4.4917  -11.9667    0.0000 C   0  0  0  0  0  0  0  0  0  0  0  0
    2.3125   -6.7875    0.0000 O   0  0  0  0  0  0  0  0  0  0  0  0
    5.1250   -6.8167    0.0000 C   0  0  0  0  0  0  0  0  0  0  0  0
    6.4792  -12.8500    0.0000 O   0  0  0  0  0  0  0  0  0  0  0  0
    5.8667   -8.0417    0.0000 O   0  0  0  0  0  0  0  0  0  0  0  0
    3.6500   -6.7667    0.0000 C   0  0  0  0  0  0  0  0  0  0  0  0
    2.5542   -5.9917    0.0000 C   0  0  0  0  0  0  0  0  0  0  0  0
    6.5375   -5.9792    0.0000 C   0  0  0  0  0  0  0  0  0  0  0  0
    3.3792   -5.9917    0.0000 C   0  0  0  0  0  0  0  0  0  0  0  0
    7.2667   -7.2000    0.0000 C   0  0  0  0  0  0  0  0  0  0  0  0
    5.1917  -13.4542    0.0000 C   0  0  0  0  0  0  0  0  0  0  0  0
    7.2417   -5.5667    0.0000 C   0  0  0  0  0  0  0  0  0  0  0  0
    5.8125   -5.5917    0.0000 C   0  0  0  0  0  0  0  0  0  0  0  0
    7.9667   -6.7667    0.0000 C   0  0  0  0  0  0  0  0  0  0  0  0
    5.7917   -4.7750    0.0000 C   0  0  0  0  0  0  0  0  0  0  0  0
    7.2250   -4.7417    0.0000 C   0  0  0  0  0  0  0  0  0  0  0  0
    6.5042   -4.3417    0.0000 C   0  0  0  0  0  0  0  0  0  0  0  0
  2  4  1  0  0  0  0
  3  1  2  0  0  0  0
  4  1  1  0  0  0  0
  5  3  1  0  0  0  0
  6  2  1  0  0  0  0
  7  1  1  0  0  0  0
  8  7  2  0  0  0  0
  9  3  1  0  0  0  0
 10 20  1  0  0  0  0
 11  8  1  0  0  0  0
 12 10  1  0  0  0  0
 13  6  1  0  0  0  0
 14 22  1  0  0  0  0
 15  2  1  0  0  0  0
 16 14  1  0  0  0  0
 17  7  1  0  0  0  0
 18 15  1  0  0  0  0
 19  4  2  0  0  0  0
 20 17  1  0  0  0  0
 21 18  1  0  0  0  0
 22 13  1  0  0  0  0
 23 12  2  0  0  0  0
 24 14  2  0  0  0  0
 25 18  2  0  0  0  0
 26 21  1  0  0  0  0
 27 16  1  0  0  0  0
 28 25  1  0  0  0  0
 29 16  1  0  0  0  0
 30 12  1  0  0  0  0
 31 27  2  0  0  0  0
 32 27  1  0  0  0  0
 33 29  1  0  0  0  0
 34 32  2  0  0  0  0
 35 31  1  0  0  0  0
 36 34  1  0  0  0  0
  9  8  1  0  0  0  0
 10 11  1  0  0  0  0
  6  5  2  0  0  0  0
 28 26  2  0  0  0  0
 36 35  2  0  0  0  0
M  END
> <IDNUMBER>
F3222-2557

> <Chemical_Name>
2-({11-acetyl-4-[(furan-2-yl)methyl]-3-oxo-8-thia-4,6,11-triazatricyclo[7.4.0.0^{2,7}]trideca-1(9),2(7),5-trien-5-yl}sulfanyl)-N-ethyl-N-phenylacetamide

> <CAS>
1189980-89-9

> <PriceCoeff>
1.00

> <MW>
522.64

> <Description>
solid

> <FSP3>
0.31

> <clogP>
2.16

> <TPSA>
139.97

> <Acceptor>
5

> <Donor>
0

> <RotBonds>
9

> <HAC>
36

> <Collection>
General

> <Reference_compound>
CHEMBL577016

> <Similarity>
0.8220

$$$$
F3139-0610
  -ISIS-  06222321462D

 19 21  0  0  0  0  0  0  0  0999 V2000
    5.2750   -0.4292    0.0000 C   0  0  0  0  0  0  0  0  0  0  0  0
    5.2750   -1.2667    0.0000 C   0  0  0  0  0  0  0  0  0  0  0  0
    4.5542   -0.0125    0.0000 O   0  0  0  0  0  0  0  0  0  0  0  0
    3.8292   -1.2667    0.0000 C   0  0  0  0  0  0  0  0  0  0  0  0
    4.5500   -1.6792    0.0000 C   0  0  0  0  0  0  0  0  0  0  0  0
    3.8375   -0.4292    0.0000 C   0  0  0  0  0  0  0  0  0  0  0  0
    5.9875   -0.0250    0.0000 C   0  0  0  0  0  0  0  0  0  0  0  0
    3.1167   -1.6750    0.0000 C   0  0  0  0  0  0  0  0  0  0  0  0
    6.7042   -0.4417    0.0000 C   0  0  0  0  0  0  0  0  0  0  0  0
    4.5500   -2.5042    0.0000 O   0  0  0  0  0  0  0  0  0  0  0  0
    3.1167   -0.0167    0.0000 C   0  0  0  0  0  0  0  0  0  0  0  0
    2.4042   -1.2625    0.0000 C   0  0  0  0  0  0  0  0  0  0  0  0
    6.6917   -1.2667    0.0000 Cl  0  0  0  0  0  0  0  0  0  0  0  0
    2.4042   -0.4375    0.0000 C   0  0  0  0  0  0  0  0  0  0  0  0
    1.6917   -1.6750    0.0000 Br  0  0  0  0  0  0  0  0  0  0  0  0
    5.9917    0.7958    0.0000 C   0  0  0  0  0  0  0  0  0  0  0  0
    7.4167   -0.0292    0.0000 C   0  0  0  0  0  0  0  0  0  0  0  0
    6.7042    1.2083    0.0000 C   0  0  0  0  0  0  0  0  0  0  0  0
    7.4167    0.7958    0.0000 C   0  0  0  0  0  0  0  0  0  0  0  0
  2  1  2  0  0  0  0
  3  1  1  0  0  0  0
  4  6  1  0  0  0  0
  5  2  1  0  0  0  0
  6  3  1  0  0  0  0
  7  1  1  0  0  0  0
  8  4  2  0  0  0  0
  9  7  2  0  0  0  0
 10  5  2  0  0  0  0
 11  6  2  0  0  0  0
 12 14  2  0  0  0  0
 13  9  1  0  0  0  0
 14 11  1  0  0  0  0
 15 12  1  0  0  0  0
 16  7  1  0  0  0  0
 17  9  1  0  0  0  0
 18 16  2  0  0  0  0
 19 18  1  0  0  0  0
  4  5  1  0  0  0  0
 17 19  2  0  0  0  0
 12  8  1  0  0  0  0
M  END
> <IDNUMBER>
F3139-0610

> <Chemical_Name>
6-bromo-2-(2-chlorophenyl)-4H-chromen-4-one

> <CAS>
88953-01-9

> <PriceCoeff>
1.00

> <MW>
335.58

> <Description>
solid

> <FSP3>
0.00

> <clogP>
4.81

> <TPSA>
26.30

> <Acceptor>
2

> <Donor>
0

> <RotBonds>
1

> <HAC>
19

> <Collection>
General

> <Reference_compound>
CHEMBL2229073

> <Similarity>
0.8380

$$$$
F1420-1251
  -ISIS-  06222321142D

 33 36  0  0  0  0  0  0  0  0999 V2000
   -1.0500   -6.5042    0.0000 S   0  0  3  0  0  0  0  0  0  0  0  0
    2.3750   -5.7042    0.0000 C   0  0  0  0  0  0  0  0  0  0  0  0
    6.9125   -6.4167    0.0000 N   0  0  3  0  0  0  0  0  0  0  0  0
    1.8917   -5.0292    0.0000 N   0  0  0  0  0  0  0  0  0  0  0  0
    3.2000   -5.7042    0.0000 N   0  0  0  0  0  0  0  0  0  0  0  0
    1.8792   -6.3750    0.0000 S   0  0  0  0  0  0  0  0  0  0  0  0
   -0.3333   -6.1042    0.0000 C   0  0  0  0  0  0  0  0  0  0  0  0
    3.6167   -6.4167    0.0000 C   0  0  0  0  0  0  0  0  0  0  0  0
    1.0917   -6.1125    0.0000 C   0  0  0  0  0  0  0  0  0  0  0  0
    7.3917   -7.0875    0.0000 C   0  0  0  0  0  0  0  0  0  0  0  0
    7.3917   -5.7500    0.0000 C   0  0  0  0  0  0  0  0  0  0  0  0
    1.1000   -5.2792    0.0000 C   0  0  0  0  0  0  0  0  0  0  0  0
    0.3792   -6.5167    0.0000 C   0  0  0  0  0  0  0  0  0  0  0  0
   -1.8583   -6.7125    0.0000 N   0  0  3  0  0  0  0  0  0  0  0  0
    6.0875   -6.4167    0.0000 C   0  0  0  0  0  0  0  0  0  0  0  0
   -1.4458   -5.5667    0.0000 O   0  0  0  0  0  0  0  0  0  0  0  0
   -0.7458   -7.4417    0.0000 O   0  0  0  0  0  0  0  0  0  0  0  0
    4.4417   -6.4167    0.0000 C   0  0  0  0  0  0  0  0  0  0  0  0
    3.2000   -7.1375    0.0000 O   0  0  0  0  0  0  0  0  0  0  0  0
    8.1792   -6.8292    0.0000 C   0  0  0  0  0  0  0  0  0  0  0  0
    8.1792   -6.0042    0.0000 C   0  0  0  0  0  0  0  0  0  0  0  0
    7.1292   -4.9667    0.0000 O   0  0  0  0  0  0  0  0  0  0  0  0
    7.1375   -7.8667    0.0000 O   0  0  0  0  0  0  0  0  0  0  0  0
   -0.3250   -5.2750    0.0000 C   0  0  0  0  0  0  0  0  0  0  0  0
    0.3875   -4.8667    0.0000 C   0  0  0  0  0  0  0  0  0  0  0  0
    5.6667   -5.7042    0.0000 C   0  0  0  0  0  0  0  0  0  0  0  0
    5.6750   -7.1375    0.0000 C   0  0  0  0  0  0  0  0  0  0  0  0
    4.8500   -5.7042    0.0000 C   0  0  0  0  0  0  0  0  0  0  0  0
    4.8500   -7.1375    0.0000 C   0  0  0  0  0  0  0  0  0  0  0  0
   -2.0708   -7.5042    0.0000 C   0  0  0  0  0  0  0  0  0  0  0  0
   -2.4333   -6.1250    0.0000 C   0  0  0  0  0  0  0  0  0  0  0  0
   -2.8708   -7.7167    0.0000 C   0  0  0  0  0  0  0  0  0  0  0  0
   -3.2333   -6.3292    0.0000 C   0  0  0  0  0  0  0  0  0  0  0  0
  2  6  1  0  0  0  0
  3 15  1  0  0  0  0
  4 12  1  0  0  0  0
  5  2  1  0  0  0  0
  6  9  1  0  0  0  0
  7  1  1  0  0  0  0
  8  5  1  0  0  0  0
  9 13  2  0  0  0  0
 10  3  1  0  0  0  0
 11  3  1  0  0  0  0
 12 25  2  0  0  0  0
 13  7  1  0  0  0  0
 14  1  1  0  0  0  0
 15 27  2  0  0  0  0
 16  1  2  0  0  0  0
 17  1  2  0  0  0  0
 18  8  1  0  0  0  0
 19  8  2  0  0  0  0
 20 10  1  0  0  0  0
 21 11  1  0  0  0  0
 22 11  2  0  0  0  0
 23 10  2  0  0  0  0
 24  7  2  0  0  0  0
 25 24  1  0  0  0  0
 26 28  2  0  0  0  0
 27 29  1  0  0  0  0
 28 18  1  0  0  0  0
 29 18  2  0  0  0  0
 30 14  1  0  0  0  0
 31 14  1  0  0  0  0
 32 30  1  0  0  0  0
 33 31  1  0  0  0  0
  9 12  1  0  0  0  0
  2  4  2  0  0  0  0
 26 15  1  0  0  0  0
 21 20  1  0  0  0  0
M  END
> <IDNUMBER>
F1420-1251

> <Chemical_Name>
N-[6-(diethylsulfamoyl)-1,3-benzothiazol-2-yl]-4-(2,5-dioxopyrrolidin-1-yl)benzamide

> <CAS>
865592-59-2

> <PriceCoeff>
1.00

> <MW>
486.56

> <Description>
solid

> <FSP3>
0.27

> <clogP>
1.95

> <TPSA>
153.37

> <Acceptor>
6

> <Donor>
1

> <RotBonds>
7

> <HAC>
33

> <Collection>
General

$$$$
F2874-0132
  -ISIS-  06222321152D

 27 29  0  0  0  0  0  0  0  0999 V2000
   -2.5625    7.7167    0.0000 N   0  0  0  0  0  0  0  0  0  0  0  0
   -5.2833    6.1417    0.0000 N   0  3  0  0  0  0  0  0  0  0  0  0
   -5.2833    5.3542    0.0000 C   0  0  0  0  0  0  0  0  0  0  0  0
   -2.5833    8.5042    0.0000 N   0  0  3  0  0  0  0  0  0  0  0  0
   -3.2583    8.8917    0.0000 C   0  0  0  0  0  0  0  0  0  0  0  0
   -3.2583    7.3292    0.0000 C   0  0  0  0  0  0  0  0  0  0  0  0
   -3.9250    3.8000    0.0000 C   0  0  0  0  0  0  0  0  0  0  0  0
   -4.6000    4.9667    0.0000 C   0  0  0  0  0  0  0  0  0  0  0  0
   -3.9333    8.5000    0.0000 C   0  0  0  0  0  0  0  0  0  0  0  0
   -4.6083    4.1875    0.0000 C   0  0  0  0  0  0  0  0  0  0  0  0
   -3.9333    7.7167    0.0000 C   0  0  0  0  0  0  0  0  0  0  0  0
   -3.2458    4.1917    0.0000 N   0  0  0  0  0  0  0  0  0  0  0  0
   -5.9708    4.9667    0.0000 C   0  0  0  0  0  0  0  0  0  0  0  0
   -4.6083    6.5417    0.0000 O   0  5  0  0  0  0  0  0  0  0  0  0
   -5.9708    6.5292    0.0000 O   0  0  0  0  0  0  0  0  0  0  0  0
   -3.2500    6.5417    0.0000 C   0  0  0  0  0  0  0  0  0  0  0  0
   -3.9250    3.0208    0.0000 O   0  0  0  0  0  0  0  0  0  0  0  0
   -3.2625    9.6792    0.0000 O   0  0  0  0  0  0  0  0  0  0  0  0
   -5.2833    3.7958    0.0000 C   0  0  0  0  0  0  0  0  0  0  0  0
   -5.9583    4.1792    0.0000 C   0  0  0  0  0  0  0  0  0  0  0  0
   -3.2458    4.9792    0.0000 C   0  0  0  0  0  0  0  0  0  0  0  0
   -2.5708    6.1542    0.0000 C   0  0  0  0  0  0  0  0  0  0  0  0
   -3.9333    6.1500    0.0000 C   0  0  0  0  0  0  0  0  0  0  0  0
   -6.6375    5.3542    0.0000 Cl  0  0  0  0  0  0  0  0  0  0  0  0
   -2.5708    5.3667    0.0000 C   0  0  0  0  0  0  0  0  0  0  0  0
   -1.8958    8.9000    0.0000 C   0  0  0  0  0  0  0  0  0  0  0  0
   -3.9333    5.3667    0.0000 C   0  0  0  0  0  0  0  0  0  0  0  0
  2  3  1  0  0  0  0
  3  8  1  0  0  0  0
  4  1  1  0  0  0  0
  5  4  1  0  0  0  0
  6  1  2  0  0  0  0
  7 12  1  0  0  0  0
  8 10  2  0  0  0  0
  9 11  2  0  0  0  0
 10  7  1  0  0  0  0
 11  6  1  0  0  0  0
 12 21  1  0  0  0  0
 13 20  1  0  0  0  0
 14  2  1  0  0  0  0
 15  2  2  0  0  0  0
 16  6  1  0  0  0  0
 17  7  2  0  0  0  0
 18  5  2  0  0  0  0
 19 10  1  0  0  0  0
 20 19  2  0  0  0  0
 21 27  2  0  0  0  0
 22 16  1  0  0  0  0
 23 16  2  0  0  0  0
 24 13  1  0  0  0  0
 25 22  2  0  0  0  0
 26  4  1  0  0  0  0
 27 23  1  0  0  0  0
  9  5  1  0  0  0  0
 21 25  1  0  0  0  0
 13  3  2  0  0  0  0
M  CHG  2   2   1  14  -1
M  END
> <IDNUMBER>
F2874-0132

> <Chemical_Name>
4-chloro-N-[4-(1-methyl-6-oxo-1,6-dihydropyridazin-3-yl)phenyl]-3-nitrobenzamide

> <CAS>
941998-06-7

> <PriceCoeff>
1.00

> <MW>
384.77

> <Description>
solid

> <FSP3>
0.06

> <clogP>
2.66

> <TPSA>
104.91

> <Acceptor>
5

> <Donor>
2

> <RotBonds>
4

> <HAC>
27

> <Collection>
General

$$$$
F1280-0014
  -ISIS-  06222321442D

 25 27  0  0  0  0  0  0  0  0999 V2000
    3.1542    0.8375    0.0000 C   0  0  0  0  0  0  0  0  0  0  0  0
    2.4417    0.4250    0.0000 N   0  0  3  0  0  0  0  0  0  0  0  0
    1.0167   -0.4000    0.0000 N   0  0  3  0  0  0  0  0  0  0  0  0
    3.8750    0.4250    0.0000 N   0  0  0  0  0  0  0  0  0  0  0  0
    3.1542    1.6625    0.0000 S   0  0  0  0  0  0  0  0  0  0  0  0
    0.3042   -0.8125    0.0000 C   0  0  0  0  0  0  0  0  0  0  0  0
    1.7292    0.8375    0.0000 C   0  0  0  0  0  0  0  0  0  0  0  0
    2.4417   -0.4000    0.0000 C   0  0  0  0  0  0  0  0  0  0  0  0
    1.0125    0.4250    0.0000 C   0  0  0  0  0  0  0  0  0  0  0  0
    1.7292   -0.8042    0.0000 C   0  0  0  0  0  0  0  0  0  0  0  0
   -0.4125   -0.4000    0.0000 C   0  0  0  0  0  0  0  0  0  0  0  0
    0.3042   -1.6417    0.0000 C   0  0  0  0  0  0  0  0  0  0  0  0
    4.5875    0.8375    0.0000 C   0  0  0  0  0  0  0  0  0  0  0  0
   -1.1250   -1.6417    0.0000 C   0  0  0  0  0  0  0  0  0  0  0  0
    6.0167    1.6625    0.0000 C   0  0  0  0  0  0  0  0  0  0  0  0
   -1.1250   -0.8125    0.0000 C   0  0  0  0  0  0  0  0  0  0  0  0
   -0.4125   -2.0542    0.0000 C   0  0  0  0  0  0  0  0  0  0  0  0
    5.3042    0.4250    0.0000 C   0  0  0  0  0  0  0  0  0  0  0  0
    4.5917    1.6583    0.0000 C   0  0  0  0  0  0  0  0  0  0  0  0
    5.3000    2.0833    0.0000 C   0  0  0  0  0  0  0  0  0  0  0  0
    6.0167    0.8333    0.0000 C   0  0  0  0  0  0  0  0  0  0  0  0
   -1.8458   -2.0542    0.0000 O   0  0  0  0  0  0  0  0  0  0  0  0
    6.7292    2.0833    0.0000 O   0  0  0  0  0  0  0  0  0  0  0  0
    7.4500    1.6625    0.0000 C   0  0  0  0  0  0  0  0  0  0  0  0
   -1.8458   -2.8792    0.0000 C   0  0  0  0  0  0  0  0  0  0  0  0
  2  1  1  0  0  0  0
  3 10  1  0  0  0  0
  4  1  1  0  0  0  0
  5  1  2  0  0  0  0
  6  3  1  0  0  0  0
  7  2  1  0  0  0  0
  8  2  1  0  0  0  0
  9  7  1  0  0  0  0
 10  8  1  0  0  0  0
 11  6  2  0  0  0  0
 12  6  1  0  0  0  0
 13  4  1  0  0  0  0
 14 17  1  0  0  0  0
 15 20  1  0  0  0  0
 16 11  1  0  0  0  0
 17 12  2  0  0  0  0
 18 13  2  0  0  0  0
 19 13  1  0  0  0  0
 20 19  2  0  0  0  0
 21 18  1  0  0  0  0
 22 14  1  0  0  0  0
 23 15  1  0  0  0  0
 24 23  1  0  0  0  0
 25 22  1  0  0  0  0
  9  3  1  0  0  0  0
 21 15  2  0  0  0  0
 16 14  2  0  0  0  0
M  END
> <IDNUMBER>
F1280-0014

> <Chemical_Name>
N,4-bis(4-methoxyphenyl)piperazine-1-carbothioamide

> <CAS>
496775-76-9

> <PriceCoeff>
1.00

> <MW>
357.47

> <Description>
solid

> <FSP3>
0.32

> <clogP>
3.54

> <TPSA>
69.06

> <Acceptor>
4

> <Donor>
3

> <RotBonds>
5

> <HAC>
25

> <Collection>
General

> <Reference_compound>
CHEMBL4087841

> <Similarity>
0.8270

$$$$
F2748-0227
  -ISIS-  06222321152D

 26 28  0  0  0  0  0  0  0  0999 V2000
   -2.3708    1.6958    0.0000 S   0  0  3  0  0  0  0  0  0  0  0  0
   -1.8875    2.3625    0.0000 N   0  0  3  0  0  0  0  0  0  0  0  0
   -2.3833    3.0333    0.0000 C   0  0  0  0  0  0  0  0  0  0  0  0
   -3.1625    2.7708    0.0000 C   0  0  0  0  0  0  0  0  0  0  0  0
   -3.1583    1.9458    0.0000 C   0  0  0  0  0  0  0  0  0  0  0  0
    2.2792    4.1542    0.0000 N   0  3  0  0  0  0  0  0  0  0  0  0
    2.0500    3.3750    0.0000 C   0  0  0  0  0  0  0  0  0  0  0  0
   -1.0875    2.9250    0.0000 C   0  0  0  0  0  0  0  0  0  0  0  0
   -0.3500    2.7833    0.0000 C   0  0  0  0  0  0  0  0  0  0  0  0
   -3.0583    1.1750    0.0000 O   0  0  0  0  0  0  0  0  0  0  0  0
   -2.0583    0.9250    0.0000 O   0  0  0  0  0  0  0  0  0  0  0  0
    1.2417    3.1833    0.0000 C   0  0  0  0  0  0  0  0  0  0  0  0
    2.6250    2.7833    0.0000 C   0  0  0  0  0  0  0  0  0  0  0  0
    3.0792    4.3542    0.0000 O   0  5  0  0  0  0  0  0  0  0  0  0
    0.2167    2.1875    0.0000 N   0  0  0  0  0  0  0  0  0  0  0  0
   -2.3333    3.8000    0.0000 O   0  0  0  0  0  0  0  0  0  0  0  0
    1.7125    4.7542    0.0000 O   0  0  0  0  0  0  0  0  0  0  0  0
    1.0167    2.3833    0.0000 C   0  0  0  0  0  0  0  0  0  0  0  0
   -0.4625    3.5208    0.0000 O   0  0  0  0  0  0  0  0  0  0  0  0
    2.3917    1.9875    0.0000 C   0  0  0  0  0  0  0  0  0  0  0  0
   -3.8750    3.1833    0.0000 C   0  0  0  0  0  0  0  0  0  0  0  0
    1.5875    1.7875    0.0000 C   0  0  0  0  0  0  0  0  0  0  0  0
    3.4167    2.9833    0.0000 Cl  0  0  0  0  0  0  0  0  0  0  0  0
   -3.8750    1.5333    0.0000 C   0  0  0  0  0  0  0  0  0  0  0  0
   -4.5833    2.7708    0.0000 C   0  0  0  0  0  0  0  0  0  0  0  0
   -4.5833    1.9458    0.0000 C   0  0  0  0  0  0  0  0  0  0  0  0
  2  1  1  0  0  0  0
  3  2  1  0  0  0  0
  4  5  2  0  0  0  0
  5  1  1  0  0  0  0
  6  7  1  0  0  0  0
  7 12  2  0  0  0  0
  8  2  1  0  0  0  0
  9  8  1  0  0  0  0
 10  1  2  0  0  0  0
 11  1  2  0  0  0  0
 12 18  1  0  0  0  0
 13 20  2  0  0  0  0
 14  6  1  0  0  0  0
 15  9  1  0  0  0  0
 16  3  2  0  0  0  0
 17  6  2  0  0  0  0
 18 15  1  0  0  0  0
 19  9  2  0  0  0  0
 20 22  1  0  0  0  0
 21  4  1  0  0  0  0
 22 18  2  0  0  0  0
 23 13  1  0  0  0  0
 24  5  1  0  0  0  0
 25 26  1  0  0  0  0
 26 24  2  0  0  0  0
  4  3  1  0  0  0  0
 25 21  2  0  0  0  0
 13  7  1  0  0  0  0
M  CHG  2   6   1  14  -1
M  END
> <IDNUMBER>
F2748-0227

> <Chemical_Name>
N-(4-chloro-3-nitrophenyl)-2-(1,1,3-trioxo-2,3-dihydro-1lambda6,2-benzothiazol-2-yl)acetamide

> <CAS>
485355-27-9

> <PriceCoeff>
1.00

> <MW>
395.77

> <Description>
solid

> <FSP3>
0.07

> <clogP>
2.56

> <TPSA>
135.07

> <Acceptor>
6

> <Donor>
1

> <RotBonds>
4

> <HAC>
26

> <Collection>
General

$$$$
F1365-3012
  -ISIS-  06222321452D

 27 29  0  0  0  0  0  0  0  0999 V2000
   -1.1625    2.3833    0.0000 C   0  0  0  0  0  0  0  0  0  0  0  0
    1.3167    3.8083    0.0000 N   0  0  3  0  0  0  0  0  0  0  0  0
   -4.5833    3.2125    0.0000 S   0  0  3  0  0  0  0  0  0  0  0  0
   -1.6458    1.7208    0.0000 N   0  0  3  0  0  0  0  0  0  0  0  0
   -0.3375    2.3750    0.0000 N   0  0  0  0  0  0  0  0  0  0  0  0
   -1.6458    3.0500    0.0000 S   0  0  0  0  0  0  0  0  0  0  0  0
   -2.4333    2.7958    0.0000 C   0  0  0  0  0  0  0  0  0  0  0  0
   -2.4333    1.9708    0.0000 C   0  0  0  0  0  0  0  0  0  0  0  0
    2.1292    3.8833    0.0000 C   0  0  0  0  0  0  0  0  0  0  0  0
    0.9792    4.5417    0.0000 C   0  0  0  0  0  0  0  0  0  0  0  0
    0.0750    3.0875    0.0000 C   0  0  0  0  0  0  0  0  0  0  0  0
   -3.8583    2.7958    0.0000 C   0  0  0  0  0  0  0  0  0  0  0  0
   -3.1458    3.2083    0.0000 C   0  0  0  0  0  0  0  0  0  0  0  0
    0.9000    3.0875    0.0000 C   0  0  0  0  0  0  0  0  0  0  0  0
   -1.9458    0.3208    0.0000 C   0  0  0  0  0  0  0  0  0  0  0  0
   -3.1458    1.5583    0.0000 C   0  0  0  0  0  0  0  0  0  0  0  0
   -2.4958   -0.2917    0.0000 C   0  0  0  0  0  0  0  0  0  0  0  0
   -4.1458    3.9083    0.0000 O   0  0  0  0  0  0  0  0  0  0  0  0
   -5.0208    2.5083    0.0000 O   0  0  0  0  0  0  0  0  0  0  0  0
   -5.2833    3.6458    0.0000 N   0  0  0  0  0  0  0  0  0  0  0  0
   -3.8583    1.9708    0.0000 C   0  0  0  0  0  0  0  0  0  0  0  0
    1.5917    5.0917    0.0000 C   0  0  0  0  0  0  0  0  0  0  0  0
    2.3125    4.6917    0.0000 C   0  0  0  0  0  0  0  0  0  0  0  0
    0.1792    4.7292    0.0000 O   0  0  0  0  0  0  0  0  0  0  0  0
    2.6875    3.2708    0.0000 O   0  0  0  0  0  0  0  0  0  0  0  0
   -0.3375    3.8000    0.0000 O   0  0  0  0  0  0  0  0  0  0  0  0
   -1.3958    0.9333    0.0000 C   0  0  0  0  0  0  0  0  0  0  0  0
  2 14  1  0  0  0  0
  3 12  1  0  0  0  0
  4  1  1  0  0  0  0
  5  1  2  0  0  0  0
  6  1  1  0  0  0  0
  7  6  1  0  0  0  0
  8  4  1  0  0  0  0
  9  2  1  0  0  0  0
 10  2  1  0  0  0  0
 11  5  1  0  0  0  0
 12 13  2  0  0  0  0
 13  7  1  0  0  0  0
 14 11  1  0  0  0  0
 15 27  1  0  0  0  0
 16  8  1  0  0  0  0
 17 15  3  0  0  0  0
 18  3  2  0  0  0  0
 19  3  2  0  0  0  0
 20  3  1  0  0  0  0
 21 16  2  0  0  0  0
 22 10  1  0  0  0  0
 23  9  1  0  0  0  0
 24 10  2  0  0  0  0
 25  9  2  0  0  0  0
 26 11  2  0  0  0  0
 27  4  1  0  0  0  0
  8  7  2  0  0  0  0
 21 12  1  0  0  0  0
 23 22  1  0  0  0  0
M  END
> <IDNUMBER>
F1365-3012

> <Chemical_Name>
2-(2,5-dioxopyrrolidin-1-yl)-N-[(2Z)-3-(prop-2-yn-1-yl)-6-sulfamoyl-2,3-dihydro-1,3-benzothiazol-2-ylidene]acetamide

> <CAS>
1164484-77-8

> <PriceCoeff>
1.00

> <MW>
406.44

> <Description>
solid

> <FSP3>
0.25

> <clogP>
1.04

> <TPSA>
163.89

> <Acceptor>
5

> <Donor>
1

> <RotBonds>
6

> <HAC>
27

> <Collection>
General

$$$$
F3139-0992
  -ISIS-  06222321462D

 31 34  0  0  0  0  0  0  0  0999 V2000
    4.1667   -2.1417    0.0000 C   0  0  0  0  0  0  0  0  0  0  0  0
    3.4417   -2.5542    0.0000 C   0  0  0  0  0  0  0  0  0  0  0  0
    2.7292   -2.1417    0.0000 C   0  0  0  0  0  0  0  0  0  0  0  0
    4.1667   -1.3042    0.0000 C   0  0  0  0  0  0  0  0  0  0  0  0
    2.7292   -1.3042    0.0000 C   0  0  0  0  0  0  0  0  0  0  0  0
    3.4500   -0.8875    0.0000 O   0  0  0  0  0  0  0  0  0  0  0  0
    4.8792   -2.5542    0.0000 C   0  0  0  0  0  0  0  0  0  0  0  0
    2.0167   -2.5500    0.0000 C   0  0  0  0  0  0  0  0  0  0  0  0
    2.0167   -0.8917    0.0000 C   0  0  0  0  0  0  0  0  0  0  0  0
   -0.8375   -0.8875    0.0000 C   0  0  0  0  0  0  0  0  0  0  0  0
    3.4417   -3.3792    0.0000 O   0  0  0  0  0  0  0  0  0  0  0  0
   -1.5583   -1.2917    0.0000 C   0  0  0  0  0  0  0  0  0  0  0  0
    4.8750   -3.3792    0.0000 C   0  0  0  0  0  0  0  0  0  0  0  0
   -0.1250   -1.3042    0.0000 C   0  0  0  0  0  0  0  0  0  0  0  0
   -0.8333   -0.0625    0.0000 O   0  0  0  0  0  0  0  0  0  0  0  0
    1.3042   -1.3125    0.0000 C   0  0  0  0  0  0  0  0  0  0  0  0
    0.5917   -0.9000    0.0000 O   0  0  0  0  0  0  0  0  0  0  0  0
   -2.2625   -0.8792    0.0000 C   0  0  0  0  0  0  0  0  0  0  0  0
   -1.5583   -2.1167    0.0000 C   0  0  0  0  0  0  0  0  0  0  0  0
    1.3042   -2.1375    0.0000 C   0  0  0  0  0  0  0  0  0  0  0  0
   -2.9875   -2.1125    0.0000 C   0  0  0  0  0  0  0  0  0  0  0  0
   -2.2708   -2.5292    0.0000 C   0  0  0  0  0  0  0  0  0  0  0  0
   -2.9833   -1.2875    0.0000 C   0  0  0  0  0  0  0  0  0  0  0  0
    4.1625   -3.7875    0.0000 O   0  0  0  0  0  0  0  0  0  0  0  0
    5.5917   -2.1417    0.0000 C   0  0  0  0  0  0  0  0  0  0  0  0
   -3.7000   -2.5167    0.0000 O   0  0  0  0  0  0  0  0  0  0  0  0
    5.5875   -3.7917    0.0000 C   0  0  0  0  0  0  0  0  0  0  0  0
    4.1542   -4.6125    0.0000 C   0  0  0  0  0  0  0  0  0  0  0  0
   -3.7083   -3.3417    0.0000 C   0  0  0  0  0  0  0  0  0  0  0  0
    6.3042   -2.5542    0.0000 C   0  0  0  0  0  0  0  0  0  0  0  0
    6.3000   -3.3917    0.0000 C   0  0  0  0  0  0  0  0  0  0  0  0
  2  1  1  0  0  0  0
  3  2  1  0  0  0  0
  4  1  2  0  0  0  0
  5  6  1  0  0  0  0
  6  4  1  0  0  0  0
  7  1  1  0  0  0  0
  8  3  2  0  0  0  0
  9  5  2  0  0  0  0
 10 14  1  0  0  0  0
 11  2  2  0  0  0  0
 12 10  1  0  0  0  0
 13  7  2  0  0  0  0
 14 17  1  0  0  0  0
 15 10  2  0  0  0  0
 16  9  1  0  0  0  0
 17 16  1  0  0  0  0
 18 12  2  0  0  0  0
 19 12  1  0  0  0  0
 20  8  1  0  0  0  0
 21 22  1  0  0  0  0
 22 19  2  0  0  0  0
 23 18  1  0  0  0  0
 24 13  1  0  0  0  0
 25  7  1  0  0  0  0
 26 21  1  0  0  0  0
 27 13  1  0  0  0  0
 28 24  1  0  0  0  0
 29 26  1  0  0  0  0
 30 25  2  0  0  0  0
 31 30  1  0  0  0  0
  5  3  1  0  0  0  0
 27 31  2  0  0  0  0
 16 20  2  0  0  0  0
 23 21  2  0  0  0  0
M  END
> <IDNUMBER>
F3139-0992

> <Chemical_Name>
3-(2-methoxyphenyl)-7-[2-(4-methoxyphenyl)-2-oxoethoxy]-4H-chromen-4-one

> <CAS>
610763-97-8

> <PriceCoeff>
1.00

> <MW>
416.42

> <Description>
solid

> <FSP3>
0.12

> <clogP>
3.64

> <TPSA>
71.06

> <Acceptor>
6

> <Donor>
0

> <RotBonds>
7

> <HAC>
31

> <Collection>
General

> <Reference_compound>
CHEMBL44

> <Similarity>
0.8230

$$$$
F0349-0205
  -ISIS-  06222321442D

 20 21  0  0  0  0  0  0  0  0999 V2000
   -0.8000    0.9708    0.0000 N   0  0  0  0  0  0  0  0  0  0  0  0
   -0.0833    1.2333    0.0000 C   0  0  0  0  0  0  0  0  0  0  0  0
   -1.3625    1.4708    0.0000 C   0  0  0  0  0  0  0  0  0  0  0  0
    0.4500    0.7500    0.0000 N   0  0  0  0  0  0  0  0  0  0  0  0
    1.1500    0.9958    0.0000 C   0  0  0  0  0  0  0  0  0  0  0  0
    0.0500    1.9583    0.0000 S   0  0  0  0  0  0  0  0  0  0  0  0
   -1.2208    2.2125    0.0000 O   0  0  0  0  0  0  0  0  0  0  0  0
   -2.0833    1.2125    0.0000 C   0  0  0  0  0  0  0  0  0  0  0  0
    1.3000    1.7125    0.0000 C   0  0  0  0  0  0  0  0  0  0  0  0
    1.7000    0.5125    0.0000 C   0  0  0  0  0  0  0  0  0  0  0  0
    0.9500    2.2333    0.0000 C   0  0  0  0  0  0  0  0  0  0  0  0
   -2.6625    1.6958    0.0000 C   0  0  0  0  0  0  0  0  0  0  0  0
   -2.2208    0.4958    0.0000 C   0  0  0  0  0  0  0  0  0  0  0  0
    2.0000    1.9625    0.0000 C   0  0  0  0  0  0  0  0  0  0  0  0
    1.5000    2.7125    0.0000 C   0  0  0  0  0  0  0  0  0  0  0  0
    2.4000    0.7625    0.0000 C   0  0  0  0  0  0  0  0  0  0  0  0
    2.5500    1.4833    0.0000 C   0  0  0  0  0  0  0  0  0  0  0  0
   -3.3625    1.4333    0.0000 C   0  0  0  0  0  0  0  0  0  0  0  0
   -2.9208    0.2333    0.0000 C   0  0  0  0  0  0  0  0  0  0  0  0
   -3.4833    0.6958    0.0000 C   0  0  0  0  0  0  0  0  0  0  0  0
  2  1  1  0  0  0  0
  3  1  1  0  0  0  0
  4  2  1  0  0  0  0
  5  4  1  0  0  0  0
  6  2  2  0  0  0  0
  7  3  2  0  0  0  0
  8  3  1  0  0  0  0
  9  5  1  0  0  0  0
 10  5  2  0  0  0  0
 11  9  1  0  0  0  0
 12  8  2  0  0  0  0
 13  8  1  0  0  0  0
 14  9  2  0  0  0  0
 15 11  1  0  0  0  0
 16 10  1  0  0  0  0
 17 16  2  0  0  0  0
 18 12  1  0  0  0  0
 19 13  2  0  0  0  0
 20 19  1  0  0  0  0
 18 20  2  0  0  0  0
 14 17  1  0  0  0  0
M  END
> <IDNUMBER>
F0349-0205

> <Chemical_Name>
1-benzoyl-3-(2-ethylphenyl)thiourea

> <CAS>
88884-36-0

> <PriceCoeff>
1.00

> <MW>
284.38

> <Description>
solid

> <FSP3>
0.12

> <clogP>
3.03

> <TPSA>
73.22

> <Acceptor>
2

> <Donor>
2

> <RotBonds>
3

> <HAC>
20

> <Collection>
General

> <Reference_compound>
CHEMBL2069967

> <Similarity>
0.8140

$$$$
F3139-0618
  -ISIS-  06222321152D

 19 21  0  0  0  0  0  0  0  0999 V2000
    5.2750   -0.4292    0.0000 C   0  0  0  0  0  0  0  0  0  0  0  0
    5.2750   -1.2667    0.0000 C   0  0  0  0  0  0  0  0  0  0  0  0
    3.8292   -1.2667    0.0000 C   0  0  0  0  0  0  0  0  0  0  0  0
    4.5500   -1.6792    0.0000 C   0  0  0  0  0  0  0  0  0  0  0  0
    4.5542   -0.0125    0.0000 O   0  0  0  0  0  0  0  0  0  0  0  0
    3.8375   -0.4292    0.0000 C   0  0  0  0  0  0  0  0  0  0  0  0
    5.9875   -0.0250    0.0000 C   0  0  0  0  0  0  0  0  0  0  0  0
    3.1167   -1.6750    0.0000 C   0  0  0  0  0  0  0  0  0  0  0  0
    4.5500   -2.5042    0.0000 O   0  0  0  0  0  0  0  0  0  0  0  0
    3.1167   -0.0167    0.0000 C   0  0  0  0  0  0  0  0  0  0  0  0
    5.9917    0.7958    0.0000 C   0  0  0  0  0  0  0  0  0  0  0  0
    6.7042   -0.4417    0.0000 C   0  0  0  0  0  0  0  0  0  0  0  0
    2.4042   -1.2625    0.0000 C   0  0  0  0  0  0  0  0  0  0  0  0
    7.4167    0.7958    0.0000 C   0  0  0  0  0  0  0  0  0  0  0  0
    2.4042   -0.4375    0.0000 C   0  0  0  0  0  0  0  0  0  0  0  0
    7.4167   -0.0292    0.0000 C   0  0  0  0  0  0  0  0  0  0  0  0
    6.7042    1.2083    0.0000 C   0  0  0  0  0  0  0  0  0  0  0  0
    1.6917   -1.6750    0.0000 Cl  0  0  0  0  0  0  0  0  0  0  0  0
    8.1375    1.2083    0.0000 Cl  0  0  0  0  0  0  0  0  0  0  0  0
  2  1  2  0  0  0  0
  3  6  1  0  0  0  0
  4  2  1  0  0  0  0
  5  1  1  0  0  0  0
  6  5  1  0  0  0  0
  7  1  1  0  0  0  0
  8  3  2  0  0  0  0
  9  4  2  0  0  0  0
 10  6  2  0  0  0  0
 11  7  1  0  0  0  0
 12  7  2  0  0  0  0
 13 15  2  0  0  0  0
 14 16  2  0  0  0  0
 15 10  1  0  0  0  0
 16 12  1  0  0  0  0
 17 11  2  0  0  0  0
 18 13  1  0  0  0  0
 19 14  1  0  0  0  0
  3  4  1  0  0  0  0
 17 14  1  0  0  0  0
 13  8  1  0  0  0  0
M  END
> <IDNUMBER>
F3139-0618

> <Chemical_Name>
6-chloro-2-(4-chlorophenyl)-4H-chromen-4-one

> <CAS>
36768-56-6

> <PriceCoeff>
1.00

> <MW>
291.13

> <Description>
solid

> <FSP3>
0.00

> <clogP>
4.91

> <TPSA>
26.30

> <Acceptor>
2

> <Donor>
0

> <RotBonds>
1

> <HAC>
19

> <Collection>
General

> <Reference_compound>
CHEMBL275638

> <Similarity>
0.8930

$$$$
F3139-0639
  -ISIS-  06222321152D

 20 22  0  0  0  0  0  0  0  0999 V2000
    4.5542   -0.0125    0.0000 O   0  0  0  0  0  0  0  0  0  0  0  0
    3.8375   -0.4292    0.0000 C   0  0  0  0  0  0  0  0  0  0  0  0
    3.8292   -1.2667    0.0000 C   0  0  0  0  0  0  0  0  0  0  0  0
    5.2750   -0.4292    0.0000 C   0  0  0  0  0  0  0  0  0  0  0  0
    5.2750   -1.2667    0.0000 C   0  0  0  0  0  0  0  0  0  0  0  0
    4.5500   -1.6792    0.0000 C   0  0  0  0  0  0  0  0  0  0  0  0
    3.1167   -0.0167    0.0000 C   0  0  0  0  0  0  0  0  0  0  0  0
    2.4042   -0.4375    0.0000 C   0  0  0  0  0  0  0  0  0  0  0  0
    5.9875   -0.0250    0.0000 C   0  0  0  0  0  0  0  0  0  0  0  0
    3.1167   -1.6750    0.0000 C   0  0  0  0  0  0  0  0  0  0  0  0
    2.4042   -1.2625    0.0000 C   0  0  0  0  0  0  0  0  0  0  0  0
    4.5500   -2.5042    0.0000 O   0  0  0  0  0  0  0  0  0  0  0  0
    6.7042   -0.4417    0.0000 C   0  0  0  0  0  0  0  0  0  0  0  0
    5.9917    0.7958    0.0000 C   0  0  0  0  0  0  0  0  0  0  0  0
    3.1250    0.8083    0.0000 Cl  0  0  0  0  0  0  0  0  0  0  0  0
    1.6917   -1.6750    0.0000 Cl  0  0  0  0  0  0  0  0  0  0  0  0
    6.7042    1.2083    0.0000 C   0  0  0  0  0  0  0  0  0  0  0  0
    7.4167   -0.0292    0.0000 C   0  0  0  0  0  0  0  0  0  0  0  0
    7.4167    0.7958    0.0000 C   0  0  0  0  0  0  0  0  0  0  0  0
    8.1375    1.2083    0.0000 C   0  0  0  0  0  0  0  0  0  0  0  0
  2  1  1  0  0  0  0
  3  2  1  0  0  0  0
  4  1  1  0  0  0  0
  5  4  2  0  0  0  0
  6  5  1  0  0  0  0
  7  2  2  0  0  0  0
  8  7  1  0  0  0  0
  9  4  1  0  0  0  0
 10  3  2  0  0  0  0
 11  8  2  0  0  0  0
 12  6  2  0  0  0  0
 13  9  2  0  0  0  0
 14  9  1  0  0  0  0
 15  7  1  0  0  0  0
 16 11  1  0  0  0  0
 17 14  2  0  0  0  0
 18 13  1  0  0  0  0
 19 17  1  0  0  0  0
 20 19  1  0  0  0  0
  3  6  1  0  0  0  0
 11 10  1  0  0  0  0
 18 19  2  0  0  0  0
M  END
> <IDNUMBER>
F3139-0639

> <Chemical_Name>
6,8-dichloro-2-(4-methylphenyl)-4H-chromen-4-one

> <CAS>
88953-00-8

> <PriceCoeff>
1.00

> <MW>
305.16

> <Description>
solid

> <FSP3>
0.06

> <clogP>
5.41

> <TPSA>
26.30

> <Acceptor>
2

> <Donor>
0

> <RotBonds>
1

> <HAC>
20

> <Collection>
General

> <Reference_compound>
CHEMBL275638

> <Similarity>
0.8140

$$$$
F3385-2966
  -ISIS-  06222321462D

 30 33  0  0  0  0  0  0  0  0999 V2000
    6.8000   -3.6750    0.0000 C   0  0  0  0  0  0  0  0  0  0  0  0
    6.2292   -3.9917    0.0000 C   0  0  0  0  0  0  0  0  0  0  0  0
    5.6667   -3.6667    0.0000 C   0  0  0  0  0  0  0  0  0  0  0  0
    6.8000   -3.0167    0.0000 C   0  0  0  0  0  0  0  0  0  0  0  0
    5.6667   -3.0167    0.0000 C   0  0  0  0  0  0  0  0  0  0  0  0
    7.3542   -3.9917    0.0000 C   0  0  0  0  0  0  0  0  0  0  0  0
    6.2292   -2.6917    0.0000 O   0  0  0  0  0  0  0  0  0  0  0  0
    7.9125   -3.6750    0.0000 C   0  0  0  0  0  0  0  0  0  0  0  0
    5.1042   -3.9917    0.0000 C   0  0  0  0  0  0  0  0  0  0  0  0
    5.1042   -2.7000    0.0000 C   0  0  0  0  0  0  0  0  0  0  0  0
    8.4667   -3.9917    0.0000 C   0  0  0  0  0  0  0  0  0  0  0  0
    6.2292   -4.6417    0.0000 O   0  0  0  0  0  0  0  0  0  0  0  0
    8.4667   -4.6417    0.0000 C   0  0  0  0  0  0  0  0  0  0  0  0
    7.3542   -4.6417    0.0000 C   0  0  0  0  0  0  0  0  0  0  0  0
    2.8750   -2.6917    0.0000 C   0  0  0  0  0  0  0  0  0  0  0  0
    7.9125   -4.9667    0.0000 C   0  0  0  0  0  0  0  0  0  0  0  0
    3.4292   -3.0167    0.0000 C   0  0  0  0  0  0  0  0  0  0  0  0
    4.5500   -3.0167    0.0000 C   0  0  0  0  0  0  0  0  0  0  0  0
    2.8792   -2.0500    0.0000 C   0  0  0  0  0  0  0  0  0  0  0  0
    3.9917   -2.6917    0.0000 O   0  0  0  0  0  0  0  0  0  0  0  0
    4.5500   -3.6667    0.0000 C   0  0  0  0  0  0  0  0  0  0  0  0
    9.0292   -3.6667    0.0000 O   0  0  0  0  0  0  0  0  0  0  0  0
    9.0292   -4.9667    0.0000 O   0  0  0  0  0  0  0  0  0  0  0  0
    2.3167   -3.0167    0.0000 C   0  0  0  0  0  0  0  0  0  0  0  0
    3.4375   -1.7292    0.0000 C   0  0  0  0  0  0  0  0  0  0  0  0
    2.3167   -1.7250    0.0000 C   0  0  0  0  0  0  0  0  0  0  0  0
    9.0292   -3.0250    0.0000 C   0  0  0  0  0  0  0  0  0  0  0  0
    9.5875   -4.6417    0.0000 C   0  0  0  0  0  0  0  0  0  0  0  0
    1.7542   -2.0417    0.0000 C   0  0  0  0  0  0  0  0  0  0  0  0
    1.7542   -2.6917    0.0000 C   0  0  0  0  0  0  0  0  0  0  0  0
  2  1  1  0  0  0  0
  3  2  1  0  0  0  0
  4  1  2  0  0  0  0
  5  7  1  0  0  0  0
  6  1  1  0  0  0  0
  7  4  1  0  0  0  0
  8  6  1  0  0  0  0
  9  3  2  0  0  0  0
 10  5  2  0  0  0  0
 11  8  2  0  0  0  0
 12  2  2  0  0  0  0
 13 16  2  0  0  0  0
 14  6  2  0  0  0  0
 15 17  1  0  0  0  0
 16 14  1  0  0  0  0
 17 20  1  0  0  0  0
 18 10  1  0  0  0  0
 19 15  2  0  0  0  0
 20 18  1  0  0  0  0
 21  9  1  0  0  0  0
 22 11  1  0  0  0  0
 23 13  1  0  0  0  0
 24 15  1  0  0  0  0
 25 19  1  0  0  0  0
 26 19  1  0  0  0  0
 27 22  1  0  0  0  0
 28 23  1  0  0  0  0
 29 30  1  0  0  0  0
 30 24  2  0  0  0  0
  3  5  1  0  0  0  0
 11 13  1  0  0  0  0
 21 18  2  0  0  0  0
 29 26  2  0  0  0  0
M  END
> <IDNUMBER>
F3385-2966

> <Chemical_Name>
3-(3,4-dimethoxyphenyl)-7-[(2-methylphenyl)methoxy]-4H-chromen-4-one

> <CAS>
859138-24-2

> <PriceCoeff>
1.00

> <MW>
402.44

> <Description>
solid

> <FSP3>
0.16

> <clogP>
4.97

> <TPSA>
53.99

> <Acceptor>
5

> <Donor>
0

> <RotBonds>
6

> <HAC>
30

> <Collection>
General

> <Reference_compound>
CHEMBL455048

> <Similarity>
0.8520

$$$$
F0078-0024
  -ISIS-  06222321442D

 22 24  0  0  0  0  0  0  0  0999 V2000
   -2.1333   -1.2542    0.0000 N   0  0  3  0  0  0  0  0  0  0  0  0
   -0.6833   -1.0000    0.0000 C   0  0  3  0  0  0  0  0  0  0  0  0
   -1.5125   -0.5792    0.0000 C   0  0  0  0  0  0  0  0  0  0  0  0
   -1.6708   -2.0792    0.0000 C   0  0  0  0  0  0  0  0  0  0  0  0
   -0.8000   -1.8875    0.0000 C   0  0  0  0  0  0  0  0  0  0  0  0
    0.1292   -0.6000    0.0000 N   0  0  3  0  0  0  0  0  0  0  0  0
   -2.9833   -1.2542    0.0000 C   0  0  0  0  0  0  0  0  0  0  0  0
   -1.5958    0.1625    0.0000 O   0  0  0  0  0  0  0  0  0  0  0  0
   -2.1000   -2.6667    0.0000 O   0  0  0  0  0  0  0  0  0  0  0  0
    0.8792   -1.1000    0.0000 C   0  0  0  0  0  0  0  0  0  0  0  0
    0.0042    0.2125    0.0000 O   0  0  0  0  0  0  0  0  0  0  0  0
   -3.4333   -2.0167    0.0000 C   0  0  0  0  0  0  0  0  0  0  0  0
    0.8375   -2.0042    0.0000 C   0  0  0  0  0  0  0  0  0  0  0  0
    1.7000   -0.7000    0.0000 C   0  0  0  0  0  0  0  0  0  0  0  0
   -4.3208   -2.0042    0.0000 C   0  0  0  0  0  0  0  0  0  0  0  0
   -2.9833   -2.7792    0.0000 C   0  0  0  0  0  0  0  0  0  0  0  0
    1.6000   -2.5000    0.0000 C   0  0  0  0  0  0  0  0  0  0  0  0
    2.4542   -1.2000    0.0000 C   0  0  0  0  0  0  0  0  0  0  0  0
   -3.4458   -3.5500    0.0000 C   0  0  0  0  0  0  0  0  0  0  0  0
   -4.7708   -2.7667    0.0000 C   0  0  0  0  0  0  0  0  0  0  0  0
    2.4167   -2.1042    0.0000 C   0  0  0  0  0  0  0  0  0  0  0  0
   -4.3458   -3.5375    0.0000 C   0  0  0  0  0  0  0  0  0  0  0  0
  2  3  1  0  0  0  0
  3  1  1  0  0  0  0
  4  1  1  0  0  0  0
  5  4  1  0  0  0  0
  6  2  1  0  0  0  0
  7  1  1  0  0  0  0
  8  3  2  0  0  0  0
  9  4  2  0  0  0  0
 10  6  1  0  0  0  0
 11  6  1  0  0  0  0
 12  7  1  0  0  0  0
 13 10  2  0  0  0  0
 14 10  1  0  0  0  0
 15 12  2  0  0  0  0
 16 12  1  0  0  0  0
 17 13  1  0  0  0  0
 18 14  2  0  0  0  0
 19 16  2  0  0  0  0
 20 15  1  0  0  0  0
 21 18  1  0  0  0  0
 22 19  1  0  0  0  0
  2  5  1  0  0  0  0
 22 20  2  0  0  0  0
 21 17  2  0  0  0  0
M  END
> <IDNUMBER>
F0078-0024

> <Chemical_Name>
1-benzyl-3-(N-phenylhydroxyamino)pyrrolidine-2,5-dione

> <CAS>
308101-38-4

> <PriceCoeff>
1.00

> <MW>
296.32

> <Description>
solid

> <FSP3>
0.18

> <clogP>
3.42

> <TPSA>
60.85

> <Acceptor>
4

> <Donor>
2

> <RotBonds>
4

> <HAC>
22

> <Collection>
General

$$$$
F3139-0611
  -ISIS-  06222321442D

 19 21  0  0  0  0  0  0  0  0999 V2000
    5.2750   -0.4292    0.0000 C   0  0  0  0  0  0  0  0  0  0  0  0
    5.2750   -1.2667    0.0000 C   0  0  0  0  0  0  0  0  0  0  0  0
    3.8292   -1.2667    0.0000 C   0  0  0  0  0  0  0  0  0  0  0  0
    4.5500   -1.6792    0.0000 C   0  0  0  0  0  0  0  0  0  0  0  0
    4.5542   -0.0125    0.0000 O   0  0  0  0  0  0  0  0  0  0  0  0
    3.8375   -0.4292    0.0000 C   0  0  0  0  0  0  0  0  0  0  0  0
    5.9875   -0.0250    0.0000 C   0  0  0  0  0  0  0  0  0  0  0  0
    3.1167   -1.6750    0.0000 C   0  0  0  0  0  0  0  0  0  0  0  0
    4.5500   -2.5042    0.0000 O   0  0  0  0  0  0  0  0  0  0  0  0
    3.1167   -0.0167    0.0000 C   0  0  0  0  0  0  0  0  0  0  0  0
    5.9917    0.7958    0.0000 C   0  0  0  0  0  0  0  0  0  0  0  0
    6.7042   -0.4417    0.0000 C   0  0  0  0  0  0  0  0  0  0  0  0
    2.4042   -1.2625    0.0000 C   0  0  0  0  0  0  0  0  0  0  0  0
    7.4167    0.7958    0.0000 C   0  0  0  0  0  0  0  0  0  0  0  0
    2.4042   -0.4375    0.0000 C   0  0  0  0  0  0  0  0  0  0  0  0
    7.4167   -0.0292    0.0000 C   0  0  0  0  0  0  0  0  0  0  0  0
    6.7042    1.2083    0.0000 C   0  0  0  0  0  0  0  0  0  0  0  0
    1.6917   -1.6750    0.0000 Br  0  0  0  0  0  0  0  0  0  0  0  0
    8.1375    1.2083    0.0000 Cl  0  0  0  0  0  0  0  0  0  0  0  0
  2  1  2  0  0  0  0
  3  6  1  0  0  0  0
  4  2  1  0  0  0  0
  5  1  1  0  0  0  0
  6  5  1  0  0  0  0
  7  1  1  0  0  0  0
  8  3  2  0  0  0  0
  9  4  2  0  0  0  0
 10  6  2  0  0  0  0
 11  7  1  0  0  0  0
 12  7  2  0  0  0  0
 13 15  2  0  0  0  0
 14 16  2  0  0  0  0
 15 10  1  0  0  0  0
 16 12  1  0  0  0  0
 17 11  2  0  0  0  0
 18 13  1  0  0  0  0
 19 14  1  0  0  0  0
  3  4  1  0  0  0  0
 17 14  1  0  0  0  0
 13  8  1  0  0  0  0
M  END
> <IDNUMBER>
F3139-0611

> <Chemical_Name>
6-bromo-2-(4-chlorophenyl)-4H-chromen-4-one

> <CAS>
75767-99-6

> <PriceCoeff>
1.00

> <MW>
335.58

> <Description>
solid

> <FSP3>
0.00

> <clogP>
5.06

> <TPSA>
26.30

> <Acceptor>
2

> <Donor>
0

> <RotBonds>
1

> <HAC>
19

> <Collection>
General

> <Reference_compound>
CHEMBL275638

> <Similarity>
0.8320

$$$$
F0808-0261
  -ISIS-  06222321142D

 23 25  0  0  0  0  0  0  0  0999 V2000
    0.2500    0.4000    0.0000 S   0  0  3  0  0  0  0  0  0  0  0  0
    1.7500    0.4000    0.0000 C   0  0  0  0  0  0  0  0  0  0  0  0
    1.0000    0.4000    0.0000 N   0  0  0  0  0  0  0  0  0  0  0  0
    2.1167    1.0500    0.0000 C   0  0  0  0  0  0  0  0  0  0  0  0
    2.8667    1.0500    0.0000 C   0  0  0  0  0  0  0  0  0  0  0  0
    3.2500    0.4000    0.0000 C   0  0  0  0  0  0  0  0  0  0  0  0
    2.1167   -0.2375    0.0000 C   0  0  0  0  0  0  0  0  0  0  0  0
    2.8667   -0.2375    0.0000 C   0  0  0  0  0  0  0  0  0  0  0  0
    0.2500   -0.3375    0.0000 O   0  0  0  0  0  0  0  0  0  0  0  0
    0.2542    1.1500    0.0000 O   0  0  0  0  0  0  0  0  0  0  0  0
   -0.4958    0.4000    0.0000 C   0  0  0  0  0  0  0  0  0  0  0  0
    1.7500    1.7000    0.0000 Cl  0  0  0  0  0  0  0  0  0  0  0  0
    3.2500    1.7000    0.0000 Cl  0  0  0  0  0  0  0  0  0  0  0  0
    4.0000    0.4000    0.0000 O   0  0  0  0  0  0  0  0  0  0  0  0
    1.7500   -0.8875    0.0000 C   0  0  0  0  0  0  0  0  0  0  0  0
    3.2500   -0.8875    0.0000 C   0  0  0  0  0  0  0  0  0  0  0  0
   -0.8625    1.0625    0.0000 C   0  0  0  0  0  0  0  0  0  0  0  0
   -0.8708   -0.2375    0.0000 C   0  0  0  0  0  0  0  0  0  0  0  0
    2.8667   -1.5375    0.0000 C   0  0  0  0  0  0  0  0  0  0  0  0
    2.1167   -1.5375    0.0000 C   0  0  0  0  0  0  0  0  0  0  0  0
   -1.6208    1.0625    0.0000 C   0  0  0  0  0  0  0  0  0  0  0  0
   -1.6208   -0.2375    0.0000 C   0  0  0  0  0  0  0  0  0  0  0  0
   -1.9958    0.4125    0.0000 C   0  0  0  0  0  0  0  0  0  0  0  0
  2  3  1  0  0  0  0
  3  1  1  0  0  0  0
  4  2  2  0  0  0  0
  5  4  1  0  0  0  0
  6  8  1  0  0  0  0
  7  2  1  0  0  0  0
  8  7  1  0  0  0  0
  9  1  2  0  0  0  0
 10  1  2  0  0  0  0
 11  1  1  0  0  0  0
 12  4  1  0  0  0  0
 13  5  1  0  0  0  0
 14  6  1  0  0  0  0
 15  7  2  0  0  0  0
 16  8  2  0  0  0  0
 17 11  1  0  0  0  0
 18 11  2  0  0  0  0
 19 20  2  0  0  0  0
 20 15  1  0  0  0  0
 21 17  2  0  0  0  0
 22 18  1  0  0  0  0
 23 22  2  0  0  0  0
 23 21  1  0  0  0  0
  6  5  2  0  0  0  0
 19 16  1  0  0  0  0
M  END
> <IDNUMBER>
F0808-0261

> <Chemical_Name>
N-(2,3-dichloro-4-hydroxynaphthalen-1-yl)benzenesulfonamide

> <CAS>
178970-83-7

> <PriceCoeff>
1.00

> <MW>
368.23

> <Description>
solid

> <FSP3>
0.00

> <clogP>
3.98

> <TPSA>
74.78

> <Acceptor>
4

> <Donor>
2

> <RotBonds>
3

> <HAC>
23

> <Collection>
General

$$$$
F2548-0070
  -ISIS-  06222321462D

 28 31  0  0  0  0  0  0  0  0999 V2000
   -0.9083   -2.0792    0.0000 N   0  3  0  0  0  0  0  0  0  0  0  0
   -0.1958   -1.6750    0.0000 C   0  0  0  0  0  0  0  0  0  0  0  0
    0.5292    0.3833    0.0000 C   0  0  0  0  0  0  0  0  0  0  0  0
   -0.1875    0.7958    0.0000 N   0  0  3  0  0  0  0  0  0  0  0  0
   -2.3250    2.8625    0.0000 C   0  0  0  0  0  0  0  0  0  0  0  0
   -0.1833   -0.8417    0.0000 C   0  0  0  0  0  0  0  0  0  0  0  0
   -2.3250    1.2125    0.0000 O   0  0  0  0  0  0  0  0  0  0  0  0
   -1.6083    1.6208    0.0000 C   0  0  3  0  0  0  0  0  0  0  0  0
   -3.0333    2.4458    0.0000 C   0  0  0  0  0  0  0  0  0  0  0  0
    0.5250   -0.4375    0.0000 C   0  0  0  0  0  0  0  0  0  0  0  0
   -3.0333    1.6208    0.0000 C   0  0  0  0  0  0  0  0  0  0  0  0
   -1.6125    2.4458    0.0000 C   0  0  0  0  0  0  0  0  0  0  0  0
    0.5292   -2.0917    0.0000 C   0  0  0  0  0  0  0  0  0  0  0  0
   -1.6208   -1.6667    0.0000 O   0  5  0  0  0  0  0  0  0  0  0  0
   -0.9083   -2.9042    0.0000 O   0  0  0  0  0  0  0  0  0  0  0  0
   -0.1875    1.6208    0.0000 C   0  0  0  0  0  0  0  0  0  0  0  0
   -0.9000    0.3875    0.0000 C   0  0  0  0  0  0  0  0  0  0  0  0
    1.2417    0.7958    0.0000 O   0  0  0  0  0  0  0  0  0  0  0  0
   -1.6083    0.7958    0.0000 C   0  0  0  0  0  0  0  0  0  0  0  0
   -0.9000    2.0375    0.0000 C   0  0  0  0  0  0  0  0  0  0  0  0
   -2.3250    3.6875    0.0000 O   0  0  0  0  0  0  0  0  0  0  0  0
    1.2417   -0.8500    0.0000 C   0  0  0  0  0  0  0  0  0  0  0  0
    1.2417   -1.6750    0.0000 C   0  0  0  0  0  0  0  0  0  0  0  0
    0.5250   -2.9042    0.0000 Cl  0  0  0  0  0  0  0  0  0  0  0  0
   -3.7458    2.8583    0.0000 C   0  0  0  0  0  0  0  0  0  0  0  0
   -3.7458    1.2125    0.0000 C   0  0  0  0  0  0  0  0  0  0  0  0
   -4.4583    2.4583    0.0000 C   0  0  0  0  0  0  0  0  0  0  0  0
   -4.4583    1.6208    0.0000 C   0  0  0  0  0  0  0  0  0  0  0  0
  2  1  1  0  0  0  0
  3 10  1  0  0  0  0
  4  3  1  0  0  0  0
  5 12  1  0  0  0  0
  6  2  2  0  0  0  0
  7  8  1  0  0  0  0
  8 19  1  0  0  0  0
  9  5  1  0  0  0  0
 10  6  1  0  0  0  0
 11  7  1  0  0  0  0
 12  8  1  0  0  0  0
 13  2  1  0  0  0  0
 14  1  1  0  0  0  0
 15  1  2  0  0  0  0
 16  4  1  0  0  0  0
 17  4  1  0  0  0  0
 18  3  2  0  0  0  0
 19 17  1  0  0  0  0
 20 16  1  0  0  0  0
 21  5  2  0  0  0  0
 22 23  1  0  0  0  0
 23 13  2  0  0  0  0
 24 13  1  0  0  0  0
 25  9  1  0  0  0  0
 26 11  1  0  0  0  0
 27 25  2  0  0  0  0
 28 26  2  0  0  0  0
 10 22  2  0  0  0  0
  8 20  1  0  0  0  0
  9 11  2  0  0  0  0
 28 27  1  0  0  0  0
M  CHG  2   1   1  14  -1
M  END
> <IDNUMBER>
F2548-0070

> <Chemical_Name>
1'-(4-chloro-3-nitrobenzoyl)-3,4-dihydrospiro[1-benzopyran-2,4'-piperidine]-4-one

> <CAS>
877811-06-8

> <PriceCoeff>
1.00

> <MW>
400.81

> <Description>
solid

> <FSP3>
0.30

> <clogP>
2.65

> <TPSA>
89.75

> <Acceptor>
5

> <Donor>
0

> <RotBonds>
3

> <HAC>
28

> <Collection>
General

$$$$
F3139-0991
  -ISIS-  06222321152D

 28 31  0  0  0  0  0  0  0  0999 V2000
    8.6125   -4.4167    0.0000 C   0  0  0  0  0  0  0  0  0  0  0  0
    5.6167   -4.4167    0.0000 C   0  0  0  0  0  0  0  0  0  0  0  0
    7.1042   -5.2667    0.0000 C   0  0  0  0  0  0  0  0  0  0  0  0
    8.6125   -2.6875    0.0000 C   0  0  0  0  0  0  0  0  0  0  0  0
    5.6417   -2.6875    0.0000 C   0  0  0  0  0  0  0  0  0  0  0  0
   10.0625   -5.2667    0.0000 C   0  0  0  0  0  0  0  0  0  0  0  0
    7.1292   -1.8167    0.0000 O   0  0  0  0  0  0  0  0  0  0  0  0
    4.1417   -5.2667    0.0000 C   0  0  0  0  0  0  0  0  0  0  0  0
    4.1417   -1.8292    0.0000 C   0  0  0  0  0  0  0  0  0  0  0  0
    2.6875   -2.6917    0.0000 C   0  0  0  0  0  0  0  0  0  0  0  0
   13.0250   -5.2667    0.0000 C   0  0  0  0  0  0  0  0  0  0  0  0
    2.6875   -4.4000    0.0000 C   0  0  0  0  0  0  0  0  0  0  0  0
   11.5500   -4.4167    0.0000 C   0  0  0  0  0  0  0  0  0  0  0  0
   13.0250   -7.0042    0.0000 C   0  0  0  0  0  0  0  0  0  0  0  0
    7.1042   -6.9542    0.0000 O   0  0  0  0  0  0  0  0  0  0  0  0
    1.2125   -1.8542    0.0000 O   0  0  0  0  0  0  0  0  0  0  0  0
   14.5042   -4.4167    0.0000 O   0  0  0  0  0  0  0  0  0  0  0  0
   10.0625   -6.9875    0.0000 C   0  0  0  0  0  0  0  0  0  0  0  0
   14.4792   -7.8542    0.0000 O   0  0  0  0  0  0  0  0  0  0  0  0
   -0.2500    0.6958    0.0000 C   0  0  0  0  0  0  0  0  0  0  0  0
   11.5292   -7.8292    0.0000 C   0  0  0  0  0  0  0  0  0  0  0  0
   -1.7250   -0.1375    0.0000 C   0  0  0  0  0  0  0  0  0  0  0  0
    1.2125   -0.1375    0.0000 C   0  0  0  0  0  0  0  0  0  0  0  0
    1.1917   -5.2667    0.0000 C   0  0  0  0  0  0  0  0  0  0  0  0
   16.0000   -5.2792    0.0000 C   0  0  0  0  0  0  0  0  0  0  0  0
   16.0000   -7.0042    0.0000 C   0  0  0  0  0  0  0  0  0  0  0  0
   -0.2500    2.4083    0.0000 C   0  0  0  0  0  0  0  0  0  0  0  0
    1.1667   -6.9542    0.0000 C   0  0  0  0  0  0  0  0  0  0  0  0
  2  3  1  0  0  0  0
  3  1  1  0  0  0  0
  4  1  2  0  0  0  0
  5  7  1  0  0  0  0
  6  1  1  0  0  0  0
  7  4  1  0  0  0  0
  8  2  2  0  0  0  0
  9  5  2  0  0  0  0
 10  9  1  0  0  0  0
 11 13  2  0  0  0  0
 12  8  1  0  0  0  0
 13  6  1  0  0  0  0
 14 21  2  0  0  0  0
 15  3  2  0  0  0  0
 16 10  1  0  0  0  0
 17 11  1  0  0  0  0
 18  6  2  0  0  0  0
 19 14  1  0  0  0  0
 20 23  1  0  0  0  0
 21 18  1  0  0  0  0
 22 20  2  0  0  0  0
 23 16  1  0  0  0  0
 24 12  1  0  0  0  0
 25 17  1  0  0  0  0
 26 19  1  0  0  0  0
 27 20  1  0  0  0  0
 28 24  1  0  0  0  0
  2  5  1  0  0  0  0
 14 11  1  0  0  0  0
 12 10  2  0  0  0  0
 25 26  1  0  0  0  0
M  END
> <IDNUMBER>
F3139-0991

> <Chemical_Name>
3-(2,3-dihydro-1,4-benzodioxin-6-yl)-6-ethyl-7-[(2-methylprop-2-en-1-yl)oxy]-4H-chromen-4-one

> <CAS>
610762-30-6

> <PriceCoeff>
1.00

> <MW>
378.42

> <Description>
solid

> <FSP3>
0.26

> <clogP>
5.22

> <TPSA>
53.99

> <Acceptor>
5

> <Donor>
0

> <RotBonds>
5

> <HAC>
28

> <Collection>
General

> <Reference_compound>
CHEMBL455048

> <Similarity>
0.8260

$$$$
F1620-0061
  -ISIS-  06222321452D

 26 29  0  0  0  0  0  0  0  0999 V2000
    0.7167   -0.0625    0.0000 C   0  0  0  0  0  0  0  0  0  0  0  0
    1.5375    0.0333    0.0000 N   0  0  0  0  0  0  0  0  0  0  0  0
    0.3042   -0.7792    0.0000 N   0  0  3  0  0  0  0  0  0  0  0  0
    5.2917   -0.2667    0.0000 N   0  0  3  0  0  0  0  0  0  0  0  0
    0.1625    0.5500    0.0000 S   0  0  0  0  0  0  0  0  0  0  0  0
    2.0250   -0.6292    0.0000 C   0  0  0  0  0  0  0  0  0  0  0  0
   -0.5000   -0.6125    0.0000 C   0  0  0  0  0  0  0  0  0  0  0  0
    5.8542   -0.8792    0.0000 C   0  0  0  0  0  0  0  0  0  0  0  0
    5.7042    0.4458    0.0000 C   0  0  0  0  0  0  0  0  0  0  0  0
   -0.5875    0.2083    0.0000 C   0  0  0  0  0  0  0  0  0  0  0  0
    4.4792   -0.3625    0.0000 C   0  0  0  0  0  0  0  0  0  0  0  0
    2.8417   -0.5417    0.0000 C   0  0  0  0  0  0  0  0  0  0  0  0
    1.6917   -1.3917    0.0000 O   0  0  0  0  0  0  0  0  0  0  0  0
    6.5125    0.2833    0.0000 C   0  0  0  0  0  0  0  0  0  0  0  0
    6.6042   -0.5375    0.0000 C   0  0  0  0  0  0  0  0  0  0  0  0
    5.6875   -1.6875    0.0000 O   0  0  0  0  0  0  0  0  0  0  0  0
    5.3625    1.2000    0.0000 O   0  0  0  0  0  0  0  0  0  0  0  0
    3.9875    0.3083    0.0000 C   0  0  0  0  0  0  0  0  0  0  0  0
    4.1500   -1.1167    0.0000 C   0  0  0  0  0  0  0  0  0  0  0  0
    3.1667    0.2125    0.0000 C   0  0  0  0  0  0  0  0  0  0  0  0
    3.3292   -1.2042    0.0000 C   0  0  0  0  0  0  0  0  0  0  0  0
    0.6500   -1.5292    0.0000 C   0  0  0  0  0  0  0  0  0  0  0  0
   -1.1583   -1.0917    0.0000 C   0  0  0  0  0  0  0  0  0  0  0  0
   -1.3375    0.5375    0.0000 C   0  0  0  0  0  0  0  0  0  0  0  0
   -1.9083   -0.7667    0.0000 C   0  0  0  0  0  0  0  0  0  0  0  0
   -2.0000    0.0500    0.0000 C   0  0  0  0  0  0  0  0  0  0  0  0
  2  1  2  0  0  0  0
  3  1  1  0  0  0  0
  4 11  1  0  0  0  0
  5  1  1  0  0  0  0
  6  2  1  0  0  0  0
  7  3  1  0  0  0  0
  8  4  1  0  0  0  0
  9  4  1  0  0  0  0
 10  5  1  0  0  0  0
 11 19  2  0  0  0  0
 12  6  1  0  0  0  0
 13  6  2  0  0  0  0
 14  9  1  0  0  0  0
 15  8  1  0  0  0  0
 16  8  2  0  0  0  0
 17  9  2  0  0  0  0
 18 20  2  0  0  0  0
 19 21  1  0  0  0  0
 20 12  1  0  0  0  0
 21 12  2  0  0  0  0
 22  3  1  0  0  0  0
 23  7  1  0  0  0  0
 24 10  1  0  0  0  0
 25 23  2  0  0  0  0
 26 24  2  0  0  0  0
 10  7  2  0  0  0  0
 25 26  1  0  0  0  0
 11 18  1  0  0  0  0
 14 15  1  0  0  0  0
M  END
> <IDNUMBER>
F1620-0061

> <Chemical_Name>
4-(2,5-dioxopyrrolidin-1-yl)-N-[(2E)-3-methyl-2,3-dihydro-1,3-benzothiazol-2-ylidene]benzamide

> <CAS>
307327-07-7

> <PriceCoeff>
1.00

> <MW>
365.41

> <Description>
solid

> <FSP3>
0.16

> <clogP>
2.95

> <TPSA>
95.35

> <Acceptor>
3

> <Donor>
0

> <RotBonds>
3

> <HAC>
26

> <Collection>
General

$$$$
F3228-0128
  -ISIS-  06222321152D

 20 22  0  0  0  0  0  0  0  0999 V2000
    2.4667    0.5333    0.0000 C   0  0  0  0  0  0  0  0  0  0  0  0
    1.3417    0.5375    0.0000 C   0  0  0  0  0  0  0  0  0  0  0  0
    1.9042    0.2125    0.0000 C   0  0  0  0  0  0  0  0  0  0  0  0
    1.3417    1.1875    0.0000 C   0  0  0  0  0  0  0  0  0  0  0  0
    0.7792    1.5083    0.0000 C   0  0  0  0  0  0  0  0  0  0  0  0
    1.9042    1.5208    0.0000 O   0  0  0  0  0  0  0  0  0  0  0  0
    2.4667    1.1875    0.0000 C   0  0  0  0  0  0  0  0  0  0  0  0
    0.7792    0.2208    0.0000 C   0  0  0  0  0  0  0  0  0  0  0  0
    0.2167    1.1875    0.0000 C   0  0  0  0  0  0  0  0  0  0  0  0
    3.0167    0.2208    0.0000 C   0  0  0  0  0  0  0  0  0  0  0  0
    1.9000   -0.4292    0.0000 O   0  0  0  0  0  0  0  0  0  0  0  0
    0.7750    2.1583    0.0000 C   0  0  0  0  0  0  0  0  0  0  0  0
    0.2167    0.5375    0.0000 C   0  0  0  0  0  0  0  0  0  0  0  0
    1.3292    2.4833    0.0000 O   0  0  0  0  0  0  0  0  0  0  0  0
   -0.3375    1.5083    0.0000 O   0  0  0  0  0  0  0  0  0  0  0  0
    3.0167   -0.4292    0.0000 C   0  0  0  0  0  0  0  0  0  0  0  0
    3.5750    0.5458    0.0000 C   0  0  0  0  0  0  0  0  0  0  0  0
    4.1292    0.2208    0.0000 C   0  0  0  0  0  0  0  0  0  0  0  0
    3.5750   -0.7500    0.0000 C   0  0  0  0  0  0  0  0  0  0  0  0
    4.1375   -0.4292    0.0000 C   0  0  0  0  0  0  0  0  0  0  0  0
  2  3  1  0  0  0  0
  3  1  1  0  0  0  0
  4  6  1  0  0  0  0
  5  4  2  0  0  0  0
  6  7  1  0  0  0  0
  7  1  2  0  0  0  0
  8  2  2  0  0  0  0
  9  5  1  0  0  0  0
 10  1  1  0  0  0  0
 11  3  2  0  0  0  0
 12  5  1  0  0  0  0
 13  8  1  0  0  0  0
 14 12  2  0  0  0  0
 15  9  1  0  0  0  0
 16 10  2  0  0  0  0
 17 10  1  0  0  0  0
 18 17  2  0  0  0  0
 19 16  1  0  0  0  0
 20 18  1  0  0  0  0
  2  4  1  0  0  0  0
 20 19  2  0  0  0  0
 13  9  2  0  0  0  0
M  END
> <IDNUMBER>
F3228-0128

> <Chemical_Name>
7-hydroxy-4-oxo-3-phenyl-4H-chromene-8-carbaldehyde

> <CAS>
856791-64-5

> <PriceCoeff>
1.00

> <MW>
266.25

> <Description>
solid

> <FSP3>
0.00

> <clogP>
2.84

> <TPSA>
63.60

> <Acceptor>
4

> <Donor>
1

> <RotBonds>
2

> <HAC>
20

> <Collection>
General

> <Reference_compound>
CHEMBL44

> <Similarity>
0.9480

$$$$
F1365-1296
  -ISIS-  06222321142D

 27 29  0  0  0  0  0  0  0  0999 V2000
   -1.1625    2.3833    0.0000 C   0  0  0  0  0  0  0  0  0  0  0  0
    1.3167    3.8083    0.0000 N   0  0  3  0  0  0  0  0  0  0  0  0
   -4.5833    3.2125    0.0000 S   0  0  3  0  0  0  0  0  0  0  0  0
   -1.6458    1.7208    0.0000 N   0  0  3  0  0  0  0  0  0  0  0  0
   -0.3375    2.3750    0.0000 N   0  0  0  0  0  0  0  0  0  0  0  0
   -1.6458    3.0500    0.0000 S   0  0  0  0  0  0  0  0  0  0  0  0
   -2.4333    2.7958    0.0000 C   0  0  0  0  0  0  0  0  0  0  0  0
   -2.4333    1.9708    0.0000 C   0  0  0  0  0  0  0  0  0  0  0  0
    2.1292    3.8833    0.0000 C   0  0  0  0  0  0  0  0  0  0  0  0
    0.9792    4.5417    0.0000 C   0  0  0  0  0  0  0  0  0  0  0  0
    0.0750    3.0875    0.0000 C   0  0  0  0  0  0  0  0  0  0  0  0
   -3.8583    2.7958    0.0000 C   0  0  0  0  0  0  0  0  0  0  0  0
   -3.1458    3.2083    0.0000 C   0  0  0  0  0  0  0  0  0  0  0  0
    0.9000    3.0875    0.0000 C   0  0  0  0  0  0  0  0  0  0  0  0
   -3.1458    1.5583    0.0000 C   0  0  0  0  0  0  0  0  0  0  0  0
   -4.1458    3.9083    0.0000 O   0  0  0  0  0  0  0  0  0  0  0  0
   -5.0208    2.5083    0.0000 O   0  0  0  0  0  0  0  0  0  0  0  0
   -5.2833    3.6458    0.0000 N   0  0  0  0  0  0  0  0  0  0  0  0
   -3.8583    1.9708    0.0000 C   0  0  0  0  0  0  0  0  0  0  0  0
    1.5917    5.0917    0.0000 C   0  0  0  0  0  0  0  0  0  0  0  0
    2.3125    4.6917    0.0000 C   0  0  0  0  0  0  0  0  0  0  0  0
    0.1792    4.7292    0.0000 O   0  0  0  0  0  0  0  0  0  0  0  0
    2.6875    3.2708    0.0000 O   0  0  0  0  0  0  0  0  0  0  0  0
   -0.3375    3.8000    0.0000 O   0  0  0  0  0  0  0  0  0  0  0  0
   -1.9458    0.3208    0.0000 C   0  0  0  0  0  0  0  0  0  0  0  0
   -1.3958    0.9333    0.0000 C   0  0  0  0  0  0  0  0  0  0  0  0
   -2.7500    0.4875    0.0000 C   0  0  0  0  0  0  0  0  0  0  0  0
  2 14  1  0  0  0  0
  3 12  1  0  0  0  0
  4  1  1  0  0  0  0
  5  1  2  0  0  0  0
  6  1  1  0  0  0  0
  7  6  1  0  0  0  0
  8  4  1  0  0  0  0
  9  2  1  0  0  0  0
 10  2  1  0  0  0  0
 11  5  1  0  0  0  0
 12 13  2  0  0  0  0
 13  7  1  0  0  0  0
 14 11  1  0  0  0  0
 15  8  1  0  0  0  0
 16  3  2  0  0  0  0
 17  3  2  0  0  0  0
 18  3  1  0  0  0  0
 19 15  2  0  0  0  0
 20 10  1  0  0  0  0
 21  9  1  0  0  0  0
 22 10  2  0  0  0  0
 23  9  2  0  0  0  0
 24 11  2  0  0  0  0
 25 26  1  0  0  0  0
 26  4  1  0  0  0  0
 27 25  2  0  0  0  0
  8  7  2  0  0  0  0
 19 12  1  0  0  0  0
 21 20  1  0  0  0  0
M  END
> <IDNUMBER>
F1365-1296

> <Chemical_Name>
2-(2,5-dioxopyrrolidin-1-yl)-N-[(2Z)-3-(prop-2-en-1-yl)-6-sulfamoyl-2,3-dihydro-1,3-benzothiazol-2-ylidene]acetamide

> <CAS>
1164457-94-6

> <PriceCoeff>
1.00

> <MW>
408.45

> <Description>
solid

> <FSP3>
0.25

> <clogP>
1.71

> <TPSA>
163.89

> <Acceptor>
5

> <Donor>
1

> <RotBonds>
6

> <HAC>
27

> <Collection>
General

$$$$
F1814-1152
  -ISIS-  06222321142D

 24 26  0  0  0  0  0  0  0  0999 V2000
   -5.2833    2.1875    0.0000 C   0  0  0  0  0  0  0  0  0  0  0  0
   -5.3583    1.3583    0.0000 N   0  0  3  0  0  0  0  0  0  0  0  0
   -6.0292    2.5333    0.0000 S   0  0  0  0  0  0  0  0  0  0  0  0
   -3.8708    4.6292    0.0000 N   0  0  3  0  0  0  0  0  0  0  0  0
   -4.5833    2.5958    0.0000 N   0  0  0  0  0  0  0  0  0  0  0  0
   -6.1667    1.1833    0.0000 C   0  0  0  0  0  0  0  0  0  0  0  0
   -6.5917    1.9000    0.0000 C   0  0  0  0  0  0  0  0  0  0  0  0
   -3.2000    5.1042    0.0000 C   0  0  0  0  0  0  0  0  0  0  0  0
   -4.5333    5.1042    0.0000 C   0  0  0  0  0  0  0  0  0  0  0  0
   -4.5833    3.3958    0.0000 C   0  0  0  0  0  0  0  0  0  0  0  0
   -7.4375    1.9000    0.0000 C   0  0  0  0  0  0  0  0  0  0  0  0
   -3.8708    3.8000    0.0000 C   0  0  0  0  0  0  0  0  0  0  0  0
   -6.5917    0.4583    0.0000 C   0  0  0  0  0  0  0  0  0  0  0  0
   -7.8542    1.1708    0.0000 C   0  0  0  0  0  0  0  0  0  0  0  0
   -4.2833    5.8917    0.0000 C   0  0  0  0  0  0  0  0  0  0  0  0
   -3.4583    5.9000    0.0000 C   0  0  0  0  0  0  0  0  0  0  0  0
   -5.3208    4.8542    0.0000 O   0  0  0  0  0  0  0  0  0  0  0  0
   -2.4125    4.8417    0.0000 O   0  0  0  0  0  0  0  0  0  0  0  0
   -5.2833    3.7958    0.0000 O   0  0  0  0  0  0  0  0  0  0  0  0
   -7.4292    0.4500    0.0000 C   0  0  0  0  0  0  0  0  0  0  0  0
   -4.7708    0.8125    0.0000 C   0  0  0  0  0  0  0  0  0  0  0  0
   -7.8417    2.6083    0.0000 C   0  0  0  0  0  0  0  0  0  0  0  0
   -7.8375   -0.2667    0.0000 C   0  0  0  0  0  0  0  0  0  0  0  0
   -4.9375    0.0125    0.0000 C   0  0  0  0  0  0  0  0  0  0  0  0
  2  1  1  0  0  0  0
  3  1  1  0  0  0  0
  4 12  1  0  0  0  0
  5  1  2  0  0  0  0
  6  2  1  0  0  0  0
  7  3  1  0  0  0  0
  8  4  1  0  0  0  0
  9  4  1  0  0  0  0
 10  5  1  0  0  0  0
 11  7  1  0  0  0  0
 12 10  1  0  0  0  0
 13  6  1  0  0  0  0
 14 11  2  0  0  0  0
 15  9  1  0  0  0  0
 16  8  1  0  0  0  0
 17  9  2  0  0  0  0
 18  8  2  0  0  0  0
 19 10  2  0  0  0  0
 20 13  2  0  0  0  0
 21  2  1  0  0  0  0
 22 11  1  0  0  0  0
 23 20  1  0  0  0  0
 24 21  1  0  0  0  0
  6  7  2  0  0  0  0
 14 20  1  0  0  0  0
 16 15  1  0  0  0  0
M  END
> <IDNUMBER>
F1814-1152

> <Chemical_Name>
2-(2,5-dioxopyrrolidin-1-yl)-N-[(2Z)-3-ethyl-5,7-dimethyl-2,3-dihydro-1,3-benzothiazol-2-ylidene]acetamide

> <CAS>
1164489-86-4

> <PriceCoeff>
1.00

> <MW>
345.42

> <Description>
solid

> <FSP3>
0.41

> <clogP>
4.30

> <TPSA>
95.35

> <Acceptor>
3

> <Donor>
0

> <RotBonds>
4

> <HAC>
24

> <Collection>
General

$$$$
F2749-0247
  -ISIS-  06222321152D

 27 29  0  0  0  0  0  0  0  0999 V2000
   -2.3625    1.8250    0.0000 S   0  0  3  0  0  0  0  0  0  0  0  0
   -1.8750    2.5000    0.0000 N   0  0  3  0  0  0  0  0  0  0  0  0
   -2.3708    3.1708    0.0000 C   0  0  0  0  0  0  0  0  0  0  0  0
   -3.1583    2.9125    0.0000 C   0  0  0  0  0  0  0  0  0  0  0  0
   -3.1583    2.0833    0.0000 C   0  0  0  0  0  0  0  0  0  0  0  0
    3.0042    2.8958    0.0000 N   0  3  0  0  0  0  0  0  0  0  0  0
    2.4542    2.3000    0.0000 C   0  0  0  0  0  0  0  0  0  0  0  0
   -1.3625    3.1083    0.0000 C   0  0  0  0  0  0  0  0  0  0  0  0
   -3.0583    1.3083    0.0000 O   0  0  0  0  0  0  0  0  0  0  0  0
   -2.0458    1.0583    0.0000 O   0  0  0  0  0  0  0  0  0  0  0  0
    1.6542    2.4833    0.0000 C   0  0  0  0  0  0  0  0  0  0  0  0
    0.0667    2.8208    0.0000 C   0  0  0  0  0  0  0  0  0  0  0  0
   -0.5583    3.1958    0.0000 C   0  0  0  0  0  0  0  0  0  0  0  0
    2.7042    1.5208    0.0000 C   0  0  0  0  0  0  0  0  0  0  0  0
    3.8000    2.7250    0.0000 O   0  5  0  0  0  0  0  0  0  0  0  0
   -2.0708    3.8000    0.0000 O   0  0  0  0  0  0  0  0  0  0  0  0
    0.3042    2.0458    0.0000 N   0  0  0  0  0  0  0  0  0  0  0  0
    2.7625    3.6750    0.0000 O   0  0  0  0  0  0  0  0  0  0  0  0
    1.1042    1.8708    0.0000 C   0  0  0  0  0  0  0  0  0  0  0  0
    0.3792    3.5083    0.0000 O   0  0  0  0  0  0  0  0  0  0  0  0
    2.1542    0.9208    0.0000 C   0  0  0  0  0  0  0  0  0  0  0  0
   -3.8750    3.3333    0.0000 C   0  0  0  0  0  0  0  0  0  0  0  0
    1.3500    1.0958    0.0000 C   0  0  0  0  0  0  0  0  0  0  0  0
    3.5000    1.3500    0.0000 Cl  0  0  0  0  0  0  0  0  0  0  0  0
   -3.8750    1.6708    0.0000 C   0  0  0  0  0  0  0  0  0  0  0  0
   -4.5833    2.9125    0.0000 C   0  0  0  0  0  0  0  0  0  0  0  0
   -4.5833    2.0833    0.0000 C   0  0  0  0  0  0  0  0  0  0  0  0
  2  1  1  0  0  0  0
  3  2  1  0  0  0  0
  4  5  2  0  0  0  0
  5  1  1  0  0  0  0
  6  7  1  0  0  0  0
  7 11  2  0  0  0  0
  8  2  1  0  0  0  0
  9  1  2  0  0  0  0
 10  1  2  0  0  0  0
 11 19  1  0  0  0  0
 12 13  1  0  0  0  0
 13  8  1  0  0  0  0
 14 21  2  0  0  0  0
 15  6  1  0  0  0  0
 16  3  2  0  0  0  0
 17 12  1  0  0  0  0
 18  6  2  0  0  0  0
 19 17  1  0  0  0  0
 20 12  2  0  0  0  0
 21 23  1  0  0  0  0
 22  4  1  0  0  0  0
 23 19  2  0  0  0  0
 24 14  1  0  0  0  0
 25  5  1  0  0  0  0
 26 27  1  0  0  0  0
 27 25  2  0  0  0  0
  3  4  1  0  0  0  0
 26 22  2  0  0  0  0
 14  7  1  0  0  0  0
M  CHG  2   6   1  15  -1
M  END
> <IDNUMBER>
F2749-0247

> <Chemical_Name>
N-(4-chloro-3-nitrophenyl)-3-(1,1,3-trioxo-2,3-dihydro-1lambda6,2-benzothiazol-2-yl)propanamide

> <CAS>
899996-46-4

> <PriceCoeff>
1.00

> <MW>
409.80

> <Description>
solid

> <FSP3>
0.12

> <clogP>
2.77

> <TPSA>
135.07

> <Acceptor>
6

> <Donor>
1

> <RotBonds>
5

> <HAC>
27

> <Collection>
General

$$$$
F3023-0021
  -ISIS-  06222321152D

 29 31  0  0  0  0  0  0  0  0999 V2000
    6.7917   -6.6667    0.0000 N   0  0  3  0  0  0  0  0  0  0  0  0
    5.9667   -6.6750    0.0000 C   0  0  0  0  0  0  0  0  0  0  0  0
    5.4792   -6.0125    0.0000 C   0  0  0  0  0  0  0  0  0  0  0  0
    7.2792   -6.0000    0.0000 C   0  0  0  0  0  0  0  0  0  0  0  0
    7.2875   -7.3375    0.0000 C   0  0  0  0  0  0  0  0  0  0  0  0
    8.0667   -7.0750    0.0000 C   0  0  3  0  0  0  0  0  0  0  0  0
    5.4917   -7.3500    0.0000 S   0  0  0  0  0  0  0  0  0  0  0  0
    8.0667   -6.2500    0.0000 C   0  0  0  0  0  0  0  0  0  0  0  0
   10.1542   -7.7042    0.0000 C   0  0  0  0  0  0  0  0  0  0  0  0
    4.7000   -6.2750    0.0000 C   0  0  0  0  0  0  0  0  0  0  0  0
    5.7292   -5.2292    0.0000 C   0  0  0  0  0  0  0  0  0  0  0  0
    8.7375   -7.5542    0.0000 S   0  0  0  0  0  0  0  0  0  0  0  0
    9.4917   -7.2167    0.0000 C   0  0  0  0  0  0  0  0  0  0  0  0
    4.7042   -7.1000    0.0000 C   0  0  0  0  0  0  0  0  0  0  0  0
   10.0750   -8.5250    0.0000 C   0  0  0  0  0  0  0  0  0  0  0  0
    7.0167   -5.2167    0.0000 O   0  0  0  0  0  0  0  0  0  0  0  0
    7.0292   -8.1167    0.0000 O   0  0  0  0  0  0  0  0  0  0  0  0
    6.5417   -5.0500    0.0000 O   0  0  0  0  0  0  0  0  0  0  0  0
   10.7417   -9.0042    0.0000 O   0  0  0  0  0  0  0  0  0  0  0  0
    9.3167   -8.8625    0.0000 O   0  0  0  0  0  0  0  0  0  0  0  0
    5.1792   -4.6167    0.0000 O   0  0  0  0  0  0  0  0  0  0  0  0
   10.9125   -7.3667    0.0000 C   0  0  0  0  0  0  0  0  0  0  0  0
    4.0417   -7.5875    0.0000 C   0  0  0  0  0  0  0  0  0  0  0  0
    9.5667   -6.4042    0.0000 C   0  0  0  0  0  0  0  0  0  0  0  0
    5.4292   -3.8292    0.0000 C   0  0  0  0  0  0  0  0  0  0  0  0
    3.2792   -7.2542    0.0000 C   0  0  0  0  0  0  0  0  0  0  0  0
   10.9917   -6.5417    0.0000 C   0  0  0  0  0  0  0  0  0  0  0  0
   10.3167   -6.0625    0.0000 C   0  0  0  0  0  0  0  0  0  0  0  0
    2.6167   -7.7417    0.0000 C   0  0  0  0  0  0  0  0  0  0  0  0
  2  1  1  0  0  0  0
  3  2  2  0  0  0  0
  4  1  1  0  0  0  0
  5  1  1  0  0  0  0
  6  5  1  0  0  0  0
  7  2  1  0  0  0  0
  8  4  1  0  0  0  0
  9 13  2  0  0  0  0
 10  3  1  0  0  0  0
 11  3  1  0  0  0  0
 12  6  1  0  0  0  0
 13 12  1  0  0  0  0
 14  7  1  0  0  0  0
 15  9  1  0  0  0  0
 16  4  2  0  0  0  0
 17  5  2  0  0  0  0
 18 11  2  0  0  0  0
 19 15  2  0  0  0  0
 20 15  1  0  0  0  0
 21 11  1  0  0  0  0
 22  9  1  0  0  0  0
 23 14  1  0  0  0  0
 24 13  1  0  0  0  0
 25 21  1  0  0  0  0
 26 23  1  0  0  0  0
 27 28  1  0  0  0  0
 28 24  2  0  0  0  0
 29 26  1  0  0  0  0
  8  6  1  0  0  0  0
 14 10  2  0  0  0  0
 27 22  2  0  0  0  0
M  END
> <IDNUMBER>
F3023-0021

> <Chemical_Name>
2-({1-[3-(methoxycarbonyl)-5-propylthiophen-2-yl]-2,5-dioxopyrrolidin-3-yl}sulfanyl)benzoic acid

> <CAS>
924861-11-0

> <PriceCoeff>
1.00

> <MW>
433.50

> <Description>
solid

> <FSP3>
0.30

> <clogP>
3.85

> <TPSA>
154.52

> <Acceptor>
6

> <Donor>
0

> <RotBonds>
8

> <HAC>
29

> <Collection>
General

$$$$
F2049-0420
  -ISIS-  06222321452D

 28 31  0  0  0  0  0  0  0  0999 V2000
   -4.4833    6.6875    0.0000 N   0  0  3  0  0  0  0  0  0  0  0  0
   -5.2083    6.2667    0.0000 C   0  0  0  0  0  0  0  0  0  0  0  0
   -3.7583    6.2792    0.0000 C   0  0  0  0  0  0  0  0  0  0  0  0
   -3.7500    3.8000    0.0000 C   0  0  0  0  0  0  0  0  0  0  0  0
   -3.0375    4.2125    0.0000 N   0  0  0  0  0  0  0  0  0  0  0  0
   -3.7583    5.4500    0.0000 C   0  0  0  0  0  0  0  0  0  0  0  0
   -3.7583    2.9833    0.0000 C   0  0  0  0  0  0  0  0  0  0  0  0
   -3.0458    6.6917    0.0000 C   0  0  0  0  0  0  0  0  0  0  0  0
   -3.0375    5.0292    0.0000 C   0  0  0  0  0  0  0  0  0  0  0  0
   -5.1958    5.4375    0.0000 O   0  0  0  0  0  0  0  0  0  0  0  0
   -5.9208    6.6792    0.0000 C   0  0  0  0  0  0  0  0  0  0  0  0
   -4.4708    4.2042    0.0000 O   0  0  0  0  0  0  0  0  0  0  0  0
   -2.3250    6.2792    0.0000 C   0  0  0  0  0  0  0  0  0  0  0  0
   -3.0458    2.5583    0.0000 C   0  0  0  0  0  0  0  0  0  0  0  0
   -4.4708    2.5708    0.0000 C   0  0  0  0  0  0  0  0  0  0  0  0
   -4.4833    7.5167    0.0000 C   0  0  0  0  0  0  0  0  0  0  0  0
   -2.3250    5.4542    0.0000 C   0  0  0  0  0  0  0  0  0  0  0  0
   -3.7625    1.3208    0.0000 C   0  0  0  0  0  0  0  0  0  0  0  0
   -3.0458    1.7333    0.0000 C   0  0  0  0  0  0  0  0  0  0  0  0
   -4.4750    1.7375    0.0000 C   0  0  0  0  0  0  0  0  0  0  0  0
   -3.7708    0.4958    0.0000 Cl  0  0  0  0  0  0  0  0  0  0  0  0
   -3.7708    7.9292    0.0000 C   0  0  0  0  0  0  0  0  0  0  0  0
   -3.0500    7.5167    0.0000 C   0  0  0  0  0  0  0  0  0  0  0  0
   -5.9208    7.5042    0.0000 C   0  0  0  0  0  0  0  0  0  0  0  0
   -6.6167    6.2542    0.0000 C   0  0  0  0  0  0  0  0  0  0  0  0
   -7.3417    6.6667    0.0000 C   0  0  0  0  0  0  0  0  0  0  0  0
   -6.6292    7.9167    0.0000 C   0  0  0  0  0  0  0  0  0  0  0  0
   -7.3417    7.5042    0.0000 C   0  0  0  0  0  0  0  0  0  0  0  0
  2  1  1  0  0  0  0
  3  1  1  0  0  0  0
  4  5  1  0  0  0  0
  5  9  1  0  0  0  0
  6  3  1  0  0  0  0
  7  4  1  0  0  0  0
  8  3  2  0  0  0  0
  9  6  2  0  0  0  0
 10  2  2  0  0  0  0
 11  2  1  0  0  0  0
 12  4  2  0  0  0  0
 13  8  1  0  0  0  0
 14  7  1  0  0  0  0
 15  7  2  0  0  0  0
 16  1  1  0  0  0  0
 17 13  2  0  0  0  0
 18 20  2  0  0  0  0
 19 14  2  0  0  0  0
 20 15  1  0  0  0  0
 21 18  1  0  0  0  0
 22 16  1  0  0  0  0
 23 22  1  0  0  0  0
 24 11  2  0  0  0  0
 25 11  1  0  0  0  0
 26 25  2  0  0  0  0
 27 24  1  0  0  0  0
 28 26  1  0  0  0  0
 23  8  1  0  0  0  0
 17  9  1  0  0  0  0
 28 27  2  0  0  0  0
 18 19  1  0  0  0  0
M  END
> <IDNUMBER>
F2049-0420

> <Chemical_Name>
N-(1-benzoyl-1,2,3,4-tetrahydroquinolin-7-yl)-4-chlorobenzamide

> <CAS>
946320-72-5

> <PriceCoeff>
1.00

> <MW>
390.86

> <Description>
solid

> <FSP3>
0.13

> <clogP>
4.46

> <TPSA>
49.41

> <Acceptor>
2

> <Donor>
1

> <RotBonds>
4

> <HAC>
28

> <Collection>
General

> <Reference_compound>
CHEMBL2286415

> <Similarity>
0.8560

$$$$
F2040-0353
  -ISIS-  06222321142D

 28 31  0  0  0  0  0  0  0  0999 V2000
   -3.0333    7.5125    0.0000 N   0  0  3  0  0  0  0  0  0  0  0  0
   -3.7458    7.9292    0.0000 C   0  0  0  0  0  0  0  0  0  0  0  0
   -3.0333    6.6875    0.0000 C   0  0  0  0  0  0  0  0  0  0  0  0
   -3.7500    3.8000    0.0000 C   0  0  0  0  0  0  0  0  0  0  0  0
   -2.3208    6.2667    0.0000 C   0  0  0  0  0  0  0  0  0  0  0  0
   -3.0375    4.2125    0.0000 N   0  0  0  0  0  0  0  0  0  0  0  0
   -3.7458    6.2792    0.0000 C   0  0  0  0  0  0  0  0  0  0  0  0
   -3.7583    2.9833    0.0000 C   0  0  0  0  0  0  0  0  0  0  0  0
   -4.4583    7.5167    0.0000 O   0  0  0  0  0  0  0  0  0  0  0  0
   -3.0375    5.0292    0.0000 C   0  0  0  0  0  0  0  0  0  0  0  0
   -2.3208    5.4417    0.0000 C   0  0  0  0  0  0  0  0  0  0  0  0
   -3.7375    8.7500    0.0000 C   0  0  0  0  0  0  0  0  0  0  0  0
   -4.4708    4.2042    0.0000 O   0  0  0  0  0  0  0  0  0  0  0  0
   -3.0458    2.5583    0.0000 C   0  0  0  0  0  0  0  0  0  0  0  0
   -4.4708    2.5708    0.0000 C   0  0  0  0  0  0  0  0  0  0  0  0
   -2.3125    7.9167    0.0000 C   0  0  0  0  0  0  0  0  0  0  0  0
   -3.7583    5.4542    0.0000 C   0  0  0  0  0  0  0  0  0  0  0  0
   -3.7625    1.3208    0.0000 C   0  0  0  0  0  0  0  0  0  0  0  0
   -3.0458    1.7333    0.0000 C   0  0  0  0  0  0  0  0  0  0  0  0
   -4.4750    1.7375    0.0000 C   0  0  0  0  0  0  0  0  0  0  0  0
   -3.7708    0.4958    0.0000 Cl  0  0  0  0  0  0  0  0  0  0  0  0
   -1.6083    6.6792    0.0000 C   0  0  0  0  0  0  0  0  0  0  0  0
   -1.6000    7.5042    0.0000 C   0  0  0  0  0  0  0  0  0  0  0  0
   -4.4583    9.1542    0.0000 C   0  0  0  0  0  0  0  0  0  0  0  0
   -3.0208    9.1542    0.0000 C   0  0  0  0  0  0  0  0  0  0  0  0
   -3.0208    9.9792    0.0000 C   0  0  0  0  0  0  0  0  0  0  0  0
   -4.4583    9.9792    0.0000 C   0  0  0  0  0  0  0  0  0  0  0  0
   -3.7333   10.3917    0.0000 C   0  0  0  0  0  0  0  0  0  0  0  0
  2  1  1  0  0  0  0
  3  1  1  0  0  0  0
  4  6  1  0  0  0  0
  5  3  2  0  0  0  0
  6 10  1  0  0  0  0
  7  3  1  0  0  0  0
  8  4  1  0  0  0  0
  9  2  2  0  0  0  0
 10 17  1  0  0  0  0
 11  5  1  0  0  0  0
 12  2  1  0  0  0  0
 13  4  2  0  0  0  0
 14  8  1  0  0  0  0
 15  8  2  0  0  0  0
 16  1  1  0  0  0  0
 17  7  2  0  0  0  0
 18 20  2  0  0  0  0
 19 14  2  0  0  0  0
 20 15  1  0  0  0  0
 21 18  1  0  0  0  0
 22 23  1  0  0  0  0
 23 16  1  0  0  0  0
 24 12  1  0  0  0  0
 25 12  2  0  0  0  0
 26 25  1  0  0  0  0
 27 24  2  0  0  0  0
 28 26  2  0  0  0  0
 22  5  1  0  0  0  0
 11 10  2  0  0  0  0
 28 27  1  0  0  0  0
 18 19  1  0  0  0  0
M  END
> <IDNUMBER>
F2040-0353

> <Chemical_Name>
N-(1-benzoyl-1,2,3,4-tetrahydroquinolin-6-yl)-4-chlorobenzamide

> <CAS>
946318-26-9

> <PriceCoeff>
1.00

> <MW>
390.86

> <Description>
solid

> <FSP3>
0.13

> <clogP>
4.46

> <TPSA>
49.41

> <Acceptor>
2

> <Donor>
1

> <RotBonds>
4

> <HAC>
28

> <Collection>
General

> <Reference_compound>
CHEMBL2286415

> <Similarity>
0.8470

$$$$
F0808-0278
  -ISIS-  06222321142D

 21 22  0  0  0  0  0  0  0  0999 V2000
   -1.5833    0.4000    0.0000 S   0  0  3  0  0  0  0  0  0  0  0  0
   -0.8458    0.4000    0.0000 N   0  0  0  0  0  0  0  0  0  0  0  0
   -2.3333    0.4000    0.0000 C   0  0  0  0  0  0  0  0  0  0  0  0
   -1.5833   -0.3375    0.0000 O   0  0  0  0  0  0  0  0  0  0  0  0
   -1.5833    1.1500    0.0000 O   0  0  0  0  0  0  0  0  0  0  0  0
    0.6542   -0.8792    0.0000 C   0  0  0  0  0  0  0  0  0  0  0  0
    0.2792   -0.2375    0.0000 C   0  0  0  0  0  0  0  0  0  0  0  0
   -0.4625   -0.2375    0.0000 C   0  0  0  0  0  0  0  0  0  0  0  0
    0.2875   -1.5375    0.0000 C   0  0  0  0  0  0  0  0  0  0  0  0
   -3.8458    0.4000    0.0000 C   0  0  0  0  0  0  0  0  0  0  0  0
   -2.7125   -0.2375    0.0000 C   0  0  0  0  0  0  0  0  0  0  0  0
   -2.7125    1.0500    0.0000 C   0  0  0  0  0  0  0  0  0  0  0  0
   -3.4625   -0.2375    0.0000 C   0  0  0  0  0  0  0  0  0  0  0  0
   -3.4625    1.0500    0.0000 C   0  0  0  0  0  0  0  0  0  0  0  0
   -0.4500   -1.5375    0.0000 C   0  0  0  0  0  0  0  0  0  0  0  0
    1.4042   -0.8792    0.0000 Cl  0  0  0  0  0  0  0  0  0  0  0  0
   -0.8333   -0.8875    0.0000 C   0  0  0  0  0  0  0  0  0  0  0  0
   -4.6333    0.3833    0.0000 C   0  0  3  0  0  0  0  0  0  0  0  0
    0.6542   -2.1792    0.0000 O   0  0  0  0  0  0  0  0  0  0  0  0
   -5.0208    1.0208    0.0000 C   0  0  0  0  0  0  0  0  0  0  0  0
   -4.9958   -0.2667    0.0000 C   0  0  0  0  0  0  0  0  0  0  0  0
  2  1  1  0  0  0  0
  3  1  1  0  0  0  0
  4  1  2  0  0  0  0
  5  1  2  0  0  0  0
  6  7  1  0  0  0  0
  7  8  2  0  0  0  0
  8  2  1  0  0  0  0
  9 15  1  0  0  0  0
 10 14  1  0  0  0  0
 11  3  2  0  0  0  0
 12  3  1  0  0  0  0
 13 11  1  0  0  0  0
 14 12  2  0  0  0  0
 15 17  2  0  0  0  0
 16  6  1  0  0  0  0
 17  8  1  0  0  0  0
 18 10  1  0  0  0  0
 19  9  1  0  0  0  0
 20 18  1  0  0  0  0
 21 18  1  0  0  0  0
 13 10  2  0  0  0  0
  6  9  2  0  0  0  0
M  END
> <IDNUMBER>
F0808-0278

> <Chemical_Name>
N-(3-chloro-4-hydroxyphenyl)-4-(propan-2-yl)benzene-1-sulfonamide

> <CAS>
301314-34-1

> <PriceCoeff>
1.00

> <MW>
325.81

> <Description>
solid

> <FSP3>
0.20

> <clogP>
4.08

> <TPSA>
74.78

> <Acceptor>
4

> <Donor>
2

> <RotBonds>
4

> <HAC>
21

> <Collection>
General

$$$$
F1814-1627
  -ISIS-  06222321142D

 27 30  0  0  0  0  0  0  0  0999 V2000
   -4.5500    2.6083    0.0000 C   0  0  0  0  0  0  0  0  0  0  0  0
   -3.8625    3.0083    0.0000 N   0  0  0  0  0  0  0  0  0  0  0  0
   -4.6333    1.7833    0.0000 N   0  0  3  0  0  0  0  0  0  0  0  0
   -1.0083    5.4292    0.0000 N   0  0  3  0  0  0  0  0  0  0  0  0
   -5.3125    2.9458    0.0000 S   0  0  0  0  0  0  0  0  0  0  0  0
   -5.4583    1.6083    0.0000 C   0  0  0  0  0  0  0  0  0  0  0  0
   -5.8708    2.3333    0.0000 C   0  0  0  0  0  0  0  0  0  0  0  0
   -3.8708    3.8000    0.0000 C   0  0  0  0  0  0  0  0  0  0  0  0
   -0.2500    5.1292    0.0000 C   0  0  0  0  0  0  0  0  0  0  0  0
   -0.9583    6.2542    0.0000 C   0  0  0  0  0  0  0  0  0  0  0  0
   -1.7250    5.0250    0.0000 C   0  0  0  0  0  0  0  0  0  0  0  0
   -3.1583    4.2042    0.0000 C   0  0  0  0  0  0  0  0  0  0  0  0
   -5.8708    0.8833    0.0000 C   0  0  0  0  0  0  0  0  0  0  0  0
   -4.5583    4.1917    0.0000 O   0  0  0  0  0  0  0  0  0  0  0  0
    0.2750    5.7625    0.0000 C   0  0  0  0  0  0  0  0  0  0  0  0
   -0.1500    6.4542    0.0000 C   0  0  0  0  0  0  0  0  0  0  0  0
   -0.0458    4.3292    0.0000 O   0  0  0  0  0  0  0  0  0  0  0  0
   -1.5958    6.8042    0.0000 O   0  0  0  0  0  0  0  0  0  0  0  0
   -1.7375    4.2042    0.0000 C   0  0  0  0  0  0  0  0  0  0  0  0
   -2.4458    5.4417    0.0000 C   0  0  0  0  0  0  0  0  0  0  0  0
   -3.1583    5.0292    0.0000 C   0  0  0  0  0  0  0  0  0  0  0  0
   -2.4500    3.8083    0.0000 C   0  0  0  0  0  0  0  0  0  0  0  0
   -4.0500    1.2458    0.0000 C   0  0  0  0  0  0  0  0  0  0  0  0
   -5.4583    0.1833    0.0000 F   0  0  0  0  0  0  0  0  0  0  0  0
   -6.6917    2.3333    0.0000 C   0  0  0  0  0  0  0  0  0  0  0  0
   -7.1042    1.6083    0.0000 C   0  0  0  0  0  0  0  0  0  0  0  0
   -6.6875    0.8833    0.0000 C   0  0  0  0  0  0  0  0  0  0  0  0
  2  1  2  0  0  0  0
  3  1  1  0  0  0  0
  4 11  1  0  0  0  0
  5  1  1  0  0  0  0
  6  3  1  0  0  0  0
  7  5  1  0  0  0  0
  8  2  1  0  0  0  0
  9  4  1  0  0  0  0
 10  4  1  0  0  0  0
 11 19  2  0  0  0  0
 12  8  1  0  0  0  0
 13  6  1  0  0  0  0
 14  8  2  0  0  0  0
 15  9  1  0  0  0  0
 16 10  1  0  0  0  0
 17  9  2  0  0  0  0
 18 10  2  0  0  0  0
 19 22  1  0  0  0  0
 20 21  2  0  0  0  0
 21 12  1  0  0  0  0
 22 12  2  0  0  0  0
 23  3  1  0  0  0  0
 24 13  1  0  0  0  0
 25  7  1  0  0  0  0
 26 25  2  0  0  0  0
 27 13  2  0  0  0  0
  7  6  2  0  0  0  0
 27 26  1  0  0  0  0
 20 11  1  0  0  0  0
 16 15  1  0  0  0  0
M  END
> <IDNUMBER>
F1814-1627

> <Chemical_Name>
4-(2,5-dioxopyrrolidin-1-yl)-N-[(2Z)-4-fluoro-3-methyl-2,3-dihydro-1,3-benzothiazol-2-ylidene]benzamide

> <CAS>
868375-07-9

> <PriceCoeff>
1.00

> <MW>
383.40

> <Description>
solid

> <FSP3>
0.16

> <clogP>
3.09

> <TPSA>
95.35

> <Acceptor>
3

> <Donor>
0

> <RotBonds>
3

> <HAC>
27

> <Collection>
General

$$$$
F2750-0113
  -ISIS-  06222321442D

 27 29  0  0  0  0  0  0  0  0999 V2000
   -2.3625    1.8083    0.0000 S   0  0  3  0  0  0  0  0  0  0  0  0
   -1.8750    2.4833    0.0000 N   0  0  3  0  0  0  0  0  0  0  0  0
   -2.5208    3.1125    0.0000 C   0  0  0  0  0  0  0  0  0  0  0  0
   -3.1583    2.8958    0.0000 C   0  0  0  0  0  0  0  0  0  0  0  0
   -3.1583    2.0583    0.0000 C   0  0  0  0  0  0  0  0  0  0  0  0
   -1.0708    3.0458    0.0000 C   0  0  3  0  0  0  0  0  0  0  0  0
    2.4625    3.9583    0.0000 N   0  3  0  0  0  0  0  0  0  0  0  0
    2.1292    3.1958    0.0000 C   0  0  0  0  0  0  0  0  0  0  0  0
   -0.3333    2.9083    0.0000 C   0  0  0  0  0  0  0  0  0  0  0  0
   -3.0583    1.2875    0.0000 O   0  0  0  0  0  0  0  0  0  0  0  0
   -2.0458    1.0333    0.0000 O   0  0  0  0  0  0  0  0  0  0  0  0
    0.1625    2.2458    0.0000 N   0  0  0  0  0  0  0  0  0  0  0  0
    1.3042    3.1083    0.0000 C   0  0  0  0  0  0  0  0  0  0  0  0
   -2.7083    3.8000    0.0000 O   0  0  0  0  0  0  0  0  0  0  0  0
    2.6375    2.5333    0.0000 C   0  0  0  0  0  0  0  0  0  0  0  0
    3.2792    4.0417    0.0000 O   0  5  0  0  0  0  0  0  0  0  0  0
    1.9750    4.6167    0.0000 O   0  0  0  0  0  0  0  0  0  0  0  0
    0.9792    2.3375    0.0000 C   0  0  0  0  0  0  0  0  0  0  0  0
   -0.2458    3.7375    0.0000 O   0  0  0  0  0  0  0  0  0  0  0  0
    2.3042    1.7708    0.0000 C   0  0  0  0  0  0  0  0  0  0  0  0
   -3.8750    3.3083    0.0000 C   0  0  0  0  0  0  0  0  0  0  0  0
    1.4792    1.6708    0.0000 C   0  0  0  0  0  0  0  0  0  0  0  0
    3.4542    2.6333    0.0000 Cl  0  0  0  0  0  0  0  0  0  0  0  0
   -1.7375    3.6750    0.0000 C   0  0  0  0  0  0  0  0  0  0  0  0
   -3.8750    1.6458    0.0000 C   0  0  0  0  0  0  0  0  0  0  0  0
   -4.5833    2.8958    0.0000 C   0  0  0  0  0  0  0  0  0  0  0  0
   -4.5833    2.0625    0.0000 C   0  0  0  0  0  0  0  0  0  0  0  0
  2  1  1  0  0  0  0
  3  2  1  0  0  0  0
  4  5  2  0  0  0  0
  5  1  1  0  0  0  0
  6  2  1  0  0  0  0
  7  8  1  0  0  0  0
  8 13  2  0  0  0  0
  9  6  1  0  0  0  0
 10  1  2  0  0  0  0
 11  1  2  0  0  0  0
 12  9  1  0  0  0  0
 13 18  1  0  0  0  0
 14  3  2  0  0  0  0
 15 20  2  0  0  0  0
 16  7  1  0  0  0  0
 17  7  2  0  0  0  0
 18 12  1  0  0  0  0
 19  9  2  0  0  0  0
 20 22  1  0  0  0  0
 21  4  1  0  0  0  0
 22 18  2  0  0  0  0
 23 15  1  0  0  0  0
 24  6  1  0  0  0  0
 25  5  1  0  0  0  0
 26 27  1  0  0  0  0
 27 25  2  0  0  0  0
  3  4  1  0  0  0  0
 26 21  2  0  0  0  0
 15  8  1  0  0  0  0
M  CHG  2   7   1  16  -1
M  END
> <IDNUMBER>
F2750-0113

> <Chemical_Name>
N-(4-chloro-3-nitrophenyl)-2-(1,1,3-trioxo-2,3-dihydro-1lambda6,2-benzothiazol-2-yl)propanamide

> <CAS>
899758-40-8

> <PriceCoeff>
1.00

> <MW>
409.80

> <Description>
solid

> <FSP3>
0.12

> <clogP>
2.87

> <TPSA>
135.07

> <Acceptor>
6

> <Donor>
1

> <RotBonds>
4

> <HAC>
27

> <Collection>
General

$$$$
F2794-0084
  -ISIS-  06222321462D

 27 29  0  0  0  0  0  0  0  0999 V2000
   -3.7500    7.9375    0.0000 S   0  0  3  0  0  0  0  0  0  0  0  0
   -5.1583    1.2958    0.0000 N   0  3  0  0  0  0  0  0  0  0  0  0
   -4.4583    1.7333    0.0000 C   0  0  0  0  0  0  0  0  0  0  0  0
   -3.0375    7.5292    0.0000 N   0  0  3  0  0  0  0  0  0  0  0  0
   -3.7583    3.8000    0.0000 C   0  0  0  0  0  0  0  0  0  0  0  0
   -4.4583    2.5458    0.0000 C   0  0  0  0  0  0  0  0  0  0  0  0
   -3.7625    2.9833    0.0000 C   0  0  0  0  0  0  0  0  0  0  0  0
   -3.0458    4.2125    0.0000 N   0  0  0  0  0  0  0  0  0  0  0  0
   -3.7458    7.1042    0.0000 O   0  0  0  0  0  0  0  0  0  0  0  0
   -4.4583    8.3625    0.0000 O   0  0  0  0  0  0  0  0  0  0  0  0
   -3.0458    6.6917    0.0000 C   0  0  0  0  0  0  0  0  0  0  0  0
   -3.7250    1.3333    0.0000 C   0  0  0  0  0  0  0  0  0  0  0  0
   -5.1458    0.4708    0.0000 O   0  5  0  0  0  0  0  0  0  0  0  0
   -5.8833    1.7125    0.0000 O   0  0  0  0  0  0  0  0  0  0  0  0
   -4.4833    4.2042    0.0000 O   0  0  0  0  0  0  0  0  0  0  0  0
   -3.0333    2.5708    0.0000 C   0  0  0  0  0  0  0  0  0  0  0  0
   -3.7375    8.7667    0.0000 C   0  0  0  0  0  0  0  0  0  0  0  0
   -3.0125    1.7583    0.0000 C   0  0  0  0  0  0  0  0  0  0  0  0
   -3.7625    6.2792    0.0000 C   0  0  0  0  0  0  0  0  0  0  0  0
   -2.3208    6.2792    0.0000 C   0  0  0  0  0  0  0  0  0  0  0  0
   -3.0458    5.0292    0.0000 C   0  0  0  0  0  0  0  0  0  0  0  0
   -3.7208    0.4875    0.0000 Cl  0  0  0  0  0  0  0  0  0  0  0  0
   -2.3125    7.9292    0.0000 C   0  0  0  0  0  0  0  0  0  0  0  0
   -2.3250    5.4500    0.0000 C   0  0  0  0  0  0  0  0  0  0  0  0
   -3.7625    5.4542    0.0000 C   0  0  0  0  0  0  0  0  0  0  0  0
   -3.0208    9.1792    0.0000 C   0  0  0  0  0  0  0  0  0  0  0  0
   -2.3083    8.7542    0.0000 C   0  0  0  0  0  0  0  0  0  0  0  0
  2  3  1  0  0  0  0
  3  6  1  0  0  0  0
  4  1  1  0  0  0  0
  5  8  1  0  0  0  0
  6  7  2  0  0  0  0
  7  5  1  0  0  0  0
  8 21  1  0  0  0  0
  9  1  2  0  0  0  0
 10  1  2  0  0  0  0
 11  4  1  0  0  0  0
 12 18  1  0  0  0  0
 13  2  1  0  0  0  0
 14  2  2  0  0  0  0
 15  5  2  0  0  0  0
 16  7  1  0  0  0  0
 17  1  1  0  0  0  0
 18 16  2  0  0  0  0
 19 11  1  0  0  0  0
 20 11  2  0  0  0  0
 21 24  2  0  0  0  0
 22 12  1  0  0  0  0
 23  4  1  0  0  0  0
 24 20  1  0  0  0  0
 25 19  2  0  0  0  0
 26 17  1  0  0  0  0
 27 26  1  0  0  0  0
 23 27  1  0  0  0  0
 25 21  1  0  0  0  0
 12  3  2  0  0  0  0
M  CHG  2   2   1  13  -1
M  END
> <IDNUMBER>
F2794-0084

> <Chemical_Name>
4-chloro-N-[4-(1,1-dioxo-1lambda6,2-thiazinan-2-yl)phenyl]-3-nitrobenzamide

> <CAS>
899976-24-0

> <PriceCoeff>
1.00

> <MW>
409.84

> <Description>
solid

> <FSP3>
0.24

> <clogP>
2.97

> <TPSA>
118.00

> <Acceptor>
6

> <Donor>
1

> <RotBonds>
4

> <HAC>
27

> <Collection>
General

$$$$
F0328-0304
  -ISIS-  06222321452D

 25 27  0  0  0  0  0  0  0  0999 V2000
   -2.6625    0.6708    0.0000 N   0  0  3  0  0  0  0  0  0  0  0  0
   -2.1000   -0.1042    0.0000 C   0  0  0  0  0  0  0  0  0  0  0  0
   -2.1000    1.4333    0.0000 C   0  0  0  0  0  0  0  0  0  0  0  0
    2.1292   -1.7292    0.0000 C   0  0  0  0  0  0  0  0  0  0  0  0
   -1.2000    0.1708    0.0000 C   0  0  0  0  0  0  0  0  0  0  0  0
   -1.2000    1.1500    0.0000 C   0  0  0  0  0  0  0  0  0  0  0  0
    1.3042   -3.1542    0.0000 N   0  3  0  0  0  0  0  0  0  0  0  0
    1.3167   -1.2500    0.0000 C   0  0  0  0  0  0  0  0  0  0  0  0
    2.1292   -2.6875    0.0000 C   0  0  0  0  0  0  0  0  0  0  0  0
    1.3292   -0.3500    0.0000 N   0  0  0  0  0  0  0  0  0  0  0  0
   -0.3625    1.6333    0.0000 C   0  0  0  0  0  0  0  0  0  0  0  0
   -0.3625   -0.3042    0.0000 C   0  0  0  0  0  0  0  0  0  0  0  0
    2.9792   -3.1667    0.0000 C   0  0  0  0  0  0  0  0  0  0  0  0
    2.9792   -1.2500    0.0000 C   0  0  0  0  0  0  0  0  0  0  0  0
    0.4375   -2.7542    0.0000 O   0  5  0  0  0  0  0  0  0  0  0  0
   -2.4000   -1.0000    0.0000 O   0  0  0  0  0  0  0  0  0  0  0  0
   -2.4208    2.3625    0.0000 O   0  0  0  0  0  0  0  0  0  0  0  0
    1.3042   -4.1542    0.0000 O   0  0  0  0  0  0  0  0  0  0  0  0
    0.4542    0.1708    0.0000 C   0  0  0  0  0  0  0  0  0  0  0  0
    0.4792   -1.7292    0.0000 O   0  0  0  0  0  0  0  0  0  0  0  0
   -3.6000    0.6708    0.0000 C   0  0  0  0  0  0  0  0  0  0  0  0
    3.8167   -1.7292    0.0000 C   0  0  0  0  0  0  0  0  0  0  0  0
    0.4542    1.1500    0.0000 C   0  0  0  0  0  0  0  0  0  0  0  0
    3.8167   -2.6875    0.0000 C   0  0  0  0  0  0  0  0  0  0  0  0
    4.6792   -1.2500    0.0000 Cl  0  0  0  0  0  0  0  0  0  0  0  0
  2  1  1  0  0  0  0
  3  1  1  0  0  0  0
  4  8  1  0  0  0  0
  5  2  1  0  0  0  0
  6  3  1  0  0  0  0
  7  9  1  0  0  0  0
  8 10  1  0  0  0  0
  9  4  1  0  0  0  0
 10 19  1  0  0  0  0
 11  6  1  0  0  0  0
 12  5  1  0  0  0  0
 13  9  2  0  0  0  0
 14  4  2  0  0  0  0
 15  7  1  0  0  0  0
 16  2  2  0  0  0  0
 17  3  2  0  0  0  0
 18  7  2  0  0  0  0
 19 12  2  0  0  0  0
 20  8  2  0  0  0  0
 21  1  1  0  0  0  0
 22 14  1  0  0  0  0
 23 11  2  0  0  0  0
 24 22  2  0  0  0  0
 25 22  1  0  0  0  0
  6  5  2  0  0  0  0
 23 19  1  0  0  0  0
 24 13  1  0  0  0  0
M  CHG  2   7   1  15  -1
M  END
> <IDNUMBER>
F0328-0304

> <Chemical_Name>
5-chloro-N-(2-methyl-1,3-dioxo-2,3-dihydro-1H-isoindol-5-yl)-2-nitrobenzamide

> <CAS>
330201-35-9

> <PriceCoeff>
1.00

> <MW>
359.72

> <Description>
solid

> <FSP3>
0.06

> <clogP>
2.22

> <TPSA>
109.62

> <Acceptor>
5

> <Donor>
1

> <RotBonds>
3

> <HAC>
25

> <Collection>
General

> <Reference_compound>
CHEMBL2287471

> <Similarity>
0.8460

$$$$
F1814-1143
  -ISIS-  06222321442D

 23 25  0  0  0  0  0  0  0  0999 V2000
   -5.2833    2.1875    0.0000 C   0  0  0  0  0  0  0  0  0  0  0  0
   -3.8708    4.6292    0.0000 N   0  0  3  0  0  0  0  0  0  0  0  0
   -5.3583    1.3500    0.0000 N   0  0  3  0  0  0  0  0  0  0  0  0
   -4.5833    2.5958    0.0000 N   0  0  0  0  0  0  0  0  0  0  0  0
   -6.0292    2.5208    0.0000 S   0  0  0  0  0  0  0  0  0  0  0  0
   -6.1792    1.1708    0.0000 C   0  0  0  0  0  0  0  0  0  0  0  0
   -6.5917    1.8958    0.0000 C   0  0  0  0  0  0  0  0  0  0  0  0
   -6.5917    0.4500    0.0000 C   0  0  0  0  0  0  0  0  0  0  0  0
   -4.5333    5.1042    0.0000 C   0  0  0  0  0  0  0  0  0  0  0  0
   -3.2000    5.1042    0.0000 C   0  0  0  0  0  0  0  0  0  0  0  0
   -4.5833    3.3958    0.0000 C   0  0  0  0  0  0  0  0  0  0  0  0
   -3.8708    3.8000    0.0000 C   0  0  0  0  0  0  0  0  0  0  0  0
   -7.4417    1.8958    0.0000 C   0  0  0  0  0  0  0  0  0  0  0  0
   -7.4375    0.4458    0.0000 C   0  0  0  0  0  0  0  0  0  0  0  0
   -7.8542    1.1708    0.0000 C   0  0  0  0  0  0  0  0  0  0  0  0
   -3.4583    5.9000    0.0000 C   0  0  0  0  0  0  0  0  0  0  0  0
   -4.2833    5.8917    0.0000 C   0  0  0  0  0  0  0  0  0  0  0  0
   -2.4125    4.8417    0.0000 O   0  0  0  0  0  0  0  0  0  0  0  0
   -5.3208    4.8542    0.0000 O   0  0  0  0  0  0  0  0  0  0  0  0
   -5.2833    3.7958    0.0000 O   0  0  0  0  0  0  0  0  0  0  0  0
   -6.1792   -0.2542    0.0000 Cl  0  0  0  0  0  0  0  0  0  0  0  0
   -4.7708    0.8083    0.0000 C   0  0  0  0  0  0  0  0  0  0  0  0
   -8.6542    1.1625    0.0000 Cl  0  0  0  0  0  0  0  0  0  0  0  0
  2 12  1  0  0  0  0
  3  1  1  0  0  0  0
  4  1  2  0  0  0  0
  5  1  1  0  0  0  0
  6  3  1  0  0  0  0
  7  5  1  0  0  0  0
  8  6  1  0  0  0  0
  9  2  1  0  0  0  0
 10  2  1  0  0  0  0
 11  4  1  0  0  0  0
 12 11  1  0  0  0  0
 13  7  1  0  0  0  0
 14  8  2  0  0  0  0
 15 13  2  0  0  0  0
 16 10  1  0  0  0  0
 17  9  1  0  0  0  0
 18 10  2  0  0  0  0
 19  9  2  0  0  0  0
 20 11  2  0  0  0  0
 21  8  1  0  0  0  0
 22  3  1  0  0  0  0
 23 15  1  0  0  0  0
  6  7  2  0  0  0  0
 15 14  1  0  0  0  0
 16 17  1  0  0  0  0
M  END
> <IDNUMBER>
F1814-1143

> <Chemical_Name>
N-[(2Z)-4,6-dichloro-3-methyl-2,3-dihydro-1,3-benzothiazol-2-ylidene]-2-(2,5-dioxopyrrolidin-1-yl)acetamide

> <CAS>
868370-69-8

> <PriceCoeff>
1.00

> <MW>
372.23

> <Description>
solid

> <FSP3>
0.29

> <clogP>
4.20

> <TPSA>
95.35

> <Acceptor>
3

> <Donor>
0

> <RotBonds>
3

> <HAC>
23

> <Collection>
General

$$$$
F0348-3117
  -ISIS-  06222321452D

 20 22  0  0  0  0  0  0  0  0999 V2000
    1.2000    1.3208    0.0000 C   0  0  0  0  0  0  0  0  0  0  0  0
    1.2000    2.7208    0.0000 C   0  0  0  0  0  0  0  0  0  0  0  0
    2.3667    0.6333    0.0000 C   0  0  0  0  0  0  0  0  0  0  0  0
    2.4000   -0.7542    0.0000 O   0  0  0  0  0  0  0  0  0  0  0  0
    0.0000    3.4333    0.0000 O   0  0  0  0  0  0  0  0  0  0  0  0
    1.2000   -1.4667    0.0000 C   0  0  0  0  0  0  0  0  0  0  0  0
   -1.2125    2.7708    0.0000 C   0  0  0  0  0  0  0  0  0  0  0  0
    3.6000    2.7208    0.0000 C   0  0  0  0  0  0  0  0  0  0  0  0
    3.6000    1.3458    0.0000 C   0  0  0  0  0  0  0  0  0  0  0  0
    2.3667    3.4208    0.0000 C   0  0  0  0  0  0  0  0  0  0  0  0
    0.0042   -0.7792    0.0000 C   0  0  0  0  0  0  0  0  0  0  0  0
   -1.2333    1.3625    0.0000 C   0  0  0  0  0  0  0  0  0  0  0  0
    1.2000   -2.8667    0.0000 C   0  0  0  0  0  0  0  0  0  0  0  0
   -2.3958    3.4625    0.0000 C   0  0  0  0  0  0  0  0  0  0  0  0
   -1.1958   -1.4667    0.0000 C   0  0  0  0  0  0  0  0  0  0  0  0
    0.0042   -3.5542    0.0000 C   0  0  0  0  0  0  0  0  0  0  0  0
   -2.4125    0.6708    0.0000 C   0  0  0  0  0  0  0  0  0  0  0  0
   -3.6000    2.7708    0.0000 C   0  0  0  0  0  0  0  0  0  0  0  0
   -1.1958   -2.8500    0.0000 C   0  0  0  0  0  0  0  0  0  0  0  0
   -3.6208    1.3958    0.0000 C   0  0  0  0  0  0  0  0  0  0  0  0
  2  1  1  0  0  0  0
  3  1  2  0  0  0  0
  4  3  1  0  0  0  0
  5  2  1  0  0  0  0
  6  4  1  0  0  0  0
  7  5  1  0  0  0  0
  8  9  2  0  0  0  0
  9  3  1  0  0  0  0
 10  2  2  0  0  0  0
 11  6  1  0  0  0  0
 12  7  1  0  0  0  0
 13  6  2  0  0  0  0
 14  7  2  0  0  0  0
 15 11  2  0  0  0  0
 16 13  1  0  0  0  0
 17 12  2  0  0  0  0
 18 14  1  0  0  0  0
 19 16  2  0  0  0  0
 20 18  2  0  0  0  0
 10  8  1  0  0  0  0
 19 15  1  0  0  0  0
 17 20  1  0  0  0  0
M  END
> <IDNUMBER>
F0348-3117

> <Chemical_Name>
1,3-diphenoxybenzene

> <CAS>
3379-38-2

> <PriceCoeff>
1.00

> <MW>
262.30

> <Description>
solid

> <FSP3>
0.00

> <clogP>
6.34

> <TPSA>
18.46

> <Acceptor>
2

> <Donor>
0

> <RotBonds>
4

> <HAC>
20

> <Collection>
General

> <Reference_compound>
CHEMBL2252486

> <Similarity>
0.8040

$$$$
F9995-2547
  -ISIS-  06222321162D

 31 33  0  0  0  0  0  0  0  0999 V2000
    8.8750   -8.3292    0.0000 C   0  0  0  0  0  0  0  0  0  0  0  0
    9.6625   -8.5375    0.0000 C   0  0  3  0  0  0  0  0  0  0  0  0
    6.8708   -6.3375    0.0000 C   0  0  0  0  0  0  0  0  0  0  0  0
    1.5750   -5.6583    0.0000 C   0  0  0  0  0  0  0  0  0  0  0  0
    0.7750   -5.4500    0.0000 C   0  0  0  0  0  0  0  0  0  0  0  0
    7.6625   -6.5500    0.0000 N   0  0  0  0  0  0  0  0  0  0  0  0
    2.1542   -5.0750    0.0000 C   0  0  0  0  0  0  0  0  0  0  0  0
    8.2958   -8.9125    0.0000 C   0  0  0  0  0  0  0  0  0  0  0  0
    6.6625   -5.5500    0.0000 N   0  0  0  0  0  0  0  0  0  0  0  0
    8.6583   -7.5458    0.0000 C   0  0  0  0  0  0  0  0  0  0  0  0
    1.7917   -6.4458    0.0000 N   0  0  0  0  0  0  0  0  0  0  0  0
    2.9417   -5.2875    0.0000 C   0  0  0  0  0  0  0  0  0  0  0  0
    7.8708   -7.3417    0.0000 C   0  0  0  0  0  0  0  0  0  0  0  0
    6.2958   -6.9208    0.0000 O   0  0  0  0  0  0  0  0  0  0  0  0
    0.1958   -6.0375    0.0000 O   0  0  0  0  0  0  0  0  0  0  0  0
    3.5167   -4.7083    0.0000 O   0  0  0  0  0  0  0  0  0  0  0  0
   10.3500   -8.0375    0.0000 F   0  0  0  0  0  0  0  0  0  0  0  0
   10.3792   -8.7250    0.0000 F   0  0  0  0  0  0  0  0  0  0  0  0
   10.0125   -9.3125    0.0000 F   0  0  0  0  0  0  0  0  0  0  0  0
    7.5083   -8.7042    0.0000 C   0  0  0  0  0  0  0  0  0  0  0  0
    5.8708   -5.3417    0.0000 C   0  0  0  0  0  0  0  0  0  0  0  0
    4.3042   -4.9208    0.0000 C   0  0  0  0  0  0  0  0  0  0  0  0
    0.5583   -4.6542    0.0000 O   0  0  0  0  0  0  0  0  0  0  0  0
    2.5750   -6.6500    0.0000 C   0  0  0  0  0  0  0  0  0  0  0  0
    7.2958   -7.9167    0.0000 C   0  0  0  0  0  0  0  0  0  0  0  0
    8.5083   -9.7000    0.0000 Cl  0  0  0  0  0  0  0  0  0  0  0  0
    3.1542   -6.0750    0.0000 C   0  0  0  0  0  0  0  0  0  0  0  0
    5.2958   -5.9208    0.0000 C   0  0  0  0  0  0  0  0  0  0  0  0
    5.6583   -4.5500    0.0000 C   0  0  0  0  0  0  0  0  0  0  0  0
    4.5125   -5.7083    0.0000 C   0  0  0  0  0  0  0  0  0  0  0  0
    4.8708   -4.3417    0.0000 C   0  0  0  0  0  0  0  0  0  0  0  0
  2  1  1  0  0  0  0
  3  6  1  0  0  0  0
  4  7  1  0  0  0  0
  5  4  1  0  0  0  0
  6 13  1  0  0  0  0
  7 12  2  0  0  0  0
  8  1  1  0  0  0  0
  9  3  1  0  0  0  0
 10  1  2  0  0  0  0
 11 24  1  0  0  0  0
 12 16  1  0  0  0  0
 13 10  1  0  0  0  0
 14  3  2  0  0  0  0
 15  5  2  0  0  0  0
 16 22  1  0  0  0  0
 17  2  1  0  0  0  0
 18  2  1  0  0  0  0
 19  2  1  0  0  0  0
 20  8  2  0  0  0  0
 21  9  1  0  0  0  0
 22 31  1  0  0  0  0
 23  5  1  0  0  0  0
 24 27  2  0  0  0  0
 25 13  2  0  0  0  0
 26  8  1  0  0  0  0
 27 12  1  0  0  0  0
 28 21  2  0  0  0  0
 29 21  1  0  0  0  0
 30 28  1  0  0  0  0
 31 29  2  0  0  0  0
 20 25  1  0  0  0  0
 30 22  2  0  0  0  0
 11  4  2  0  0  0  0
M  END
> <IDNUMBER>
F9995-2547

> <Chemical_Name>
4-[4-({[4-chloro-3-(trifluoromethyl)phenyl]carbamoyl}amino)phenoxy]pyridine-2-carboxylic acid

> <CAS>
1012058-78-4

> <PriceCoeff>
1.00

> <MW>
451.79

> <Description>
solid

> <FSP3>
0.05

> <clogP>
6.00

> <TPSA>
100.55

> <Acceptor>
5

> <Donor>
3

> <RotBonds>
5

> <HAC>
31

> <Collection>
General

> <Reference_compound>
CHEMBL1336

> <Similarity>
0.8050

$$$$
F0834-1075
  -ISIS-  06222321452D

 27 30  0  0  0  0  0  0  0  0999 V2000
   -3.8708    2.9833    0.0000 C   0  0  0  0  0  0  0  0  0  0  0  0
   -3.8708    3.8000    0.0000 N   0  0  0  0  0  0  0  0  0  0  0  0
   -1.7333    6.6667    0.0000 N   0  0  3  0  0  0  0  0  0  0  0  0
   -3.1833    2.5208    0.0000 N   0  0  3  0  0  0  0  0  0  0  0  0
   -4.5333    2.5208    0.0000 S   0  0  0  0  0  0  0  0  0  0  0  0
   -4.2708    1.7333    0.0000 C   0  0  0  0  0  0  0  0  0  0  0  0
   -3.4333    1.7333    0.0000 C   0  0  0  0  0  0  0  0  0  0  0  0
   -3.1583    4.2042    0.0000 C   0  0  0  0  0  0  0  0  0  0  0  0
   -2.4458    6.2542    0.0000 C   0  0  0  0  0  0  0  0  0  0  0  0
   -0.9875    6.3417    0.0000 C   0  0  0  0  0  0  0  0  0  0  0  0
   -1.6333    7.4667    0.0000 C   0  0  0  0  0  0  0  0  0  0  0  0
   -2.4500    5.4292    0.0000 C   0  0  0  0  0  0  0  0  0  0  0  0
   -3.1583    5.0250    0.0000 C   0  0  0  0  0  0  0  0  0  0  0  0
   -4.6875    1.0250    0.0000 C   0  0  0  0  0  0  0  0  0  0  0  0
   -3.0333    1.0250    0.0000 C   0  0  0  0  0  0  0  0  0  0  0  0
   -2.4458    3.7958    0.0000 O   0  0  0  0  0  0  0  0  0  0  0  0
   -0.4500    6.9500    0.0000 C   0  0  0  0  0  0  0  0  0  0  0  0
   -0.8458    7.6375    0.0000 C   0  0  0  0  0  0  0  0  0  0  0  0
   -0.7625    5.5000    0.0000 O   0  0  0  0  0  0  0  0  0  0  0  0
   -2.2583    8.0667    0.0000 O   0  0  0  0  0  0  0  0  0  0  0  0
   -4.2708    0.3208    0.0000 C   0  0  0  0  0  0  0  0  0  0  0  0
   -3.4333    0.3208    0.0000 C   0  0  0  0  0  0  0  0  0  0  0  0
   -2.3958    2.7708    0.0000 C   0  0  0  0  0  0  0  0  0  0  0  0
   -4.7083   -0.4042    0.0000 F   0  0  0  0  0  0  0  0  0  0  0  0
   -3.1583    6.6750    0.0000 C   0  0  0  0  0  0  0  0  0  0  0  0
   -3.8708    5.4292    0.0000 C   0  0  0  0  0  0  0  0  0  0  0  0
   -3.8708    6.2542    0.0000 C   0  0  0  0  0  0  0  0  0  0  0  0
  2  1  2  0  0  0  0
  3  9  1  0  0  0  0
  4  1  1  0  0  0  0
  5  1  1  0  0  0  0
  6  5  1  0  0  0  0
  7  4  1  0  0  0  0
  8  2  1  0  0  0  0
  9 12  1  0  0  0  0
 10  3  1  0  0  0  0
 11  3  1  0  0  0  0
 12 13  2  0  0  0  0
 13  8  1  0  0  0  0
 14  6  1  0  0  0  0
 15  7  1  0  0  0  0
 16  8  2  0  0  0  0
 17 10  1  0  0  0  0
 18 11  1  0  0  0  0
 19 10  2  0  0  0  0
 20 11  2  0  0  0  0
 21 14  2  0  0  0  0
 22 15  2  0  0  0  0
 23  4  1  0  0  0  0
 24 21  1  0  0  0  0
 25 27  1  0  0  0  0
 26 13  1  0  0  0  0
 27 26  2  0  0  0  0
  6  7  2  0  0  0  0
 21 22  1  0  0  0  0
 25  9  2  0  0  0  0
 18 17  1  0  0  0  0
M  END
> <IDNUMBER>
F0834-1075

> <Chemical_Name>
3-(2,5-dioxopyrrolidin-1-yl)-N-[(2E)-6-fluoro-3-methyl-2,3-dihydro-1,3-benzothiazol-2-ylidene]benzamide

> <CAS>
477295-08-2

> <PriceCoeff>
1.00

> <MW>
383.40

> <Description>
solid

> <FSP3>
0.16

> <clogP>
3.09

> <TPSA>
95.35

> <Acceptor>
3

> <Donor>
0

> <RotBonds>
3

> <HAC>
27

> <Collection>
General

$$$$
F1814-1675
  -ISIS-  06222321142D

 27 30  0  0  0  0  0  0  0  0999 V2000
   -4.5500    2.6083    0.0000 C   0  0  0  0  0  0  0  0  0  0  0  0
   -3.8625    3.0083    0.0000 N   0  0  0  0  0  0  0  0  0  0  0  0
   -4.6333    1.7833    0.0000 N   0  0  3  0  0  0  0  0  0  0  0  0
   -1.0208    3.8000    0.0000 N   0  0  3  0  0  0  0  0  0  0  0  0
   -5.3125    2.9458    0.0000 S   0  0  0  0  0  0  0  0  0  0  0  0
   -5.4583    1.6083    0.0000 C   0  0  0  0  0  0  0  0  0  0  0  0
   -5.8708    2.3333    0.0000 C   0  0  0  0  0  0  0  0  0  0  0  0
   -3.8708    3.8000    0.0000 C   0  0  0  0  0  0  0  0  0  0  0  0
   -1.7333    4.2042    0.0000 C   0  0  0  0  0  0  0  0  0  0  0  0
   -0.9708    2.9833    0.0000 C   0  0  0  0  0  0  0  0  0  0  0  0
   -0.2583    4.0917    0.0000 C   0  0  0  0  0  0  0  0  0  0  0  0
   -2.4458    3.8083    0.0000 C   0  0  0  0  0  0  0  0  0  0  0  0
   -3.1583    4.2042    0.0000 C   0  0  0  0  0  0  0  0  0  0  0  0
   -5.8708    0.8833    0.0000 C   0  0  0  0  0  0  0  0  0  0  0  0
   -4.5583    4.1917    0.0000 O   0  0  0  0  0  0  0  0  0  0  0  0
   -0.1583    2.7833    0.0000 C   0  0  0  0  0  0  0  0  0  0  0  0
    0.2750    3.4708    0.0000 C   0  0  0  0  0  0  0  0  0  0  0  0
   -1.6083    2.4583    0.0000 O   0  0  0  0  0  0  0  0  0  0  0  0
   -0.0375    4.8875    0.0000 O   0  0  0  0  0  0  0  0  0  0  0  0
   -4.0500    1.2458    0.0000 C   0  0  0  0  0  0  0  0  0  0  0  0
   -5.4583    0.1833    0.0000 F   0  0  0  0  0  0  0  0  0  0  0  0
   -6.6917    2.3333    0.0000 C   0  0  0  0  0  0  0  0  0  0  0  0
   -1.7250    5.0292    0.0000 C   0  0  0  0  0  0  0  0  0  0  0  0
   -3.1583    5.0292    0.0000 C   0  0  0  0  0  0  0  0  0  0  0  0
   -2.4375    5.4417    0.0000 C   0  0  0  0  0  0  0  0  0  0  0  0
   -7.1042    1.6083    0.0000 C   0  0  0  0  0  0  0  0  0  0  0  0
   -6.6875    0.8833    0.0000 C   0  0  0  0  0  0  0  0  0  0  0  0
  2  1  2  0  0  0  0
  3  1  1  0  0  0  0
  4  9  1  0  0  0  0
  5  1  1  0  0  0  0
  6  3  1  0  0  0  0
  7  5  1  0  0  0  0
  8  2  1  0  0  0  0
  9 12  1  0  0  0  0
 10  4  1  0  0  0  0
 11  4  1  0  0  0  0
 12 13  2  0  0  0  0
 13  8  1  0  0  0  0
 14  6  1  0  0  0  0
 15  8  2  0  0  0  0
 16 10  1  0  0  0  0
 17 11  1  0  0  0  0
 18 10  2  0  0  0  0
 19 11  2  0  0  0  0
 20  3  1  0  0  0  0
 21 14  1  0  0  0  0
 22  7  1  0  0  0  0
 23 25  1  0  0  0  0
 24 13  1  0  0  0  0
 25 24  2  0  0  0  0
 26 22  2  0  0  0  0
 27 14  2  0  0  0  0
  7  6  2  0  0  0  0
 27 26  1  0  0  0  0
  9 23  2  0  0  0  0
 17 16  1  0  0  0  0
M  END
> <IDNUMBER>
F1814-1675

> <Chemical_Name>
3-(2,5-dioxopyrrolidin-1-yl)-N-[(2Z)-4-fluoro-3-methyl-2,3-dihydro-1,3-benzothiazol-2-ylidene]benzamide

> <CAS>
868375-24-0

> <PriceCoeff>
1.00

> <MW>
383.40

> <Description>
solid

> <FSP3>
0.16

> <clogP>
3.09

> <TPSA>
95.35

> <Acceptor>
3

> <Donor>
0

> <RotBonds>
3

> <HAC>
27

> <Collection>
General

$$$$
F0466-0014
  -ISIS-  06222321452D

 27 30  0  0  0  0  0  0  0  0999 V2000
   -2.8208   -1.6000    0.0000 C   0  0  0  0  0  0  0  0  0  0  0  0
   -2.1833   -1.6500    0.0000 N   0  0  0  0  0  0  0  0  0  0  0  0
    0.0292   -1.2000    0.0000 N   0  0  3  0  0  0  0  0  0  0  0  0
   -3.1833   -2.1000    0.0000 N   0  0  3  0  0  0  0  0  0  0  0  0
   -3.1833   -1.0792    0.0000 S   0  0  0  0  0  0  0  0  0  0  0  0
   -3.7625   -1.2792    0.0000 C   0  0  0  0  0  0  0  0  0  0  0  0
   -3.7625   -1.9000    0.0000 C   0  0  0  0  0  0  0  0  0  0  0  0
   -1.9083   -2.1792    0.0000 C   0  0  0  0  0  0  0  0  0  0  0  0
   -0.3208   -1.7167    0.0000 C   0  0  0  0  0  0  0  0  0  0  0  0
    0.6500   -1.2500    0.0000 C   0  0  0  0  0  0  0  0  0  0  0  0
   -0.1458   -0.6000    0.0000 C   0  0  0  0  0  0  0  0  0  0  0  0
   -0.9458   -1.6792    0.0000 C   0  0  0  0  0  0  0  0  0  0  0  0
   -1.2833   -2.2167    0.0000 C   0  0  0  0  0  0  0  0  0  0  0  0
   -4.3000   -2.2167    0.0000 C   0  0  0  0  0  0  0  0  0  0  0  0
   -4.3000   -0.9542    0.0000 C   0  0  0  0  0  0  0  0  0  0  0  0
   -2.2208   -2.7167    0.0000 O   0  0  0  0  0  0  0  0  0  0  0  0
    0.8667   -0.6542    0.0000 C   0  0  0  0  0  0  0  0  0  0  0  0
    0.4042   -0.2542    0.0000 C   0  0  0  0  0  0  0  0  0  0  0  0
   -0.7208   -0.3542    0.0000 O   0  0  0  0  0  0  0  0  0  0  0  0
    1.0000   -1.7792    0.0000 O   0  0  0  0  0  0  0  0  0  0  0  0
   -2.9625   -2.7000    0.0000 C   0  0  0  0  0  0  0  0  0  0  0  0
   -4.8458   -1.9000    0.0000 C   0  0  0  0  0  0  0  0  0  0  0  0
   -4.8458   -1.2792    0.0000 C   0  0  0  0  0  0  0  0  0  0  0  0
   -0.0458   -2.2542    0.0000 C   0  0  0  0  0  0  0  0  0  0  0  0
   -0.9833   -2.7542    0.0000 C   0  0  0  0  0  0  0  0  0  0  0  0
   -0.3625   -2.8000    0.0000 C   0  0  0  0  0  0  0  0  0  0  0  0
   -5.3833   -0.9542    0.0000 C   0  0  0  0  0  0  0  0  0  0  0  0
  2  1  2  0  0  0  0
  3  9  1  0  0  0  0
  4  1  1  0  0  0  0
  5  1  1  0  0  0  0
  6  5  1  0  0  0  0
  7  4  1  0  0  0  0
  8  2  1  0  0  0  0
  9 12  2  0  0  0  0
 10  3  1  0  0  0  0
 11  3  1  0  0  0  0
 12 13  1  0  0  0  0
 13  8  1  0  0  0  0
 14  7  1  0  0  0  0
 15  6  1  0  0  0  0
 16  8  2  0  0  0  0
 17 10  1  0  0  0  0
 18 11  1  0  0  0  0
 19 11  2  0  0  0  0
 20 10  2  0  0  0  0
 21  4  1  0  0  0  0
 22 14  2  0  0  0  0
 23 15  2  0  0  0  0
 24 26  2  0  0  0  0
 25 13  2  0  0  0  0
 26 25  1  0  0  0  0
 27 23  1  0  0  0  0
  6  7  2  0  0  0  0
 22 23  1  0  0  0  0
 24  9  1  0  0  0  0
 18 17  1  0  0  0  0
M  END
> <IDNUMBER>
F0466-0014

> <Chemical_Name>
N-[(2E)-3,6-dimethyl-2,3-dihydro-1,3-benzothiazol-2-ylidene]-3-(2,5-dioxopyrrolidin-1-yl)benzamide

> <CAS>
477295-07-1

> <PriceCoeff>
1.00

> <MW>
379.43

> <Description>
solid

> <FSP3>
0.20

> <clogP>
3.45

> <TPSA>
95.35

> <Acceptor>
3

> <Donor>
0

> <RotBonds>
3

> <HAC>
27

> <Collection>
General

$$$$
F0328-0311
  -ISIS-  06222321142D

 24 26  0  0  0  0  0  0  0  0999 V2000
   -0.2208    0.0333    0.0000 C   0  0  0  0  0  0  0  0  0  0  0  0
    0.6792    0.3125    0.0000 C   0  0  0  0  0  0  0  0  0  0  0  0
   -0.7625    0.7958    0.0000 N   0  0  0  0  0  0  0  0  0  0  0  0
    3.1375   -1.1042    0.0000 C   0  0  0  0  0  0  0  0  0  0  0  0
   -0.2208    1.5500    0.0000 C   0  0  0  0  0  0  0  0  0  0  0  0
    3.9542   -2.5292    0.0000 N   0  3  0  0  0  0  0  0  0  0  0  0
    2.3167   -1.5875    0.0000 C   0  0  0  0  0  0  0  0  0  0  0  0
    3.9542   -1.5875    0.0000 C   0  0  0  0  0  0  0  0  0  0  0  0
    1.5000   -0.1500    0.0000 C   0  0  0  0  0  0  0  0  0  0  0  0
    0.6792    1.2708    0.0000 C   0  0  0  0  0  0  0  0  0  0  0  0
    1.5000   -1.1042    0.0000 N   0  0  0  0  0  0  0  0  0  0  0  0
    4.7792   -1.1042    0.0000 C   0  0  0  0  0  0  0  0  0  0  0  0
    3.1375   -0.1500    0.0000 C   0  0  0  0  0  0  0  0  0  0  0  0
    3.1792   -3.0667    0.0000 O   0  5  0  0  0  0  0  0  0  0  0  0
   -0.5458   -0.8875    0.0000 O   0  0  0  0  0  0  0  0  0  0  0  0
    4.7375   -3.0500    0.0000 O   0  0  0  0  0  0  0  0  0  0  0  0
   -0.5458    2.4708    0.0000 O   0  0  0  0  0  0  0  0  0  0  0  0
    2.3167   -2.5292    0.0000 O   0  0  0  0  0  0  0  0  0  0  0  0
    3.9542    0.3125    0.0000 C   0  0  0  0  0  0  0  0  0  0  0  0
    4.7792   -0.1500    0.0000 C   0  0  0  0  0  0  0  0  0  0  0  0
    2.3167    0.3125    0.0000 C   0  0  0  0  0  0  0  0  0  0  0  0
    3.9542    1.2708    0.0000 Cl  0  0  0  0  0  0  0  0  0  0  0  0
    1.5000    1.7333    0.0000 C   0  0  0  0  0  0  0  0  0  0  0  0
    2.3167    1.2708    0.0000 C   0  0  0  0  0  0  0  0  0  0  0  0
  2  1  1  0  0  0  0
  3  1  1  0  0  0  0
  4  7  1  0  0  0  0
  5  3  1  0  0  0  0
  6  8  1  0  0  0  0
  7 11  1  0  0  0  0
  8  4  1  0  0  0  0
  9  2  1  0  0  0  0
 10  2  2  0  0  0  0
 11  9  1  0  0  0  0
 12  8  2  0  0  0  0
 13  4  2  0  0  0  0
 14  6  1  0  0  0  0
 15  1  2  0  0  0  0
 16  6  2  0  0  0  0
 17  5  2  0  0  0  0
 18  7  2  0  0  0  0
 19 13  1  0  0  0  0
 20 19  2  0  0  0  0
 21  9  2  0  0  0  0
 22 19  1  0  0  0  0
 23 10  1  0  0  0  0
 24 23  2  0  0  0  0
  5 10  1  0  0  0  0
 24 21  1  0  0  0  0
 20 12  1  0  0  0  0
M  CHG  2   6   1  14  -1
M  END
> <IDNUMBER>
F0328-0311

> <Chemical_Name>
5-chloro-N-(1,3-dioxo-2,3-dihydro-1H-isoindol-4-yl)-2-nitrobenzamide

> <CAS>
476282-94-7

> <PriceCoeff>
1.00

> <MW>
345.69

> <Description>
solid

> <FSP3>
0.00

> <clogP>
1.77

> <TPSA>
118.41

> <Acceptor>
5

> <Donor>
2

> <RotBonds>
3

> <HAC>
24

> <Collection>
General

> <Reference_compound>
CHEMBL2287471

> <Similarity>
0.8910

$$$$
F3386-1389
  -ISIS-  06222321152D

 24 26  0  0  0  0  0  0  0  0999 V2000
    6.1542   -1.6292    0.0000 S   0  0  3  0  0  0  0  0  0  0  0  0
    5.3292   -1.6375    0.0000 C   0  0  0  0  0  0  0  0  0  0  0  0
    6.9792   -1.6167    0.0000 N   0  0  0  0  0  0  0  0  0  0  0  0
    7.8042   -1.6167    0.0000 C   0  0  0  0  0  0  0  0  0  0  0  0
    4.9375   -2.3500    0.0000 C   0  0  0  0  0  0  0  0  0  0  0  0
    4.1125   -2.3667    0.0000 C   0  0  0  0  0  0  0  0  0  0  0  0
    6.1500   -0.8042    0.0000 O   0  0  0  0  0  0  0  0  0  0  0  0
    6.1667   -2.4542    0.0000 O   0  0  0  0  0  0  0  0  0  0  0  0
    8.2167   -2.3292    0.0000 C   0  0  0  0  0  0  0  0  0  0  0  0
    4.9167   -0.9292    0.0000 C   0  0  0  0  0  0  0  0  0  0  0  0
    8.2125   -0.9042    0.0000 C   0  0  0  0  0  0  0  0  0  0  0  0
    3.6875   -1.6542    0.0000 C   0  0  0  0  0  0  0  0  0  0  0  0
    4.1000   -0.9375    0.0000 C   0  0  0  0  0  0  0  0  0  0  0  0
    9.0292   -0.9042    0.0000 C   0  0  0  0  0  0  0  0  0  0  0  0
    9.0375   -2.3292    0.0000 C   0  0  0  0  0  0  0  0  0  0  0  0
    9.4500   -1.6167    0.0000 C   0  0  0  0  0  0  0  0  0  0  0  0
    9.4500   -3.0417    0.0000 Cl  0  0  0  0  0  0  0  0  0  0  0  0
    7.7917   -0.1917    0.0000 O   0  0  0  0  0  0  0  0  0  0  0  0
    2.8625   -1.6625    0.0000 O   0  0  0  0  0  0  0  0  0  0  0  0
    5.3667   -3.0542    0.0000 C   0  0  0  0  0  0  0  0  0  0  0  0
    3.7125   -3.0875    0.0000 C   0  0  0  0  0  0  0  0  0  0  0  0
    2.4417   -0.9542    0.0000 C   0  0  0  0  0  0  0  0  0  0  0  0
    4.9667   -3.7792    0.0000 C   0  0  0  0  0  0  0  0  0  0  0  0
    4.1417   -3.7917    0.0000 C   0  0  0  0  0  0  0  0  0  0  0  0
  2  1  1  0  0  0  0
  3  1  1  0  0  0  0
  4  3  1  0  0  0  0
  5  2  1  0  0  0  0
  6  5  1  0  0  0  0
  7  1  2  0  0  0  0
  8  1  2  0  0  0  0
  9  4  2  0  0  0  0
 10  2  2  0  0  0  0
 11  4  1  0  0  0  0
 12 13  2  0  0  0  0
 13 10  1  0  0  0  0
 14 11  2  0  0  0  0
 15  9  1  0  0  0  0
 16 14  1  0  0  0  0
 17 15  1  0  0  0  0
 18 11  1  0  0  0  0
 19 12  1  0  0  0  0
 20  5  2  0  0  0  0
 21  6  2  0  0  0  0
 22 19  1  0  0  0  0
 23 20  1  0  0  0  0
 24 23  2  0  0  0  0
  6 12  1  0  0  0  0
 16 15  2  0  0  0  0
 24 21  1  0  0  0  0
M  END
> <IDNUMBER>
F3386-1389

> <Chemical_Name>
N-(5-chloro-2-hydroxyphenyl)-4-methoxynaphthalene-1-sulfonamide

> <CAS>
1172349-44-8

> <PriceCoeff>
1.00

> <MW>
363.82

> <Description>
solid

> <FSP3>
0.06

> <clogP>
4.31

> <TPSA>
84.01

> <Acceptor>
5

> <Donor>
2

> <RotBonds>
4

> <HAC>
24

> <Collection>
General

$$$$
F0196-0674
  -ISIS-  06222321442D

 25 27  0  0  0  0  0  0  0  0999 V2000
    0.4167    1.6708    0.0000 C   0  0  0  0  0  0  0  0  0  0  0  0
   -0.6208    1.6708    0.0000 C   0  0  0  0  0  0  0  0  0  0  0  0
   -0.1000    1.3708    0.0000 C   0  0  0  0  0  0  0  0  0  0  0  0
    0.4167    2.2958    0.0000 C   0  0  0  0  0  0  0  0  0  0  0  0
   -0.6208    2.2958    0.0000 C   0  0  0  0  0  0  0  0  0  0  0  0
   -0.1000    2.5958    0.0000 O   0  0  0  0  0  0  0  0  0  0  0  0
   -1.1458    1.3708    0.0000 C   0  0  0  0  0  0  0  0  0  0  0  0
   -1.1458    2.5958    0.0000 C   0  0  0  0  0  0  0  0  0  0  0  0
   -1.6625    2.2958    0.0000 C   0  0  0  0  0  0  0  0  0  0  0  0
   -1.6625    1.6708    0.0000 C   0  0  0  0  0  0  0  0  0  0  0  0
    0.9375    1.3708    0.0000 C   0  0  0  0  0  0  0  0  0  0  0  0
   -0.1000    0.7708    0.0000 O   0  0  0  0  0  0  0  0  0  0  0  0
   -2.1833    2.6125    0.0000 O   0  0  0  0  0  0  0  0  0  0  0  0
   -2.2000    1.3708    0.0000 C   0  0  0  0  0  0  0  0  0  0  0  0
    1.4542    1.6708    0.0000 C   0  0  0  0  0  0  0  0  0  0  0  0
    0.9375    0.7708    0.0000 C   0  0  0  0  0  0  0  0  0  0  0  0
   -2.7208    2.3125    0.0000 C   0  0  0  0  0  0  0  0  0  0  0  0
   -2.7458    1.6708    0.0000 C   0  0  0  0  0  0  0  0  0  0  0  0
   -4.3000    1.3708    0.0000 C   0  0  0  0  0  0  0  0  0  0  0  0
   -3.7833    1.6708    0.0000 C   0  0  0  0  0  0  0  0  0  0  0  0
   -3.2625    1.3708    0.0000 C   0  0  0  0  0  0  0  0  0  0  0  0
   -4.8208    1.6708    0.0000 C   0  0  0  0  0  0  0  0  0  0  0  0
    1.4542    0.4708    0.0000 C   0  0  0  0  0  0  0  0  0  0  0  0
    1.9792    1.3708    0.0000 C   0  0  0  0  0  0  0  0  0  0  0  0
    1.9792    0.7708    0.0000 C   0  0  0  0  0  0  0  0  0  0  0  0
  2  3  1  0  0  0  0
  3  1  1  0  0  0  0
  4  1  2  0  0  0  0
  5  6  1  0  0  0  0
  6  4  1  0  0  0  0
  7  2  1  0  0  0  0
  8  5  1  0  0  0  0
  9  8  2  0  0  0  0
 10  7  2  0  0  0  0
 11  1  1  0  0  0  0
 12  3  2  0  0  0  0
 13  9  1  0  0  0  0
 14 10  1  0  0  0  0
 15 11  2  0  0  0  0
 16 11  1  0  0  0  0
 17 13  1  0  0  0  0
 18 14  1  0  0  0  0
 19 20  1  0  0  0  0
 20 21  1  0  0  0  0
 21 18  1  0  0  0  0
 22 19  1  0  0  0  0
 23 16  2  0  0  0  0
 24 15  1  0  0  0  0
 25 23  1  0  0  0  0
  2  5  2  0  0  0  0
 25 24  2  0  0  0  0
 10  9  1  0  0  0  0
M  END
> <IDNUMBER>
F0196-0674

> <Chemical_Name>
6-hexyl-7-methoxy-3-phenyl-4H-chromen-4-one

> <CAS>
314247-20-6

> <PriceCoeff>
1.00

> <MW>
336.42

> <Description>
solid

> <FSP3>
0.32

> <clogP>
6.23

> <TPSA>
35.53

> <Acceptor>
3

> <Donor>
0

> <RotBonds>
7

> <HAC>
25

> <Collection>
General

> <Reference_compound>
CHEMBL44

> <Similarity>
0.8930

$$$$
F3139-0681
  -ISIS-  06222321462D

 29 32  0  0  0  0  0  0  0  0999 V2000
    3.7292   -2.8625    0.0000 C   0  0  0  0  0  0  0  0  0  0  0  0
    2.3042   -2.8625    0.0000 C   0  0  0  0  0  0  0  0  0  0  0  0
    3.0167   -3.2750    0.0000 C   0  0  0  0  0  0  0  0  0  0  0  0
    3.7292   -2.0375    0.0000 C   0  0  0  0  0  0  0  0  0  0  0  0
    2.3042   -2.0375    0.0000 C   0  0  0  0  0  0  0  0  0  0  0  0
    4.4417   -3.2750    0.0000 C   0  0  0  0  0  0  0  0  0  0  0  0
    3.0167   -1.6250    0.0000 O   0  0  0  0  0  0  0  0  0  0  0  0
    1.5917   -3.2750    0.0000 C   0  0  0  0  0  0  0  0  0  0  0  0
    1.5917   -1.6250    0.0000 C   0  0  0  0  0  0  0  0  0  0  0  0
    5.8792   -3.2750    0.0000 C   0  0  0  0  0  0  0  0  0  0  0  0
    0.8750   -2.0375    0.0000 C   0  0  0  0  0  0  0  0  0  0  0  0
    5.1667   -2.8625    0.0000 C   0  0  0  0  0  0  0  0  0  0  0  0
    0.8750   -2.8625    0.0000 C   0  0  0  0  0  0  0  0  0  0  0  0
    5.8750   -4.1000    0.0000 C   0  0  0  0  0  0  0  0  0  0  0  0
    3.0167   -4.1000    0.0000 O   0  0  0  0  0  0  0  0  0  0  0  0
    6.5917   -2.8625    0.0000 O   0  0  0  0  0  0  0  0  0  0  0  0
    4.4417   -4.1042    0.0000 C   0  0  0  0  0  0  0  0  0  0  0  0
    6.5875   -4.5167    0.0000 O   0  0  0  0  0  0  0  0  0  0  0  0
    5.1542   -4.5167    0.0000 C   0  0  0  0  0  0  0  0  0  0  0  0
   -0.5708    0.4458    0.0000 C   0  0  0  0  0  0  0  0  0  0  0  0
   -0.5708   -0.3875    0.0000 C   0  0  0  0  0  0  0  0  0  0  0  0
    0.1542   -1.6250    0.0000 O   0  0  0  0  0  0  0  0  0  0  0  0
    0.1500   -0.8000    0.0000 C   0  0  0  0  0  0  0  0  0  0  0  0
    0.1542   -3.2750    0.0000 C   0  0  0  0  0  0  0  0  0  0  0  0
    7.3125   -3.2792    0.0000 C   0  0  0  0  0  0  0  0  0  0  0  0
    7.3042   -4.1042    0.0000 C   0  0  0  0  0  0  0  0  0  0  0  0
   -1.2875    0.8583    0.0000 C   0  0  0  0  0  0  0  0  0  0  0  0
    0.1417    0.8583    0.0000 C   0  0  0  0  0  0  0  0  0  0  0  0
    0.1542   -4.1000    0.0000 C   0  0  0  0  0  0  0  0  0  0  0  0
  2  3  1  0  0  0  0
  3  1  1  0  0  0  0
  4  1  2  0  0  0  0
  5  7  1  0  0  0  0
  6  1  1  0  0  0  0
  7  4  1  0  0  0  0
  8  2  2  0  0  0  0
  9  5  2  0  0  0  0
 10 12  2  0  0  0  0
 11  9  1  0  0  0  0
 12  6  1  0  0  0  0
 13  8  1  0  0  0  0
 14 19  2  0  0  0  0
 15  3  2  0  0  0  0
 16 10  1  0  0  0  0
 17  6  2  0  0  0  0
 18 14  1  0  0  0  0
 19 17  1  0  0  0  0
 20 21  2  0  0  0  0
 21 23  1  0  0  0  0
 22 11  1  0  0  0  0
 23 22  1  0  0  0  0
 24 13  1  0  0  0  0
 25 16  1  0  0  0  0
 26 18  1  0  0  0  0
 27 20  1  0  0  0  0
 28 20  1  0  0  0  0
 29 24  1  0  0  0  0
  5  2  1  0  0  0  0
 10 14  1  0  0  0  0
 11 13  2  0  0  0  0
 26 25  1  0  0  0  0
M  END
> <IDNUMBER>
F3139-0681

> <Chemical_Name>
3-(2,3-dihydro-1,4-benzodioxin-6-yl)-6-ethyl-7-[(3-methylbut-2-en-1-yl)oxy]-4H-chromen-4-one

> <CAS>
610765-15-6

> <PriceCoeff>
1.00

> <MW>
392.44

> <Description>
solid

> <FSP3>
0.29

> <clogP>
5.75

> <TPSA>
53.99

> <Acceptor>
5

> <Donor>
0

> <RotBonds>
5

> <HAC>
29

> <Collection>
General

> <Reference_compound>
CHEMBL455048

> <Similarity>
0.8220

$$$$
F3385-2965
  -ISIS-  06222321462D

 31 34  0  0  0  0  0  0  0  0999 V2000
    4.9375    0.0958    0.0000 C   0  0  0  0  0  0  0  0  0  0  0  0
    4.3667   -0.2167    0.0000 C   0  0  0  0  0  0  0  0  0  0  0  0
    3.8042    0.1000    0.0000 C   0  0  0  0  0  0  0  0  0  0  0  0
    4.9375    0.7500    0.0000 C   0  0  0  0  0  0  0  0  0  0  0  0
    3.8042    0.7500    0.0000 C   0  0  0  0  0  0  0  0  0  0  0  0
    5.4917   -0.2167    0.0000 C   0  0  0  0  0  0  0  0  0  0  0  0
    4.3667    1.0833    0.0000 O   0  0  0  0  0  0  0  0  0  0  0  0
    6.0500    0.0958    0.0000 C   0  0  0  0  0  0  0  0  0  0  0  0
    3.2417   -0.2167    0.0000 C   0  0  0  0  0  0  0  0  0  0  0  0
    3.2417    1.0708    0.0000 C   0  0  0  0  0  0  0  0  0  0  0  0
    1.0125    1.0750    0.0000 C   0  0  0  0  0  0  0  0  0  0  0  0
    6.6042   -0.2167    0.0000 C   0  0  0  0  0  0  0  0  0  0  0  0
    4.3667   -0.8667    0.0000 O   0  0  0  0  0  0  0  0  0  0  0  0
    6.6042   -0.8667    0.0000 C   0  0  0  0  0  0  0  0  0  0  0  0
    5.4917   -0.8667    0.0000 C   0  0  0  0  0  0  0  0  0  0  0  0
    1.0167    1.7208    0.0000 C   0  0  0  0  0  0  0  0  0  0  0  0
    0.4542    0.7583    0.0000 C   0  0  0  0  0  0  0  0  0  0  0  0
    1.5667    0.7583    0.0000 C   0  0  0  0  0  0  0  0  0  0  0  0
    6.0500   -1.1917    0.0000 C   0  0  0  0  0  0  0  0  0  0  0  0
    2.6875    0.7500    0.0000 C   0  0  0  0  0  0  0  0  0  0  0  0
    2.1292    1.0750    0.0000 O   0  0  0  0  0  0  0  0  0  0  0  0
    0.4542    2.0458    0.0000 C   0  0  0  0  0  0  0  0  0  0  0  0
    2.6875    0.1000    0.0000 C   0  0  0  0  0  0  0  0  0  0  0  0
   -0.1083    1.0750    0.0000 C   0  0  0  0  0  0  0  0  0  0  0  0
    7.1667    0.1000    0.0000 O   0  0  0  0  0  0  0  0  0  0  0  0
   -0.1083    1.7250    0.0000 C   0  0  0  0  0  0  0  0  0  0  0  0
    7.1667   -1.1917    0.0000 O   0  0  0  0  0  0  0  0  0  0  0  0
    1.5750    2.0458    0.0000 C   0  0  0  0  0  0  0  0  0  0  0  0
   -0.6625    0.7500    0.0000 C   0  0  0  0  0  0  0  0  0  0  0  0
    7.1667    0.7458    0.0000 C   0  0  0  0  0  0  0  0  0  0  0  0
    7.7250   -0.8750    0.0000 C   0  0  0  0  0  0  0  0  0  0  0  0
  2  1  1  0  0  0  0
  3  2  1  0  0  0  0
  4  1  2  0  0  0  0
  5  7  1  0  0  0  0
  6  1  1  0  0  0  0
  7  4  1  0  0  0  0
  8  6  1  0  0  0  0
  9  3  2  0  0  0  0
 10  5  2  0  0  0  0
 11 18  1  0  0  0  0
 12  8  2  0  0  0  0
 13  2  2  0  0  0  0
 14 19  2  0  0  0  0
 15  6  2  0  0  0  0
 16 11  2  0  0  0  0
 17 11  1  0  0  0  0
 18 21  1  0  0  0  0
 19 15  1  0  0  0  0
 20 10  1  0  0  0  0
 21 20  1  0  0  0  0
 22 16  1  0  0  0  0
 23  9  1  0  0  0  0
 24 17  2  0  0  0  0
 25 12  1  0  0  0  0
 26 24  1  0  0  0  0
 27 14  1  0  0  0  0
 28 16  1  0  0  0  0
 29 24  1  0  0  0  0
 30 25  1  0  0  0  0
 31 27  1  0  0  0  0
  3  5  1  0  0  0  0
 12 14  1  0  0  0  0
 23 20  2  0  0  0  0
 26 22  2  0  0  0  0
M  END
> <IDNUMBER>
F3385-2965

> <Chemical_Name>
3-(3,4-dimethoxyphenyl)-7-[(2,5-dimethylphenyl)methoxy]-4H-chromen-4-one

> <CAS>
858767-15-4

> <PriceCoeff>
1.00

> <MW>
416.47

> <Description>
solid

> <FSP3>
0.19

> <clogP>
5.47

> <TPSA>
53.99

> <Acceptor>
5

> <Donor>
0

> <RotBonds>
6

> <HAC>
31

> <Collection>
General

> <Reference_compound>
CHEMBL455048

> <Similarity>
0.8360

$$$$
F1365-0108
  -ISIS-  06222321452D

 24 26  0  0  0  0  0  0  0  0999 V2000
   -1.1625    2.3833    0.0000 C   0  0  0  0  0  0  0  0  0  0  0  0
    1.3167    3.8083    0.0000 N   0  0  3  0  0  0  0  0  0  0  0  0
   -1.6458    1.7208    0.0000 N   0  0  3  0  0  0  0  0  0  0  0  0
   -0.3375    2.3750    0.0000 N   0  0  0  0  0  0  0  0  0  0  0  0
   -1.6458    3.0500    0.0000 S   0  0  0  0  0  0  0  0  0  0  0  0
   -2.4333    2.7958    0.0000 C   0  0  0  0  0  0  0  0  0  0  0  0
   -2.4333    1.9708    0.0000 C   0  0  0  0  0  0  0  0  0  0  0  0
    2.1292    3.8833    0.0000 C   0  0  0  0  0  0  0  0  0  0  0  0
    0.9792    4.5417    0.0000 C   0  0  0  0  0  0  0  0  0  0  0  0
    0.0750    3.0875    0.0000 C   0  0  0  0  0  0  0  0  0  0  0  0
    0.9000    3.0875    0.0000 C   0  0  0  0  0  0  0  0  0  0  0  0
   -3.1458    1.5583    0.0000 C   0  0  0  0  0  0  0  0  0  0  0  0
   -3.1458    3.2083    0.0000 C   0  0  0  0  0  0  0  0  0  0  0  0
    1.5917    5.0917    0.0000 C   0  0  0  0  0  0  0  0  0  0  0  0
    2.3125    4.6917    0.0000 C   0  0  0  0  0  0  0  0  0  0  0  0
    0.1792    4.7292    0.0000 O   0  0  0  0  0  0  0  0  0  0  0  0
    2.6875    3.2708    0.0000 O   0  0  0  0  0  0  0  0  0  0  0  0
   -0.3375    3.8000    0.0000 O   0  0  0  0  0  0  0  0  0  0  0  0
   -1.9458    0.3208    0.0000 C   0  0  0  0  0  0  0  0  0  0  0  0
   -1.3958    0.9333    0.0000 C   0  0  0  0  0  0  0  0  0  0  0  0
   -2.7500    0.4875    0.0000 C   0  0  0  0  0  0  0  0  0  0  0  0
   -3.8583    1.9708    0.0000 C   0  0  0  0  0  0  0  0  0  0  0  0
   -3.8583    2.7958    0.0000 C   0  0  0  0  0  0  0  0  0  0  0  0
   -4.5833    3.2125    0.0000 C   0  0  0  0  0  0  0  0  0  0  0  0
  2 11  1  0  0  0  0
  3  1  1  0  0  0  0
  4  1  2  0  0  0  0
  5  1  1  0  0  0  0
  6  5  1  0  0  0  0
  7  3  1  0  0  0  0
  8  2  1  0  0  0  0
  9  2  1  0  0  0  0
 10  4  1  0  0  0  0
 11 10  1  0  0  0  0
 12  7  1  0  0  0  0
 13  6  1  0  0  0  0
 14  9  1  0  0  0  0
 15  8  1  0  0  0  0
 16  9  2  0  0  0  0
 17  8  2  0  0  0  0
 18 10  2  0  0  0  0
 19 20  1  0  0  0  0
 20  3  1  0  0  0  0
 21 19  2  0  0  0  0
 22 12  2  0  0  0  0
 23 13  2  0  0  0  0
 24 23  1  0  0  0  0
  7  6  2  0  0  0  0
 22 23  1  0  0  0  0
 15 14  1  0  0  0  0
M  END
> <IDNUMBER>
F1365-0108

> <Chemical_Name>
2-(2,5-dioxopyrrolidin-1-yl)-N-[(2Z)-6-methyl-3-(prop-2-en-1-yl)-2,3-dihydro-1,3-benzothiazol-2-ylidene]acetamide

> <CAS>
865174-55-6

> <PriceCoeff>
1.00

> <MW>
343.40

> <Description>
solid

> <FSP3>
0.29

> <clogP>
4.05

> <TPSA>
95.35

> <Acceptor>
3

> <Donor>
0

> <RotBonds>
5

> <HAC>
24

> <Collection>
General

$$$$
F1815-1185
  -ISIS-  06222321142D

 24 26  0  0  0  0  0  0  0  0999 V2000
   -4.5833    2.5583    0.0000 C   0  0  0  0  0  0  0  0  0  0  0  0
   -3.1583    5.0292    0.0000 N   0  0  3  0  0  0  0  0  0  0  0  0
   -4.6750    1.7375    0.0000 N   0  0  3  0  0  0  0  0  0  0  0  0
   -3.8625    2.9833    0.0000 N   0  0  0  0  0  0  0  0  0  0  0  0
   -5.3125    2.8958    0.0000 S   0  0  0  0  0  0  0  0  0  0  0  0
   -5.4708    1.5833    0.0000 C   0  0  0  0  0  0  0  0  0  0  0  0
   -5.8750    2.2958    0.0000 C   0  0  0  0  0  0  0  0  0  0  0  0
   -2.4875    5.5042    0.0000 C   0  0  0  0  0  0  0  0  0  0  0  0
   -3.8208    5.5125    0.0000 C   0  0  0  0  0  0  0  0  0  0  0  0
   -3.8708    3.8000    0.0000 C   0  0  0  0  0  0  0  0  0  0  0  0
   -3.1583    4.2042    0.0000 C   0  0  0  0  0  0  0  0  0  0  0  0
   -2.7375    6.3000    0.0000 C   0  0  0  0  0  0  0  0  0  0  0  0
   -3.5625    6.2917    0.0000 C   0  0  0  0  0  0  0  0  0  0  0  0
   -1.7083    5.2500    0.0000 O   0  0  0  0  0  0  0  0  0  0  0  0
   -4.6000    5.2667    0.0000 O   0  0  0  0  0  0  0  0  0  0  0  0
   -5.8958    0.8833    0.0000 C   0  0  0  0  0  0  0  0  0  0  0  0
   -4.5833    4.2125    0.0000 O   0  0  0  0  0  0  0  0  0  0  0  0
   -4.2458    0.3708    0.0000 C   0  0  0  0  0  0  0  0  0  0  0  0
   -4.0583    1.1750    0.0000 C   0  0  0  0  0  0  0  0  0  0  0  0
   -3.6333   -0.1917    0.0000 C   0  0  0  0  0  0  0  0  0  0  0  0
   -6.6917    2.3208    0.0000 C   0  0  0  0  0  0  0  0  0  0  0  0
   -7.1167    1.6125    0.0000 C   0  0  0  0  0  0  0  0  0  0  0  0
   -6.7042    0.8875    0.0000 C   0  0  0  0  0  0  0  0  0  0  0  0
   -5.4958    0.1583    0.0000 C   0  0  0  0  0  0  0  0  0  0  0  0
  2 11  1  0  0  0  0
  3  1  1  0  0  0  0
  4  1  2  0  0  0  0
  5  1  1  0  0  0  0
  6  3  1  0  0  0  0
  7  5  1  0  0  0  0
  8  2  1  0  0  0  0
  9  2  1  0  0  0  0
 10  4  1  0  0  0  0
 11 10  1  0  0  0  0
 12  8  1  0  0  0  0
 13  9  1  0  0  0  0
 14  8  2  0  0  0  0
 15  9  2  0  0  0  0
 16  6  1  0  0  0  0
 17 10  2  0  0  0  0
 18 19  1  0  0  0  0
 19  3  1  0  0  0  0
 20 18  2  0  0  0  0
 21  7  1  0  0  0  0
 22 21  2  0  0  0  0
 23 16  2  0  0  0  0
 24 16  1  0  0  0  0
  6  7  2  0  0  0  0
 22 23  1  0  0  0  0
 12 13  1  0  0  0  0
M  END
> <IDNUMBER>
F1815-1185

> <Chemical_Name>
2-(2,5-dioxopyrrolidin-1-yl)-N-[(2Z)-4-methyl-3-(prop-2-en-1-yl)-2,3-dihydro-1,3-benzothiazol-2-ylidene]acetamide

> <CAS>
1321875-01-7

> <PriceCoeff>
1.00

> <MW>
343.40

> <Description>
solid

> <FSP3>
0.29

> <clogP>
4.05

> <TPSA>
95.35

> <Acceptor>
3

> <Donor>
0

> <RotBonds>
5

> <HAC>
24

> <Collection>
General

$$$$
F3385-3715
  -ISIS-  06222321442D

 32 35  0  0  0  0  0  0  0  0999 V2000
    7.0500    0.0750    0.0000 C   0  0  0  0  0  0  0  0  0  0  0  0
    6.3250   -0.3375    0.0000 C   0  0  0  0  0  0  0  0  0  0  0  0
    5.6042    0.0750    0.0000 C   0  0  0  0  0  0  0  0  0  0  0  0
    7.0500    0.9083    0.0000 C   0  0  0  0  0  0  0  0  0  0  0  0
    5.6125    0.9083    0.0000 C   0  0  0  0  0  0  0  0  0  0  0  0
    7.7542   -0.3375    0.0000 C   0  0  0  0  0  0  0  0  0  0  0  0
    6.3292    1.3333    0.0000 O   0  0  0  0  0  0  0  0  0  0  0  0
    2.7542    0.9083    0.0000 C   0  0  0  0  0  0  0  0  0  0  0  0
    3.4667    1.3208    0.0000 N   0  0  0  0  0  0  0  0  0  0  0  0
    4.8917    1.3208    0.0000 C   0  0  0  0  0  0  0  0  0  0  0  0
    8.4667    0.0708    0.0000 C   0  0  0  0  0  0  0  0  0  0  0  0
    2.0417    1.3208    0.0000 C   0  0  0  0  0  0  0  0  0  0  0  0
    4.8917   -0.3292    0.0000 C   0  0  0  0  0  0  0  0  0  0  0  0
    9.1792   -0.3417    0.0000 C   0  0  0  0  0  0  0  0  0  0  0  0
    1.3250    0.9083    0.0000 C   0  0  0  0  0  0  0  0  0  0  0  0
    4.1792    0.9083    0.0000 C   0  0  0  0  0  0  0  0  0  0  0  0
    6.3250   -1.1625    0.0000 O   0  0  0  0  0  0  0  0  0  0  0  0
    9.1792   -1.1667    0.0000 C   0  0  0  0  0  0  0  0  0  0  0  0
    7.7542   -1.1667    0.0000 C   0  0  0  0  0  0  0  0  0  0  0  0
    2.7542    0.0833    0.0000 C   0  0  0  0  0  0  0  0  0  0  0  0
    8.4667   -1.5792    0.0000 C   0  0  0  0  0  0  0  0  0  0  0  0
    1.3250    0.0833    0.0000 C   0  0  0  0  0  0  0  0  0  0  0  0
    4.1792    0.0875    0.0000 C   0  0  0  0  0  0  0  0  0  0  0  0
    2.0417   -0.3292    0.0000 C   0  0  0  0  0  0  0  0  0  0  0  0
    2.0417    2.1458    0.0000 O   0  0  0  0  0  0  0  0  0  0  0  0
    9.9042    0.0708    0.0000 O   0  0  0  0  0  0  0  0  0  0  0  0
    9.8917   -1.5792    0.0000 O   0  0  0  0  0  0  0  0  0  0  0  0
    0.6042   -0.3292    0.0000 O   0  0  0  0  0  0  0  0  0  0  0  0
    9.9000    0.8958    0.0000 C   0  0  0  0  0  0  0  0  0  0  0  0
    1.3292    2.5583    0.0000 C   0  0  0  0  0  0  0  0  0  0  0  0
   10.6125   -1.1667    0.0000 C   0  0  0  0  0  0  0  0  0  0  0  0
    0.6042   -1.1542    0.0000 C   0  0  0  0  0  0  0  0  0  0  0  0
  2  1  1  0  0  0  0
  3  2  1  0  0  0  0
  4  1  2  0  0  0  0
  5  7  1  0  0  0  0
  6  1  1  0  0  0  0
  7  4  1  0  0  0  0
  8  9  1  0  0  0  0
  9 16  1  0  0  0  0
 10  5  2  0  0  0  0
 11  6  1  0  0  0  0
 12  8  2  0  0  0  0
 13  3  2  0  0  0  0
 14 11  2  0  0  0  0
 15 12  1  0  0  0  0
 16 10  1  0  0  0  0
 17  2  2  0  0  0  0
 18 21  2  0  0  0  0
 19  6  2  0  0  0  0
 20  8  1  0  0  0  0
 21 19  1  0  0  0  0
 22 24  1  0  0  0  0
 23 13  1  0  0  0  0
 24 20  2  0  0  0  0
 25 12  1  0  0  0  0
 26 14  1  0  0  0  0
 27 18  1  0  0  0  0
 28 22  1  0  0  0  0
 29 26  1  0  0  0  0
 30 25  1  0  0  0  0
 31 27  1  0  0  0  0
 32 28  1  0  0  0  0
  5  3  1  0  0  0  0
 18 14  1  0  0  0  0
 16 23  2  0  0  0  0
 15 22  2  0  0  0  0
M  END
> <IDNUMBER>
F3385-3715

> <Chemical_Name>
3-(3,4-dimethoxyphenyl)-7-[(2,4-dimethoxyphenyl)amino]-4H-chromen-4-one

> <CAS>
864751-65-5

> <PriceCoeff>
1.00

> <MW>
433.45

> <Description>
solid

> <FSP3>
0.16

> <clogP>
4.50

> <TPSA>
75.25

> <Acceptor>
7

> <Donor>
1

> <RotBonds>
7

> <HAC>
32

> <Collection>
General

> <Reference_compound>
CHEMBL455048

> <Similarity>
0.8070

$$$$
F1009-0410
  -ISIS-  06222321452D

 28 31  0  0  0  0  0  0  0  0999 V2000
   -3.8708    2.9833    0.0000 C   0  0  0  0  0  0  0  0  0  0  0  0
   -3.8708    3.8000    0.0000 N   0  0  0  0  0  0  0  0  0  0  0  0
   -3.2208    2.4958    0.0000 N   0  0  3  0  0  0  0  0  0  0  0  0
   -3.1125    7.5000    0.0000 N   0  0  3  0  0  0  0  0  0  0  0  0
   -4.5375    2.4958    0.0000 S   0  0  0  0  0  0  0  0  0  0  0  0
   -4.3000    1.7333    0.0000 C   0  0  0  0  0  0  0  0  0  0  0  0
   -3.4583    1.7333    0.0000 C   0  0  0  0  0  0  0  0  0  0  0  0
   -3.1583    4.2042    0.0000 C   0  0  0  0  0  0  0  0  0  0  0  0
   -2.4625    7.9667    0.0000 C   0  0  0  0  0  0  0  0  0  0  0  0
   -3.7458    8.0042    0.0000 C   0  0  0  0  0  0  0  0  0  0  0  0
   -4.7083    1.0208    0.0000 C   0  0  0  0  0  0  0  0  0  0  0  0
   -3.1125    6.6792    0.0000 C   0  0  0  0  0  0  0  0  0  0  0  0
   -3.0458    1.0208    0.0000 C   0  0  0  0  0  0  0  0  0  0  0  0
   -3.1458    5.0250    0.0000 C   0  0  0  0  0  0  0  0  0  0  0  0
   -2.4458    3.8208    0.0000 O   0  0  0  0  0  0  0  0  0  0  0  0
   -2.6958    8.7375    0.0000 C   0  0  0  0  0  0  0  0  0  0  0  0
   -3.4750    8.7667    0.0000 C   0  0  0  0  0  0  0  0  0  0  0  0
   -1.6250    7.7125    0.0000 O   0  0  0  0  0  0  0  0  0  0  0  0
   -4.5958    7.7542    0.0000 O   0  0  0  0  0  0  0  0  0  0  0  0
   -3.8208    6.2750    0.0000 C   0  0  0  0  0  0  0  0  0  0  0  0
   -2.4083    6.2500    0.0000 C   0  0  0  0  0  0  0  0  0  0  0  0
   -2.4208    5.4167    0.0000 C   0  0  0  0  0  0  0  0  0  0  0  0
   -3.8458    5.4417    0.0000 C   0  0  0  0  0  0  0  0  0  0  0  0
   -4.3000    0.3125    0.0000 C   0  0  0  0  0  0  0  0  0  0  0  0
   -2.4333    2.7750    0.0000 C   0  0  0  0  0  0  0  0  0  0  0  0
   -3.4583    0.3125    0.0000 C   0  0  0  0  0  0  0  0  0  0  0  0
   -4.7083   -0.4167    0.0000 O   0  0  0  0  0  0  0  0  0  0  0  0
   -5.5333   -0.4167    0.0000 C   0  0  0  0  0  0  0  0  0  0  0  0
  2  1  2  0  0  0  0
  3  1  1  0  0  0  0
  4 12  1  0  0  0  0
  5  1  1  0  0  0  0
  6  5  1  0  0  0  0
  7  3  1  0  0  0  0
  8  2  1  0  0  0  0
  9  4  1  0  0  0  0
 10  4  1  0  0  0  0
 11  6  1  0  0  0  0
 12 20  1  0  0  0  0
 13  7  1  0  0  0  0
 14  8  1  0  0  0  0
 15  8  2  0  0  0  0
 16  9  1  0  0  0  0
 17 10  1  0  0  0  0
 18  9  2  0  0  0  0
 19 10  2  0  0  0  0
 20 23  2  0  0  0  0
 21 22  1  0  0  0  0
 22 14  2  0  0  0  0
 23 14  1  0  0  0  0
 24 11  2  0  0  0  0
 25  3  1  0  0  0  0
 26 13  2  0  0  0  0
 27 24  1  0  0  0  0
 28 27  1  0  0  0  0
  6  7  2  0  0  0  0
 24 26  1  0  0  0  0
 21 12  2  0  0  0  0
 16 17  1  0  0  0  0
M  END
> <IDNUMBER>
F1009-0410

> <Chemical_Name>
4-(2,5-dioxopyrrolidin-1-yl)-N-[(2E)-6-methoxy-3-methyl-2,3-dihydro-1,3-benzothiazol-2-ylidene]benzamide

> <CAS>
681232-17-7

> <PriceCoeff>
1.00

> <MW>
395.43

> <Description>
solid

> <FSP3>
0.20

> <clogP>
2.87

> <TPSA>
104.58

> <Acceptor>
4

> <Donor>
0

> <RotBonds>
4

> <HAC>
28

> <Collection>
General

$$$$
F3139-1067
  -ISIS-  06222321462D

 29 32  0  0  0  0  0  0  0  0999 V2000
    8.0542   -4.9167    0.0000 C   0  0  0  0  0  0  0  0  0  0  0  0
    6.6250   -4.9167    0.0000 C   0  0  0  0  0  0  0  0  0  0  0  0
    7.3375   -5.3292    0.0000 C   0  0  0  0  0  0  0  0  0  0  0  0
    8.0542   -4.0917    0.0000 C   0  0  0  0  0  0  0  0  0  0  0  0
    6.6250   -4.0917    0.0000 C   0  0  0  0  0  0  0  0  0  0  0  0
    8.7667   -5.3375    0.0000 C   0  0  0  0  0  0  0  0  0  0  0  0
    7.3375   -3.6792    0.0000 O   0  0  0  0  0  0  0  0  0  0  0  0
    5.9125   -5.3292    0.0000 C   0  0  0  0  0  0  0  0  0  0  0  0
    5.1917   -4.1000    0.0000 C   0  0  0  0  0  0  0  0  0  0  0  0
    5.9125   -3.6792    0.0000 C   0  0  0  0  0  0  0  0  0  0  0  0
    5.1917   -4.9167    0.0000 C   0  0  0  0  0  0  0  0  0  0  0  0
   10.2042   -5.3125    0.0000 C   0  0  0  0  0  0  0  0  0  0  0  0
    9.4875   -4.9167    0.0000 C   0  0  0  0  0  0  0  0  0  0  0  0
    4.4750   -3.6792    0.0000 O   0  0  0  0  0  0  0  0  0  0  0  0
    3.7542   -4.0917    0.0000 C   0  0  0  0  0  0  0  0  0  0  0  0
   10.1917   -6.1542    0.0000 C   0  0  0  0  0  0  0  0  0  0  0  0
    7.3375   -6.1542    0.0000 O   0  0  0  0  0  0  0  0  0  0  0  0
   10.9375   -4.8917    0.0000 O   0  0  0  0  0  0  0  0  0  0  0  0
    8.7667   -6.1625    0.0000 C   0  0  0  0  0  0  0  0  0  0  0  0
   10.9167   -6.5875    0.0000 O   0  0  0  0  0  0  0  0  0  0  0  0
    3.7500   -4.9167    0.0000 O   0  0  0  0  0  0  0  0  0  0  0  0
    9.4792   -6.5750    0.0000 C   0  0  0  0  0  0  0  0  0  0  0  0
    4.4792   -5.3292    0.0000 C   0  0  0  0  0  0  0  0  0  0  0  0
    3.0417   -3.6667    0.0000 C   0  0  0  0  0  0  0  0  0  0  0  0
   11.6667   -5.3292    0.0000 C   0  0  0  0  0  0  0  0  0  0  0  0
   11.6542   -6.1750    0.0000 C   0  0  0  0  0  0  0  0  0  0  0  0
    4.4750   -6.1542    0.0000 C   0  0  0  0  0  0  0  0  0  0  0  0
    2.3292   -4.0792    0.0000 C   0  0  0  0  0  0  0  0  0  0  0  0
    3.7542   -6.5625    0.0000 C   0  0  0  0  0  0  0  0  0  0  0  0
  2  3  1  0  0  0  0
  3  1  1  0  0  0  0
  4  1  2  0  0  0  0
  5  7  1  0  0  0  0
  6  1  1  0  0  0  0
  7  4  1  0  0  0  0
  8  2  2  0  0  0  0
  9 10  1  0  0  0  0
 10  5  2  0  0  0  0
 11  8  1  0  0  0  0
 12 13  2  0  0  0  0
 13  6  1  0  0  0  0
 14  9  1  0  0  0  0
 15 14  1  0  0  0  0
 16 22  2  0  0  0  0
 17  3  2  0  0  0  0
 18 12  1  0  0  0  0
 19  6  2  0  0  0  0
 20 16  1  0  0  0  0
 21 15  2  0  0  0  0
 22 19  1  0  0  0  0
 23 11  1  0  0  0  0
 24 15  1  0  0  0  0
 25 18  1  0  0  0  0
 26 20  1  0  0  0  0
 27 23  1  0  0  0  0
 28 24  1  0  0  0  0
 29 27  1  0  0  0  0
  2  5  1  0  0  0  0
 16 12  1  0  0  0  0
 11  9  2  0  0  0  0
 26 25  1  0  0  0  0
M  END
> <IDNUMBER>
F3139-1067

> <Chemical_Name>
3-(2,3-dihydro-1,4-benzodioxin-6-yl)-4-oxo-6-propyl-4H-chromen-7-yl propanoate

> <CAS>
610752-23-3

> <PriceCoeff>
1.00

> <MW>
394.42

> <Description>
solid

> <FSP3>
0.30

> <clogP>
4.53

> <TPSA>
71.06

> <Acceptor>
6

> <Donor>
0

> <RotBonds>
6

> <HAC>
29

> <Collection>
General

> <Reference_compound>
CHEMBL455048

> <Similarity>
0.8200

$$$$
F1575-0079
  -ISIS-  06222321452D

 19 20  0  0  0  0  0  0  0  0999 V2000
    5.3375   -1.5417    0.0000 C   0  0  0  0  0  0  0  0  0  0  0  0
    2.7875   -3.0042    0.0000 N   0  3  0  0  0  0  0  0  0  0  0  0
    5.3375    1.3833    0.0000 C   0  0  0  0  0  0  0  0  0  0  0  0
    7.8667   -3.0042    0.0000 C   0  0  0  0  0  0  0  0  0  0  0  0
   10.4042   -1.5417    0.0000 C   0  0  0  0  0  0  0  0  0  0  0  0
    7.8667    2.8583    0.0000 C   0  0  0  0  0  0  0  0  0  0  0  0
   10.4042    1.3958    0.0000 C   0  0  0  0  0  0  0  0  0  0  0  0
    0.2542   -1.5417    0.0000 O   0  5  0  0  0  0  0  0  0  0  0  0
    2.7875   -5.9292    0.0000 O   0  0  0  0  0  0  0  0  0  0  0  0
    7.8667    5.7792    0.0000 O   0  0  0  0  0  0  0  0  0  0  0  0
    7.8875   -5.9292    0.0000 Cl  0  0  0  0  0  0  0  0  0  0  0  0
   12.9167    2.8750    0.0000 N   0  0  0  0  0  0  0  0  0  0  0  0
   10.3875    7.2417    0.0000 C   0  0  0  0  0  0  0  0  0  0  0  0
   10.3875   10.1667    0.0000 C   0  0  0  0  0  0  0  0  0  0  0  0
   12.9375   11.6125    0.0000 C   0  0  0  0  0  0  0  0  0  0  0  0
    7.8667   11.5917    0.0000 C   0  0  0  0  0  0  0  0  0  0  0  0
    7.8542   14.5167    0.0000 C   0  0  0  0  0  0  0  0  0  0  0  0
   12.9375   14.5375    0.0000 C   0  0  0  0  0  0  0  0  0  0  0  0
   10.3875   16.0000    0.0000 C   0  0  0  0  0  0  0  0  0  0  0  0
  2  1  1  0  0  0  0
  3  1  2  0  0  0  0
  4  1  1  0  0  0  0
  5  4  2  0  0  0  0
  6  3  1  0  0  0  0
  7  5  1  0  0  0  0
  8  2  1  0  0  0  0
  9  2  2  0  0  0  0
 10  6  1  0  0  0  0
 11  4  1  0  0  0  0
 12  7  1  0  0  0  0
 13 10  1  0  0  0  0
 14 13  1  0  0  0  0
 15 14  2  0  0  0  0
 16 14  1  0  0  0  0
 17 16  2  0  0  0  0
 18 15  1  0  0  0  0
 19 17  1  0  0  0  0
  7  6  2  0  0  0  0
 19 18  2  0  0  0  0
M  CHG  2   2   1   8  -1
M  END
> <IDNUMBER>
F1575-0079

> <Chemical_Name>
2-(benzyloxy)-5-chloro-4-nitroaniline

> <CAS>
118534-36-4

> <PriceCoeff>
1.00

> <MW>
278.69

> <Description>
solid

> <FSP3>
0.08

> <clogP>
3.91

> <TPSA>
78.39

> <Acceptor>
4

> <Donor>
1

> <RotBonds>
4

> <HAC>
19

> <Collection>
General

$$$$
F3386-1375
  -ISIS-  06222321152D

 22 23  0  0  0  0  0  0  0  0999 V2000
    5.1250   -1.9375    0.0000 S   0  0  3  0  0  0  0  0  0  0  0  0
    5.9500   -1.9250    0.0000 N   0  0  0  0  0  0  0  0  0  0  0  0
    6.7750   -1.9250    0.0000 C   0  0  0  0  0  0  0  0  0  0  0  0
    4.3000   -1.9417    0.0000 C   0  0  0  0  0  0  0  0  0  0  0  0
    7.1792   -2.6375    0.0000 C   0  0  0  0  0  0  0  0  0  0  0  0
    5.1292   -2.7625    0.0000 O   0  0  0  0  0  0  0  0  0  0  0  0
    5.1167   -1.1125    0.0000 O   0  0  0  0  0  0  0  0  0  0  0  0
    3.9042   -2.6542    0.0000 C   0  0  0  0  0  0  0  0  0  0  0  0
    3.0792   -2.6667    0.0000 C   0  0  0  0  0  0  0  0  0  0  0  0
    7.1792   -1.2125    0.0000 C   0  0  0  0  0  0  0  0  0  0  0  0
    2.6542   -1.9542    0.0000 C   0  0  0  0  0  0  0  0  0  0  0  0
    3.8792   -1.2375    0.0000 C   0  0  0  0  0  0  0  0  0  0  0  0
    3.0667   -1.2417    0.0000 C   0  0  0  0  0  0  0  0  0  0  0  0
    8.0000   -1.2042    0.0000 C   0  0  0  0  0  0  0  0  0  0  0  0
    8.0042   -2.6292    0.0000 C   0  0  0  0  0  0  0  0  0  0  0  0
    8.4167   -1.9167    0.0000 C   0  0  0  0  0  0  0  0  0  0  0  0
    8.4167   -3.3500    0.0000 Cl  0  0  0  0  0  0  0  0  0  0  0  0
    6.7625   -0.5000    0.0000 O   0  0  0  0  0  0  0  0  0  0  0  0
    1.8292   -1.9667    0.0000 O   0  0  0  0  0  0  0  0  0  0  0  0
    2.6750   -3.3917    0.0000 C   0  0  0  0  0  0  0  0  0  0  0  0
    1.4042   -1.2542    0.0000 C   0  0  0  0  0  0  0  0  0  0  0  0
    0.5792   -1.2625    0.0000 C   0  0  0  0  0  0  0  0  0  0  0  0
  2  1  1  0  0  0  0
  3  2  1  0  0  0  0
  4  1  1  0  0  0  0
  5  3  2  0  0  0  0
  6  1  2  0  0  0  0
  7  1  2  0  0  0  0
  8  4  1  0  0  0  0
  9  8  2  0  0  0  0
 10  3  1  0  0  0  0
 11 13  2  0  0  0  0
 12  4  2  0  0  0  0
 13 12  1  0  0  0  0
 14 10  2  0  0  0  0
 15  5  1  0  0  0  0
 16 14  1  0  0  0  0
 17 15  1  0  0  0  0
 18 10  1  0  0  0  0
 19 11  1  0  0  0  0
 20  9  1  0  0  0  0
 21 19  1  0  0  0  0
 22 21  1  0  0  0  0
  9 11  1  0  0  0  0
 16 15  2  0  0  0  0
M  END
> <IDNUMBER>
F3386-1375

> <Chemical_Name>
N-(5-chloro-2-hydroxyphenyl)-4-ethoxy-3-methylbenzene-1-sulfonamide

> <CAS>
1171340-41-2

> <PriceCoeff>
1.00

> <MW>
341.81

> <Description>
solid

> <FSP3>
0.20

> <clogP>
4.17

> <TPSA>
84.01

> <Acceptor>
5

> <Donor>
2

> <RotBonds>
5

> <HAC>
22

> <Collection>
General

$$$$
F3385-2964
  -ISIS-  06222321152D

 30 33  0  0  0  0  0  0  0  0999 V2000
    4.9375    0.0958    0.0000 C   0  0  0  0  0  0  0  0  0  0  0  0
    4.3667   -0.2167    0.0000 C   0  0  0  0  0  0  0  0  0  0  0  0
    3.8042    0.1000    0.0000 C   0  0  0  0  0  0  0  0  0  0  0  0
    4.9375    0.7500    0.0000 C   0  0  0  0  0  0  0  0  0  0  0  0
    3.8042    0.7500    0.0000 C   0  0  0  0  0  0  0  0  0  0  0  0
    5.4917   -0.2167    0.0000 C   0  0  0  0  0  0  0  0  0  0  0  0
    4.3667    1.0833    0.0000 O   0  0  0  0  0  0  0  0  0  0  0  0
    6.0500    0.0958    0.0000 C   0  0  0  0  0  0  0  0  0  0  0  0
    3.2417   -0.2167    0.0000 C   0  0  0  0  0  0  0  0  0  0  0  0
    3.2417    1.0708    0.0000 C   0  0  0  0  0  0  0  0  0  0  0  0
    6.6042   -0.2167    0.0000 C   0  0  0  0  0  0  0  0  0  0  0  0
    4.3667   -0.8667    0.0000 O   0  0  0  0  0  0  0  0  0  0  0  0
    6.6042   -0.8667    0.0000 C   0  0  0  0  0  0  0  0  0  0  0  0
    5.4917   -0.8667    0.0000 C   0  0  0  0  0  0  0  0  0  0  0  0
    6.0500   -1.1917    0.0000 C   0  0  0  0  0  0  0  0  0  0  0  0
    2.6875    0.7500    0.0000 C   0  0  0  0  0  0  0  0  0  0  0  0
    2.1292    1.0750    0.0000 O   0  0  0  0  0  0  0  0  0  0  0  0
    2.6875    0.1000    0.0000 C   0  0  0  0  0  0  0  0  0  0  0  0
    0.4542    0.7583    0.0000 C   0  0  0  0  0  0  0  0  0  0  0  0
   -0.1083    1.0750    0.0000 C   0  0  0  0  0  0  0  0  0  0  0  0
    1.5667    0.7583    0.0000 C   0  0  0  0  0  0  0  0  0  0  0  0
    1.0125    1.0750    0.0000 C   0  0  0  0  0  0  0  0  0  0  0  0
    7.1667    0.1000    0.0000 O   0  0  0  0  0  0  0  0  0  0  0  0
   -0.6625    0.7500    0.0000 Cl  0  0  0  0  0  0  0  0  0  0  0  0
    7.1667   -1.1917    0.0000 O   0  0  0  0  0  0  0  0  0  0  0  0
    0.4542    2.0458    0.0000 C   0  0  0  0  0  0  0  0  0  0  0  0
   -0.1083    1.7250    0.0000 C   0  0  0  0  0  0  0  0  0  0  0  0
    1.0167    1.7208    0.0000 C   0  0  0  0  0  0  0  0  0  0  0  0
    7.1667    0.7458    0.0000 C   0  0  0  0  0  0  0  0  0  0  0  0
    7.7250   -0.8750    0.0000 C   0  0  0  0  0  0  0  0  0  0  0  0
  2  1  1  0  0  0  0
  3  2  1  0  0  0  0
  4  1  2  0  0  0  0
  5  7  1  0  0  0  0
  6  1  1  0  0  0  0
  7  4  1  0  0  0  0
  8  6  1  0  0  0  0
  9  3  2  0  0  0  0
 10  5  2  0  0  0  0
 11  8  2  0  0  0  0
 12  2  2  0  0  0  0
 13 15  2  0  0  0  0
 14  6  2  0  0  0  0
 15 14  1  0  0  0  0
 16 10  1  0  0  0  0
 17 16  1  0  0  0  0
 18  9  1  0  0  0  0
 19 22  1  0  0  0  0
 20 19  2  0  0  0  0
 21 17  1  0  0  0  0
 22 21  1  0  0  0  0
 23 11  1  0  0  0  0
 24 20  1  0  0  0  0
 25 13  1  0  0  0  0
 26 28  1  0  0  0  0
 27 26  2  0  0  0  0
 28 22  2  0  0  0  0
 29 23  1  0  0  0  0
 30 25  1  0  0  0  0
  3  5  1  0  0  0  0
 11 13  1  0  0  0  0
 18 16  2  0  0  0  0
 27 20  1  0  0  0  0
M  END
> <IDNUMBER>
F3385-2964

> <Chemical_Name>
7-[(3-chlorophenyl)methoxy]-3-(3,4-dimethoxyphenyl)-4H-chromen-4-one

> <CAS>
848203-69-0

> <PriceCoeff>
1.00

> <MW>
422.86

> <Description>
solid

> <FSP3>
0.12

> <clogP>
5.23

> <TPSA>
53.99

> <Acceptor>
5

> <Donor>
0

> <RotBonds>
6

> <HAC>
30

> <Collection>
General

> <Reference_compound>
CHEMBL455048

> <Similarity>
0.8130

$$$$
F0834-1073
  -ISIS-  06222321142D

 28 31  0  0  0  0  0  0  0  0999 V2000
   -3.8708    2.9833    0.0000 C   0  0  0  0  0  0  0  0  0  0  0  0
   -3.8708    3.8000    0.0000 N   0  0  0  0  0  0  0  0  0  0  0  0
   -3.1875    2.5208    0.0000 N   0  0  3  0  0  0  0  0  0  0  0  0
   -1.7333    6.6667    0.0000 N   0  0  3  0  0  0  0  0  0  0  0  0
   -4.5208    2.5208    0.0000 S   0  0  0  0  0  0  0  0  0  0  0  0
   -3.4333    1.7250    0.0000 C   0  0  0  0  0  0  0  0  0  0  0  0
   -4.2833    1.7250    0.0000 C   0  0  0  0  0  0  0  0  0  0  0  0
   -3.1583    4.2042    0.0000 C   0  0  0  0  0  0  0  0  0  0  0  0
   -2.4458    6.2542    0.0000 C   0  0  0  0  0  0  0  0  0  0  0  0
   -0.9875    6.3417    0.0000 C   0  0  0  0  0  0  0  0  0  0  0  0
   -1.6333    7.4667    0.0000 C   0  0  0  0  0  0  0  0  0  0  0  0
   -2.4500    5.4292    0.0000 C   0  0  0  0  0  0  0  0  0  0  0  0
   -3.1583    5.0250    0.0000 C   0  0  0  0  0  0  0  0  0  0  0  0
   -3.0208    1.0250    0.0000 C   0  0  0  0  0  0  0  0  0  0  0  0
   -2.4458    3.7958    0.0000 O   0  0  0  0  0  0  0  0  0  0  0  0
   -0.8458    7.6375    0.0000 C   0  0  0  0  0  0  0  0  0  0  0  0
   -0.4500    6.9500    0.0000 C   0  0  0  0  0  0  0  0  0  0  0  0
   -2.2583    8.0667    0.0000 O   0  0  0  0  0  0  0  0  0  0  0  0
   -0.7625    5.5000    0.0000 O   0  0  0  0  0  0  0  0  0  0  0  0
   -2.3958    2.7750    0.0000 C   0  0  0  0  0  0  0  0  0  0  0  0
   -4.6833    1.0250    0.0000 C   0  0  0  0  0  0  0  0  0  0  0  0
   -3.1583    6.6750    0.0000 C   0  0  0  0  0  0  0  0  0  0  0  0
   -2.1958    1.0250    0.0000 O   0  0  0  0  0  0  0  0  0  0  0  0
   -3.8708    5.4292    0.0000 C   0  0  0  0  0  0  0  0  0  0  0  0
   -3.8708    6.2542    0.0000 C   0  0  0  0  0  0  0  0  0  0  0  0
   -4.2833    0.3083    0.0000 C   0  0  0  0  0  0  0  0  0  0  0  0
   -3.4333    0.3083    0.0000 C   0  0  0  0  0  0  0  0  0  0  0  0
   -1.7708    1.7250    0.0000 C   0  0  0  0  0  0  0  0  0  0  0  0
  2  1  2  0  0  0  0
  3  1  1  0  0  0  0
  4  9  1  0  0  0  0
  5  1  1  0  0  0  0
  6  3  1  0  0  0  0
  7  5  1  0  0  0  0
  8  2  1  0  0  0  0
  9 12  1  0  0  0  0
 10  4  1  0  0  0  0
 11  4  1  0  0  0  0
 12 13  2  0  0  0  0
 13  8  1  0  0  0  0
 14  6  1  0  0  0  0
 15  8  2  0  0  0  0
 16 11  1  0  0  0  0
 17 10  1  0  0  0  0
 18 11  2  0  0  0  0
 19 10  2  0  0  0  0
 20  3  1  0  0  0  0
 21  7  1  0  0  0  0
 22 25  1  0  0  0  0
 23 14  1  0  0  0  0
 24 13  1  0  0  0  0
 25 24  2  0  0  0  0
 26 21  2  0  0  0  0
 27 14  2  0  0  0  0
 28 23  1  0  0  0  0
  7  6  2  0  0  0  0
 26 27  1  0  0  0  0
 22  9  2  0  0  0  0
 16 17  1  0  0  0  0
M  END
> <IDNUMBER>
F0834-1073

> <Chemical_Name>
3-(2,5-dioxopyrrolidin-1-yl)-N-[(2E)-4-methoxy-3-methyl-2,3-dihydro-1,3-benzothiazol-2-ylidene]benzamide

> <CAS>
477295-06-0

> <PriceCoeff>
1.00

> <MW>
395.43

> <Description>
solid

> <FSP3>
0.20

> <clogP>
2.87

> <TPSA>
104.58

> <Acceptor>
4

> <Donor>
0

> <RotBonds>
4

> <HAC>
28

> <Collection>
General

$$$$
F0536-0736
  -ISIS-  06222321452D

 28 31  0  0  0  0  0  0  0  0999 V2000
   -3.8708    2.9833    0.0000 C   0  0  0  0  0  0  0  0  0  0  0  0
   -3.8708    3.8000    0.0000 N   0  0  0  0  0  0  0  0  0  0  0  0
   -1.7375    6.7042    0.0000 N   0  0  3  0  0  0  0  0  0  0  0  0
   -3.1958    2.5083    0.0000 N   0  0  3  0  0  0  0  0  0  0  0  0
   -4.5083    2.5083    0.0000 S   0  0  0  0  0  0  0  0  0  0  0  0
   -3.4500    1.7375    0.0000 C   0  0  0  0  0  0  0  0  0  0  0  0
   -4.2833    1.7375    0.0000 C   0  0  0  0  0  0  0  0  0  0  0  0
   -3.1583    4.2042    0.0000 C   0  0  0  0  0  0  0  0  0  0  0  0
   -2.4375    6.2792    0.0000 C   0  0  0  0  0  0  0  0  0  0  0  0
   -0.9958    6.3917    0.0000 C   0  0  0  0  0  0  0  0  0  0  0  0
   -1.6458    7.5125    0.0000 C   0  0  0  0  0  0  0  0  0  0  0  0
   -3.0250    1.0250    0.0000 C   0  0  0  0  0  0  0  0  0  0  0  0
   -2.4458    5.4500    0.0000 C   0  0  0  0  0  0  0  0  0  0  0  0
   -3.1583    5.0292    0.0000 C   0  0  0  0  0  0  0  0  0  0  0  0
   -4.6708    1.0250    0.0000 C   0  0  0  0  0  0  0  0  0  0  0  0
   -3.4333    0.3125    0.0000 C   0  0  0  0  0  0  0  0  0  0  0  0
   -2.4458    3.8083    0.0000 O   0  0  0  0  0  0  0  0  0  0  0  0
   -0.8708    7.6917    0.0000 C   0  0  0  0  0  0  0  0  0  0  0  0
   -0.4708    7.0250    0.0000 C   0  0  0  0  0  0  0  0  0  0  0  0
   -2.3083    8.0875    0.0000 O   0  0  0  0  0  0  0  0  0  0  0  0
   -0.7458    5.5667    0.0000 O   0  0  0  0  0  0  0  0  0  0  0  0
   -4.2833    0.3125    0.0000 C   0  0  0  0  0  0  0  0  0  0  0  0
   -2.4083    2.7833    0.0000 C   0  0  0  0  0  0  0  0  0  0  0  0
   -3.1583    6.6875    0.0000 C   0  0  0  0  0  0  0  0  0  0  0  0
   -2.2083    1.0250    0.0000 C   0  0  0  0  0  0  0  0  0  0  0  0
   -3.8708    5.4417    0.0000 C   0  0  0  0  0  0  0  0  0  0  0  0
   -3.8708    6.2792    0.0000 C   0  0  0  0  0  0  0  0  0  0  0  0
   -4.7083   -0.4042    0.0000 C   0  0  0  0  0  0  0  0  0  0  0  0
  2  1  2  0  0  0  0
  3  9  1  0  0  0  0
  4  1  1  0  0  0  0
  5  1  1  0  0  0  0
  6  4  1  0  0  0  0
  7  5  1  0  0  0  0
  8  2  1  0  0  0  0
  9 13  1  0  0  0  0
 10  3  1  0  0  0  0
 11  3  1  0  0  0  0
 12  6  1  0  0  0  0
 13 14  2  0  0  0  0
 14  8  1  0  0  0  0
 15  7  1  0  0  0  0
 16 12  2  0  0  0  0
 17  8  2  0  0  0  0
 18 11  1  0  0  0  0
 19 10  1  0  0  0  0
 20 11  2  0  0  0  0
 21 10  2  0  0  0  0
 22 15  2  0  0  0  0
 23  4  1  0  0  0  0
 24 27  1  0  0  0  0
 25 12  1  0  0  0  0
 26 14  1  0  0  0  0
 27 26  2  0  0  0  0
 28 22  1  0  0  0  0
  6  7  2  0  0  0  0
 16 22  1  0  0  0  0
  9 24  2  0  0  0  0
 19 18  1  0  0  0  0
M  END
> <IDNUMBER>
F0536-0736

> <Chemical_Name>
3-(2,5-dioxopyrrolidin-1-yl)-N-[(2E)-3,4,6-trimethyl-2,3-dihydro-1,3-benzothiazol-2-ylidene]benzamide

> <CAS>
681163-76-8

> <PriceCoeff>
1.00

> <MW>
393.46

> <Description>
solid

> <FSP3>
0.24

> <clogP>
3.95

> <TPSA>
95.35

> <Acceptor>
3

> <Donor>
0

> <RotBonds>
3

> <HAC>
28

> <Collection>
General

$$$$
F1359-1296
  -ISIS-  06222321452D

 28 30  0  0  0  0  0  0  0  0999 V2000
   -1.1625    2.3833    0.0000 C   0  0  0  0  0  0  0  0  0  0  0  0
    1.3167    3.8083    0.0000 N   0  0  3  0  0  0  0  0  0  0  0  0
   -4.5833    3.2125    0.0000 S   0  0  3  0  0  0  0  0  0  0  0  0
   -1.6458    1.7208    0.0000 N   0  0  3  0  0  0  0  0  0  0  0  0
   -0.3375    2.3750    0.0000 N   0  0  0  0  0  0  0  0  0  0  0  0
   -1.6458    3.0500    0.0000 S   0  0  0  0  0  0  0  0  0  0  0  0
   -2.4333    2.7958    0.0000 C   0  0  0  0  0  0  0  0  0  0  0  0
   -2.4333    1.9708    0.0000 C   0  0  0  0  0  0  0  0  0  0  0  0
    2.1292    3.8833    0.0000 C   0  0  0  0  0  0  0  0  0  0  0  0
    0.9792    4.5417    0.0000 C   0  0  0  0  0  0  0  0  0  0  0  0
    0.0750    3.0875    0.0000 C   0  0  0  0  0  0  0  0  0  0  0  0
   -3.8583    2.7958    0.0000 C   0  0  0  0  0  0  0  0  0  0  0  0
   -3.1458    3.2083    0.0000 C   0  0  0  0  0  0  0  0  0  0  0  0
    0.9000    3.0875    0.0000 C   0  0  0  0  0  0  0  0  0  0  0  0
   -3.1458    1.5583    0.0000 C   0  0  0  0  0  0  0  0  0  0  0  0
   -4.1458    3.9083    0.0000 O   0  0  0  0  0  0  0  0  0  0  0  0
   -5.0208    2.5083    0.0000 O   0  0  0  0  0  0  0  0  0  0  0  0
   -5.2833    3.6458    0.0000 N   0  0  0  0  0  0  0  0  0  0  0  0
   -3.8583    1.9708    0.0000 C   0  0  0  0  0  0  0  0  0  0  0  0
    1.5917    5.0917    0.0000 C   0  0  0  0  0  0  0  0  0  0  0  0
    2.3125    4.6917    0.0000 C   0  0  0  0  0  0  0  0  0  0  0  0
    0.1792    4.7292    0.0000 O   0  0  0  0  0  0  0  0  0  0  0  0
    2.6875    3.2708    0.0000 O   0  0  0  0  0  0  0  0  0  0  0  0
   -0.3375    3.8000    0.0000 O   0  0  0  0  0  0  0  0  0  0  0  0
   -1.3958    0.9333    0.0000 C   0  0  0  0  0  0  0  0  0  0  0  0
   -2.7500    0.4875    0.0000 O   0  0  0  0  0  0  0  0  0  0  0  0
   -1.9458    0.3208    0.0000 C   0  0  0  0  0  0  0  0  0  0  0  0
   -3.3083   -0.1250    0.0000 C   0  0  0  0  0  0  0  0  0  0  0  0
  2 14  1  0  0  0  0
  3 12  1  0  0  0  0
  4  1  1  0  0  0  0
  5  1  2  0  0  0  0
  6  1  1  0  0  0  0
  7  6  1  0  0  0  0
  8  4  1  0  0  0  0
  9  2  1  0  0  0  0
 10  2  1  0  0  0  0
 11  5  1  0  0  0  0
 12 13  2  0  0  0  0
 13  7  1  0  0  0  0
 14 11  1  0  0  0  0
 15  8  1  0  0  0  0
 16  3  2  0  0  0  0
 17  3  2  0  0  0  0
 18  3  1  0  0  0  0
 19 15  2  0  0  0  0
 20 10  1  0  0  0  0
 21  9  1  0  0  0  0
 22 10  2  0  0  0  0
 23  9  2  0  0  0  0
 24 11  2  0  0  0  0
 25  4  1  0  0  0  0
 26 27  1  0  0  0  0
 27 25  1  0  0  0  0
 28 26  1  0  0  0  0
  8  7  2  0  0  0  0
 19 12  1  0  0  0  0
 21 20  1  0  0  0  0
M  END
> <IDNUMBER>
F1359-1296

> <Chemical_Name>
2-(2,5-dioxopyrrolidin-1-yl)-N-[(2Z)-3-(2-methoxyethyl)-6-sulfamoyl-2,3-dihydro-1,3-benzothiazol-2-ylidene]acetamide

> <CAS>
1164566-21-5

> <PriceCoeff>
1.00

> <MW>
426.47

> <Description>
solid

> <FSP3>
0.38

> <clogP>
0.70

> <TPSA>
173.12

> <Acceptor>
6

> <Donor>
1

> <RotBonds>
7

> <HAC>
28

> <Collection>
General

$$$$
F1814-0649
  -ISIS-  06222321452D

 28 31  0  0  0  0  0  0  0  0999 V2000
   -5.2833    2.1875    0.0000 C   0  0  0  0  0  0  0  0  0  0  0  0
   -4.5833    2.5958    0.0000 N   0  0  0  0  0  0  0  0  0  0  0  0
   -5.3583    1.3500    0.0000 N   0  0  3  0  0  0  0  0  0  0  0  0
   -6.0292    2.5208    0.0000 S   0  0  0  0  0  0  0  0  0  0  0  0
   -1.7208    3.3833    0.0000 N   0  0  3  0  0  0  0  0  0  0  0  0
   -6.1667    1.1750    0.0000 C   0  0  0  0  0  0  0  0  0  0  0  0
   -6.5917    1.9083    0.0000 C   0  0  0  0  0  0  0  0  0  0  0  0
   -4.5833    3.3958    0.0000 C   0  0  0  0  0  0  0  0  0  0  0  0
   -2.4375    3.8083    0.0000 C   0  0  0  0  0  0  0  0  0  0  0  0
   -1.6750    2.5583    0.0000 C   0  0  0  0  0  0  0  0  0  0  0  0
   -0.9500    3.6958    0.0000 C   0  0  0  0  0  0  0  0  0  0  0  0
   -7.4292    1.9083    0.0000 C   0  0  0  0  0  0  0  0  0  0  0  0
   -3.1583    3.3958    0.0000 C   0  0  0  0  0  0  0  0  0  0  0  0
   -3.8708    3.8000    0.0000 C   0  0  0  0  0  0  0  0  0  0  0  0
   -6.5917    0.4500    0.0000 C   0  0  0  0  0  0  0  0  0  0  0  0
   -7.8417    1.1750    0.0000 C   0  0  0  0  0  0  0  0  0  0  0  0
   -5.2708    3.7958    0.0000 O   0  0  0  0  0  0  0  0  0  0  0  0
   -0.8583    2.3583    0.0000 C   0  0  0  0  0  0  0  0  0  0  0  0
   -0.4208    3.0583    0.0000 C   0  0  0  0  0  0  0  0  0  0  0  0
   -2.3083    2.0375    0.0000 O   0  0  0  0  0  0  0  0  0  0  0  0
   -0.7375    4.4667    0.0000 O   0  0  0  0  0  0  0  0  0  0  0  0
   -7.4292    0.4458    0.0000 C   0  0  0  0  0  0  0  0  0  0  0  0
   -4.7708    0.8125    0.0000 C   0  0  0  0  0  0  0  0  0  0  0  0
   -2.4333    4.6167    0.0000 C   0  0  0  0  0  0  0  0  0  0  0  0
   -7.8417    2.6083    0.0000 C   0  0  0  0  0  0  0  0  0  0  0  0
   -3.8625    4.6292    0.0000 C   0  0  0  0  0  0  0  0  0  0  0  0
   -3.1458    5.0417    0.0000 C   0  0  0  0  0  0  0  0  0  0  0  0
   -7.8375   -0.2667    0.0000 C   0  0  0  0  0  0  0  0  0  0  0  0
  2  1  2  0  0  0  0
  3  1  1  0  0  0  0
  4  1  1  0  0  0  0
  5  9  1  0  0  0  0
  6  3  1  0  0  0  0
  7  4  1  0  0  0  0
  8  2  1  0  0  0  0
  9 13  1  0  0  0  0
 10  5  1  0  0  0  0
 11  5  1  0  0  0  0
 12  7  1  0  0  0  0
 13 14  2  0  0  0  0
 14  8  1  0  0  0  0
 15  6  1  0  0  0  0
 16 12  2  0  0  0  0
 17  8  2  0  0  0  0
 18 10  1  0  0  0  0
 19 11  1  0  0  0  0
 20 10  2  0  0  0  0
 21 11  2  0  0  0  0
 22 15  2  0  0  0  0
 23  3  1  0  0  0  0
 24 27  1  0  0  0  0
 25 12  1  0  0  0  0
 26 14  1  0  0  0  0
 27 26  2  0  0  0  0
 28 22  1  0  0  0  0
  6  7  2  0  0  0  0
 16 22  1  0  0  0  0
 24  9  2  0  0  0  0
 19 18  1  0  0  0  0
M  END
> <IDNUMBER>
F1814-0649

> <Chemical_Name>
3-(2,5-dioxopyrrolidin-1-yl)-N-[(2Z)-3,5,7-trimethyl-2,3-dihydro-1,3-benzothiazol-2-ylidene]benzamide

> <CAS>
868369-91-9

> <PriceCoeff>
1.00

> <MW>
393.46

> <Description>
solid

> <FSP3>
0.24

> <clogP>
3.95

> <TPSA>
95.35

> <Acceptor>
3

> <Donor>
0

> <RotBonds>
3

> <HAC>
28

> <Collection>
General

$$$$
F1345-0291
  -ISIS-  06222304352D

 35 38  0  0  0  0  0  0  0  0999 V2000
    1.6667   -1.1542    0.0000 N   0  0  3  0  0  0  0  0  0  0  0  0
    1.1792   -1.8250    0.0000 C   0  0  0  0  0  0  0  0  0  0  0  0
    1.1875   -0.4792    0.0000 C   0  0  0  0  0  0  0  0  0  0  0  0
    0.4000   -1.5625    0.0000 C   0  0  0  0  0  0  0  0  0  0  0  0
    0.4000   -0.7417    0.0000 C   0  0  0  0  0  0  0  0  0  0  0  0
    2.5042   -1.1542    0.0000 C   0  0  0  0  0  0  0  0  0  0  0  0
    4.1542   -2.6042    0.0000 N   0  0  0  0  0  0  0  0  0  0  0  0
    2.9167   -1.8792    0.0000 C   0  0  3  0  0  0  0  0  0  0  0  0
    4.9792   -2.6042    0.0000 C   0  0  3  0  0  0  0  0  0  0  0  0
    5.4000   -1.8917    0.0000 C   0  0  0  0  0  0  0  0  0  0  0  0
    3.7417   -1.8792    0.0000 C   0  0  0  0  0  0  0  0  0  0  0  0
    1.3667    0.3208    0.0000 C   0  0  0  0  0  0  0  0  0  0  0  0
    1.3542   -2.6292    0.0000 C   0  0  0  0  0  0  0  0  0  0  0  0
   -0.2208   -2.1125    0.0000 C   0  0  0  0  0  0  0  0  0  0  0  0
   -0.2083   -0.1792    0.0000 C   0  0  0  0  0  0  0  0  0  0  0  0
    2.5000   -2.5917    0.0000 O   0  0  0  0  0  0  0  0  0  0  0  0
    6.2375   -1.8917    0.0000 C   0  0  0  0  0  0  0  0  0  0  0  0
    4.9875   -1.1750    0.0000 C   0  0  0  0  0  0  0  0  0  0  0  0
    5.4000   -3.3292    0.0000 C   0  0  0  0  0  0  0  0  0  0  0  0
   -0.0458   -2.9250    0.0000 C   0  0  0  0  0  0  0  0  0  0  0  0
   -0.0333    0.6250    0.0000 C   0  0  0  0  0  0  0  0  0  0  0  0
    0.7292   -3.1792    0.0000 C   0  0  0  0  0  0  0  0  0  0  0  0
    0.7542    0.8708    0.0000 C   0  0  0  0  0  0  0  0  0  0  0  0
    6.6417   -1.1750    0.0000 C   0  0  0  0  0  0  0  0  0  0  0  0
    5.4042   -0.4542    0.0000 C   0  0  0  0  0  0  0  0  0  0  0  0
    6.2375   -0.4542    0.0000 C   0  0  0  0  0  0  0  0  0  0  0  0
    9.7954   -0.6407    0.0000 C   0  0  0  0  0  0  0  0  0  0  0  0
    9.4936    0.1316    0.0000 O   0  0  0  0  0  0  0  0  0  0  0  0
    9.2762   -1.2870    0.0000 C   0  0  0  0  0  0  0  0  0  0  0  0
   10.6094   -0.7605    0.0000 O   0  0  0  0  0  0  0  0  0  0  0  0
    8.4553   -1.1609    0.0000 C   0  0  0  0  0  0  0  0  0  0  0  0
    9.5740   -2.0608    0.0000 C   0  0  0  0  0  0  0  0  0  0  0  0
    7.9346   -1.8033    0.0000 C   0  0  0  0  0  0  0  0  0  0  0  0
    9.0510   -2.7086    0.0000 C   0  0  0  0  0  0  0  0  0  0  0  0
    8.2325   -2.5772    0.0000 C   0  0  0  0  0  0  0  0  0  0  0  0
 11  8  1  0  0  0  0
 12  3  1  0  0  0  0
 13  2  1  0  0  0  0
 14  4  1  0  0  0  0
 15  5  1  0  0  0  0
 16  8  1  0  0  0  0
 17 10  1  0  0  0  0
 18 10  2  0  0  0  0
 19  9  1  0  0  0  0
 20 22  1  0  0  0  0
 21 23  1  0  0  0  0
 22 13  2  0  0  0  0
 23 12  2  0  0  0  0
 24 17  2  0  0  0  0
 25 18  1  0  0  0  0
 26 25  2  0  0  0  0
  4  5  1  0  0  0  0
 15 21  2  0  0  0  0
 14 20  2  0  0  0  0
 24 26  1  0  0  0  0
  2  1  1  0  0  0  0
  3  1  1  0  0  0  0
  4  2  2  0  0  0  0
  5  3  2  0  0  0  0
  6  1  1  0  0  0  0
  7 11  1  0  0  0  0
  8  6  1  0  0  0  0
  9  7  1  0  0  0  0
 10  9  1  0  0  0  0
 28 27  2  0  0  0  0
 29 27  1  0  0  0  0
 30 27  1  0  0  0  0
 31 29  2  0  0  0  0
 32 29  1  0  0  0  0
 33 31  1  0  0  0  0
 34 32  2  0  0  0  0
 35 34  1  0  0  0  0
 35 33  2  0  0  0  0
M  END
> <IDNUMBER>
F1345-0291

> <Chemical_Name>
1-(9H-carbazol-9-yl)-3-[(1-phenylethyl)amino]propan-2-ol; benzoic acid

> <CAS>
479542-50-2

> <PriceCoeff>
1.00

> <MW>
344.45

> <Description>
solid

> <FSP3>
0.22

> <clogP>
4.92

> <TPSA>
37.19

> <Acceptor>
1

> <Donor>
2

> <RotBonds>
6

> <HAC>
26

> <Collection>
General

> <Reference_compound>
PRI1826

> <Similarity>
0.8570

$$$$
F2743-0102
  -ISIS-  06222321462D

 27 29  0  0  0  0  0  0  0  0999 V2000
   -2.7583    2.1625    0.0000 C   0  0  0  0  0  0  0  0  0  0  0  0
   -2.7583    1.3375    0.0000 C   0  0  0  0  0  0  0  0  0  0  0  0
   -0.8333    6.0125    0.0000 N   0  3  0  0  0  0  0  0  0  0  0  0
   -0.4708    5.1375    0.0000 C   0  0  0  0  0  0  0  0  0  0  0  0
   -3.4708    0.9333    0.0000 N   0  0  3  0  0  0  0  0  0  0  0  0
   -2.2083    2.8958    0.0000 C   0  0  0  0  0  0  0  0  0  0  0  0
   -1.2750    2.7708    0.0000 N   0  0  0  0  0  0  0  0  0  0  0  0
   -1.0583    4.3875    0.0000 C   0  0  0  0  0  0  0  0  0  0  0  0
   -3.4708    2.5833    0.0000 C   0  0  0  0  0  0  0  0  0  0  0  0
    0.4667    5.0125    0.0000 C   0  0  0  0  0  0  0  0  0  0  0  0
   -4.1750    1.3375    0.0000 C   0  0  0  0  0  0  0  0  0  0  0  0
   -0.2583    6.7625    0.0000 O   0  5  0  0  0  0  0  0  0  0  0  0
   -3.4708   -0.0167    0.0000 C   0  0  0  0  0  0  0  0  0  0  0  0
   -1.7708    6.1417    0.0000 O   0  0  0  0  0  0  0  0  0  0  0  0
   -0.6958    3.5208    0.0000 C   0  0  0  0  0  0  0  0  0  0  0  0
   -1.8333    1.4875    0.0000 O   0  0  0  0  0  0  0  0  0  0  0  0
   -4.1750    2.1625    0.0000 C   0  0  0  0  0  0  0  0  0  0  0  0
   -2.5500    3.8000    0.0000 O   0  0  0  0  0  0  0  0  0  0  0  0
    0.8167    4.1292    0.0000 C   0  0  0  0  0  0  0  0  0  0  0  0
    0.2417    3.3833    0.0000 C   0  0  0  0  0  0  0  0  0  0  0  0
    1.0417    5.7625    0.0000 Cl  0  0  0  0  0  0  0  0  0  0  0  0
   -2.6458   -0.4875    0.0000 C   0  0  0  0  0  0  0  0  0  0  0  0
   -2.6333   -1.4292    0.0000 C   0  0  0  0  0  0  0  0  0  0  0  0
   -1.8208   -0.0000    0.0000 C   0  0  0  0  0  0  0  0  0  0  0  0
   -1.8125   -1.8875    0.0000 C   0  0  0  0  0  0  0  0  0  0  0  0
   -0.9958   -0.4667    0.0000 C   0  0  0  0  0  0  0  0  0  0  0  0
   -0.9958   -1.4125    0.0000 C   0  0  0  0  0  0  0  0  0  0  0  0
  2  1  1  0  0  0  0
  3  4  1  0  0  0  0
  4  8  2  0  0  0  0
  5  2  1  0  0  0  0
  6  1  1  0  0  0  0
  7  6  1  0  0  0  0
  8 15  1  0  0  0  0
  9  1  2  0  0  0  0
 10 19  2  0  0  0  0
 11 17  2  0  0  0  0
 12  3  1  0  0  0  0
 13  5  1  0  0  0  0
 14  3  2  0  0  0  0
 15  7  1  0  0  0  0
 16  2  2  0  0  0  0
 17  9  1  0  0  0  0
 18  6  2  0  0  0  0
 19 20  1  0  0  0  0
 20 15  2  0  0  0  0
 21 10  1  0  0  0  0
 22 13  1  0  0  0  0
 23 22  2  0  0  0  0
 24 22  1  0  0  0  0
 25 23  1  0  0  0  0
 26 24  2  0  0  0  0
 27 26  1  0  0  0  0
  5 11  1  0  0  0  0
 10  4  1  0  0  0  0
 27 25  2  0  0  0  0
M  CHG  2   3   1  12  -1
M  END
> <IDNUMBER>
F2743-0102

> <Chemical_Name>
1-benzyl-N-(4-chloro-3-nitrophenyl)-2-oxo-1,2-dihydropyridine-3-carboxamide

> <CAS>
946301-32-2

> <PriceCoeff>
1.00

> <MW>
383.79

> <Description>
solid

> <FSP3>
0.05

> <clogP>
3.35

> <TPSA>
92.55

> <Acceptor>
4

> <Donor>
1

> <RotBonds>
5

> <HAC>
27

> <Collection>
General

$$$$
F2744-0102
  -ISIS-  06222321462D

 27 29  0  0  0  0  0  0  0  0999 V2000
   -2.4583    2.6708    0.0000 C   0  0  0  0  0  0  0  0  0  0  0  0
   -0.1833    5.7042    0.0000 N   0  3  0  0  0  0  0  0  0  0  0  0
   -3.1708    1.4333    0.0000 N   0  0  3  0  0  0  0  0  0  0  0  0
    0.0417    4.8792    0.0000 C   0  0  0  0  0  0  0  0  0  0  0  0
   -2.4583    1.8458    0.0000 C   0  0  0  0  0  0  0  0  0  0  0  0
   -1.7458    3.0833    0.0000 C   0  0  0  0  0  0  0  0  0  0  0  0
   -3.8750    1.8458    0.0000 C   0  0  0  0  0  0  0  0  0  0  0  0
   -3.1708    3.0833    0.0000 C   0  0  0  0  0  0  0  0  0  0  0  0
   -3.8750    2.6708    0.0000 C   0  0  0  0  0  0  0  0  0  0  0  0
   -0.9250    2.8708    0.0000 N   0  0  0  0  0  0  0  0  0  0  0  0
   -0.5583    4.2792    0.0000 C   0  0  0  0  0  0  0  0  0  0  0  0
    0.8542    4.6667    0.0000 C   0  0  0  0  0  0  0  0  0  0  0  0
    0.4042    6.3042    0.0000 O   0  5  0  0  0  0  0  0  0  0  0  0
   -3.1708    0.5875    0.0000 C   0  0  0  0  0  0  0  0  0  0  0  0
   -1.0083    5.9167    0.0000 O   0  0  0  0  0  0  0  0  0  0  0  0
   -0.3333    3.4708    0.0000 C   0  0  0  0  0  0  0  0  0  0  0  0
   -2.1583    3.8000    0.0000 O   0  0  0  0  0  0  0  0  0  0  0  0
   -4.5625    1.8958    0.0000 O   0  0  0  0  0  0  0  0  0  0  0  0
    1.0792    3.8708    0.0000 C   0  0  0  0  0  0  0  0  0  0  0  0
    0.4875    3.2583    0.0000 C   0  0  0  0  0  0  0  0  0  0  0  0
    1.4500    5.2792    0.0000 Cl  0  0  0  0  0  0  0  0  0  0  0  0
   -2.4333    0.1708    0.0000 C   0  0  0  0  0  0  0  0  0  0  0  0
   -2.4250   -0.6750    0.0000 C   0  0  0  0  0  0  0  0  0  0  0  0
   -1.6958    0.6083    0.0000 C   0  0  0  0  0  0  0  0  0  0  0  0
   -1.6875   -1.0792    0.0000 C   0  0  0  0  0  0  0  0  0  0  0  0
   -0.9583    0.1833    0.0000 C   0  0  0  0  0  0  0  0  0  0  0  0
   -0.9583   -0.6542    0.0000 C   0  0  0  0  0  0  0  0  0  0  0  0
  2  4  1  0  0  0  0
  3  5  1  0  0  0  0
  4 11  2  0  0  0  0
  5  1  2  0  0  0  0
  6  1  1  0  0  0  0
  7  9  1  0  0  0  0
  8  1  1  0  0  0  0
  9  8  2  0  0  0  0
 10  6  1  0  0  0  0
 11 16  1  0  0  0  0
 12 19  2  0  0  0  0
 13  2  1  0  0  0  0
 14  3  1  0  0  0  0
 15  2  2  0  0  0  0
 16 10  1  0  0  0  0
 17  6  2  0  0  0  0
 18  7  2  0  0  0  0
 19 20  1  0  0  0  0
 20 16  2  0  0  0  0
 21 12  1  0  0  0  0
 22 14  1  0  0  0  0
 23 22  2  0  0  0  0
 24 22  1  0  0  0  0
 25 23  1  0  0  0  0
 26 24  2  0  0  0  0
 27 26  1  0  0  0  0
  3  7  1  0  0  0  0
 12  4  1  0  0  0  0
 27 25  2  0  0  0  0
M  CHG  2   2   1  13  -1
M  END
> <IDNUMBER>
F2744-0102

> <Chemical_Name>
1-benzyl-N-(4-chloro-3-nitrophenyl)-6-oxo-1,6-dihydropyridine-3-carboxamide

> <CAS>
942009-00-9

> <PriceCoeff>
1.00

> <MW>
383.79

> <Description>
solid

> <FSP3>
0.05

> <clogP>
3.35

> <TPSA>
92.55

> <Acceptor>
4

> <Donor>
1

> <RotBonds>
5

> <HAC>
27

> <Collection>
General

$$$$
F1814-1673
  -ISIS-  06222321142D

 28 31  0  0  0  0  0  0  0  0999 V2000
   -4.5708    2.6000    0.0000 C   0  0  0  0  0  0  0  0  0  0  0  0
   -3.8625    3.0083    0.0000 N   0  0  0  0  0  0  0  0  0  0  0  0
   -4.6583    1.7708    0.0000 N   0  0  3  0  0  0  0  0  0  0  0  0
   -1.0208    3.8000    0.0000 N   0  0  3  0  0  0  0  0  0  0  0  0
   -5.3333    2.9458    0.0000 S   0  0  0  0  0  0  0  0  0  0  0  0
   -5.4833    1.6000    0.0000 C   0  0  0  0  0  0  0  0  0  0  0  0
   -5.8958    2.3333    0.0000 C   0  0  0  0  0  0  0  0  0  0  0  0
   -3.8708    3.8000    0.0000 C   0  0  0  0  0  0  0  0  0  0  0  0
   -1.7333    4.2042    0.0000 C   0  0  0  0  0  0  0  0  0  0  0  0
   -5.9083    0.8833    0.0000 C   0  0  0  0  0  0  0  0  0  0  0  0
   -0.2583    4.0917    0.0000 C   0  0  0  0  0  0  0  0  0  0  0  0
   -0.9708    2.9833    0.0000 C   0  0  0  0  0  0  0  0  0  0  0  0
   -6.7292    2.3333    0.0000 C   0  0  0  0  0  0  0  0  0  0  0  0
   -2.4458    3.8083    0.0000 C   0  0  0  0  0  0  0  0  0  0  0  0
   -6.7292    0.8833    0.0000 C   0  0  0  0  0  0  0  0  0  0  0  0
   -3.1583    4.2042    0.0000 C   0  0  0  0  0  0  0  0  0  0  0  0
   -7.1417    1.6083    0.0000 C   0  0  0  0  0  0  0  0  0  0  0  0
   -4.5583    4.2000    0.0000 O   0  0  0  0  0  0  0  0  0  0  0  0
    0.2750    3.4708    0.0000 C   0  0  0  0  0  0  0  0  0  0  0  0
   -0.1583    2.7833    0.0000 C   0  0  0  0  0  0  0  0  0  0  0  0
   -0.0375    4.8875    0.0000 O   0  0  0  0  0  0  0  0  0  0  0  0
   -1.6083    2.4583    0.0000 O   0  0  0  0  0  0  0  0  0  0  0  0
   -5.4958    0.1625    0.0000 F   0  0  0  0  0  0  0  0  0  0  0  0
   -4.0625    1.2250    0.0000 C   0  0  0  0  0  0  0  0  0  0  0  0
   -7.9417    1.6083    0.0000 F   0  0  0  0  0  0  0  0  0  0  0  0
   -1.7250    5.0292    0.0000 C   0  0  0  0  0  0  0  0  0  0  0  0
   -3.1583    5.0292    0.0000 C   0  0  0  0  0  0  0  0  0  0  0  0
   -2.4375    5.4417    0.0000 C   0  0  0  0  0  0  0  0  0  0  0  0
  2  1  2  0  0  0  0
  3  1  1  0  0  0  0
  4  9  1  0  0  0  0
  5  1  1  0  0  0  0
  6  3  1  0  0  0  0
  7  5  1  0  0  0  0
  8  2  1  0  0  0  0
  9 14  1  0  0  0  0
 10  6  1  0  0  0  0
 11  4  1  0  0  0  0
 12  4  1  0  0  0  0
 13  7  1  0  0  0  0
 14 16  2  0  0  0  0
 15 10  2  0  0  0  0
 16  8  1  0  0  0  0
 17 13  2  0  0  0  0
 18  8  2  0  0  0  0
 19 11  1  0  0  0  0
 20 12  1  0  0  0  0
 21 11  2  0  0  0  0
 22 12  2  0  0  0  0
 23 10  1  0  0  0  0
 24  3  1  0  0  0  0
 25 17  1  0  0  0  0
 26 28  1  0  0  0  0
 27 16  1  0  0  0  0
 28 27  2  0  0  0  0
  7  6  2  0  0  0  0
 15 17  1  0  0  0  0
 26  9  2  0  0  0  0
 19 20  1  0  0  0  0
M  END
> <IDNUMBER>
F1814-1673

> <Chemical_Name>
N-[(2Z)-4,6-difluoro-3-methyl-2,3-dihydro-1,3-benzothiazol-2-ylidene]-3-(2,5-dioxopyrrolidin-1-yl)benzamide

> <CAS>
868375-22-8

> <PriceCoeff>
1.00

> <MW>
401.39

> <Description>
solid

> <FSP3>
0.16

> <clogP>
3.24

> <TPSA>
95.35

> <Acceptor>
3

> <Donor>
0

> <RotBonds>
3

> <HAC>
28

> <Collection>
General

$$$$
F2874-0017
  -ISIS-  06222321152D

 27 29  0  0  0  0  0  0  0  0999 V2000
   -1.2125    6.1417    0.0000 N   0  0  0  0  0  0  0  0  0  0  0  0
   -5.2833    6.1417    0.0000 N   0  3  0  0  0  0  0  0  0  0  0  0
   -5.2833    5.3542    0.0000 C   0  0  0  0  0  0  0  0  0  0  0  0
   -0.5375    6.5417    0.0000 N   0  0  3  0  0  0  0  0  0  0  0  0
   -1.8958    6.5417    0.0000 C   0  0  0  0  0  0  0  0  0  0  0  0
   -0.5375    7.3250    0.0000 C   0  0  0  0  0  0  0  0  0  0  0  0
   -3.9250    3.8000    0.0000 C   0  0  0  0  0  0  0  0  0  0  0  0
   -4.6000    4.9667    0.0000 C   0  0  0  0  0  0  0  0  0  0  0  0
   -1.2125    7.7125    0.0000 C   0  0  0  0  0  0  0  0  0  0  0  0
   -4.6083    4.1875    0.0000 C   0  0  0  0  0  0  0  0  0  0  0  0
   -1.8958    7.3250    0.0000 C   0  0  0  0  0  0  0  0  0  0  0  0
   -3.2458    4.1917    0.0000 N   0  0  0  0  0  0  0  0  0  0  0  0
   -2.5708    6.1542    0.0000 C   0  0  0  0  0  0  0  0  0  0  0  0
   -5.9708    4.9667    0.0000 C   0  0  0  0  0  0  0  0  0  0  0  0
   -4.6083    6.5417    0.0000 O   0  5  0  0  0  0  0  0  0  0  0  0
   -5.9708    6.5292    0.0000 O   0  0  0  0  0  0  0  0  0  0  0  0
   -3.2458    4.9667    0.0000 C   0  0  0  0  0  0  0  0  0  0  0  0
   -2.5708    5.3667    0.0000 C   0  0  0  0  0  0  0  0  0  0  0  0
   -3.9250    3.0208    0.0000 O   0  0  0  0  0  0  0  0  0  0  0  0
    0.1417    7.7167    0.0000 O   0  0  0  0  0  0  0  0  0  0  0  0
   -5.2833    3.7958    0.0000 C   0  0  0  0  0  0  0  0  0  0  0  0
   -5.9583    4.1792    0.0000 C   0  0  0  0  0  0  0  0  0  0  0  0
   -6.6375    5.3542    0.0000 Cl  0  0  0  0  0  0  0  0  0  0  0  0
    0.1417    6.1500    0.0000 C   0  0  0  0  0  0  0  0  0  0  0  0
   -3.2458    6.5417    0.0000 C   0  0  0  0  0  0  0  0  0  0  0  0
   -3.9333    6.1542    0.0000 C   0  0  0  0  0  0  0  0  0  0  0  0
   -3.9333    5.3667    0.0000 C   0  0  0  0  0  0  0  0  0  0  0  0
  2  3  1  0  0  0  0
  3  8  1  0  0  0  0
  4  1  1  0  0  0  0
  5  1  2  0  0  0  0
  6  4  1  0  0  0  0
  7 12  1  0  0  0  0
  8 10  2  0  0  0  0
  9 11  2  0  0  0  0
 10  7  1  0  0  0  0
 11  5  1  0  0  0  0
 12 17  1  0  0  0  0
 13  5  1  0  0  0  0
 14 22  1  0  0  0  0
 15  2  1  0  0  0  0
 16  2  2  0  0  0  0
 17 18  2  0  0  0  0
 18 13  1  0  0  0  0
 19  7  2  0  0  0  0
 20  6  2  0  0  0  0
 21 10  1  0  0  0  0
 22 21  2  0  0  0  0
 23 14  1  0  0  0  0
 24  4  1  0  0  0  0
 25 13  2  0  0  0  0
 26 25  1  0  0  0  0
 27 26  2  0  0  0  0
  9  6  1  0  0  0  0
 27 17  1  0  0  0  0
 14  3  2  0  0  0  0
M  CHG  2   2   1  15  -1
M  END
> <IDNUMBER>
F2874-0017

> <Chemical_Name>
4-chloro-N-[3-(1-methyl-6-oxo-1,6-dihydropyridazin-3-yl)phenyl]-3-nitrobenzamide

> <CAS>
941920-65-6

> <PriceCoeff>
1.00

> <MW>
384.77

> <Description>
solid

> <FSP3>
0.06

> <clogP>
2.66

> <TPSA>
104.91

> <Acceptor>
5

> <Donor>
2

> <RotBonds>
4

> <HAC>
27

> <Collection>
General

$$$$
F1814-0650
  -ISIS-  06222321142D

 28 31  0  0  0  0  0  0  0  0999 V2000
   -5.2833    2.1875    0.0000 C   0  0  0  0  0  0  0  0  0  0  0  0
   -4.5833    2.5958    0.0000 N   0  0  0  0  0  0  0  0  0  0  0  0
   -6.0292    2.5208    0.0000 S   0  0  0  0  0  0  0  0  0  0  0  0
   -5.3583    1.3500    0.0000 N   0  0  3  0  0  0  0  0  0  0  0  0
   -1.7208    3.3833    0.0000 N   0  0  3  0  0  0  0  0  0  0  0  0
   -6.5917    1.8958    0.0000 C   0  0  0  0  0  0  0  0  0  0  0  0
   -6.1667    1.1750    0.0000 C   0  0  0  0  0  0  0  0  0  0  0  0
   -4.5833    3.3958    0.0000 C   0  0  0  0  0  0  0  0  0  0  0  0
   -2.4375    3.8083    0.0000 C   0  0  0  0  0  0  0  0  0  0  0  0
   -1.6750    2.5583    0.0000 C   0  0  0  0  0  0  0  0  0  0  0  0
   -0.9500    3.6958    0.0000 C   0  0  0  0  0  0  0  0  0  0  0  0
   -3.1583    3.3958    0.0000 C   0  0  0  0  0  0  0  0  0  0  0  0
   -3.8708    3.8000    0.0000 C   0  0  0  0  0  0  0  0  0  0  0  0
   -7.4375    1.8958    0.0000 C   0  0  0  0  0  0  0  0  0  0  0  0
   -6.5917    0.4500    0.0000 C   0  0  0  0  0  0  0  0  0  0  0  0
   -5.2833    3.7958    0.0000 O   0  0  0  0  0  0  0  0  0  0  0  0
   -0.4208    3.0583    0.0000 C   0  0  0  0  0  0  0  0  0  0  0  0
   -0.8583    2.3583    0.0000 C   0  0  0  0  0  0  0  0  0  0  0  0
   -0.7375    4.4667    0.0000 O   0  0  0  0  0  0  0  0  0  0  0  0
   -2.3083    2.0375    0.0000 O   0  0  0  0  0  0  0  0  0  0  0  0
   -7.8542    1.1708    0.0000 C   0  0  0  0  0  0  0  0  0  0  0  0
   -7.4292    0.4458    0.0000 C   0  0  0  0  0  0  0  0  0  0  0  0
   -4.7708    0.8083    0.0000 C   0  0  0  0  0  0  0  0  0  0  0  0
   -2.4333    4.6167    0.0000 C   0  0  0  0  0  0  0  0  0  0  0  0
   -3.8625    4.6292    0.0000 C   0  0  0  0  0  0  0  0  0  0  0  0
   -3.1458    5.0417    0.0000 C   0  0  0  0  0  0  0  0  0  0  0  0
   -7.8417    2.6083    0.0000 C   0  0  0  0  0  0  0  0  0  0  0  0
   -6.1792   -0.2542    0.0000 C   0  0  0  0  0  0  0  0  0  0  0  0
  2  1  2  0  0  0  0
  3  1  1  0  0  0  0
  4  1  1  0  0  0  0
  5  9  1  0  0  0  0
  6  3  1  0  0  0  0
  7  4  1  0  0  0  0
  8  2  1  0  0  0  0
  9 12  1  0  0  0  0
 10  5  1  0  0  0  0
 11  5  1  0  0  0  0
 12 13  2  0  0  0  0
 13  8  1  0  0  0  0
 14  6  1  0  0  0  0
 15  7  1  0  0  0  0
 16  8  2  0  0  0  0
 17 11  1  0  0  0  0
 18 10  1  0  0  0  0
 19 11  2  0  0  0  0
 20 10  2  0  0  0  0
 21 14  2  0  0  0  0
 22 15  2  0  0  0  0
 23  4  1  0  0  0  0
 24 26  1  0  0  0  0
 25 13  1  0  0  0  0
 26 25  2  0  0  0  0
 27 14  1  0  0  0  0
 28 15  1  0  0  0  0
  7  6  2  0  0  0  0
 21 22  1  0  0  0  0
 24  9  2  0  0  0  0
 17 18  1  0  0  0  0
M  END
> <IDNUMBER>
F1814-0650

> <Chemical_Name>
3-(2,5-dioxopyrrolidin-1-yl)-N-[(2Z)-3,4,7-trimethyl-2,3-dihydro-1,3-benzothiazol-2-ylidene]benzamide

> <CAS>
1321774-58-6

> <PriceCoeff>
1.00

> <MW>
393.46

> <Description>
solid

> <FSP3>
0.24

> <clogP>
3.95

> <TPSA>
95.35

> <Acceptor>
3

> <Donor>
0

> <RotBonds>
3

> <HAC>
28

> <Collection>
General

$$$$
F3244-0174
  -ISIS-  06222321152D

 26 29  0  0  0  0  0  0  0  0999 V2000
    5.9250   -4.4417    0.0000 C   0  0  0  0  0  0  0  0  0  0  0  0
    6.2542   -3.6917    0.0000 C   0  0  0  0  0  0  0  0  0  0  0  0
    5.0500   -5.4500    0.0000 C   0  0  0  0  0  0  0  0  0  0  0  0
    7.0792   -2.6417    0.0000 C   0  0  0  0  0  0  0  0  0  0  0  0
    5.1292   -4.6292    0.0000 C   0  0  0  0  0  0  0  0  0  0  0  0
    7.0417   -3.4667    0.0000 O   0  0  0  0  0  0  0  0  0  0  0  0
    5.0542   -7.1042    0.0000 N   0  3  0  0  0  0  0  0  0  0  0  0
    5.7917   -3.0042    0.0000 N   0  0  0  0  0  0  0  0  0  0  0  0
    6.3042   -2.3542    0.0000 N   0  0  0  0  0  0  0  0  0  0  0  0
    4.3375   -5.8667    0.0000 C   0  0  0  0  0  0  0  0  0  0  0  0
    6.3542   -5.1667    0.0000 C   0  0  0  0  0  0  0  0  0  0  0  0
    4.3375   -6.6917    0.0000 C   0  0  0  0  0  0  0  0  0  0  0  0
    5.8042   -5.7792    0.0000 O   0  0  0  0  0  0  0  0  0  0  0  0
    7.7625   -2.1792    0.0000 C   0  0  0  0  0  0  0  0  0  0  0  0
    3.6167   -7.1042    0.0000 C   0  0  0  0  0  0  0  0  0  0  0  0
    3.6167   -5.4542    0.0000 C   0  0  0  0  0  0  0  0  0  0  0  0
    5.0542   -7.9292    0.0000 O   0  5  0  0  0  0  0  0  0  0  0  0
    8.5375   -2.4667    0.0000 O   0  0  0  0  0  0  0  0  0  0  0  0
    5.7667   -6.6917    0.0000 O   0  0  0  0  0  0  0  0  0  0  0  0
    7.7917   -1.3542    0.0000 C   0  0  0  0  0  0  0  0  0  0  0  0
    9.0417   -1.8167    0.0000 C   0  0  0  0  0  0  0  0  0  0  0  0
    8.5750   -1.1292    0.0000 C   0  0  0  0  0  0  0  0  0  0  0  0
    2.9042   -6.6917    0.0000 C   0  0  0  0  0  0  0  0  0  0  0  0
    2.9042   -5.8667    0.0000 C   0  0  0  0  0  0  0  0  0  0  0  0
    2.1917   -7.1042    0.0000 Cl  0  0  0  0  0  0  0  0  0  0  0  0
    7.1750   -5.2500    0.0000 C   0  0  0  0  0  0  0  0  0  0  0  0
  2  1  1  0  0  0  0
  3  5  2  0  0  0  0
  4  6  1  0  0  0  0
  5  1  1  0  0  0  0
  6  2  1  0  0  0  0
  7 12  1  0  0  0  0
  8  2  2  0  0  0  0
  9  8  1  0  0  0  0
 10  3  1  0  0  0  0
 11  1  2  0  0  0  0
 12 10  1  0  0  0  0
 13 11  1  0  0  0  0
 14  4  1  0  0  0  0
 15 12  2  0  0  0  0
 16 10  2  0  0  0  0
 17  7  1  0  0  0  0
 18 14  1  0  0  0  0
 19  7  2  0  0  0  0
 20 14  2  0  0  0  0
 21 18  1  0  0  0  0
 22 20  1  0  0  0  0
 23 24  2  0  0  0  0
 24 16  1  0  0  0  0
 25 23  1  0  0  0  0
 26 11  1  0  0  0  0
 13  3  1  0  0  0  0
  9  4  2  0  0  0  0
 15 23  1  0  0  0  0
 22 21  2  0  0  0  0
M  CHG  2   7   1  17  -1
M  END
> <IDNUMBER>
F3244-0174

> <Chemical_Name>
2-[5-(4-chloro-2-nitrophenyl)-2-methylfuran-3-yl]-5-(furan-2-yl)-1,3,4-oxadiazole

> <CAS>
890642-02-1

> <PriceCoeff>
1.00

> <MW>
371.73

> <Description>
solid

> <FSP3>
0.06

> <clogP>
4.11

> <TPSA>
108.34

> <Acceptor>
7

> <Donor>
0

> <RotBonds>
4

> <HAC>
26

> <Collection>
General

$$$$
F3139-1013
  -ISIS-  06222321442D

 32 35  0  0  0  0  0  0  0  0999 V2000
    5.9417   -2.5167    0.0000 C   0  0  0  0  0  0  0  0  0  0  0  0
    5.2250   -2.9292    0.0000 C   0  0  0  0  0  0  0  0  0  0  0  0
    4.5125   -2.5167    0.0000 C   0  0  0  0  0  0  0  0  0  0  0  0
    5.9417   -1.6917    0.0000 C   0  0  0  0  0  0  0  0  0  0  0  0
    4.5125   -1.6917    0.0000 C   0  0  0  0  0  0  0  0  0  0  0  0
    5.2250   -1.2792    0.0000 O   0  0  0  0  0  0  0  0  0  0  0  0
    2.3542   -0.4542    0.0000 C   0  0  0  0  0  0  0  0  0  0  0  0
    6.6542   -2.9375    0.0000 C   0  0  0  0  0  0  0  0  0  0  0  0
    1.6417   -0.0417    0.0000 C   0  0  0  0  0  0  0  0  0  0  0  0
    3.8000   -1.2792    0.0000 C   0  0  0  0  0  0  0  0  0  0  0  0
    2.3625   -1.2792    0.0000 O   0  0  0  0  0  0  0  0  0  0  0  0
    3.8000   -2.9292    0.0000 C   0  0  0  0  0  0  0  0  0  0  0  0
    0.9375   -0.4542    0.0000 C   0  0  0  0  0  0  0  0  0  0  0  0
    0.2250   -0.0500    0.0000 C   0  0  0  0  0  0  0  0  0  0  0  0
    3.0792   -1.7000    0.0000 C   0  0  0  0  0  0  0  0  0  0  0  0
    5.2250   -3.7542    0.0000 O   0  0  0  0  0  0  0  0  0  0  0  0
    0.2167    0.7833    0.0000 C   0  0  0  0  0  0  0  0  0  0  0  0
    3.0750   -0.0417    0.0000 O   0  0  0  0  0  0  0  0  0  0  0  0
    6.6542   -3.7625    0.0000 C   0  0  0  0  0  0  0  0  0  0  0  0
    1.6500    0.7833    0.0000 C   0  0  0  0  0  0  0  0  0  0  0  0
    0.9292    1.1958    0.0000 C   0  0  0  0  0  0  0  0  0  0  0  0
    3.0792   -2.5167    0.0000 C   0  0  0  0  0  0  0  0  0  0  0  0
   -0.4875   -0.4667    0.0000 O   0  0  0  0  0  0  0  0  0  0  0  0
   -0.4958    1.1958    0.0000 O   0  0  0  0  0  0  0  0  0  0  0  0
    5.9417   -4.1667    0.0000 O   0  0  0  0  0  0  0  0  0  0  0  0
    7.3750   -2.5167    0.0000 C   0  0  0  0  0  0  0  0  0  0  0  0
    7.3667   -4.1750    0.0000 C   0  0  0  0  0  0  0  0  0  0  0  0
   -0.4833   -1.2917    0.0000 C   0  0  0  0  0  0  0  0  0  0  0  0
   -1.2083    0.7833    0.0000 C   0  0  0  0  0  0  0  0  0  0  0  0
    5.9417   -4.9917    0.0000 C   0  0  0  0  0  0  0  0  0  0  0  0
    8.0875   -2.9292    0.0000 C   0  0  0  0  0  0  0  0  0  0  0  0
    8.0875   -3.7625    0.0000 C   0  0  0  0  0  0  0  0  0  0  0  0
  2  1  1  0  0  0  0
  3  2  1  0  0  0  0
  4  1  2  0  0  0  0
  5  6  1  0  0  0  0
  6  4  1  0  0  0  0
  7 11  1  0  0  0  0
  8  1  1  0  0  0  0
  9  7  1  0  0  0  0
 10  5  2  0  0  0  0
 11 15  1  0  0  0  0
 12  3  2  0  0  0  0
 13  9  1  0  0  0  0
 14 13  2  0  0  0  0
 15 10  1  0  0  0  0
 16  2  2  0  0  0  0
 17 21  2  0  0  0  0
 18  7  2  0  0  0  0
 19  8  2  0  0  0  0
 20  9  2  0  0  0  0
 21 20  1  0  0  0  0
 22 12  1  0  0  0  0
 23 14  1  0  0  0  0
 24 17  1  0  0  0  0
 25 19  1  0  0  0  0
 26  8  1  0  0  0  0
 27 19  1  0  0  0  0
 28 23  1  0  0  0  0
 29 24  1  0  0  0  0
 30 25  1  0  0  0  0
 31 26  2  0  0  0  0
 32 31  1  0  0  0  0
  5  3  1  0  0  0  0
 27 32  2  0  0  0  0
 15 22  2  0  0  0  0
 14 17  1  0  0  0  0
M  END
> <IDNUMBER>
F3139-1013

> <Chemical_Name>
3-(2-methoxyphenyl)-4-oxo-4H-chromen-7-yl 3,4-dimethoxybenzoate

> <CAS>
315715-15-2

> <PriceCoeff>
1.00

> <MW>
432.42

> <Description>
solid

> <FSP3>
0.12

> <clogP>
3.90

> <TPSA>
80.29

> <Acceptor>
7

> <Donor>
0

> <RotBonds>
7

> <HAC>
32

> <Collection>
General

> <Reference_compound>
CHEMBL455048

> <Similarity>
0.8480

$$$$
F0222-0027
  -ISIS-  06222321142D

 25 27  0  0  0  0  0  0  0  0999 V2000
   -0.9458    0.1708    0.0000 N   0  0  3  0  0  0  0  0  0  0  0  0
   -0.2333    0.6333    0.0000 C   0  0  0  0  0  0  0  0  0  0  0  0
    0.3875    0.0958    0.0000 C   0  0  3  0  0  0  0  0  0  0  0  0
   -0.7208   -0.6167    0.0000 C   0  0  0  0  0  0  0  0  0  0  0  0
    0.0792   -0.6792    0.0000 C   0  0  0  0  0  0  0  0  0  0  0  0
    1.2000    0.3833    0.0000 N   0  0  3  0  0  0  0  0  0  0  0  0
   -1.6708    0.5000    0.0000 C   0  0  0  0  0  0  0  0  0  0  0  0
   -0.1833    1.4833    0.0000 O   0  0  0  0  0  0  0  0  0  0  0  0
   -1.2958   -1.2000    0.0000 O   0  0  0  0  0  0  0  0  0  0  0  0
   -2.3625    0.0208    0.0000 C   0  0  0  0  0  0  0  0  0  0  0  0
    1.8375   -0.1875    0.0000 C   0  0  0  0  0  0  0  0  0  0  0  0
    1.3292    1.2000    0.0000 O   0  0  0  0  0  0  0  0  0  0  0  0
   -2.2833   -0.8000    0.0000 O   0  0  0  0  0  0  0  0  0  0  0  0
   -1.7708    1.3458    0.0000 C   0  0  0  0  0  0  0  0  0  0  0  0
   -3.1000    0.3458    0.0000 C   0  0  0  0  0  0  0  0  0  0  0  0
    2.6292    0.0625    0.0000 C   0  0  0  0  0  0  0  0  0  0  0  0
    1.6542   -1.0042    0.0000 C   0  0  0  0  0  0  0  0  0  0  0  0
   -2.9958   -1.2792    0.0000 C   0  0  0  0  0  0  0  0  0  0  0  0
   -2.9208   -2.1042    0.0000 C   0  0  0  0  0  0  0  0  0  0  0  0
   -2.5208    1.6958    0.0000 C   0  0  0  0  0  0  0  0  0  0  0  0
   -3.6000   -2.5792    0.0000 C   0  0  0  0  0  0  0  0  0  0  0  0
   -3.2000    1.1958    0.0000 C   0  0  0  0  0  0  0  0  0  0  0  0
    2.2875   -1.5375    0.0000 C   0  0  0  0  0  0  0  0  0  0  0  0
    3.2500   -0.4875    0.0000 C   0  0  0  0  0  0  0  0  0  0  0  0
    3.0667   -1.2667    0.0000 C   0  0  0  0  0  0  0  0  0  0  0  0
  2  1  1  0  0  0  0
  3  2  1  0  0  0  0
  4  1  1  0  0  0  0
  5  4  1  0  0  0  0
  6  3  1  0  0  0  0
  7  1  1  0  0  0  0
  8  2  2  0  0  0  0
  9  4  2  0  0  0  0
 10  7  1  0  0  0  0
 11  6  1  0  0  0  0
 12  6  1  0  0  0  0
 13 10  1  0  0  0  0
 14  7  2  0  0  0  0
 15 10  2  0  0  0  0
 16 11  1  0  0  0  0
 17 11  2  0  0  0  0
 18 13  1  0  0  0  0
 19 18  1  0  0  0  0
 20 14  1  0  0  0  0
 21 19  1  0  0  0  0
 22 20  2  0  0  0  0
 23 17  1  0  0  0  0
 24 16  2  0  0  0  0
 25 23  2  0  0  0  0
  3  5  1  0  0  0  0
 15 22  1  0  0  0  0
 24 25  1  0  0  0  0
M  END
> <IDNUMBER>
F0222-0027

> <Chemical_Name>
3-(N-phenylhydroxyamino)-1-(2-propoxyphenyl)pyrrolidine-2,5-dione

> <CAS>
353793-15-4

> <PriceCoeff>
1.00

> <MW>
340.37

> <Description>
solid

> <FSP3>
0.26

> <clogP>
3.85

> <TPSA>
70.08

> <Acceptor>
5

> <Donor>
2

> <RotBonds>
6

> <HAC>
25

> <Collection>
General

$$$$
F0536-0560
  -ISIS-  06222321452D

 28 31  0  0  0  0  0  0  0  0999 V2000
   -3.8708    2.9833    0.0000 C   0  0  0  0  0  0  0  0  0  0  0  0
   -3.8708    3.8000    0.0000 N   0  0  0  0  0  0  0  0  0  0  0  0
   -3.1958    2.5083    0.0000 N   0  0  3  0  0  0  0  0  0  0  0  0
   -3.1125    7.5000    0.0000 N   0  0  3  0  0  0  0  0  0  0  0  0
   -4.5083    2.5083    0.0000 S   0  0  0  0  0  0  0  0  0  0  0  0
   -3.4500    1.7375    0.0000 C   0  0  0  0  0  0  0  0  0  0  0  0
   -4.2833    1.7375    0.0000 C   0  0  0  0  0  0  0  0  0  0  0  0
   -3.1583    4.2042    0.0000 C   0  0  0  0  0  0  0  0  0  0  0  0
   -2.4625    7.9667    0.0000 C   0  0  0  0  0  0  0  0  0  0  0  0
   -3.7458    8.0042    0.0000 C   0  0  0  0  0  0  0  0  0  0  0  0
   -3.0250    1.0250    0.0000 C   0  0  0  0  0  0  0  0  0  0  0  0
   -3.1125    6.6792    0.0000 C   0  0  0  0  0  0  0  0  0  0  0  0
   -3.1458    5.0250    0.0000 C   0  0  0  0  0  0  0  0  0  0  0  0
   -4.6708    1.0250    0.0000 C   0  0  0  0  0  0  0  0  0  0  0  0
   -3.4333    0.3125    0.0000 C   0  0  0  0  0  0  0  0  0  0  0  0
   -2.4458    3.8208    0.0000 O   0  0  0  0  0  0  0  0  0  0  0  0
   -3.4750    8.7667    0.0000 C   0  0  0  0  0  0  0  0  0  0  0  0
   -2.6958    8.7375    0.0000 C   0  0  0  0  0  0  0  0  0  0  0  0
   -4.5958    7.7542    0.0000 O   0  0  0  0  0  0  0  0  0  0  0  0
   -1.6250    7.7125    0.0000 O   0  0  0  0  0  0  0  0  0  0  0  0
   -4.2833    0.3125    0.0000 C   0  0  0  0  0  0  0  0  0  0  0  0
   -3.8208    6.2750    0.0000 C   0  0  0  0  0  0  0  0  0  0  0  0
   -2.4083    6.2500    0.0000 C   0  0  0  0  0  0  0  0  0  0  0  0
   -2.4208    5.4167    0.0000 C   0  0  0  0  0  0  0  0  0  0  0  0
   -3.8458    5.4417    0.0000 C   0  0  0  0  0  0  0  0  0  0  0  0
   -2.4083    2.7833    0.0000 C   0  0  0  0  0  0  0  0  0  0  0  0
   -2.2083    1.0250    0.0000 C   0  0  0  0  0  0  0  0  0  0  0  0
   -4.7083   -0.4042    0.0000 C   0  0  0  0  0  0  0  0  0  0  0  0
  2  1  2  0  0  0  0
  3  1  1  0  0  0  0
  4 12  1  0  0  0  0
  5  1  1  0  0  0  0
  6  3  1  0  0  0  0
  7  5  1  0  0  0  0
  8  2  1  0  0  0  0
  9  4  1  0  0  0  0
 10  4  1  0  0  0  0
 11  6  1  0  0  0  0
 12 22  1  0  0  0  0
 13  8  1  0  0  0  0
 14  7  1  0  0  0  0
 15 11  2  0  0  0  0
 16  8  2  0  0  0  0
 17 10  1  0  0  0  0
 18  9  1  0  0  0  0
 19 10  2  0  0  0  0
 20  9  2  0  0  0  0
 21 14  2  0  0  0  0
 22 25  2  0  0  0  0
 23 24  1  0  0  0  0
 24 13  2  0  0  0  0
 25 13  1  0  0  0  0
 26  3  1  0  0  0  0
 27 11  1  0  0  0  0
 28 21  1  0  0  0  0
  6  7  2  0  0  0  0
 15 21  1  0  0  0  0
 23 12  2  0  0  0  0
 18 17  1  0  0  0  0
M  END
> <IDNUMBER>
F0536-0560

> <Chemical_Name>
4-(2,5-dioxopyrrolidin-1-yl)-N-[(2E)-3,4,6-trimethyl-2,3-dihydro-1,3-benzothiazol-2-ylidene]benzamide

> <CAS>
681162-02-7

> <PriceCoeff>
1.00

> <MW>
393.46

> <Description>
solid

> <FSP3>
0.24

> <clogP>
3.95

> <TPSA>
95.35

> <Acceptor>
3

> <Donor>
0

> <RotBonds>
3

> <HAC>
28

> <Collection>
General

$$$$
F3385-3844
  -ISIS-  06222321152D

 23 25  0  0  0  0  0  0  0  0999 V2000
    2.8667   -9.8917    0.0000 C   0  0  0  0  0  0  0  0  0  0  0  0
    2.1417  -10.3042    0.0000 C   0  0  0  0  0  0  0  0  0  0  0  0
    1.4292   -9.8917    0.0000 C   0  0  0  0  0  0  0  0  0  0  0  0
    2.8667   -9.0625    0.0000 C   0  0  0  0  0  0  0  0  0  0  0  0
    1.4292   -9.0625    0.0000 C   0  0  0  0  0  0  0  0  0  0  0  0
    2.1500   -8.6417    0.0000 O   0  0  0  0  0  0  0  0  0  0  0  0
    3.5792  -10.3125    0.0000 C   0  0  0  0  0  0  0  0  0  0  0  0
    0.7167  -10.3042    0.0000 C   0  0  0  0  0  0  0  0  0  0  0  0
    0.7167   -8.6500    0.0000 C   0  0  0  0  0  0  0  0  0  0  0  0
    2.1417  -11.1292    0.0000 O   0  0  0  0  0  0  0  0  0  0  0  0
    4.2917   -9.9000    0.0000 C   0  0  0  0  0  0  0  0  0  0  0  0
    3.5750  -11.1375    0.0000 C   0  0  0  0  0  0  0  0  0  0  0  0
    0.0042   -9.0667    0.0000 C   0  0  0  0  0  0  0  0  0  0  0  0
    0.0042   -9.8917    0.0000 C   0  0  0  0  0  0  0  0  0  0  0  0
    5.0042  -11.1417    0.0000 C   0  0  0  0  0  0  0  0  0  0  0  0
    4.2875  -11.5500    0.0000 C   0  0  0  0  0  0  0  0  0  0  0  0
    5.0042  -10.3125    0.0000 C   0  0  0  0  0  0  0  0  0  0  0  0
   -2.8583   -9.0667    0.0000 Br  0  0  0  0  0  0  0  0  0  0  0  0
   -0.7083   -8.6542    0.0000 O   0  0  0  0  0  0  0  0  0  0  0  0
    5.7167  -11.5542    0.0000 O   0  0  0  0  0  0  0  0  0  0  0  0
   -2.1375   -8.6542    0.0000 C   0  0  0  0  0  0  0  0  0  0  0  0
   -1.4250   -9.0667    0.0000 C   0  0  0  0  0  0  0  0  0  0  0  0
    6.4292  -11.1417    0.0000 C   0  0  0  0  0  0  0  0  0  0  0  0
  2  1  1  0  0  0  0
  3  2  1  0  0  0  0
  4  1  2  0  0  0  0
  5  6  1  0  0  0  0
  6  4  1  0  0  0  0
  7  1  1  0  0  0  0
  8  3  2  0  0  0  0
  9  5  2  0  0  0  0
 10  2  2  0  0  0  0
 11  7  1  0  0  0  0
 12  7  2  0  0  0  0
 13  9  1  0  0  0  0
 14  8  1  0  0  0  0
 15 16  2  0  0  0  0
 16 12  1  0  0  0  0
 17 11  2  0  0  0  0
 18 21  1  0  0  0  0
 19 13  1  0  0  0  0
 20 15  1  0  0  0  0
 21 22  1  0  0  0  0
 22 19  1  0  0  0  0
 23 20  1  0  0  0  0
 15 17  1  0  0  0  0
  3  5  1  0  0  0  0
 13 14  2  0  0  0  0
M  END
> <IDNUMBER>
F3385-3844

> <Chemical_Name>
7-(2-bromoethoxy)-3-(4-methoxyphenyl)-4H-chromen-4-one

> <CAS>
6716-74-1

> <PriceCoeff>
1.00

> <MW>
375.21

> <Description>
solid

> <FSP3>
0.17

> <clogP>
3.75

> <TPSA>
44.76

> <Acceptor>
4

> <Donor>
0

> <RotBonds>
5

> <HAC>
23

> <Collection>
General

> <Reference_compound>
CHEMBL44

> <Similarity>
0.8800

$$$$
F1826-0075
  -ISIS-  06222321442D

 24 25  0  0  0  0  0  0  0  0999 V2000
   -2.4375    1.3208    0.0000 C   0  0  0  0  0  0  0  0  0  0  0  0
   -2.4375    0.4958    0.0000 C   0  0  0  0  0  0  0  0  0  0  0  0
   -3.1500    1.7375    0.0000 C   0  0  0  0  0  0  0  0  0  0  0  0
   -1.7208    1.7375    0.0000 N   0  3  0  0  0  0  0  0  0  0  0  0
   -6.7042    2.9833    0.0000 N   0  3  0  0  0  0  0  0  0  0  0  0
   -6.0042    2.5708    0.0000 C   0  0  0  0  0  0  0  0  0  0  0  0
   -3.1500    0.0875    0.0000 N   0  0  0  0  0  0  0  0  0  0  0  0
   -3.8583    1.3208    0.0000 C   0  0  0  0  0  0  0  0  0  0  0  0
   -3.8625    2.9833    0.0000 C   0  0  0  0  0  0  0  0  0  0  0  0
   -3.1500    2.5625    0.0000 O   0  0  0  0  0  0  0  0  0  0  0  0
   -5.2833    2.9833    0.0000 C   0  0  0  0  0  0  0  0  0  0  0  0
   -3.8583    0.4958    0.0000 C   0  0  0  0  0  0  0  0  0  0  0  0
   -4.5833    2.5708    0.0000 C   0  0  0  0  0  0  0  0  0  0  0  0
   -6.0000    1.7458    0.0000 C   0  0  0  0  0  0  0  0  0  0  0  0
   -1.0083    1.3208    0.0000 O   0  5  0  0  0  0  0  0  0  0  0  0
   -6.7042    3.8000    0.0000 O   0  5  0  0  0  0  0  0  0  0  0  0
   -1.7208    0.0833    0.0000 O   0  0  0  0  0  0  0  0  0  0  0  0
   -1.7208    2.5625    0.0000 O   0  0  0  0  0  0  0  0  0  0  0  0
   -7.4167    2.5833    0.0000 O   0  0  0  0  0  0  0  0  0  0  0  0
   -3.8625    3.8000    0.0000 O   0  0  0  0  0  0  0  0  0  0  0  0
   -4.5833    1.7458    0.0000 C   0  0  0  0  0  0  0  0  0  0  0  0
   -5.2833    1.3333    0.0000 C   0  0  0  0  0  0  0  0  0  0  0  0
   -6.7042    1.3333    0.0000 Cl  0  0  0  0  0  0  0  0  0  0  0  0
   -4.5833    0.0833    0.0000 C   0  0  0  0  0  0  0  0  0  0  0  0
  2  1  1  0  0  0  0
  3  1  2  0  0  0  0
  4  1  1  0  0  0  0
  5  6  1  0  0  0  0
  6 11  2  0  0  0  0
  7  2  1  0  0  0  0
  8  3  1  0  0  0  0
  9 10  1  0  0  0  0
 10  3  1  0  0  0  0
 11 13  1  0  0  0  0
 12  8  2  0  0  0  0
 13  9  1  0  0  0  0
 14 22  2  0  0  0  0
 15  4  1  0  0  0  0
 16  5  1  0  0  0  0
 17  2  2  0  0  0  0
 18  4  2  0  0  0  0
 19  5  2  0  0  0  0
 20  9  2  0  0  0  0
 21 13  2  0  0  0  0
 22 21  1  0  0  0  0
 23 14  1  0  0  0  0
 24 12  1  0  0  0  0
 12  7  1  0  0  0  0
  6 14  1  0  0  0  0
M  CHG  4   4   1   5   1  15  -1  16  -1
M  END
> <IDNUMBER>
F1826-0075

> <Chemical_Name>
6-methyl-3-nitro-2-oxo-1,2-dihydropyridin-4-yl 4-chloro-3-nitrobenzoate

> <CAS>
868679-96-3

> <PriceCoeff>
1.00

> <MW>
353.67

> <Description>
solid

> <FSP3>
0.08

> <clogP>
1.81

> <TPSA>
141.68

> <Acceptor>
7

> <Donor>
1

> <RotBonds>
5

> <HAC>
24

> <Collection>
General

$$$$
F1381-0066
  -ISIS-  06222321142D

 27 30  0  0  0  0  0  0  0  0999 V2000
   -3.1583    5.0292    0.0000 C   0  0  0  0  0  0  0  0  0  0  0  0
   -3.1583    4.2042    0.0000 N   0  0  0  0  0  0  0  0  0  0  0  0
   -3.8250    5.5167    0.0000 N   0  0  3  0  0  0  0  0  0  0  0  0
   -5.2958    1.3375    0.0000 N   0  0  3  0  0  0  0  0  0  0  0  0
   -2.4958    5.5125    0.0000 S   0  0  0  0  0  0  0  0  0  0  0  0
   -3.5708    6.2917    0.0000 C   0  0  0  0  0  0  0  0  0  0  0  0
   -2.7458    6.2917    0.0000 C   0  0  0  0  0  0  0  0  0  0  0  0
   -3.8708    3.8000    0.0000 C   0  0  0  0  0  0  0  0  0  0  0  0
   -4.5833    1.7500    0.0000 C   0  0  0  0  0  0  0  0  0  0  0  0
   -6.0250    1.7083    0.0000 C   0  0  0  0  0  0  0  0  0  0  0  0
   -5.4125    0.5208    0.0000 C   0  0  0  0  0  0  0  0  0  0  0  0
   -4.5833    2.5833    0.0000 C   0  0  0  0  0  0  0  0  0  0  0  0
   -3.8708    2.9833    0.0000 C   0  0  0  0  0  0  0  0  0  0  0  0
   -3.9833    7.0167    0.0000 C   0  0  0  0  0  0  0  0  0  0  0  0
   -4.5833    4.2125    0.0000 O   0  0  0  0  0  0  0  0  0  0  0  0
   -6.6042    1.1083    0.0000 C   0  0  0  0  0  0  0  0  0  0  0  0
   -6.2167    0.3750    0.0000 C   0  0  0  0  0  0  0  0  0  0  0  0
   -6.1542    2.5250    0.0000 O   0  0  0  0  0  0  0  0  0  0  0  0
   -4.8458   -0.0542    0.0000 O   0  0  0  0  0  0  0  0  0  0  0  0
   -4.6083    5.2625    0.0000 C   0  0  0  0  0  0  0  0  0  0  0  0
   -4.8083    7.0167    0.0000 Cl  0  0  0  0  0  0  0  0  0  0  0  0
   -2.3333    7.0042    0.0000 C   0  0  0  0  0  0  0  0  0  0  0  0
   -3.8708    1.3333    0.0000 C   0  0  0  0  0  0  0  0  0  0  0  0
   -3.1500    2.5833    0.0000 C   0  0  0  0  0  0  0  0  0  0  0  0
   -3.1500    1.7458    0.0000 C   0  0  0  0  0  0  0  0  0  0  0  0
   -2.7458    7.7167    0.0000 C   0  0  0  0  0  0  0  0  0  0  0  0
   -3.5625    7.7167    0.0000 C   0  0  0  0  0  0  0  0  0  0  0  0
  2  1  2  0  0  0  0
  3  1  1  0  0  0  0
  4  9  1  0  0  0  0
  5  1  1  0  0  0  0
  6  3  1  0  0  0  0
  7  5  1  0  0  0  0
  8  2  1  0  0  0  0
  9 12  1  0  0  0  0
 10  4  1  0  0  0  0
 11  4  1  0  0  0  0
 12 13  2  0  0  0  0
 13  8  1  0  0  0  0
 14  6  1  0  0  0  0
 15  8  2  0  0  0  0
 16 10  1  0  0  0  0
 17 11  1  0  0  0  0
 18 10  2  0  0  0  0
 19 11  2  0  0  0  0
 20  3  1  0  0  0  0
 21 14  1  0  0  0  0
 22  7  1  0  0  0  0
 23 25  1  0  0  0  0
 24 13  1  0  0  0  0
 25 24  2  0  0  0  0
 26 22  2  0  0  0  0
 27 14  2  0  0  0  0
  6  7  2  0  0  0  0
 27 26  1  0  0  0  0
  9 23  2  0  0  0  0
 16 17  1  0  0  0  0
M  END
> <IDNUMBER>
F1381-0066

> <Chemical_Name>
N-[(2E)-4-chloro-3-methyl-2,3-dihydro-1,3-benzothiazol-2-ylidene]-3-(2,5-dioxopyrrolidin-1-yl)benzamide

> <CAS>
865543-89-1

> <PriceCoeff>
1.00

> <MW>
399.85

> <Description>
solid

> <FSP3>
0.16

> <clogP>
3.66

> <TPSA>
95.35

> <Acceptor>
3

> <Donor>
0

> <RotBonds>
3

> <HAC>
27

> <Collection>
General

$$$$
F3325-0165
  -ISIS-  06222321152D

 25 27  0  0  0  0  0  0  0  0999 V2000
    8.8042   -3.1167    0.0000 N   0  3  0  0  0  0  0  0  0  0  0  0
    8.0917   -2.6917    0.0000 C   0  0  0  0  0  0  0  0  0  0  0  0
    3.1042   -1.4250    0.0000 N   0  0  0  0  0  0  0  0  0  0  0  0
    3.8167   -1.8417    0.0000 C   0  0  0  0  0  0  0  0  0  0  0  0
    3.1042   -3.0792    0.0000 S   0  0  0  0  0  0  0  0  0  0  0  0
    3.8167   -2.6667    0.0000 C   0  0  3  0  0  0  0  0  0  0  0  0
    4.5292   -3.0792    0.0000 C   0  0  0  0  0  0  0  0  0  0  0  0
    5.2417   -2.6667    0.0000 C   0  0  0  0  0  0  0  0  0  0  0  0
    2.3917   -1.8417    0.0000 C   0  0  0  0  0  0  0  0  0  0  0  0
    2.3833   -2.6667    0.0000 C   0  0  0  0  0  0  0  0  0  0  0  0
    7.3750   -3.1000    0.0000 C   0  0  0  0  0  0  0  0  0  0  0  0
    8.0917   -1.8667    0.0000 C   0  0  0  0  0  0  0  0  0  0  0  0
    8.7917   -3.9417    0.0000 O   0  5  0  0  0  0  0  0  0  0  0  0
    5.9500   -3.0875    0.0000 N   0  0  0  0  0  0  0  0  0  0  0  0
    9.5167   -2.7042    0.0000 O   0  0  0  0  0  0  0  0  0  0  0  0
    6.6667   -2.6792    0.0000 C   0  0  0  0  0  0  0  0  0  0  0  0
    4.5375   -1.4292    0.0000 O   0  0  0  0  0  0  0  0  0  0  0  0
    5.2500   -1.8500    0.0000 O   0  0  0  0  0  0  0  0  0  0  0  0
    7.3875   -1.4542    0.0000 C   0  0  0  0  0  0  0  0  0  0  0  0
    6.6750   -1.8542    0.0000 C   0  0  0  0  0  0  0  0  0  0  0  0
    8.8125   -1.4625    0.0000 Cl  0  0  0  0  0  0  0  0  0  0  0  0
    1.6750   -1.4292    0.0000 C   0  0  0  0  0  0  0  0  0  0  0  0
    1.6750   -3.0792    0.0000 C   0  0  0  0  0  0  0  0  0  0  0  0
    0.9625   -2.6667    0.0000 C   0  0  0  0  0  0  0  0  0  0  0  0
    0.9625   -1.8417    0.0000 C   0  0  0  0  0  0  0  0  0  0  0  0
  2  1  1  0  0  0  0
  3  4  1  0  0  0  0
  4  6  1  0  0  0  0
  5  6  1  0  0  0  0
  6  7  1  0  0  0  0
  7  8  1  0  0  0  0
  8 14  1  0  0  0  0
  9 10  1  0  0  0  0
 10  5  1  0  0  0  0
 11  2  2  0  0  0  0
 12  2  1  0  0  0  0
 13  1  1  0  0  0  0
 14 16  1  0  0  0  0
 15  1  2  0  0  0  0
 16 11  1  0  0  0  0
 17  4  2  0  0  0  0
 18  8  2  0  0  0  0
 19 12  2  0  0  0  0
 20 19  1  0  0  0  0
 21 12  1  0  0  0  0
 22  9  2  0  0  0  0
 23 10  2  0  0  0  0
 24 23  1  0  0  0  0
 25 22  1  0  0  0  0
 20 16  2  0  0  0  0
  3  9  1  0  0  0  0
 25 24  2  0  0  0  0
M  CHG  2   1   1  13  -1
M  END
> <IDNUMBER>
F3325-0165

> <Chemical_Name>
N-(4-chloro-3-nitrophenyl)-2-(3-oxo-3,4-dihydro-2H-1,4-benzothiazin-2-yl)acetamide

> <CAS>
1017661-60-7

> <PriceCoeff>
1.00

> <MW>
377.80

> <Description>
solid

> <FSP3>
0.12

> <clogP>
3.20

> <TPSA>
126.64

> <Acceptor>
4

> <Donor>
2

> <RotBonds>
4

> <HAC>
25

> <Collection>
General

$$$$
F1814-0651
  -ISIS-  06222321442D

 29 32  0  0  0  0  0  0  0  0999 V2000
   -5.2708    2.1958    0.0000 C   0  0  0  0  0  0  0  0  0  0  0  0
   -4.5833    2.5958    0.0000 N   0  0  0  0  0  0  0  0  0  0  0  0
   -6.0292    2.5333    0.0000 S   0  0  0  0  0  0  0  0  0  0  0  0
   -5.3583    1.3583    0.0000 N   0  0  3  0  0  0  0  0  0  0  0  0
   -1.7208    3.3833    0.0000 N   0  0  3  0  0  0  0  0  0  0  0  0
   -6.5917    1.9083    0.0000 C   0  0  0  0  0  0  0  0  0  0  0  0
   -6.1667    1.1833    0.0000 C   0  0  0  0  0  0  0  0  0  0  0  0
   -4.5833    3.3958    0.0000 C   0  0  0  0  0  0  0  0  0  0  0  0
   -2.4375    3.8083    0.0000 C   0  0  0  0  0  0  0  0  0  0  0  0
   -1.6750    2.5583    0.0000 C   0  0  0  0  0  0  0  0  0  0  0  0
   -0.9500    3.6958    0.0000 C   0  0  0  0  0  0  0  0  0  0  0  0
   -3.1583    3.3958    0.0000 C   0  0  0  0  0  0  0  0  0  0  0  0
   -3.8708    3.8000    0.0000 C   0  0  0  0  0  0  0  0  0  0  0  0
   -6.5917    0.4583    0.0000 C   0  0  0  0  0  0  0  0  0  0  0  0
   -7.4292    1.9083    0.0000 C   0  0  0  0  0  0  0  0  0  0  0  0
   -5.2708    3.7958    0.0000 O   0  0  0  0  0  0  0  0  0  0  0  0
   -0.4208    3.0583    0.0000 C   0  0  0  0  0  0  0  0  0  0  0  0
   -0.8583    2.3583    0.0000 C   0  0  0  0  0  0  0  0  0  0  0  0
   -0.7375    4.4667    0.0000 O   0  0  0  0  0  0  0  0  0  0  0  0
   -2.3083    2.0375    0.0000 O   0  0  0  0  0  0  0  0  0  0  0  0
   -7.4167    0.4583    0.0000 C   0  0  0  0  0  0  0  0  0  0  0  0
   -7.8417    1.1833    0.0000 C   0  0  0  0  0  0  0  0  0  0  0  0
   -4.7708    0.8208    0.0000 C   0  0  0  0  0  0  0  0  0  0  0  0
   -2.4333    4.6167    0.0000 C   0  0  0  0  0  0  0  0  0  0  0  0
   -6.1792   -0.2417    0.0000 O   0  0  0  0  0  0  0  0  0  0  0  0
   -3.8625    4.6292    0.0000 C   0  0  0  0  0  0  0  0  0  0  0  0
   -3.1458    5.0417    0.0000 C   0  0  0  0  0  0  0  0  0  0  0  0
   -7.8417    2.6125    0.0000 C   0  0  0  0  0  0  0  0  0  0  0  0
   -6.7042   -0.9250    0.0000 C   0  0  0  0  0  0  0  0  0  0  0  0
  2  1  2  0  0  0  0
  3  1  1  0  0  0  0
  4  1  1  0  0  0  0
  5  9  1  0  0  0  0
  6  3  1  0  0  0  0
  7  4  1  0  0  0  0
  8  2  1  0  0  0  0
  9 12  1  0  0  0  0
 10  5  1  0  0  0  0
 11  5  1  0  0  0  0
 12 13  2  0  0  0  0
 13  8  1  0  0  0  0
 14  7  1  0  0  0  0
 15  6  1  0  0  0  0
 16  8  2  0  0  0  0
 17 11  1  0  0  0  0
 18 10  1  0  0  0  0
 19 11  2  0  0  0  0
 20 10  2  0  0  0  0
 21 14  2  0  0  0  0
 22 15  2  0  0  0  0
 23  4  1  0  0  0  0
 24 27  1  0  0  0  0
 25 14  1  0  0  0  0
 26 13  1  0  0  0  0
 27 26  2  0  0  0  0
 28 15  1  0  0  0  0
 29 25  1  0  0  0  0
  7  6  2  0  0  0  0
 22 21  1  0  0  0  0
 24  9  2  0  0  0  0
 17 18  1  0  0  0  0
M  END
> <IDNUMBER>
F1814-0651

> <Chemical_Name>
3-(2,5-dioxopyrrolidin-1-yl)-N-[(2Z)-4-methoxy-3,7-dimethyl-2,3-dihydro-1,3-benzothiazol-2-ylidene]benzamide

> <CAS>
868369-93-1

> <PriceCoeff>
1.00

> <MW>
409.46

> <Description>
solid

> <FSP3>
0.24

> <clogP>
3.37

> <TPSA>
104.58

> <Acceptor>
4

> <Donor>
0

> <RotBonds>
4

> <HAC>
29

> <Collection>
General

$$$$
F0494-0156
  -ISIS-  06222321452D

 23 25  0  0  0  0  0  0  0  0999 V2000
   -3.8208    0.7500    0.0000 N   0  3  0  0  0  0  0  0  0  0  0  0
   -3.4458    1.3125    0.0000 C   0  0  0  0  0  0  0  0  0  0  0  0
   -0.7625    1.4125    0.0000 C   0  0  0  0  0  0  0  0  0  0  0  0
   -0.2000    1.0958    0.0000 C   0  0  0  0  0  0  0  0  0  0  0  0
   -1.3833    1.2125    0.0000 O   0  0  0  0  0  0  0  0  0  0  0  0
   -1.7625    1.7500    0.0000 C   0  0  0  0  0  0  0  0  0  0  0  0
   -2.7833    1.2708    0.0000 C   0  0  0  0  0  0  0  0  0  0  0  0
    0.4000    1.4333    0.0000 N   0  0  3  0  0  0  0  0  0  0  0  0
   -0.7625    2.0708    0.0000 C   0  0  0  0  0  0  0  0  0  0  0  0
   -1.3833    2.2708    0.0000 C   0  0  0  0  0  0  0  0  0  0  0  0
   -2.4208    1.8125    0.0000 C   0  0  0  0  0  0  0  0  0  0  0  0
   -3.7208    1.9333    0.0000 C   0  0  0  0  0  0  0  0  0  0  0  0
   -4.4833    0.7958    0.0000 O   0  5  0  0  0  0  0  0  0  0  0  0
   -0.2000    0.4333    0.0000 S   0  0  0  0  0  0  0  0  0  0  0  0
   -3.5458    0.1708    0.0000 O   0  0  0  0  0  0  0  0  0  0  0  0
   -2.7000    2.4125    0.0000 C   0  0  0  0  0  0  0  0  0  0  0  0
   -3.3458    2.4708    0.0000 C   0  0  0  0  0  0  0  0  0  0  0  0
   -4.3833    2.0208    0.0000 Cl  0  0  0  0  0  0  0  0  0  0  0  0
    0.9792    1.0958    0.0000 C   0  0  0  0  0  0  0  0  0  0  0  0
    0.4000    2.0958    0.0000 C   0  0  0  0  0  0  0  0  0  0  0  0
    0.9792    2.4125    0.0000 C   0  0  0  0  0  0  0  0  0  0  0  0
    1.5375    1.4333    0.0000 C   0  0  0  0  0  0  0  0  0  0  0  0
    1.5375    2.0958    0.0000 C   0  0  0  0  0  0  0  0  0  0  0  0
  2  1  1  0  0  0  0
  3  5  1  0  0  0  0
  4  3  1  0  0  0  0
  5  6  1  0  0  0  0
  6 11  1  0  0  0  0
  7  2  2  0  0  0  0
  8  4  1  0  0  0  0
  9 10  1  0  0  0  0
 10  6  2  0  0  0  0
 11  7  1  0  0  0  0
 12  2  1  0  0  0  0
 13  1  1  0  0  0  0
 14  4  2  0  0  0  0
 15  1  2  0  0  0  0
 16 17  1  0  0  0  0
 17 12  2  0  0  0  0
 18 12  1  0  0  0  0
 19  8  1  0  0  0  0
 20  8  1  0  0  0  0
 21 20  1  0  0  0  0
 22 19  1  0  0  0  0
 23 21  1  0  0  0  0
 11 16  2  0  0  0  0
  3  9  2  0  0  0  0
 23 22  1  0  0  0  0
M  CHG  2   1   1  13  -1
M  END
> <IDNUMBER>
F0494-0156

> <Chemical_Name>
1-[5-(4-chloro-3-nitrophenyl)furan-2-carbothioyl]piperidine

> <CAS>
330951-34-3

> <PriceCoeff>
1.00

> <MW>
350.82

> <Description>
solid

> <FSP3>
0.31

> <clogP>
4.38

> <TPSA>
91.61

> <Acceptor>
4

> <Donor>
1

> <RotBonds>
4

> <HAC>
23

> <Collection>
General

$$$$
F2670-0047
  -ISIS-  06222321462D

 26 28  0  0  0  0  0  0  0  0999 V2000
   -5.9708    1.2958    0.0000 N   0  3  0  0  0  0  0  0  0  0  0  0
   -5.2708    1.7333    0.0000 C   0  0  0  0  0  0  0  0  0  0  0  0
   -5.2958    6.7000    0.0000 N   0  0  3  0  0  0  0  0  0  0  0  0
   -4.5833    6.2792    0.0000 C   0  0  0  0  0  0  0  0  0  0  0  0
   -4.5708    3.8000    0.0000 C   0  0  0  0  0  0  0  0  0  0  0  0
   -5.2708    2.5458    0.0000 C   0  0  0  0  0  0  0  0  0  0  0  0
   -6.0042    6.2792    0.0000 C   0  0  0  0  0  0  0  0  0  0  0  0
   -4.5833    2.9833    0.0000 C   0  0  0  0  0  0  0  0  0  0  0  0
   -3.8583    4.2125    0.0000 N   0  0  0  0  0  0  0  0  0  0  0  0
   -4.5833    5.4542    0.0000 C   0  0  0  0  0  0  0  0  0  0  0  0
   -4.5375    1.3333    0.0000 C   0  0  0  0  0  0  0  0  0  0  0  0
   -5.9583    0.4708    0.0000 O   0  5  0  0  0  0  0  0  0  0  0  0
   -6.6875    1.7125    0.0000 O   0  0  0  0  0  0  0  0  0  0  0  0
   -3.8583    5.0417    0.0000 C   0  0  0  0  0  0  0  0  0  0  0  0
   -3.8583    6.6917    0.0000 C   0  0  0  0  0  0  0  0  0  0  0  0
   -5.3083    4.2042    0.0000 O   0  0  0  0  0  0  0  0  0  0  0  0
   -6.0042    5.4542    0.0000 O   0  0  0  0  0  0  0  0  0  0  0  0
   -3.8458    2.5833    0.0000 C   0  0  0  0  0  0  0  0  0  0  0  0
   -3.8250    1.7708    0.0000 C   0  0  0  0  0  0  0  0  0  0  0  0
   -3.1375    6.2792    0.0000 C   0  0  0  0  0  0  0  0  0  0  0  0
   -5.2875    7.5292    0.0000 C   0  0  0  0  0  0  0  0  0  0  0  0
   -3.1458    5.4542    0.0000 C   0  0  0  0  0  0  0  0  0  0  0  0
   -4.5333    0.4958    0.0000 Cl  0  0  0  0  0  0  0  0  0  0  0  0
   -6.7167    6.7042    0.0000 C   0  0  0  0  0  0  0  0  0  0  0  0
   -4.5708    7.9375    0.0000 C   0  0  0  0  0  0  0  0  0  0  0  0
   -3.8583    7.5250    0.0000 C   0  0  0  0  0  0  0  0  0  0  0  0
  2  1  1  0  0  0  0
  3  4  1  0  0  0  0
  4 10  1  0  0  0  0
  5  8  1  0  0  0  0
  6  2  1  0  0  0  0
  7  3  1  0  0  0  0
  8  6  2  0  0  0  0
  9  5  1  0  0  0  0
 10 14  2  0  0  0  0
 11  2  2  0  0  0  0
 12  1  1  0  0  0  0
 13  1  2  0  0  0  0
 14  9  1  0  0  0  0
 15 20  1  0  0  0  0
 16  5  2  0  0  0  0
 17  7  2  0  0  0  0
 18 19  2  0  0  0  0
 19 11  1  0  0  0  0
 20 22  2  0  0  0  0
 21  3  1  0  0  0  0
 22 14  1  0  0  0  0
 23 11  1  0  0  0  0
 24  7  1  0  0  0  0
 25 26  1  0  0  0  0
 26 15  1  0  0  0  0
 18  8  1  0  0  0  0
  4 15  2  0  0  0  0
 25 21  1  0  0  0  0
M  CHG  2   1   1  12  -1
M  END
> <IDNUMBER>
F2670-0047

> <Chemical_Name>
N-(1-acetyl-1,2,3,4-tetrahydroquinolin-7-yl)-4-chloro-3-nitrobenzamide

> <CAS>
898423-68-2

> <PriceCoeff>
1.00

> <MW>
373.79

> <Description>
solid

> <FSP3>
0.22

> <clogP>
3.09

> <TPSA>
92.55

> <Acceptor>
4

> <Donor>
1

> <RotBonds>
4

> <HAC>
26

> <Collection>
General

$$$$
F0611-0515
  -ISIS-  06222321442D

 27 29  0  0  0  0  0  0  0  0999 V2000
    4.7042    3.3708    0.0000 N   0  3  0  0  0  0  0  0  0  0  0  0
    3.9917    3.7833    0.0000 C   0  0  0  0  0  0  0  0  0  0  0  0
   -1.7250    2.1500    0.0000 N   0  0  0  0  0  0  0  0  0  0  0  0
   -1.0083    2.5625    0.0000 C   0  0  0  0  0  0  0  0  0  0  0  0
   -1.0083    3.3958    0.0000 C   0  0  0  0  0  0  0  0  0  0  0  0
   -1.7250    3.8083    0.0000 C   0  0  0  0  0  0  0  0  0  0  0  0
   -2.4458    2.5708    0.0000 C   0  0  0  0  0  0  0  0  0  0  0  0
    3.2792    3.3958    0.0000 C   0  0  0  0  0  0  0  0  0  0  0  0
   -2.4375    3.3958    0.0000 C   0  0  0  0  0  0  0  0  0  0  0  0
    1.8500    3.3833    0.0000 C   0  0  0  0  0  0  0  0  0  0  0  0
    2.5667    3.7958    0.0000 C   0  0  0  0  0  0  0  0  0  0  0  0
    4.0042    4.6042    0.0000 C   0  0  0  0  0  0  0  0  0  0  0  0
    5.4292    3.7708    0.0000 O   0  5  0  0  0  0  0  0  0  0  0  0
    4.6875    2.5375    0.0000 O   0  0  0  0  0  0  0  0  0  0  0  0
   -0.2958    2.1500    0.0000 O   0  0  0  0  0  0  0  0  0  0  0  0
   -3.1583    2.1500    0.0000 C   0  0  0  0  0  0  0  0  0  0  0  0
    1.8500    2.5625    0.0000 O   0  0  0  0  0  0  0  0  0  0  0  0
    2.5750    4.6292    0.0000 C   0  0  0  0  0  0  0  0  0  0  0  0
   -3.1583    3.8083    0.0000 C   0  0  0  0  0  0  0  0  0  0  0  0
    3.2792    5.0292    0.0000 C   0  0  0  0  0  0  0  0  0  0  0  0
    1.1375    3.8000    0.0000 N   0  0  0  0  0  0  0  0  0  0  0  0
   -3.8708    2.5625    0.0000 C   0  0  0  0  0  0  0  0  0  0  0  0
    4.7292    5.0125    0.0000 Cl  0  0  0  0  0  0  0  0  0  0  0  0
   -3.8708    3.3958    0.0000 C   0  0  0  0  0  0  0  0  0  0  0  0
   -0.2958    3.8000    0.0000 C   0  0  0  0  0  0  0  0  0  0  0  0
    0.4167    3.3958    0.0000 C   0  0  0  0  0  0  0  0  0  0  0  0
   -4.5833    2.1500    0.0000 C   0  0  0  0  0  0  0  0  0  0  0  0
  2  1  1  0  0  0  0
  3  4  1  0  0  0  0
  4  5  1  0  0  0  0
  5 25  1  0  0  0  0
  6  5  2  0  0  0  0
  7  9  1  0  0  0  0
  8  2  1  0  0  0  0
  9  6  1  0  0  0  0
 10 11  1  0  0  0  0
 11  8  2  0  0  0  0
 12  2  2  0  0  0  0
 13  1  1  0  0  0  0
 14  1  2  0  0  0  0
 15  4  2  0  0  0  0
 16  7  2  0  0  0  0
 17 10  2  0  0  0  0
 18 20  2  0  0  0  0
 19  9  2  0  0  0  0
 20 12  1  0  0  0  0
 21 10  1  0  0  0  0
 22 24  2  0  0  0  0
 23 12  1  0  0  0  0
 24 19  1  0  0  0  0
 25 26  1  0  0  0  0
 26 21  1  0  0  0  0
 27 22  1  0  0  0  0
 18 11  1  0  0  0  0
  3  7  1  0  0  0  0
 22 16  1  0  0  0  0
M  CHG  2   1   1  13  -1
M  END
> <IDNUMBER>
F0611-0515

> <Chemical_Name>
4-chloro-N-[2-(7-methyl-2-oxo-1,2-dihydroquinolin-3-yl)ethyl]-3-nitrobenzamide

> <CAS>
851405-10-2

> <PriceCoeff>
1.00

> <MW>
385.80

> <Description>
solid

> <FSP3>
0.16

> <clogP>
2.94

> <TPSA>
101.34

> <Acceptor>
4

> <Donor>
2

> <RotBonds>
5

> <HAC>
27

> <Collection>
General

$$$$
F1381-1021
  -ISIS-  06222321452D

 28 31  0  0  0  0  0  0  0  0999 V2000
   -3.1583    5.0250    0.0000 C   0  0  0  0  0  0  0  0  0  0  0  0
   -3.1583    4.2042    0.0000 N   0  0  0  0  0  0  0  0  0  0  0  0
   -3.8208    5.5042    0.0000 N   0  0  3  0  0  0  0  0  0  0  0  0
   -3.8958    0.5208    0.0000 N   0  0  3  0  0  0  0  0  0  0  0  0
   -2.4958    5.5042    0.0000 S   0  0  0  0  0  0  0  0  0  0  0  0
   -2.7583    6.2792    0.0000 C   0  0  0  0  0  0  0  0  0  0  0  0
   -3.5750    6.2917    0.0000 C   0  0  0  0  0  0  0  0  0  0  0  0
   -3.8708    3.8000    0.0000 C   0  0  0  0  0  0  0  0  0  0  0  0
   -4.5333    0.0083    0.0000 C   0  0  0  0  0  0  0  0  0  0  0  0
   -3.2083    0.0583    0.0000 C   0  0  0  0  0  0  0  0  0  0  0  0
   -2.3458    7.0042    0.0000 C   0  0  0  0  0  0  0  0  0  0  0  0
   -3.8833    1.3375    0.0000 C   0  0  0  0  0  0  0  0  0  0  0  0
   -3.9833    7.0042    0.0000 C   0  0  0  0  0  0  0  0  0  0  0  0
   -3.8708    2.9833    0.0000 C   0  0  0  0  0  0  0  0  0  0  0  0
   -4.5833    4.2042    0.0000 O   0  0  0  0  0  0  0  0  0  0  0  0
   -4.2458   -0.7542    0.0000 C   0  0  0  0  0  0  0  0  0  0  0  0
   -3.4333   -0.7292    0.0000 C   0  0  0  0  0  0  0  0  0  0  0  0
   -5.3208    0.2375    0.0000 O   0  0  0  0  0  0  0  0  0  0  0  0
   -2.4208    0.3458    0.0000 O   0  0  0  0  0  0  0  0  0  0  0  0
   -3.1583    1.7458    0.0000 C   0  0  0  0  0  0  0  0  0  0  0  0
   -4.5833    1.7583    0.0000 C   0  0  0  0  0  0  0  0  0  0  0  0
   -4.5833    2.5833    0.0000 C   0  0  0  0  0  0  0  0  0  0  0  0
   -3.1583    2.5625    0.0000 C   0  0  0  0  0  0  0  0  0  0  0  0
   -2.7583    7.7125    0.0000 C   0  0  0  0  0  0  0  0  0  0  0  0
   -4.6083    5.2500    0.0000 C   0  0  0  0  0  0  0  0  0  0  0  0
   -3.5750    7.7125    0.0000 C   0  0  0  0  0  0  0  0  0  0  0  0
   -2.3458    8.4250    0.0000 F   0  0  0  0  0  0  0  0  0  0  0  0
   -5.2208    5.7917    0.0000 C   0  0  0  0  0  0  0  0  0  0  0  0
  2  1  2  0  0  0  0
  3  1  1  0  0  0  0
  4 12  1  0  0  0  0
  5  1  1  0  0  0  0
  6  5  1  0  0  0  0
  7  3  1  0  0  0  0
  8  2  1  0  0  0  0
  9  4  1  0  0  0  0
 10  4  1  0  0  0  0
 11  6  1  0  0  0  0
 12 20  1  0  0  0  0
 13  7  1  0  0  0  0
 14  8  1  0  0  0  0
 15  8  2  0  0  0  0
 16  9  1  0  0  0  0
 17 10  1  0  0  0  0
 18  9  2  0  0  0  0
 19 10  2  0  0  0  0
 20 23  2  0  0  0  0
 21 22  1  0  0  0  0
 22 14  2  0  0  0  0
 23 14  1  0  0  0  0
 24 11  2  0  0  0  0
 25  3  1  0  0  0  0
 26 13  2  0  0  0  0
 27 24  1  0  0  0  0
 28 25  1  0  0  0  0
  7  6  2  0  0  0  0
 26 24  1  0  0  0  0
 12 21  2  0  0  0  0
 16 17  1  0  0  0  0
M  END
> <IDNUMBER>
F1381-1021

> <Chemical_Name>
4-(2,5-dioxopyrrolidin-1-yl)-N-[(2E)-3-ethyl-6-fluoro-2,3-dihydro-1,3-benzothiazol-2-ylidene]benzamide

> <CAS>
865544-97-4

> <PriceCoeff>
1.00

> <MW>
397.42

> <Description>
solid

> <FSP3>
0.20

> <clogP>
3.62

> <TPSA>
95.35

> <Acceptor>
3

> <Donor>
0

> <RotBonds>
4

> <HAC>
28

> <Collection>
General

$$$$
F0880-0006
  -ISIS-  06222321142D

 17 18  0  0  0  0  0  0  0  0999 V2000
    7.7417   -4.1750    0.0000 C   0  0  0  0  0  0  0  0  0  0  0  0
   11.4625   -4.1875    0.0000 C   0  0  0  0  0  0  0  0  0  0  0  0
    7.7500   -5.2417    0.0000 C   0  0  0  0  0  0  0  0  0  0  0  0
    9.6042   -4.1792    0.0000 N   0  0  0  0  0  0  0  0  0  0  0  0
    6.8292   -3.6292    0.0000 C   0  0  0  0  0  0  0  0  0  0  0  0
   12.3917   -3.6500    0.0000 S   0  0  0  0  0  0  0  0  0  0  0  0
   10.5292   -3.6417    0.0000 N   0  0  0  0  0  0  0  0  0  0  0  0
    8.6792   -3.6417    0.0000 C   0  0  0  0  0  0  0  0  0  0  0  0
    6.8167   -5.7667    0.0000 C   0  0  0  0  0  0  0  0  0  0  0  0
    5.9000   -4.1542    0.0000 C   0  0  0  0  0  0  0  0  0  0  0  0
    5.8875   -5.2292    0.0000 C   0  0  0  0  0  0  0  0  0  0  0  0
   11.4625   -5.2625    0.0000 N   0  0  0  0  0  0  0  0  0  0  0  0
    6.8375   -2.5542    0.0000 O   0  0  0  0  0  0  0  0  0  0  0  0
    8.6667   -5.7875    0.0000 C   0  0  0  0  0  0  0  0  0  0  0  0
    6.8000   -6.8292    0.0000 C   0  0  0  0  0  0  0  0  0  0  0  0
    8.6542   -6.8542    0.0000 C   0  0  0  0  0  0  0  0  0  0  0  0
    7.7167   -7.3792    0.0000 C   0  0  0  0  0  0  0  0  0  0  0  0
  2  7  1  0  0  0  0
  3  1  1  0  0  0  0
  4  8  2  0  0  0  0
  5  1  2  0  0  0  0
  6  2  2  0  0  0  0
  7  4  1  0  0  0  0
  8  1  1  0  0  0  0
  9  3  1  0  0  0  0
 10  5  1  0  0  0  0
 11 10  2  0  0  0  0
 12  2  1  0  0  0  0
 13  5  1  0  0  0  0
 14  3  2  0  0  0  0
 15  9  2  0  0  0  0
 16 14  1  0  0  0  0
 17 16  2  0  0  0  0
 11  9  1  0  0  0  0
 17 15  1  0  0  0  0
M  END
> <IDNUMBER>
F0880-0006

> <Chemical_Name>
[(E)-[(2-hydroxynaphthalen-1-yl)methylidene]amino]thiourea

> <CAS>
1335024-24-2

> <PriceCoeff>
1.00

> <MW>
245.30

> <Description>
solid

> <FSP3>
0.00

> <clogP>
2.37

> <TPSA>
102.73

> <Acceptor>
3

> <Donor>
4

> <RotBonds>
2

> <HAC>
17

> <Collection>
General

> <Reference_compound>
CHEMBL242112

> <Similarity>
0.9000

$$$$
F1814-1676
  -ISIS-  06222321142D

 28 31  0  0  0  0  0  0  0  0999 V2000
   -4.5708    2.6083    0.0000 C   0  0  0  0  0  0  0  0  0  0  0  0
   -3.8708    3.0000    0.0000 N   0  0  0  0  0  0  0  0  0  0  0  0
   -4.6583    1.7625    0.0000 N   0  0  3  0  0  0  0  0  0  0  0  0
   -1.0208    3.8000    0.0000 N   0  0  3  0  0  0  0  0  0  0  0  0
   -5.3333    2.9375    0.0000 S   0  0  0  0  0  0  0  0  0  0  0  0
   -5.4833    1.5875    0.0000 C   0  0  0  0  0  0  0  0  0  0  0  0
   -5.8958    2.3208    0.0000 C   0  0  0  0  0  0  0  0  0  0  0  0
   -3.8708    3.8000    0.0000 C   0  0  0  0  0  0  0  0  0  0  0  0
   -1.7333    4.2042    0.0000 C   0  0  0  0  0  0  0  0  0  0  0  0
   -0.9708    2.9833    0.0000 C   0  0  0  0  0  0  0  0  0  0  0  0
   -0.2583    4.0917    0.0000 C   0  0  0  0  0  0  0  0  0  0  0  0
   -2.4458    3.8083    0.0000 C   0  0  0  0  0  0  0  0  0  0  0  0
   -3.1583    4.2042    0.0000 C   0  0  0  0  0  0  0  0  0  0  0  0
   -5.9083    0.8625    0.0000 C   0  0  0  0  0  0  0  0  0  0  0  0
   -4.5708    4.2042    0.0000 O   0  0  0  0  0  0  0  0  0  0  0  0
   -0.1583    2.7833    0.0000 C   0  0  0  0  0  0  0  0  0  0  0  0
    0.2750    3.4708    0.0000 C   0  0  0  0  0  0  0  0  0  0  0  0
   -1.6083    2.4583    0.0000 O   0  0  0  0  0  0  0  0  0  0  0  0
   -0.0375    4.8875    0.0000 O   0  0  0  0  0  0  0  0  0  0  0  0
   -4.0708    1.2208    0.0000 C   0  0  0  0  0  0  0  0  0  0  0  0
   -5.4875    0.1583    0.0000 F   0  0  0  0  0  0  0  0  0  0  0  0
   -6.7292    2.3333    0.0000 C   0  0  0  0  0  0  0  0  0  0  0  0
   -1.7250    5.0292    0.0000 C   0  0  0  0  0  0  0  0  0  0  0  0
   -3.1583    5.0292    0.0000 C   0  0  0  0  0  0  0  0  0  0  0  0
   -2.4375    5.4417    0.0000 C   0  0  0  0  0  0  0  0  0  0  0  0
   -7.1542    1.5958    0.0000 C   0  0  0  0  0  0  0  0  0  0  0  0
   -6.7292    0.8708    0.0000 C   0  0  0  0  0  0  0  0  0  0  0  0
   -4.1833    0.5458    0.0000 C   0  0  0  0  0  0  0  0  0  0  0  0
  2  1  2  0  0  0  0
  3  1  1  0  0  0  0
  4  9  1  0  0  0  0
  5  1  1  0  0  0  0
  6  3  1  0  0  0  0
  7  5  1  0  0  0  0
  8  2  1  0  0  0  0
  9 12  1  0  0  0  0
 10  4  1  0  0  0  0
 11  4  1  0  0  0  0
 12 13  2  0  0  0  0
 13  8  1  0  0  0  0
 14  6  1  0  0  0  0
 15  8  2  0  0  0  0
 16 10  1  0  0  0  0
 17 11  1  0  0  0  0
 18 10  2  0  0  0  0
 19 11  2  0  0  0  0
 20  3  1  0  0  0  0
 21 14  1  0  0  0  0
 22  7  1  0  0  0  0
 23 25  1  0  0  0  0
 24 13  1  0  0  0  0
 25 24  2  0  0  0  0
 26 22  2  0  0  0  0
 27 14  2  0  0  0  0
 28 20  1  0  0  0  0
  7  6  2  0  0  0  0
 27 26  1  0  0  0  0
 23  9  2  0  0  0  0
 17 16  1  0  0  0  0
M  END
> <IDNUMBER>
F1814-1676

> <Chemical_Name>
3-(2,5-dioxopyrrolidin-1-yl)-N-[(2Z)-3-ethyl-4-fluoro-2,3-dihydro-1,3-benzothiazol-2-ylidene]benzamide

> <CAS>
868375-25-1

> <PriceCoeff>
1.00

> <MW>
397.42

> <Description>
solid

> <FSP3>
0.20

> <clogP>
3.62

> <TPSA>
95.35

> <Acceptor>
3

> <Donor>
0

> <RotBonds>
4

> <HAC>
28

> <Collection>
General

$$$$
F2744-0456
  -ISIS-  06222321462D

 28 30  0  0  0  0  0  0  0  0999 V2000
   -2.4583    2.6708    0.0000 C   0  0  0  0  0  0  0  0  0  0  0  0
   -3.1708    1.4333    0.0000 N   0  0  3  0  0  0  0  0  0  0  0  0
   -0.1833    5.7042    0.0000 N   0  3  0  0  0  0  0  0  0  0  0  0
    0.0417    4.8792    0.0000 C   0  0  0  0  0  0  0  0  0  0  0  0
   -2.4583    1.8458    0.0000 C   0  0  0  0  0  0  0  0  0  0  0  0
   -1.7458    3.0833    0.0000 C   0  0  0  0  0  0  0  0  0  0  0  0
   -3.8750    1.8458    0.0000 C   0  0  0  0  0  0  0  0  0  0  0  0
   -3.1708    3.0833    0.0000 C   0  0  0  0  0  0  0  0  0  0  0  0
   -3.8750    2.6708    0.0000 C   0  0  0  0  0  0  0  0  0  0  0  0
   -3.1708    0.5875    0.0000 C   0  0  0  0  0  0  0  0  0  0  0  0
   -0.9250    2.8708    0.0000 N   0  0  0  0  0  0  0  0  0  0  0  0
   -0.5583    4.2792    0.0000 C   0  0  0  0  0  0  0  0  0  0  0  0
    0.8542    4.6667    0.0000 C   0  0  0  0  0  0  0  0  0  0  0  0
    0.4042    6.3042    0.0000 O   0  5  0  0  0  0  0  0  0  0  0  0
   -2.4333    0.1708    0.0000 C   0  0  0  0  0  0  0  0  0  0  0  0
   -1.0083    5.9167    0.0000 O   0  0  0  0  0  0  0  0  0  0  0  0
   -0.3333    3.4708    0.0000 C   0  0  0  0  0  0  0  0  0  0  0  0
   -2.1583    3.8000    0.0000 O   0  0  0  0  0  0  0  0  0  0  0  0
   -4.5625    1.8958    0.0000 O   0  0  0  0  0  0  0  0  0  0  0  0
   -2.4250   -0.6750    0.0000 C   0  0  0  0  0  0  0  0  0  0  0  0
    1.0792    3.8708    0.0000 C   0  0  0  0  0  0  0  0  0  0  0  0
    0.4875    3.2583    0.0000 C   0  0  0  0  0  0  0  0  0  0  0  0
    1.4500    5.2792    0.0000 Cl  0  0  0  0  0  0  0  0  0  0  0  0
   -1.6958    0.6083    0.0000 C   0  0  0  0  0  0  0  0  0  0  0  0
   -3.1500   -1.1042    0.0000 C   0  0  0  0  0  0  0  0  0  0  0  0
   -1.6833   -1.0875    0.0000 C   0  0  0  0  0  0  0  0  0  0  0  0
   -0.9583    0.1875    0.0000 C   0  0  0  0  0  0  0  0  0  0  0  0
   -0.9500   -0.6625    0.0000 C   0  0  0  0  0  0  0  0  0  0  0  0
  2  5  1  0  0  0  0
  3  4  1  0  0  0  0
  4 12  2  0  0  0  0
  5  1  2  0  0  0  0
  6  1  1  0  0  0  0
  7  9  1  0  0  0  0
  8  1  1  0  0  0  0
  9  8  2  0  0  0  0
 10  2  1  0  0  0  0
 11  6  1  0  0  0  0
 12 17  1  0  0  0  0
 13 21  2  0  0  0  0
 14  3  1  0  0  0  0
 15 10  1  0  0  0  0
 16  3  2  0  0  0  0
 17 11  1  0  0  0  0
 18  6  2  0  0  0  0
 19  7  2  0  0  0  0
 20 15  2  0  0  0  0
 21 22  1  0  0  0  0
 22 17  2  0  0  0  0
 23 13  1  0  0  0  0
 24 15  1  0  0  0  0
 25 20  1  0  0  0  0
 26 20  1  0  0  0  0
 27 24  2  0  0  0  0
 28 27  1  0  0  0  0
  2  7  1  0  0  0  0
 13  4  1  0  0  0  0
 28 26  2  0  0  0  0
M  CHG  2   3   1  14  -1
M  END
> <IDNUMBER>
F2744-0456

> <Chemical_Name>
N-(4-chloro-3-nitrophenyl)-1-[(2-methylphenyl)methyl]-6-oxo-1,6-dihydropyridine-3-carboxamide

> <CAS>
899970-25-3

> <PriceCoeff>
1.00

> <MW>
397.81

> <Description>
solid

> <FSP3>
0.10

> <clogP>
3.80

> <TPSA>
92.55

> <Acceptor>
4

> <Donor>
1

> <RotBonds>
5

> <HAC>
28

> <Collection>
General

$$$$
F0347-0397
  -ISIS-  06222321142D

 21 22  0  0  0  0  0  0  0  0999 V2000
    1.9042   -1.9500    0.0000 N   0  3  0  0  0  0  0  0  0  0  0  0
    1.9042   -0.8000    0.0000 C   0  0  0  0  0  0  0  0  0  0  0  0
   -0.0625    1.4500    0.0000 C   0  0  0  0  0  0  0  0  0  0  0  0
    0.9292   -0.2500    0.0000 C   0  0  0  0  0  0  0  0  0  0  0  0
   -1.0625    0.8708    0.0000 N   0  0  0  0  0  0  0  0  0  0  0  0
    0.9292    0.8958    0.0000 C   0  0  0  0  0  0  0  0  0  0  0  0
    2.9000   -0.2500    0.0000 C   0  0  0  0  0  0  0  0  0  0  0  0
    0.9292   -2.5000    0.0000 O   0  5  0  0  0  0  0  0  0  0  0  0
    2.9000   -2.5000    0.0000 O   0  0  0  0  0  0  0  0  0  0  0  0
   -1.0458   -0.2542    0.0000 C   0  0  3  0  0  0  0  0  0  0  0  0
   -0.0625    2.5958    0.0000 O   0  0  0  0  0  0  0  0  0  0  0  0
    1.9042    1.4500    0.0000 C   0  0  0  0  0  0  0  0  0  0  0  0
    2.9000    0.8958    0.0000 C   0  0  0  0  0  0  0  0  0  0  0  0
   -2.0208   -0.8500    0.0000 C   0  0  0  0  0  0  0  0  0  0  0  0
    3.9000   -0.8167    0.0000 Cl  0  0  0  0  0  0  0  0  0  0  0  0
   -0.0625   -0.8167    0.0000 C   0  0  0  0  0  0  0  0  0  0  0  0
   -3.0000   -0.2792    0.0000 C   0  0  0  0  0  0  0  0  0  0  0  0
   -2.0208   -1.9542    0.0000 C   0  0  0  0  0  0  0  0  0  0  0  0
   -3.0000   -2.5167    0.0000 C   0  0  0  0  0  0  0  0  0  0  0  0
   -3.9833   -0.8500    0.0000 C   0  0  0  0  0  0  0  0  0  0  0  0
   -3.9833   -1.9500    0.0000 C   0  0  0  0  0  0  0  0  0  0  0  0
  2  1  1  0  0  0  0
  3  6  1  0  0  0  0
  4  2  1  0  0  0  0
  5  3  1  0  0  0  0
  6  4  2  0  0  0  0
  7  2  2  0  0  0  0
  8  1  1  0  0  0  0
  9  1  2  0  0  0  0
 10  5  1  0  0  0  0
 11  3  2  0  0  0  0
 12 13  2  0  0  0  0
 13  7  1  0  0  0  0
 14 10  1  0  0  0  0
 15  7  1  0  0  0  0
 16 10  1  0  0  0  0
 17 14  2  0  0  0  0
 18 14  1  0  0  0  0
 19 18  2  0  0  0  0
 20 17  1  0  0  0  0
 21 19  1  0  0  0  0
 12  6  1  0  0  0  0
 21 20  2  0  0  0  0
M  CHG  2   1   1   8  -1
M  END
> <IDNUMBER>
F0347-0397

> <Chemical_Name>
4-chloro-3-nitro-N-(1-phenylethyl)benzamide

> <CAS>
312743-45-6

> <PriceCoeff>
1.00

> <MW>
304.73

> <Description>
solid

> <FSP3>
0.13

> <clogP>
3.95

> <TPSA>
72.24

> <Acceptor>
3

> <Donor>
1

> <RotBonds>
4

> <HAC>
21

> <Collection>
General

$$$$
F2743-0456
  -ISIS-  06222321152D

 28 30  0  0  0  0  0  0  0  0999 V2000
   -2.7583    2.1625    0.0000 C   0  0  0  0  0  0  0  0  0  0  0  0
   -2.7583    1.3375    0.0000 C   0  0  0  0  0  0  0  0  0  0  0  0
   -0.8333    6.0125    0.0000 N   0  3  0  0  0  0  0  0  0  0  0  0
   -3.4708    0.9333    0.0000 N   0  0  3  0  0  0  0  0  0  0  0  0
   -0.4708    5.1375    0.0000 C   0  0  0  0  0  0  0  0  0  0  0  0
   -2.2083    2.8958    0.0000 C   0  0  0  0  0  0  0  0  0  0  0  0
   -1.2750    2.7708    0.0000 N   0  0  0  0  0  0  0  0  0  0  0  0
   -3.4708   -0.0167    0.0000 C   0  0  0  0  0  0  0  0  0  0  0  0
   -1.0583    4.3875    0.0000 C   0  0  0  0  0  0  0  0  0  0  0  0
   -3.4708    2.5833    0.0000 C   0  0  0  0  0  0  0  0  0  0  0  0
    0.4667    5.0125    0.0000 C   0  0  0  0  0  0  0  0  0  0  0  0
   -4.1750    1.3375    0.0000 C   0  0  0  0  0  0  0  0  0  0  0  0
   -0.2583    6.7625    0.0000 O   0  5  0  0  0  0  0  0  0  0  0  0
   -2.6500   -0.4792    0.0000 C   0  0  0  0  0  0  0  0  0  0  0  0
   -1.7708    6.1417    0.0000 O   0  0  0  0  0  0  0  0  0  0  0  0
   -0.6958    3.5208    0.0000 C   0  0  0  0  0  0  0  0  0  0  0  0
   -1.8333    1.4875    0.0000 O   0  0  0  0  0  0  0  0  0  0  0  0
   -4.1750    2.1625    0.0000 C   0  0  0  0  0  0  0  0  0  0  0  0
   -2.5500    3.8000    0.0000 O   0  0  0  0  0  0  0  0  0  0  0  0
   -2.6375   -1.4292    0.0000 C   0  0  0  0  0  0  0  0  0  0  0  0
    0.8167    4.1292    0.0000 C   0  0  0  0  0  0  0  0  0  0  0  0
    0.2417    3.3833    0.0000 C   0  0  0  0  0  0  0  0  0  0  0  0
    1.0417    5.7625    0.0000 Cl  0  0  0  0  0  0  0  0  0  0  0  0
   -1.8208   -0.0000    0.0000 C   0  0  0  0  0  0  0  0  0  0  0  0
   -3.4583   -1.9125    0.0000 C   0  0  0  0  0  0  0  0  0  0  0  0
   -1.8083   -1.9000    0.0000 C   0  0  0  0  0  0  0  0  0  0  0  0
   -0.9958   -0.4750    0.0000 C   0  0  0  0  0  0  0  0  0  0  0  0
   -0.9958   -1.4167    0.0000 C   0  0  0  0  0  0  0  0  0  0  0  0
  2  1  1  0  0  0  0
  3  5  1  0  0  0  0
  4  2  1  0  0  0  0
  5  9  2  0  0  0  0
  6  1  1  0  0  0  0
  7  6  1  0  0  0  0
  8  4  1  0  0  0  0
  9 16  1  0  0  0  0
 10  1  2  0  0  0  0
 11 21  2  0  0  0  0
 12 18  2  0  0  0  0
 13  3  1  0  0  0  0
 14  8  1  0  0  0  0
 15  3  2  0  0  0  0
 16  7  1  0  0  0  0
 17  2  2  0  0  0  0
 18 10  1  0  0  0  0
 19  6  2  0  0  0  0
 20 14  2  0  0  0  0
 21 22  1  0  0  0  0
 22 16  2  0  0  0  0
 23 11  1  0  0  0  0
 24 14  1  0  0  0  0
 25 20  1  0  0  0  0
 26 20  1  0  0  0  0
 27 24  2  0  0  0  0
 28 27  1  0  0  0  0
  4 12  1  0  0  0  0
 11  5  1  0  0  0  0
 28 26  2  0  0  0  0
M  CHG  2   3   1  13  -1
M  END
> <IDNUMBER>
F2743-0456

> <Chemical_Name>
N-(4-chloro-3-nitrophenyl)-1-[(2-methylphenyl)methyl]-2-oxo-1,2-dihydropyridine-3-carboxamide

> <CAS>
899991-30-1

> <PriceCoeff>
1.00

> <MW>
397.81

> <Description>
solid

> <FSP3>
0.10

> <clogP>
3.80

> <TPSA>
92.55

> <Acceptor>
4

> <Donor>
1

> <RotBonds>
5

> <HAC>
28

> <Collection>
General

$$$$
F1359-0444
  -ISIS-  06222321142D

 30 33  0  0  0  0  0  0  0  0999 V2000
   -1.1625    2.3833    0.0000 C   0  0  0  0  0  0  0  0  0  0  0  0
   -0.3375    2.3750    0.0000 N   0  0  0  0  0  0  0  0  0  0  0  0
   -1.6458    1.7208    0.0000 N   0  0  3  0  0  0  0  0  0  0  0  0
    3.3792    3.0708    0.0000 N   0  0  3  0  0  0  0  0  0  0  0  0
   -1.6458    3.0500    0.0000 S   0  0  0  0  0  0  0  0  0  0  0  0
    0.0750    3.0875    0.0000 C   0  0  0  0  0  0  0  0  0  0  0  0
   -2.4333    1.9708    0.0000 C   0  0  0  0  0  0  0  0  0  0  0  0
    3.8500    3.7583    0.0000 C   0  0  0  0  0  0  0  0  0  0  0  0
    3.8917    2.4250    0.0000 C   0  0  0  0  0  0  0  0  0  0  0  0
   -2.4333    2.7958    0.0000 C   0  0  0  0  0  0  0  0  0  0  0  0
    2.5542    3.0833    0.0000 C   0  0  0  0  0  0  0  0  0  0  0  0
    0.9000    3.0875    0.0000 C   0  0  0  0  0  0  0  0  0  0  0  0
   -0.3375    3.8000    0.0000 O   0  0  0  0  0  0  0  0  0  0  0  0
    4.6417    3.5250    0.0000 C   0  0  0  0  0  0  0  0  0  0  0  0
    4.6667    2.7083    0.0000 C   0  0  0  0  0  0  0  0  0  0  0  0
    3.5667    4.5417    0.0000 O   0  0  0  0  0  0  0  0  0  0  0  0
    3.6667    1.6333    0.0000 O   0  0  0  0  0  0  0  0  0  0  0  0
    2.1417    3.8000    0.0000 C   0  0  0  0  0  0  0  0  0  0  0  0
    2.1292    2.3708    0.0000 C   0  0  0  0  0  0  0  0  0  0  0  0
    1.3125    2.3833    0.0000 C   0  0  0  0  0  0  0  0  0  0  0  0
    1.3250    3.8083    0.0000 C   0  0  0  0  0  0  0  0  0  0  0  0
   -1.3958    0.9333    0.0000 C   0  0  0  0  0  0  0  0  0  0  0  0
   -3.1458    1.5583    0.0000 C   0  0  0  0  0  0  0  0  0  0  0  0
   -3.1458    3.2083    0.0000 C   0  0  0  0  0  0  0  0  0  0  0  0
   -2.7500    0.4875    0.0000 O   0  0  0  0  0  0  0  0  0  0  0  0
   -1.9458    0.3208    0.0000 C   0  0  0  0  0  0  0  0  0  0  0  0
   -3.3083   -0.1250    0.0000 C   0  0  0  0  0  0  0  0  0  0  0  0
   -3.8583    1.9708    0.0000 C   0  0  0  0  0  0  0  0  0  0  0  0
   -3.8583    2.7958    0.0000 C   0  0  0  0  0  0  0  0  0  0  0  0
   -4.5833    3.2125    0.0000 H   0  0  0  0  0  0  0  0  0  0  0  0
  2  1  2  0  0  0  0
  3  1  1  0  0  0  0
  4 11  1  0  0  0  0
  5  1  1  0  0  0  0
  6  2  1  0  0  0  0
  7  3  1  0  0  0  0
  8  4  1  0  0  0  0
  9  4  1  0  0  0  0
 10  5  1  0  0  0  0
 11 18  1  0  0  0  0
 12  6  1  0  0  0  0
 13  6  2  0  0  0  0
 14  8  1  0  0  0  0
 15  9  1  0  0  0  0
 16  8  2  0  0  0  0
 17  9  2  0  0  0  0
 18 21  2  0  0  0  0
 19 20  1  0  0  0  0
 20 12  2  0  0  0  0
 21 12  1  0  0  0  0
 22  3  1  0  0  0  0
 23  7  1  0  0  0  0
 24 10  1  0  0  0  0
 25 26  1  0  0  0  0
 26 22  1  0  0  0  0
 27 25  1  0  0  0  0
 28 23  2  0  0  0  0
 29 24  2  0  0  0  0
 30 29  1  0  0  0  0
  7 10  2  0  0  0  0
 28 29  1  0  0  0  0
 11 19  2  0  0  0  0
 14 15  1  0  0  0  0
M  END
> <IDNUMBER>
F1359-0444

> <Chemical_Name>
4-(2,5-dioxopyrrolidin-1-yl)-N-[(2Z)-3-(2-methoxyethyl)-2,3-dihydro-1,3-benzothiazol-2-ylidene]benzamide

> <CAS>
864975-56-4

> <PriceCoeff>
1.00

> <MW>
409.46

> <Description>
solid

> <FSP3>
0.24

> <clogP>
2.62

> <TPSA>
104.58

> <Acceptor>
4

> <Donor>
0

> <RotBonds>
6

> <HAC>
29

> <Collection>
General

$$$$
F1168-0056
  -ISIS-  06222321442D

 20 22  0  0  0  0  0  0  0  0999 V2000
    1.0750   -2.0042    0.0000 C   0  0  0  0  0  0  0  0  0  0  0  0
    2.5042   -2.0042    0.0000 C   0  0  0  0  0  0  0  0  0  0  0  0
    1.7875   -2.4167    0.0000 N   0  0  0  0  0  0  0  0  0  0  0  0
    2.5042   -1.1750    0.0000 C   0  0  0  0  0  0  0  0  0  0  0  0
    1.0750   -1.1750    0.0000 N   0  0  0  0  0  0  0  0  0  0  0  0
    1.7875   -0.7542    0.0000 C   0  0  3  0  0  0  0  0  0  0  0  0
    0.3542   -2.4167    0.0000 S   0  0  0  0  0  0  0  0  0  0  0  0
    1.7875    0.0708    0.0000 C   0  0  0  0  0  0  0  0  0  0  0  0
    3.2167   -2.4167    0.0000 C   0  0  0  0  0  0  0  0  0  0  0  0
    2.5042    0.4875    0.0000 C   0  0  0  0  0  0  0  0  0  0  0  0
    1.0750    0.4875    0.0000 C   0  0  0  0  0  0  0  0  0  0  0  0
    1.7917    1.7333    0.0000 C   0  0  0  0  0  0  0  0  0  0  0  0
    1.0667    1.3125    0.0000 C   0  0  0  0  0  0  0  0  0  0  0  0
    2.5042    1.3208    0.0000 C   0  0  0  0  0  0  0  0  0  0  0  0
    1.7917    2.5583    0.0000 Cl  0  0  0  0  0  0  0  0  0  0  0  0
    3.2167   -3.2500    0.0000 C   0  0  0  0  0  0  0  0  0  0  0  0
    3.9375   -2.0042    0.0000 C   0  0  0  0  0  0  0  0  0  0  0  0
    4.6542   -2.4167    0.0000 C   0  0  0  0  0  0  0  0  0  0  0  0
    3.9375   -3.6625    0.0000 C   0  0  0  0  0  0  0  0  0  0  0  0
    4.6542   -3.2500    0.0000 C   0  0  0  0  0  0  0  0  0  0  0  0
  2  3  1  0  0  0  0
  3  1  1  0  0  0  0
  4  6  1  0  0  0  0
  5  1  1  0  0  0  0
  6  5  1  0  0  0  0
  7  1  2  0  0  0  0
  8  6  1  0  0  0  0
  9  2  1  0  0  0  0
 10  8  2  0  0  0  0
 11  8  1  0  0  0  0
 12 13  1  0  0  0  0
 13 11  2  0  0  0  0
 14 10  1  0  0  0  0
 15 12  1  0  0  0  0
 16  9  2  0  0  0  0
 17  9  1  0  0  0  0
 18 17  2  0  0  0  0
 19 16  1  0  0  0  0
 20 18  1  0  0  0  0
  2  4  2  0  0  0  0
 14 12  2  0  0  0  0
 19 20  2  0  0  0  0
M  END
> <IDNUMBER>
F1168-0056

> <Chemical_Name>
4-(4-chlorophenyl)-6-phenyl-1,2,3,4-tetrahydropyrimidine-2-thione

> <CAS>
71834-45-2

> <PriceCoeff>
1.00

> <MW>
300.81

> <Description>
solid

> <FSP3>
0.06

> <clogP>
3.70

> <TPSA>
56.15

> <Acceptor>
1

> <Donor>
2

> <RotBonds>
2

> <HAC>
20

> <Collection>
General

> <Reference_compound>
CHEMBL2272930

> <Similarity>
0.9010

$$$$
F2106-0042
  -ISIS-  06222321462D

 21 23  0  0  0  0  0  0  0  0999 V2000
    3.3625   -1.4250    0.0000 C   0  0  0  0  0  0  0  0  0  0  0  0
    2.6375   -1.8375    0.0000 C   0  0  0  0  0  0  0  0  0  0  0  0
    1.9167   -1.4250    0.0000 C   0  0  0  0  0  0  0  0  0  0  0  0
    3.3625   -0.5917    0.0000 C   0  0  0  0  0  0  0  0  0  0  0  0
    1.9250   -0.5917    0.0000 C   0  0  0  0  0  0  0  0  0  0  0  0
    2.6417   -0.1667    0.0000 O   0  0  0  0  0  0  0  0  0  0  0  0
    1.2042   -1.8292    0.0000 C   0  0  0  0  0  0  0  0  0  0  0  0
    1.2042   -0.1792    0.0000 C   0  0  0  0  0  0  0  0  0  0  0  0
    4.0667   -1.8375    0.0000 C   0  0  0  0  0  0  0  0  0  0  0  0
    2.6375   -2.6625    0.0000 O   0  0  0  0  0  0  0  0  0  0  0  0
    0.4917   -0.5917    0.0000 C   0  0  0  0  0  0  0  0  0  0  0  0
    0.4917   -1.4167    0.0000 C   0  0  0  0  0  0  0  0  0  0  0  0
   -2.3625   -0.5917    0.0000 Br  0  0  0  0  0  0  0  0  0  0  0  0
   -0.2208   -0.1792    0.0000 O   0  0  0  0  0  0  0  0  0  0  0  0
    4.7792   -1.4292    0.0000 C   0  0  0  0  0  0  0  0  0  0  0  0
    4.0667   -2.6667    0.0000 C   0  0  0  0  0  0  0  0  0  0  0  0
   -1.6458   -0.1792    0.0000 C   0  0  0  0  0  0  0  0  0  0  0  0
   -0.9333   -0.5917    0.0000 C   0  0  0  0  0  0  0  0  0  0  0  0
    5.4917   -1.8417    0.0000 C   0  0  0  0  0  0  0  0  0  0  0  0
    4.7792   -3.0792    0.0000 C   0  0  0  0  0  0  0  0  0  0  0  0
    5.4917   -2.6667    0.0000 C   0  0  0  0  0  0  0  0  0  0  0  0
  2  1  1  0  0  0  0
  3  2  1  0  0  0  0
  4  1  2  0  0  0  0
  5  6  1  0  0  0  0
  6  4  1  0  0  0  0
  7  3  2  0  0  0  0
  8  5  2  0  0  0  0
  9  1  1  0  0  0  0
 10  2  2  0  0  0  0
 11  8  1  0  0  0  0
 12  7  1  0  0  0  0
 13 17  1  0  0  0  0
 14 11  1  0  0  0  0
 15  9  1  0  0  0  0
 16  9  2  0  0  0  0
 17 18  1  0  0  0  0
 18 14  1  0  0  0  0
 19 15  2  0  0  0  0
 20 16  1  0  0  0  0
 21 20  2  0  0  0  0
  5  3  1  0  0  0  0
 19 21  1  0  0  0  0
 11 12  2  0  0  0  0
M  END
> <IDNUMBER>
F2106-0042

> <Chemical_Name>
7-(2-bromoethoxy)-3-phenyl-4H-chromen-4-one

> <CAS>
287472-10-0

> <PriceCoeff>
1.00

> <MW>
345.19

> <Description>
solid

> <FSP3>
0.12

> <clogP>
3.82

> <TPSA>
35.53

> <Acceptor>
3

> <Donor>
0

> <RotBonds>
4

> <HAC>
21

> <Collection>
General

> <Reference_compound>
CHEMBL44

> <Similarity>
0.8690

$$$$
F0611-0842
  -ISIS-  06222321142D

 28 30  0  0  0  0  0  0  0  0999 V2000
   -1.7250    2.1500    0.0000 N   0  0  0  0  0  0  0  0  0  0  0  0
    4.7042    3.3708    0.0000 N   0  3  0  0  0  0  0  0  0  0  0  0
    3.9917    3.7833    0.0000 C   0  0  0  0  0  0  0  0  0  0  0  0
   -2.4458    2.5708    0.0000 C   0  0  0  0  0  0  0  0  0  0  0  0
   -1.0083    2.5625    0.0000 C   0  0  0  0  0  0  0  0  0  0  0  0
   -1.0083    3.3958    0.0000 C   0  0  0  0  0  0  0  0  0  0  0  0
   -1.7250    3.8083    0.0000 C   0  0  0  0  0  0  0  0  0  0  0  0
   -2.4375    3.3958    0.0000 C   0  0  0  0  0  0  0  0  0  0  0  0
    3.2792    3.3958    0.0000 C   0  0  0  0  0  0  0  0  0  0  0  0
   -3.1583    2.1500    0.0000 C   0  0  0  0  0  0  0  0  0  0  0  0
    1.8500    3.3833    0.0000 C   0  0  0  0  0  0  0  0  0  0  0  0
    2.5667    3.7958    0.0000 C   0  0  0  0  0  0  0  0  0  0  0  0
    4.0042    4.6042    0.0000 C   0  0  0  0  0  0  0  0  0  0  0  0
    5.4292    3.7708    0.0000 O   0  5  0  0  0  0  0  0  0  0  0  0
    4.6875    2.5375    0.0000 O   0  0  0  0  0  0  0  0  0  0  0  0
   -0.2958    2.1500    0.0000 O   0  0  0  0  0  0  0  0  0  0  0  0
   -3.8708    2.5625    0.0000 C   0  0  0  0  0  0  0  0  0  0  0  0
   -3.1583    3.8083    0.0000 C   0  0  0  0  0  0  0  0  0  0  0  0
    1.8500    2.5625    0.0000 O   0  0  0  0  0  0  0  0  0  0  0  0
    2.5750    4.6292    0.0000 C   0  0  0  0  0  0  0  0  0  0  0  0
    3.2792    5.0292    0.0000 C   0  0  0  0  0  0  0  0  0  0  0  0
    1.1375    3.8000    0.0000 N   0  0  0  0  0  0  0  0  0  0  0  0
   -3.8708    3.3958    0.0000 C   0  0  0  0  0  0  0  0  0  0  0  0
    4.7292    5.0125    0.0000 Cl  0  0  0  0  0  0  0  0  0  0  0  0
   -0.2958    3.8000    0.0000 C   0  0  0  0  0  0  0  0  0  0  0  0
    0.4167    3.3958    0.0000 C   0  0  0  0  0  0  0  0  0  0  0  0
   -3.1500    1.3250    0.0000 C   0  0  0  0  0  0  0  0  0  0  0  0
   -4.5833    2.1500    0.0000 C   0  0  0  0  0  0  0  0  0  0  0  0
  2  3  1  0  0  0  0
  3  9  1  0  0  0  0
  4  1  1  0  0  0  0
  5  1  1  0  0  0  0
  6  5  1  0  0  0  0
  7  6  2  0  0  0  0
  8  4  1  0  0  0  0
  9 12  2  0  0  0  0
 10  4  2  0  0  0  0
 11 22  1  0  0  0  0
 12 11  1  0  0  0  0
 13 21  1  0  0  0  0
 14  2  1  0  0  0  0
 15  2  2  0  0  0  0
 16  5  2  0  0  0  0
 17 10  1  0  0  0  0
 18  8  2  0  0  0  0
 19 11  2  0  0  0  0
 20 12  1  0  0  0  0
 21 20  2  0  0  0  0
 22 26  1  0  0  0  0
 23 17  2  0  0  0  0
 24 13  1  0  0  0  0
 25  6  1  0  0  0  0
 26 25  1  0  0  0  0
 27 10  1  0  0  0  0
 28 17  1  0  0  0  0
  7  8  1  0  0  0  0
 23 18  1  0  0  0  0
  3 13  2  0  0  0  0
M  CHG  2   2   1  14  -1
M  END
> <IDNUMBER>
F0611-0842

> <Chemical_Name>
4-chloro-N-[2-(7,8-dimethyl-2-oxo-1,2-dihydroquinolin-3-yl)ethyl]-3-nitrobenzamide

> <CAS>
851408-11-2

> <PriceCoeff>
1.00

> <MW>
399.83

> <Description>
solid

> <FSP3>
0.20

> <clogP>
3.38

> <TPSA>
101.34

> <Acceptor>
4

> <Donor>
2

> <RotBonds>
5

> <HAC>
28

> <Collection>
General

$$$$
F1529-0125
  -ISIS-  06222321142D

 28 30  0  0  0  0  0  0  0  0999 V2000
    5.4000   -4.3750    0.0000 C   0  0  0  0  0  0  0  0  0  0  0  0
   10.2250   -0.7917    0.0000 N   0  3  0  0  0  0  0  0  0  0  0  0
    7.7667   -2.9917    0.0000 C   0  0  0  0  0  0  0  0  0  0  0  0
    8.3792   -2.4417    0.0000 C   0  0  0  0  0  0  0  0  0  0  0  0
    6.9667   -2.8167    0.0000 O   0  0  0  0  0  0  0  0  0  0  0  0
    4.5792   -4.4625    0.0000 C   0  0  0  0  0  0  0  0  0  0  0  0
    5.7375   -3.6167    0.0000 C   0  0  0  0  0  0  0  0  0  0  0  0
    6.5542   -3.5375    0.0000 C   0  0  0  0  0  0  0  0  0  0  0  0
    9.1667   -2.7042    0.0000 C   0  0  0  0  0  0  0  0  0  0  0  0
    9.6125   -1.3417    0.0000 C   0  0  0  0  0  0  0  0  0  0  0  0
    9.7792   -2.1542    0.0000 C   0  0  0  0  0  0  0  0  0  0  0  0
    7.8542   -3.8125    0.0000 C   0  0  0  0  0  0  0  0  0  0  0  0
    5.8792   -5.0417    0.0000 C   0  0  0  0  0  0  0  0  0  0  0  0
    6.4667   -5.6292    0.0000 N   0  0  0  0  0  0  0  0  0  0  0  0
    7.1042   -4.1417    0.0000 C   0  0  0  0  0  0  0  0  0  0  0  0
    4.0917   -3.7917    0.0000 N   0  0  0  0  0  0  0  0  0  0  0  0
    8.2125   -1.6417    0.0000 C   0  0  0  0  0  0  0  0  0  0  0  0
   11.0042   -1.0417    0.0000 O   0  5  0  0  0  0  0  0  0  0  0  0
    2.7875   -3.2125    0.0000 C   0  0  0  0  0  0  0  0  0  0  0  0
   10.0542    0.0208    0.0000 O   0  0  0  0  0  0  0  0  0  0  0  0
    1.9625   -3.2125    0.0000 O   0  0  0  0  0  0  0  0  0  0  0  0
    8.8250   -1.0917    0.0000 C   0  0  0  0  0  0  0  0  0  0  0  0
    4.2417   -5.2125    0.0000 O   0  0  0  0  0  0  0  0  0  0  0  0
    3.0417   -2.4250    0.0000 C   0  0  0  0  0  0  0  0  0  0  0  0
    1.7125   -2.4250    0.0000 C   0  0  0  0  0  0  0  0  0  0  0  0
    2.3750   -1.9417    0.0000 C   0  0  0  0  0  0  0  0  0  0  0  0
    3.2750   -3.8792    0.0000 C   0  0  0  0  0  0  0  0  0  0  0  0
    9.3792   -3.5000    0.0000 Cl  0  0  0  0  0  0  0  0  0  0  0  0
  2 10  1  0  0  0  0
  3  5  1  0  0  0  0
  4  3  1  0  0  0  0
  5  8  1  0  0  0  0
  6  1  1  0  0  0  0
  7  1  2  0  0  0  0
  8  7  1  0  0  0  0
  9  4  2  0  0  0  0
 10 22  1  0  0  0  0
 11  9  1  0  0  0  0
 12 15  1  0  0  0  0
 13  1  1  0  0  0  0
 14 13  3  0  0  0  0
 15  8  2  0  0  0  0
 16  6  1  0  0  0  0
 17  4  1  0  0  0  0
 18  2  1  0  0  0  0
 19 27  1  0  0  0  0
 20  2  2  0  0  0  0
 21 19  1  0  0  0  0
 22 17  2  0  0  0  0
 23  6  2  0  0  0  0
 24 19  2  0  0  0  0
 25 21  1  0  0  0  0
 26 24  1  0  0  0  0
 27 16  1  0  0  0  0
 28  9  1  0  0  0  0
 12  3  2  0  0  0  0
 25 26  2  0  0  0  0
 11 10  2  0  0  0  0
M  CHG  2   2   1  18  -1
M  END
> <IDNUMBER>
F1529-0125

> <Chemical_Name>
(2E)-3-[5-(2-chloro-4-nitrophenyl)furan-2-yl]-2-cyano-N-[(furan-2-yl)methyl]prop-2-enamide

> <CAS>
340271-99-0

> <PriceCoeff>
1.00

> <MW>
397.77

> <Description>
solid

> <FSP3>
0.05

> <clogP>
3.59

> <TPSA>
122.31

> <Acceptor>
6

> <Donor>
1

> <RotBonds>
6

> <HAC>
28

> <Collection>
General

$$$$
F2743-0810
  -ISIS-  06222321152D

 28 30  0  0  0  0  0  0  0  0999 V2000
   -2.7583    2.1625    0.0000 C   0  0  0  0  0  0  0  0  0  0  0  0
   -2.7583    1.3375    0.0000 C   0  0  0  0  0  0  0  0  0  0  0  0
   -0.8333    6.0125    0.0000 N   0  3  0  0  0  0  0  0  0  0  0  0
   -0.4708    5.1375    0.0000 C   0  0  0  0  0  0  0  0  0  0  0  0
   -3.4708    0.9333    0.0000 N   0  0  3  0  0  0  0  0  0  0  0  0
   -2.2083    2.8958    0.0000 C   0  0  0  0  0  0  0  0  0  0  0  0
   -1.2750    2.7708    0.0000 N   0  0  0  0  0  0  0  0  0  0  0  0
   -1.0583    4.3875    0.0000 C   0  0  0  0  0  0  0  0  0  0  0  0
   -3.4708    2.5833    0.0000 C   0  0  0  0  0  0  0  0  0  0  0  0
    0.4667    5.0125    0.0000 C   0  0  0  0  0  0  0  0  0  0  0  0
   -3.4708   -0.0167    0.0000 C   0  0  0  0  0  0  0  0  0  0  0  0
   -4.1750    1.3375    0.0000 C   0  0  0  0  0  0  0  0  0  0  0  0
   -0.2583    6.7625    0.0000 O   0  5  0  0  0  0  0  0  0  0  0  0
   -1.7708    6.1417    0.0000 O   0  0  0  0  0  0  0  0  0  0  0  0
   -0.6958    3.5208    0.0000 C   0  0  0  0  0  0  0  0  0  0  0  0
   -1.8333    1.4875    0.0000 O   0  0  0  0  0  0  0  0  0  0  0  0
   -4.1750    2.1625    0.0000 C   0  0  0  0  0  0  0  0  0  0  0  0
   -2.5500    3.8000    0.0000 O   0  0  0  0  0  0  0  0  0  0  0  0
   -2.6458   -0.4875    0.0000 C   0  0  0  0  0  0  0  0  0  0  0  0
    0.8167    4.1292    0.0000 C   0  0  0  0  0  0  0  0  0  0  0  0
   -2.6583   -1.4417    0.0000 C   0  0  0  0  0  0  0  0  0  0  0  0
    0.2417    3.3833    0.0000 C   0  0  0  0  0  0  0  0  0  0  0  0
    1.0417    5.7625    0.0000 Cl  0  0  0  0  0  0  0  0  0  0  0  0
   -1.8458   -1.9167    0.0000 C   0  0  0  0  0  0  0  0  0  0  0  0
   -0.9958   -0.5042    0.0000 C   0  0  0  0  0  0  0  0  0  0  0  0
   -1.8125   -0.0167    0.0000 C   0  0  0  0  0  0  0  0  0  0  0  0
   -1.0083   -1.4417    0.0000 C   0  0  0  0  0  0  0  0  0  0  0  0
   -1.8458   -2.8667    0.0000 C   0  0  0  0  0  0  0  0  0  0  0  0
  2  1  1  0  0  0  0
  3  4  1  0  0  0  0
  4  8  2  0  0  0  0
  5  2  1  0  0  0  0
  6  1  1  0  0  0  0
  7  6  1  0  0  0  0
  8 15  1  0  0  0  0
  9  1  2  0  0  0  0
 10 20  2  0  0  0  0
 11  5  1  0  0  0  0
 12 17  2  0  0  0  0
 13  3  1  0  0  0  0
 14  3  2  0  0  0  0
 15  7  1  0  0  0  0
 16  2  2  0  0  0  0
 17  9  1  0  0  0  0
 18  6  2  0  0  0  0
 19 11  1  0  0  0  0
 20 22  1  0  0  0  0
 21 19  2  0  0  0  0
 22 15  2  0  0  0  0
 23 10  1  0  0  0  0
 24 21  1  0  0  0  0
 25 26  2  0  0  0  0
 26 19  1  0  0  0  0
 27 25  1  0  0  0  0
 28 24  1  0  0  0  0
  5 12  1  0  0  0  0
 10  4  1  0  0  0  0
 27 24  2  0  0  0  0
M  CHG  2   3   1  13  -1
M  END
> <IDNUMBER>
F2743-0810

> <Chemical_Name>
N-(4-chloro-3-nitrophenyl)-1-[(3-methylphenyl)methyl]-2-oxo-1,2-dihydropyridine-3-carboxamide

> <CAS>
899754-12-2

> <PriceCoeff>
1.00

> <MW>
397.81

> <Description>
solid

> <FSP3>
0.10

> <clogP>
3.85

> <TPSA>
92.55

> <Acceptor>
4

> <Donor>
1

> <RotBonds>
5

> <HAC>
28

> <Collection>
General

$$$$
F2743-1164
  -ISIS-  06222321152D

 28 30  0  0  0  0  0  0  0  0999 V2000
   -2.7583    2.1625    0.0000 C   0  0  0  0  0  0  0  0  0  0  0  0
   -2.7583    1.3375    0.0000 C   0  0  0  0  0  0  0  0  0  0  0  0
   -0.8333    6.0125    0.0000 N   0  3  0  0  0  0  0  0  0  0  0  0
   -0.4708    5.1375    0.0000 C   0  0  0  0  0  0  0  0  0  0  0  0
   -3.4708    0.9333    0.0000 N   0  0  3  0  0  0  0  0  0  0  0  0
   -2.2083    2.8958    0.0000 C   0  0  0  0  0  0  0  0  0  0  0  0
   -1.2750    2.7708    0.0000 N   0  0  0  0  0  0  0  0  0  0  0  0
   -1.0583    4.3875    0.0000 C   0  0  0  0  0  0  0  0  0  0  0  0
   -3.4708    2.5833    0.0000 C   0  0  0  0  0  0  0  0  0  0  0  0
    0.4667    5.0125    0.0000 C   0  0  0  0  0  0  0  0  0  0  0  0
   -4.1750    1.3375    0.0000 C   0  0  0  0  0  0  0  0  0  0  0  0
   -0.2583    6.7625    0.0000 O   0  5  0  0  0  0  0  0  0  0  0  0
   -3.4708   -0.0167    0.0000 C   0  0  0  0  0  0  0  0  0  0  0  0
   -1.7708    6.1417    0.0000 O   0  0  0  0  0  0  0  0  0  0  0  0
   -0.6958    3.5208    0.0000 C   0  0  0  0  0  0  0  0  0  0  0  0
   -1.8333    1.4875    0.0000 O   0  0  0  0  0  0  0  0  0  0  0  0
   -4.1750    2.1625    0.0000 C   0  0  0  0  0  0  0  0  0  0  0  0
   -2.5500    3.8000    0.0000 O   0  0  0  0  0  0  0  0  0  0  0  0
    0.8167    4.1292    0.0000 C   0  0  0  0  0  0  0  0  0  0  0  0
   -2.6375   -0.4917    0.0000 C   0  0  0  0  0  0  0  0  0  0  0  0
    0.2417    3.3833    0.0000 C   0  0  0  0  0  0  0  0  0  0  0  0
    1.0417    5.7625    0.0000 Cl  0  0  0  0  0  0  0  0  0  0  0  0
   -1.0083   -1.4292    0.0000 C   0  0  0  0  0  0  0  0  0  0  0  0
   -1.8125   -0.0250    0.0000 C   0  0  0  0  0  0  0  0  0  0  0  0
   -2.6500   -1.4292    0.0000 C   0  0  0  0  0  0  0  0  0  0  0  0
   -1.0000   -0.4917    0.0000 C   0  0  0  0  0  0  0  0  0  0  0  0
   -1.8333   -1.9042    0.0000 C   0  0  0  0  0  0  0  0  0  0  0  0
   -0.1833   -1.9292    0.0000 C   0  0  0  0  0  0  0  0  0  0  0  0
  2  1  1  0  0  0  0
  3  4  1  0  0  0  0
  4  8  2  0  0  0  0
  5  2  1  0  0  0  0
  6  1  1  0  0  0  0
  7  6  1  0  0  0  0
  8 15  1  0  0  0  0
  9  1  2  0  0  0  0
 10 19  2  0  0  0  0
 11 17  2  0  0  0  0
 12  3  1  0  0  0  0
 13  5  1  0  0  0  0
 14  3  2  0  0  0  0
 15  7  1  0  0  0  0
 16  2  2  0  0  0  0
 17  9  1  0  0  0  0
 18  6  2  0  0  0  0
 19 21  1  0  0  0  0
 20 13  1  0  0  0  0
 21 15  2  0  0  0  0
 22 10  1  0  0  0  0
 23 27  2  0  0  0  0
 24 20  1  0  0  0  0
 25 20  2  0  0  0  0
 26 24  2  0  0  0  0
 27 25  1  0  0  0  0
 28 23  1  0  0  0  0
  5 11  1  0  0  0  0
 10  4  1  0  0  0  0
 23 26  1  0  0  0  0
M  CHG  2   3   1  12  -1
M  END
> <IDNUMBER>
F2743-1164

> <Chemical_Name>
N-(4-chloro-3-nitrophenyl)-1-[(4-methylphenyl)methyl]-2-oxo-1,2-dihydropyridine-3-carboxamide

> <CAS>
946378-43-4

> <PriceCoeff>
1.00

> <MW>
397.81

> <Description>
solid

> <FSP3>
0.10

> <clogP>
3.85

> <TPSA>
92.55

> <Acceptor>
4

> <Donor>
1

> <RotBonds>
5

> <HAC>
28

> <Collection>
General

$$$$
F2744-0810
  -ISIS-  06222321152D

 28 30  0  0  0  0  0  0  0  0999 V2000
   -2.4583    2.6708    0.0000 C   0  0  0  0  0  0  0  0  0  0  0  0
   -0.1833    5.7042    0.0000 N   0  3  0  0  0  0  0  0  0  0  0  0
   -3.1708    1.4333    0.0000 N   0  0  3  0  0  0  0  0  0  0  0  0
    0.0417    4.8792    0.0000 C   0  0  0  0  0  0  0  0  0  0  0  0
   -2.4583    1.8458    0.0000 C   0  0  0  0  0  0  0  0  0  0  0  0
   -1.7458    3.0833    0.0000 C   0  0  0  0  0  0  0  0  0  0  0  0
   -3.8750    1.8458    0.0000 C   0  0  0  0  0  0  0  0  0  0  0  0
   -3.1708    3.0833    0.0000 C   0  0  0  0  0  0  0  0  0  0  0  0
   -3.8750    2.6708    0.0000 C   0  0  0  0  0  0  0  0  0  0  0  0
   -0.9250    2.8708    0.0000 N   0  0  0  0  0  0  0  0  0  0  0  0
   -0.5583    4.2792    0.0000 C   0  0  0  0  0  0  0  0  0  0  0  0
    0.8542    4.6667    0.0000 C   0  0  0  0  0  0  0  0  0  0  0  0
   -3.1708    0.5875    0.0000 C   0  0  0  0  0  0  0  0  0  0  0  0
    0.4042    6.3042    0.0000 O   0  5  0  0  0  0  0  0  0  0  0  0
   -1.0083    5.9167    0.0000 O   0  0  0  0  0  0  0  0  0  0  0  0
   -0.3333    3.4708    0.0000 C   0  0  0  0  0  0  0  0  0  0  0  0
   -2.1583    3.8000    0.0000 O   0  0  0  0  0  0  0  0  0  0  0  0
   -4.5625    1.8958    0.0000 O   0  0  0  0  0  0  0  0  0  0  0  0
   -2.4333    0.1625    0.0000 C   0  0  0  0  0  0  0  0  0  0  0  0
    1.0792    3.8708    0.0000 C   0  0  0  0  0  0  0  0  0  0  0  0
   -2.4375   -0.6792    0.0000 C   0  0  0  0  0  0  0  0  0  0  0  0
    0.4875    3.2583    0.0000 C   0  0  0  0  0  0  0  0  0  0  0  0
    1.4500    5.2792    0.0000 Cl  0  0  0  0  0  0  0  0  0  0  0  0
   -1.7083   -1.1042    0.0000 C   0  0  0  0  0  0  0  0  0  0  0  0
   -0.9583    0.1500    0.0000 C   0  0  0  0  0  0  0  0  0  0  0  0
   -1.6833    0.5833    0.0000 C   0  0  0  0  0  0  0  0  0  0  0  0
   -0.9708   -0.6917    0.0000 C   0  0  0  0  0  0  0  0  0  0  0  0
   -1.7208   -1.9542    0.0000 C   0  0  0  0  0  0  0  0  0  0  0  0
  2  4  1  0  0  0  0
  3  5  1  0  0  0  0
  4 11  2  0  0  0  0
  5  1  2  0  0  0  0
  6  1  1  0  0  0  0
  7  9  1  0  0  0  0
  8  1  1  0  0  0  0
  9  8  2  0  0  0  0
 10  6  1  0  0  0  0
 11 16  1  0  0  0  0
 12 20  2  0  0  0  0
 13  3  1  0  0  0  0
 14  2  1  0  0  0  0
 15  2  2  0  0  0  0
 16 10  1  0  0  0  0
 17  6  2  0  0  0  0
 18  7  2  0  0  0  0
 19 13  1  0  0  0  0
 20 22  1  0  0  0  0
 21 19  2  0  0  0  0
 22 16  2  0  0  0  0
 23 12  1  0  0  0  0
 24 21  1  0  0  0  0
 25 26  2  0  0  0  0
 26 19  1  0  0  0  0
 27 25  1  0  0  0  0
 28 24  1  0  0  0  0
  3  7  1  0  0  0  0
 12  4  1  0  0  0  0
 27 24  2  0  0  0  0
M  CHG  2   2   1  14  -1
M  END
> <IDNUMBER>
F2744-0810

> <Chemical_Name>
N-(4-chloro-3-nitrophenyl)-1-[(3-methylphenyl)methyl]-6-oxo-1,6-dihydropyridine-3-carboxamide

> <CAS>
899741-27-6

> <PriceCoeff>
1.00

> <MW>
397.81

> <Description>
solid

> <FSP3>
0.10

> <clogP>
3.85

> <TPSA>
92.55

> <Acceptor>
4

> <Donor>
1

> <RotBonds>
5

> <HAC>
28

> <Collection>
General

$$$$
F3139-0439
  -ISIS-  06222321152D

 31 34  0  0  0  0  0  0  0  0999 V2000
    7.7042   -2.7042    0.0000 C   0  0  0  0  0  0  0  0  0  0  0  0
    6.2792   -2.7042    0.0000 C   0  0  0  0  0  0  0  0  0  0  0  0
    6.9917   -3.1167    0.0000 C   0  0  0  0  0  0  0  0  0  0  0  0
    7.7042   -1.8792    0.0000 C   0  0  0  0  0  0  0  0  0  0  0  0
    6.2792   -1.8792    0.0000 C   0  0  0  0  0  0  0  0  0  0  0  0
    8.4167   -3.1167    0.0000 C   0  0  0  0  0  0  0  0  0  0  0  0
    6.9917   -1.4667    0.0000 O   0  0  0  0  0  0  0  0  0  0  0  0
    5.5667   -3.1167    0.0000 C   0  0  0  0  0  0  0  0  0  0  0  0
    5.5667   -1.4667    0.0000 C   0  0  0  0  0  0  0  0  0  0  0  0
    4.8500   -1.8792    0.0000 C   0  0  0  0  0  0  0  0  0  0  0  0
    9.8500   -3.1167    0.0000 C   0  0  0  0  0  0  0  0  0  0  0  0
    4.8500   -2.7042    0.0000 C   0  0  0  0  0  0  0  0  0  0  0  0
    9.1375   -2.7042    0.0000 C   0  0  0  0  0  0  0  0  0  0  0  0
    2.6917   -1.4750    0.0000 C   0  0  0  0  0  0  0  0  0  0  0  0
    9.8500   -3.9417    0.0000 C   0  0  0  0  0  0  0  0  0  0  0  0
    6.9917   -3.9417    0.0000 O   0  0  0  0  0  0  0  0  0  0  0  0
    4.1292   -1.4667    0.0000 O   0  0  0  0  0  0  0  0  0  0  0  0
   10.5625   -2.7042    0.0000 O   0  0  0  0  0  0  0  0  0  0  0  0
    8.4167   -3.9417    0.0000 C   0  0  0  0  0  0  0  0  0  0  0  0
   10.5625   -4.3542    0.0000 O   0  0  0  0  0  0  0  0  0  0  0  0
    2.6875   -0.6417    0.0000 O   0  0  0  0  0  0  0  0  0  0  0  0
    1.9792   -1.8875    0.0000 O   0  0  0  0  0  0  0  0  0  0  0  0
    9.1292   -4.3542    0.0000 C   0  0  0  0  0  0  0  0  0  0  0  0
    3.4167   -1.8792    0.0000 C   0  0  0  0  0  0  0  0  0  0  0  0
    4.1292   -3.1250    0.0000 C   0  0  0  0  0  0  0  0  0  0  0  0
    1.2667   -1.4792    0.0000 C   0  0  3  0  0  0  0  0  0  0  0  0
   11.2792   -3.1167    0.0000 C   0  0  0  0  0  0  0  0  0  0  0  0
   11.2792   -3.9417    0.0000 C   0  0  0  0  0  0  0  0  0  0  0  0
    0.5542   -1.8917    0.0000 C   0  0  0  0  0  0  0  0  0  0  0  0
    1.2667   -0.6542    0.0000 C   0  0  0  0  0  0  0  0  0  0  0  0
    3.4042   -2.7125    0.0000 C   0  0  0  0  0  0  0  0  0  0  0  0
  2  3  1  0  0  0  0
  3  1  1  0  0  0  0
  4  1  2  0  0  0  0
  5  7  1  0  0  0  0
  6  1  1  0  0  0  0
  7  4  1  0  0  0  0
  8  2  2  0  0  0  0
  9  5  2  0  0  0  0
 10  9  1  0  0  0  0
 11 13  2  0  0  0  0
 12  8  1  0  0  0  0
 13  6  1  0  0  0  0
 14 24  1  0  0  0  0
 15 23  2  0  0  0  0
 16  3  2  0  0  0  0
 17 10  1  0  0  0  0
 18 11  1  0  0  0  0
 19  6  2  0  0  0  0
 20 15  1  0  0  0  0
 21 14  2  0  0  0  0
 22 14  1  0  0  0  0
 23 19  1  0  0  0  0
 24 17  1  0  0  0  0
 25 12  1  0  0  0  0
 26 22  1  0  0  0  0
 27 18  1  0  0  0  0
 28 20  1  0  0  0  0
 29 26  1  0  0  0  0
 30 26  1  0  0  0  0
 31 25  1  0  0  0  0
  5  2  1  0  0  0  0
 15 11  1  0  0  0  0
 10 12  2  0  0  0  0
 27 28  1  0  0  0  0
M  END
> <IDNUMBER>
F3139-0439

> <Chemical_Name>
propan-2-yl 2-{[3-(2,3-dihydro-1,4-benzodioxin-6-yl)-6-ethyl-4-oxo-4H-chromen-7-yl]oxy}acetate

> <CAS>
610764-99-3

> <PriceCoeff>
1.00

> <MW>
424.44

> <Description>
solid

> <FSP3>
0.33

> <clogP>
4.50

> <TPSA>
80.29

> <Acceptor>
7

> <Donor>
0

> <RotBonds>
7

> <HAC>
31

> <Collection>
General

> <Reference_compound>
CHEMBL455048

> <Similarity>
0.8020

$$$$
F5581-0865
  -ISIS-  06222321152D

 35 39  0  0  0  0  0  0  0  0999 V2000
   -5.3333    3.1083    0.0000 C   0  0  0  0  0  0  0  0  0  0  0  0
   -5.4083    3.8583    0.0000 N   0  0  0  0  0  0  0  0  0  0  0  0
   -4.6833    2.7208    0.0000 N   0  0  3  0  0  0  0  0  0  0  0  0
   -2.7458    0.8458    0.0000 N   0  0  3  0  0  0  0  0  0  0  0  0
   -6.0167    2.8083    0.0000 S   0  0  0  0  0  0  0  0  0  0  0  0
   -4.0333    3.0958    0.0000 C   0  0  0  0  0  0  0  0  0  0  0  0
   -6.1417    4.0042    0.0000 C   0  0  0  0  0  0  0  0  0  0  0  0
   -2.7375    1.5958    0.0000 C   0  0  0  0  0  0  0  0  0  0  0  0
   -2.1583    0.3750    0.0000 C   0  0  0  0  0  0  0  0  0  0  0  0
   -3.3708    0.4250    0.0000 C   0  0  0  0  0  0  0  0  0  0  0  0
   -6.5167    3.3625    0.0000 C   0  0  0  0  0  0  0  0  0  0  0  0
   -5.3333    0.8375    0.0000 N   0  0  3  0  0  0  0  0  0  0  0  0
   -3.3833    2.7208    0.0000 C   0  0  0  0  0  0  0  0  0  0  0  0
   -4.7833    0.3333    0.0000 N   0  0  0  0  0  0  0  0  0  0  0  0
   -4.6875    1.9625    0.0000 C   0  0  0  0  0  0  0  0  0  0  0  0
   -3.3833    1.9708    0.0000 C   0  0  0  0  0  0  0  0  0  0  0  0
   -5.3333    1.5875    0.0000 C   0  0  0  0  0  0  0  0  0  0  0  0
   -5.8208   -0.2750    0.0000 C   0  0  0  0  0  0  0  0  0  0  0  0
   -4.0333    3.8458    0.0000 O   0  0  0  0  0  0  0  0  0  0  0  0
   -5.9833    0.4625    0.0000 C   0  0  0  0  0  0  0  0  0  0  0  0
   -6.5167    4.6542    0.0000 C   0  0  0  0  0  0  0  0  0  0  0  0
   -2.4250   -0.3250    0.0000 C   0  0  0  0  0  0  0  0  0  0  0  0
   -3.1583   -0.3000    0.0000 C   0  0  0  0  0  0  0  0  0  0  0  0
   -1.4333    0.5750    0.0000 O   0  0  0  0  0  0  0  0  0  0  0  0
   -4.0833    0.6875    0.0000 O   0  0  0  0  0  0  0  0  0  0  0  0
   -5.0833   -0.3500    0.0000 C   0  0  0  0  0  0  0  0  0  0  0  0
   -2.0833    1.9708    0.0000 C   0  0  0  0  0  0  0  0  0  0  0  0
   -6.1417    5.3125    0.0000 O   0  0  0  0  0  0  0  0  0  0  0  0
   -7.2667    3.3625    0.0000 C   0  0  0  0  0  0  0  0  0  0  0  0
   -2.7333    3.0958    0.0000 C   0  0  0  0  0  0  0  0  0  0  0  0
   -2.0833    2.7208    0.0000 C   0  0  0  0  0  0  0  0  0  0  0  0
   -7.6417    4.0042    0.0000 C   0  0  0  0  0  0  0  0  0  0  0  0
   -7.2667    4.6542    0.0000 C   0  0  0  0  0  0  0  0  0  0  0  0
   -5.3958    5.3125    0.0000 C   0  0  0  0  0  0  0  0  0  0  0  0
   -5.0208    5.9542    0.0000 C   0  0  0  0  0  0  0  0  0  0  0  0
  2  1  2  0  0  0  0
  3  1  1  0  0  0  0
  4  8  1  0  0  0  0
  5  1  1  0  0  0  0
  6  3  1  0  0  0  0
  7  2  1  0  0  0  0
  8 16  1  0  0  0  0
  9  4  1  0  0  0  0
 10  4  1  0  0  0  0
 11  5  1  0  0  0  0
 12 17  1  0  0  0  0
 13  6  1  0  0  0  0
 14 12  1  0  0  0  0
 15  3  1  0  0  0  0
 16 13  2  0  0  0  0
 17 15  1  0  0  0  0
 18 20  2  0  0  0  0
 19  6  2  0  0  0  0
 20 12  1  0  0  0  0
 21  7  1  0  0  0  0
 22  9  1  0  0  0  0
 23 10  1  0  0  0  0
 24  9  2  0  0  0  0
 25 10  2  0  0  0  0
 26 14  2  0  0  0  0
 27 31  1  0  0  0  0
 28 21  1  0  0  0  0
 29 11  1  0  0  0  0
 30 13  1  0  0  0  0
 31 30  2  0  0  0  0
 32 29  2  0  0  0  0
 33 21  2  0  0  0  0
 34 28  1  0  0  0  0
 35 34  1  0  0  0  0
  7 11  2  0  0  0  0
 32 33  1  0  0  0  0
 26 18  1  0  0  0  0
  8 27  2  0  0  0  0
 23 22  1  0  0  0  0
M  END
> <IDNUMBER>
F5581-0865

> <Chemical_Name>
3-(2,5-dioxopyrrolidin-1-yl)-N-(4-ethoxy-1,3-benzothiazol-2-yl)-N-[2-(1H-pyrazol-1-yl)ethyl]benzamide

> <CAS>
1171601-06-1

> <PriceCoeff>
1.00

> <MW>
489.55

> <Description>
solid

> <FSP3>
0.24

> <clogP>
1.90

> <TPSA>
125.87

> <Acceptor>
6

> <Donor>
0

> <RotBonds>
9

> <HAC>
35

> <Collection>
General

$$$$
F2663-0278
  -ISIS-  06222321462D

 30 33  0  0  0  0  0  0  0  0999 V2000
   -2.9458    6.4167    0.0000 S   0  0  3  0  0  0  0  0  0  0  0  0
   -2.3333    5.8542    0.0000 N   0  0  3  0  0  0  0  0  0  0  0  0
   -2.4208    5.0417    0.0000 C   0  0  3  0  0  0  0  0  0  0  0  0
   -4.5833    2.9833    0.0000 C   0  0  0  0  0  0  0  0  0  0  0  0
   -4.5708    3.8000    0.0000 C   0  0  0  0  0  0  0  0  0  0  0  0
   -3.5708    6.9667    0.0000 C   0  0  0  0  0  0  0  0  0  0  0  0
   -4.5833    0.4958    0.0000 N   0  3  0  0  0  0  0  0  0  0  0  0
   -3.8583    4.2125    0.0000 N   0  0  3  0  0  0  0  0  0  0  0  0
   -3.8500    2.5625    0.0000 C   0  0  0  0  0  0  0  0  0  0  0  0
   -4.5833    1.3208    0.0000 C   0  0  0  0  0  0  0  0  0  0  0  0
   -2.4250    4.2125    0.0000 C   0  0  0  0  0  0  0  0  0  0  0  0
   -3.1375    5.4500    0.0000 C   0  0  0  0  0  0  0  0  0  0  0  0
   -3.8500    1.7333    0.0000 C   0  0  0  0  0  0  0  0  0  0  0  0
   -4.3750    6.8000    0.0000 S   0  0  0  0  0  0  0  0  0  0  0  0
   -5.2958    2.5708    0.0000 C   0  0  0  0  0  0  0  0  0  0  0  0
   -2.3708    7.0125    0.0000 O   0  0  0  0  0  0  0  0  0  0  0  0
   -3.5208    5.8167    0.0000 O   0  0  0  0  0  0  0  0  0  0  0  0
   -1.6708    4.7042    0.0000 O   0  0  0  0  0  0  0  0  0  0  0  0
   -5.2958    0.0875    0.0000 O   0  5  0  0  0  0  0  0  0  0  0  0
   -3.8583    5.0292    0.0000 C   0  0  0  0  0  0  0  0  0  0  0  0
   -3.1458    3.8083    0.0000 C   0  0  0  0  0  0  0  0  0  0  0  0
   -3.8625    0.0833    0.0000 O   0  0  0  0  0  0  0  0  0  0  0  0
   -1.5208    6.0417    0.0000 C   0  0  0  0  0  0  0  0  0  0  0  0
   -3.4833    7.7917    0.0000 C   0  0  0  0  0  0  0  0  0  0  0  0
   -5.2958    4.2042    0.0000 O   0  0  0  0  0  0  0  0  0  0  0  0
   -5.2958    1.7375    0.0000 C   0  0  0  0  0  0  0  0  0  0  0  0
   -4.7958    7.5167    0.0000 C   0  0  0  0  0  0  0  0  0  0  0  0
   -4.2375    8.1292    0.0000 C   0  0  0  0  0  0  0  0  0  0  0  0
   -3.1333    2.9708    0.0000 Cl  0  0  0  0  0  0  0  0  0  0  0  0
   -1.1083    5.3167    0.0000 C   0  0  0  0  0  0  0  0  0  0  0  0
  2  1  1  0  0  0  0
  3  2  1  0  0  0  0
  4  5  1  0  0  0  0
  5  8  1  0  0  0  0
  6  1  1  0  0  0  0
  7 10  1  0  0  0  0
  8 20  1  0  0  0  0
  9  4  1  0  0  0  0
 10 26  2  0  0  0  0
 11  3  1  0  0  0  0
 12  3  1  0  0  0  0
 13  9  2  0  0  0  0
 14  6  1  0  0  0  0
 15  4  2  0  0  0  0
 16  1  2  0  0  0  0
 17  1  2  0  0  0  0
 18  3  1  0  0  0  0
 19  7  1  0  0  0  0
 20 12  1  0  0  0  0
 21 11  1  0  0  0  0
 22  7  2  0  0  0  0
 23  2  1  0  0  0  0
 24  6  2  0  0  0  0
 25  5  2  0  0  0  0
 26 15  1  0  0  0  0
 27 14  1  0  0  0  0
 28 24  1  0  0  0  0
 29  9  1  0  0  0  0
 30 23  1  0  0  0  0
 27 28  2  0  0  0  0
 18 30  1  0  0  0  0
  8 21  1  0  0  0  0
 10 13  1  0  0  0  0
M  CHG  2   7   1  19  -1
M  END
> <IDNUMBER>
F2663-0278

> <Chemical_Name>
8-(2-chloro-4-nitrobenzoyl)-4-(thiophene-2-sulfonyl)-1-oxa-4,8-diazaspiro[4.5]decane

> <CAS>
903306-14-9

> <PriceCoeff>
1.00

> <MW>
471.94

> <Description>
solid

> <FSP3>
0.39

> <clogP>
2.31

> <TPSA>
146.68

> <Acceptor>
6

> <Donor>
0

> <RotBonds>
5

> <HAC>
30

> <Collection>
General

$$$$
F2743-0220
  -ISIS-  06222321462D

 28 30  0  0  0  0  0  0  0  0999 V2000
   -2.7583    2.1625    0.0000 C   0  0  0  0  0  0  0  0  0  0  0  0
   -2.7583    1.3375    0.0000 C   0  0  0  0  0  0  0  0  0  0  0  0
   -0.8333    6.0125    0.0000 N   0  3  0  0  0  0  0  0  0  0  0  0
   -0.4708    5.1375    0.0000 C   0  0  0  0  0  0  0  0  0  0  0  0
   -3.4708    0.9333    0.0000 N   0  0  3  0  0  0  0  0  0  0  0  0
   -2.2083    2.8958    0.0000 C   0  0  0  0  0  0  0  0  0  0  0  0
   -1.2750    2.7708    0.0000 N   0  0  0  0  0  0  0  0  0  0  0  0
   -1.0583    4.3875    0.0000 C   0  0  0  0  0  0  0  0  0  0  0  0
   -3.4708    2.5833    0.0000 C   0  0  0  0  0  0  0  0  0  0  0  0
    0.4667    5.0125    0.0000 C   0  0  0  0  0  0  0  0  0  0  0  0
   -3.4708   -0.0167    0.0000 C   0  0  0  0  0  0  0  0  0  0  0  0
   -4.1750    1.3375    0.0000 C   0  0  0  0  0  0  0  0  0  0  0  0
   -0.2583    6.7625    0.0000 O   0  5  0  0  0  0  0  0  0  0  0  0
   -1.7708    6.1417    0.0000 O   0  0  0  0  0  0  0  0  0  0  0  0
   -0.6958    3.5208    0.0000 C   0  0  0  0  0  0  0  0  0  0  0  0
   -1.8333    1.4875    0.0000 O   0  0  0  0  0  0  0  0  0  0  0  0
   -4.1750    2.1625    0.0000 C   0  0  0  0  0  0  0  0  0  0  0  0
   -2.5500    3.8000    0.0000 O   0  0  0  0  0  0  0  0  0  0  0  0
   -2.6458   -0.4875    0.0000 C   0  0  0  0  0  0  0  0  0  0  0  0
    0.8167    4.1292    0.0000 C   0  0  0  0  0  0  0  0  0  0  0  0
   -1.8250   -0.0125    0.0000 C   0  0  0  0  0  0  0  0  0  0  0  0
    0.2417    3.3833    0.0000 C   0  0  0  0  0  0  0  0  0  0  0  0
    1.0417    5.7625    0.0000 Cl  0  0  0  0  0  0  0  0  0  0  0  0
   -1.0000   -0.4792    0.0000 C   0  0  0  0  0  0  0  0  0  0  0  0
   -0.1875   -0.0042    0.0000 F   0  0  0  0  0  0  0  0  0  0  0  0
   -1.8208   -1.9000    0.0000 C   0  0  0  0  0  0  0  0  0  0  0  0
   -2.6458   -1.4292    0.0000 C   0  0  0  0  0  0  0  0  0  0  0  0
   -1.0000   -1.4250    0.0000 C   0  0  0  0  0  0  0  0  0  0  0  0
  2  1  1  0  0  0  0
  3  4  1  0  0  0  0
  4  8  2  0  0  0  0
  5  2  1  0  0  0  0
  6  1  1  0  0  0  0
  7  6  1  0  0  0  0
  8 15  1  0  0  0  0
  9  1  2  0  0  0  0
 10 20  2  0  0  0  0
 11  5  1  0  0  0  0
 12 17  2  0  0  0  0
 13  3  1  0  0  0  0
 14  3  2  0  0  0  0
 15  7  1  0  0  0  0
 16  2  2  0  0  0  0
 17  9  1  0  0  0  0
 18  6  2  0  0  0  0
 19 11  1  0  0  0  0
 20 22  1  0  0  0  0
 21 19  1  0  0  0  0
 22 15  2  0  0  0  0
 23 10  1  0  0  0  0
 24 21  2  0  0  0  0
 25 24  1  0  0  0  0
 26 27  1  0  0  0  0
 27 19  2  0  0  0  0
 28 26  2  0  0  0  0
  5 12  1  0  0  0  0
 10  4  1  0  0  0  0
 24 28  1  0  0  0  0
M  CHG  2   3   1  13  -1
M  END
> <IDNUMBER>
F2743-0220

> <Chemical_Name>
N-(4-chloro-3-nitrophenyl)-1-[(3-fluorophenyl)methyl]-2-oxo-1,2-dihydropyridine-3-carboxamide

> <CAS>
941952-06-3

> <PriceCoeff>
1.00

> <MW>
401.78

> <Description>
solid

> <FSP3>
0.05

> <clogP>
3.49

> <TPSA>
92.55

> <Acceptor>
4

> <Donor>
1

> <RotBonds>
5

> <HAC>
28

> <Collection>
General

$$$$
F2744-1400
  -ISIS-  06222321462D

 28 30  0  0  0  0  0  0  0  0999 V2000
   -2.4583    2.6708    0.0000 C   0  0  0  0  0  0  0  0  0  0  0  0
   -3.1708    1.4333    0.0000 N   0  0  3  0  0  0  0  0  0  0  0  0
   -0.1833    5.7042    0.0000 N   0  3  0  0  0  0  0  0  0  0  0  0
    0.0417    4.8792    0.0000 C   0  0  0  0  0  0  0  0  0  0  0  0
   -2.4583    1.8458    0.0000 C   0  0  0  0  0  0  0  0  0  0  0  0
   -1.7458    3.0833    0.0000 C   0  0  0  0  0  0  0  0  0  0  0  0
   -3.8750    1.8458    0.0000 C   0  0  0  0  0  0  0  0  0  0  0  0
   -3.1708    3.0833    0.0000 C   0  0  0  0  0  0  0  0  0  0  0  0
   -3.1708    0.5875    0.0000 C   0  0  0  0  0  0  0  0  0  0  0  0
   -3.8750    2.6708    0.0000 C   0  0  0  0  0  0  0  0  0  0  0  0
   -0.9250    2.8708    0.0000 N   0  0  0  0  0  0  0  0  0  0  0  0
   -0.5583    4.2792    0.0000 C   0  0  0  0  0  0  0  0  0  0  0  0
   -2.4333    0.1708    0.0000 C   0  0  0  0  0  0  0  0  0  0  0  0
    0.8542    4.6667    0.0000 C   0  0  0  0  0  0  0  0  0  0  0  0
    0.4042    6.3042    0.0000 O   0  5  0  0  0  0  0  0  0  0  0  0
   -1.0083    5.9167    0.0000 O   0  0  0  0  0  0  0  0  0  0  0  0
   -0.3333    3.4708    0.0000 C   0  0  0  0  0  0  0  0  0  0  0  0
   -2.1583    3.8000    0.0000 O   0  0  0  0  0  0  0  0  0  0  0  0
   -4.5625    1.8958    0.0000 O   0  0  0  0  0  0  0  0  0  0  0  0
   -2.4333   -0.6792    0.0000 C   0  0  0  0  0  0  0  0  0  0  0  0
    1.0792    3.8708    0.0000 C   0  0  0  0  0  0  0  0  0  0  0  0
    0.4875    3.2583    0.0000 C   0  0  0  0  0  0  0  0  0  0  0  0
    1.4500    5.2792    0.0000 Cl  0  0  0  0  0  0  0  0  0  0  0  0
   -3.1708   -1.1042    0.0000 F   0  0  0  0  0  0  0  0  0  0  0  0
   -1.6875    0.5875    0.0000 C   0  0  0  0  0  0  0  0  0  0  0  0
   -1.7083   -1.1042    0.0000 C   0  0  0  0  0  0  0  0  0  0  0  0
   -0.9583    0.1583    0.0000 C   0  0  0  0  0  0  0  0  0  0  0  0
   -0.9625   -0.6875    0.0000 C   0  0  0  0  0  0  0  0  0  0  0  0
  2  5  1  0  0  0  0
  3  4  1  0  0  0  0
  4 12  2  0  0  0  0
  5  1  2  0  0  0  0
  6  1  1  0  0  0  0
  7 10  1  0  0  0  0
  8  1  1  0  0  0  0
  9  2  1  0  0  0  0
 10  8  2  0  0  0  0
 11  6  1  0  0  0  0
 12 17  1  0  0  0  0
 13  9  1  0  0  0  0
 14 21  2  0  0  0  0
 15  3  1  0  0  0  0
 16  3  2  0  0  0  0
 17 11  1  0  0  0  0
 18  6  2  0  0  0  0
 19  7  2  0  0  0  0
 20 13  2  0  0  0  0
 21 22  1  0  0  0  0
 22 17  2  0  0  0  0
 23 14  1  0  0  0  0
 24 20  1  0  0  0  0
 25 13  1  0  0  0  0
 26 20  1  0  0  0  0
 27 25  2  0  0  0  0
 28 27  1  0  0  0  0
  2  7  1  0  0  0  0
 14  4  1  0  0  0  0
 28 26  2  0  0  0  0
M  CHG  2   3   1  15  -1
M  END
> <IDNUMBER>
F2744-1400

> <Chemical_Name>
N-(4-chloro-3-nitrophenyl)-1-[(2-fluorophenyl)methyl]-6-oxo-1,6-dihydropyridine-3-carboxamide

> <CAS>
941973-67-7

> <PriceCoeff>
1.00

> <MW>
401.78

> <Description>
solid

> <FSP3>
0.05

> <clogP>
3.49

> <TPSA>
92.55

> <Acceptor>
4

> <Donor>
1

> <RotBonds>
5

> <HAC>
28

> <Collection>
General

$$$$
F2743-0338
  -ISIS-  06222321152D

 28 30  0  0  0  0  0  0  0  0999 V2000
   -2.7583    2.1625    0.0000 C   0  0  0  0  0  0  0  0  0  0  0  0
   -2.7583    1.3375    0.0000 C   0  0  0  0  0  0  0  0  0  0  0  0
   -0.8333    6.0125    0.0000 N   0  3  0  0  0  0  0  0  0  0  0  0
   -0.4708    5.1375    0.0000 C   0  0  0  0  0  0  0  0  0  0  0  0
   -3.4708    0.9333    0.0000 N   0  0  3  0  0  0  0  0  0  0  0  0
   -2.2083    2.8958    0.0000 C   0  0  0  0  0  0  0  0  0  0  0  0
   -1.2750    2.7708    0.0000 N   0  0  0  0  0  0  0  0  0  0  0  0
   -1.0583    4.3875    0.0000 C   0  0  0  0  0  0  0  0  0  0  0  0
   -3.4708    2.5833    0.0000 C   0  0  0  0  0  0  0  0  0  0  0  0
    0.4667    5.0125    0.0000 C   0  0  0  0  0  0  0  0  0  0  0  0
   -4.1750    1.3375    0.0000 C   0  0  0  0  0  0  0  0  0  0  0  0
   -0.2583    6.7625    0.0000 O   0  5  0  0  0  0  0  0  0  0  0  0
   -3.4708   -0.0167    0.0000 C   0  0  0  0  0  0  0  0  0  0  0  0
   -1.7708    6.1417    0.0000 O   0  0  0  0  0  0  0  0  0  0  0  0
   -0.6958    3.5208    0.0000 C   0  0  0  0  0  0  0  0  0  0  0  0
   -1.8333    1.4875    0.0000 O   0  0  0  0  0  0  0  0  0  0  0  0
   -4.1750    2.1625    0.0000 C   0  0  0  0  0  0  0  0  0  0  0  0
   -2.5500    3.8000    0.0000 O   0  0  0  0  0  0  0  0  0  0  0  0
    0.8167    4.1292    0.0000 C   0  0  0  0  0  0  0  0  0  0  0  0
   -2.6458   -0.4917    0.0000 C   0  0  0  0  0  0  0  0  0  0  0  0
    0.2417    3.3833    0.0000 C   0  0  0  0  0  0  0  0  0  0  0  0
    1.0417    5.7625    0.0000 Cl  0  0  0  0  0  0  0  0  0  0  0  0
   -1.0000   -1.4167    0.0000 C   0  0  0  0  0  0  0  0  0  0  0  0
   -0.1708   -1.9042    0.0000 F   0  0  0  0  0  0  0  0  0  0  0  0
   -2.6458   -1.4292    0.0000 C   0  0  0  0  0  0  0  0  0  0  0  0
   -1.8208   -0.0125    0.0000 C   0  0  0  0  0  0  0  0  0  0  0  0
   -1.8208   -1.9000    0.0000 C   0  0  0  0  0  0  0  0  0  0  0  0
   -0.9958   -0.4792    0.0000 C   0  0  0  0  0  0  0  0  0  0  0  0
  2  1  1  0  0  0  0
  3  4  1  0  0  0  0
  4  8  2  0  0  0  0
  5  2  1  0  0  0  0
  6  1  1  0  0  0  0
  7  6  1  0  0  0  0
  8 15  1  0  0  0  0
  9  1  2  0  0  0  0
 10 19  2  0  0  0  0
 11 17  2  0  0  0  0
 12  3  1  0  0  0  0
 13  5  1  0  0  0  0
 14  3  2  0  0  0  0
 15  7  1  0  0  0  0
 16  2  2  0  0  0  0
 17  9  1  0  0  0  0
 18  6  2  0  0  0  0
 19 21  1  0  0  0  0
 20 13  1  0  0  0  0
 21 15  2  0  0  0  0
 22 10  1  0  0  0  0
 23 28  1  0  0  0  0
 24 23  1  0  0  0  0
 25 20  2  0  0  0  0
 26 20  1  0  0  0  0
 27 25  1  0  0  0  0
 28 26  2  0  0  0  0
  5 11  1  0  0  0  0
 10  4  1  0  0  0  0
 23 27  2  0  0  0  0
M  CHG  2   3   1  12  -1
M  END
> <IDNUMBER>
F2743-0338

> <Chemical_Name>
N-(4-chloro-3-nitrophenyl)-1-[(4-fluorophenyl)methyl]-2-oxo-1,2-dihydropyridine-3-carboxamide

> <CAS>
941952-10-9

> <PriceCoeff>
1.00

> <MW>
401.78

> <Description>
solid

> <FSP3>
0.05

> <clogP>
3.49

> <TPSA>
92.55

> <Acceptor>
4

> <Donor>
1

> <RotBonds>
5

> <HAC>
28

> <Collection>
General

$$$$
F2743-1400
  -ISIS-  06222321152D

 28 30  0  0  0  0  0  0  0  0999 V2000
   -2.7583    2.1625    0.0000 C   0  0  0  0  0  0  0  0  0  0  0  0
   -2.7583    1.3375    0.0000 C   0  0  0  0  0  0  0  0  0  0  0  0
   -0.8333    6.0125    0.0000 N   0  3  0  0  0  0  0  0  0  0  0  0
   -3.4708    0.9333    0.0000 N   0  0  3  0  0  0  0  0  0  0  0  0
   -0.4708    5.1375    0.0000 C   0  0  0  0  0  0  0  0  0  0  0  0
   -2.2083    2.8958    0.0000 C   0  0  0  0  0  0  0  0  0  0  0  0
   -3.4708   -0.0167    0.0000 C   0  0  0  0  0  0  0  0  0  0  0  0
   -1.2750    2.7708    0.0000 N   0  0  0  0  0  0  0  0  0  0  0  0
   -1.0583    4.3875    0.0000 C   0  0  0  0  0  0  0  0  0  0  0  0
   -2.6458   -0.4875    0.0000 C   0  0  0  0  0  0  0  0  0  0  0  0
   -3.4708    2.5833    0.0000 C   0  0  0  0  0  0  0  0  0  0  0  0
    0.4667    5.0125    0.0000 C   0  0  0  0  0  0  0  0  0  0  0  0
   -4.1750    1.3375    0.0000 C   0  0  0  0  0  0  0  0  0  0  0  0
   -0.2583    6.7625    0.0000 O   0  5  0  0  0  0  0  0  0  0  0  0
   -1.7708    6.1417    0.0000 O   0  0  0  0  0  0  0  0  0  0  0  0
   -0.6958    3.5208    0.0000 C   0  0  0  0  0  0  0  0  0  0  0  0
   -1.8333    1.4875    0.0000 O   0  0  0  0  0  0  0  0  0  0  0  0
   -4.1750    2.1625    0.0000 C   0  0  0  0  0  0  0  0  0  0  0  0
   -2.5500    3.8000    0.0000 O   0  0  0  0  0  0  0  0  0  0  0  0
   -2.6458   -1.4375    0.0000 C   0  0  0  0  0  0  0  0  0  0  0  0
    0.8167    4.1292    0.0000 C   0  0  0  0  0  0  0  0  0  0  0  0
    0.2417    3.3833    0.0000 C   0  0  0  0  0  0  0  0  0  0  0  0
    1.0417    5.7625    0.0000 Cl  0  0  0  0  0  0  0  0  0  0  0  0
   -3.4708   -1.9042    0.0000 F   0  0  0  0  0  0  0  0  0  0  0  0
   -1.8208   -0.0167    0.0000 C   0  0  0  0  0  0  0  0  0  0  0  0
   -1.8333   -1.9167    0.0000 C   0  0  0  0  0  0  0  0  0  0  0  0
   -1.0000   -0.5000    0.0000 C   0  0  0  0  0  0  0  0  0  0  0  0
   -1.0083   -1.4417    0.0000 C   0  0  0  0  0  0  0  0  0  0  0  0
  2  1  1  0  0  0  0
  3  5  1  0  0  0  0
  4  2  1  0  0  0  0
  5  9  2  0  0  0  0
  6  1  1  0  0  0  0
  7  4  1  0  0  0  0
  8  6  1  0  0  0  0
  9 16  1  0  0  0  0
 10  7  1  0  0  0  0
 11  1  2  0  0  0  0
 12 21  2  0  0  0  0
 13 18  2  0  0  0  0
 14  3  1  0  0  0  0
 15  3  2  0  0  0  0
 16  8  1  0  0  0  0
 17  2  2  0  0  0  0
 18 11  1  0  0  0  0
 19  6  2  0  0  0  0
 20 10  2  0  0  0  0
 21 22  1  0  0  0  0
 22 16  2  0  0  0  0
 23 12  1  0  0  0  0
 24 20  1  0  0  0  0
 25 10  1  0  0  0  0
 26 20  1  0  0  0  0
 27 25  2  0  0  0  0
 28 27  1  0  0  0  0
  4 13  1  0  0  0  0
 12  5  1  0  0  0  0
 28 26  2  0  0  0  0
M  CHG  2   3   1  14  -1
M  END
> <IDNUMBER>
F2743-1400

> <Chemical_Name>
N-(4-chloro-3-nitrophenyl)-1-[(2-fluorophenyl)methyl]-2-oxo-1,2-dihydropyridine-3-carboxamide

> <CAS>
941904-08-1

> <PriceCoeff>
1.00

> <MW>
401.78

> <Description>
solid

> <FSP3>
0.05

> <clogP>
3.49

> <TPSA>
92.55

> <Acceptor>
4

> <Donor>
1

> <RotBonds>
5

> <HAC>
28

> <Collection>
General

$$$$
F0466-0010
  -ISIS-  06222321442D

 29 32  0  0  0  0  0  0  0  0999 V2000
    0.2042    1.6500    0.0000 C   0  0  0  0  0  0  0  0  0  0  0  0
    0.8042    1.6708    0.0000 N   0  0  0  0  0  0  0  0  0  0  0  0
    1.1000   -0.8792    0.0000 N   0  0  3  0  0  0  0  0  0  0  0  0
   -0.1208    2.1333    0.0000 N   0  0  3  0  0  0  0  0  0  0  0  0
   -0.1208    1.1708    0.0000 S   0  0  0  0  0  0  0  0  0  0  0  0
   -0.6833    1.3500    0.0000 C   0  0  0  0  0  0  0  0  0  0  0  0
   -0.6833    1.9583    0.0000 C   0  0  0  0  0  0  0  0  0  0  0  0
    1.1000    1.1500    0.0000 C   0  0  0  0  0  0  0  0  0  0  0  0
    0.8000   -0.3542    0.0000 C   0  0  0  0  0  0  0  0  0  0  0  0
    1.6667   -0.8792    0.0000 C   0  0  0  0  0  0  0  0  0  0  0  0
    0.9042   -1.4500    0.0000 C   0  0  0  0  0  0  0  0  0  0  0  0
    1.1000    0.1333    0.0000 C   0  0  0  0  0  0  0  0  0  0  0  0
    0.8042    0.6500    0.0000 C   0  0  0  0  0  0  0  0  0  0  0  0
   -1.2000    1.0708    0.0000 C   0  0  0  0  0  0  0  0  0  0  0  0
   -1.2000    2.2333    0.0000 C   0  0  0  0  0  0  0  0  0  0  0  0
    1.6667    1.1500    0.0000 O   0  0  0  0  0  0  0  0  0  0  0  0
    1.8500   -1.4500    0.0000 C   0  0  0  0  0  0  0  0  0  0  0  0
    1.4000   -1.7792    0.0000 C   0  0  0  0  0  0  0  0  0  0  0  0
    2.0042   -0.4000    0.0000 O   0  0  0  0  0  0  0  0  0  0  0  0
    0.3292   -1.6167    0.0000 O   0  0  0  0  0  0  0  0  0  0  0  0
   -1.7000    1.3708    0.0000 C   0  0  0  0  0  0  0  0  0  0  0  0
    0.0500    2.6958    0.0000 C   0  0  0  0  0  0  0  0  0  0  0  0
   -1.7000    1.9333    0.0000 C   0  0  0  0  0  0  0  0  0  0  0  0
    0.2292   -0.3542    0.0000 C   0  0  0  0  0  0  0  0  0  0  0  0
   -2.2458    1.0958    0.0000 O   0  0  0  0  0  0  0  0  0  0  0  0
    0.2042    0.6500    0.0000 C   0  0  0  0  0  0  0  0  0  0  0  0
   -0.0625    0.1333    0.0000 C   0  0  0  0  0  0  0  0  0  0  0  0
   -2.7208    1.4125    0.0000 C   0  0  0  0  0  0  0  0  0  0  0  0
   -3.2625    1.1333    0.0000 C   0  0  0  0  0  0  0  0  0  0  0  0
  2  1  2  0  0  0  0
  3  9  1  0  0  0  0
  4  1  1  0  0  0  0
  5  1  1  0  0  0  0
  6  5  1  0  0  0  0
  7  4  1  0  0  0  0
  8  2  1  0  0  0  0
  9 12  2  0  0  0  0
 10  3  1  0  0  0  0
 11  3  1  0  0  0  0
 12 13  1  0  0  0  0
 13  8  1  0  0  0  0
 14  6  1  0  0  0  0
 15  7  1  0  0  0  0
 16  8  2  0  0  0  0
 17 10  1  0  0  0  0
 18 11  1  0  0  0  0
 19 10  2  0  0  0  0
 20 11  2  0  0  0  0
 21 14  2  0  0  0  0
 22  4  1  0  0  0  0
 23 15  2  0  0  0  0
 24 27  2  0  0  0  0
 25 21  1  0  0  0  0
 26 13  2  0  0  0  0
 27 26  1  0  0  0  0
 28 25  1  0  0  0  0
 29 28  1  0  0  0  0
  6  7  2  0  0  0  0
 23 21  1  0  0  0  0
 24  9  1  0  0  0  0
 18 17  1  0  0  0  0
M  END
> <IDNUMBER>
F0466-0010

> <Chemical_Name>
3-(2,5-dioxopyrrolidin-1-yl)-N-[(2Z)-6-ethoxy-3-methyl-2,3-dihydro-1,3-benzothiazol-2-ylidene]benzamide

> <CAS>
391867-69-9

> <PriceCoeff>
1.00

> <MW>
409.46

> <Description>
solid

> <FSP3>
0.24

> <clogP>
3.40

> <TPSA>
104.58

> <Acceptor>
4

> <Donor>
0

> <RotBonds>
5

> <HAC>
29

> <Collection>
General

$$$$
F2744-0338
  -ISIS-  06222321442D

 28 30  0  0  0  0  0  0  0  0999 V2000
   -2.4583    2.6708    0.0000 C   0  0  0  0  0  0  0  0  0  0  0  0
   -0.1833    5.7042    0.0000 N   0  3  0  0  0  0  0  0  0  0  0  0
   -3.1708    1.4333    0.0000 N   0  0  3  0  0  0  0  0  0  0  0  0
    0.0417    4.8792    0.0000 C   0  0  0  0  0  0  0  0  0  0  0  0
   -2.4583    1.8458    0.0000 C   0  0  0  0  0  0  0  0  0  0  0  0
   -1.7458    3.0833    0.0000 C   0  0  0  0  0  0  0  0  0  0  0  0
   -3.8750    1.8458    0.0000 C   0  0  0  0  0  0  0  0  0  0  0  0
   -3.1708    3.0833    0.0000 C   0  0  0  0  0  0  0  0  0  0  0  0
   -3.8750    2.6708    0.0000 C   0  0  0  0  0  0  0  0  0  0  0  0
   -0.9250    2.8708    0.0000 N   0  0  0  0  0  0  0  0  0  0  0  0
   -0.5583    4.2792    0.0000 C   0  0  0  0  0  0  0  0  0  0  0  0
    0.8542    4.6667    0.0000 C   0  0  0  0  0  0  0  0  0  0  0  0
    0.4042    6.3042    0.0000 O   0  5  0  0  0  0  0  0  0  0  0  0
   -3.1708    0.5875    0.0000 C   0  0  0  0  0  0  0  0  0  0  0  0
   -1.0083    5.9167    0.0000 O   0  0  0  0  0  0  0  0  0  0  0  0
   -0.3333    3.4708    0.0000 C   0  0  0  0  0  0  0  0  0  0  0  0
   -2.1583    3.8000    0.0000 O   0  0  0  0  0  0  0  0  0  0  0  0
   -4.5625    1.8958    0.0000 O   0  0  0  0  0  0  0  0  0  0  0  0
    1.0792    3.8708    0.0000 C   0  0  0  0  0  0  0  0  0  0  0  0
   -2.4333    0.1625    0.0000 C   0  0  0  0  0  0  0  0  0  0  0  0
    0.4875    3.2583    0.0000 C   0  0  0  0  0  0  0  0  0  0  0  0
    1.4500    5.2792    0.0000 Cl  0  0  0  0  0  0  0  0  0  0  0  0
   -0.9583   -0.6667    0.0000 C   0  0  0  0  0  0  0  0  0  0  0  0
   -0.2208   -1.1042    0.0000 F   0  0  0  0  0  0  0  0  0  0  0  0
   -2.4333   -0.6792    0.0000 C   0  0  0  0  0  0  0  0  0  0  0  0
   -1.6875    0.5958    0.0000 C   0  0  0  0  0  0  0  0  0  0  0  0
   -1.6958   -1.0917    0.0000 C   0  0  0  0  0  0  0  0  0  0  0  0
   -0.9583    0.1750    0.0000 C   0  0  0  0  0  0  0  0  0  0  0  0
  2  4  1  0  0  0  0
  3  5  1  0  0  0  0
  4 11  2  0  0  0  0
  5  1  2  0  0  0  0
  6  1  1  0  0  0  0
  7  9  1  0  0  0  0
  8  1  1  0  0  0  0
  9  8  2  0  0  0  0
 10  6  1  0  0  0  0
 11 16  1  0  0  0  0
 12 19  2  0  0  0  0
 13  2  1  0  0  0  0
 14  3  1  0  0  0  0
 15  2  2  0  0  0  0
 16 10  1  0  0  0  0
 17  6  2  0  0  0  0
 18  7  2  0  0  0  0
 19 21  1  0  0  0  0
 20 14  1  0  0  0  0
 21 16  2  0  0  0  0
 22 12  1  0  0  0  0
 23 28  1  0  0  0  0
 24 23  1  0  0  0  0
 25 20  2  0  0  0  0
 26 20  1  0  0  0  0
 27 25  1  0  0  0  0
 28 26  2  0  0  0  0
  3  7  1  0  0  0  0
 12  4  1  0  0  0  0
 23 27  2  0  0  0  0
M  CHG  2   2   1  13  -1
M  END
> <IDNUMBER>
F2744-0338

> <Chemical_Name>
N-(4-chloro-3-nitrophenyl)-1-[(4-fluorophenyl)methyl]-6-oxo-1,6-dihydropyridine-3-carboxamide

> <CAS>
941904-89-8

> <PriceCoeff>
1.00

> <MW>
401.78

> <Description>
solid

> <FSP3>
0.05

> <clogP>
3.49

> <TPSA>
92.55

> <Acceptor>
4

> <Donor>
1

> <RotBonds>
5

> <HAC>
28

> <Collection>
General

$$$$
F2524-0973
  -ISIS-  06222321442D

 29 32  0  0  0  0  0  0  0  0999 V2000
   -0.5458    2.1875    0.0000 C   0  0  0  0  0  0  0  0  0  0  0  0
   -0.8000    1.4000    0.0000 N   0  0  3  0  0  0  0  0  0  0  0  0
    1.3667    4.3042    0.0000 N   0  0  3  0  0  0  0  0  0  0  0  0
    0.2417    2.4458    0.0000 N   0  0  0  0  0  0  0  0  0  0  0  0
   -1.6250    1.4000    0.0000 C   0  0  0  0  0  0  0  0  0  0  0  0
   -1.2125    2.6708    0.0000 S   0  0  0  0  0  0  0  0  0  0  0  0
   -1.8750    2.1833    0.0000 C   0  0  0  0  0  0  0  0  0  0  0  0
   -2.1708    0.7958    0.0000 C   0  0  0  0  0  0  0  0  0  0  0  0
    2.1250    4.6292    0.0000 C   0  0  0  0  0  0  0  0  0  0  0  0
    0.8167    4.9042    0.0000 C   0  0  0  0  0  0  0  0  0  0  0  0
    0.4167    3.2458    0.0000 C   0  0  0  0  0  0  0  0  0  0  0  0
   -2.6833    2.3583    0.0000 C   0  0  0  0  0  0  0  0  0  0  0  0
   -2.9708    0.9625    0.0000 C   0  0  0  0  0  0  0  0  0  0  0  0
   -3.2250    1.7458    0.0000 C   0  0  0  0  0  0  0  0  0  0  0  0
    1.1917    3.5000    0.0000 C   0  0  0  0  0  0  0  0  0  0  0  0
   -0.3208    0.7375    0.0000 C   0  0  0  0  0  0  0  0  0  0  0  0
    0.4917    0.8208    0.0000 C   0  0  0  0  0  0  0  0  0  0  0  0
   -3.5208    0.3500    0.0000 O   0  0  0  0  0  0  0  0  0  0  0  0
   -4.0333    1.9208    0.0000 O   0  0  0  0  0  0  0  0  0  0  0  0
    1.2292    5.6167    0.0000 C   0  0  0  0  0  0  0  0  0  0  0  0
    2.0417    5.4500    0.0000 C   0  0  0  0  0  0  0  0  0  0  0  0
    0.0042    4.8375    0.0000 O   0  0  0  0  0  0  0  0  0  0  0  0
    2.8292    4.2125    0.0000 O   0  0  0  0  0  0  0  0  0  0  0  0
   -0.1958    3.8000    0.0000 O   0  0  0  0  0  0  0  0  0  0  0  0
    0.8292    1.5750    0.0000 O   0  0  0  0  0  0  0  0  0  0  0  0
    0.9792    0.1583    0.0000 O   0  0  0  0  0  0  0  0  0  0  0  0
   -4.3333    0.5208    0.0000 C   0  0  0  0  0  0  0  0  0  0  0  0
   -4.5833    1.3083    0.0000 C   0  0  0  0  0  0  0  0  0  0  0  0
    1.7917    0.2583    0.0000 C   0  0  0  0  0  0  0  0  0  0  0  0
  2  1  1  0  0  0  0
  3 15  1  0  0  0  0
  4  1  2  0  0  0  0
  5  2  1  0  0  0  0
  6  1  1  0  0  0  0
  7  6  1  0  0  0  0
  8  5  1  0  0  0  0
  9  3  1  0  0  0  0
 10  3  1  0  0  0  0
 11  4  1  0  0  0  0
 12  7  1  0  0  0  0
 13  8  2  0  0  0  0
 14 12  2  0  0  0  0
 15 11  1  0  0  0  0
 16  2  1  0  0  0  0
 17 16  1  0  0  0  0
 18 13  1  0  0  0  0
 19 14  1  0  0  0  0
 20 10  1  0  0  0  0
 21  9  1  0  0  0  0
 22 10  2  0  0  0  0
 23  9  2  0  0  0  0
 24 11  2  0  0  0  0
 25 17  2  0  0  0  0
 26 17  1  0  0  0  0
 27 18  1  0  0  0  0
 28 19  1  0  0  0  0
 29 26  1  0  0  0  0
  5  7  2  0  0  0  0
 13 14  1  0  0  0  0
 28 27  1  0  0  0  0
 21 20  1  0  0  0  0
M  END
> <IDNUMBER>
F2524-0973

> <Chemical_Name>
methyl 2-[(5Z)-5-{[2-(2,5-dioxopyrrolidin-1-yl)acetyl]imino}-10,13-dioxa-4-thia-6-azatricyclo[7.4.0.0^{3,7}]trideca-1,3(7),8-trien-6-yl]acetate

> <CAS>
905660-46-0

> <PriceCoeff>
1.00

> <MW>
419.41

> <Description>
solid

> <FSP3>
0.39

> <clogP>
2.26

> <TPSA>
140.11

> <Acceptor>
7

> <Donor>
0

> <RotBonds>
6

> <HAC>
29

> <Collection>
General

$$$$
F0611-0733
  -ISIS-  06222321142D

 28 30  0  0  0  0  0  0  0  0999 V2000
   -2.4458    1.3583    0.0000 N   0  0  0  0  0  0  0  0  0  0  0  0
    3.9917    2.5708    0.0000 N   0  3  0  0  0  0  0  0  0  0  0  0
    3.2750    2.9833    0.0000 C   0  0  0  0  0  0  0  0  0  0  0  0
   -3.1583    1.7708    0.0000 C   0  0  0  0  0  0  0  0  0  0  0  0
   -1.7250    1.7708    0.0000 C   0  0  0  0  0  0  0  0  0  0  0  0
   -2.4458    3.0208    0.0000 C   0  0  0  0  0  0  0  0  0  0  0  0
   -3.1583    2.5958    0.0000 C   0  0  0  0  0  0  0  0  0  0  0  0
   -1.7250    2.5958    0.0000 C   0  0  0  0  0  0  0  0  0  0  0  0
    2.5667    2.5958    0.0000 C   0  0  0  0  0  0  0  0  0  0  0  0
    1.1292    2.5875    0.0000 C   0  0  0  0  0  0  0  0  0  0  0  0
    1.8500    3.0000    0.0000 C   0  0  0  0  0  0  0  0  0  0  0  0
    3.2875    3.8125    0.0000 C   0  0  0  0  0  0  0  0  0  0  0  0
    4.7167    2.9833    0.0000 O   0  5  0  0  0  0  0  0  0  0  0  0
    3.9667    1.7458    0.0000 O   0  0  0  0  0  0  0  0  0  0  0  0
   -3.8708    1.3583    0.0000 C   0  0  0  0  0  0  0  0  0  0  0  0
   -3.8708    3.0083    0.0000 C   0  0  0  0  0  0  0  0  0  0  0  0
   -1.0125    1.3583    0.0000 O   0  0  0  0  0  0  0  0  0  0  0  0
    1.1292    1.7708    0.0000 O   0  0  0  0  0  0  0  0  0  0  0  0
    1.8542    3.8458    0.0000 C   0  0  0  0  0  0  0  0  0  0  0  0
    2.5667    4.2292    0.0000 C   0  0  0  0  0  0  0  0  0  0  0  0
    0.4167    3.0083    0.0000 N   0  0  0  0  0  0  0  0  0  0  0  0
   -4.5833    1.7708    0.0000 C   0  0  0  0  0  0  0  0  0  0  0  0
   -4.5833    2.5958    0.0000 C   0  0  0  0  0  0  0  0  0  0  0  0
    4.0167    4.2167    0.0000 Cl  0  0  0  0  0  0  0  0  0  0  0  0
   -1.0083    3.0083    0.0000 C   0  0  0  0  0  0  0  0  0  0  0  0
   -0.2958    2.5958    0.0000 C   0  0  0  0  0  0  0  0  0  0  0  0
   -3.8750    3.8333    0.0000 C   0  0  0  0  0  0  0  0  0  0  0  0
   -3.8708    0.5333    0.0000 C   0  0  0  0  0  0  0  0  0  0  0  0
  2  3  1  0  0  0  0
  3  9  1  0  0  0  0
  4  1  1  0  0  0  0
  5  1  1  0  0  0  0
  6  8  2  0  0  0  0
  7  4  1  0  0  0  0
  8  5  1  0  0  0  0
  9 11  2  0  0  0  0
 10 21  1  0  0  0  0
 11 10  1  0  0  0  0
 12 20  1  0  0  0  0
 13  2  1  0  0  0  0
 14  2  2  0  0  0  0
 15  4  2  0  0  0  0
 16  7  2  0  0  0  0
 17  5  2  0  0  0  0
 18 10  2  0  0  0  0
 19 11  1  0  0  0  0
 20 19  2  0  0  0  0
 21 26  1  0  0  0  0
 22 15  1  0  0  0  0
 23 22  2  0  0  0  0
 24 12  1  0  0  0  0
 25  8  1  0  0  0  0
 26 25  1  0  0  0  0
 27 16  1  0  0  0  0
 28 15  1  0  0  0  0
  6  7  1  0  0  0  0
 23 16  1  0  0  0  0
  3 12  2  0  0  0  0
M  CHG  2   2   1  13  -1
M  END
> <IDNUMBER>
F0611-0733

> <Chemical_Name>
4-chloro-N-[2-(5,8-dimethyl-2-oxo-1,2-dihydroquinolin-3-yl)ethyl]-3-nitrobenzamide

> <CAS>
851407-09-5

> <PriceCoeff>
1.00

> <MW>
399.83

> <Description>
solid

> <FSP3>
0.20

> <clogP>
3.43

> <TPSA>
101.34

> <Acceptor>
4

> <Donor>
2

> <RotBonds>
5

> <HAC>
28

> <Collection>
General

$$$$
F3386-1374
  -ISIS-  06222321152D

 20 21  0  0  0  0  0  0  0  0999 V2000
    5.1250   -1.9375    0.0000 S   0  0  3  0  0  0  0  0  0  0  0  0
    4.3000   -1.9417    0.0000 C   0  0  0  0  0  0  0  0  0  0  0  0
    5.9500   -1.9250    0.0000 N   0  0  0  0  0  0  0  0  0  0  0  0
    6.7750   -1.9250    0.0000 C   0  0  0  0  0  0  0  0  0  0  0  0
    3.9042   -2.6542    0.0000 C   0  0  0  0  0  0  0  0  0  0  0  0
    5.1292   -2.7625    0.0000 O   0  0  0  0  0  0  0  0  0  0  0  0
    5.1167   -1.1125    0.0000 O   0  0  0  0  0  0  0  0  0  0  0  0
    7.1792   -2.6375    0.0000 C   0  0  0  0  0  0  0  0  0  0  0  0
    3.8792   -1.2375    0.0000 C   0  0  0  0  0  0  0  0  0  0  0  0
    7.1792   -1.2125    0.0000 C   0  0  0  0  0  0  0  0  0  0  0  0
    3.0667   -1.2417    0.0000 C   0  0  0  0  0  0  0  0  0  0  0  0
    8.0000   -1.2042    0.0000 C   0  0  0  0  0  0  0  0  0  0  0  0
    3.0792   -2.6667    0.0000 C   0  0  0  0  0  0  0  0  0  0  0  0
    8.0042   -2.6292    0.0000 C   0  0  0  0  0  0  0  0  0  0  0  0
    4.2917   -0.5167    0.0000 Cl  0  0  0  0  0  0  0  0  0  0  0  0
    8.4167   -1.9167    0.0000 C   0  0  0  0  0  0  0  0  0  0  0  0
    2.6542   -1.9542    0.0000 C   0  0  0  0  0  0  0  0  0  0  0  0
    8.4167   -3.3500    0.0000 Cl  0  0  0  0  0  0  0  0  0  0  0  0
    2.6750   -3.3917    0.0000 Cl  0  0  0  0  0  0  0  0  0  0  0  0
    6.7625   -0.5000    0.0000 O   0  0  0  0  0  0  0  0  0  0  0  0
  2  1  1  0  0  0  0
  3  1  1  0  0  0  0
  4  3  1  0  0  0  0
  5  2  1  0  0  0  0
  6  1  2  0  0  0  0
  7  1  2  0  0  0  0
  8  4  2  0  0  0  0
  9  2  2  0  0  0  0
 10  4  1  0  0  0  0
 11  9  1  0  0  0  0
 12 10  2  0  0  0  0
 13  5  2  0  0  0  0
 14  8  1  0  0  0  0
 15  9  1  0  0  0  0
 16 12  1  0  0  0  0
 17 11  2  0  0  0  0
 18 14  1  0  0  0  0
 19 13  1  0  0  0  0
 20 10  1  0  0  0  0
 17 13  1  0  0  0  0
 16 14  2  0  0  0  0
M  END
> <IDNUMBER>
F3386-1374

> <Chemical_Name>
2,5-dichloro-N-(5-chloro-2-hydroxyphenyl)benzene-1-sulfonamide

> <CAS>
1096966-85-6

> <PriceCoeff>
1.00

> <MW>
352.62

> <Description>
solid

> <FSP3>
0.00

> <clogP>
4.46

> <TPSA>
74.78

> <Acceptor>
4

> <Donor>
2

> <RotBonds>
3

> <HAC>
20

> <Collection>
General

$$$$
F0762-0364
  -ISIS-  06222321442D

 24 25  0  0  0  0  0  0  0  0999 V2000
   -2.6333    2.0208    0.0000 C   0  0  0  0  0  0  0  0  0  0  0  0
    0.6167   -0.6167    0.0000 N   0  3  0  0  0  0  0  0  0  0  0  0
   -1.9833    1.6458    0.0000 C   0  0  0  0  0  0  0  0  0  0  0  0
   -1.9833    0.8958    0.0000 N   0  0  0  0  0  0  0  0  0  0  0  0
   -0.0333   -0.2375    0.0000 C   0  0  0  0  0  0  0  0  0  0  0  0
   -3.2833    1.6458    0.0000 C   0  0  0  0  0  0  0  0  0  0  0  0
   -2.6333    2.7708    0.0000 C   0  0  0  0  0  0  0  0  0  0  0  0
   -0.0333    0.5125    0.0000 C   0  0  0  0  0  0  0  0  0  0  0  0
   -1.3333    0.5125    0.0000 C   0  0  0  0  0  0  0  0  0  0  0  0
   -2.6333    3.5208    0.0000 N   0  0  0  0  0  0  0  0  0  0  0  0
   -0.6833    0.8875    0.0000 C   0  0  0  0  0  0  0  0  0  0  0  0
    0.6167   -1.3750    0.0000 O   0  5  0  0  0  0  0  0  0  0  0  0
    1.2667   -0.2417    0.0000 O   0  0  0  0  0  0  0  0  0  0  0  0
   -1.3375    2.0208    0.0000 O   0  0  0  0  0  0  0  0  0  0  0  0
   -0.6833   -0.6125    0.0000 C   0  0  0  0  0  0  0  0  0  0  0  0
   -1.3333   -0.2375    0.0000 C   0  0  0  0  0  0  0  0  0  0  0  0
   -3.2833    0.8958    0.0000 C   0  0  0  0  0  0  0  0  0  0  0  0
   -0.6833    1.6375    0.0000 Cl  0  0  0  0  0  0  0  0  0  0  0  0
   -3.2833   -0.6042    0.0000 C   0  0  0  0  0  0  0  0  0  0  0  0
   -2.6333    0.5208    0.0000 C   0  0  0  0  0  0  0  0  0  0  0  0
   -3.9250    0.5208    0.0000 C   0  0  0  0  0  0  0  0  0  0  0  0
   -3.9250   -0.2292    0.0000 C   0  0  0  0  0  0  0  0  0  0  0  0
   -2.6333   -0.2292    0.0000 C   0  0  0  0  0  0  0  0  0  0  0  0
   -3.2875   -1.3542    0.0000 C   0  0  0  0  0  0  0  0  0  0  0  0
  2  5  1  0  0  0  0
  3  1  1  0  0  0  0
  4  3  1  0  0  0  0
  5 15  2  0  0  0  0
  6  1  2  0  0  0  0
  7  1  1  0  0  0  0
  8 11  2  0  0  0  0
  9  4  1  0  0  0  0
 10  7  3  0  0  0  0
 11  9  1  0  0  0  0
 12  2  1  0  0  0  0
 13  2  2  0  0  0  0
 14  3  2  0  0  0  0
 15 16  1  0  0  0  0
 16  9  2  0  0  0  0
 17  6  1  0  0  0  0
 18 11  1  0  0  0  0
 19 22  2  0  0  0  0
 20 17  1  0  0  0  0
 21 17  2  0  0  0  0
 22 21  1  0  0  0  0
 23 20  2  0  0  0  0
 24 19  1  0  0  0  0
 19 23  1  0  0  0  0
  8  5  1  0  0  0  0
M  CHG  2   2   1  12  -1
M  END
> <IDNUMBER>
F0762-0364

> <Chemical_Name>
(2Z)-N-(2-chloro-4-nitrophenyl)-2-cyano-3-(4-methylphenyl)prop-2-enamide

> <CAS>
444101-75-1

> <PriceCoeff>
1.00

> <MW>
341.75

> <Description>
solid

> <FSP3>
0.06

> <clogP>
3.73

> <TPSA>
96.03

> <Acceptor>
4

> <Donor>
1

> <RotBonds>
4

> <HAC>
24

> <Collection>
General

$$$$
F0327-0383
  -ISIS-  06222321452D

 28 32  0  0  0  0  0  0  0  0999 V2000
    4.6542   -1.6792    0.0000 N   0  0  3  0  0  0  0  0  0  0  0  0
    4.8792   -2.3792    0.0000 C   0  0  0  0  0  0  0  0  0  0  0  0
    5.2542   -1.2542    0.0000 C   0  0  0  0  0  0  0  0  0  0  0  0
    1.7542   -1.0167    0.0000 C   0  0  0  0  0  0  0  0  0  0  0  0
    1.5167   -0.3000    0.0000 N   0  0  0  0  0  0  0  0  0  0  0  0
    0.7792   -0.1167    0.0000 C   0  0  0  0  0  0  0  0  0  0  0  0
   -0.1625    0.7833    0.0000 C   0  0  0  0  0  0  0  0  0  0  0  0
    0.5792    0.6000    0.0000 C   0  0  0  0  0  0  0  0  0  0  0  0
    3.9375   -1.5167    0.0000 C   0  0  0  0  0  0  0  0  0  0  0  0
    2.4792   -1.2000    0.0000 C   0  0  0  0  0  0  0  0  0  0  0  0
   -0.6833    0.2625    0.0000 C   0  0  0  0  0  0  0  0  0  0  0  0
   -0.3625    1.5000    0.0000 C   0  0  0  0  0  0  0  0  0  0  0  0
    1.2542   -1.5792    0.0000 O   0  0  0  0  0  0  0  0  0  0  0  0
    5.8375   -1.7000    0.0000 C   0  0  0  0  0  0  0  0  0  0  0  0
    5.6167   -2.3792    0.0000 C   0  0  0  0  0  0  0  0  0  0  0  0
    5.2542   -0.5000    0.0000 O   0  0  0  0  0  0  0  0  0  0  0  0
    4.4542   -3.0000    0.0000 O   0  0  0  0  0  0  0  0  0  0  0  0
    0.2542   -0.6542    0.0000 C   0  0  0  0  0  0  0  0  0  0  0  0
    3.4375   -2.0542    0.0000 C   0  0  0  0  0  0  0  0  0  0  0  0
    3.7000   -0.8000    0.0000 C   0  0  0  0  0  0  0  0  0  0  0  0
   -0.4833   -0.4542    0.0000 C   0  0  0  0  0  0  0  0  0  0  0  0
   -1.3458    0.5833    0.0000 C   0  0  0  0  0  0  0  0  0  0  0  0
    2.9792   -0.6375    0.0000 C   0  0  0  0  0  0  0  0  0  0  0  0
    2.7000   -1.9000    0.0000 C   0  0  0  0  0  0  0  0  0  0  0  0
   -1.1000    1.5208    0.0000 C   0  0  0  0  0  0  0  0  0  0  0  0
    1.1000    1.1208    0.0000 C   0  0  0  0  0  0  0  0  0  0  0  0
    0.9000    1.8458    0.0000 C   0  0  0  0  0  0  0  0  0  0  0  0
    0.1792    2.0208    0.0000 C   0  0  0  0  0  0  0  0  0  0  0  0
  2  1  1  0  0  0  0
  3  1  1  0  0  0  0
  4 10  1  0  0  0  0
  5  4  1  0  0  0  0
  6  5  1  0  0  0  0
  7  8  1  0  0  0  0
  8  6  2  0  0  0  0
  9  1  1  0  0  0  0
 10 23  1  0  0  0  0
 11 21  1  0  0  0  0
 12  7  1  0  0  0  0
 13  4  2  0  0  0  0
 14  3  1  0  0  0  0
 15  2  1  0  0  0  0
 16  3  2  0  0  0  0
 17  2  2  0  0  0  0
 18  6  1  0  0  0  0
 19  9  2  0  0  0  0
 20  9  1  0  0  0  0
 21 18  2  0  0  0  0
 22 11  1  0  0  0  0
 23 20  2  0  0  0  0
 24 19  1  0  0  0  0
 25 12  1  0  0  0  0
 26  8  1  0  0  0  0
 27 26  2  0  0  0  0
 28 27  1  0  0  0  0
 14 15  1  0  0  0  0
 24 10  2  0  0  0  0
  7 11  2  0  0  0  0
 28 12  2  0  0  0  0
 25 22  1  0  0  0  0
M  END
> <IDNUMBER>
F0327-0383

> <Chemical_Name>
N-(1,2-dihydroacenaphthylen-5-yl)-4-(2,5-dioxopyrrolidin-1-yl)benzamide

> <CAS>
313405-95-7

> <PriceCoeff>
1.00

> <MW>
370.40

> <Description>
solid

> <FSP3>
0.17

> <clogP>
2.42

> <TPSA>
66.48

> <Acceptor>
3

> <Donor>
1

> <RotBonds>
3

> <HAC>
28

> <Collection>
General

$$$$
F0611-0079
  -ISIS-  06222321142D

 28 30  0  0  0  0  0  0  0  0999 V2000
    4.7042    3.3708    0.0000 N   0  3  0  0  0  0  0  0  0  0  0  0
    3.9917    3.7833    0.0000 C   0  0  0  0  0  0  0  0  0  0  0  0
   -1.7250    2.1500    0.0000 N   0  0  0  0  0  0  0  0  0  0  0  0
   -1.0083    2.5625    0.0000 C   0  0  0  0  0  0  0  0  0  0  0  0
   -2.4458    2.5708    0.0000 C   0  0  0  0  0  0  0  0  0  0  0  0
   -1.0083    3.3958    0.0000 C   0  0  0  0  0  0  0  0  0  0  0  0
   -1.7250    3.8083    0.0000 C   0  0  0  0  0  0  0  0  0  0  0  0
   -2.4375    3.3958    0.0000 C   0  0  0  0  0  0  0  0  0  0  0  0
    3.2792    3.3958    0.0000 C   0  0  0  0  0  0  0  0  0  0  0  0
    1.8500    3.3833    0.0000 C   0  0  0  0  0  0  0  0  0  0  0  0
    2.5667    3.7958    0.0000 C   0  0  0  0  0  0  0  0  0  0  0  0
   -3.1583    2.1500    0.0000 C   0  0  0  0  0  0  0  0  0  0  0  0
   -3.1583    3.8083    0.0000 C   0  0  0  0  0  0  0  0  0  0  0  0
    4.0042    4.6042    0.0000 C   0  0  0  0  0  0  0  0  0  0  0  0
   -3.8708    3.3958    0.0000 C   0  0  0  0  0  0  0  0  0  0  0  0
   -3.8708    2.5625    0.0000 C   0  0  0  0  0  0  0  0  0  0  0  0
    5.4292    3.7708    0.0000 O   0  5  0  0  0  0  0  0  0  0  0  0
    4.6875    2.5375    0.0000 O   0  0  0  0  0  0  0  0  0  0  0  0
   -0.2958    2.1500    0.0000 O   0  0  0  0  0  0  0  0  0  0  0  0
    1.8500    2.5625    0.0000 O   0  0  0  0  0  0  0  0  0  0  0  0
    2.5750    4.6292    0.0000 C   0  0  0  0  0  0  0  0  0  0  0  0
    3.2792    5.0292    0.0000 C   0  0  0  0  0  0  0  0  0  0  0  0
    1.1375    3.8000    0.0000 N   0  0  0  0  0  0  0  0  0  0  0  0
    4.7292    5.0125    0.0000 Cl  0  0  0  0  0  0  0  0  0  0  0  0
   -0.2958    3.8000    0.0000 C   0  0  0  0  0  0  0  0  0  0  0  0
    0.4167    3.3958    0.0000 C   0  0  0  0  0  0  0  0  0  0  0  0
   -4.5833    3.8000    0.0000 C   0  0  0  0  0  0  0  0  0  0  0  0
   -4.5833    2.1500    0.0000 C   0  0  0  0  0  0  0  0  0  0  0  0
  2  1  1  0  0  0  0
  3  4  1  0  0  0  0
  4  6  1  0  0  0  0
  5  8  1  0  0  0  0
  6 25  1  0  0  0  0
  7  6  2  0  0  0  0
  8  7  1  0  0  0  0
  9  2  1  0  0  0  0
 10 11  1  0  0  0  0
 11  9  2  0  0  0  0
 12  5  2  0  0  0  0
 13  8  2  0  0  0  0
 14  2  2  0  0  0  0
 15 13  1  0  0  0  0
 16 15  2  0  0  0  0
 17  1  1  0  0  0  0
 18  1  2  0  0  0  0
 19  4  2  0  0  0  0
 20 10  2  0  0  0  0
 21 22  2  0  0  0  0
 22 14  1  0  0  0  0
 23 10  1  0  0  0  0
 24 14  1  0  0  0  0
 25 26  1  0  0  0  0
 26 23  1  0  0  0  0
 27 15  1  0  0  0  0
 28 16  1  0  0  0  0
 21 11  1  0  0  0  0
  3  5  1  0  0  0  0
 16 12  1  0  0  0  0
M  CHG  2   1   1  17  -1
M  END
> <IDNUMBER>
F0611-0079

> <Chemical_Name>
4-chloro-N-[2-(6,7-dimethyl-2-oxo-1,2-dihydroquinolin-3-yl)ethyl]-3-nitrobenzamide

> <CAS>
851403-08-2

> <PriceCoeff>
1.00

> <MW>
399.83

> <Description>
solid

> <FSP3>
0.20

> <clogP>
3.38

> <TPSA>
101.34

> <Acceptor>
4

> <Donor>
2

> <RotBonds>
5

> <HAC>
28

> <Collection>
General

$$$$
F2843-0251
  -ISIS-  06222321152D

 25 27  0  0  0  0  0  0  0  0999 V2000
   -1.7125    2.5625    0.0000 N   0  0  3  0  0  0  0  0  0  0  0  0
   -1.0000    2.9833    0.0000 C   0  0  0  0  0  0  0  0  0  0  0  0
   -2.4333    2.9833    0.0000 C   0  0  0  0  0  0  0  0  0  0  0  0
   -1.0083    3.8125    0.0000 C   0  0  0  0  0  0  0  0  0  0  0  0
   -3.1583    2.5583    0.0000 N   0  0  3  0  0  0  0  0  0  0  0  0
   -1.7083    1.7375    0.0000 C   0  0  0  0  0  0  0  0  0  0  0  0
   -0.2833    2.5708    0.0000 O   0  0  0  0  0  0  0  0  0  0  0  0
   -2.4375    3.8000    0.0000 O   0  0  0  0  0  0  0  0  0  0  0  0
   -0.2958    4.2167    0.0000 C   0  0  0  0  0  0  0  0  0  0  0  0
   -0.9875    1.3333    0.0000 C   0  0  0  0  0  0  0  0  0  0  0  0
   -2.4208    1.3333    0.0000 C   0  0  0  0  0  0  0  0  0  0  0  0
   -1.6958    0.0958    0.0000 C   0  0  0  0  0  0  0  0  0  0  0  0
    0.4250    3.8208    0.0000 F   0  0  0  0  0  0  0  0  0  0  0  0
   -1.7250    4.2125    0.0000 C   0  0  0  0  0  0  0  0  0  0  0  0
   -2.4208    0.5000    0.0000 C   0  0  0  0  0  0  0  0  0  0  0  0
   -0.9833    0.5083    0.0000 C   0  0  0  0  0  0  0  0  0  0  0  0
   -1.6875   -0.7292    0.0000 Cl  0  0  0  0  0  0  0  0  0  0  0  0
   -3.1583    1.7250    0.0000 C   0  0  0  0  0  0  0  0  0  0  0  0
   -3.8708    2.9708    0.0000 C   0  0  0  0  0  0  0  0  0  0  0  0
   -0.3000    5.0417    0.0000 C   0  0  0  0  0  0  0  0  0  0  0  0
   -1.7375    5.0292    0.0000 C   0  0  0  0  0  0  0  0  0  0  0  0
   -3.8708    1.3125    0.0000 C   0  0  0  0  0  0  0  0  0  0  0  0
   -4.5833    2.5583    0.0000 C   0  0  0  0  0  0  0  0  0  0  0  0
   -1.0250    5.4542    0.0000 C   0  0  0  0  0  0  0  0  0  0  0  0
   -4.5833    1.7250    0.0000 C   0  0  0  0  0  0  0  0  0  0  0  0
  2  1  1  0  0  0  0
  3  1  1  0  0  0  0
  4  2  1  0  0  0  0
  5  3  1  0  0  0  0
  6  1  1  0  0  0  0
  7  2  2  0  0  0  0
  8  3  2  0  0  0  0
  9  4  1  0  0  0  0
 10  6  2  0  0  0  0
 11  6  1  0  0  0  0
 12 15  1  0  0  0  0
 13  9  1  0  0  0  0
 14  4  2  0  0  0  0
 15 11  2  0  0  0  0
 16 10  1  0  0  0  0
 17 12  1  0  0  0  0
 18  5  1  0  0  0  0
 19  5  1  0  0  0  0
 20  9  2  0  0  0  0
 21 14  1  0  0  0  0
 22 18  1  0  0  0  0
 23 19  1  0  0  0  0
 24 21  2  0  0  0  0
 25 23  1  0  0  0  0
 12 16  2  0  0  0  0
 22 25  1  0  0  0  0
 20 24  1  0  0  0  0
M  END
> <IDNUMBER>
F2843-0251

> <Chemical_Name>
N-(4-chlorophenyl)-N-(2-fluorobenzoyl)piperidine-1-carboxamide

> <CAS>
899951-21-4

> <PriceCoeff>
1.00

> <MW>
360.81

> <Description>
solid

> <FSP3>
0.26

> <clogP>
4.42

> <TPSA>
40.62

> <Acceptor>
2

> <Donor>
0

> <RotBonds>
5

> <HAC>
25

> <Collection>
General

> <Reference_compound>
CHEMBL2287669

> <Similarity>
0.8130

$$$$
F1814-1674
  -ISIS-  06222321442D

 29 32  0  0  0  0  0  0  0  0999 V2000
   -4.5625    2.6208    0.0000 C   0  0  0  0  0  0  0  0  0  0  0  0
   -3.8625    3.0083    0.0000 N   0  0  0  0  0  0  0  0  0  0  0  0
   -4.6458    1.7833    0.0000 N   0  0  3  0  0  0  0  0  0  0  0  0
   -1.0208    3.8000    0.0000 N   0  0  3  0  0  0  0  0  0  0  0  0
   -5.3208    2.9583    0.0000 S   0  0  0  0  0  0  0  0  0  0  0  0
   -5.4708    1.6125    0.0000 C   0  0  0  0  0  0  0  0  0  0  0  0
   -5.8833    2.3333    0.0000 C   0  0  0  0  0  0  0  0  0  0  0  0
   -3.8708    3.8000    0.0000 C   0  0  0  0  0  0  0  0  0  0  0  0
   -1.7333    4.2042    0.0000 C   0  0  0  0  0  0  0  0  0  0  0  0
   -5.8958    0.8875    0.0000 C   0  0  0  0  0  0  0  0  0  0  0  0
   -0.2583    4.0917    0.0000 C   0  0  0  0  0  0  0  0  0  0  0  0
   -0.9708    2.9833    0.0000 C   0  0  0  0  0  0  0  0  0  0  0  0
   -6.7167    2.3458    0.0000 C   0  0  0  0  0  0  0  0  0  0  0  0
   -2.4458    3.8083    0.0000 C   0  0  0  0  0  0  0  0  0  0  0  0
   -6.7167    0.8958    0.0000 C   0  0  0  0  0  0  0  0  0  0  0  0
   -3.1583    4.2042    0.0000 C   0  0  0  0  0  0  0  0  0  0  0  0
   -7.1292    1.6208    0.0000 C   0  0  0  0  0  0  0  0  0  0  0  0
   -4.5583    4.2000    0.0000 O   0  0  0  0  0  0  0  0  0  0  0  0
    0.2750    3.4708    0.0000 C   0  0  0  0  0  0  0  0  0  0  0  0
   -0.1583    2.7833    0.0000 C   0  0  0  0  0  0  0  0  0  0  0  0
   -0.0375    4.8875    0.0000 O   0  0  0  0  0  0  0  0  0  0  0  0
   -1.6083    2.4583    0.0000 O   0  0  0  0  0  0  0  0  0  0  0  0
   -5.4833    0.1833    0.0000 F   0  0  0  0  0  0  0  0  0  0  0  0
   -4.0833    1.2375    0.0000 C   0  0  0  0  0  0  0  0  0  0  0  0
   -7.9167    1.6208    0.0000 F   0  0  0  0  0  0  0  0  0  0  0  0
   -1.7250    5.0292    0.0000 C   0  0  0  0  0  0  0  0  0  0  0  0
   -3.1583    5.0292    0.0000 C   0  0  0  0  0  0  0  0  0  0  0  0
   -2.4375    5.4417    0.0000 C   0  0  0  0  0  0  0  0  0  0  0  0
   -4.2458    0.4375    0.0000 C   0  0  0  0  0  0  0  0  0  0  0  0
  2  1  2  0  0  0  0
  3  1  1  0  0  0  0
  4  9  1  0  0  0  0
  5  1  1  0  0  0  0
  6  3  1  0  0  0  0
  7  5  1  0  0  0  0
  8  2  1  0  0  0  0
  9 14  1  0  0  0  0
 10  6  1  0  0  0  0
 11  4  1  0  0  0  0
 12  4  1  0  0  0  0
 13  7  1  0  0  0  0
 14 16  2  0  0  0  0
 15 10  2  0  0  0  0
 16  8  1  0  0  0  0
 17 13  2  0  0  0  0
 18  8  2  0  0  0  0
 19 11  1  0  0  0  0
 20 12  1  0  0  0  0
 21 11  2  0  0  0  0
 22 12  2  0  0  0  0
 23 10  1  0  0  0  0
 24  3  1  0  0  0  0
 25 17  1  0  0  0  0
 26 28  1  0  0  0  0
 27 16  1  0  0  0  0
 28 27  2  0  0  0  0
 29 24  1  0  0  0  0
  7  6  2  0  0  0  0
 15 17  1  0  0  0  0
 26  9  2  0  0  0  0
 19 20  1  0  0  0  0
M  END
> <IDNUMBER>
F1814-1674

> <Chemical_Name>
3-(2,5-dioxopyrrolidin-1-yl)-N-[(2Z)-3-ethyl-4,6-difluoro-2,3-dihydro-1,3-benzothiazol-2-ylidene]benzamide

> <CAS>
868375-23-9

> <PriceCoeff>
1.00

> <MW>
415.41

> <Description>
solid

> <FSP3>
0.20

> <clogP>
3.76

> <TPSA>
95.35

> <Acceptor>
3

> <Donor>
0

> <RotBonds>
4

> <HAC>
29

> <Collection>
General

$$$$
F2843-0327
  -ISIS-  06222321442D

 25 27  0  0  0  0  0  0  0  0999 V2000
   -1.7125    2.5625    0.0000 N   0  0  3  0  0  0  0  0  0  0  0  0
   -1.0000    2.9833    0.0000 C   0  0  0  0  0  0  0  0  0  0  0  0
   -2.4333    2.9833    0.0000 C   0  0  0  0  0  0  0  0  0  0  0  0
   -1.0083    3.8125    0.0000 C   0  0  0  0  0  0  0  0  0  0  0  0
   -1.7083    1.7375    0.0000 C   0  0  0  0  0  0  0  0  0  0  0  0
   -3.1583    2.5583    0.0000 N   0  0  3  0  0  0  0  0  0  0  0  0
   -2.4208    1.3333    0.0000 C   0  0  0  0  0  0  0  0  0  0  0  0
   -0.2833    2.5708    0.0000 O   0  0  0  0  0  0  0  0  0  0  0  0
   -2.4375    3.8000    0.0000 O   0  0  0  0  0  0  0  0  0  0  0  0
   -0.2958    4.2167    0.0000 C   0  0  0  0  0  0  0  0  0  0  0  0
   -2.4208    0.5000    0.0000 C   0  0  0  0  0  0  0  0  0  0  0  0
    0.4250    3.8208    0.0000 F   0  0  0  0  0  0  0  0  0  0  0  0
   -1.7250    4.2125    0.0000 C   0  0  0  0  0  0  0  0  0  0  0  0
   -0.9875    1.3333    0.0000 C   0  0  0  0  0  0  0  0  0  0  0  0
   -3.1333    0.0833    0.0000 Cl  0  0  0  0  0  0  0  0  0  0  0  0
   -3.1583    1.7250    0.0000 C   0  0  0  0  0  0  0  0  0  0  0  0
   -3.8708    2.9708    0.0000 C   0  0  0  0  0  0  0  0  0  0  0  0
   -0.9833    0.5083    0.0000 C   0  0  0  0  0  0  0  0  0  0  0  0
   -0.3000    5.0417    0.0000 C   0  0  0  0  0  0  0  0  0  0  0  0
   -1.6958    0.0958    0.0000 C   0  0  0  0  0  0  0  0  0  0  0  0
   -1.7375    5.0292    0.0000 C   0  0  0  0  0  0  0  0  0  0  0  0
   -3.8708    1.3125    0.0000 C   0  0  0  0  0  0  0  0  0  0  0  0
   -4.5833    2.5583    0.0000 C   0  0  0  0  0  0  0  0  0  0  0  0
   -1.0250    5.4542    0.0000 C   0  0  0  0  0  0  0  0  0  0  0  0
   -4.5833    1.7250    0.0000 C   0  0  0  0  0  0  0  0  0  0  0  0
  2  1  1  0  0  0  0
  3  1  1  0  0  0  0
  4  2  1  0  0  0  0
  5  1  1  0  0  0  0
  6  3  1  0  0  0  0
  7  5  1  0  0  0  0
  8  2  2  0  0  0  0
  9  3  2  0  0  0  0
 10  4  1  0  0  0  0
 11  7  2  0  0  0  0
 12 10  1  0  0  0  0
 13  4  2  0  0  0  0
 14  5  2  0  0  0  0
 15 11  1  0  0  0  0
 16  6  1  0  0  0  0
 17  6  1  0  0  0  0
 18 14  1  0  0  0  0
 19 10  2  0  0  0  0
 20 18  2  0  0  0  0
 21 13  1  0  0  0  0
 22 16  1  0  0  0  0
 23 17  1  0  0  0  0
 24 21  2  0  0  0  0
 25 23  1  0  0  0  0
 20 11  1  0  0  0  0
 22 25  1  0  0  0  0
 19 24  1  0  0  0  0
M  END
> <IDNUMBER>
F2843-0327

> <Chemical_Name>
N-(3-chlorophenyl)-N-(2-fluorobenzoyl)piperidine-1-carboxamide

> <CAS>
899951-27-0

> <PriceCoeff>
1.00

> <MW>
360.81

> <Description>
solid

> <FSP3>
0.26

> <clogP>
4.42

> <TPSA>
40.62

> <Acceptor>
2

> <Donor>
0

> <RotBonds>
5

> <HAC>
25

> <Collection>
General

> <Reference_compound>
CHEMBL2288963

> <Similarity>
0.8010

$$$$
F1190-0099
  -ISIS-  06222321452D

 31 33  0  0  0  0  0  0  0  0999 V2000
    2.9292   -1.2875    0.0000 C   0  0  0  0  0  0  0  0  0  0  0  0
    2.9292   -0.4625    0.0000 C   0  0  0  0  0  0  0  0  0  0  0  0
    2.2167   -0.0500    0.0000 C   0  0  0  0  0  0  0  0  0  0  0  0
    1.5042   -1.2875    0.0000 C   0  0  0  0  0  0  0  0  0  0  0  0
    2.2167   -1.7000    0.0000 C   0  0  0  0  0  0  0  0  0  0  0  0
    3.6417   -0.0500    0.0000 O   0  0  0  0  0  0  0  0  0  0  0  0
    3.6417   -1.7000    0.0000 C   0  0  0  0  0  0  0  0  0  0  0  0
    1.5042   -0.4625    0.0000 C   0  0  0  0  0  0  0  0  0  0  0  0
    4.3625   -0.4625    0.0000 C   0  0  0  0  0  0  0  0  0  0  0  0
    4.3625   -1.2875    0.0000 C   0  0  0  0  0  0  0  0  0  0  0  0
    2.2167    0.7750    0.0000 C   0  0  0  0  0  0  0  0  0  0  0  0
    0.7792   -1.7042    0.0000 C   0  0  0  0  0  0  0  0  0  0  0  0
    3.6417   -2.5250    0.0000 O   0  0  0  0  0  0  0  0  0  0  0  0
    5.0792   -0.0500    0.0000 C   0  0  0  0  0  0  0  0  0  0  0  0
    2.2167   -2.5250    0.0000 O   0  0  0  0  0  0  0  0  0  0  0  0
    2.9292    1.1875    0.0000 N   0  0  3  0  0  0  0  0  0  0  0  0
    0.0625   -1.2917    0.0000 N   0  0  3  0  0  0  0  0  0  0  0  0
    0.7792   -0.0500    0.0000 O   0  0  0  0  0  0  0  0  0  0  0  0
    5.0792    0.7833    0.0000 C   0  0  0  0  0  0  0  0  0  0  0  0
    5.7917   -0.4625    0.0000 C   0  0  0  0  0  0  0  0  0  0  0  0
    3.6417    0.7750    0.0000 C   0  0  0  0  0  0  0  0  0  0  0  0
    2.9292    2.0208    0.0000 C   0  0  0  0  0  0  0  0  0  0  0  0
    0.0542   -0.4667    0.0000 C   0  0  0  0  0  0  0  0  0  0  0  0
   -0.6500   -1.7125    0.0000 C   0  0  0  0  0  0  0  0  0  0  0  0
   -0.6583   -0.0542    0.0000 C   0  0  0  0  0  0  0  0  0  0  0  0
    4.3625    1.1875    0.0000 C   0  0  0  0  0  0  0  0  0  0  0  0
   -0.6458   -2.5375    0.0000 C   0  0  0  0  0  0  0  0  0  0  0  0
    2.2167    2.4333    0.0000 C   0  0  0  0  0  0  0  0  0  0  0  0
    6.5042   -0.0500    0.0000 C   0  0  0  0  0  0  0  0  0  0  0  0
    5.7917    1.1958    0.0000 C   0  0  0  0  0  0  0  0  0  0  0  0
    6.5042    0.7833    0.0000 C   0  0  0  0  0  0  0  0  0  0  0  0
  2  1  1  0  0  0  0
  3  2  2  0  0  0  0
  4  5  1  0  0  0  0
  5  1  2  0  0  0  0
  6  2  1  0  0  0  0
  7  1  1  0  0  0  0
  8  4  2  0  0  0  0
  9 10  2  0  0  0  0
 10  7  1  0  0  0  0
 11  3  1  0  0  0  0
 12  4  1  0  0  0  0
 13  7  2  0  0  0  0
 14  9  1  0  0  0  0
 15  5  1  0  0  0  0
 16 11  1  0  0  0  0
 17 12  1  0  0  0  0
 18  8  1  0  0  0  0
 19 14  1  0  0  0  0
 20 14  2  0  0  0  0
 21 16  1  0  0  0  0
 22 16  1  0  0  0  0
 23 17  1  0  0  0  0
 24 17  1  0  0  0  0
 25 23  1  0  0  0  0
 26 21  1  0  0  0  0
 27 24  1  0  0  0  0
 28 22  1  0  0  0  0
 29 20  1  0  0  0  0
 30 19  2  0  0  0  0
 31 29  2  0  0  0  0
  9  6  1  0  0  0  0
  8  3  1  0  0  0  0
 30 31  1  0  0  0  0
M  END
> <IDNUMBER>
F1190-0099

> <Chemical_Name>
6,8-bis[(diethylamino)methyl]-5,7-dihydroxy-2-phenyl-4H-chromen-4-one

> <CAS>
384360-89-8

> <PriceCoeff>
1.00

> <MW>
424.53

> <Description>
solid

> <FSP3>
0.40

> <clogP>
5.20

> <TPSA>
73.24

> <Acceptor>
4

> <Donor>
4

> <RotBonds>
9

> <HAC>
31

> <Collection>
General

> <Reference_compound>
CHEMBL134291

> <Similarity>
0.8100

$$$$
F1814-0652
  -ISIS-  06222321142D

 30 33  0  0  0  0  0  0  0  0999 V2000
   -5.2833    2.1875    0.0000 C   0  0  0  0  0  0  0  0  0  0  0  0
   -6.0292    2.5250    0.0000 S   0  0  0  0  0  0  0  0  0  0  0  0
   -6.5917    1.9000    0.0000 C   0  0  0  0  0  0  0  0  0  0  0  0
   -4.5833    2.5958    0.0000 N   0  0  0  0  0  0  0  0  0  0  0  0
   -5.3583    1.3500    0.0000 N   0  0  3  0  0  0  0  0  0  0  0  0
   -1.7208    3.3833    0.0000 N   0  0  3  0  0  0  0  0  0  0  0  0
   -6.1667    1.1708    0.0000 C   0  0  0  0  0  0  0  0  0  0  0  0
   -4.5833    3.3958    0.0000 C   0  0  0  0  0  0  0  0  0  0  0  0
   -2.4375    3.8083    0.0000 C   0  0  0  0  0  0  0  0  0  0  0  0
   -1.6750    2.5583    0.0000 C   0  0  0  0  0  0  0  0  0  0  0  0
   -0.9500    3.6958    0.0000 C   0  0  0  0  0  0  0  0  0  0  0  0
   -3.1583    3.3958    0.0000 C   0  0  0  0  0  0  0  0  0  0  0  0
   -3.8708    3.8000    0.0000 C   0  0  0  0  0  0  0  0  0  0  0  0
   -7.4375    1.8958    0.0000 C   0  0  0  0  0  0  0  0  0  0  0  0
   -6.5917    0.4500    0.0000 C   0  0  0  0  0  0  0  0  0  0  0  0
   -5.2833    3.7958    0.0000 O   0  0  0  0  0  0  0  0  0  0  0  0
   -0.4208    3.0583    0.0000 C   0  0  0  0  0  0  0  0  0  0  0  0
   -0.8583    2.3583    0.0000 C   0  0  0  0  0  0  0  0  0  0  0  0
   -0.7375    4.4667    0.0000 O   0  0  0  0  0  0  0  0  0  0  0  0
   -2.3083    2.0375    0.0000 O   0  0  0  0  0  0  0  0  0  0  0  0
   -7.8417    1.1708    0.0000 C   0  0  0  0  0  0  0  0  0  0  0  0
   -7.4167    0.4458    0.0000 C   0  0  0  0  0  0  0  0  0  0  0  0
   -4.7583    0.8125    0.0000 C   0  0  0  0  0  0  0  0  0  0  0  0
   -2.4333    4.6167    0.0000 C   0  0  0  0  0  0  0  0  0  0  0  0
   -7.8417    2.6083    0.0000 O   0  0  0  0  0  0  0  0  0  0  0  0
   -6.1667   -0.2542    0.0000 O   0  0  0  0  0  0  0  0  0  0  0  0
   -3.8625    4.6292    0.0000 C   0  0  0  0  0  0  0  0  0  0  0  0
   -3.1458    5.0417    0.0000 C   0  0  0  0  0  0  0  0  0  0  0  0
   -6.5000   -1.0042    0.0000 C   0  0  0  0  0  0  0  0  0  0  0  0
   -8.6667    2.6083    0.0000 C   0  0  0  0  0  0  0  0  0  0  0  0
  2  1  1  0  0  0  0
  3  2  1  0  0  0  0
  4  1  2  0  0  0  0
  5  1  1  0  0  0  0
  6  9  1  0  0  0  0
  7  5  1  0  0  0  0
  8  4  1  0  0  0  0
  9 12  1  0  0  0  0
 10  6  1  0  0  0  0
 11  6  1  0  0  0  0
 12 13  2  0  0  0  0
 13  8  1  0  0  0  0
 14  3  1  0  0  0  0
 15  7  1  0  0  0  0
 16  8  2  0  0  0  0
 17 11  1  0  0  0  0
 18 10  1  0  0  0  0
 19 11  2  0  0  0  0
 20 10  2  0  0  0  0
 21 14  2  0  0  0  0
 22 15  2  0  0  0  0
 23  5  1  0  0  0  0
 24 28  1  0  0  0  0
 25 14  1  0  0  0  0
 26 15  1  0  0  0  0
 27 13  1  0  0  0  0
 28 27  2  0  0  0  0
 29 26  1  0  0  0  0
 30 25  1  0  0  0  0
  7  3  2  0  0  0  0
 21 22  1  0  0  0  0
 24  9  2  0  0  0  0
 17 18  1  0  0  0  0
M  END
> <IDNUMBER>
F1814-0652

> <Chemical_Name>
N-[(2Z)-4,7-dimethoxy-3-methyl-2,3-dihydro-1,3-benzothiazol-2-ylidene]-3-(2,5-dioxopyrrolidin-1-yl)benzamide

> <CAS>
1164509-13-0

> <PriceCoeff>
1.00

> <MW>
425.46

> <Description>
solid

> <FSP3>
0.24

> <clogP>
2.96

> <TPSA>
113.81

> <Acceptor>
5

> <Donor>
0

> <RotBonds>
5

> <HAC>
30

> <Collection>
General

$$$$
F1365-1782
  -ISIS-  06222321442D

 29 32  0  0  0  0  0  0  0  0999 V2000
   -1.1625    2.3833    0.0000 C   0  0  0  0  0  0  0  0  0  0  0  0
   -0.3375    2.3750    0.0000 N   0  0  0  0  0  0  0  0  0  0  0  0
    2.5542    1.6500    0.0000 N   0  0  3  0  0  0  0  0  0  0  0  0
   -1.6458    1.7208    0.0000 N   0  0  3  0  0  0  0  0  0  0  0  0
   -1.6458    3.0500    0.0000 S   0  0  0  0  0  0  0  0  0  0  0  0
   -2.4333    2.7958    0.0000 C   0  0  0  0  0  0  0  0  0  0  0  0
   -2.4333    1.9708    0.0000 C   0  0  0  0  0  0  0  0  0  0  0  0
    0.0750    3.0875    0.0000 C   0  0  0  0  0  0  0  0  0  0  0  0
    2.1292    2.3708    0.0000 C   0  0  0  0  0  0  0  0  0  0  0  0
    3.3667    1.5333    0.0000 C   0  0  0  0  0  0  0  0  0  0  0  0
    2.1750    0.9125    0.0000 C   0  0  0  0  0  0  0  0  0  0  0  0
    1.3125    2.3750    0.0000 C   0  0  0  0  0  0  0  0  0  0  0  0
    0.9000    3.0875    0.0000 C   0  0  0  0  0  0  0  0  0  0  0  0
   -1.9458    0.3208    0.0000 C   0  0  0  0  0  0  0  0  0  0  0  0
   -2.4958   -0.2917    0.0000 C   0  0  0  0  0  0  0  0  0  0  0  0
   -3.1458    1.5583    0.0000 C   0  0  0  0  0  0  0  0  0  0  0  0
   -3.1458    3.2083    0.0000 C   0  0  0  0  0  0  0  0  0  0  0  0
   -0.3375    3.8000    0.0000 O   0  0  0  0  0  0  0  0  0  0  0  0
    3.5042    0.7125    0.0000 C   0  0  0  0  0  0  0  0  0  0  0  0
    2.7792    0.3250    0.0000 C   0  0  0  0  0  0  0  0  0  0  0  0
    3.9500    2.1083    0.0000 O   0  0  0  0  0  0  0  0  0  0  0  0
    1.3667    0.7833    0.0000 O   0  0  0  0  0  0  0  0  0  0  0  0
   -1.3958    0.9333    0.0000 C   0  0  0  0  0  0  0  0  0  0  0  0
   -3.8583    1.9708    0.0000 C   0  0  0  0  0  0  0  0  0  0  0  0
   -3.8583    2.7958    0.0000 C   0  0  0  0  0  0  0  0  0  0  0  0
    2.5542    3.0833    0.0000 C   0  0  0  0  0  0  0  0  0  0  0  0
    1.3167    3.8083    0.0000 C   0  0  0  0  0  0  0  0  0  0  0  0
    2.1417    3.8000    0.0000 C   0  0  0  0  0  0  0  0  0  0  0  0
   -4.5833    3.2125    0.0000 C   0  0  0  0  0  0  0  0  0  0  0  0
  2  1  2  0  0  0  0
  3  9  1  0  0  0  0
  4  1  1  0  0  0  0
  5  1  1  0  0  0  0
  6  5  1  0  0  0  0
  7  4  1  0  0  0  0
  8  2  1  0  0  0  0
  9 12  1  0  0  0  0
 10  3  1  0  0  0  0
 11  3  1  0  0  0  0
 12 13  2  0  0  0  0
 13  8  1  0  0  0  0
 14 23  1  0  0  0  0
 15 14  3  0  0  0  0
 16  7  1  0  0  0  0
 17  6  1  0  0  0  0
 18  8  2  0  0  0  0
 19 10  1  0  0  0  0
 20 11  1  0  0  0  0
 21 10  2  0  0  0  0
 22 11  2  0  0  0  0
 23  4  1  0  0  0  0
 24 16  2  0  0  0  0
 25 17  2  0  0  0  0
 26 28  1  0  0  0  0
 27 13  1  0  0  0  0
 28 27  2  0  0  0  0
 29 25  1  0  0  0  0
  7  6  2  0  0  0  0
 24 25  1  0  0  0  0
  9 26  2  0  0  0  0
 19 20  1  0  0  0  0
M  END
> <IDNUMBER>
F1365-1782

> <Chemical_Name>
3-(2,5-dioxopyrrolidin-1-yl)-N-[(2Z)-6-methyl-3-(prop-2-yn-1-yl)-2,3-dihydro-1,3-benzothiazol-2-ylidene]benzamide

> <CAS>
865180-85-4

> <PriceCoeff>
1.00

> <MW>
403.45

> <Description>
solid

> <FSP3>
0.18

> <clogP>
3.55

> <TPSA>
95.35

> <Acceptor>
3

> <Donor>
0

> <RotBonds>
5

> <HAC>
29

> <Collection>
General

$$$$
F5526-0036
  -ISIS-  06222321442D

 22 23  0  0  0  0  0  0  0  0999 V2000
   -2.6875    4.1542    0.0000 N   0  3  0  0  0  0  0  0  0  0  0  0
   -2.0333    4.5292    0.0000 C   0  0  0  0  0  0  0  0  0  0  0  0
   -2.0333    5.2792    0.0000 C   0  0  0  0  0  0  0  0  0  0  0  0
   -1.3833    6.4042    0.0000 C   0  0  0  0  0  0  0  0  0  0  0  0
   -1.3833    5.6542    0.0000 C   0  0  0  0  0  0  0  0  0  0  0  0
   -1.3833    4.1542    0.0000 C   0  0  0  0  0  0  0  0  0  0  0  0
   -3.3375    4.5292    0.0000 O   0  5  0  0  0  0  0  0  0  0  0  0
   -2.6875    3.4083    0.0000 O   0  0  0  0  0  0  0  0  0  0  0  0
   -0.7375    6.7792    0.0000 O   0  0  0  0  0  0  0  0  0  0  0  0
   -0.7375    5.2792    0.0000 C   0  0  0  0  0  0  0  0  0  0  0  0
   -0.7375    4.5292    0.0000 C   0  0  0  0  0  0  0  0  0  0  0  0
   -2.0333    6.7792    0.0000 N   0  0  0  0  0  0  0  0  0  0  0  0
   -1.3750    3.4083    0.0000 Cl  0  0  0  0  0  0  0  0  0  0  0  0
   -4.6458    6.7792    0.0000 C   0  0  0  0  0  0  0  0  0  0  0  0
   -3.9833    6.4042    0.0000 O   0  0  0  0  0  0  0  0  0  0  0  0
   -2.6833    6.4042    0.0000 C   0  0  0  0  0  0  0  0  0  0  0  0
   -3.3333    6.7792    0.0000 C   0  0  0  0  0  0  0  0  0  0  0  0
   -5.2875    6.4042    0.0000 C   0  0  0  0  0  0  0  0  0  0  0  0
   -4.6458    7.5292    0.0000 C   0  0  0  0  0  0  0  0  0  0  0  0
   -5.9333    6.7792    0.0000 C   0  0  0  0  0  0  0  0  0  0  0  0
   -5.2875    7.9042    0.0000 C   0  0  0  0  0  0  0  0  0  0  0  0
   -5.9333    7.5292    0.0000 C   0  0  0  0  0  0  0  0  0  0  0  0
  2  1  1  0  0  0  0
  3  2  1  0  0  0  0
  4  5  1  0  0  0  0
  5  3  2  0  0  0  0
  6  2  2  0  0  0  0
  7  1  1  0  0  0  0
  8  1  2  0  0  0  0
  9  4  2  0  0  0  0
 10 11  2  0  0  0  0
 11  6  1  0  0  0  0
 12  4  1  0  0  0  0
 13  6  1  0  0  0  0
 14 15  1  0  0  0  0
 15 17  1  0  0  0  0
 16 12  1  0  0  0  0
 17 16  1  0  0  0  0
 18 14  1  0  0  0  0
 19 14  2  0  0  0  0
 20 18  2  0  0  0  0
 21 19  1  0  0  0  0
 22 21  2  0  0  0  0
  5 10  1  0  0  0  0
 20 22  1  0  0  0  0
M  CHG  2   1   1   7  -1
M  END
> <IDNUMBER>
F5526-0036

> <Chemical_Name>
4-chloro-3-nitro-N-(2-phenoxyethyl)benzamide

> <CAS>
1105226-81-0

> <PriceCoeff>
1.00

> <MW>
320.73

> <Description>
solid

> <FSP3>
0.13

> <clogP>
3.67

> <TPSA>
81.47

> <Acceptor>
4

> <Donor>
1

> <RotBonds>
6

> <HAC>
22

> <Collection>
General

$$$$
F3386-1382
  -ISIS-  06222321152D

 22 23  0  0  0  0  0  0  0  0999 V2000
    5.5375   -1.9167    0.0000 S   0  0  3  0  0  0  0  0  0  0  0  0
    4.7125   -1.9167    0.0000 C   0  0  0  0  0  0  0  0  0  0  0  0
    6.3625   -1.9042    0.0000 N   0  0  0  0  0  0  0  0  0  0  0  0
    4.3167   -2.6375    0.0000 C   0  0  0  0  0  0  0  0  0  0  0  0
    7.1875   -1.9042    0.0000 C   0  0  0  0  0  0  0  0  0  0  0  0
    4.2917   -1.2167    0.0000 C   0  0  0  0  0  0  0  0  0  0  0  0
    3.4917   -2.6500    0.0000 C   0  0  0  0  0  0  0  0  0  0  0  0
    5.5417   -2.7417    0.0000 O   0  0  0  0  0  0  0  0  0  0  0  0
    5.5292   -1.0917    0.0000 O   0  0  0  0  0  0  0  0  0  0  0  0
    7.5917   -2.6167    0.0000 C   0  0  0  0  0  0  0  0  0  0  0  0
    3.4792   -1.2167    0.0000 C   0  0  0  0  0  0  0  0  0  0  0  0
    3.0667   -1.9375    0.0000 C   0  0  0  0  0  0  0  0  0  0  0  0
    7.5917   -1.1917    0.0000 C   0  0  0  0  0  0  0  0  0  0  0  0
    8.4125   -1.1875    0.0000 C   0  0  0  0  0  0  0  0  0  0  0  0
    8.4167   -2.6125    0.0000 C   0  0  0  0  0  0  0  0  0  0  0  0
    3.0875   -3.3667    0.0000 Br  0  0  0  0  0  0  0  0  0  0  0  0
    4.7042   -0.4917    0.0000 O   0  0  0  0  0  0  0  0  0  0  0  0
    8.8292   -1.9000    0.0000 C   0  0  0  0  0  0  0  0  0  0  0  0
    8.8292   -3.3292    0.0000 Cl  0  0  0  0  0  0  0  0  0  0  0  0
    7.1750   -0.4792    0.0000 O   0  0  0  0  0  0  0  0  0  0  0  0
    2.2417   -1.9417    0.0000 C   0  0  0  0  0  0  0  0  0  0  0  0
    5.5292   -0.4917    0.0000 C   0  0  0  0  0  0  0  0  0  0  0  0
  2  1  1  0  0  0  0
  3  1  1  0  0  0  0
  4  2  1  0  0  0  0
  5  3  1  0  0  0  0
  6  2  2  0  0  0  0
  7  4  2  0  0  0  0
  8  1  2  0  0  0  0
  9  1  2  0  0  0  0
 10  5  2  0  0  0  0
 11  6  1  0  0  0  0
 12 11  2  0  0  0  0
 13  5  1  0  0  0  0
 14 13  2  0  0  0  0
 15 10  1  0  0  0  0
 16  7  1  0  0  0  0
 17  6  1  0  0  0  0
 18 14  1  0  0  0  0
 19 15  1  0  0  0  0
 20 13  1  0  0  0  0
 21 12  1  0  0  0  0
 22 17  1  0  0  0  0
  7 12  1  0  0  0  0
 18 15  2  0  0  0  0
M  END
> <IDNUMBER>
F3386-1382

> <Chemical_Name>
5-bromo-N-(5-chloro-2-hydroxyphenyl)-2-methoxy-4-methylbenzene-1-sulfonamide

> <CAS>
1172897-00-5

> <PriceCoeff>
1.00

> <MW>
406.68

> <Description>
solid

> <FSP3>
0.14

> <clogP>
4.26

> <TPSA>
84.01

> <Acceptor>
5

> <Donor>
2

> <RotBonds>
4

> <HAC>
22

> <Collection>
General

$$$$
F0273-0019
  -ISIS-  06222321142D

 27 29  0  0  0  0  0  0  0  0999 V2000
    0.9542   -1.1042    0.0000 S   0  0  3  0  0  0  0  0  0  0  0  0
    2.0167    1.7708    0.0000 N   0  3  0  0  0  0  0  0  0  0  0  0
    1.7167    1.1833    0.0000 C   0  0  0  0  0  0  0  0  0  0  0  0
    0.0375    0.6333    0.0000 C   0  0  0  0  0  0  0  0  0  0  0  0
    0.0500   -0.5292    0.0000 C   0  0  3  0  0  0  0  0  0  0  0  0
   -0.2708    0.0333    0.0000 N   0  0  3  0  0  0  0  0  0  0  0  0
    0.7292   -0.5042    0.0000 C   0  0  0  0  0  0  0  0  0  0  0  0
    1.0792    1.1958    0.0000 C   0  0  0  0  0  0  0  0  0  0  0  0
    0.7167    0.6333    0.0000 C   0  0  0  0  0  0  0  0  0  0  0  0
   -0.1208   -1.1667    0.0000 C   0  0  0  0  0  0  0  0  0  0  0  0
    0.4500   -1.5167    0.0000 C   0  0  0  0  0  0  0  0  0  0  0  0
    2.0542    0.5833    0.0000 C   0  0  0  0  0  0  0  0  0  0  0  0
    1.5542   -0.8542    0.0000 O   0  0  0  0  0  0  0  0  0  0  0  0
    1.2292   -1.7292    0.0000 O   0  0  0  0  0  0  0  0  0  0  0  0
    2.6875    1.8708    0.0000 O   0  5  0  0  0  0  0  0  0  0  0  0
   -0.9208    0.0208    0.0000 C   0  0  0  0  0  0  0  0  0  0  0  0
    1.7000    2.3500    0.0000 O   0  0  0  0  0  0  0  0  0  0  0  0
   -0.3125    1.1958    0.0000 O   0  0  0  0  0  0  0  0  0  0  0  0
    1.0375    0.0500    0.0000 C   0  0  0  0  0  0  0  0  0  0  0  0
    1.7042    0.0333    0.0000 C   0  0  0  0  0  0  0  0  0  0  0  0
   -1.2458   -0.5667    0.0000 C   0  0  0  0  0  0  0  0  0  0  0  0
   -1.2958    0.5708    0.0000 C   0  0  0  0  0  0  0  0  0  0  0  0
    2.7375    0.5833    0.0000 Cl  0  0  0  0  0  0  0  0  0  0  0  0
   -1.9208   -0.5875    0.0000 C   0  0  0  0  0  0  0  0  0  0  0  0
   -1.9500    0.5625    0.0000 C   0  0  0  0  0  0  0  0  0  0  0  0
   -2.2458   -0.0292    0.0000 C   0  0  0  0  0  0  0  0  0  0  0  0
   -2.9333   -0.0875    0.0000 C   0  0  0  0  0  0  0  0  0  0  0  0
  2  3  1  0  0  0  0
  3  8  1  0  0  0  0
  4  6  1  0  0  0  0
  5  7  1  0  0  0  0
  6  5  1  0  0  0  0
  7  1  1  0  0  0  0
  8  9  2  0  0  0  0
  9  4  1  0  0  0  0
 10 11  2  0  0  0  0
 11  1  1  0  0  0  0
 12 20  1  0  0  0  0
 13  1  2  0  0  0  0
 14  1  2  0  0  0  0
 15  2  1  0  0  0  0
 16  6  1  0  0  0  0
 17  2  2  0  0  0  0
 18  4  2  0  0  0  0
 19  9  1  0  0  0  0
 20 19  2  0  0  0  0
 21 16  2  0  0  0  0
 22 16  1  0  0  0  0
 23 12  1  0  0  0  0
 24 21  1  0  0  0  0
 25 22  2  0  0  0  0
 26 25  1  0  0  0  0
 27 26  1  0  0  0  0
  5 10  1  0  0  0  0
 24 26  2  0  0  0  0
  3 12  2  0  0  0  0
M  CHG  2   2   1  15  -1
M  END
> <IDNUMBER>
F0273-0019

> <Chemical_Name>
4-chloro-N-(1,1-dioxo-2,3-dihydro-1lambda6-thiophen-3-yl)-N-(4-methylphenyl)-3-nitrobenzamide

> <CAS>
301675-78-5

> <PriceCoeff>
1.00

> <MW>
406.84

> <Description>
solid

> <FSP3>
0.17

> <clogP>
2.09

> <TPSA>
105.97

> <Acceptor>
5

> <Donor>
0

> <RotBonds>
5

> <HAC>
27

> <Collection>
General

$$$$
F1359-2178
  -ISIS-  06222321142D

 31 34  0  0  0  0  0  0  0  0999 V2000
   -1.1625    2.3833    0.0000 C   0  0  0  0  0  0  0  0  0  0  0  0
   -0.3375    2.3750    0.0000 N   0  0  0  0  0  0  0  0  0  0  0  0
    2.5542    1.6500    0.0000 N   0  0  3  0  0  0  0  0  0  0  0  0
   -1.6458    1.7208    0.0000 N   0  0  3  0  0  0  0  0  0  0  0  0
   -1.6458    3.0500    0.0000 S   0  0  0  0  0  0  0  0  0  0  0  0
    0.0750    3.0875    0.0000 C   0  0  0  0  0  0  0  0  0  0  0  0
    2.1292    2.3708    0.0000 C   0  0  0  0  0  0  0  0  0  0  0  0
   -2.4333    1.9708    0.0000 C   0  0  0  0  0  0  0  0  0  0  0  0
    3.3667    1.5333    0.0000 C   0  0  0  0  0  0  0  0  0  0  0  0
    2.1750    0.9125    0.0000 C   0  0  0  0  0  0  0  0  0  0  0  0
   -2.4333    2.7958    0.0000 C   0  0  0  0  0  0  0  0  0  0  0  0
    1.3125    2.3750    0.0000 C   0  0  0  0  0  0  0  0  0  0  0  0
    0.9000    3.0875    0.0000 C   0  0  0  0  0  0  0  0  0  0  0  0
   -0.3375    3.8000    0.0000 O   0  0  0  0  0  0  0  0  0  0  0  0
    3.5042    0.7125    0.0000 C   0  0  0  0  0  0  0  0  0  0  0  0
    2.7792    0.3250    0.0000 C   0  0  0  0  0  0  0  0  0  0  0  0
    3.9500    2.1083    0.0000 O   0  0  0  0  0  0  0  0  0  0  0  0
    1.3667    0.7833    0.0000 O   0  0  0  0  0  0  0  0  0  0  0  0
   -1.3958    0.9333    0.0000 C   0  0  0  0  0  0  0  0  0  0  0  0
    2.5542    3.0833    0.0000 C   0  0  0  0  0  0  0  0  0  0  0  0
   -3.1458    1.5583    0.0000 C   0  0  0  0  0  0  0  0  0  0  0  0
   -3.1458    3.2083    0.0000 C   0  0  0  0  0  0  0  0  0  0  0  0
    1.3167    3.8083    0.0000 C   0  0  0  0  0  0  0  0  0  0  0  0
    2.1417    3.8000    0.0000 C   0  0  0  0  0  0  0  0  0  0  0  0
   -2.7458    0.4875    0.0000 O   0  0  0  0  0  0  0  0  0  0  0  0
   -1.9458    0.3208    0.0000 C   0  0  0  0  0  0  0  0  0  0  0  0
   -3.3125   -0.1167    0.0000 C   0  0  0  0  0  0  0  0  0  0  0  0
   -3.8583    1.9708    0.0000 C   0  0  0  0  0  0  0  0  0  0  0  0
   -3.8583    2.7958    0.0000 C   0  0  0  0  0  0  0  0  0  0  0  0
   -4.1208    0.0583    0.0000 C   0  0  0  0  0  0  0  0  0  0  0  0
   -4.5833    3.2125    0.0000 H   0  0  0  0  0  0  0  0  0  0  0  0
  2  1  2  0  0  0  0
  3  7  1  0  0  0  0
  4  1  1  0  0  0  0
  5  1  1  0  0  0  0
  6  2  1  0  0  0  0
  7 12  1  0  0  0  0
  8  4  1  0  0  0  0
  9  3  1  0  0  0  0
 10  3  1  0  0  0  0
 11  5  1  0  0  0  0
 12 13  2  0  0  0  0
 13  6  1  0  0  0  0
 14  6  2  0  0  0  0
 15  9  1  0  0  0  0
 16 10  1  0  0  0  0
 17  9  2  0  0  0  0
 18 10  2  0  0  0  0
 19  4  1  0  0  0  0
 20 24  1  0  0  0  0
 21  8  1  0  0  0  0
 22 11  1  0  0  0  0
 23 13  1  0  0  0  0
 24 23  2  0  0  0  0
 25 26  1  0  0  0  0
 26 19  1  0  0  0  0
 27 25  1  0  0  0  0
 28 21  2  0  0  0  0
 29 22  2  0  0  0  0
 30 27  1  0  0  0  0
 31 29  1  0  0  0  0
  8 11  2  0  0  0  0
 28 29  1  0  0  0  0
  7 20  2  0  0  0  0
 15 16  1  0  0  0  0
M  END
> <IDNUMBER>
F1359-2178

> <Chemical_Name>
3-(2,5-dioxopyrrolidin-1-yl)-N-[(2Z)-3-(2-ethoxyethyl)-2,3-dihydro-1,3-benzothiazol-2-ylidene]benzamide

> <CAS>
897616-31-8

> <PriceCoeff>
1.00

> <MW>
423.48

> <Description>
solid

> <FSP3>
0.27

> <clogP>
3.01

> <TPSA>
104.58

> <Acceptor>
4

> <Donor>
0

> <RotBonds>
7

> <HAC>
30

> <Collection>
General

$$$$
F1814-1626
  -ISIS-  06222321442D

 29 32  0  0  0  0  0  0  0  0999 V2000
   -4.5625    2.6208    0.0000 C   0  0  0  0  0  0  0  0  0  0  0  0
   -3.8625    3.0083    0.0000 N   0  0  0  0  0  0  0  0  0  0  0  0
   -4.6458    1.7833    0.0000 N   0  0  3  0  0  0  0  0  0  0  0  0
   -1.0083    5.4292    0.0000 N   0  0  3  0  0  0  0  0  0  0  0  0
   -5.3208    2.9583    0.0000 S   0  0  0  0  0  0  0  0  0  0  0  0
   -5.4708    1.6125    0.0000 C   0  0  0  0  0  0  0  0  0  0  0  0
   -5.8833    2.3333    0.0000 C   0  0  0  0  0  0  0  0  0  0  0  0
   -3.8708    3.8000    0.0000 C   0  0  0  0  0  0  0  0  0  0  0  0
   -5.8958    0.8875    0.0000 C   0  0  0  0  0  0  0  0  0  0  0  0
   -0.9583    6.2542    0.0000 C   0  0  0  0  0  0  0  0  0  0  0  0
   -0.2500    5.1292    0.0000 C   0  0  0  0  0  0  0  0  0  0  0  0
   -6.7167    2.3458    0.0000 C   0  0  0  0  0  0  0  0  0  0  0  0
   -6.7167    0.8958    0.0000 C   0  0  0  0  0  0  0  0  0  0  0  0
   -1.7250    5.0250    0.0000 C   0  0  0  0  0  0  0  0  0  0  0  0
   -3.1583    4.2042    0.0000 C   0  0  0  0  0  0  0  0  0  0  0  0
   -7.1292    1.6208    0.0000 C   0  0  0  0  0  0  0  0  0  0  0  0
   -4.5583    4.2000    0.0000 O   0  0  0  0  0  0  0  0  0  0  0  0
   -0.1500    6.4542    0.0000 C   0  0  0  0  0  0  0  0  0  0  0  0
    0.2750    5.7625    0.0000 C   0  0  0  0  0  0  0  0  0  0  0  0
   -1.5958    6.8042    0.0000 O   0  0  0  0  0  0  0  0  0  0  0  0
   -0.0458    4.3292    0.0000 O   0  0  0  0  0  0  0  0  0  0  0  0
   -2.4458    5.4417    0.0000 C   0  0  0  0  0  0  0  0  0  0  0  0
   -1.7375    4.2042    0.0000 C   0  0  0  0  0  0  0  0  0  0  0  0
   -2.4500    3.8083    0.0000 C   0  0  0  0  0  0  0  0  0  0  0  0
   -3.1583    5.0292    0.0000 C   0  0  0  0  0  0  0  0  0  0  0  0
   -5.4833    0.1833    0.0000 F   0  0  0  0  0  0  0  0  0  0  0  0
   -4.0833    1.2375    0.0000 C   0  0  0  0  0  0  0  0  0  0  0  0
   -7.9167    1.6208    0.0000 F   0  0  0  0  0  0  0  0  0  0  0  0
   -4.2458    0.4375    0.0000 C   0  0  0  0  0  0  0  0  0  0  0  0
  2  1  2  0  0  0  0
  3  1  1  0  0  0  0
  4 14  1  0  0  0  0
  5  1  1  0  0  0  0
  6  3  1  0  0  0  0
  7  5  1  0  0  0  0
  8  2  1  0  0  0  0
  9  6  1  0  0  0  0
 10  4  1  0  0  0  0
 11  4  1  0  0  0  0
 12  7  1  0  0  0  0
 13  9  2  0  0  0  0
 14 22  1  0  0  0  0
 15  8  1  0  0  0  0
 16 12  2  0  0  0  0
 17  8  2  0  0  0  0
 18 10  1  0  0  0  0
 19 11  1  0  0  0  0
 20 10  2  0  0  0  0
 21 11  2  0  0  0  0
 22 25  2  0  0  0  0
 23 24  1  0  0  0  0
 24 15  2  0  0  0  0
 25 15  1  0  0  0  0
 26  9  1  0  0  0  0
 27  3  1  0  0  0  0
 28 16  1  0  0  0  0
 29 27  1  0  0  0  0
  7  6  2  0  0  0  0
 13 16  1  0  0  0  0
 23 14  2  0  0  0  0
 18 19  1  0  0  0  0
M  END
> <IDNUMBER>
F1814-1626

> <Chemical_Name>
4-(2,5-dioxopyrrolidin-1-yl)-N-[(2Z)-3-ethyl-4,6-difluoro-2,3-dihydro-1,3-benzothiazol-2-ylidene]benzamide

> <CAS>
868375-06-8

> <PriceCoeff>
1.00

> <MW>
415.41

> <Description>
solid

> <FSP3>
0.20

> <clogP>
3.76

> <TPSA>
95.35

> <Acceptor>
3

> <Donor>
0

> <RotBonds>
4

> <HAC>
29

> <Collection>
General

$$$$
F0624-0081
  -ISIS-  06222321452D

 25 27  0  0  0  0  0  0  0  0999 V2000
   -1.7375    2.5583    0.0000 N   0  0  3  0  0  0  0  0  0  0  0  0
   -1.7375    1.7333    0.0000 N   0  0  0  0  0  0  0  0  0  0  0  0
   -2.4500    2.9833    0.0000 C   0  0  0  0  0  0  0  0  0  0  0  0
    1.8125    0.5000    0.0000 N   0  3  0  0  0  0  0  0  0  0  0  0
    1.8167    1.3208    0.0000 C   0  0  0  0  0  0  0  0  0  0  0  0
   -2.4500    1.3250    0.0000 N   0  0  0  0  0  0  0  0  0  0  0  0
   -3.1583    2.5583    0.0000 C   0  0  0  0  0  0  0  0  0  0  0  0
    1.1250    1.7458    0.0000 C   0  0  0  0  0  0  0  0  0  0  0  0
   -1.0208    2.9708    0.0000 C   0  0  0  0  0  0  0  0  0  0  0  0
    0.4042    2.9708    0.0000 C   0  0  0  0  0  0  0  0  0  0  0  0
   -0.3083    2.5583    0.0000 O   0  0  0  0  0  0  0  0  0  0  0  0
   -3.1583    1.7333    0.0000 C   0  0  0  0  0  0  0  0  0  0  0  0
    1.1167    2.5583    0.0000 C   0  0  0  0  0  0  0  0  0  0  0  0
    2.5375    1.7208    0.0000 C   0  0  0  0  0  0  0  0  0  0  0  0
    2.5250    0.0750    0.0000 O   0  5  0  0  0  0  0  0  0  0  0  0
    1.0875    0.1083    0.0000 O   0  0  0  0  0  0  0  0  0  0  0  0
   -2.4500    3.8000    0.0000 O   0  0  0  0  0  0  0  0  0  0  0  0
    0.4042    3.7958    0.0000 O   0  0  0  0  0  0  0  0  0  0  0  0
    1.8417    2.9708    0.0000 C   0  0  0  0  0  0  0  0  0  0  0  0
    2.5417    2.5583    0.0000 C   0  0  0  0  0  0  0  0  0  0  0  0
    3.2500    1.2958    0.0000 Cl  0  0  0  0  0  0  0  0  0  0  0  0
   -3.8708    2.9708    0.0000 C   0  0  0  0  0  0  0  0  0  0  0  0
   -3.8708    1.3250    0.0000 C   0  0  0  0  0  0  0  0  0  0  0  0
   -4.5833    2.5625    0.0000 C   0  0  0  0  0  0  0  0  0  0  0  0
   -4.5833    1.7333    0.0000 C   0  0  0  0  0  0  0  0  0  0  0  0
  2  1  1  0  0  0  0
  3  1  1  0  0  0  0
  4  5  1  0  0  0  0
  5  8  1  0  0  0  0
  6  2  2  0  0  0  0
  7  3  1  0  0  0  0
  8 13  2  0  0  0  0
  9  1  1  0  0  0  0
 10 11  1  0  0  0  0
 11  9  1  0  0  0  0
 12  7  2  0  0  0  0
 13 10  1  0  0  0  0
 14 20  1  0  0  0  0
 15  4  1  0  0  0  0
 16  4  2  0  0  0  0
 17  3  2  0  0  0  0
 18 10  2  0  0  0  0
 19 13  1  0  0  0  0
 20 19  2  0  0  0  0
 21 14  1  0  0  0  0
 22  7  1  0  0  0  0
 23 12  1  0  0  0  0
 24 22  2  0  0  0  0
 25 24  1  0  0  0  0
  6 12  1  0  0  0  0
 23 25  2  0  0  0  0
  5 14  2  0  0  0  0
M  CHG  2   4   1  15  -1
M  END
> <IDNUMBER>
F0624-0081

> <Chemical_Name>
(4-oxo-3,4-dihydro-1,2,3-benzotriazin-3-yl)methyl 4-chloro-3-nitrobenzoate

> <CAS>
851862-94-7

> <PriceCoeff>
1.00

> <MW>
360.71

> <Description>
solid

> <FSP3>
0.07

> <clogP>
2.96

> <TPSA>
114.47

> <Acceptor>
5

> <Donor>
0

> <RotBonds>
5

> <HAC>
25

> <Collection>
General

$$$$
F1175-0217
  -ISIS-  06222321142D

 22 23  0  0  0  0  0  0  0  0999 V2000
    2.2917    9.6875    0.0000 N   0  3  0  0  0  0  0  0  0  0  0  0
    2.3167    8.2917    0.0000 C   0  0  0  0  0  0  0  0  0  0  0  0
    4.7750    5.4667    0.0000 C   0  0  0  0  0  0  0  0  0  0  0  0
    3.5375    7.6042    0.0000 C   0  0  0  0  0  0  0  0  0  0  0  0
    3.5375    6.2042    0.0000 C   0  0  0  0  0  0  0  0  0  0  0  0
    4.7750    4.0750    0.0000 N   0  0  0  0  0  0  0  0  0  0  0  0
    9.7542    1.3833    0.0000 C   0  0  0  0  0  0  0  0  0  0  0  0
    1.1542    7.6500    0.0000 C   0  0  0  0  0  0  0  0  0  0  0  0
    3.4792   10.3917    0.0000 O   0  5  0  0  0  0  0  0  0  0  0  0
    1.0625   10.3292    0.0000 O   0  0  0  0  0  0  0  0  0  0  0  0
    8.4917    1.9958    0.0000 C   0  0  0  0  0  0  0  0  0  0  0  0
    6.0292    6.2042    0.0000 O   0  0  0  0  0  0  0  0  0  0  0  0
   10.9667    2.1958    0.0000 O   0  0  0  0  0  0  0  0  0  0  0  0
    2.3167    5.5042    0.0000 C   0  0  0  0  0  0  0  0  0  0  0  0
    1.1042    6.2042    0.0000 C   0  0  0  0  0  0  0  0  0  0  0  0
    6.0292    3.3958    0.0000 C   0  0  0  0  0  0  0  0  0  0  0  0
    7.2417    1.2208    0.0000 C   0  0  0  0  0  0  0  0  0  0  0  0
    8.4417    3.3958    0.0000 C   0  0  0  0  0  0  0  0  0  0  0  0
    9.7292   -0.0000    0.0000 O   0  0  0  0  0  0  0  0  0  0  0  0
    0.0000    8.4292    0.0000 Cl  0  0  0  0  0  0  0  0  0  0  0  0
    7.2417    4.0750    0.0000 C   0  0  0  0  0  0  0  0  0  0  0  0
    6.0292    1.9208    0.0000 C   0  0  0  0  0  0  0  0  0  0  0  0
  2  1  1  0  0  0  0
  3  5  1  0  0  0  0
  4  2  1  0  0  0  0
  5  4  2  0  0  0  0
  6  3  1  0  0  0  0
  7 11  1  0  0  0  0
  8  2  2  0  0  0  0
  9  1  1  0  0  0  0
 10  1  2  0  0  0  0
 11 17  2  0  0  0  0
 12  3  2  0  0  0  0
 13  7  2  0  0  0  0
 14 15  2  0  0  0  0
 15  8  1  0  0  0  0
 16  6  1  0  0  0  0
 17 22  1  0  0  0  0
 18 21  2  0  0  0  0
 19  7  1  0  0  0  0
 20  8  1  0  0  0  0
 21 16  1  0  0  0  0
 22 16  2  0  0  0  0
  5 14  1  0  0  0  0
 11 18  1  0  0  0  0
M  CHG  2   1   1   9  -1
M  END
> <IDNUMBER>
F1175-0217

> <Chemical_Name>
4-(4-chloro-3-nitrobenzamido)benzoic acid

> <CAS>
313960-76-8

> <PriceCoeff>
1.00

> <MW>
320.68

> <Description>
solid

> <FSP3>
0.00

> <clogP>
3.26

> <TPSA>
109.54

> <Acceptor>
5

> <Donor>
1

> <RotBonds>
4

> <HAC>
22

> <Collection>
General

$$$$
F1816-0723
  -ISIS-  06222321142D

 29 32  0  0  0  0  0  0  0  0999 V2000
   -4.5958    2.5583    0.0000 C   0  0  0  0  0  0  0  0  0  0  0  0
   -3.8625    2.9833    0.0000 N   0  0  0  0  0  0  0  0  0  0  0  0
   -1.0083    3.7958    0.0000 N   0  0  3  0  0  0  0  0  0  0  0  0
   -4.6875    1.7333    0.0000 N   0  0  3  0  0  0  0  0  0  0  0  0
   -5.3208    2.9000    0.0000 S   0  0  0  0  0  0  0  0  0  0  0  0
   -3.8708    3.8000    0.0000 C   0  0  0  0  0  0  0  0  0  0  0  0
   -5.4958    1.5833    0.0000 C   0  0  0  0  0  0  0  0  0  0  0  0
   -5.8958    2.3083    0.0000 C   0  0  0  0  0  0  0  0  0  0  0  0
   -1.7208    4.2125    0.0000 C   0  0  0  0  0  0  0  0  0  0  0  0
   -0.9625    2.9708    0.0000 C   0  0  0  0  0  0  0  0  0  0  0  0
   -0.2375    4.0917    0.0000 C   0  0  0  0  0  0  0  0  0  0  0  0
   -2.4375    3.8083    0.0000 C   0  0  0  0  0  0  0  0  0  0  0  0
   -3.1583    4.2125    0.0000 C   0  0  0  0  0  0  0  0  0  0  0  0
   -4.2708    0.3583    0.0000 C   0  0  0  0  0  0  0  0  0  0  0  0
   -4.4583   -0.4542    0.0000 C   0  0  0  0  0  0  0  0  0  0  0  0
   -4.5833    4.2125    0.0000 O   0  0  0  0  0  0  0  0  0  0  0  0
    0.2917    3.4708    0.0000 C   0  0  0  0  0  0  0  0  0  0  0  0
   -0.1458    2.7708    0.0000 C   0  0  0  0  0  0  0  0  0  0  0  0
   -0.0208    4.8875    0.0000 O   0  0  0  0  0  0  0  0  0  0  0  0
   -1.5958    2.4583    0.0000 O   0  0  0  0  0  0  0  0  0  0  0  0
   -5.9250    0.8833    0.0000 C   0  0  0  0  0  0  0  0  0  0  0  0
   -4.0833    1.1625    0.0000 C   0  0  0  0  0  0  0  0  0  0  0  0
   -6.7125    2.3333    0.0000 C   0  0  0  0  0  0  0  0  0  0  0  0
   -1.7125    5.0292    0.0000 C   0  0  0  0  0  0  0  0  0  0  0  0
   -3.1500    5.0417    0.0000 C   0  0  0  0  0  0  0  0  0  0  0  0
   -2.4333    5.4542    0.0000 C   0  0  0  0  0  0  0  0  0  0  0  0
   -7.1417    1.6250    0.0000 C   0  0  0  0  0  0  0  0  0  0  0  0
   -6.7292    0.8958    0.0000 C   0  0  0  0  0  0  0  0  0  0  0  0
   -5.5333    0.1500    0.0000 C   0  0  0  0  0  0  0  0  0  0  0  0
  2  1  2  0  0  0  0
  3  9  1  0  0  0  0
  4  1  1  0  0  0  0
  5  1  1  0  0  0  0
  6  2  1  0  0  0  0
  7  4  1  0  0  0  0
  8  5  1  0  0  0  0
  9 12  1  0  0  0  0
 10  3  1  0  0  0  0
 11  3  1  0  0  0  0
 12 13  2  0  0  0  0
 13  6  1  0  0  0  0
 14 22  1  0  0  0  0
 15 14  3  0  0  0  0
 16  6  2  0  0  0  0
 17 11  1  0  0  0  0
 18 10  1  0  0  0  0
 19 11  2  0  0  0  0
 20 10  2  0  0  0  0
 21  7  1  0  0  0  0
 22  4  1  0  0  0  0
 23  8  1  0  0  0  0
 24 26  1  0  0  0  0
 25 13  1  0  0  0  0
 26 25  2  0  0  0  0
 27 23  2  0  0  0  0
 28 21  2  0  0  0  0
 29 21  1  0  0  0  0
  7  8  2  0  0  0  0
 27 28  1  0  0  0  0
 24  9  2  0  0  0  0
 17 18  1  0  0  0  0
M  END
> <IDNUMBER>
F1816-0723

> <Chemical_Name>
3-(2,5-dioxopyrrolidin-1-yl)-N-[(2Z)-4-methyl-3-(prop-2-yn-1-yl)-2,3-dihydro-1,3-benzothiazol-2-ylidene]benzamide

> <CAS>
868674-15-1

> <PriceCoeff>
1.00

> <MW>
403.45

> <Description>
solid

> <FSP3>
0.18

> <clogP>
3.55

> <TPSA>
95.35

> <Acceptor>
3

> <Donor>
0

> <RotBonds>
5

> <HAC>
29

> <Collection>
General

$$$$
F3394-0679
  -ISIS-  06222321152D

 37 42  0  0  0  0  0  0  0  0999 V2000
    7.2667    0.4958    0.0000 C   0  0  0  0  0  0  0  0  0  0  0  0
    6.6042    0.9708    0.0000 C   0  0  0  0  0  0  0  0  0  0  0  0
    6.4375   -0.6542    0.0000 N   0  0  3  0  0  0  0  0  0  0  0  0
    5.7667   -0.1667    0.0000 C   0  0  0  0  0  0  0  0  0  0  0  0
    5.8542    0.6458    0.0000 N   0  0  0  0  0  0  0  0  0  0  0  0
    7.2000   -0.3167    0.0000 C   0  0  0  0  0  0  0  0  0  0  0  0
    6.8542    1.7500    0.0000 S   0  0  0  0  0  0  0  0  0  0  0  0
    7.9292    0.9708    0.0000 C   0  0  0  0  0  0  0  0  0  0  0  0
    7.6792    1.7500    0.0000 C   0  0  0  0  0  0  0  0  0  0  0  0
    2.9042   -0.1542    0.0000 N   0  0  3  0  0  0  0  0  0  0  0  0
    3.6375   -0.5792    0.0000 C   0  0  0  0  0  0  0  0  0  0  0  0
    1.4875   -0.1542    0.0000 C   0  0  0  0  0  0  0  0  0  0  0  0
    5.0542   -0.5792    0.0000 S   0  0  0  0  0  0  0  0  0  0  0  0
    2.1917   -0.5667    0.0000 C   0  0  0  0  0  0  0  0  0  0  0  0
    1.4875    0.6500    0.0000 C   0  0  0  0  0  0  0  0  0  0  0  0
    0.7667   -0.5667    0.0000 C   0  0  0  0  0  0  0  0  0  0  0  0
    0.0542   -0.1542    0.0000 C   0  0  0  0  0  0  0  0  0  0  0  0
    0.0542    0.6500    0.0000 C   0  0  0  0  0  0  0  0  0  0  0  0
    6.3542   -1.4667    0.0000 C   0  0  0  0  0  0  0  0  0  0  0  0
    0.7667    1.0708    0.0000 C   0  0  0  0  0  0  0  0  0  0  0  0
    7.8542   -0.8000    0.0000 O   0  0  0  0  0  0  0  0  0  0  0  0
    2.9042    0.6500    0.0000 C   0  0  0  0  0  0  0  0  0  0  0  0
    4.3500   -0.1667    0.0000 C   0  0  0  0  0  0  0  0  0  0  0  0
    3.6292   -1.4042    0.0000 O   0  0  0  0  0  0  0  0  0  0  0  0
    2.1917    1.0708    0.0000 C   0  0  0  0  0  0  0  0  0  0  0  0
    8.7500    0.9708    0.0000 C   0  0  0  0  0  0  0  0  0  0  0  0
    8.3500    2.2458    0.0000 C   0  0  0  0  0  0  0  0  0  0  0  0
   -0.6500   -0.5792    0.0000 O   0  0  0  0  0  0  0  0  0  0  0  0
   -0.6500    1.0708    0.0000 O   0  0  0  0  0  0  0  0  0  0  0  0
    9.0042    1.7500    0.0000 C   0  0  0  0  0  0  0  0  0  0  0  0
    5.6042   -1.8000    0.0000 C   0  0  0  0  0  0  0  0  0  0  0  0
    7.0167   -1.9500    0.0000 C   0  0  0  0  0  0  0  0  0  0  0  0
   -1.3833   -0.1667    0.0000 C   0  0  0  0  0  0  0  0  0  0  0  0
   -1.3708    0.6500    0.0000 C   0  0  0  0  0  0  0  0  0  0  0  0
    6.9375   -2.7542    0.0000 C   0  0  0  0  0  0  0  0  0  0  0  0
    5.5167   -2.6167    0.0000 C   0  0  0  0  0  0  0  0  0  0  0  0
    6.1875   -3.1000    0.0000 C   0  0  0  0  0  0  0  0  0  0  0  0
  2  1  2  0  0  0  0
  3  6  1  0  0  0  0
  4  3  1  0  0  0  0
  5  2  1  0  0  0  0
  6  1  1  0  0  0  0
  7  2  1  0  0  0  0
  8  1  1  0  0  0  0
  9  8  2  0  0  0  0
 10 11  1  0  0  0  0
 11 23  1  0  0  0  0
 12 14  1  0  0  0  0
 13  4  1  0  0  0  0
 14 10  1  0  0  0  0
 15 25  1  0  0  0  0
 16 12  2  0  0  0  0
 17 16  1  0  0  0  0
 18 20  1  0  0  0  0
 19  3  1  0  0  0  0
 20 15  2  0  0  0  0
 21  6  2  0  0  0  0
 22 10  1  0  0  0  0
 23 13  1  0  0  0  0
 24 11  2  0  0  0  0
 25 22  1  0  0  0  0
 26  8  1  0  0  0  0
 27  9  1  0  0  0  0
 28 17  1  0  0  0  0
 29 18  1  0  0  0  0
 30 26  1  0  0  0  0
 31 19  2  0  0  0  0
 32 19  1  0  0  0  0
 33 28  1  0  0  0  0
 34 29  1  0  0  0  0
 35 32  2  0  0  0  0
 36 31  1  0  0  0  0
 37 35  1  0  0  0  0
  7  9  1  0  0  0  0
  4  5  2  0  0  0  0
 27 30  1  0  0  0  0
 37 36  2  0  0  0  0
 12 15  1  0  0  0  0
 17 18  2  0  0  0  0
M  END
> <IDNUMBER>
F3394-0679

> <Chemical_Name>
10-{[2-(6,7-dimethoxy-1,2,3,4-tetrahydroisoquinolin-2-yl)-2-oxoethyl]sulfanyl}-11-phenyl-7-thia-9,11-diazatricyclo[6.4.0.0^{2,6}]dodeca-1(8),2(6),9-trien-12-one

> <CAS>
700860-22-6

> <PriceCoeff>
1.00

> <MW>
533.66

> <Description>
solid

> <FSP3>
0.32

> <clogP>
4.80

> <TPSA>
124.98

> <Acceptor>
5

> <Donor>
0

> <RotBonds>
7

> <HAC>
37

> <Collection>
General

> <Reference_compound>
CHEMBL577016

> <Similarity>
0.8220

$$$$
F5526-0150
  -ISIS-  06222321152D

 23 24  0  0  0  0  0  0  0  0999 V2000
   -2.6875    4.1542    0.0000 N   0  3  0  0  0  0  0  0  0  0  0  0
   -2.0333    4.5292    0.0000 C   0  0  0  0  0  0  0  0  0  0  0  0
   -2.0333    5.2792    0.0000 C   0  0  0  0  0  0  0  0  0  0  0  0
   -1.3833    6.4042    0.0000 C   0  0  0  0  0  0  0  0  0  0  0  0
   -1.3833    5.6542    0.0000 C   0  0  0  0  0  0  0  0  0  0  0  0
   -1.3833    4.1542    0.0000 C   0  0  0  0  0  0  0  0  0  0  0  0
   -3.3375    4.5292    0.0000 O   0  5  0  0  0  0  0  0  0  0  0  0
   -2.6875    3.4083    0.0000 O   0  0  0  0  0  0  0  0  0  0  0  0
   -0.7375    6.7792    0.0000 O   0  0  0  0  0  0  0  0  0  0  0  0
   -0.7375    5.2792    0.0000 C   0  0  0  0  0  0  0  0  0  0  0  0
   -0.7375    4.5292    0.0000 C   0  0  0  0  0  0  0  0  0  0  0  0
   -2.0333    6.7792    0.0000 N   0  0  0  0  0  0  0  0  0  0  0  0
   -1.3750    3.4208    0.0000 Cl  0  0  0  0  0  0  0  0  0  0  0  0
   -5.9333    7.5417    0.0000 C   0  0  0  0  0  0  0  0  0  0  0  0
   -4.6458    6.7917    0.0000 C   0  0  0  0  0  0  0  0  0  0  0  0
   -6.5875    7.9167    0.0000 F   0  0  0  0  0  0  0  0  0  0  0  0
   -5.9333    6.7917    0.0000 C   0  0  0  0  0  0  0  0  0  0  0  0
   -5.2875    7.9167    0.0000 C   0  0  0  0  0  0  0  0  0  0  0  0
   -5.2875    6.4167    0.0000 C   0  0  0  0  0  0  0  0  0  0  0  0
   -4.6458    7.5417    0.0000 C   0  0  0  0  0  0  0  0  0  0  0  0
   -3.9833    6.4042    0.0000 O   0  0  0  0  0  0  0  0  0  0  0  0
   -2.6833    6.4042    0.0000 C   0  0  0  0  0  0  0  0  0  0  0  0
   -3.3333    6.7792    0.0000 C   0  0  0  0  0  0  0  0  0  0  0  0
  2  1  1  0  0  0  0
  3  2  1  0  0  0  0
  4  5  1  0  0  0  0
  5  3  2  0  0  0  0
  6  2  2  0  0  0  0
  7  1  1  0  0  0  0
  8  1  2  0  0  0  0
  9  4  2  0  0  0  0
 10 11  2  0  0  0  0
 11  6  1  0  0  0  0
 12  4  1  0  0  0  0
 13  6  1  0  0  0  0
 14 18  2  0  0  0  0
 15 21  1  0  0  0  0
 16 14  1  0  0  0  0
 17 19  2  0  0  0  0
 18 20  1  0  0  0  0
 19 15  1  0  0  0  0
 20 15  2  0  0  0  0
 21 23  1  0  0  0  0
 22 12  1  0  0  0  0
 23 22  1  0  0  0  0
  5 10  1  0  0  0  0
 17 14  1  0  0  0  0
M  CHG  2   1   1   7  -1
M  END
> <IDNUMBER>
F5526-0150

> <Chemical_Name>
4-chloro-N-[2-(4-fluorophenoxy)ethyl]-3-nitrobenzamide

> <CAS>
1105227-99-3

> <PriceCoeff>
1.00

> <MW>
338.72

> <Description>
solid

> <FSP3>
0.13

> <clogP>
3.95

> <TPSA>
81.47

> <Acceptor>
4

> <Donor>
1

> <RotBonds>
6

> <HAC>
23

> <Collection>
General

$$$$
F0611-0624
  -ISIS-  06222321442D

 28 30  0  0  0  0  0  0  0  0999 V2000
    5.4167    3.3708    0.0000 N   0  3  0  0  0  0  0  0  0  0  0  0
    4.7042    3.7833    0.0000 C   0  0  0  0  0  0  0  0  0  0  0  0
   -1.0125    2.1500    0.0000 N   0  0  0  0  0  0  0  0  0  0  0  0
   -0.2958    2.5625    0.0000 C   0  0  0  0  0  0  0  0  0  0  0  0
   -0.2958    3.3958    0.0000 C   0  0  0  0  0  0  0  0  0  0  0  0
   -1.7333    2.5708    0.0000 C   0  0  0  0  0  0  0  0  0  0  0  0
   -1.0125    3.8083    0.0000 C   0  0  0  0  0  0  0  0  0  0  0  0
    3.9917    3.3958    0.0000 C   0  0  0  0  0  0  0  0  0  0  0  0
   -1.7250    3.3958    0.0000 C   0  0  0  0  0  0  0  0  0  0  0  0
    2.5625    3.3833    0.0000 C   0  0  0  0  0  0  0  0  0  0  0  0
    3.2792    3.7958    0.0000 C   0  0  0  0  0  0  0  0  0  0  0  0
   -2.4458    2.1500    0.0000 C   0  0  0  0  0  0  0  0  0  0  0  0
    4.7167    4.6042    0.0000 C   0  0  0  0  0  0  0  0  0  0  0  0
    6.1417    3.7708    0.0000 O   0  5  0  0  0  0  0  0  0  0  0  0
    5.4000    2.5375    0.0000 O   0  0  0  0  0  0  0  0  0  0  0  0
    0.4167    2.1500    0.0000 O   0  0  0  0  0  0  0  0  0  0  0  0
    2.5625    2.5625    0.0000 O   0  0  0  0  0  0  0  0  0  0  0  0
    3.2875    4.6292    0.0000 C   0  0  0  0  0  0  0  0  0  0  0  0
   -2.4458    3.8083    0.0000 C   0  0  0  0  0  0  0  0  0  0  0  0
    3.9917    5.0292    0.0000 C   0  0  0  0  0  0  0  0  0  0  0  0
    1.8500    3.8000    0.0000 N   0  0  0  0  0  0  0  0  0  0  0  0
   -3.1583    2.5625    0.0000 C   0  0  0  0  0  0  0  0  0  0  0  0
    5.4417    5.0125    0.0000 Cl  0  0  0  0  0  0  0  0  0  0  0  0
   -3.1583    3.3958    0.0000 C   0  0  0  0  0  0  0  0  0  0  0  0
    0.4167    3.8000    0.0000 C   0  0  0  0  0  0  0  0  0  0  0  0
    1.1292    3.3958    0.0000 C   0  0  0  0  0  0  0  0  0  0  0  0
   -3.8708    2.1500    0.0000 O   0  0  0  0  0  0  0  0  0  0  0  0
   -4.5833    2.5625    0.0000 C   0  0  0  0  0  0  0  0  0  0  0  0
  2  1  1  0  0  0  0
  3  4  1  0  0  0  0
  4  5  1  0  0  0  0
  5 25  1  0  0  0  0
  6  9  1  0  0  0  0
  7  5  2  0  0  0  0
  8  2  1  0  0  0  0
  9  7  1  0  0  0  0
 10 11  1  0  0  0  0
 11  8  2  0  0  0  0
 12  6  2  0  0  0  0
 13  2  2  0  0  0  0
 14  1  1  0  0  0  0
 15  1  2  0  0  0  0
 16  4  2  0  0  0  0
 17 10  2  0  0  0  0
 18 20  2  0  0  0  0
 19  9  2  0  0  0  0
 20 13  1  0  0  0  0
 21 10  1  0  0  0  0
 22 24  2  0  0  0  0
 23 13  1  0  0  0  0
 24 19  1  0  0  0  0
 25 26  1  0  0  0  0
 26 21  1  0  0  0  0
 27 22  1  0  0  0  0
 28 27  1  0  0  0  0
 18 11  1  0  0  0  0
  3  6  1  0  0  0  0
 22 12  1  0  0  0  0
M  CHG  2   1   1  14  -1
M  END
> <IDNUMBER>
F0611-0624

> <Chemical_Name>
4-chloro-N-[2-(7-methoxy-2-oxo-1,2-dihydroquinolin-3-yl)ethyl]-3-nitrobenzamide

> <CAS>
851406-07-0

> <PriceCoeff>
1.00

> <MW>
401.80

> <Description>
solid

> <FSP3>
0.16

> <clogP>
2.63

> <TPSA>
110.57

> <Acceptor>
5

> <Donor>
2

> <RotBonds>
6

> <HAC>
28

> <Collection>
General

$$$$
F0700-0159
  -ISIS-  06222321452D

 32 36  0  0  0  0  0  0  0  0999 V2000
    0.2875    1.8958    0.0000 C   0  0  0  0  0  0  0  0  0  0  0  0
    3.6000    0.2125    0.0000 N   0  0  3  0  0  0  0  0  0  0  0  0
    0.8792    1.8958    0.0000 C   0  0  0  0  0  0  0  0  0  0  0  0
   -0.0333    1.4125    0.0000 C   0  0  0  0  0  0  0  0  0  0  0  0
    1.7542    2.0625    0.0000 C   0  0  0  0  0  0  0  0  0  0  0  0
    1.2667    2.3125    0.0000 N   0  0  0  0  0  0  0  0  0  0  0  0
    0.0292    2.3958    0.0000 C   0  0  0  0  0  0  0  0  0  0  0  0
    2.2792    2.3125    0.0000 N   0  0  0  0  0  0  0  0  0  0  0  0
   -0.5958    1.4458    0.0000 O   0  0  0  0  0  0  0  0  0  0  0  0
    3.1375    0.5458    0.0000 C   0  0  0  0  0  0  0  0  0  0  0  0
    2.7542    1.9958    0.0000 C   0  0  0  0  0  0  0  0  0  0  0  0
    4.1167    0.4208    0.0000 C   0  0  0  0  0  0  0  0  0  0  0  0
    3.6542   -0.3500    0.0000 C   0  0  0  0  0  0  0  0  0  0  0  0
    1.7042    1.4958    0.0000 S   0  0  0  0  0  0  0  0  0  0  0  0
    1.1500    1.3958    0.0000 C   0  0  0  0  0  0  0  0  0  0  0  0
   -0.5500    2.4208    0.0000 C   0  0  0  0  0  0  0  0  0  0  0  0
   -0.8500    1.9208    0.0000 C   0  0  0  0  0  0  0  0  0  0  0  0
    3.1875    1.1125    0.0000 C   0  0  0  0  0  0  0  0  0  0  0  0
    2.7042    1.4208    0.0000 C   0  0  0  0  0  0  0  0  0  0  0  0
    0.2292    0.9000    0.0000 O   0  0  0  0  0  0  0  0  0  0  0  0
    3.2667    2.2458    0.0000 O   0  0  0  0  0  0  0  0  0  0  0  0
    4.4875   -0.0042    0.0000 C   0  0  0  0  0  0  0  0  0  0  0  0
    4.2042   -0.4792    0.0000 C   0  0  0  0  0  0  0  0  0  0  0  0
    4.2542    0.9833    0.0000 O   0  0  0  0  0  0  0  0  0  0  0  0
    3.2042   -0.7500    0.0000 O   0  0  0  0  0  0  0  0  0  0  0  0
    2.6500    0.3000    0.0000 C   0  0  0  0  0  0  0  0  0  0  0  0
    2.2042    1.1833    0.0000 C   0  0  0  0  0  0  0  0  0  0  0  0
    2.1792    0.6125    0.0000 C   0  0  0  0  0  0  0  0  0  0  0  0
   -0.7958    2.9000    0.0000 C   0  0  0  0  0  0  0  0  0  0  0  0
   -1.4000    1.9625    0.0000 C   0  0  0  0  0  0  0  0  0  0  0  0
   -1.3708    2.9333    0.0000 C   0  0  0  0  0  0  0  0  0  0  0  0
   -1.6958    2.4583    0.0000 C   0  0  0  0  0  0  0  0  0  0  0  0
  2 10  1  0  0  0  0
  3  1  1  0  0  0  0
  4  1  1  0  0  0  0
  5  6  2  0  0  0  0
  6  3  1  0  0  0  0
  7  1  2  0  0  0  0
  8  5  1  0  0  0  0
  9  4  1  0  0  0  0
 10 18  2  0  0  0  0
 11  8  1  0  0  0  0
 12  2  1  0  0  0  0
 13  2  1  0  0  0  0
 14 15  1  0  0  0  0
 15  3  2  0  0  0  0
 16  7  1  0  0  0  0
 17 16  2  0  0  0  0
 18 19  1  0  0  0  0
 19 11  1  0  0  0  0
 20  4  2  0  0  0  0
 21 11  2  0  0  0  0
 22 12  1  0  0  0  0
 23 13  1  0  0  0  0
 24 12  2  0  0  0  0
 25 13  2  0  0  0  0
 26 28  2  0  0  0  0
 27 19  2  0  0  0  0
 28 27  1  0  0  0  0
 29 16  1  0  0  0  0
 30 17  1  0  0  0  0
 31 29  2  0  0  0  0
 32 31  1  0  0  0  0
  9 17  1  0  0  0  0
 14  5  1  0  0  0  0
 32 30  2  0  0  0  0
 26 10  1  0  0  0  0
 23 22  1  0  0  0  0
M  END
> <IDNUMBER>
F0700-0159

> <Chemical_Name>
3-(2,5-dioxopyrrolidin-1-yl)-N-[4-(2-oxo-2H-chromen-3-yl)-1,3-thiazol-2-yl]benzamide

> <CAS>
393837-55-3

> <PriceCoeff>
1.00

> <MW>
445.45

> <Description>
solid

> <FSP3>
0.09

> <clogP>
1.63

> <TPSA>
133.91

> <Acceptor>
6

> <Donor>
1

> <RotBonds>
4

> <HAC>
32

> <Collection>
General

$$$$
F3139-0763
  -ISIS-  06222321462D

 34 37  0  0  0  0  0  0  0  0999 V2000
    3.0750   -0.1750    0.0000 C   0  0  0  0  0  0  0  0  0  0  0  0
    2.3542   -0.5875    0.0000 C   0  0  0  0  0  0  0  0  0  0  0  0
    1.6417   -0.1750    0.0000 C   0  0  0  0  0  0  0  0  0  0  0  0
    3.0750    0.6500    0.0000 C   0  0  0  0  0  0  0  0  0  0  0  0
    1.6417    0.6500    0.0000 C   0  0  0  0  0  0  0  0  0  0  0  0
   -0.5083    1.8958    0.0000 C   0  0  0  0  0  0  0  0  0  0  0  0
    2.3542    1.0625    0.0000 O   0  0  0  0  0  0  0  0  0  0  0  0
    3.7875   -0.5875    0.0000 C   0  0  0  0  0  0  0  0  0  0  0  0
   -1.2208    2.3000    0.0000 C   0  0  0  0  0  0  0  0  0  0  0  0
   -2.6458    3.1333    0.0000 C   0  0  0  0  0  0  0  0  0  0  0  0
   -1.9333    3.5458    0.0000 C   0  0  0  0  0  0  0  0  0  0  0  0
   -2.6458    2.3000    0.0000 C   0  0  0  0  0  0  0  0  0  0  0  0
   -1.2208    3.1333    0.0000 C   0  0  0  0  0  0  0  0  0  0  0  0
   -1.9333    1.8958    0.0000 C   0  0  0  0  0  0  0  0  0  0  0  0
    0.9292    1.0625    0.0000 C   0  0  0  0  0  0  0  0  0  0  0  0
   -0.5083    1.0625    0.0000 O   0  0  0  0  0  0  0  0  0  0  0  0
    0.9292   -0.5875    0.0000 C   0  0  0  0  0  0  0  0  0  0  0  0
    0.2167    0.6500    0.0000 C   0  0  0  0  0  0  0  0  0  0  0  0
    2.3542   -1.4125    0.0000 O   0  0  0  0  0  0  0  0  0  0  0  0
    0.2042    2.3083    0.0000 O   0  0  0  0  0  0  0  0  0  0  0  0
    3.7875   -1.4167    0.0000 C   0  0  0  0  0  0  0  0  0  0  0  0
    0.2167   -0.1750    0.0000 C   0  0  0  0  0  0  0  0  0  0  0  0
   -3.3625    3.5458    0.0000 O   0  0  0  0  0  0  0  0  0  0  0  0
   -1.9333    4.3667    0.0000 O   0  0  0  0  0  0  0  0  0  0  0  0
   -3.3583    1.8833    0.0000 O   0  0  0  0  0  0  0  0  0  0  0  0
    3.0792   -1.8250    0.0000 O   0  0  0  0  0  0  0  0  0  0  0  0
    4.5042   -0.1750    0.0000 C   0  0  0  0  0  0  0  0  0  0  0  0
    4.5000   -1.8292    0.0000 C   0  0  0  0  0  0  0  0  0  0  0  0
   -4.0833    3.1250    0.0000 C   0  0  0  0  0  0  0  0  0  0  0  0
   -3.3583    1.0583    0.0000 C   0  0  0  0  0  0  0  0  0  0  0  0
   -2.6458    4.7792    0.0000 C   0  0  0  0  0  0  0  0  0  0  0  0
    3.0750   -2.6500    0.0000 C   0  0  0  0  0  0  0  0  0  0  0  0
    5.2167   -0.5875    0.0000 C   0  0  0  0  0  0  0  0  0  0  0  0
    5.2167   -1.4167    0.0000 C   0  0  0  0  0  0  0  0  0  0  0  0
  2  1  1  0  0  0  0
  3  2  1  0  0  0  0
  4  1  2  0  0  0  0
  5  7  1  0  0  0  0
  6 16  1  0  0  0  0
  7  4  1  0  0  0  0
  8  1  1  0  0  0  0
  9  6  1  0  0  0  0
 10 12  1  0  0  0  0
 11 13  1  0  0  0  0
 12 14  2  0  0  0  0
 13  9  2  0  0  0  0
 14  9  1  0  0  0  0
 15  5  2  0  0  0  0
 16 18  1  0  0  0  0
 17  3  2  0  0  0  0
 18 15  1  0  0  0  0
 19  2  2  0  0  0  0
 20  6  2  0  0  0  0
 21  8  2  0  0  0  0
 22 17  1  0  0  0  0
 23 10  1  0  0  0  0
 24 11  1  0  0  0  0
 25 12  1  0  0  0  0
 26 21  1  0  0  0  0
 27  8  1  0  0  0  0
 28 21  1  0  0  0  0
 29 23  1  0  0  0  0
 30 25  1  0  0  0  0
 31 24  1  0  0  0  0
 32 26  1  0  0  0  0
 33 27  2  0  0  0  0
 34 33  1  0  0  0  0
  3  5  1  0  0  0  0
 34 28  2  0  0  0  0
 22 18  2  0  0  0  0
 10 11  2  0  0  0  0
M  END
> <IDNUMBER>
F3139-0763

> <Chemical_Name>
3-(2-methoxyphenyl)-4-oxo-4H-chromen-7-yl 3,4,5-trimethoxybenzoate

> <CAS>
315715-17-4

> <PriceCoeff>
1.00

> <MW>
462.45

> <Description>
solid

> <FSP3>
0.15

> <clogP>
3.52

> <TPSA>
89.52

> <Acceptor>
8

> <Donor>
0

> <RotBonds>
8

> <HAC>
34

> <Collection>
General

> <Reference_compound>
CHEMBL455048

> <Similarity>
0.8400

$$$$
F1366-1296
  -ISIS-  06222321142D

 29 31  0  0  0  0  0  0  0  0999 V2000
   -1.1625    2.3833    0.0000 C   0  0  0  0  0  0  0  0  0  0  0  0
   -1.6458    1.7208    0.0000 N   0  0  3  0  0  0  0  0  0  0  0  0
    1.3000    3.7958    0.0000 N   0  0  3  0  0  0  0  0  0  0  0  0
   -4.5625    3.2083    0.0000 S   0  0  3  0  0  0  0  0  0  0  0  0
   -0.3375    2.3750    0.0000 N   0  0  0  0  0  0  0  0  0  0  0  0
   -1.6458    3.0500    0.0000 S   0  0  0  0  0  0  0  0  0  0  0  0
   -2.4333    2.7958    0.0000 C   0  0  0  0  0  0  0  0  0  0  0  0
   -2.4333    1.9708    0.0000 C   0  0  0  0  0  0  0  0  0  0  0  0
    2.1042    3.8708    0.0000 C   0  0  0  0  0  0  0  0  0  0  0  0
    0.9625    4.5292    0.0000 C   0  0  0  0  0  0  0  0  0  0  0  0
    0.0750    3.0875    0.0000 C   0  0  0  0  0  0  0  0  0  0  0  0
   -3.8583    2.7958    0.0000 C   0  0  0  0  0  0  0  0  0  0  0  0
   -3.1458    3.2083    0.0000 C   0  0  0  0  0  0  0  0  0  0  0  0
    0.8875    3.0875    0.0000 C   0  0  0  0  0  0  0  0  0  0  0  0
   -1.7625    0.9083    0.0000 C   0  0  0  0  0  0  0  0  0  0  0  0
   -3.1458    1.5583    0.0000 C   0  0  0  0  0  0  0  0  0  0  0  0
   -4.1333    3.8833    0.0000 O   0  0  0  0  0  0  0  0  0  0  0  0
   -5.0083    2.5083    0.0000 O   0  0  0  0  0  0  0  0  0  0  0  0
   -2.5208    0.6083    0.0000 C   0  0  0  0  0  0  0  0  0  0  0  0
   -5.2583    3.6333    0.0000 N   0  0  0  0  0  0  0  0  0  0  0  0
   -3.8583    1.9708    0.0000 C   0  0  0  0  0  0  0  0  0  0  0  0
    1.5625    5.0750    0.0000 C   0  0  0  0  0  0  0  0  0  0  0  0
    2.2750    4.6667    0.0000 C   0  0  0  0  0  0  0  0  0  0  0  0
    0.1667    4.7042    0.0000 O   0  0  0  0  0  0  0  0  0  0  0  0
    2.6417    3.2708    0.0000 O   0  0  0  0  0  0  0  0  0  0  0  0
   -0.3375    3.8000    0.0000 O   0  0  0  0  0  0  0  0  0  0  0  0
   -2.6333   -0.2000    0.0000 O   0  0  0  0  0  0  0  0  0  0  0  0
   -3.1583    1.1083    0.0000 O   0  0  0  0  0  0  0  0  0  0  0  0
   -3.9125    0.8083    0.0000 C   0  0  0  0  0  0  0  0  0  0  0  0
  2  1  1  0  0  0  0
  3 14  1  0  0  0  0
  4 12  1  0  0  0  0
  5  1  2  0  0  0  0
  6  1  1  0  0  0  0
  7  6  1  0  0  0  0
  8  2  1  0  0  0  0
  9  3  1  0  0  0  0
 10  3  1  0  0  0  0
 11  5  1  0  0  0  0
 12 13  2  0  0  0  0
 13  7  1  0  0  0  0
 14 11  1  0  0  0  0
 15  2  1  0  0  0  0
 16  8  1  0  0  0  0
 17  4  2  0  0  0  0
 18  4  2  0  0  0  0
 19 15  1  0  0  0  0
 20  4  1  0  0  0  0
 21 16  2  0  0  0  0
 22 10  1  0  0  0  0
 23  9  1  0  0  0  0
 24 10  2  0  0  0  0
 25  9  2  0  0  0  0
 26 11  2  0  0  0  0
 27 19  2  0  0  0  0
 28 19  1  0  0  0  0
 29 28  1  0  0  0  0
  7  8  2  0  0  0  0
 12 21  1  0  0  0  0
 22 23  1  0  0  0  0
M  END
> <IDNUMBER>
F1366-1296

> <Chemical_Name>
methyl 2-[(2Z)-2-{[2-(2,5-dioxopyrrolidin-1-yl)acetyl]imino}-6-sulfamoyl-2,3-dihydro-1,3-benzothiazol-3-yl]acetate

> <CAS>
1164507-30-5

> <PriceCoeff>
1.00

> <MW>
440.45

> <Description>
solid

> <FSP3>
0.31

> <clogP>
0.50

> <TPSA>
190.19

> <Acceptor>
7

> <Donor>
1

> <RotBonds>
7

> <HAC>
29

> <Collection>
General

$$$$
F2515-1588
  -ISIS-  06222321462D

 35 40  0  0  0  0  0  0  0  0999 V2000
   -4.5625    2.1500    0.0000 C   0  0  0  0  0  0  0  0  0  0  0  0
   -3.8458    2.5583    0.0000 N   0  0  3  0  0  0  0  0  0  0  0  0
   -4.6583    1.3250    0.0000 N   0  0  0  0  0  0  0  0  0  0  0  0
   -0.9833    3.3833    0.0000 N   0  0  3  0  0  0  0  0  0  0  0  0
   -5.3208    2.4875    0.0000 S   0  0  0  0  0  0  0  0  0  0  0  0
   -3.8458    3.3958    0.0000 C   0  0  0  0  0  0  0  0  0  0  0  0
   -5.4583    1.1583    0.0000 C   0  0  0  0  0  0  0  0  0  0  0  0
   -5.8750    1.8708    0.0000 C   0  0  0  0  0  0  0  0  0  0  0  0
   -1.7000    3.8000    0.0000 C   0  0  0  0  0  0  0  0  0  0  0  0
   -0.2208    3.6875    0.0000 C   0  0  0  0  0  0  0  0  0  0  0  0
   -0.9458    2.5583    0.0000 C   0  0  0  0  0  0  0  0  0  0  0  0
   -3.1333    3.8000    0.0000 C   0  0  0  0  0  0  0  0  0  0  0  0
   -5.8708    0.4458    0.0000 C   0  0  0  0  0  0  0  0  0  0  0  0
   -6.6917    1.8708    0.0000 C   0  0  0  0  0  0  0  0  0  0  0  0
   -7.1042    1.1458    0.0000 C   0  0  0  0  0  0  0  0  0  0  0  0
   -6.6792    0.4458    0.0000 C   0  0  0  0  0  0  0  0  0  0  0  0
   -2.4208    3.3958    0.0000 C   0  0  0  0  0  0  0  0  0  0  0  0
   -3.1333    2.1458    0.0000 C   0  0  0  0  0  0  0  0  0  0  0  0
   -7.9042    0.9750    0.0000 O   0  0  0  0  0  0  0  0  0  0  0  0
   -7.2292   -0.1792    0.0000 O   0  0  0  0  0  0  0  0  0  0  0  0
   -4.5625    3.8000    0.0000 O   0  0  0  0  0  0  0  0  0  0  0  0
   -7.9917    0.1583    0.0000 C   0  0  0  0  0  0  0  0  0  0  0  0
    0.3125    3.0583    0.0000 C   0  0  0  0  0  0  0  0  0  0  0  0
   -0.1208    2.3583    0.0000 C   0  0  0  0  0  0  0  0  0  0  0  0
    0.0000    4.4667    0.0000 O   0  0  0  0  0  0  0  0  0  0  0  0
   -1.5750    2.0375    0.0000 O   0  0  0  0  0  0  0  0  0  0  0  0
   -2.4208    0.0833    0.0000 N   0  0  0  0  0  0  0  0  0  0  0  0
   -3.1333    1.3208    0.0000 C   0  0  0  0  0  0  0  0  0  0  0  0
   -1.6958    4.6167    0.0000 C   0  0  0  0  0  0  0  0  0  0  0  0
   -2.4208    0.9083    0.0000 C   0  0  0  0  0  0  0  0  0  0  0  0
   -3.1250    4.6292    0.0000 C   0  0  0  0  0  0  0  0  0  0  0  0
   -2.4083    5.0292    0.0000 C   0  0  0  0  0  0  0  0  0  0  0  0
   -3.1333   -0.3292    0.0000 C   0  0  0  0  0  0  0  0  0  0  0  0
   -3.8500    0.9083    0.0000 C   0  0  0  0  0  0  0  0  0  0  0  0
   -3.8500    0.0833    0.0000 C   0  0  0  0  0  0  0  0  0  0  0  0
  2  1  1  0  0  0  0
  3  1  2  0  0  0  0
  4  9  1  0  0  0  0
  5  1  1  0  0  0  0
  6  2  1  0  0  0  0
  7  3  1  0  0  0  0
  8  5  1  0  0  0  0
  9 17  1  0  0  0  0
 10  4  1  0  0  0  0
 11  4  1  0  0  0  0
 12  6  1  0  0  0  0
 13  7  1  0  0  0  0
 14  8  1  0  0  0  0
 15 14  2  0  0  0  0
 16 13  2  0  0  0  0
 17 12  2  0  0  0  0
 18  2  1  0  0  0  0
 19 15  1  0  0  0  0
 20 16  1  0  0  0  0
 21  6  2  0  0  0  0
 22 19  1  0  0  0  0
 23 10  1  0  0  0  0
 24 11  1  0  0  0  0
 25 10  2  0  0  0  0
 26 11  2  0  0  0  0
 27 30  2  0  0  0  0
 28 18  1  0  0  0  0
 29 32  1  0  0  0  0
 30 28  1  0  0  0  0
 31 12  1  0  0  0  0
 32 31  2  0  0  0  0
 33 35  2  0  0  0  0
 34 28  2  0  0  0  0
 35 34  1  0  0  0  0
  8  7  2  0  0  0  0
 15 16  1  0  0  0  0
 20 22  1  0  0  0  0
 33 27  1  0  0  0  0
  9 29  2  0  0  0  0
 24 23  1  0  0  0  0
M  END
> <IDNUMBER>
F2515-1588

> <Chemical_Name>
N-{4,6-dioxa-10-thia-12-azatricyclo[7.3.0.0^{3,7}]dodeca-1(9),2,7,11-tetraen-11-yl}-3-(2,5-dioxopyrrolidin-1-yl)-N-[(pyridin-3-yl)methyl]benzamide

> <CAS>
895020-22-1

> <PriceCoeff>
1.00

> <MW>
486.50

> <Description>
solid

> <FSP3>
0.16

> <clogP>
2.36

> <TPSA>
130.17

> <Acceptor>
7

> <Donor>
1

> <RotBonds>
6

> <HAC>
35

> <Collection>
General

$$$$
F1816-0721
  -ISIS-  06222321142D

 30 33  0  0  0  0  0  0  0  0999 V2000
   -4.5958    2.5583    0.0000 C   0  0  0  0  0  0  0  0  0  0  0  0
   -3.8625    2.9833    0.0000 N   0  0  0  0  0  0  0  0  0  0  0  0
   -4.6833    1.7333    0.0000 N   0  0  3  0  0  0  0  0  0  0  0  0
   -1.0083    3.7958    0.0000 N   0  0  3  0  0  0  0  0  0  0  0  0
   -5.3208    2.8958    0.0000 S   0  0  0  0  0  0  0  0  0  0  0  0
   -5.4875    1.5833    0.0000 C   0  0  0  0  0  0  0  0  0  0  0  0
   -5.8958    2.3000    0.0000 C   0  0  0  0  0  0  0  0  0  0  0  0
   -3.8708    3.8000    0.0000 C   0  0  0  0  0  0  0  0  0  0  0  0
   -1.7208    4.2125    0.0000 C   0  0  0  0  0  0  0  0  0  0  0  0
   -0.9625    2.9708    0.0000 C   0  0  0  0  0  0  0  0  0  0  0  0
   -0.2375    4.0917    0.0000 C   0  0  0  0  0  0  0  0  0  0  0  0
   -2.4375    3.8083    0.0000 C   0  0  0  0  0  0  0  0  0  0  0  0
   -3.1583    4.2125    0.0000 C   0  0  0  0  0  0  0  0  0  0  0  0
   -4.2583    0.3583    0.0000 C   0  0  0  0  0  0  0  0  0  0  0  0
   -4.4458   -0.4542    0.0000 C   0  0  0  0  0  0  0  0  0  0  0  0
   -5.9208    0.8833    0.0000 C   0  0  0  0  0  0  0  0  0  0  0  0
   -4.5833    4.2167    0.0000 O   0  0  0  0  0  0  0  0  0  0  0  0
   -0.1458    2.7708    0.0000 C   0  0  0  0  0  0  0  0  0  0  0  0
    0.2917    3.4708    0.0000 C   0  0  0  0  0  0  0  0  0  0  0  0
   -1.5958    2.4583    0.0000 O   0  0  0  0  0  0  0  0  0  0  0  0
   -0.0208    4.8875    0.0000 O   0  0  0  0  0  0  0  0  0  0  0  0
   -4.0708    1.1625    0.0000 C   0  0  0  0  0  0  0  0  0  0  0  0
   -6.7042    2.3208    0.0000 C   0  0  0  0  0  0  0  0  0  0  0  0
   -1.7125    5.0292    0.0000 C   0  0  0  0  0  0  0  0  0  0  0  0
   -5.5208    0.1458    0.0000 O   0  0  0  0  0  0  0  0  0  0  0  0
   -3.1500    5.0417    0.0000 C   0  0  0  0  0  0  0  0  0  0  0  0
   -2.4333    5.4542    0.0000 C   0  0  0  0  0  0  0  0  0  0  0  0
   -7.1417    1.6208    0.0000 C   0  0  0  0  0  0  0  0  0  0  0  0
   -6.7292    0.8875    0.0000 C   0  0  0  0  0  0  0  0  0  0  0  0
   -5.9583   -0.5542    0.0000 C   0  0  0  0  0  0  0  0  0  0  0  0
  2  1  2  0  0  0  0
  3  1  1  0  0  0  0
  4  9  1  0  0  0  0
  5  1  1  0  0  0  0
  6  3  1  0  0  0  0
  7  5  1  0  0  0  0
  8  2  1  0  0  0  0
  9 12  1  0  0  0  0
 10  4  1  0  0  0  0
 11  4  1  0  0  0  0
 12 13  2  0  0  0  0
 13  8  1  0  0  0  0
 14 22  1  0  0  0  0
 15 14  3  0  0  0  0
 16  6  1  0  0  0  0
 17  8  2  0  0  0  0
 18 10  1  0  0  0  0
 19 11  1  0  0  0  0
 20 10  2  0  0  0  0
 21 11  2  0  0  0  0
 22  3  1  0  0  0  0
 23  7  1  0  0  0  0
 24 27  1  0  0  0  0
 25 16  1  0  0  0  0
 26 13  1  0  0  0  0
 27 26  2  0  0  0  0
 28 23  2  0  0  0  0
 29 16  2  0  0  0  0
 30 25  1  0  0  0  0
  6  7  2  0  0  0  0
 28 29  1  0  0  0  0
 24  9  2  0  0  0  0
 19 18  1  0  0  0  0
M  END
> <IDNUMBER>
F1816-0721

> <Chemical_Name>
3-(2,5-dioxopyrrolidin-1-yl)-N-[(2Z)-4-methoxy-3-(prop-2-yn-1-yl)-2,3-dihydro-1,3-benzothiazol-2-ylidene]benzamide

> <CAS>
868674-13-9

> <PriceCoeff>
1.00

> <MW>
419.45

> <Description>
solid

> <FSP3>
0.18

> <clogP>
2.97

> <TPSA>
104.58

> <Acceptor>
4

> <Donor>
0

> <RotBonds>
6

> <HAC>
30

> <Collection>
General

$$$$
F2843-0261
  -ISIS-  06222321152D

 26 28  0  0  0  0  0  0  0  0999 V2000
    2.8042   -0.4292    0.0000 N   0  0  3  0  0  0  0  0  0  0  0  0
    3.5167   -0.0167    0.0000 C   0  0  0  0  0  0  0  0  0  0  0  0
    2.0875   -0.0167    0.0000 C   0  0  0  0  0  0  0  0  0  0  0  0
    3.5167    0.8208    0.0000 C   0  0  0  0  0  0  0  0  0  0  0  0
    1.3667   -0.4375    0.0000 N   0  0  3  0  0  0  0  0  0  0  0  0
    2.8125   -1.2542    0.0000 C   0  0  0  0  0  0  0  0  0  0  0  0
    4.2375   -0.4167    0.0000 O   0  0  0  0  0  0  0  0  0  0  0  0
    2.0792    0.7208    0.0000 O   0  0  0  0  0  0  0  0  0  0  0  0
    2.8000    1.2333    0.0000 C   0  0  0  0  0  0  0  0  0  0  0  0
    4.2292    1.2333    0.0000 C   0  0  0  0  0  0  0  0  0  0  0  0
    2.1042   -1.6667    0.0000 C   0  0  0  0  0  0  0  0  0  0  0  0
    3.5292   -1.6667    0.0000 C   0  0  0  0  0  0  0  0  0  0  0  0
    2.8250   -2.9042    0.0000 C   0  0  0  0  0  0  0  0  0  0  0  0
    4.9500    0.8208    0.0000 F   0  0  0  0  0  0  0  0  0  0  0  0
    1.6792    1.2500    0.0000 F   0  0  0  0  0  0  0  0  0  0  0  0
    3.5375   -2.4875    0.0000 C   0  0  0  0  0  0  0  0  0  0  0  0
    2.1042   -2.4917    0.0000 C   0  0  0  0  0  0  0  0  0  0  0  0
    2.8292   -3.7292    0.0000 Cl  0  0  0  0  0  0  0  0  0  0  0  0
    0.6500   -0.0250    0.0000 C   0  0  0  0  0  0  0  0  0  0  0  0
    1.3667   -1.2667    0.0000 C   0  0  0  0  0  0  0  0  0  0  0  0
    3.5042    2.4625    0.0000 C   0  0  0  0  0  0  0  0  0  0  0  0
    2.7875    2.0458    0.0000 C   0  0  0  0  0  0  0  0  0  0  0  0
    4.2292    2.0583    0.0000 C   0  0  0  0  0  0  0  0  0  0  0  0
    0.6500   -1.6792    0.0000 C   0  0  0  0  0  0  0  0  0  0  0  0
   -0.0625   -0.4375    0.0000 C   0  0  0  0  0  0  0  0  0  0  0  0
   -0.0625   -1.2667    0.0000 C   0  0  0  0  0  0  0  0  0  0  0  0
  2  1  1  0  0  0  0
  3  1  1  0  0  0  0
  4  2  1  0  0  0  0
  5  3  1  0  0  0  0
  6  1  1  0  0  0  0
  7  2  2  0  0  0  0
  8  3  2  0  0  0  0
  9  4  2  0  0  0  0
 10  4  1  0  0  0  0
 11  6  1  0  0  0  0
 12  6  2  0  0  0  0
 13 16  2  0  0  0  0
 14 10  1  0  0  0  0
 15  9  1  0  0  0  0
 16 12  1  0  0  0  0
 17 11  2  0  0  0  0
 18 13  1  0  0  0  0
 19  5  1  0  0  0  0
 20  5  1  0  0  0  0
 21 23  1  0  0  0  0
 22  9  1  0  0  0  0
 23 10  2  0  0  0  0
 24 20  1  0  0  0  0
 25 19  1  0  0  0  0
 26 24  1  0  0  0  0
 13 17  1  0  0  0  0
 21 22  2  0  0  0  0
 26 25  1  0  0  0  0
M  END
> <IDNUMBER>
F2843-0261

> <Chemical_Name>
N-(4-chlorophenyl)-N-(2,6-difluorobenzoyl)piperidine-1-carboxamide

> <CAS>
923145-89-5

> <PriceCoeff>
1.00

> <MW>
378.80

> <Description>
solid

> <FSP3>
0.26

> <clogP>
4.56

> <TPSA>
40.62

> <Acceptor>
2

> <Donor>
0

> <RotBonds>
5

> <HAC>
26

> <Collection>
General

> <Reference_compound>
CHEMBL2287669

> <Similarity>
0.8330

$$$$
F2843-0337
  -ISIS-  06222321152D

 26 28  0  0  0  0  0  0  0  0999 V2000
    2.8042   -0.8417    0.0000 N   0  0  3  0  0  0  0  0  0  0  0  0
    3.5167   -0.4250    0.0000 C   0  0  0  0  0  0  0  0  0  0  0  0
    2.0875   -0.4292    0.0000 C   0  0  0  0  0  0  0  0  0  0  0  0
    3.5167    0.4125    0.0000 C   0  0  0  0  0  0  0  0  0  0  0  0
    2.8125   -1.6667    0.0000 C   0  0  0  0  0  0  0  0  0  0  0  0
    1.3667   -0.8417    0.0000 N   0  0  3  0  0  0  0  0  0  0  0  0
    2.1042   -2.0750    0.0000 C   0  0  0  0  0  0  0  0  0  0  0  0
    4.2375   -0.8292    0.0000 O   0  0  0  0  0  0  0  0  0  0  0  0
    1.3042    0.1583    0.0000 O   0  0  0  0  0  0  0  0  0  0  0  0
    2.8000    0.8208    0.0000 C   0  0  0  0  0  0  0  0  0  0  0  0
    4.2292    0.8208    0.0000 C   0  0  0  0  0  0  0  0  0  0  0  0
    2.1042   -2.9042    0.0000 C   0  0  0  0  0  0  0  0  0  0  0  0
    4.9500    0.4083    0.0000 F   0  0  0  0  0  0  0  0  0  0  0  0
    2.0792    0.4083    0.0000 F   0  0  0  0  0  0  0  0  0  0  0  0
    3.5292   -2.0750    0.0000 C   0  0  0  0  0  0  0  0  0  0  0  0
    1.3917   -3.3167    0.0000 Cl  0  0  0  0  0  0  0  0  0  0  0  0
    0.6500   -0.4292    0.0000 C   0  0  0  0  0  0  0  0  0  0  0  0
    1.3667   -1.6792    0.0000 C   0  0  0  0  0  0  0  0  0  0  0  0
    3.5375   -2.8917    0.0000 C   0  0  0  0  0  0  0  0  0  0  0  0
    3.5042    2.0583    0.0000 C   0  0  0  0  0  0  0  0  0  0  0  0
    2.7875    1.6375    0.0000 C   0  0  0  0  0  0  0  0  0  0  0  0
    4.2292    1.6458    0.0000 C   0  0  0  0  0  0  0  0  0  0  0  0
    2.8250   -3.3125    0.0000 C   0  0  0  0  0  0  0  0  0  0  0  0
    0.6500   -2.0917    0.0000 C   0  0  0  0  0  0  0  0  0  0  0  0
   -0.0625   -0.8417    0.0000 C   0  0  0  0  0  0  0  0  0  0  0  0
   -0.0625   -1.6792    0.0000 C   0  0  0  0  0  0  0  0  0  0  0  0
  2  1  1  0  0  0  0
  3  1  1  0  0  0  0
  4  2  1  0  0  0  0
  5  1  1  0  0  0  0
  6  3  1  0  0  0  0
  7  5  1  0  0  0  0
  8  2  2  0  0  0  0
  9  3  2  0  0  0  0
 10  4  2  0  0  0  0
 11  4  1  0  0  0  0
 12  7  2  0  0  0  0
 13 11  1  0  0  0  0
 14 10  1  0  0  0  0
 15  5  2  0  0  0  0
 16 12  1  0  0  0  0
 17  6  1  0  0  0  0
 18  6  1  0  0  0  0
 19 15  1  0  0  0  0
 20 22  1  0  0  0  0
 21 10  1  0  0  0  0
 22 11  2  0  0  0  0
 23 19  2  0  0  0  0
 24 18  1  0  0  0  0
 25 17  1  0  0  0  0
 26 24  1  0  0  0  0
 23 12  1  0  0  0  0
 20 21  2  0  0  0  0
 26 25  1  0  0  0  0
M  END
> <IDNUMBER>
F2843-0337

> <Chemical_Name>
N-(3-chlorophenyl)-N-(2,6-difluorobenzoyl)piperidine-1-carboxamide

> <CAS>
899951-28-1

> <PriceCoeff>
1.00

> <MW>
378.80

> <Description>
solid

> <FSP3>
0.26

> <clogP>
4.56

> <TPSA>
40.62

> <Acceptor>
2

> <Donor>
0

> <RotBonds>
5

> <HAC>
26

> <Collection>
General

> <Reference_compound>
CHEMBL2287669

> <Similarity>
0.8160

$$$$
F1814-0659
  -ISIS-  06222321442D

 30 33  0  0  0  0  0  0  0  0999 V2000
   -5.2708    2.1875    0.0000 C   0  0  0  0  0  0  0  0  0  0  0  0
   -4.5833    2.5958    0.0000 N   0  0  0  0  0  0  0  0  0  0  0  0
   -6.0250    2.5250    0.0000 S   0  0  0  0  0  0  0  0  0  0  0  0
   -5.3583    1.3583    0.0000 N   0  0  3  0  0  0  0  0  0  0  0  0
   -1.7208    3.3833    0.0000 N   0  0  3  0  0  0  0  0  0  0  0  0
   -6.5917    1.9000    0.0000 C   0  0  0  0  0  0  0  0  0  0  0  0
   -6.1542    1.1750    0.0000 C   0  0  0  0  0  0  0  0  0  0  0  0
   -4.5833    3.3958    0.0000 C   0  0  0  0  0  0  0  0  0  0  0  0
   -2.4375    3.8083    0.0000 C   0  0  0  0  0  0  0  0  0  0  0  0
   -1.6750    2.5583    0.0000 C   0  0  0  0  0  0  0  0  0  0  0  0
   -0.9500    3.6958    0.0000 C   0  0  0  0  0  0  0  0  0  0  0  0
   -3.1583    3.3958    0.0000 C   0  0  0  0  0  0  0  0  0  0  0  0
   -3.8708    3.8000    0.0000 C   0  0  0  0  0  0  0  0  0  0  0  0
   -6.5875    0.4583    0.0000 C   0  0  0  0  0  0  0  0  0  0  0  0
   -7.4292    1.8958    0.0000 C   0  0  0  0  0  0  0  0  0  0  0  0
   -5.2708    3.7958    0.0000 O   0  0  0  0  0  0  0  0  0  0  0  0
   -0.4208    3.0583    0.0000 C   0  0  0  0  0  0  0  0  0  0  0  0
   -0.8583    2.3583    0.0000 C   0  0  0  0  0  0  0  0  0  0  0  0
   -0.7375    4.4667    0.0000 O   0  0  0  0  0  0  0  0  0  0  0  0
   -2.3083    2.0375    0.0000 O   0  0  0  0  0  0  0  0  0  0  0  0
   -7.4167    0.4500    0.0000 C   0  0  0  0  0  0  0  0  0  0  0  0
   -7.8417    1.1708    0.0000 C   0  0  0  0  0  0  0  0  0  0  0  0
   -4.7583    0.8208    0.0000 C   0  0  0  0  0  0  0  0  0  0  0  0
   -2.4333    4.6167    0.0000 C   0  0  0  0  0  0  0  0  0  0  0  0
   -6.1667   -0.2500    0.0000 O   0  0  0  0  0  0  0  0  0  0  0  0
   -3.8625    4.6292    0.0000 C   0  0  0  0  0  0  0  0  0  0  0  0
   -3.1458    5.0417    0.0000 C   0  0  0  0  0  0  0  0  0  0  0  0
   -7.8417    2.6083    0.0000 C   0  0  0  0  0  0  0  0  0  0  0  0
   -6.6917   -0.9292    0.0000 C   0  0  0  0  0  0  0  0  0  0  0  0
   -4.9333    0.0208    0.0000 C   0  0  0  0  0  0  0  0  0  0  0  0
  2  1  2  0  0  0  0
  3  1  1  0  0  0  0
  4  1  1  0  0  0  0
  5  9  1  0  0  0  0
  6  3  1  0  0  0  0
  7  4  1  0  0  0  0
  8  2  1  0  0  0  0
  9 12  1  0  0  0  0
 10  5  1  0  0  0  0
 11  5  1  0  0  0  0
 12 13  2  0  0  0  0
 13  8  1  0  0  0  0
 14  7  1  0  0  0  0
 15  6  1  0  0  0  0
 16  8  2  0  0  0  0
 17 11  1  0  0  0  0
 18 10  1  0  0  0  0
 19 11  2  0  0  0  0
 20 10  2  0  0  0  0
 21 14  2  0  0  0  0
 22 15  2  0  0  0  0
 23  4  1  0  0  0  0
 24 27  1  0  0  0  0
 25 14  1  0  0  0  0
 26 13  1  0  0  0  0
 27 26  2  0  0  0  0
 28 15  1  0  0  0  0
 29 25  1  0  0  0  0
 30 23  1  0  0  0  0
  7  6  2  0  0  0  0
 22 21  1  0  0  0  0
 24  9  2  0  0  0  0
 17 18  1  0  0  0  0
M  END
> <IDNUMBER>
F1814-0659

> <Chemical_Name>
3-(2,5-dioxopyrrolidin-1-yl)-N-[(2Z)-3-ethyl-4-methoxy-7-methyl-2,3-dihydro-1,3-benzothiazol-2-ylidene]benzamide

> <CAS>
868369-97-5

> <PriceCoeff>
1.00

> <MW>
423.48

> <Description>
solid

> <FSP3>
0.27

> <clogP>
3.90

> <TPSA>
104.58

> <Acceptor>
4

> <Donor>
0

> <RotBonds>
5

> <HAC>
30

> <Collection>
General

$$$$
F1199-0085
  -ISIS-  06222321442D

 28 31  0  0  0  0  0  0  0  0999 V2000
    0.2167   -2.4917    0.0000 N   0  0  3  0  0  0  0  0  0  0  0  0
    0.8875   -2.0042    0.0000 C   0  0  0  0  0  0  0  0  0  0  0  0
    0.4667   -3.2875    0.0000 C   0  0  0  0  0  0  0  0  0  0  0  0
    1.3000   -3.2875    0.0000 C   0  0  3  0  0  0  0  0  0  0  0  0
    1.5542   -2.4917    0.0000 C   0  0  0  0  0  0  0  0  0  0  0  0
   -0.5708   -2.2375    0.0000 C   0  0  0  0  0  0  0  0  0  0  0  0
    5.0792   -3.6125    0.0000 N   0  0  3  0  0  0  0  0  0  0  0  0
   -1.1833   -2.7917    0.0000 C   0  0  0  0  0  0  0  0  0  0  0  0
    1.7875   -3.9542    0.0000 N   0  0  0  0  0  0  0  0  0  0  0  0
   -0.7458   -1.4292    0.0000 C   0  0  0  0  0  0  0  0  0  0  0  0
    0.8792   -1.1792    0.0000 O   0  0  0  0  0  0  0  0  0  0  0  0
    4.2542   -3.6917    0.0000 C   0  0  0  0  0  0  0  0  0  0  0  0
   -0.0208   -3.9542    0.0000 O   0  0  0  0  0  0  0  0  0  0  0  0
   -1.9708   -2.5417    0.0000 C   0  0  0  0  0  0  0  0  0  0  0  0
    6.7250   -3.4417    0.0000 O   0  0  0  0  0  0  0  0  0  0  0  0
    3.7625   -3.0250    0.0000 C   0  0  0  0  0  0  0  0  0  0  0  0
    3.9167   -4.4542    0.0000 C   0  0  0  0  0  0  0  0  0  0  0  0
    2.6125   -3.8667    0.0000 C   0  0  0  0  0  0  0  0  0  0  0  0
   -2.1458   -1.7292    0.0000 C   0  0  0  0  0  0  0  0  0  0  0  0
   -1.5333   -1.1750    0.0000 C   0  0  0  0  0  0  0  0  0  0  0  0
    2.9417   -3.1125    0.0000 C   0  0  0  0  0  0  0  0  0  0  0  0
    3.0917   -4.5417    0.0000 C   0  0  0  0  0  0  0  0  0  0  0  0
   -2.9333   -1.4750    0.0000 I   0  0  0  0  0  0  0  0  0  0  0  0
    5.4042   -2.8542    0.0000 C   0  0  0  0  0  0  0  0  0  0  0  0
    5.5625   -4.2875    0.0000 C   0  0  0  0  0  0  0  0  0  0  0  0
   -1.0083   -3.6042    0.0000 C   0  0  0  0  0  0  0  0  0  0  0  0
    6.2375   -2.7667    0.0000 C   0  0  0  0  0  0  0  0  0  0  0  0
    6.3792   -4.2042    0.0000 C   0  0  0  0  0  0  0  0  0  0  0  0
  2  1  1  0  0  0  0
  3  1  1  0  0  0  0
  4  3  1  0  0  0  0
  5  2  1  0  0  0  0
  6  1  1  0  0  0  0
  7 12  1  0  0  0  0
  8  6  1  0  0  0  0
  9  4  1  0  0  0  0
 10  6  2  0  0  0  0
 11  2  2  0  0  0  0
 12 17  2  0  0  0  0
 13  3  2  0  0  0  0
 14  8  2  0  0  0  0
 15 28  1  0  0  0  0
 16 21  2  0  0  0  0
 17 22  1  0  0  0  0
 18  9  1  0  0  0  0
 19 20  2  0  0  0  0
 20 10  1  0  0  0  0
 21 18  1  0  0  0  0
 22 18  2  0  0  0  0
 23 19  1  0  0  0  0
 24  7  1  0  0  0  0
 25  7  1  0  0  0  0
 26  8  1  0  0  0  0
 27 24  1  0  0  0  0
 28 25  1  0  0  0  0
  5  4  1  0  0  0  0
 19 14  1  0  0  0  0
 16 12  1  0  0  0  0
 15 27  1  0  0  0  0
M  END
> <IDNUMBER>
F1199-0085

> <Chemical_Name>
1-(4-iodo-2-methylphenyl)-3-{[4-(morpholin-4-yl)phenyl]amino}pyrrolidine-2,5-dione

> <CAS>
474006-28-5

> <PriceCoeff>
1.00

> <MW>
491.32

> <Description>
solid

> <FSP3>
0.33

> <clogP>
3.44

> <TPSA>
61.88

> <Acceptor>
5

> <Donor>
2

> <RotBonds>
4

> <HAC>
28

> <Collection>
General

$$$$
F2515-1571
  -ISIS-  06222321462D

 35 40  0  0  0  0  0  0  0  0999 V2000
   -4.5625    2.1500    0.0000 C   0  0  0  0  0  0  0  0  0  0  0  0
   -3.8458    2.5583    0.0000 N   0  0  3  0  0  0  0  0  0  0  0  0
   -4.6583    1.3250    0.0000 N   0  0  0  0  0  0  0  0  0  0  0  0
   -0.9708    5.0167    0.0000 N   0  0  3  0  0  0  0  0  0  0  0  0
   -5.3208    2.4875    0.0000 S   0  0  0  0  0  0  0  0  0  0  0  0
   -3.8458    3.3958    0.0000 C   0  0  0  0  0  0  0  0  0  0  0  0
   -5.4583    1.1583    0.0000 C   0  0  0  0  0  0  0  0  0  0  0  0
   -5.8750    1.8708    0.0000 C   0  0  0  0  0  0  0  0  0  0  0  0
   -0.9125    5.8417    0.0000 C   0  0  0  0  0  0  0  0  0  0  0  0
   -0.2125    4.7167    0.0000 C   0  0  0  0  0  0  0  0  0  0  0  0
   -5.8708    0.4458    0.0000 C   0  0  0  0  0  0  0  0  0  0  0  0
   -6.6917    1.8708    0.0000 C   0  0  0  0  0  0  0  0  0  0  0  0
   -7.1042    1.1458    0.0000 C   0  0  0  0  0  0  0  0  0  0  0  0
   -6.6792    0.4458    0.0000 C   0  0  0  0  0  0  0  0  0  0  0  0
   -3.1333    2.1458    0.0000 C   0  0  0  0  0  0  0  0  0  0  0  0
   -1.6958    4.6042    0.0000 C   0  0  0  0  0  0  0  0  0  0  0  0
   -3.1333    3.8000    0.0000 C   0  0  0  0  0  0  0  0  0  0  0  0
   -7.2292   -0.1792    0.0000 O   0  0  0  0  0  0  0  0  0  0  0  0
   -7.9042    0.9750    0.0000 O   0  0  0  0  0  0  0  0  0  0  0  0
   -4.5625    3.8000    0.0000 O   0  0  0  0  0  0  0  0  0  0  0  0
   -7.9917    0.1583    0.0000 C   0  0  0  0  0  0  0  0  0  0  0  0
   -0.1083    6.0417    0.0000 C   0  0  0  0  0  0  0  0  0  0  0  0
    0.3167    5.3417    0.0000 C   0  0  0  0  0  0  0  0  0  0  0  0
   -1.5583    6.3917    0.0000 O   0  0  0  0  0  0  0  0  0  0  0  0
   -0.0083    3.9208    0.0000 O   0  0  0  0  0  0  0  0  0  0  0  0
   -2.4208    0.0833    0.0000 N   0  0  0  0  0  0  0  0  0  0  0  0
   -3.1333    1.3208    0.0000 C   0  0  0  0  0  0  0  0  0  0  0  0
   -2.4125    5.0292    0.0000 C   0  0  0  0  0  0  0  0  0  0  0  0
   -1.7083    3.8000    0.0000 C   0  0  0  0  0  0  0  0  0  0  0  0
   -2.4208    3.3958    0.0000 C   0  0  0  0  0  0  0  0  0  0  0  0
   -3.1250    4.6292    0.0000 C   0  0  0  0  0  0  0  0  0  0  0  0
   -2.4208    0.9083    0.0000 C   0  0  0  0  0  0  0  0  0  0  0  0
   -3.1333   -0.3292    0.0000 C   0  0  0  0  0  0  0  0  0  0  0  0
   -3.8500    0.9083    0.0000 C   0  0  0  0  0  0  0  0  0  0  0  0
   -3.8500    0.0833    0.0000 C   0  0  0  0  0  0  0  0  0  0  0  0
  2  1  1  0  0  0  0
  3  1  2  0  0  0  0
  4 16  1  0  0  0  0
  5  1  1  0  0  0  0
  6  2  1  0  0  0  0
  7  3  1  0  0  0  0
  8  5  1  0  0  0  0
  9  4  1  0  0  0  0
 10  4  1  0  0  0  0
 11  7  1  0  0  0  0
 12  8  1  0  0  0  0
 13 12  2  0  0  0  0
 14 11  2  0  0  0  0
 15  2  1  0  0  0  0
 16 28  1  0  0  0  0
 17  6  1  0  0  0  0
 18 14  1  0  0  0  0
 19 13  1  0  0  0  0
 20  6  2  0  0  0  0
 21 19  1  0  0  0  0
 22  9  1  0  0  0  0
 23 10  1  0  0  0  0
 24  9  2  0  0  0  0
 25 10  2  0  0  0  0
 26 32  2  0  0  0  0
 27 15  1  0  0  0  0
 28 31  2  0  0  0  0
 29 30  1  0  0  0  0
 30 17  2  0  0  0  0
 31 17  1  0  0  0  0
 32 27  1  0  0  0  0
 33 35  2  0  0  0  0
 34 27  2  0  0  0  0
 35 34  1  0  0  0  0
  8  7  2  0  0  0  0
 13 14  1  0  0  0  0
 16 29  2  0  0  0  0
 18 21  1  0  0  0  0
 33 26  1  0  0  0  0
 23 22  1  0  0  0  0
M  END
> <IDNUMBER>
F2515-1571

> <Chemical_Name>
N-{4,6-dioxa-10-thia-12-azatricyclo[7.3.0.0^{3,7}]dodeca-1(9),2,7,11-tetraen-11-yl}-4-(2,5-dioxopyrrolidin-1-yl)-N-[(pyridin-3-yl)methyl]benzamide

> <CAS>
895019-73-5

> <PriceCoeff>
1.00

> <MW>
486.50

> <Description>
solid

> <FSP3>
0.16

> <clogP>
2.36

> <TPSA>
130.17

> <Acceptor>
7

> <Donor>
1

> <RotBonds>
6

> <HAC>
35

> <Collection>
General

$$$$
F1359-1518
  -ISIS-  06222321452D

 31 34  0  0  0  0  0  0  0  0999 V2000
   -1.1625    2.3833    0.0000 C   0  0  0  0  0  0  0  0  0  0  0  0
   -0.3375    2.3750    0.0000 N   0  0  0  0  0  0  0  0  0  0  0  0
    2.5542    1.6500    0.0000 N   0  0  3  0  0  0  0  0  0  0  0  0
   -1.6458    1.7208    0.0000 N   0  0  3  0  0  0  0  0  0  0  0  0
   -1.6458    3.0500    0.0000 S   0  0  0  0  0  0  0  0  0  0  0  0
   -2.4333    2.7958    0.0000 C   0  0  0  0  0  0  0  0  0  0  0  0
   -2.4333    1.9708    0.0000 C   0  0  0  0  0  0  0  0  0  0  0  0
    0.0750    3.0875    0.0000 C   0  0  0  0  0  0  0  0  0  0  0  0
    2.1292    2.3708    0.0000 C   0  0  0  0  0  0  0  0  0  0  0  0
    3.3667    1.5333    0.0000 C   0  0  0  0  0  0  0  0  0  0  0  0
    2.1750    0.9125    0.0000 C   0  0  0  0  0  0  0  0  0  0  0  0
    1.3125    2.3750    0.0000 C   0  0  0  0  0  0  0  0  0  0  0  0
    0.9000    3.0875    0.0000 C   0  0  0  0  0  0  0  0  0  0  0  0
   -3.1458    3.2083    0.0000 C   0  0  0  0  0  0  0  0  0  0  0  0
   -3.1458    1.5583    0.0000 C   0  0  0  0  0  0  0  0  0  0  0  0
   -0.3375    3.8000    0.0000 O   0  0  0  0  0  0  0  0  0  0  0  0
    3.5042    0.7125    0.0000 C   0  0  0  0  0  0  0  0  0  0  0  0
    2.7792    0.3250    0.0000 C   0  0  0  0  0  0  0  0  0  0  0  0
    3.9500    2.1083    0.0000 O   0  0  0  0  0  0  0  0  0  0  0  0
    1.3667    0.7833    0.0000 O   0  0  0  0  0  0  0  0  0  0  0  0
   -3.8583    2.7958    0.0000 C   0  0  0  0  0  0  0  0  0  0  0  0
   -1.3958    0.9333    0.0000 C   0  0  0  0  0  0  0  0  0  0  0  0
   -3.8583    1.9708    0.0000 C   0  0  0  0  0  0  0  0  0  0  0  0
    2.5542    3.0833    0.0000 C   0  0  0  0  0  0  0  0  0  0  0  0
   -4.5833    3.2125    0.0000 O   0  0  0  0  0  0  0  0  0  0  0  0
    1.3167    3.8083    0.0000 C   0  0  0  0  0  0  0  0  0  0  0  0
    2.1417    3.8000    0.0000 C   0  0  0  0  0  0  0  0  0  0  0  0
   -2.7500    0.4875    0.0000 O   0  0  0  0  0  0  0  0  0  0  0  0
   -1.9458    0.3208    0.0000 C   0  0  0  0  0  0  0  0  0  0  0  0
   -5.2875    2.8000    0.0000 C   0  0  0  0  0  0  0  0  0  0  0  0
   -3.3083   -0.1250    0.0000 C   0  0  0  0  0  0  0  0  0  0  0  0
  2  1  2  0  0  0  0
  3  9  1  0  0  0  0
  4  1  1  0  0  0  0
  5  1  1  0  0  0  0
  6  5  1  0  0  0  0
  7  4  1  0  0  0  0
  8  2  1  0  0  0  0
  9 12  1  0  0  0  0
 10  3  1  0  0  0  0
 11  3  1  0  0  0  0
 12 13  2  0  0  0  0
 13  8  1  0  0  0  0
 14  6  1  0  0  0  0
 15  7  1  0  0  0  0
 16  8  2  0  0  0  0
 17 10  1  0  0  0  0
 18 11  1  0  0  0  0
 19 10  2  0  0  0  0
 20 11  2  0  0  0  0
 21 14  2  0  0  0  0
 22  4  1  0  0  0  0
 23 15  2  0  0  0  0
 24 27  1  0  0  0  0
 25 21  1  0  0  0  0
 26 13  1  0  0  0  0
 27 26  2  0  0  0  0
 28 29  1  0  0  0  0
 29 22  1  0  0  0  0
 30 25  1  0  0  0  0
 31 28  1  0  0  0  0
  7  6  2  0  0  0  0
 23 21  1  0  0  0  0
  9 24  2  0  0  0  0
 17 18  1  0  0  0  0
M  END
> <IDNUMBER>
F1359-1518

> <Chemical_Name>
3-(2,5-dioxopyrrolidin-1-yl)-N-[(2Z)-6-methoxy-3-(2-methoxyethyl)-2,3-dihydro-1,3-benzothiazol-2-ylidene]benzamide

> <CAS>
865161-48-4

> <PriceCoeff>
1.00

> <MW>
439.48

> <Description>
solid

> <FSP3>
0.27

> <clogP>
2.54

> <TPSA>
113.81

> <Acceptor>
5

> <Donor>
0

> <RotBonds>
7

> <HAC>
31

> <Collection>
General

$$$$
F1365-0768
  -ISIS-  06222321452D

 24 26  0  0  0  0  0  0  0  0999 V2000
   -1.1625    2.3833    0.0000 C   0  0  0  0  0  0  0  0  0  0  0  0
    1.3167    3.8083    0.0000 N   0  0  3  0  0  0  0  0  0  0  0  0
   -1.6458    1.7208    0.0000 N   0  0  3  0  0  0  0  0  0  0  0  0
   -0.3375    2.3750    0.0000 N   0  0  0  0  0  0  0  0  0  0  0  0
   -1.6458    3.0500    0.0000 S   0  0  0  0  0  0  0  0  0  0  0  0
   -2.4333    2.7958    0.0000 C   0  0  0  0  0  0  0  0  0  0  0  0
   -2.4333    1.9708    0.0000 C   0  0  0  0  0  0  0  0  0  0  0  0
    2.1292    3.8833    0.0000 C   0  0  0  0  0  0  0  0  0  0  0  0
    0.9792    4.5417    0.0000 C   0  0  0  0  0  0  0  0  0  0  0  0
    0.0750    3.0875    0.0000 C   0  0  0  0  0  0  0  0  0  0  0  0
    0.9000    3.0875    0.0000 C   0  0  0  0  0  0  0  0  0  0  0  0
   -3.1458    3.2083    0.0000 C   0  0  0  0  0  0  0  0  0  0  0  0
   -3.1458    1.5583    0.0000 C   0  0  0  0  0  0  0  0  0  0  0  0
    1.5917    5.0917    0.0000 C   0  0  0  0  0  0  0  0  0  0  0  0
    2.3125    4.6917    0.0000 C   0  0  0  0  0  0  0  0  0  0  0  0
    0.1792    4.7292    0.0000 O   0  0  0  0  0  0  0  0  0  0  0  0
    2.6875    3.2708    0.0000 O   0  0  0  0  0  0  0  0  0  0  0  0
   -0.3375    3.8000    0.0000 O   0  0  0  0  0  0  0  0  0  0  0  0
   -1.9458    0.3208    0.0000 C   0  0  0  0  0  0  0  0  0  0  0  0
   -1.3958    0.9333    0.0000 C   0  0  0  0  0  0  0  0  0  0  0  0
   -3.8583    2.7958    0.0000 C   0  0  0  0  0  0  0  0  0  0  0  0
   -2.7500    0.4875    0.0000 C   0  0  0  0  0  0  0  0  0  0  0  0
   -3.8583    1.9708    0.0000 C   0  0  0  0  0  0  0  0  0  0  0  0
   -4.5833    3.2125    0.0000 Br  0  0  0  0  0  0  0  0  0  0  0  0
  2 11  1  0  0  0  0
  3  1  1  0  0  0  0
  4  1  2  0  0  0  0
  5  1  1  0  0  0  0
  6  5  1  0  0  0  0
  7  3  1  0  0  0  0
  8  2  1  0  0  0  0
  9  2  1  0  0  0  0
 10  4  1  0  0  0  0
 11 10  1  0  0  0  0
 12  6  1  0  0  0  0
 13  7  1  0  0  0  0
 14  9  1  0  0  0  0
 15  8  1  0  0  0  0
 16  9  2  0  0  0  0
 17  8  2  0  0  0  0
 18 10  2  0  0  0  0
 19 20  1  0  0  0  0
 20  3  1  0  0  0  0
 21 12  2  0  0  0  0
 22 19  2  0  0  0  0
 23 13  2  0  0  0  0
 24 21  1  0  0  0  0
  7  6  2  0  0  0  0
 23 21  1  0  0  0  0
 15 14  1  0  0  0  0
M  END
> <IDNUMBER>
F1365-0768

> <Chemical_Name>
N-[(2Z)-6-bromo-3-(prop-2-en-1-yl)-2,3-dihydro-1,3-benzothiazol-2-ylidene]-2-(2,5-dioxopyrrolidin-1-yl)acetamide

> <CAS>
865175-26-4

> <PriceCoeff>
1.00

> <MW>
408.27

> <Description>
solid

> <FSP3>
0.25

> <clogP>
4.41

> <TPSA>
95.35

> <Acceptor>
3

> <Donor>
0

> <RotBonds>
5

> <HAC>
24

> <Collection>
General

$$$$
F1366-3012
  -ISIS-  06222321142D

 30 32  0  0  0  0  0  0  0  0999 V2000
   -1.1625    2.3833    0.0000 C   0  0  0  0  0  0  0  0  0  0  0  0
   -1.6458    1.7208    0.0000 N   0  0  3  0  0  0  0  0  0  0  0  0
    1.3000    3.7958    0.0000 N   0  0  3  0  0  0  0  0  0  0  0  0
   -4.5625    3.2083    0.0000 S   0  0  3  0  0  0  0  0  0  0  0  0
   -0.3375    2.3750    0.0000 N   0  0  0  0  0  0  0  0  0  0  0  0
   -1.6458    3.0500    0.0000 S   0  0  0  0  0  0  0  0  0  0  0  0
   -2.4333    2.7958    0.0000 C   0  0  0  0  0  0  0  0  0  0  0  0
   -2.4333    1.9708    0.0000 C   0  0  0  0  0  0  0  0  0  0  0  0
    2.1042    3.8708    0.0000 C   0  0  0  0  0  0  0  0  0  0  0  0
    0.9625    4.5292    0.0000 C   0  0  0  0  0  0  0  0  0  0  0  0
    0.0750    3.0875    0.0000 C   0  0  0  0  0  0  0  0  0  0  0  0
   -3.8583    2.7958    0.0000 C   0  0  0  0  0  0  0  0  0  0  0  0
   -3.1458    3.2083    0.0000 C   0  0  0  0  0  0  0  0  0  0  0  0
    0.8875    3.0875    0.0000 C   0  0  0  0  0  0  0  0  0  0  0  0
   -1.7625    0.9083    0.0000 C   0  0  0  0  0  0  0  0  0  0  0  0
   -3.1458    1.5583    0.0000 C   0  0  0  0  0  0  0  0  0  0  0  0
   -4.1333    3.8833    0.0000 O   0  0  0  0  0  0  0  0  0  0  0  0
   -5.0083    2.5083    0.0000 O   0  0  0  0  0  0  0  0  0  0  0  0
   -2.5208    0.6083    0.0000 C   0  0  0  0  0  0  0  0  0  0  0  0
   -5.2583    3.6333    0.0000 N   0  0  0  0  0  0  0  0  0  0  0  0
   -3.8583    1.9708    0.0000 C   0  0  0  0  0  0  0  0  0  0  0  0
    1.5625    5.0750    0.0000 C   0  0  0  0  0  0  0  0  0  0  0  0
    2.2750    4.6667    0.0000 C   0  0  0  0  0  0  0  0  0  0  0  0
    0.1667    4.7042    0.0000 O   0  0  0  0  0  0  0  0  0  0  0  0
    2.6417    3.2708    0.0000 O   0  0  0  0  0  0  0  0  0  0  0  0
   -0.3375    3.8000    0.0000 O   0  0  0  0  0  0  0  0  0  0  0  0
   -2.6333   -0.2000    0.0000 O   0  0  0  0  0  0  0  0  0  0  0  0
   -3.1583    1.1083    0.0000 O   0  0  0  0  0  0  0  0  0  0  0  0
   -3.9125    0.8000    0.0000 C   0  0  0  0  0  0  0  0  0  0  0  0
   -4.5458    1.3083    0.0000 C   0  0  0  0  0  0  0  0  0  0  0  0
  2  1  1  0  0  0  0
  3 14  1  0  0  0  0
  4 12  1  0  0  0  0
  5  1  2  0  0  0  0
  6  1  1  0  0  0  0
  7  6  1  0  0  0  0
  8  2  1  0  0  0  0
  9  3  1  0  0  0  0
 10  3  1  0  0  0  0
 11  5  1  0  0  0  0
 12 13  2  0  0  0  0
 13  7  1  0  0  0  0
 14 11  1  0  0  0  0
 15  2  1  0  0  0  0
 16  8  1  0  0  0  0
 17  4  2  0  0  0  0
 18  4  2  0  0  0  0
 19 15  1  0  0  0  0
 20  4  1  0  0  0  0
 21 16  2  0  0  0  0
 22 10  1  0  0  0  0
 23  9  1  0  0  0  0
 24 10  2  0  0  0  0
 25  9  2  0  0  0  0
 26 11  2  0  0  0  0
 27 19  2  0  0  0  0
 28 19  1  0  0  0  0
 29 28  1  0  0  0  0
 30 29  1  0  0  0  0
  7  8  2  0  0  0  0
 12 21  1  0  0  0  0
 22 23  1  0  0  0  0
M  END
> <IDNUMBER>
F1366-3012

> <Chemical_Name>
ethyl 2-[(2Z)-2-{[2-(2,5-dioxopyrrolidin-1-yl)acetyl]imino}-6-sulfamoyl-2,3-dihydro-1,3-benzothiazol-3-yl]acetate

> <CAS>
1164532-56-2

> <PriceCoeff>
1.00

> <MW>
454.48

> <Description>
solid

> <FSP3>
0.35

> <clogP>
1.03

> <TPSA>
190.19

> <Acceptor>
7

> <Donor>
1

> <RotBonds>
8

> <HAC>
30

> <Collection>
General

$$$$
F3342-0440
  -ISIS-  06222304352D

 38 40  0  0  0  0  0  0  0  0999 V2000
    1.4542   -0.3292    0.0000 S   0  0  3  0  0  0  0  0  0  0  0  0
    2.2042   -0.7792    0.0000 N   0  0  3  0  0  0  0  0  0  0  0  0
    0.6917    0.0833    0.0000 C   0  0  0  0  0  0  0  0  0  0  0  0
    2.9542   -0.3292    0.0000 C   0  0  0  0  0  0  0  0  0  0  0  0
    1.8917    0.4208    0.0000 O   0  0  0  0  0  0  0  0  0  0  0  0
    1.0292   -1.1167    0.0000 O   0  0  0  0  0  0  0  0  0  0  0  0
    2.2042   -1.6167    0.0000 C   0  0  0  0  0  0  0  0  0  0  0  0
    4.4167    0.4958    0.0000 N   0  0  3  0  0  0  0  0  0  0  0  0
    3.6917   -0.7792    0.0000 C   0  0  3  0  0  0  0  0  0  0  0  0
    4.4167   -0.3292    0.0000 C   0  0  0  0  0  0  0  0  0  0  0  0
   -0.0458   -0.3292    0.0000 C   0  0  0  0  0  0  0  0  0  0  0  0
    0.6917    0.9458    0.0000 C   0  0  0  0  0  0  0  0  0  0  0  0
    1.4792   -2.0542    0.0000 C   0  0  0  0  0  0  0  0  0  0  0  0
    2.9292   -2.0542    0.0000 C   0  0  0  0  0  0  0  0  0  0  0  0
    2.2042   -3.3042    0.0000 C   0  0  0  0  0  0  0  0  0  0  0  0
    2.9292   -2.8917    0.0000 C   0  0  0  0  0  0  0  0  0  0  0  0
    1.4792   -2.8917    0.0000 C   0  0  0  0  0  0  0  0  0  0  0  0
   -0.0458    1.3833    0.0000 C   0  0  0  0  0  0  0  0  0  0  0  0
   -0.7708    0.0833    0.0000 C   0  0  0  0  0  0  0  0  0  0  0  0
   -0.7708    0.9458    0.0000 C   0  0  0  0  0  0  0  0  0  0  0  0
    3.6917   -1.6167    0.0000 O   0  0  0  0  0  0  0  0  0  0  0  0
    2.2042   -4.1542    0.0000 O   0  0  0  0  0  0  0  0  0  0  0  0
    5.1542    0.9333    0.0000 C   0  0  0  0  0  0  0  0  0  0  0  0
    3.6667    0.9208    0.0000 C   0  0  0  0  0  0  0  0  0  0  0  0
   -1.4958    1.3583    0.0000 C   0  0  0  0  0  0  0  0  0  0  0  0
    2.9542   -4.5667    0.0000 C   0  0  0  0  0  0  0  0  0  0  0  0
    5.1417    1.7833    0.0000 C   0  0  0  0  0  0  0  0  0  0  0  0
    3.6667    1.7833    0.0000 C   0  0  0  0  0  0  0  0  0  0  0  0
    4.4167    2.2208    0.0000 C   0  0  0  0  0  0  0  0  0  0  0  0
    8.3079   -0.5824    0.0000 C   0  0  0  0  0  0  0  0  0  0  0  0
    8.0061    0.1899    0.0000 O   0  0  0  0  0  0  0  0  0  0  0  0
    7.7887   -1.2287    0.0000 C   0  0  0  0  0  0  0  0  0  0  0  0
    9.1219   -0.7022    0.0000 O   0  0  0  0  0  0  0  0  0  0  0  0
    6.9678   -1.1026    0.0000 C   0  0  0  0  0  0  0  0  0  0  0  0
    8.0865   -2.0025    0.0000 C   0  0  0  0  0  0  0  0  0  0  0  0
    6.4471   -1.7450    0.0000 C   0  0  0  0  0  0  0  0  0  0  0  0
    7.5635   -2.6503    0.0000 C   0  0  0  0  0  0  0  0  0  0  0  0
    6.7450   -2.5189    0.0000 C   0  0  0  0  0  0  0  0  0  0  0  0
 11  3  1  0  0  0  0
 12  3  2  0  0  0  0
 13  7  1  0  0  0  0
 14  7  2  0  0  0  0
 15 16  2  0  0  0  0
 16 14  1  0  0  0  0
 17 13  2  0  0  0  0
 18 12  1  0  0  0  0
 19 11  2  0  0  0  0
 20 18  2  0  0  0  0
 21  9  1  0  0  0  0
 22 15  1  0  0  0  0
 23  8  1  0  0  0  0
 24  8  1  0  0  0  0
 25 20  1  0  0  0  0
 26 22  1  0  0  0  0
 27 23  1  0  0  0  0
 28 24  1  0  0  0  0
 29 28  1  0  0  0  0
 19 20  1  0  0  0  0
 15 17  1  0  0  0  0
 29 27  1  0  0  0  0
  2  1  1  0  0  0  0
  3  1  1  0  0  0  0
  4  2  1  0  0  0  0
  5  1  2  0  0  0  0
  6  1  2  0  0  0  0
  7  2  1  0  0  0  0
  8 10  1  0  0  0  0
  9  4  1  0  0  0  0
 10  9  1  0  0  0  0
 31 30  2  0  0  0  0
 32 30  1  0  0  0  0
 33 30  1  0  0  0  0
 34 32  2  0  0  0  0
 35 32  1  0  0  0  0
 36 34  1  0  0  0  0
 37 35  2  0  0  0  0
 38 37  1  0  0  0  0
 38 36  2  0  0  0  0
M  END
> <IDNUMBER>
F3342-0440

> <Chemical_Name>
N-[2-hydroxy-3-(piperidin-1-yl)propyl]-N-(4-methoxyphenyl)-4-methylbenzene-1-sulfonamide; benzoic acid

> <CAS>
1331212-11-3

> <PriceCoeff>
1.00

> <MW>
418.55

> <Description>
solid

> <FSP3>
0.45

> <clogP>
4.07

> <TPSA>
78.46

> <Acceptor>
5

> <Donor>
2

> <RotBonds>
8

> <HAC>
29

> <Collection>
General

> <Reference_compound>
PRI1826

> <Similarity>
0.8570

$$$$
F1823-0787
  -ISIS-  06222321142D

 30 34  0  0  0  0  0  0  0  0999 V2000
   -5.9583    3.3958    0.0000 C   0  0  0  0  0  0  0  0  0  0  0  0
   -5.2708    3.7833    0.0000 N   0  0  0  0  0  0  0  0  0  0  0  0
   -6.0292    2.5625    0.0000 N   0  0  3  0  0  0  0  0  0  0  0  0
   -1.7333    3.3958    0.0000 N   0  0  3  0  0  0  0  0  0  0  0  0
   -6.7000    3.7208    0.0000 S   0  0  0  0  0  0  0  0  0  0  0  0
   -6.8292    2.3958    0.0000 C   0  0  0  0  0  0  0  0  0  0  0  0
   -7.2542    3.1083    0.0000 C   0  0  0  0  0  0  0  0  0  0  0  0
   -4.5833    3.3958    0.0000 C   0  0  0  0  0  0  0  0  0  0  0  0
   -2.4458    3.8000    0.0000 C   0  0  0  0  0  0  0  0  0  0  0  0
   -7.2500    1.6750    0.0000 C   0  0  0  0  0  0  0  0  0  0  0  0
   -0.9708    3.6875    0.0000 C   0  0  0  0  0  0  0  0  0  0  0  0
   -1.6875    2.5708    0.0000 C   0  0  0  0  0  0  0  0  0  0  0  0
   -8.0875    3.1083    0.0000 C   0  0  0  0  0  0  0  0  0  0  0  0
   -8.0792    1.6708    0.0000 C   0  0  0  0  0  0  0  0  0  0  0  0
   -8.4917    2.3958    0.0000 C   0  0  0  0  0  0  0  0  0  0  0  0
   -3.1583    3.3958    0.0000 C   0  0  0  0  0  0  0  0  0  0  0  0
   -3.8708    3.8000    0.0000 C   0  0  0  0  0  0  0  0  0  0  0  0
   -8.4917    0.9458    0.0000 O   0  0  0  0  0  0  0  0  0  0  0  0
   -4.5833    2.5958    0.0000 O   0  0  0  0  0  0  0  0  0  0  0  0
   -9.3292    2.3958    0.0000 O   0  0  0  0  0  0  0  0  0  0  0  0
   -0.4375    3.0583    0.0000 C   0  0  0  0  0  0  0  0  0  0  0  0
   -0.8708    2.3708    0.0000 C   0  0  0  0  0  0  0  0  0  0  0  0
   -0.7583    4.4667    0.0000 O   0  0  0  0  0  0  0  0  0  0  0  0
   -2.3208    2.0458    0.0000 O   0  0  0  0  0  0  0  0  0  0  0  0
   -5.4250    2.0208    0.0000 C   0  0  0  0  0  0  0  0  0  0  0  0
   -2.4375    4.6167    0.0000 C   0  0  0  0  0  0  0  0  0  0  0  0
   -3.8708    4.6167    0.0000 C   0  0  0  0  0  0  0  0  0  0  0  0
   -3.1583    5.0292    0.0000 C   0  0  0  0  0  0  0  0  0  0  0  0
   -9.3292    0.9458    0.0000 C   0  0  0  0  0  0  0  0  0  0  0  0
   -9.7417    1.6708    0.0000 C   0  0  0  0  0  0  0  0  0  0  0  0
  2  1  2  0  0  0  0
  3  1  1  0  0  0  0
  4  9  1  0  0  0  0
  5  1  1  0  0  0  0
  6  3  1  0  0  0  0
  7  5  1  0  0  0  0
  8  2  1  0  0  0  0
  9 16  1  0  0  0  0
 10  6  1  0  0  0  0
 11  4  1  0  0  0  0
 12  4  1  0  0  0  0
 13  7  1  0  0  0  0
 14 10  2  0  0  0  0
 15 13  2  0  0  0  0
 16 17  2  0  0  0  0
 17  8  1  0  0  0  0
 18 14  1  0  0  0  0
 19  8  2  0  0  0  0
 20 15  1  0  0  0  0
 21 11  1  0  0  0  0
 22 12  1  0  0  0  0
 23 11  2  0  0  0  0
 24 12  2  0  0  0  0
 25  3  1  0  0  0  0
 26 28  1  0  0  0  0
 27 17  1  0  0  0  0
 28 27  2  0  0  0  0
 29 18  1  0  0  0  0
 30 20  1  0  0  0  0
  7  6  2  0  0  0  0
 15 14  1  0  0  0  0
 29 30  1  0  0  0  0
  9 26  2  0  0  0  0
 22 21  1  0  0  0  0
M  END
> <IDNUMBER>
F1823-0787

> <Chemical_Name>
3-(2,5-dioxopyrrolidin-1-yl)-N-[(5E)-6-methyl-10,13-dioxa-4-thia-6-azatricyclo[7.4.0.0^{3,7}]trideca-1,3(7),8-trien-5-ylidene]benzamide

> <CAS>
1321710-28-4

> <PriceCoeff>
1.00

> <MW>
423.44

> <Description>
solid

> <FSP3>
0.24

> <clogP>
2.87

> <TPSA>
113.81

> <Acceptor>
5

> <Donor>
0

> <RotBonds>
3

> <HAC>
30

> <Collection>
General

$$$$
F3385-4474
  -ISIS-  06222321462D

 25 27  0  0  0  0  0  0  0  0999 V2000
    4.6417   -3.1917    0.0000 C   0  0  0  0  0  0  0  0  0  0  0  0
    3.9250   -3.6042    0.0000 C   0  0  0  0  0  0  0  0  0  0  0  0
    3.2125   -3.1917    0.0000 C   0  0  0  0  0  0  0  0  0  0  0  0
    4.6375   -2.3667    0.0000 C   0  0  0  0  0  0  0  0  0  0  0  0
    3.2042   -2.3667    0.0000 C   0  0  0  0  0  0  0  0  0  0  0  0
    5.3542   -3.6000    0.0000 C   0  0  0  0  0  0  0  0  0  0  0  0
    3.9167   -1.9500    0.0000 O   0  0  0  0  0  0  0  0  0  0  0  0
    6.0667   -3.1917    0.0000 C   0  0  0  0  0  0  0  0  0  0  0  0
    2.4917   -3.6125    0.0000 C   0  0  0  0  0  0  0  0  0  0  0  0
    2.4917   -1.9542    0.0000 C   0  0  0  0  0  0  0  0  0  0  0  0
    6.7792   -3.6000    0.0000 C   0  0  0  0  0  0  0  0  0  0  0  0
    3.9250   -4.4292    0.0000 O   0  0  0  0  0  0  0  0  0  0  0  0
    6.7792   -4.4292    0.0000 C   0  0  0  0  0  0  0  0  0  0  0  0
    5.3542   -4.4292    0.0000 C   0  0  0  0  0  0  0  0  0  0  0  0
    6.0667   -4.8417    0.0000 C   0  0  0  0  0  0  0  0  0  0  0  0
    1.7875   -2.3667    0.0000 C   0  0  0  0  0  0  0  0  0  0  0  0
    1.7792   -3.2000    0.0000 C   0  0  0  0  0  0  0  0  0  0  0  0
    7.4917   -3.1875    0.0000 O   0  0  0  0  0  0  0  0  0  0  0  0
    7.4917   -4.8375    0.0000 O   0  0  0  0  0  0  0  0  0  0  0  0
   -1.0708   -2.3500    0.0000 Br  0  0  0  0  0  0  0  0  0  0  0  0
    1.0792   -1.9542    0.0000 O   0  0  0  0  0  0  0  0  0  0  0  0
   -0.3500   -1.9417    0.0000 C   0  0  0  0  0  0  0  0  0  0  0  0
    0.3625   -2.3667    0.0000 C   0  0  0  0  0  0  0  0  0  0  0  0
    7.4875   -2.3625    0.0000 C   0  0  0  0  0  0  0  0  0  0  0  0
    8.2042   -4.4250    0.0000 C   0  0  0  0  0  0  0  0  0  0  0  0
  2  1  1  0  0  0  0
  3  2  1  0  0  0  0
  4  1  2  0  0  0  0
  5  7  1  0  0  0  0
  6  1  1  0  0  0  0
  7  4  1  0  0  0  0
  8  6  1  0  0  0  0
  9  3  2  0  0  0  0
 10  5  2  0  0  0  0
 11  8  2  0  0  0  0
 12  2  2  0  0  0  0
 13 15  2  0  0  0  0
 14  6  2  0  0  0  0
 15 14  1  0  0  0  0
 16 10  1  0  0  0  0
 17  9  1  0  0  0  0
 18 11  1  0  0  0  0
 19 13  1  0  0  0  0
 20 22  1  0  0  0  0
 21 16  1  0  0  0  0
 22 23  1  0  0  0  0
 23 21  1  0  0  0  0
 24 18  1  0  0  0  0
 25 19  1  0  0  0  0
  3  5  1  0  0  0  0
 13 11  1  0  0  0  0
 16 17  2  0  0  0  0
M  END
> <IDNUMBER>
F3385-4474

> <Chemical_Name>
7-(2-bromoethoxy)-3-(3,4-dimethoxyphenyl)-4H-chromen-4-one

> <CAS>
921155-50-2

> <PriceCoeff>
1.00

> <MW>
405.24

> <Description>
solid

> <FSP3>
0.21

> <clogP>
3.48

> <TPSA>
53.99

> <Acceptor>
5

> <Donor>
0

> <RotBonds>
6

> <HAC>
25

> <Collection>
General

> <Reference_compound>
CHEMBL44

> <Similarity>
0.8270

$$$$
F1365-0858
  -ISIS-  06222321442D

 29 32  0  0  0  0  0  0  0  0999 V2000
   -1.1625    2.3833    0.0000 C   0  0  0  0  0  0  0  0  0  0  0  0
   -0.3375    2.3750    0.0000 N   0  0  0  0  0  0  0  0  0  0  0  0
    2.5542    1.6500    0.0000 N   0  0  3  0  0  0  0  0  0  0  0  0
   -1.6458    1.7208    0.0000 N   0  0  3  0  0  0  0  0  0  0  0  0
   -1.6458    3.0500    0.0000 S   0  0  0  0  0  0  0  0  0  0  0  0
   -2.4333    2.7958    0.0000 C   0  0  0  0  0  0  0  0  0  0  0  0
   -2.4333    1.9708    0.0000 C   0  0  0  0  0  0  0  0  0  0  0  0
    0.0750    3.0875    0.0000 C   0  0  0  0  0  0  0  0  0  0  0  0
    2.1292    2.3708    0.0000 C   0  0  0  0  0  0  0  0  0  0  0  0
    3.3667    1.5333    0.0000 C   0  0  0  0  0  0  0  0  0  0  0  0
    2.1750    0.9125    0.0000 C   0  0  0  0  0  0  0  0  0  0  0  0
    1.3125    2.3750    0.0000 C   0  0  0  0  0  0  0  0  0  0  0  0
    0.9000    3.0875    0.0000 C   0  0  0  0  0  0  0  0  0  0  0  0
   -3.1458    3.2083    0.0000 C   0  0  0  0  0  0  0  0  0  0  0  0
   -3.1458    1.5583    0.0000 C   0  0  0  0  0  0  0  0  0  0  0  0
   -0.3375    3.8000    0.0000 O   0  0  0  0  0  0  0  0  0  0  0  0
    3.5042    0.7125    0.0000 C   0  0  0  0  0  0  0  0  0  0  0  0
    2.7792    0.3250    0.0000 C   0  0  0  0  0  0  0  0  0  0  0  0
    3.9500    2.1083    0.0000 O   0  0  0  0  0  0  0  0  0  0  0  0
    1.3667    0.7833    0.0000 O   0  0  0  0  0  0  0  0  0  0  0  0
   -1.9458    0.3208    0.0000 C   0  0  0  0  0  0  0  0  0  0  0  0
   -1.3958    0.9333    0.0000 C   0  0  0  0  0  0  0  0  0  0  0  0
   -3.8583    2.7958    0.0000 C   0  0  0  0  0  0  0  0  0  0  0  0
   -2.7500    0.4875    0.0000 C   0  0  0  0  0  0  0  0  0  0  0  0
   -3.8583    1.9708    0.0000 C   0  0  0  0  0  0  0  0  0  0  0  0
   -4.5833    3.2125    0.0000 F   0  0  0  0  0  0  0  0  0  0  0  0
    2.5542    3.0833    0.0000 C   0  0  0  0  0  0  0  0  0  0  0  0
    1.3167    3.8083    0.0000 C   0  0  0  0  0  0  0  0  0  0  0  0
    2.1417    3.8000    0.0000 C   0  0  0  0  0  0  0  0  0  0  0  0
  2  1  2  0  0  0  0
  3  9  1  0  0  0  0
  4  1  1  0  0  0  0
  5  1  1  0  0  0  0
  6  5  1  0  0  0  0
  7  4  1  0  0  0  0
  8  2  1  0  0  0  0
  9 12  1  0  0  0  0
 10  3  1  0  0  0  0
 11  3  1  0  0  0  0
 12 13  2  0  0  0  0
 13  8  1  0  0  0  0
 14  6  1  0  0  0  0
 15  7  1  0  0  0  0
 16  8  2  0  0  0  0
 17 10  1  0  0  0  0
 18 11  1  0  0  0  0
 19 10  2  0  0  0  0
 20 11  2  0  0  0  0
 21 22  1  0  0  0  0
 22  4  1  0  0  0  0
 23 14  2  0  0  0  0
 24 21  2  0  0  0  0
 25 15  2  0  0  0  0
 26 23  1  0  0  0  0
 27 29  1  0  0  0  0
 28 13  1  0  0  0  0
 29 28  2  0  0  0  0
  7  6  2  0  0  0  0
 25 23  1  0  0  0  0
  9 27  2  0  0  0  0
 17 18  1  0  0  0  0
M  END
> <IDNUMBER>
F1365-0858

> <Chemical_Name>
3-(2,5-dioxopyrrolidin-1-yl)-N-[(2Z)-6-fluoro-3-(prop-2-en-1-yl)-2,3-dihydro-1,3-benzothiazol-2-ylidene]benzamide

> <CAS>
941976-78-9

> <PriceCoeff>
1.00

> <MW>
409.43

> <Description>
solid

> <FSP3>
0.14

> <clogP>
3.87

> <TPSA>
95.35

> <Acceptor>
3

> <Donor>
0

> <RotBonds>
5

> <HAC>
29

> <Collection>
General

$$$$
F0762-0368
  -ISIS-  06222321142D

 24 25  0  0  0  0  0  0  0  0999 V2000
   -2.6333    2.0208    0.0000 C   0  0  0  0  0  0  0  0  0  0  0  0
    0.6167   -0.6167    0.0000 N   0  3  0  0  0  0  0  0  0  0  0  0
   -1.9833    1.6458    0.0000 C   0  0  0  0  0  0  0  0  0  0  0  0
   -1.9833    0.8958    0.0000 N   0  0  0  0  0  0  0  0  0  0  0  0
   -0.0333   -0.2375    0.0000 C   0  0  0  0  0  0  0  0  0  0  0  0
   -3.2833    1.6458    0.0000 C   0  0  0  0  0  0  0  0  0  0  0  0
   -2.6333    2.7708    0.0000 C   0  0  0  0  0  0  0  0  0  0  0  0
   -0.0333    0.5125    0.0000 C   0  0  0  0  0  0  0  0  0  0  0  0
   -1.3333    0.5125    0.0000 C   0  0  0  0  0  0  0  0  0  0  0  0
   -2.6333    3.5208    0.0000 N   0  0  0  0  0  0  0  0  0  0  0  0
   -0.6833    0.8875    0.0000 C   0  0  0  0  0  0  0  0  0  0  0  0
    0.6167   -1.3750    0.0000 O   0  5  0  0  0  0  0  0  0  0  0  0
    1.2667   -0.2417    0.0000 O   0  0  0  0  0  0  0  0  0  0  0  0
   -1.3375    2.0208    0.0000 O   0  0  0  0  0  0  0  0  0  0  0  0
   -0.6833   -0.6125    0.0000 C   0  0  0  0  0  0  0  0  0  0  0  0
   -1.3333   -0.2375    0.0000 C   0  0  0  0  0  0  0  0  0  0  0  0
   -3.2833    0.8958    0.0000 C   0  0  0  0  0  0  0  0  0  0  0  0
   -0.6833    1.6375    0.0000 Cl  0  0  0  0  0  0  0  0  0  0  0  0
   -3.2833   -0.6042    0.0000 C   0  0  0  0  0  0  0  0  0  0  0  0
   -3.2833   -1.3542    0.0000 Cl  0  0  0  0  0  0  0  0  0  0  0  0
   -3.9333    0.5208    0.0000 C   0  0  0  0  0  0  0  0  0  0  0  0
   -2.6333    0.5208    0.0000 C   0  0  0  0  0  0  0  0  0  0  0  0
   -3.9333   -0.2292    0.0000 C   0  0  0  0  0  0  0  0  0  0  0  0
   -2.6333   -0.2292    0.0000 C   0  0  0  0  0  0  0  0  0  0  0  0
  2  5  1  0  0  0  0
  3  1  1  0  0  0  0
  4  3  1  0  0  0  0
  5 15  2  0  0  0  0
  6  1  2  0  0  0  0
  7  1  1  0  0  0  0
  8 11  2  0  0  0  0
  9  4  1  0  0  0  0
 10  7  3  0  0  0  0
 11  9  1  0  0  0  0
 12  2  1  0  0  0  0
 13  2  2  0  0  0  0
 14  3  2  0  0  0  0
 15 16  1  0  0  0  0
 16  9  2  0  0  0  0
 17  6  1  0  0  0  0
 18 11  1  0  0  0  0
 19 24  1  0  0  0  0
 20 19  1  0  0  0  0
 21 17  2  0  0  0  0
 22 17  1  0  0  0  0
 23 21  1  0  0  0  0
 24 22  2  0  0  0  0
 19 23  2  0  0  0  0
  8  5  1  0  0  0  0
M  CHG  2   2   1  12  -1
M  END
> <IDNUMBER>
F0762-0368

> <Chemical_Name>
(2Z)-N-(2-chloro-4-nitrophenyl)-3-(4-chlorophenyl)-2-cyanoprop-2-enamide

> <CAS>
332918-34-0

> <PriceCoeff>
1.00

> <MW>
362.17

> <Description>
solid

> <FSP3>
0.00

> <clogP>
3.95

> <TPSA>
96.03

> <Acceptor>
4

> <Donor>
1

> <RotBonds>
4

> <HAC>
24

> <Collection>
General

$$$$
F1366-0066
  -ISIS-  06222321142D

 31 34  0  0  0  0  0  0  0  0999 V2000
   -1.1625    2.3833    0.0000 C   0  0  0  0  0  0  0  0  0  0  0  0
   -1.6458    1.7208    0.0000 N   0  0  3  0  0  0  0  0  0  0  0  0
   -0.3375    2.3750    0.0000 N   0  0  0  0  0  0  0  0  0  0  0  0
    2.5042    1.6708    0.0000 N   0  0  3  0  0  0  0  0  0  0  0  0
   -1.6458    3.0500    0.0000 S   0  0  0  0  0  0  0  0  0  0  0  0
   -2.4333    1.9708    0.0000 C   0  0  0  0  0  0  0  0  0  0  0  0
   -2.4333    2.7958    0.0000 C   0  0  0  0  0  0  0  0  0  0  0  0
    0.0750    3.0875    0.0000 C   0  0  0  0  0  0  0  0  0  0  0  0
    2.1042    2.3833    0.0000 C   0  0  0  0  0  0  0  0  0  0  0  0
    3.3167    1.5500    0.0000 C   0  0  0  0  0  0  0  0  0  0  0  0
    2.1417    0.9458    0.0000 C   0  0  0  0  0  0  0  0  0  0  0  0
   -1.7625    0.9083    0.0000 C   0  0  0  0  0  0  0  0  0  0  0  0
    1.2917    2.3833    0.0000 C   0  0  0  0  0  0  0  0  0  0  0  0
    0.8875    3.0875    0.0000 C   0  0  0  0  0  0  0  0  0  0  0  0
   -3.1458    1.5583    0.0000 C   0  0  0  0  0  0  0  0  0  0  0  0
   -2.5208    0.6083    0.0000 C   0  0  0  0  0  0  0  0  0  0  0  0
   -3.1458    3.2083    0.0000 C   0  0  0  0  0  0  0  0  0  0  0  0
   -0.3375    3.8000    0.0000 O   0  0  0  0  0  0  0  0  0  0  0  0
    3.4542    0.7458    0.0000 C   0  0  0  0  0  0  0  0  0  0  0  0
    2.7417    0.3708    0.0000 C   0  0  0  0  0  0  0  0  0  0  0  0
    3.8917    2.1208    0.0000 O   0  0  0  0  0  0  0  0  0  0  0  0
    1.3417    0.8125    0.0000 O   0  0  0  0  0  0  0  0  0  0  0  0
   -2.6333   -0.2000    0.0000 O   0  0  0  0  0  0  0  0  0  0  0  0
   -3.8583    1.9708    0.0000 C   0  0  0  0  0  0  0  0  0  0  0  0
   -3.8583    2.7958    0.0000 C   0  0  0  0  0  0  0  0  0  0  0  0
   -3.1583    1.1083    0.0000 O   0  0  0  0  0  0  0  0  0  0  0  0
    2.5167    3.0833    0.0000 C   0  0  0  0  0  0  0  0  0  0  0  0
    1.3000    3.7958    0.0000 C   0  0  0  0  0  0  0  0  0  0  0  0
    2.1125    3.7958    0.0000 C   0  0  0  0  0  0  0  0  0  0  0  0
   -4.5625    3.2083    0.0000 C   0  0  0  0  0  0  0  0  0  0  0  0
   -3.9125    0.8083    0.0000 C   0  0  0  0  0  0  0  0  0  0  0  0
  2  1  1  0  0  0  0
  3  1  2  0  0  0  0
  4  9  1  0  0  0  0
  5  1  1  0  0  0  0
  6  2  1  0  0  0  0
  7  5  1  0  0  0  0
  8  3  1  0  0  0  0
  9 13  1  0  0  0  0
 10  4  1  0  0  0  0
 11  4  1  0  0  0  0
 12  2  1  0  0  0  0
 13 14  2  0  0  0  0
 14  8  1  0  0  0  0
 15  6  1  0  0  0  0
 16 12  1  0  0  0  0
 17  7  1  0  0  0  0
 18  8  2  0  0  0  0
 19 10  1  0  0  0  0
 20 11  1  0  0  0  0
 21 10  2  0  0  0  0
 22 11  2  0  0  0  0
 23 16  2  0  0  0  0
 24 15  2  0  0  0  0
 25 17  2  0  0  0  0
 26 16  1  0  0  0  0
 27 29  1  0  0  0  0
 28 14  1  0  0  0  0
 29 28  2  0  0  0  0
 30 25  1  0  0  0  0
 31 26  1  0  0  0  0
  7  6  2  0  0  0  0
 25 24  1  0  0  0  0
 27  9  2  0  0  0  0
 20 19  1  0  0  0  0
M  END
> <IDNUMBER>
F1366-0066

> <Chemical_Name>
methyl 2-[(2Z)-2-{[3-(2,5-dioxopyrrolidin-1-yl)benzoyl]imino}-6-methyl-2,3-dihydro-1,3-benzothiazol-3-yl]acetate

> <CAS>
865197-38-2

> <PriceCoeff>
1.00

> <MW>
437.47

> <Description>
solid

> <FSP3>
0.23

> <clogP>
3.01

> <TPSA>
121.65

> <Acceptor>
5

> <Donor>
0

> <RotBonds>
6

> <HAC>
31

> <Collection>
General

$$$$
F1365-1104
  -ISIS-  06222321442D

 32 35  0  0  0  0  0  0  0  0999 V2000
   -1.1625    2.3833    0.0000 C   0  0  0  0  0  0  0  0  0  0  0  0
   -0.3375    2.3750    0.0000 N   0  0  0  0  0  0  0  0  0  0  0  0
   -1.6458    1.7208    0.0000 N   0  0  3  0  0  0  0  0  0  0  0  0
    3.3792    3.0708    0.0000 N   0  0  3  0  0  0  0  0  0  0  0  0
   -1.6458    3.0500    0.0000 S   0  0  0  0  0  0  0  0  0  0  0  0
   -4.5833    3.2125    0.0000 S   0  0  3  0  0  0  0  0  0  0  0  0
   -2.4333    2.7958    0.0000 C   0  0  0  0  0  0  0  0  0  0  0  0
   -2.4333    1.9708    0.0000 C   0  0  0  0  0  0  0  0  0  0  0  0
    0.0750    3.0875    0.0000 C   0  0  0  0  0  0  0  0  0  0  0  0
    3.8500    3.7583    0.0000 C   0  0  0  0  0  0  0  0  0  0  0  0
    3.8917    2.4250    0.0000 C   0  0  0  0  0  0  0  0  0  0  0  0
   -3.8583    2.7958    0.0000 C   0  0  0  0  0  0  0  0  0  0  0  0
   -3.1458    3.2083    0.0000 C   0  0  0  0  0  0  0  0  0  0  0  0
    2.5542    3.0833    0.0000 C   0  0  0  0  0  0  0  0  0  0  0  0
   -3.1458    1.5583    0.0000 C   0  0  0  0  0  0  0  0  0  0  0  0
    0.9000    3.0875    0.0000 C   0  0  0  0  0  0  0  0  0  0  0  0
   -5.0208    2.5083    0.0000 O   0  0  0  0  0  0  0  0  0  0  0  0
   -4.1458    3.9083    0.0000 O   0  0  0  0  0  0  0  0  0  0  0  0
   -0.3375    3.8000    0.0000 O   0  0  0  0  0  0  0  0  0  0  0  0
    4.6417    3.5250    0.0000 C   0  0  0  0  0  0  0  0  0  0  0  0
    4.6667    2.7083    0.0000 C   0  0  0  0  0  0  0  0  0  0  0  0
   -3.8583    1.9708    0.0000 C   0  0  0  0  0  0  0  0  0  0  0  0
    3.5667    4.5417    0.0000 O   0  0  0  0  0  0  0  0  0  0  0  0
    3.6667    1.6333    0.0000 O   0  0  0  0  0  0  0  0  0  0  0  0
    2.1417    3.8000    0.0000 C   0  0  0  0  0  0  0  0  0  0  0  0
    2.1292    2.3708    0.0000 C   0  0  0  0  0  0  0  0  0  0  0  0
    1.3125    2.3833    0.0000 C   0  0  0  0  0  0  0  0  0  0  0  0
    1.3250    3.8083    0.0000 C   0  0  0  0  0  0  0  0  0  0  0  0
   -1.9458    0.3208    0.0000 C   0  0  0  0  0  0  0  0  0  0  0  0
   -1.3958    0.9333    0.0000 C   0  0  0  0  0  0  0  0  0  0  0  0
   -2.7500    0.4875    0.0000 C   0  0  0  0  0  0  0  0  0  0  0  0
   -5.2833    3.6458    0.0000 C   0  0  0  0  0  0  0  0  0  0  0  0
  2  1  2  0  0  0  0
  3  1  1  0  0  0  0
  4 14  1  0  0  0  0
  5  1  1  0  0  0  0
  6 12  1  0  0  0  0
  7  5  1  0  0  0  0
  8  3  1  0  0  0  0
  9  2  1  0  0  0  0
 10  4  1  0  0  0  0
 11  4  1  0  0  0  0
 12 13  2  0  0  0  0
 13  7  1  0  0  0  0
 14 25  1  0  0  0  0
 15  8  1  0  0  0  0
 16  9  1  0  0  0  0
 17  6  2  0  0  0  0
 18  6  2  0  0  0  0
 19  9  2  0  0  0  0
 20 10  1  0  0  0  0
 21 11  1  0  0  0  0
 22 15  2  0  0  0  0
 23 10  2  0  0  0  0
 24 11  2  0  0  0  0
 25 28  2  0  0  0  0
 26 27  1  0  0  0  0
 27 16  2  0  0  0  0
 28 16  1  0  0  0  0
 29 30  1  0  0  0  0
 30  3  1  0  0  0  0
 31 29  2  0  0  0  0
 32  6  1  0  0  0  0
  8  7  2  0  0  0  0
 22 12  1  0  0  0  0
 14 26  2  0  0  0  0
 20 21  1  0  0  0  0
M  END
> <IDNUMBER>
F1365-1104

> <Chemical_Name>
4-(2,5-dioxopyrrolidin-1-yl)-N-[(2Z)-6-methanesulfonyl-3-(prop-2-en-1-yl)-2,3-dihydro-1,3-benzothiazol-2-ylidene]benzamide

> <CAS>
865175-58-2

> <PriceCoeff>
1.00

> <MW>
469.53

> <Description>
solid

> <FSP3>
0.18

> <clogP>
2.08

> <TPSA>
137.87

> <Acceptor>
5

> <Donor>
0

> <RotBonds>
6

> <HAC>
32

> <Collection>
General

$$$$
F1366-1164
  -ISIS-  06222321142D

 29 31  0  0  0  0  0  0  0  0999 V2000
   -1.1625    2.3833    0.0000 C   0  0  0  0  0  0  0  0  0  0  0  0
   -1.6458    1.7208    0.0000 N   0  0  3  0  0  0  0  0  0  0  0  0
    1.3000    3.7958    0.0000 N   0  0  3  0  0  0  0  0  0  0  0  0
   -0.3375    2.3750    0.0000 N   0  0  0  0  0  0  0  0  0  0  0  0
   -1.6458    3.0500    0.0000 S   0  0  0  0  0  0  0  0  0  0  0  0
   -4.5625    3.2083    0.0000 S   0  0  3  0  0  0  0  0  0  0  0  0
   -2.4333    2.7958    0.0000 C   0  0  0  0  0  0  0  0  0  0  0  0
   -2.4333    1.9708    0.0000 C   0  0  0  0  0  0  0  0  0  0  0  0
    2.1042    3.8708    0.0000 C   0  0  0  0  0  0  0  0  0  0  0  0
    0.9625    4.5292    0.0000 C   0  0  0  0  0  0  0  0  0  0  0  0
    0.0750    3.0875    0.0000 C   0  0  0  0  0  0  0  0  0  0  0  0
   -3.8583    2.7958    0.0000 C   0  0  0  0  0  0  0  0  0  0  0  0
   -3.1458    3.2083    0.0000 C   0  0  0  0  0  0  0  0  0  0  0  0
    0.8875    3.0875    0.0000 C   0  0  0  0  0  0  0  0  0  0  0  0
   -1.7625    0.9083    0.0000 C   0  0  0  0  0  0  0  0  0  0  0  0
   -3.1458    1.5583    0.0000 C   0  0  0  0  0  0  0  0  0  0  0  0
   -2.5208    0.6083    0.0000 C   0  0  0  0  0  0  0  0  0  0  0  0
   -4.1333    3.8833    0.0000 O   0  0  0  0  0  0  0  0  0  0  0  0
   -5.0083    2.5083    0.0000 O   0  0  0  0  0  0  0  0  0  0  0  0
    1.5625    5.0750    0.0000 C   0  0  0  0  0  0  0  0  0  0  0  0
    2.2750    4.6667    0.0000 C   0  0  0  0  0  0  0  0  0  0  0  0
   -3.8583    1.9708    0.0000 C   0  0  0  0  0  0  0  0  0  0  0  0
    0.1667    4.7042    0.0000 O   0  0  0  0  0  0  0  0  0  0  0  0
    2.6417    3.2708    0.0000 O   0  0  0  0  0  0  0  0  0  0  0  0
   -0.3375    3.8000    0.0000 O   0  0  0  0  0  0  0  0  0  0  0  0
   -2.6333   -0.2000    0.0000 O   0  0  0  0  0  0  0  0  0  0  0  0
   -5.2583    3.6333    0.0000 C   0  0  0  0  0  0  0  0  0  0  0  0
   -3.1583    1.1083    0.0000 O   0  0  0  0  0  0  0  0  0  0  0  0
   -3.9125    0.8083    0.0000 C   0  0  0  0  0  0  0  0  0  0  0  0
  2  1  1  0  0  0  0
  3 14  1  0  0  0  0
  4  1  2  0  0  0  0
  5  1  1  0  0  0  0
  6 12  1  0  0  0  0
  7  5  1  0  0  0  0
  8  2  1  0  0  0  0
  9  3  1  0  0  0  0
 10  3  1  0  0  0  0
 11  4  1  0  0  0  0
 12 13  2  0  0  0  0
 13  7  1  0  0  0  0
 14 11  1  0  0  0  0
 15  2  1  0  0  0  0
 16  8  1  0  0  0  0
 17 15  1  0  0  0  0
 18  6  2  0  0  0  0
 19  6  2  0  0  0  0
 20 10  1  0  0  0  0
 21  9  1  0  0  0  0
 22 16  2  0  0  0  0
 23 10  2  0  0  0  0
 24  9  2  0  0  0  0
 25 11  2  0  0  0  0
 26 17  2  0  0  0  0
 27  6  1  0  0  0  0
 28 17  1  0  0  0  0
 29 28  1  0  0  0  0
  7  8  2  0  0  0  0
 12 22  1  0  0  0  0
 20 21  1  0  0  0  0
M  END
> <IDNUMBER>
F1366-1164

> <Chemical_Name>
methyl 2-[(2Z)-2-{[2-(2,5-dioxopyrrolidin-1-yl)acetyl]imino}-6-methanesulfonyl-2,3-dihydro-1,3-benzothiazol-3-yl]acetate

> <CAS>
865198-51-2

> <PriceCoeff>
1.00

> <MW>
439.46

> <Description>
solid

> <FSP3>
0.35

> <clogP>
0.70

> <TPSA>
164.17

> <Acceptor>
7

> <Donor>
0

> <RotBonds>
7

> <HAC>
29

> <Collection>
General

$$$$
F1825-0063
  -ISIS-  06222321442D

 29 31  0  0  0  0  0  0  0  0999 V2000
   -2.4333    2.5625    0.0000 C   0  0  0  0  0  0  0  0  0  0  0  0
   -2.4333    1.7375    0.0000 C   0  0  0  0  0  0  0  0  0  0  0  0
   -3.1500    2.9833    0.0000 C   0  0  0  0  0  0  0  0  0  0  0  0
   -6.7167    4.1542    0.0000 N   0  3  0  0  0  0  0  0  0  0  0  0
   -1.7250    1.3333    0.0000 N   0  0  3  0  0  0  0  0  0  0  0  0
   -3.8625    2.5583    0.0000 N   0  0  0  0  0  0  0  0  0  0  0  0
   -5.9958    3.7958    0.0000 C   0  0  0  0  0  0  0  0  0  0  0  0
   -5.2833    4.1917    0.0000 C   0  0  0  0  0  0  0  0  0  0  0  0
   -4.5833    2.9708    0.0000 C   0  0  0  0  0  0  0  0  0  0  0  0
   -4.5708    3.7958    0.0000 C   0  0  0  0  0  0  0  0  0  0  0  0
   -1.7250    2.9833    0.0000 C   0  0  0  0  0  0  0  0  0  0  0  0
   -6.8250    4.9917    0.0000 O   0  5  0  0  0  0  0  0  0  0  0  0
   -1.7333    0.5083    0.0000 O   0  0  0  0  0  0  0  0  0  0  0  0
   -1.0125    1.7375    0.0000 C   0  0  0  0  0  0  0  0  0  0  0  0
   -7.4375    3.7833    0.0000 O   0  0  0  0  0  0  0  0  0  0  0  0
   -3.1500    1.3250    0.0000 O   0  0  0  0  0  0  0  0  0  0  0  0
   -1.0125    2.5625    0.0000 C   0  0  0  0  0  0  0  0  0  0  0  0
   -3.1583    3.8000    0.0000 O   0  0  0  0  0  0  0  0  0  0  0  0
   -5.9833    2.9708    0.0000 C   0  0  0  0  0  0  0  0  0  0  0  0
   -5.2833    2.5583    0.0000 C   0  0  0  0  0  0  0  0  0  0  0  0
   -3.8750    4.1792    0.0000 Cl  0  0  0  0  0  0  0  0  0  0  0  0
   -1.0208    0.0875    0.0000 C   0  0  0  0  0  0  0  0  0  0  0  0
   -1.0458   -2.3792    0.0000 C   0  0  0  0  0  0  0  0  0  0  0  0
   -1.0333   -0.7375    0.0000 C   0  0  0  0  0  0  0  0  0  0  0  0
   -1.0583   -3.2042    0.0000 F   0  0  0  0  0  0  0  0  0  0  0  0
   -0.3250   -1.9667    0.0000 C   0  0  0  0  0  0  0  0  0  0  0  0
   -1.7583   -1.9625    0.0000 C   0  0  0  0  0  0  0  0  0  0  0  0
   -0.3208   -1.1500    0.0000 C   0  0  0  0  0  0  0  0  0  0  0  0
   -1.7500   -1.1375    0.0000 C   0  0  0  0  0  0  0  0  0  0  0  0
  2  1  1  0  0  0  0
  3  1  1  0  0  0  0
  4  7  1  0  0  0  0
  5  2  1  0  0  0  0
  6  3  1  0  0  0  0
  7 19  2  0  0  0  0
  8 10  2  0  0  0  0
  9  6  1  0  0  0  0
 10  9  1  0  0  0  0
 11  1  2  0  0  0  0
 12  4  1  0  0  0  0
 13  5  1  0  0  0  0
 14 17  2  0  0  0  0
 15  4  2  0  0  0  0
 16  2  2  0  0  0  0
 17 11  1  0  0  0  0
 18  3  2  0  0  0  0
 19 20  1  0  0  0  0
 20  9  2  0  0  0  0
 21 10  1  0  0  0  0
 22 13  1  0  0  0  0
 23 27  2  0  0  0  0
 24 22  1  0  0  0  0
 25 23  1  0  0  0  0
 26 28  2  0  0  0  0
 27 29  1  0  0  0  0
 28 24  1  0  0  0  0
 29 24  2  0  0  0  0
  5 14  1  0  0  0  0
  7  8  1  0  0  0  0
 23 26  1  0  0  0  0
M  CHG  2   4   1  12  -1
M  END
> <IDNUMBER>
F1825-0063

> <Chemical_Name>
N-(2-chloro-4-nitrophenyl)-1-[(4-fluorophenyl)methoxy]-2-oxo-1,2-dihydropyridine-3-carboxamide

> <CAS>
868678-45-9

> <PriceCoeff>
1.00

> <MW>
417.78

> <Description>
solid

> <FSP3>
0.05

> <clogP>
1.94

> <TPSA>
101.78

> <Acceptor>
5

> <Donor>
1

> <RotBonds>
6

> <HAC>
29

> <Collection>
General

$$$$
F3385-1741
  -ISIS-  06222321442D

 33 37  0  0  0  0  0  0  0  0999 V2000
    3.1542   -0.7375    0.0000 C   0  0  0  0  0  0  0  0  0  0  0  0
    2.4375   -1.1542    0.0000 C   0  0  0  0  0  0  0  0  0  0  0  0
    1.7167   -0.7417    0.0000 C   0  0  0  0  0  0  0  0  0  0  0  0
    3.1542    0.0958    0.0000 C   0  0  0  0  0  0  0  0  0  0  0  0
    1.7167    0.0875    0.0000 C   0  0  0  0  0  0  0  0  0  0  0  0
    3.8750   -1.1500    0.0000 C   0  0  0  0  0  0  0  0  0  0  0  0
    2.4292    0.5125    0.0000 O   0  0  0  0  0  0  0  0  0  0  0  0
    5.2917   -1.1417    0.0000 C   0  0  0  0  0  0  0  0  0  0  0  0
    4.5792   -0.7292    0.0000 C   0  0  0  0  0  0  0  0  0  0  0  0
    1.0000   -1.1542    0.0000 C   0  0  0  0  0  0  0  0  0  0  0  0
    1.0000    0.5000    0.0000 C   0  0  0  0  0  0  0  0  0  0  0  0
    5.2917   -1.9750    0.0000 C   0  0  0  0  0  0  0  0  0  0  0  0
   -1.8583    0.4958    0.0000 C   0  0  0  0  0  0  0  0  0  0  0  0
    2.4417   -1.9792    0.0000 O   0  0  0  0  0  0  0  0  0  0  0  0
   -2.5708    0.0833    0.0000 C   0  0  0  0  0  0  0  0  0  0  0  0
    6.0125   -0.7167    0.0000 O   0  0  0  0  0  0  0  0  0  0  0  0
    3.8667   -1.9750    0.0000 C   0  0  0  0  0  0  0  0  0  0  0  0
    6.0167   -2.3875    0.0000 O   0  0  0  0  0  0  0  0  0  0  0  0
   -1.1458    0.0833    0.0000 C   0  0  0  0  0  0  0  0  0  0  0  0
    4.5875   -2.3792    0.0000 C   0  0  0  0  0  0  0  0  0  0  0  0
   -1.8583    1.3208    0.0000 O   0  0  0  0  0  0  0  0  0  0  0  0
    0.2875    0.0875    0.0000 C   0  0  0  0  0  0  0  0  0  0  0  0
   -0.4250    0.4958    0.0000 O   0  0  0  0  0  0  0  0  0  0  0  0
   -3.2833    0.5000    0.0000 C   0  0  0  0  0  0  0  0  0  0  0  0
   -2.5708   -0.7375    0.0000 C   0  0  0  0  0  0  0  0  0  0  0  0
    0.2875   -0.7417    0.0000 C   0  0  0  0  0  0  0  0  0  0  0  0
   -3.9958   -0.7375    0.0000 C   0  0  0  0  0  0  0  0  0  0  0  0
   -3.2833   -1.1500    0.0000 C   0  0  0  0  0  0  0  0  0  0  0  0
   -3.9958    0.0875    0.0000 C   0  0  0  0  0  0  0  0  0  0  0  0
   -4.7208   -1.1542    0.0000 O   0  0  0  0  0  0  0  0  0  0  0  0
    6.7292   -1.1375    0.0000 C   0  0  0  0  0  0  0  0  0  0  0  0
    6.7375   -1.9667    0.0000 C   0  0  0  0  0  0  0  0  0  0  0  0
   -4.7083   -1.9792    0.0000 C   0  0  0  0  0  0  0  0  0  0  0  0
  2  1  1  0  0  0  0
  3  2  1  0  0  0  0
  4  1  2  0  0  0  0
  5  7  1  0  0  0  0
  6  1  1  0  0  0  0
  7  4  1  0  0  0  0
  8  9  2  0  0  0  0
  9  6  1  0  0  0  0
 10  3  2  0  0  0  0
 11  5  2  0  0  0  0
 12 20  2  0  0  0  0
 13 19  1  0  0  0  0
 14  2  2  0  0  0  0
 15 13  1  0  0  0  0
 16  8  1  0  0  0  0
 17  6  2  0  0  0  0
 18 12  1  0  0  0  0
 19 23  1  0  0  0  0
 20 17  1  0  0  0  0
 21 13  2  0  0  0  0
 22 11  1  0  0  0  0
 23 22  1  0  0  0  0
 24 15  2  0  0  0  0
 25 15  1  0  0  0  0
 26 10  1  0  0  0  0
 27 28  1  0  0  0  0
 28 25  2  0  0  0  0
 29 24  1  0  0  0  0
 30 27  1  0  0  0  0
 31 16  1  0  0  0  0
 32 18  1  0  0  0  0
 33 30  1  0  0  0  0
  5  3  1  0  0  0  0
  8 12  1  0  0  0  0
 22 26  2  0  0  0  0
 32 31  1  0  0  0  0
 29 27  2  0  0  0  0
M  END
> <IDNUMBER>
F3385-1741

> <Chemical_Name>
3-(2,3-dihydro-1,4-benzodioxin-6-yl)-7-[2-(4-methoxyphenyl)-2-oxoethoxy]-4H-chromen-4-one

> <CAS>
858770-21-5

> <PriceCoeff>
1.00

> <MW>
444.43

> <Description>
solid

> <FSP3>
0.15

> <clogP>
4.20

> <TPSA>
80.29

> <Acceptor>
7

> <Donor>
0

> <RotBonds>
6

> <HAC>
33

> <Collection>
General

> <Reference_compound>
CHEMBL455048

> <Similarity>
0.8310

$$$$
F0752-0089
  -ISIS-  06222304352D

 21 22  0  0  0  0  0  0  0  0999 V2000
    2.3042    0.6583    0.0000 P   0  0  3  0  0  0  0  0  0  0  0  0
    2.3042    1.4708    0.0000 S   0  0  0  0  0  0  0  0  0  0  0  0
    1.4792    0.6583    0.0000 C   0  0  0  0  0  0  0  0  0  0  0  0
    2.3042   -0.1792    0.0000 C   0  0  0  0  0  0  0  0  0  0  0  0
    3.1125    0.6875    0.0000 S   0  0  0  0  0  0  0  0  0  0  0  0
    1.0750   -0.0667    0.0000 C   0  0  0  0  0  0  0  0  0  0  0  0
    1.5792   -0.5875    0.0000 C   0  0  0  0  0  0  0  0  0  0  0  0
    1.0875    1.3583    0.0000 C   0  0  0  0  0  0  0  0  0  0  0  0
    3.0292   -0.5875    0.0000 C   0  0  0  0  0  0  0  0  0  0  0  0
    3.0292   -1.4250    0.0000 C   0  0  0  0  0  0  0  0  0  0  0  0
    1.5792   -1.4125    0.0000 C   0  0  0  0  0  0  0  0  0  0  0  0
    0.2500   -0.0667    0.0000 C   0  0  0  0  0  0  0  0  0  0  0  0
    0.2500    1.3583    0.0000 C   0  0  0  0  0  0  0  0  0  0  0  0
   -0.1583    0.6583    0.0000 C   0  0  0  0  0  0  0  0  0  0  0  0
    2.3042   -1.8042    0.0000 C   0  0  0  0  0  0  0  0  0  0  0  0
    4.5833   -0.1042    0.0000 N   0  0  0  0  0  0  0  0  0  0  0  0
    6.2458   -0.1042    0.0000 O   0  0  0  0  0  0  0  0  0  0  0  0
    5.0000    0.6083    0.0000 C   0  0  0  0  0  0  0  0  0  0  0  0
    5.0000   -0.8292    0.0000 C   0  0  0  0  0  0  0  0  0  0  0  0
    5.8125   -0.8292    0.0000 C   0  0  0  0  0  0  0  0  0  0  0  0
    5.8250    0.6083    0.0000 C   0  0  0  0  0  0  0  0  0  0  0  0
  8  3  2  0  0  0  0
  9  4  1  0  0  0  0
 10  9  2  0  0  0  0
 11  7  1  0  0  0  0
 12  6  2  0  0  0  0
 13  8  1  0  0  0  0
 14 13  2  0  0  0  0
 15 10  1  0  0  0  0
 11 15  2  0  0  0  0
 12 14  1  0  0  0  0
  2  1  2  0  0  0  0
  3  1  1  0  0  0  0
  4  1  1  0  0  0  0
  5  1  1  0  0  0  0
  6  3  1  0  0  0  0
  7  4  2  0  0  0  0
 17 20  1  0  0  0  0
 18 16  1  0  0  0  0
 19 16  1  0  0  0  0
 20 19  1  0  0  0  0
 21 18  1  0  0  0  0
 21 17  1  0  0  0  0
M  END
> <IDNUMBER>
F0752-0089

> <Chemical_Name>
diphenyl(sulfanyl)-lambda5-phosphanethione; morpholine

> <CAS>
19855-99-3

> <PriceCoeff>
1.00

> <MW>
250.32

> <Description>
solid

> <FSP3>
0.00

> <clogP>
3.81

> <TPSA>
80.70

> <Acceptor>
1

> <Donor>
0

> <RotBonds>
2

> <HAC>
15

> <Collection>
General

> <Reference_compound>
PRI4279

> <Similarity>
1.0000

$$$$
F1815-0523
  -ISIS-  06222321452D

 30 33  0  0  0  0  0  0  0  0999 V2000
   -4.5833    2.5583    0.0000 C   0  0  0  0  0  0  0  0  0  0  0  0
   -3.8625    2.9833    0.0000 N   0  0  0  0  0  0  0  0  0  0  0  0
   -4.6750    1.7375    0.0000 N   0  0  3  0  0  0  0  0  0  0  0  0
   -1.0083    5.4292    0.0000 N   0  0  3  0  0  0  0  0  0  0  0  0
   -5.3125    2.8958    0.0000 S   0  0  0  0  0  0  0  0  0  0  0  0
   -5.4708    1.5833    0.0000 C   0  0  0  0  0  0  0  0  0  0  0  0
   -5.8750    2.2958    0.0000 C   0  0  0  0  0  0  0  0  0  0  0  0
   -3.8708    3.8000    0.0000 C   0  0  0  0  0  0  0  0  0  0  0  0
   -0.2500    5.1292    0.0000 C   0  0  0  0  0  0  0  0  0  0  0  0
   -0.9583    6.2542    0.0000 C   0  0  0  0  0  0  0  0  0  0  0  0
   -1.7250    5.0250    0.0000 C   0  0  0  0  0  0  0  0  0  0  0  0
   -3.1583    4.2042    0.0000 C   0  0  0  0  0  0  0  0  0  0  0  0
   -5.8958    0.8833    0.0000 C   0  0  0  0  0  0  0  0  0  0  0  0
   -4.5833    4.2125    0.0000 O   0  0  0  0  0  0  0  0  0  0  0  0
    0.2750    5.7625    0.0000 C   0  0  0  0  0  0  0  0  0  0  0  0
   -0.1500    6.4542    0.0000 C   0  0  0  0  0  0  0  0  0  0  0  0
   -0.0458    4.3292    0.0000 O   0  0  0  0  0  0  0  0  0  0  0  0
   -1.5958    6.8042    0.0000 O   0  0  0  0  0  0  0  0  0  0  0  0
   -1.7375    4.2042    0.0000 C   0  0  0  0  0  0  0  0  0  0  0  0
   -2.4458    5.4417    0.0000 C   0  0  0  0  0  0  0  0  0  0  0  0
   -3.1583    5.0292    0.0000 C   0  0  0  0  0  0  0  0  0  0  0  0
   -2.4500    3.8083    0.0000 C   0  0  0  0  0  0  0  0  0  0  0  0
   -4.0583    1.1750    0.0000 C   0  0  0  0  0  0  0  0  0  0  0  0
   -4.2458    0.3708    0.0000 C   0  0  0  0  0  0  0  0  0  0  0  0
   -3.6333   -0.1917    0.0000 C   0  0  0  0  0  0  0  0  0  0  0  0
   -6.6917    2.3208    0.0000 C   0  0  0  0  0  0  0  0  0  0  0  0
   -5.4958    0.1583    0.0000 O   0  0  0  0  0  0  0  0  0  0  0  0
   -7.1167    1.6125    0.0000 C   0  0  0  0  0  0  0  0  0  0  0  0
   -6.7042    0.8875    0.0000 C   0  0  0  0  0  0  0  0  0  0  0  0
   -5.9250   -0.5417    0.0000 C   0  0  0  0  0  0  0  0  0  0  0  0
  2  1  2  0  0  0  0
  3  1  1  0  0  0  0
  4 11  1  0  0  0  0
  5  1  1  0  0  0  0
  6  3  1  0  0  0  0
  7  5  1  0  0  0  0
  8  2  1  0  0  0  0
  9  4  1  0  0  0  0
 10  4  1  0  0  0  0
 11 19  2  0  0  0  0
 12  8  1  0  0  0  0
 13  6  1  0  0  0  0
 14  8  2  0  0  0  0
 15  9  1  0  0  0  0
 16 10  1  0  0  0  0
 17  9  2  0  0  0  0
 18 10  2  0  0  0  0
 19 22  1  0  0  0  0
 20 21  2  0  0  0  0
 21 12  1  0  0  0  0
 22 12  2  0  0  0  0
 23  3  1  0  0  0  0
 24 23  1  0  0  0  0
 25 24  2  0  0  0  0
 26  7  1  0  0  0  0
 27 13  1  0  0  0  0
 28 26  2  0  0  0  0
 29 13  2  0  0  0  0
 30 27  1  0  0  0  0
  6  7  2  0  0  0  0
 28 29  1  0  0  0  0
 20 11  1  0  0  0  0
 16 15  1  0  0  0  0
M  END
> <IDNUMBER>
F1815-0523

> <Chemical_Name>
4-(2,5-dioxopyrrolidin-1-yl)-N-[(2Z)-4-methoxy-3-(prop-2-en-1-yl)-2,3-dihydro-1,3-benzothiazol-2-ylidene]benzamide

> <CAS>
1322201-81-9

> <PriceCoeff>
1.00

> <MW>
421.47

> <Description>
solid

> <FSP3>
0.18

> <clogP>
3.64

> <TPSA>
104.58

> <Acceptor>
4

> <Donor>
0

> <RotBonds>
6

> <HAC>
30

> <Collection>
General

$$$$
F1815-0721
  -ISIS-  06222321452D

 30 33  0  0  0  0  0  0  0  0999 V2000
   -4.5833    2.5583    0.0000 C   0  0  0  0  0  0  0  0  0  0  0  0
   -3.8625    2.9833    0.0000 N   0  0  0  0  0  0  0  0  0  0  0  0
   -4.6750    1.7375    0.0000 N   0  0  3  0  0  0  0  0  0  0  0  0
   -1.0208    3.8000    0.0000 N   0  0  3  0  0  0  0  0  0  0  0  0
   -5.3125    2.8958    0.0000 S   0  0  0  0  0  0  0  0  0  0  0  0
   -5.4708    1.5833    0.0000 C   0  0  0  0  0  0  0  0  0  0  0  0
   -5.8750    2.2958    0.0000 C   0  0  0  0  0  0  0  0  0  0  0  0
   -3.8708    3.8000    0.0000 C   0  0  0  0  0  0  0  0  0  0  0  0
   -1.7333    4.2042    0.0000 C   0  0  0  0  0  0  0  0  0  0  0  0
   -0.9708    2.9833    0.0000 C   0  0  0  0  0  0  0  0  0  0  0  0
   -0.2583    4.0917    0.0000 C   0  0  0  0  0  0  0  0  0  0  0  0
   -2.4458    3.8083    0.0000 C   0  0  0  0  0  0  0  0  0  0  0  0
   -3.1583    4.2042    0.0000 C   0  0  0  0  0  0  0  0  0  0  0  0
   -5.8958    0.8833    0.0000 C   0  0  0  0  0  0  0  0  0  0  0  0
   -4.5833    4.2125    0.0000 O   0  0  0  0  0  0  0  0  0  0  0  0
   -0.1583    2.7833    0.0000 C   0  0  0  0  0  0  0  0  0  0  0  0
    0.2750    3.4708    0.0000 C   0  0  0  0  0  0  0  0  0  0  0  0
   -1.6083    2.4583    0.0000 O   0  0  0  0  0  0  0  0  0  0  0  0
   -0.0375    4.8875    0.0000 O   0  0  0  0  0  0  0  0  0  0  0  0
   -4.0583    1.1750    0.0000 C   0  0  0  0  0  0  0  0  0  0  0  0
   -4.2458    0.3708    0.0000 C   0  0  0  0  0  0  0  0  0  0  0  0
   -3.6333   -0.1917    0.0000 C   0  0  0  0  0  0  0  0  0  0  0  0
   -6.6917    2.3208    0.0000 C   0  0  0  0  0  0  0  0  0  0  0  0
   -1.7250    5.0292    0.0000 C   0  0  0  0  0  0  0  0  0  0  0  0
   -5.4958    0.1583    0.0000 O   0  0  0  0  0  0  0  0  0  0  0  0
   -3.1583    5.0292    0.0000 C   0  0  0  0  0  0  0  0  0  0  0  0
   -2.4375    5.4417    0.0000 C   0  0  0  0  0  0  0  0  0  0  0  0
   -7.1167    1.6125    0.0000 C   0  0  0  0  0  0  0  0  0  0  0  0
   -6.7042    0.8875    0.0000 C   0  0  0  0  0  0  0  0  0  0  0  0
   -5.9250   -0.5417    0.0000 C   0  0  0  0  0  0  0  0  0  0  0  0
  2  1  2  0  0  0  0
  3  1  1  0  0  0  0
  4  9  1  0  0  0  0
  5  1  1  0  0  0  0
  6  3  1  0  0  0  0
  7  5  1  0  0  0  0
  8  2  1  0  0  0  0
  9 12  1  0  0  0  0
 10  4  1  0  0  0  0
 11  4  1  0  0  0  0
 12 13  2  0  0  0  0
 13  8  1  0  0  0  0
 14  6  1  0  0  0  0
 15  8  2  0  0  0  0
 16 10  1  0  0  0  0
 17 11  1  0  0  0  0
 18 10  2  0  0  0  0
 19 11  2  0  0  0  0
 20  3  1  0  0  0  0
 21 20  1  0  0  0  0
 22 21  2  0  0  0  0
 23  7  1  0  0  0  0
 24 27  1  0  0  0  0
 25 14  1  0  0  0  0
 26 13  1  0  0  0  0
 27 26  2  0  0  0  0
 28 23  2  0  0  0  0
 29 14  2  0  0  0  0
 30 25  1  0  0  0  0
  6  7  2  0  0  0  0
 28 29  1  0  0  0  0
 24  9  2  0  0  0  0
 17 16  1  0  0  0  0
M  END
> <IDNUMBER>
F1815-0721

> <Chemical_Name>
3-(2,5-dioxopyrrolidin-1-yl)-N-[(2Z)-4-methoxy-3-(prop-2-en-1-yl)-2,3-dihydro-1,3-benzothiazol-2-ylidene]benzamide

> <CAS>
868376-47-0

> <PriceCoeff>
1.00

> <MW>
421.47

> <Description>
solid

> <FSP3>
0.18

> <clogP>
3.64

> <TPSA>
104.58

> <Acceptor>
4

> <Donor>
0

> <RotBonds>
6

> <HAC>
30

> <Collection>
General

$$$$
F1297-0137
  -ISIS-  06222321442D

 30 33  0  0  0  0  0  0  0  0999 V2000
   -1.8875    3.0083    0.0000 C   0  0  0  0  0  0  0  0  0  0  0  0
   -1.0625    3.0083    0.0000 N   0  0  0  0  0  0  0  0  0  0  0  0
   -2.3708    2.3375    0.0000 N   0  0  3  0  0  0  0  0  0  0  0  0
    2.6375    2.2875    0.0000 N   0  0  3  0  0  0  0  0  0  0  0  0
   -2.3708    3.6750    0.0000 S   0  0  0  0  0  0  0  0  0  0  0  0
   -3.1583    2.5958    0.0000 C   0  0  0  0  0  0  0  0  0  0  0  0
   -3.1583    3.4208    0.0000 C   0  0  0  0  0  0  0  0  0  0  0  0
   -0.6500    2.2958    0.0000 C   0  0  0  0  0  0  0  0  0  0  0  0
    3.1417    1.6583    0.0000 C   0  0  0  0  0  0  0  0  0  0  0  0
    3.0917    2.9708    0.0000 C   0  0  0  0  0  0  0  0  0  0  0  0
    1.8167    2.2875    0.0000 C   0  0  0  0  0  0  0  0  0  0  0  0
    0.1667    2.2958    0.0000 C   0  0  0  0  0  0  0  0  0  0  0  0
   -3.8708    2.1833    0.0000 C   0  0  0  0  0  0  0  0  0  0  0  0
   -1.0583    1.5875    0.0000 O   0  0  0  0  0  0  0  0  0  0  0  0
    3.9125    1.9375    0.0000 C   0  0  0  0  0  0  0  0  0  0  0  0
    3.8792    2.7458    0.0000 C   0  0  0  0  0  0  0  0  0  0  0  0
    2.9250    0.8625    0.0000 O   0  0  0  0  0  0  0  0  0  0  0  0
    2.8042    3.7583    0.0000 O   0  0  0  0  0  0  0  0  0  0  0  0
    1.4042    3.0083    0.0000 C   0  0  0  0  0  0  0  0  0  0  0  0
    1.4000    1.5875    0.0000 C   0  0  0  0  0  0  0  0  0  0  0  0
    0.5750    1.5958    0.0000 C   0  0  0  0  0  0  0  0  0  0  0  0
    0.5792    3.0208    0.0000 C   0  0  0  0  0  0  0  0  0  0  0  0
   -2.1208    1.5583    0.0000 C   0  0  0  0  0  0  0  0  0  0  0  0
   -3.8708    3.8333    0.0000 C   0  0  0  0  0  0  0  0  0  0  0  0
   -3.8708    1.3583    0.0000 O   0  0  0  0  0  0  0  0  0  0  0  0
   -4.5833    3.4208    0.0000 C   0  0  0  0  0  0  0  0  0  0  0  0
   -4.5833    2.5958    0.0000 C   0  0  0  0  0  0  0  0  0  0  0  0
   -4.5833    0.9500    0.0000 C   0  0  0  0  0  0  0  0  0  0  0  0
   -2.6708    0.9458    0.0000 C   0  0  0  0  0  0  0  0  0  0  0  0
   -4.5833    0.1250    0.0000 C   0  0  0  0  0  0  0  0  0  0  0  0
  2  1  2  0  0  0  0
  3  1  1  0  0  0  0
  4 11  1  0  0  0  0
  5  1  1  0  0  0  0
  6  3  1  0  0  0  0
  7  5  1  0  0  0  0
  8  2  1  0  0  0  0
  9  4  1  0  0  0  0
 10  4  1  0  0  0  0
 11 19  1  0  0  0  0
 12  8  1  0  0  0  0
 13  6  1  0  0  0  0
 14  8  2  0  0  0  0
 15  9  1  0  0  0  0
 16 10  1  0  0  0  0
 17  9  2  0  0  0  0
 18 10  2  0  0  0  0
 19 22  2  0  0  0  0
 20 21  1  0  0  0  0
 21 12  2  0  0  0  0
 22 12  1  0  0  0  0
 23  3  1  0  0  0  0
 24  7  1  0  0  0  0
 25 13  1  0  0  0  0
 26 24  2  0  0  0  0
 27 13  2  0  0  0  0
 28 25  1  0  0  0  0
 29 23  1  0  0  0  0
 30 28  1  0  0  0  0
  6  7  2  0  0  0  0
 27 26  1  0  0  0  0
 11 20  2  0  0  0  0
 16 15  1  0  0  0  0
M  END
> <IDNUMBER>
F1297-0137

> <Chemical_Name>
4-(2,5-dioxopyrrolidin-1-yl)-N-[(2E)-4-ethoxy-3-ethyl-2,3-dihydro-1,3-benzothiazol-2-ylidene]benzamide

> <CAS>
864925-49-5

> <PriceCoeff>
1.00

> <MW>
423.48

> <Description>
solid

> <FSP3>
0.27

> <clogP>
3.93

> <TPSA>
104.58

> <Acceptor>
4

> <Donor>
0

> <RotBonds>
6

> <HAC>
30

> <Collection>
General

$$$$
F1365-2310
  -ISIS-  06222321452D

 29 32  0  0  0  0  0  0  0  0999 V2000
   -1.1625    2.3833    0.0000 C   0  0  0  0  0  0  0  0  0  0  0  0
   -0.3375    2.3750    0.0000 N   0  0  0  0  0  0  0  0  0  0  0  0
    2.5542    1.6500    0.0000 N   0  0  3  0  0  0  0  0  0  0  0  0
   -1.6458    1.7208    0.0000 N   0  0  3  0  0  0  0  0  0  0  0  0
   -1.6458    3.0500    0.0000 S   0  0  0  0  0  0  0  0  0  0  0  0
   -2.4333    2.7958    0.0000 C   0  0  0  0  0  0  0  0  0  0  0  0
   -2.4333    1.9708    0.0000 C   0  0  0  0  0  0  0  0  0  0  0  0
    0.0750    3.0875    0.0000 C   0  0  0  0  0  0  0  0  0  0  0  0
    2.1292    2.3708    0.0000 C   0  0  0  0  0  0  0  0  0  0  0  0
    3.3667    1.5333    0.0000 C   0  0  0  0  0  0  0  0  0  0  0  0
    2.1750    0.9125    0.0000 C   0  0  0  0  0  0  0  0  0  0  0  0
    1.3125    2.3750    0.0000 C   0  0  0  0  0  0  0  0  0  0  0  0
    0.9000    3.0875    0.0000 C   0  0  0  0  0  0  0  0  0  0  0  0
   -3.1458    3.2083    0.0000 C   0  0  0  0  0  0  0  0  0  0  0  0
   -1.9458    0.3208    0.0000 C   0  0  0  0  0  0  0  0  0  0  0  0
   -2.4958   -0.2917    0.0000 C   0  0  0  0  0  0  0  0  0  0  0  0
   -3.1458    1.5583    0.0000 C   0  0  0  0  0  0  0  0  0  0  0  0
   -0.3375    3.8000    0.0000 O   0  0  0  0  0  0  0  0  0  0  0  0
    3.5042    0.7125    0.0000 C   0  0  0  0  0  0  0  0  0  0  0  0
    2.7792    0.3250    0.0000 C   0  0  0  0  0  0  0  0  0  0  0  0
    3.9500    2.1083    0.0000 O   0  0  0  0  0  0  0  0  0  0  0  0
    1.3667    0.7833    0.0000 O   0  0  0  0  0  0  0  0  0  0  0  0
   -1.3958    0.9333    0.0000 C   0  0  0  0  0  0  0  0  0  0  0  0
   -3.8583    2.7958    0.0000 C   0  0  0  0  0  0  0  0  0  0  0  0
   -3.8583    1.9708    0.0000 C   0  0  0  0  0  0  0  0  0  0  0  0
   -4.5833    3.2125    0.0000 Cl  0  0  0  0  0  0  0  0  0  0  0  0
    2.5542    3.0833    0.0000 C   0  0  0  0  0  0  0  0  0  0  0  0
    1.3167    3.8083    0.0000 C   0  0  0  0  0  0  0  0  0  0  0  0
    2.1417    3.8000    0.0000 C   0  0  0  0  0  0  0  0  0  0  0  0
  2  1  2  0  0  0  0
  3  9  1  0  0  0  0
  4  1  1  0  0  0  0
  5  1  1  0  0  0  0
  6  5  1  0  0  0  0
  7  4  1  0  0  0  0
  8  2  1  0  0  0  0
  9 12  1  0  0  0  0
 10  3  1  0  0  0  0
 11  3  1  0  0  0  0
 12 13  2  0  0  0  0
 13  8  1  0  0  0  0
 14  6  1  0  0  0  0
 15 23  1  0  0  0  0
 16 15  3  0  0  0  0
 17  7  1  0  0  0  0
 18  8  2  0  0  0  0
 19 10  1  0  0  0  0
 20 11  1  0  0  0  0
 21 10  2  0  0  0  0
 22 11  2  0  0  0  0
 23  4  1  0  0  0  0
 24 14  2  0  0  0  0
 25 17  2  0  0  0  0
 26 24  1  0  0  0  0
 27 29  1  0  0  0  0
 28 13  1  0  0  0  0
 29 28  2  0  0  0  0
  7  6  2  0  0  0  0
 25 24  1  0  0  0  0
  9 27  2  0  0  0  0
 19 20  1  0  0  0  0
M  END
> <IDNUMBER>
F1365-2310

> <Chemical_Name>
N-[(2Z)-6-chloro-3-(prop-2-yn-1-yl)-2,3-dihydro-1,3-benzothiazol-2-ylidene]-3-(2,5-dioxopyrrolidin-1-yl)benzamide

> <CAS>
941917-06-2

> <PriceCoeff>
1.00

> <MW>
423.87

> <Description>
solid

> <FSP3>
0.14

> <clogP>
3.76

> <TPSA>
95.35

> <Acceptor>
3

> <Donor>
0

> <RotBonds>
5

> <HAC>
29

> <Collection>
General

$$$$
F1359-2574
  -ISIS-  06222321142D

 31 34  0  0  0  0  0  0  0  0999 V2000
   -1.1625    2.3833    0.0000 C   0  0  0  0  0  0  0  0  0  0  0  0
   -0.3375    2.3750    0.0000 N   0  0  0  0  0  0  0  0  0  0  0  0
    2.5542    1.6500    0.0000 N   0  0  3  0  0  0  0  0  0  0  0  0
   -1.6458    1.7208    0.0000 N   0  0  3  0  0  0  0  0  0  0  0  0
   -1.6458    3.0500    0.0000 S   0  0  0  0  0  0  0  0  0  0  0  0
   -2.4333    2.7958    0.0000 C   0  0  0  0  0  0  0  0  0  0  0  0
   -2.4333    1.9708    0.0000 C   0  0  0  0  0  0  0  0  0  0  0  0
    0.0750    3.0875    0.0000 C   0  0  0  0  0  0  0  0  0  0  0  0
    2.1292    2.3708    0.0000 C   0  0  0  0  0  0  0  0  0  0  0  0
    3.3667    1.5333    0.0000 C   0  0  0  0  0  0  0  0  0  0  0  0
    2.1750    0.9125    0.0000 C   0  0  0  0  0  0  0  0  0  0  0  0
    1.3125    2.3750    0.0000 C   0  0  0  0  0  0  0  0  0  0  0  0
    0.9000    3.0875    0.0000 C   0  0  0  0  0  0  0  0  0  0  0  0
   -3.1458    3.2083    0.0000 C   0  0  0  0  0  0  0  0  0  0  0  0
   -3.1458    1.5583    0.0000 C   0  0  0  0  0  0  0  0  0  0  0  0
   -0.3375    3.8000    0.0000 O   0  0  0  0  0  0  0  0  0  0  0  0
    3.5042    0.7125    0.0000 C   0  0  0  0  0  0  0  0  0  0  0  0
    2.7792    0.3250    0.0000 C   0  0  0  0  0  0  0  0  0  0  0  0
    3.9500    2.1083    0.0000 O   0  0  0  0  0  0  0  0  0  0  0  0
    1.3667    0.7833    0.0000 O   0  0  0  0  0  0  0  0  0  0  0  0
   -3.8583    2.7958    0.0000 C   0  0  0  0  0  0  0  0  0  0  0  0
   -1.3958    0.9333    0.0000 C   0  0  0  0  0  0  0  0  0  0  0  0
   -3.8583    1.9708    0.0000 C   0  0  0  0  0  0  0  0  0  0  0  0
   -4.5833    3.2125    0.0000 F   0  0  0  0  0  0  0  0  0  0  0  0
    2.5542    3.0833    0.0000 C   0  0  0  0  0  0  0  0  0  0  0  0
    1.3167    3.8083    0.0000 C   0  0  0  0  0  0  0  0  0  0  0  0
    2.1417    3.8000    0.0000 C   0  0  0  0  0  0  0  0  0  0  0  0
   -2.7458    0.4875    0.0000 O   0  0  0  0  0  0  0  0  0  0  0  0
   -1.9458    0.3208    0.0000 C   0  0  0  0  0  0  0  0  0  0  0  0
   -3.3125   -0.1167    0.0000 C   0  0  0  0  0  0  0  0  0  0  0  0
   -4.1208    0.0583    0.0000 C   0  0  0  0  0  0  0  0  0  0  0  0
  2  1  2  0  0  0  0
  3  9  1  0  0  0  0
  4  1  1  0  0  0  0
  5  1  1  0  0  0  0
  6  5  1  0  0  0  0
  7  4  1  0  0  0  0
  8  2  1  0  0  0  0
  9 12  1  0  0  0  0
 10  3  1  0  0  0  0
 11  3  1  0  0  0  0
 12 13  2  0  0  0  0
 13  8  1  0  0  0  0
 14  6  1  0  0  0  0
 15  7  1  0  0  0  0
 16  8  2  0  0  0  0
 17 10  1  0  0  0  0
 18 11  1  0  0  0  0
 19 10  2  0  0  0  0
 20 11  2  0  0  0  0
 21 14  2  0  0  0  0
 22  4  1  0  0  0  0
 23 15  2  0  0  0  0
 24 21  1  0  0  0  0
 25 27  1  0  0  0  0
 26 13  1  0  0  0  0
 27 26  2  0  0  0  0
 28 29  1  0  0  0  0
 29 22  1  0  0  0  0
 30 28  1  0  0  0  0
 31 30  1  0  0  0  0
  7  6  2  0  0  0  0
 23 21  1  0  0  0  0
  9 25  2  0  0  0  0
 17 18  1  0  0  0  0
M  END
> <IDNUMBER>
F1359-2574

> <Chemical_Name>
3-(2,5-dioxopyrrolidin-1-yl)-N-[(2Z)-3-(2-ethoxyethyl)-6-fluoro-2,3-dihydro-1,3-benzothiazol-2-ylidene]benzamide

> <CAS>
897616-35-2

> <PriceCoeff>
1.00

> <MW>
441.48

> <Description>
solid

> <FSP3>
0.27

> <clogP>
3.15

> <TPSA>
104.58

> <Acceptor>
4

> <Donor>
0

> <RotBonds>
7

> <HAC>
31

> <Collection>
General

$$$$
F1673-4093
  -ISIS-  06222321442D

 30 32  0  0  0  0  0  0  0  0999 V2000
    0.3000   -2.3917    0.0000 S   0  0  3  0  0  0  0  0  0  0  0  0
    0.8042    1.0500    0.0000 N   0  3  0  0  0  0  0  0  0  0  0  0
    0.8042    0.3458    0.0000 C   0  0  0  0  0  0  0  0  0  0  0  0
    2.0375   -1.0792    0.0000 C   0  0  0  0  0  0  0  0  0  0  0  0
    2.0375   -1.7917    0.0000 N   0  0  3  0  0  0  0  0  0  0  0  0
    0.7750   -1.8667    0.0000 C   0  0  0  0  0  0  0  0  0  0  0  0
    1.4167   -0.0125    0.0000 C   0  0  0  0  0  0  0  0  0  0  0  0
    1.4167   -0.7250    0.0000 C   0  0  0  0  0  0  0  0  0  0  0  0
    1.4250   -2.1500    0.0000 C   0  0  3  0  0  0  0  0  0  0  0  0
    0.1875   -0.0125    0.0000 C   0  0  0  0  0  0  0  0  0  0  0  0
   -0.2958   -2.7917    0.0000 O   0  0  0  0  0  0  0  0  0  0  0  0
   -0.1083   -1.8125    0.0000 O   0  0  0  0  0  0  0  0  0  0  0  0
    1.4167    1.4083    0.0000 O   0  5  0  0  0  0  0  0  0  0  0  0
    1.3542   -2.8625    0.0000 C   0  0  0  0  0  0  0  0  0  0  0  0
    0.1875    1.4083    0.0000 O   0  0  0  0  0  0  0  0  0  0  0  0
    2.6542   -2.1417    0.0000 C   0  0  0  0  0  0  0  0  0  0  0  0
    0.6542   -3.0125    0.0000 C   0  0  0  0  0  0  0  0  0  0  0  0
    2.6542   -0.7167    0.0000 O   0  0  0  0  0  0  0  0  0  0  0  0
    4.5042   -1.0750    0.0000 C   0  0  0  0  0  0  0  0  0  0  0  0
    5.1125   -0.7167    0.0000 N   0  0  3  0  0  0  0  0  0  0  0  0
    0.8042   -1.0792    0.0000 C   0  0  0  0  0  0  0  0  0  0  0  0
    0.1917   -0.7292    0.0000 C   0  0  0  0  0  0  0  0  0  0  0  0
    3.8792   -0.7167    0.0000 C   0  0  0  0  0  0  0  0  0  0  0  0
    4.5042   -1.7875    0.0000 C   0  0  0  0  0  0  0  0  0  0  0  0
    3.2750   -1.7875    0.0000 C   0  0  0  0  0  0  0  0  0  0  0  0
   -0.4250    0.3375    0.0000 Cl  0  0  0  0  0  0  0  0  0  0  0  0
    3.2667   -1.0792    0.0000 C   0  0  0  0  0  0  0  0  0  0  0  0
    3.8917   -2.1417    0.0000 C   0  0  0  0  0  0  0  0  0  0  0  0
    5.7292   -1.0667    0.0000 C   0  0  0  0  0  0  0  0  0  0  0  0
    5.1042   -0.0042    0.0000 C   0  0  0  0  0  0  0  0  0  0  0  0
  2  3  1  0  0  0  0
  3  7  1  0  0  0  0
  4  5  1  0  0  0  0
  5  9  1  0  0  0  0
  6  1  1  0  0  0  0
  7  8  2  0  0  0  0
  8  4  1  0  0  0  0
  9  6  1  0  0  0  0
 10 22  1  0  0  0  0
 11  1  2  0  0  0  0
 12  1  2  0  0  0  0
 13  2  1  0  0  0  0
 14 17  1  0  0  0  0
 15  2  2  0  0  0  0
 16  5  1  0  0  0  0
 17  1  1  0  0  0  0
 18  4  2  0  0  0  0
 19 24  2  0  0  0  0
 20 19  1  0  0  0  0
 21  8  1  0  0  0  0
 22 21  2  0  0  0  0
 23 27  2  0  0  0  0
 24 28  1  0  0  0  0
 25 16  1  0  0  0  0
 26 10  1  0  0  0  0
 27 25  1  0  0  0  0
 28 25  2  0  0  0  0
 29 20  1  0  0  0  0
 30 20  1  0  0  0  0
 14  9  1  0  0  0  0
 19 23  1  0  0  0  0
 10  3  2  0  0  0  0
M  CHG  2   2   1  13  -1
M  END
> <IDNUMBER>
F1673-4093

> <Chemical_Name>
4-chloro-N-{[4-(dimethylamino)phenyl]methyl}-N-(1,1-dioxo-1lambda6-thiolan-3-yl)-3-nitrobenzamide

> <CAS>
577964-42-2

> <PriceCoeff>
1.00

> <MW>
451.92

> <Description>
solid

> <FSP3>
0.35

> <clogP>
2.37

> <TPSA>
109.21

> <Acceptor>
6

> <Donor>
1

> <RotBonds>
7

> <HAC>
30

> <Collection>
General

$$$$
F5526-0591
  -ISIS-  06222321442D

 25 27  0  0  0  0  0  0  0  0999 V2000
   -4.0625    1.8750    0.0000 N   0  3  0  0  0  0  0  0  0  0  0  0
   -3.4083    2.2583    0.0000 C   0  0  0  0  0  0  0  0  0  0  0  0
   -3.4083    3.0083    0.0000 C   0  0  0  0  0  0  0  0  0  0  0  0
   -2.7583    4.1292    0.0000 C   0  0  0  0  0  0  0  0  0  0  0  0
   -2.7583    3.3833    0.0000 C   0  0  0  0  0  0  0  0  0  0  0  0
   -5.3583    7.8792    0.0000 C   0  0  0  0  0  0  0  0  0  0  0  0
   -2.7583    1.8833    0.0000 C   0  0  0  0  0  0  0  0  0  0  0  0
   -4.7208    2.2500    0.0000 O   0  5  0  0  0  0  0  0  0  0  0  0
   -4.7083    7.5042    0.0000 C   0  0  0  0  0  0  0  0  0  0  0  0
   -6.0000    7.5042    0.0000 C   0  0  0  0  0  0  0  0  0  0  0  0
   -4.0625    1.1250    0.0000 O   0  0  0  0  0  0  0  0  0  0  0  0
   -5.5208    8.6167    0.0000 O   0  0  0  0  0  0  0  0  0  0  0  0
   -6.5542    8.0042    0.0000 O   0  0  0  0  0  0  0  0  0  0  0  0
   -6.2500    8.6917    0.0000 C   0  0  0  0  0  0  0  0  0  0  0  0
   -2.1125    4.5042    0.0000 O   0  0  0  0  0  0  0  0  0  0  0  0
   -2.1125    3.0083    0.0000 C   0  0  0  0  0  0  0  0  0  0  0  0
   -2.1125    2.2583    0.0000 C   0  0  0  0  0  0  0  0  0  0  0  0
   -6.0000    6.7542    0.0000 C   0  0  0  0  0  0  0  0  0  0  0  0
   -3.4083    4.5042    0.0000 N   0  0  0  0  0  0  0  0  0  0  0  0
   -4.7083    6.7542    0.0000 C   0  0  0  0  0  0  0  0  0  0  0  0
   -2.7500    1.1333    0.0000 Cl  0  0  0  0  0  0  0  0  0  0  0  0
   -5.3583    6.3792    0.0000 C   0  0  0  0  0  0  0  0  0  0  0  0
   -4.0500    6.3792    0.0000 O   0  0  0  0  0  0  0  0  0  0  0  0
   -3.4083    5.2542    0.0000 C   0  0  0  0  0  0  0  0  0  0  0  0
   -4.0500    5.6292    0.0000 C   0  0  0  0  0  0  0  0  0  0  0  0
  2  1  1  0  0  0  0
  3  2  1  0  0  0  0
  4  5  1  0  0  0  0
  5  3  2  0  0  0  0
  6  9  1  0  0  0  0
  7  2  2  0  0  0  0
  8  1  1  0  0  0  0
  9 20  2  0  0  0  0
 10 18  1  0  0  0  0
 11  1  2  0  0  0  0
 12  6  1  0  0  0  0
 13 10  1  0  0  0  0
 14 12  1  0  0  0  0
 15  4  2  0  0  0  0
 16 17  2  0  0  0  0
 17  7  1  0  0  0  0
 18 22  2  0  0  0  0
 19  4  1  0  0  0  0
 20 23  1  0  0  0  0
 21  7  1  0  0  0  0
 22 20  1  0  0  0  0
 23 25  1  0  0  0  0
 24 19  1  0  0  0  0
 25 24  1  0  0  0  0
  5 16  1  0  0  0  0
 10  6  2  0  0  0  0
 13 14  1  0  0  0  0
M  CHG  2   1   1   8  -1
M  END
> <IDNUMBER>
F5526-0591

> <Chemical_Name>
N-[2-(2H-1,3-benzodioxol-5-yloxy)ethyl]-4-chloro-3-nitrobenzamide

> <CAS>
1171792-46-3

> <PriceCoeff>
1.00

> <MW>
364.74

> <Description>
solid

> <FSP3>
0.19

> <clogP>
3.70

> <TPSA>
99.93

> <Acceptor>
6

> <Donor>
1

> <RotBonds>
6

> <HAC>
25

> <Collection>
General

$$$$
F1366-0858
  -ISIS-  06222321142D

 31 34  0  0  0  0  0  0  0  0999 V2000
   -1.1625    2.3833    0.0000 C   0  0  0  0  0  0  0  0  0  0  0  0
   -1.6458    1.7208    0.0000 N   0  0  3  0  0  0  0  0  0  0  0  0
   -0.3375    2.3750    0.0000 N   0  0  0  0  0  0  0  0  0  0  0  0
    2.5042    1.6708    0.0000 N   0  0  3  0  0  0  0  0  0  0  0  0
   -1.6458    3.0500    0.0000 S   0  0  0  0  0  0  0  0  0  0  0  0
   -2.4333    2.7958    0.0000 C   0  0  0  0  0  0  0  0  0  0  0  0
   -2.4333    1.9708    0.0000 C   0  0  0  0  0  0  0  0  0  0  0  0
    0.0750    3.0875    0.0000 C   0  0  0  0  0  0  0  0  0  0  0  0
    2.1042    2.3833    0.0000 C   0  0  0  0  0  0  0  0  0  0  0  0
    3.3167    1.5500    0.0000 C   0  0  0  0  0  0  0  0  0  0  0  0
    2.1417    0.9458    0.0000 C   0  0  0  0  0  0  0  0  0  0  0  0
   -1.7625    0.9083    0.0000 C   0  0  0  0  0  0  0  0  0  0  0  0
    1.2917    2.3833    0.0000 C   0  0  0  0  0  0  0  0  0  0  0  0
    0.8875    3.0875    0.0000 C   0  0  0  0  0  0  0  0  0  0  0  0
   -3.1458    3.2083    0.0000 C   0  0  0  0  0  0  0  0  0  0  0  0
   -3.1458    1.5583    0.0000 C   0  0  0  0  0  0  0  0  0  0  0  0
   -2.5208    0.6083    0.0000 C   0  0  0  0  0  0  0  0  0  0  0  0
   -0.3375    3.8000    0.0000 O   0  0  0  0  0  0  0  0  0  0  0  0
    3.4542    0.7458    0.0000 C   0  0  0  0  0  0  0  0  0  0  0  0
    2.7417    0.3708    0.0000 C   0  0  0  0  0  0  0  0  0  0  0  0
    3.8917    2.1208    0.0000 O   0  0  0  0  0  0  0  0  0  0  0  0
    1.3417    0.8125    0.0000 O   0  0  0  0  0  0  0  0  0  0  0  0
   -2.6333   -0.2000    0.0000 O   0  0  0  0  0  0  0  0  0  0  0  0
   -3.8583    2.7958    0.0000 C   0  0  0  0  0  0  0  0  0  0  0  0
   -3.8583    1.9708    0.0000 C   0  0  0  0  0  0  0  0  0  0  0  0
   -3.1583    1.1083    0.0000 O   0  0  0  0  0  0  0  0  0  0  0  0
   -4.5625    3.2083    0.0000 F   0  0  0  0  0  0  0  0  0  0  0  0
    2.5167    3.0833    0.0000 C   0  0  0  0  0  0  0  0  0  0  0  0
    1.3000    3.7958    0.0000 C   0  0  0  0  0  0  0  0  0  0  0  0
    2.1125    3.7958    0.0000 C   0  0  0  0  0  0  0  0  0  0  0  0
   -3.9125    0.8083    0.0000 C   0  0  0  0  0  0  0  0  0  0  0  0
  2  1  1  0  0  0  0
  3  1  2  0  0  0  0
  4  9  1  0  0  0  0
  5  1  1  0  0  0  0
  6  5  1  0  0  0  0
  7  2  1  0  0  0  0
  8  3  1  0  0  0  0
  9 13  1  0  0  0  0
 10  4  1  0  0  0  0
 11  4  1  0  0  0  0
 12  2  1  0  0  0  0
 13 14  2  0  0  0  0
 14  8  1  0  0  0  0
 15  6  1  0  0  0  0
 16  7  1  0  0  0  0
 17 12  1  0  0  0  0
 18  8  2  0  0  0  0
 19 10  1  0  0  0  0
 20 11  1  0  0  0  0
 21 10  2  0  0  0  0
 22 11  2  0  0  0  0
 23 17  2  0  0  0  0
 24 15  2  0  0  0  0
 25 16  2  0  0  0  0
 26 17  1  0  0  0  0
 27 24  1  0  0  0  0
 28 30  1  0  0  0  0
 29 14  1  0  0  0  0
 30 29  2  0  0  0  0
 31 26  1  0  0  0  0
  6  7  2  0  0  0  0
 24 25  1  0  0  0  0
 28  9  2  0  0  0  0
 20 19  1  0  0  0  0
M  END
> <IDNUMBER>
F1366-0858

> <Chemical_Name>
methyl 2-[(2Z)-2-{[3-(2,5-dioxopyrrolidin-1-yl)benzoyl]imino}-6-fluoro-2,3-dihydro-1,3-benzothiazol-3-yl]acetate

> <CAS>
865198-19-2

> <PriceCoeff>
1.00

> <MW>
441.43

> <Description>
solid

> <FSP3>
0.19

> <clogP>
2.65

> <TPSA>
121.65

> <Acceptor>
5

> <Donor>
0

> <RotBonds>
6

> <HAC>
31

> <Collection>
General

$$$$
F3115-0023
  -ISIS-  06222321152D

 24 26  0  0  0  0  0  0  0  0999 V2000
    0.7667    0.8208    0.0000 N   0  0  3  0  0  0  0  0  0  0  0  0
    0.4292    1.8833    0.0000 C   0  0  0  0  0  0  0  0  0  0  0  0
   -0.1333    0.1625    0.0000 C   0  0  0  0  0  0  0  0  0  0  0  0
   -1.0208    0.8500    0.0000 C   0  0  3  0  0  0  0  0  0  0  0  0
   -0.6958    1.8833    0.0000 C   0  0  0  0  0  0  0  0  0  0  0  0
   -3.2000   -1.2000    0.0000 C   0  0  0  0  0  0  0  0  0  0  0  0
   -2.0708    0.3708    0.0000 S   0  0  0  0  0  0  0  0  0  0  0  0
   -2.1958   -0.7500    0.0000 C   0  0  0  0  0  0  0  0  0  0  0  0
   -4.1125   -0.5292    0.0000 C   0  0  0  0  0  0  0  0  0  0  0  0
    1.8500    0.4958    0.0000 C   0  0  0  0  0  0  0  0  0  0  0  0
    1.1042    2.8000    0.0000 O   0  0  0  0  0  0  0  0  0  0  0  0
   -0.1333   -0.9792    0.0000 O   0  0  0  0  0  0  0  0  0  0  0  0
   -5.1458   -0.9792    0.0000 O   0  0  0  0  0  0  0  0  0  0  0  0
    2.6667    1.2958    0.0000 C   0  0  0  0  0  0  0  0  0  0  0  0
    2.1292   -0.5792    0.0000 C   0  0  0  0  0  0  0  0  0  0  0  0
   -3.9958    0.5958    0.0000 O   0  0  0  0  0  0  0  0  0  0  0  0
    4.0292   -0.0875    0.0000 C   0  0  0  0  0  0  0  0  0  0  0  0
    3.2292   -0.9042    0.0000 C   0  0  0  0  0  0  0  0  0  0  0  0
    3.7500    0.9833    0.0000 C   0  0  0  0  0  0  0  0  0  0  0  0
    5.1167   -0.3500    0.0000 I   0  0  0  0  0  0  0  0  0  0  0  0
   -3.3500   -2.3292    0.0000 C   0  0  0  0  0  0  0  0  0  0  0  0
   -1.2833   -1.4167    0.0000 C   0  0  0  0  0  0  0  0  0  0  0  0
   -2.4333   -2.9792    0.0000 C   0  0  0  0  0  0  0  0  0  0  0  0
   -1.4000   -2.5292    0.0000 C   0  0  0  0  0  0  0  0  0  0  0  0
  2  1  1  0  0  0  0
  3  1  1  0  0  0  0
  4  3  1  0  0  0  0
  5  2  1  0  0  0  0
  6  8  2  0  0  0  0
  7  4  1  0  0  0  0
  8  7  1  0  0  0  0
  9  6  1  0  0  0  0
 10  1  1  0  0  0  0
 11  2  2  0  0  0  0
 12  3  2  0  0  0  0
 13  9  2  0  0  0  0
 14 10  1  0  0  0  0
 15 10  2  0  0  0  0
 16  9  1  0  0  0  0
 17 18  2  0  0  0  0
 18 15  1  0  0  0  0
 19 14  2  0  0  0  0
 20 17  1  0  0  0  0
 21  6  1  0  0  0  0
 22  8  1  0  0  0  0
 23 24  1  0  0  0  0
 24 22  2  0  0  0  0
  5  4  1  0  0  0  0
 19 17  1  0  0  0  0
 23 21  2  0  0  0  0
M  END
> <IDNUMBER>
F3115-0023

> <Chemical_Name>
2-{[1-(4-iodophenyl)-2,5-dioxopyrrolidin-3-yl]sulfanyl}benzoic acid

> <CAS>
514182-09-3

> <PriceCoeff>
1.00

> <MW>
453.25

> <Description>
solid

> <FSP3>
0.12

> <clogP>
3.47

> <TPSA>
99.98

> <Acceptor>
4

> <Donor>
0

> <RotBonds>
4

> <HAC>
24

> <Collection>
General

$$$$
F0327-0296
  -ISIS-  06222321442D

 28 31  0  0  0  0  0  0  0  0999 V2000
   -1.9083    0.4333    0.0000 C   0  0  0  0  0  0  0  0  0  0  0  0
    2.9167   -0.3292    0.0000 N   0  0  3  0  0  0  0  0  0  0  0  0
   -2.4125   -0.2792    0.0000 N   0  0  0  0  0  0  0  0  0  0  0  0
   -5.5208    1.3000    0.0000 N   0  3  0  0  0  0  0  0  0  0  0  0
   -1.0458    0.4333    0.0000 N   0  0  0  0  0  0  0  0  0  0  0  0
   -2.4000    1.1333    0.0000 S   0  0  0  0  0  0  0  0  0  0  0  0
   -0.6000   -0.3292    0.0000 C   0  0  0  0  0  0  0  0  0  0  0  0
   -3.2458    0.8708    0.0000 C   0  0  0  0  0  0  0  0  0  0  0  0
    3.4167    0.3333    0.0000 C   0  0  0  0  0  0  0  0  0  0  0  0
    3.4042   -1.0500    0.0000 C   0  0  0  0  0  0  0  0  0  0  0  0
   -3.2458   -0.0292    0.0000 C   0  0  0  0  0  0  0  0  0  0  0  0
   -4.7708    0.8625    0.0000 C   0  0  0  0  0  0  0  0  0  0  0  0
   -4.0000    1.3125    0.0000 C   0  0  0  0  0  0  0  0  0  0  0  0
    2.0375   -0.3292    0.0000 C   0  0  0  0  0  0  0  0  0  0  0  0
   -5.5208    2.1958    0.0000 O   0  5  0  0  0  0  0  0  0  0  0  0
    0.2792   -0.3292    0.0000 C   0  0  0  0  0  0  0  0  0  0  0  0
   -6.2917    0.9333    0.0000 O   0  0  0  0  0  0  0  0  0  0  0  0
   -1.0458   -1.0875    0.0000 O   0  0  0  0  0  0  0  0  0  0  0  0
    4.2542   -0.8000    0.0000 C   0  0  0  0  0  0  0  0  0  0  0  0
    4.2500    0.0708    0.0000 C   0  0  0  0  0  0  0  0  0  0  0  0
    3.1000   -1.8667    0.0000 O   0  0  0  0  0  0  0  0  0  0  0  0
    3.1292    1.1833    0.0000 O   0  0  0  0  0  0  0  0  0  0  0  0
   -4.0000   -0.4500    0.0000 C   0  0  0  0  0  0  0  0  0  0  0  0
   -4.7708   -0.0292    0.0000 C   0  0  0  0  0  0  0  0  0  0  0  0
    1.6000    0.4333    0.0000 C   0  0  0  0  0  0  0  0  0  0  0  0
    1.6000   -1.0875    0.0000 C   0  0  0  0  0  0  0  0  0  0  0  0
    0.7167    0.4333    0.0000 C   0  0  0  0  0  0  0  0  0  0  0  0
    0.7167   -1.0875    0.0000 C   0  0  0  0  0  0  0  0  0  0  0  0
  2 14  1  0  0  0  0
  3  1  2  0  0  0  0
  4 12  1  0  0  0  0
  5  1  1  0  0  0  0
  6  1  1  0  0  0  0
  7  5  1  0  0  0  0
  8  6  1  0  0  0  0
  9  2  1  0  0  0  0
 10  2  1  0  0  0  0
 11  3  1  0  0  0  0
 12 13  2  0  0  0  0
 13  8  1  0  0  0  0
 14 26  2  0  0  0  0
 15  4  1  0  0  0  0
 16  7  1  0  0  0  0
 17  4  2  0  0  0  0
 18  7  2  0  0  0  0
 19 10  1  0  0  0  0
 20  9  1  0  0  0  0
 21 10  2  0  0  0  0
 22  9  2  0  0  0  0
 23 11  1  0  0  0  0
 24 23  2  0  0  0  0
 25 27  2  0  0  0  0
 26 28  1  0  0  0  0
 27 16  1  0  0  0  0
 28 16  2  0  0  0  0
  8 11  2  0  0  0  0
 24 12  1  0  0  0  0
 25 14  1  0  0  0  0
 19 20  1  0  0  0  0
M  CHG  2   4   1  15  -1
M  END
> <IDNUMBER>
F0327-0296

> <Chemical_Name>
4-(2,5-dioxopyrrolidin-1-yl)-N-(6-nitro-1,3-benzothiazol-2-yl)benzamide

> <CAS>
330200-72-1

> <PriceCoeff>
1.00

> <MW>
396.38

> <Description>
solid

> <FSP3>
0.11

> <clogP>
1.47

> <TPSA>
150.75

> <Acceptor>
6

> <Donor>
1

> <RotBonds>
4

> <HAC>
28

> <Collection>
General

$$$$
F1359-1782
  -ISIS-  06222321142D

 31 34  0  0  0  0  0  0  0  0999 V2000
   -1.1625    2.3833    0.0000 C   0  0  0  0  0  0  0  0  0  0  0  0
   -0.3375    2.3750    0.0000 N   0  0  0  0  0  0  0  0  0  0  0  0
    2.5542    1.6500    0.0000 N   0  0  3  0  0  0  0  0  0  0  0  0
   -1.6458    1.7208    0.0000 N   0  0  3  0  0  0  0  0  0  0  0  0
   -1.6458    3.0500    0.0000 S   0  0  0  0  0  0  0  0  0  0  0  0
   -2.4333    2.7958    0.0000 C   0  0  0  0  0  0  0  0  0  0  0  0
   -2.4333    1.9708    0.0000 C   0  0  0  0  0  0  0  0  0  0  0  0
    0.0750    3.0875    0.0000 C   0  0  0  0  0  0  0  0  0  0  0  0
    2.1292    2.3708    0.0000 C   0  0  0  0  0  0  0  0  0  0  0  0
    3.3667    1.5333    0.0000 C   0  0  0  0  0  0  0  0  0  0  0  0
    2.1750    0.9125    0.0000 C   0  0  0  0  0  0  0  0  0  0  0  0
    1.3125    2.3750    0.0000 C   0  0  0  0  0  0  0  0  0  0  0  0
    0.9000    3.0875    0.0000 C   0  0  0  0  0  0  0  0  0  0  0  0
   -3.1458    1.5583    0.0000 C   0  0  0  0  0  0  0  0  0  0  0  0
   -3.1458    3.2083    0.0000 C   0  0  0  0  0  0  0  0  0  0  0  0
   -0.3375    3.8000    0.0000 O   0  0  0  0  0  0  0  0  0  0  0  0
    3.5042    0.7125    0.0000 C   0  0  0  0  0  0  0  0  0  0  0  0
    2.7792    0.3250    0.0000 C   0  0  0  0  0  0  0  0  0  0  0  0
    3.9500    2.1083    0.0000 O   0  0  0  0  0  0  0  0  0  0  0  0
    1.3667    0.7833    0.0000 O   0  0  0  0  0  0  0  0  0  0  0  0
   -1.3958    0.9333    0.0000 C   0  0  0  0  0  0  0  0  0  0  0  0
   -3.8583    1.9708    0.0000 C   0  0  0  0  0  0  0  0  0  0  0  0
   -3.8583    2.7958    0.0000 C   0  0  0  0  0  0  0  0  0  0  0  0
    2.5542    3.0833    0.0000 C   0  0  0  0  0  0  0  0  0  0  0  0
    1.3167    3.8083    0.0000 C   0  0  0  0  0  0  0  0  0  0  0  0
    2.1417    3.8000    0.0000 C   0  0  0  0  0  0  0  0  0  0  0  0
   -2.7458    0.4875    0.0000 O   0  0  0  0  0  0  0  0  0  0  0  0
   -1.9458    0.3208    0.0000 C   0  0  0  0  0  0  0  0  0  0  0  0
   -4.5833    3.2125    0.0000 C   0  0  0  0  0  0  0  0  0  0  0  0
   -3.3125   -0.1167    0.0000 C   0  0  0  0  0  0  0  0  0  0  0  0
   -4.1208    0.0583    0.0000 C   0  0  0  0  0  0  0  0  0  0  0  0
  2  1  2  0  0  0  0
  3  9  1  0  0  0  0
  4  1  1  0  0  0  0
  5  1  1  0  0  0  0
  6  5  1  0  0  0  0
  7  4  1  0  0  0  0
  8  2  1  0  0  0  0
  9 12  1  0  0  0  0
 10  3  1  0  0  0  0
 11  3  1  0  0  0  0
 12 13  2  0  0  0  0
 13  8  1  0  0  0  0
 14  7  1  0  0  0  0
 15  6  1  0  0  0  0
 16  8  2  0  0  0  0
 17 10  1  0  0  0  0
 18 11  1  0  0  0  0
 19 10  2  0  0  0  0
 20 11  2  0  0  0  0
 21  4  1  0  0  0  0
 22 14  2  0  0  0  0
 23 15  2  0  0  0  0
 24 26  1  0  0  0  0
 25 13  1  0  0  0  0
 26 25  2  0  0  0  0
 27 28  1  0  0  0  0
 28 21  1  0  0  0  0
 29 23  1  0  0  0  0
 30 27  1  0  0  0  0
 31 30  1  0  0  0  0
  7  6  2  0  0  0  0
 22 23  1  0  0  0  0
  9 24  2  0  0  0  0
 17 18  1  0  0  0  0
M  END
> <IDNUMBER>
F1359-1782

> <Chemical_Name>
3-(2,5-dioxopyrrolidin-1-yl)-N-[(2Z)-3-(2-ethoxyethyl)-6-methyl-2,3-dihydro-1,3-benzothiazol-2-ylidene]benzamide

> <CAS>
897616-28-3

> <PriceCoeff>
1.00

> <MW>
437.51

> <Description>
solid

> <FSP3>
0.30

> <clogP>
3.51

> <TPSA>
104.58

> <Acceptor>
4

> <Donor>
0

> <RotBonds>
7

> <HAC>
31

> <Collection>
General

$$$$
F1412-0032
  -ISIS-  06222321142D

 27 30  0  0  0  0  0  0  0  0999 V2000
    4.5167   -0.1792    0.0000 N   0  0  3  0  0  0  0  0  0  0  0  0
    6.0792    1.5208    0.0000 C   0  0  0  0  0  0  0  0  0  0  0  0
    5.6500   -2.2125    0.0000 C   0  0  0  0  0  0  0  0  0  0  0  0
    2.2250    0.0958    0.0000 C   0  0  0  0  0  0  0  0  0  0  0  0
    7.9167   -1.7542    0.0000 C   0  0  3  0  0  0  0  0  0  0  0  0
    8.1917    0.5500    0.0000 C   0  0  0  0  0  0  0  0  0  0  0  0
   13.6042   -3.8042    0.0000 C   0  0  0  0  0  0  0  0  0  0  0  0
    9.6375   -3.3292    0.0000 S   0  0  0  0  0  0  0  0  0  0  0  0
   11.7542   -2.4125    0.0000 C   0  0  0  0  0  0  0  0  0  0  0  0
   13.3292   -6.1042    0.0000 C   0  0  0  0  0  0  0  0  0  0  0  0
    1.2917    2.2333    0.0000 C   0  0  0  0  0  0  0  0  0  0  0  0
    5.6250    3.8000    0.0000 O   0  0  0  0  0  0  0  0  0  0  0  0
    4.6792   -4.3167    0.0000 O   0  0  0  0  0  0  0  0  0  0  0  0
   15.1917   -7.4917    0.0000 O   0  0  0  0  0  0  0  0  0  0  0  0
   -1.0208    2.4958    0.0000 C   0  0  0  0  0  0  0  0  0  0  0  0
   11.1917   -7.0125    0.0000 O   0  0  0  0  0  0  0  0  0  0  0  0
    0.8250   -1.7667    0.0000 C   0  0  0  0  0  0  0  0  0  0  0  0
   15.7292   -2.8750    0.0000 C   0  0  0  0  0  0  0  0  0  0  0  0
   12.0375   -0.0917    0.0000 C   0  0  0  0  0  0  0  0  0  0  0  0
    2.6792    4.0750    0.0000 C   0  0  0  0  0  0  0  0  0  0  0  0
   -1.4833   -1.5000    0.0000 C   0  0  0  0  0  0  0  0  0  0  0  0
   -2.3958    0.6458    0.0000 C   0  0  0  0  0  0  0  0  0  0  0  0
   -1.9375    4.6042    0.0000 C   0  0  0  0  0  0  0  0  0  0  0  0
   16.0000   -0.5792    0.0000 C   0  0  0  0  0  0  0  0  0  0  0  0
   14.1417    0.7958    0.0000 C   0  0  0  0  0  0  0  0  0  0  0  0
    1.7542    6.2042    0.0000 C   0  0  0  0  0  0  0  0  0  0  0  0
   -0.5625    6.4792    0.0000 C   0  0  0  0  0  0  0  0  0  0  0  0
  2  1  1  0  0  0  0
  3  1  1  0  0  0  0
  4  1  1  0  0  0  0
  5  3  1  0  0  0  0
  6  2  1  0  0  0  0
  7  9  2  0  0  0  0
  8  5  1  0  0  0  0
  9  8  1  0  0  0  0
 10  7  1  0  0  0  0
 11  4  1  0  0  0  0
 12  2  2  0  0  0  0
 13  3  2  0  0  0  0
 14 10  2  0  0  0  0
 15 11  1  0  0  0  0
 16 10  1  0  0  0  0
 17  4  2  0  0  0  0
 18  7  1  0  0  0  0
 19  9  1  0  0  0  0
 20 11  2  0  0  0  0
 21 17  1  0  0  0  0
 22 21  2  0  0  0  0
 23 15  2  0  0  0  0
 24 25  1  0  0  0  0
 25 19  2  0  0  0  0
 26 20  1  0  0  0  0
 27 26  2  0  0  0  0
  6  5  1  0  0  0  0
 22 15  1  0  0  0  0
 23 27  1  0  0  0  0
 24 18  2  0  0  0  0
M  END
> <IDNUMBER>
F1412-0032

> <Chemical_Name>
2-{[1-(naphthalen-1-yl)-2,5-dioxopyrrolidin-3-yl]sulfanyl}benzoic acid

> <CAS>
691368-25-9

> <PriceCoeff>
1.00

> <MW>
377.41

> <Description>
solid

> <FSP3>
0.10

> <clogP>
3.24

> <TPSA>
99.98

> <Acceptor>
4

> <Donor>
0

> <RotBonds>
4

> <HAC>
27

> <Collection>
General

$$$$
F1816-0725
  -ISIS-  06222321142D

 29 32  0  0  0  0  0  0  0  0999 V2000
   -4.5833    2.5500    0.0000 C   0  0  0  0  0  0  0  0  0  0  0  0
   -3.8708    2.9708    0.0000 N   0  0  0  0  0  0  0  0  0  0  0  0
   -4.6750    1.7333    0.0000 N   0  0  3  0  0  0  0  0  0  0  0  0
   -1.0083    3.7958    0.0000 N   0  0  3  0  0  0  0  0  0  0  0  0
   -5.3208    2.8958    0.0000 S   0  0  0  0  0  0  0  0  0  0  0  0
   -5.4833    1.5708    0.0000 C   0  0  0  0  0  0  0  0  0  0  0  0
   -5.8833    2.2958    0.0000 C   0  0  0  0  0  0  0  0  0  0  0  0
   -3.8708    3.8000    0.0000 C   0  0  0  0  0  0  0  0  0  0  0  0
   -1.7208    4.2125    0.0000 C   0  0  0  0  0  0  0  0  0  0  0  0
   -0.9625    2.9708    0.0000 C   0  0  0  0  0  0  0  0  0  0  0  0
   -0.2375    4.0917    0.0000 C   0  0  0  0  0  0  0  0  0  0  0  0
   -2.4375    3.8083    0.0000 C   0  0  0  0  0  0  0  0  0  0  0  0
   -3.1583    4.2125    0.0000 C   0  0  0  0  0  0  0  0  0  0  0  0
   -4.2458    0.3500    0.0000 C   0  0  0  0  0  0  0  0  0  0  0  0
   -4.4208   -0.4542    0.0000 C   0  0  0  0  0  0  0  0  0  0  0  0
   -5.9083    0.8708    0.0000 C   0  0  0  0  0  0  0  0  0  0  0  0
   -4.5958    4.2125    0.0000 O   0  0  0  0  0  0  0  0  0  0  0  0
   -0.1458    2.7708    0.0000 C   0  0  0  0  0  0  0  0  0  0  0  0
    0.2917    3.4708    0.0000 C   0  0  0  0  0  0  0  0  0  0  0  0
   -1.5958    2.4583    0.0000 O   0  0  0  0  0  0  0  0  0  0  0  0
   -0.0208    4.8875    0.0000 O   0  0  0  0  0  0  0  0  0  0  0  0
   -4.0583    1.1583    0.0000 C   0  0  0  0  0  0  0  0  0  0  0  0
   -5.5083    0.1458    0.0000 Cl  0  0  0  0  0  0  0  0  0  0  0  0
   -6.7042    2.3083    0.0000 C   0  0  0  0  0  0  0  0  0  0  0  0
   -1.7125    5.0292    0.0000 C   0  0  0  0  0  0  0  0  0  0  0  0
   -3.1500    5.0417    0.0000 C   0  0  0  0  0  0  0  0  0  0  0  0
   -2.4333    5.4542    0.0000 C   0  0  0  0  0  0  0  0  0  0  0  0
   -7.1292    1.6000    0.0000 C   0  0  0  0  0  0  0  0  0  0  0  0
   -6.7167    0.8750    0.0000 C   0  0  0  0  0  0  0  0  0  0  0  0
  2  1  2  0  0  0  0
  3  1  1  0  0  0  0
  4  9  1  0  0  0  0
  5  1  1  0  0  0  0
  6  3  1  0  0  0  0
  7  5  1  0  0  0  0
  8  2  1  0  0  0  0
  9 12  1  0  0  0  0
 10  4  1  0  0  0  0
 11  4  1  0  0  0  0
 12 13  2  0  0  0  0
 13  8  1  0  0  0  0
 14 22  1  0  0  0  0
 15 14  3  0  0  0  0
 16  6  1  0  0  0  0
 17  8  2  0  0  0  0
 18 10  1  0  0  0  0
 19 11  1  0  0  0  0
 20 10  2  0  0  0  0
 21 11  2  0  0  0  0
 22  3  1  0  0  0  0
 23 16  1  0  0  0  0
 24  7  1  0  0  0  0
 25 27  1  0  0  0  0
 26 13  1  0  0  0  0
 27 26  2  0  0  0  0
 28 24  2  0  0  0  0
 29 16  2  0  0  0  0
  6  7  2  0  0  0  0
 28 29  1  0  0  0  0
 25  9  2  0  0  0  0
 19 18  1  0  0  0  0
M  END
> <IDNUMBER>
F1816-0725

> <Chemical_Name>
N-[(2Z)-4-chloro-3-(prop-2-yn-1-yl)-2,3-dihydro-1,3-benzothiazol-2-ylidene]-3-(2,5-dioxopyrrolidin-1-yl)benzamide

> <CAS>
868674-16-2

> <PriceCoeff>
1.00

> <MW>
423.87

> <Description>
solid

> <FSP3>
0.14

> <clogP>
3.76

> <TPSA>
95.35

> <Acceptor>
3

> <Donor>
0

> <RotBonds>
5

> <HAC>
29

> <Collection>
General

$$$$
F1365-3366
  -ISIS-  06222321452D

 31 34  0  0  0  0  0  0  0  0999 V2000
   -1.1625    2.3833    0.0000 C   0  0  0  0  0  0  0  0  0  0  0  0
   -0.3375    2.3750    0.0000 N   0  0  0  0  0  0  0  0  0  0  0  0
    2.5542    1.6500    0.0000 N   0  0  3  0  0  0  0  0  0  0  0  0
   -1.6458    1.7208    0.0000 N   0  0  3  0  0  0  0  0  0  0  0  0
   -1.6458    3.0500    0.0000 S   0  0  0  0  0  0  0  0  0  0  0  0
   -2.4333    2.7958    0.0000 C   0  0  0  0  0  0  0  0  0  0  0  0
   -2.4333    1.9708    0.0000 C   0  0  0  0  0  0  0  0  0  0  0  0
    0.0750    3.0875    0.0000 C   0  0  0  0  0  0  0  0  0  0  0  0
    2.1292    2.3708    0.0000 C   0  0  0  0  0  0  0  0  0  0  0  0
    3.3667    1.5333    0.0000 C   0  0  0  0  0  0  0  0  0  0  0  0
    2.1750    0.9125    0.0000 C   0  0  0  0  0  0  0  0  0  0  0  0
    1.3125    2.3750    0.0000 C   0  0  0  0  0  0  0  0  0  0  0  0
    0.9000    3.0875    0.0000 C   0  0  0  0  0  0  0  0  0  0  0  0
   -3.1458    3.2083    0.0000 C   0  0  0  0  0  0  0  0  0  0  0  0
   -1.9458    0.3208    0.0000 C   0  0  0  0  0  0  0  0  0  0  0  0
   -2.4958   -0.2917    0.0000 C   0  0  0  0  0  0  0  0  0  0  0  0
   -3.1458    1.5583    0.0000 C   0  0  0  0  0  0  0  0  0  0  0  0
   -0.3375    3.8000    0.0000 O   0  0  0  0  0  0  0  0  0  0  0  0
    3.5042    0.7125    0.0000 C   0  0  0  0  0  0  0  0  0  0  0  0
    2.7792    0.3250    0.0000 C   0  0  0  0  0  0  0  0  0  0  0  0
    3.9500    2.1083    0.0000 O   0  0  0  0  0  0  0  0  0  0  0  0
    1.3667    0.7833    0.0000 O   0  0  0  0  0  0  0  0  0  0  0  0
   -1.3958    0.9333    0.0000 C   0  0  0  0  0  0  0  0  0  0  0  0
   -3.8583    2.7958    0.0000 C   0  0  0  0  0  0  0  0  0  0  0  0
   -3.8583    1.9708    0.0000 C   0  0  0  0  0  0  0  0  0  0  0  0
    2.5542    3.0833    0.0000 C   0  0  0  0  0  0  0  0  0  0  0  0
   -4.5833    3.2125    0.0000 O   0  0  0  0  0  0  0  0  0  0  0  0
    1.3167    3.8083    0.0000 C   0  0  0  0  0  0  0  0  0  0  0  0
    2.1417    3.8000    0.0000 C   0  0  0  0  0  0  0  0  0  0  0  0
   -5.2958    2.8000    0.0000 C   0  0  0  0  0  0  0  0  0  0  0  0
   -5.2958    1.9750    0.0000 C   0  0  0  0  0  0  0  0  0  0  0  0
  2  1  2  0  0  0  0
  3  9  1  0  0  0  0
  4  1  1  0  0  0  0
  5  1  1  0  0  0  0
  6  5  1  0  0  0  0
  7  4  1  0  0  0  0
  8  2  1  0  0  0  0
  9 12  1  0  0  0  0
 10  3  1  0  0  0  0
 11  3  1  0  0  0  0
 12 13  2  0  0  0  0
 13  8  1  0  0  0  0
 14  6  1  0  0  0  0
 15 23  1  0  0  0  0
 16 15  3  0  0  0  0
 17  7  1  0  0  0  0
 18  8  2  0  0  0  0
 19 10  1  0  0  0  0
 20 11  1  0  0  0  0
 21 10  2  0  0  0  0
 22 11  2  0  0  0  0
 23  4  1  0  0  0  0
 24 14  2  0  0  0  0
 25 17  2  0  0  0  0
 26 29  1  0  0  0  0
 27 24  1  0  0  0  0
 28 13  1  0  0  0  0
 29 28  2  0  0  0  0
 30 27  1  0  0  0  0
 31 30  1  0  0  0  0
  7  6  2  0  0  0  0
 25 24  1  0  0  0  0
  9 26  2  0  0  0  0
 19 20  1  0  0  0  0
M  END
> <IDNUMBER>
F1365-3366

> <Chemical_Name>
3-(2,5-dioxopyrrolidin-1-yl)-N-[(2Z)-6-ethoxy-3-(prop-2-yn-1-yl)-2,3-dihydro-1,3-benzothiazol-2-ylidene]benzamide

> <CAS>
941977-06-6

> <PriceCoeff>
1.00

> <MW>
433.48

> <Description>
solid

> <FSP3>
0.22

> <clogP>
3.50

> <TPSA>
104.58

> <Acceptor>
4

> <Donor>
0

> <RotBonds>
7

> <HAC>
31

> <Collection>
General

$$$$
F1825-0064
  -ISIS-  06222321452D

 29 31  0  0  0  0  0  0  0  0999 V2000
    3.5292    0.5583    0.0000 C   0  0  0  0  0  0  0  0  0  0  0  0
    3.5292   -0.1542    0.0000 C   0  0  0  0  0  0  0  0  0  0  0  0
    1.6542    1.6333    0.0000 C   0  0  0  0  0  0  0  0  0  0  0  0
    2.2792    1.9708    0.0000 N   0  3  0  0  0  0  0  0  0  0  0  0
    2.9042    0.9208    0.0000 C   0  0  0  0  0  0  0  0  0  0  0  0
    4.1500   -0.5167    0.0000 N   0  0  3  0  0  0  0  0  0  0  0  0
    1.6625    0.9083    0.0000 C   0  0  0  0  0  0  0  0  0  0  0  0
    2.2792    0.5583    0.0000 N   0  0  0  0  0  0  0  0  0  0  0  0
    1.0542    1.9833    0.0000 C   0  0  0  0  0  0  0  0  0  0  0  0
    4.1500    0.9250    0.0000 C   0  0  0  0  0  0  0  0  0  0  0  0
    3.0250    2.0000    0.0000 O   0  5  0  0  0  0  0  0  0  0  0  0
    4.1417   -1.2375    0.0000 O   0  0  0  0  0  0  0  0  0  0  0  0
    2.3292    2.6833    0.0000 O   0  0  0  0  0  0  0  0  0  0  0  0
    4.7750   -0.1542    0.0000 C   0  0  0  0  0  0  0  0  0  0  0  0
    2.9042   -0.5250    0.0000 O   0  0  0  0  0  0  0  0  0  0  0  0
    4.7750    0.5583    0.0000 C   0  0  0  0  0  0  0  0  0  0  0  0
    2.9042    1.6375    0.0000 O   0  0  0  0  0  0  0  0  0  0  0  0
    1.0417    0.5500    0.0000 C   0  0  0  0  0  0  0  0  0  0  0  0
    0.4167    1.6333    0.0000 C   0  0  0  0  0  0  0  0  0  0  0  0
    4.7667   -1.6042    0.0000 C   0  0  0  0  0  0  0  0  0  0  0  0
    4.7417   -3.7625    0.0000 C   0  0  0  0  0  0  0  0  0  0  0  0
    4.7542   -2.3250    0.0000 C   0  0  0  0  0  0  0  0  0  0  0  0
    0.4292    0.9208    0.0000 C   0  0  0  0  0  0  0  0  0  0  0  0
   -0.2125    1.9625    0.0000 Cl  0  0  0  0  0  0  0  0  0  0  0  0
    4.7375   -4.4792    0.0000 F   0  0  0  0  0  0  0  0  0  0  0  0
    5.3750   -3.4000    0.0000 C   0  0  0  0  0  0  0  0  0  0  0  0
    4.1167   -3.3917    0.0000 C   0  0  0  0  0  0  0  0  0  0  0  0
    5.3792   -2.6792    0.0000 C   0  0  0  0  0  0  0  0  0  0  0  0
    4.1292   -2.6750    0.0000 C   0  0  0  0  0  0  0  0  0  0  0  0
  2  1  1  0  0  0  0
  3  7  1  0  0  0  0
  4  3  1  0  0  0  0
  5  1  1  0  0  0  0
  6  2  1  0  0  0  0
  7  8  1  0  0  0  0
  8  5  1  0  0  0  0
  9  3  2  0  0  0  0
 10  1  2  0  0  0  0
 11  4  1  0  0  0  0
 12  6  1  0  0  0  0
 13  4  2  0  0  0  0
 14 16  2  0  0  0  0
 15  2  2  0  0  0  0
 16 10  1  0  0  0  0
 17  5  2  0  0  0  0
 18  7  2  0  0  0  0
 19 23  2  0  0  0  0
 20 12  1  0  0  0  0
 21 27  2  0  0  0  0
 22 20  1  0  0  0  0
 23 18  1  0  0  0  0
 24 19  1  0  0  0  0
 25 21  1  0  0  0  0
 26 28  2  0  0  0  0
 27 29  1  0  0  0  0
 28 22  1  0  0  0  0
 29 22  2  0  0  0  0
  6 14  1  0  0  0  0
 19  9  1  0  0  0  0
 21 26  1  0  0  0  0
M  CHG  2   4   1  11  -1
M  END
> <IDNUMBER>
F1825-0064

> <Chemical_Name>
N-(4-chloro-2-nitrophenyl)-1-[(4-fluorophenyl)methoxy]-2-oxo-1,2-dihydropyridine-3-carboxamide

> <CAS>
868678-46-0

> <PriceCoeff>
1.00

> <MW>
417.78

> <Description>
solid

> <FSP3>
0.05

> <clogP>
2.33

> <TPSA>
101.78

> <Acceptor>
5

> <Donor>
1

> <RotBonds>
6

> <HAC>
29

> <Collection>
General

$$$$
F2743-1636
  -ISIS-  06222321462D

 30 32  0  0  0  0  0  0  0  0999 V2000
   -2.7583    2.1625    0.0000 C   0  0  0  0  0  0  0  0  0  0  0  0
   -2.7583    1.3375    0.0000 C   0  0  0  0  0  0  0  0  0  0  0  0
   -0.8333    6.0125    0.0000 N   0  3  0  0  0  0  0  0  0  0  0  0
   -0.4708    5.1375    0.0000 C   0  0  0  0  0  0  0  0  0  0  0  0
   -3.4708    0.9333    0.0000 N   0  0  3  0  0  0  0  0  0  0  0  0
   -2.2083    2.8958    0.0000 C   0  0  0  0  0  0  0  0  0  0  0  0
   -1.8250   -2.8625    0.0000 N   0  3  0  0  0  0  0  0  0  0  0  0
   -1.2750    2.7708    0.0000 N   0  0  0  0  0  0  0  0  0  0  0  0
   -1.0583    4.3875    0.0000 C   0  0  0  0  0  0  0  0  0  0  0  0
   -1.8208   -1.9167    0.0000 C   0  0  0  0  0  0  0  0  0  0  0  0
   -3.4708    2.5833    0.0000 C   0  0  0  0  0  0  0  0  0  0  0  0
    0.4667    5.0125    0.0000 C   0  0  0  0  0  0  0  0  0  0  0  0
   -3.4708   -0.0167    0.0000 C   0  0  0  0  0  0  0  0  0  0  0  0
   -4.1750    1.3375    0.0000 C   0  0  0  0  0  0  0  0  0  0  0  0
   -0.2583    6.7625    0.0000 O   0  5  0  0  0  0  0  0  0  0  0  0
   -2.6500   -3.3417    0.0000 O   0  5  0  0  0  0  0  0  0  0  0  0
   -1.7708    6.1417    0.0000 O   0  0  0  0  0  0  0  0  0  0  0  0
   -0.6958    3.5208    0.0000 C   0  0  0  0  0  0  0  0  0  0  0  0
   -1.0083   -3.3375    0.0000 O   0  0  0  0  0  0  0  0  0  0  0  0
   -1.8333    1.4875    0.0000 O   0  0  0  0  0  0  0  0  0  0  0  0
   -4.1750    2.1625    0.0000 C   0  0  0  0  0  0  0  0  0  0  0  0
   -2.5500    3.8000    0.0000 O   0  0  0  0  0  0  0  0  0  0  0  0
   -2.6375   -1.4375    0.0000 C   0  0  0  0  0  0  0  0  0  0  0  0
   -2.6458   -0.4875    0.0000 C   0  0  0  0  0  0  0  0  0  0  0  0
    0.8167    4.1292    0.0000 C   0  0  0  0  0  0  0  0  0  0  0  0
    0.2417    3.3833    0.0000 C   0  0  0  0  0  0  0  0  0  0  0  0
    1.0417    5.7625    0.0000 Cl  0  0  0  0  0  0  0  0  0  0  0  0
   -1.0000   -1.4417    0.0000 C   0  0  0  0  0  0  0  0  0  0  0  0
   -0.9958   -0.5042    0.0000 C   0  0  0  0  0  0  0  0  0  0  0  0
   -1.8250   -0.0167    0.0000 C   0  0  0  0  0  0  0  0  0  0  0  0
  2  1  1  0  0  0  0
  3  4  1  0  0  0  0
  4  9  2  0  0  0  0
  5  2  1  0  0  0  0
  6  1  1  0  0  0  0
  7 10  1  0  0  0  0
  8  6  1  0  0  0  0
  9 18  1  0  0  0  0
 10 23  2  0  0  0  0
 11  1  2  0  0  0  0
 12 25  2  0  0  0  0
 13  5  1  0  0  0  0
 14 21  2  0  0  0  0
 15  3  1  0  0  0  0
 16  7  1  0  0  0  0
 17  3  2  0  0  0  0
 18  8  1  0  0  0  0
 19  7  2  0  0  0  0
 20  2  2  0  0  0  0
 21 11  1  0  0  0  0
 22  6  2  0  0  0  0
 23 24  1  0  0  0  0
 24 13  1  0  0  0  0
 25 26  1  0  0  0  0
 26 18  2  0  0  0  0
 27 12  1  0  0  0  0
 28 29  2  0  0  0  0
 29 30  1  0  0  0  0
 30 24  2  0  0  0  0
  5 14  1  0  0  0  0
 12  4  1  0  0  0  0
 10 28  1  0  0  0  0
M  CHG  4   3   1   7   1  15  -1  16  -1
M  END
> <IDNUMBER>
F2743-1636

> <Chemical_Name>
N-(4-chloro-3-nitrophenyl)-1-[(3-nitrophenyl)methyl]-2-oxo-1,2-dihydropyridine-3-carboxamide

> <CAS>
941953-37-3

> <PriceCoeff>
1.00

> <MW>
428.78

> <Description>
solid

> <FSP3>
0.05

> <clogP>
3.09

> <TPSA>
135.69

> <Acceptor>
6

> <Donor>
1

> <RotBonds>
6

> <HAC>
30

> <Collection>
General

$$$$
F2744-1636
  -ISIS-  06222321462D

 30 32  0  0  0  0  0  0  0  0999 V2000
   -2.4583    2.6708    0.0000 C   0  0  0  0  0  0  0  0  0  0  0  0
   -0.1833    5.7042    0.0000 N   0  3  0  0  0  0  0  0  0  0  0  0
   -3.1708    1.4333    0.0000 N   0  0  3  0  0  0  0  0  0  0  0  0
    0.0417    4.8792    0.0000 C   0  0  0  0  0  0  0  0  0  0  0  0
   -1.7000   -1.9542    0.0000 N   0  3  0  0  0  0  0  0  0  0  0  0
   -2.4583    1.8458    0.0000 C   0  0  0  0  0  0  0  0  0  0  0  0
   -1.7458    3.0833    0.0000 C   0  0  0  0  0  0  0  0  0  0  0  0
   -3.8750    1.8458    0.0000 C   0  0  0  0  0  0  0  0  0  0  0  0
   -3.1708    3.0833    0.0000 C   0  0  0  0  0  0  0  0  0  0  0  0
   -3.8750    2.6708    0.0000 C   0  0  0  0  0  0  0  0  0  0  0  0
   -0.9250    2.8708    0.0000 N   0  0  0  0  0  0  0  0  0  0  0  0
   -0.5583    4.2792    0.0000 C   0  0  0  0  0  0  0  0  0  0  0  0
   -1.6958   -1.1125    0.0000 C   0  0  0  0  0  0  0  0  0  0  0  0
    0.8542    4.6667    0.0000 C   0  0  0  0  0  0  0  0  0  0  0  0
   -3.1708    0.5875    0.0000 C   0  0  0  0  0  0  0  0  0  0  0  0
    0.4042    6.3042    0.0000 O   0  5  0  0  0  0  0  0  0  0  0  0
   -2.4375   -2.3792    0.0000 O   0  5  0  0  0  0  0  0  0  0  0  0
   -1.0083    5.9167    0.0000 O   0  0  0  0  0  0  0  0  0  0  0  0
   -0.3333    3.4708    0.0000 C   0  0  0  0  0  0  0  0  0  0  0  0
   -0.9708   -2.3875    0.0000 O   0  0  0  0  0  0  0  0  0  0  0  0
   -2.1583    3.8000    0.0000 O   0  0  0  0  0  0  0  0  0  0  0  0
   -2.4250   -0.6875    0.0000 C   0  0  0  0  0  0  0  0  0  0  0  0
   -4.5625    1.8958    0.0000 O   0  0  0  0  0  0  0  0  0  0  0  0
   -2.4333    0.1708    0.0000 C   0  0  0  0  0  0  0  0  0  0  0  0
    1.0792    3.8708    0.0000 C   0  0  0  0  0  0  0  0  0  0  0  0
    0.4875    3.2583    0.0000 C   0  0  0  0  0  0  0  0  0  0  0  0
    1.4500    5.2792    0.0000 Cl  0  0  0  0  0  0  0  0  0  0  0  0
   -0.9625   -0.6917    0.0000 C   0  0  0  0  0  0  0  0  0  0  0  0
   -0.9583    0.1500    0.0000 C   0  0  0  0  0  0  0  0  0  0  0  0
   -1.6958    0.5833    0.0000 C   0  0  0  0  0  0  0  0  0  0  0  0
  2  4  1  0  0  0  0
  3  6  1  0  0  0  0
  4 12  2  0  0  0  0
  5 13  1  0  0  0  0
  6  1  2  0  0  0  0
  7  1  1  0  0  0  0
  8 10  1  0  0  0  0
  9  1  1  0  0  0  0
 10  9  2  0  0  0  0
 11  7  1  0  0  0  0
 12 19  1  0  0  0  0
 13 22  2  0  0  0  0
 14 25  2  0  0  0  0
 15  3  1  0  0  0  0
 16  2  1  0  0  0  0
 17  5  1  0  0  0  0
 18  2  2  0  0  0  0
 19 11  1  0  0  0  0
 20  5  2  0  0  0  0
 21  7  2  0  0  0  0
 22 24  1  0  0  0  0
 23  8  2  0  0  0  0
 24 15  1  0  0  0  0
 25 26  1  0  0  0  0
 26 19  2  0  0  0  0
 27 14  1  0  0  0  0
 28 29  2  0  0  0  0
 29 30  1  0  0  0  0
 30 24  2  0  0  0  0
  3  8  1  0  0  0  0
 14  4  1  0  0  0  0
 13 28  1  0  0  0  0
M  CHG  4   2   1   5   1  16  -1  17  -1
M  END
> <IDNUMBER>
F2744-1636

> <Chemical_Name>
N-(4-chloro-3-nitrophenyl)-1-[(3-nitrophenyl)methyl]-6-oxo-1,6-dihydropyridine-3-carboxamide

> <CAS>
941931-31-3

> <PriceCoeff>
1.00

> <MW>
428.78

> <Description>
solid

> <FSP3>
0.05

> <clogP>
3.09

> <TPSA>
135.69

> <Acceptor>
6

> <Donor>
1

> <RotBonds>
6

> <HAC>
30

> <Collection>
General

$$$$
F1366-0372
  -ISIS-  06222321452D

 29 31  0  0  0  0  0  0  0  0999 V2000
   -1.1625    2.3833    0.0000 C   0  0  0  0  0  0  0  0  0  0  0  0
   -1.6458    1.7208    0.0000 N   0  0  3  0  0  0  0  0  0  0  0  0
    1.3000    3.7958    0.0000 N   0  0  3  0  0  0  0  0  0  0  0  0
   -0.3375    2.3750    0.0000 N   0  0  0  0  0  0  0  0  0  0  0  0
   -1.6458    3.0500    0.0000 S   0  0  0  0  0  0  0  0  0  0  0  0
   -2.4333    2.7958    0.0000 C   0  0  0  0  0  0  0  0  0  0  0  0
   -2.4333    1.9708    0.0000 C   0  0  0  0  0  0  0  0  0  0  0  0
    2.1042    3.8708    0.0000 C   0  0  0  0  0  0  0  0  0  0  0  0
    0.9625    4.5292    0.0000 C   0  0  0  0  0  0  0  0  0  0  0  0
    0.0750    3.0875    0.0000 C   0  0  0  0  0  0  0  0  0  0  0  0
    0.8875    3.0875    0.0000 C   0  0  0  0  0  0  0  0  0  0  0  0
   -4.5625    3.2083    0.0000 C   0  0  0  0  0  0  0  0  0  0  0  0
   -3.1458    3.2083    0.0000 C   0  0  0  0  0  0  0  0  0  0  0  0
   -3.8583    2.7958    0.0000 C   0  0  0  0  0  0  0  0  0  0  0  0
   -1.7625    0.9083    0.0000 C   0  0  0  0  0  0  0  0  0  0  0  0
   -3.1458    1.5583    0.0000 C   0  0  0  0  0  0  0  0  0  0  0  0
   -2.5208    0.6083    0.0000 C   0  0  0  0  0  0  0  0  0  0  0  0
    1.5625    5.0750    0.0000 C   0  0  0  0  0  0  0  0  0  0  0  0
    2.2750    4.6667    0.0000 C   0  0  0  0  0  0  0  0  0  0  0  0
    0.1667    4.7042    0.0000 O   0  0  0  0  0  0  0  0  0  0  0  0
    2.6417    3.2708    0.0000 O   0  0  0  0  0  0  0  0  0  0  0  0
   -3.8583    1.9708    0.0000 C   0  0  0  0  0  0  0  0  0  0  0  0
   -0.3375    3.8000    0.0000 O   0  0  0  0  0  0  0  0  0  0  0  0
   -5.2708    2.8000    0.0000 O   0  0  0  0  0  0  0  0  0  0  0  0
   -2.6333   -0.2000    0.0000 O   0  0  0  0  0  0  0  0  0  0  0  0
   -4.5625    4.0125    0.0000 O   0  0  0  0  0  0  0  0  0  0  0  0
   -3.1583    1.1083    0.0000 O   0  0  0  0  0  0  0  0  0  0  0  0
   -5.2708    4.4167    0.0000 C   0  0  0  0  0  0  0  0  0  0  0  0
   -3.9125    0.8083    0.0000 C   0  0  0  0  0  0  0  0  0  0  0  0
  2  1  1  0  0  0  0
  3 11  1  0  0  0  0
  4  1  2  0  0  0  0
  5  1  1  0  0  0  0
  6  5  1  0  0  0  0
  7  2  1  0  0  0  0
  8  3  1  0  0  0  0
  9  3  1  0  0  0  0
 10  4  1  0  0  0  0
 11 10  1  0  0  0  0
 12 14  1  0  0  0  0
 13  6  1  0  0  0  0
 14 13  2  0  0  0  0
 15  2  1  0  0  0  0
 16  7  1  0  0  0  0
 17 15  1  0  0  0  0
 18  9  1  0  0  0  0
 19  8  1  0  0  0  0
 20  9  2  0  0  0  0
 21  8  2  0  0  0  0
 22 16  2  0  0  0  0
 23 10  2  0  0  0  0
 24 12  2  0  0  0  0
 25 17  2  0  0  0  0
 26 12  1  0  0  0  0
 27 17  1  0  0  0  0
 28 26  1  0  0  0  0
 29 27  1  0  0  0  0
  6  7  2  0  0  0  0
 14 22  1  0  0  0  0
 18 19  1  0  0  0  0
M  END
> <IDNUMBER>
F1366-0372

> <Chemical_Name>
methyl (2Z)-2-{[2-(2,5-dioxopyrrolidin-1-yl)acetyl]imino}-3-(2-methoxy-2-oxoethyl)-2,3-dihydro-1,3-benzothiazole-6-carboxylate

> <CAS>
865197-54-2

> <PriceCoeff>
1.00

> <MW>
419.41

> <Description>
solid

> <FSP3>
0.33

> <clogP>
2.31

> <TPSA>
147.95

> <Acceptor>
7

> <Donor>
0

> <RotBonds>
8

> <HAC>
29

> <Collection>
General

$$$$
F0239-0350
  -ISIS-  06222321142D

 25 27  0  0  0  0  0  0  0  0999 V2000
   -0.3833   -0.4375    0.0000 C   0  0  0  0  0  0  0  0  0  0  0  0
   -0.3833    0.3333    0.0000 C   0  0  0  0  0  0  0  0  0  0  0  0
    0.3667    0.5625    0.0000 N   0  0  0  0  0  0  0  0  0  0  0  0
   -0.9833   -0.9167    0.0000 C   0  0  0  0  0  0  0  0  0  0  0  0
    0.3542   -0.6667    0.0000 S   0  0  0  0  0  0  0  0  0  0  0  0
   -2.7625    2.2458    0.0000 N   0  3  0  0  0  0  0  0  0  0  0  0
    0.7875   -0.0917    0.0000 C   0  0  0  0  0  0  0  0  0  0  0  0
   -0.8833   -1.6792    0.0000 N   0  0  0  0  0  0  0  0  0  0  0  0
   -0.9500    0.8125    0.0000 C   0  0  0  0  0  0  0  0  0  0  0  0
   -2.1500    1.7458    0.0000 C   0  0  0  0  0  0  0  0  0  0  0  0
   -2.6458    2.9958    0.0000 O   0  5  0  0  0  0  0  0  0  0  0  0
   -3.4958    1.9625    0.0000 O   0  0  0  0  0  0  0  0  0  0  0  0
   -1.6958   -0.6167    0.0000 O   0  0  0  0  0  0  0  0  0  0  0  0
   -0.1708   -1.9792    0.0000 C   0  0  0  0  0  0  0  0  0  0  0  0
   -1.4625    2.0208    0.0000 C   0  0  0  0  0  0  0  0  0  0  0  0
   -2.2708    0.9833    0.0000 C   0  0  0  0  0  0  0  0  0  0  0  0
   -0.8500    1.5708    0.0000 C   0  0  0  0  0  0  0  0  0  0  0  0
   -1.6625    0.5125    0.0000 C   0  0  0  0  0  0  0  0  0  0  0  0
   -0.0958   -2.7167    0.0000 C   0  0  0  0  0  0  0  0  0  0  0  0
    0.6167   -3.0375    0.0000 C   0  0  0  0  0  0  0  0  0  0  0  0
    1.5667   -0.1167    0.0000 C   0  0  0  0  0  0  0  0  0  0  0  0
    1.1500   -1.8000    0.0000 C   0  0  0  0  0  0  0  0  0  0  0  0
    0.4375   -1.5167    0.0000 C   0  0  0  0  0  0  0  0  0  0  0  0
    1.2500   -2.5542    0.0000 C   0  0  0  0  0  0  0  0  0  0  0  0
    0.7000   -3.8042    0.0000 C   0  0  0  0  0  0  0  0  0  0  0  0
  2  1  2  0  0  0  0
  3  2  1  0  0  0  0
  4  1  1  0  0  0  0
  5  1  1  0  0  0  0
  6 10  1  0  0  0  0
  7  5  1  0  0  0  0
  8  4  1  0  0  0  0
  9  2  1  0  0  0  0
 10 16  1  0  0  0  0
 11  6  1  0  0  0  0
 12  6  2  0  0  0  0
 13  4  2  0  0  0  0
 14  8  1  0  0  0  0
 15 17  1  0  0  0  0
 16 18  2  0  0  0  0
 17  9  2  0  0  0  0
 18  9  1  0  0  0  0
 19 14  2  0  0  0  0
 20 19  1  0  0  0  0
 21  7  1  0  0  0  0
 22 23  2  0  0  0  0
 23 14  1  0  0  0  0
 24 22  1  0  0  0  0
 25 20  1  0  0  0  0
  3  7  2  0  0  0  0
 15 10  2  0  0  0  0
 24 20  2  0  0  0  0
M  CHG  2   6   1  11  -1
M  END
> <IDNUMBER>
F0239-0350

> <Chemical_Name>
2-methyl-N-(3-methylphenyl)-4-(4-nitrophenyl)-1,3-thiazole-5-carboxamide

> <CAS>
294668-21-6

> <PriceCoeff>
1.00

> <MW>
353.40

> <Description>
solid

> <FSP3>
0.11

> <clogP>
4.15

> <TPSA>
113.37

> <Acceptor>
4

> <Donor>
1

> <RotBonds>
4

> <HAC>
25

> <Collection>
General

> <Reference_compound>
CHEMBL2289414

> <Similarity>
0.8120

$$$$
F1199-0098
  -ISIS-  06222321142D

 25 27  0  0  0  0  0  0  0  0999 V2000
    0.4417   -0.0292    0.0000 N   0  0  3  0  0  0  0  0  0  0  0  0
    1.1000    0.4458    0.0000 C   0  0  0  0  0  0  0  0  0  0  0  0
    0.6917   -0.8042    0.0000 C   0  0  0  0  0  0  0  0  0  0  0  0
    1.5125   -0.8042    0.0000 C   0  0  3  0  0  0  0  0  0  0  0  0
    1.7625   -0.0292    0.0000 C   0  0  0  0  0  0  0  0  0  0  0  0
   -0.3333    0.2208    0.0000 C   0  0  0  0  0  0  0  0  0  0  0  0
    3.2750   -2.0375    0.0000 C   0  0  0  0  0  0  0  0  0  0  0  0
    1.9875   -1.4625    0.0000 S   0  0  0  0  0  0  0  0  0  0  0  0
    2.8000   -1.3792    0.0000 C   0  0  0  0  0  0  0  0  0  0  0  0
    2.9417   -2.7792    0.0000 C   0  0  0  0  0  0  0  0  0  0  0  0
   -0.5083    1.0125    0.0000 C   0  0  0  0  0  0  0  0  0  0  0  0
   -0.9333   -0.3292    0.0000 C   0  0  0  0  0  0  0  0  0  0  0  0
    1.1000    1.2583    0.0000 O   0  0  0  0  0  0  0  0  0  0  0  0
    0.2125   -1.4625    0.0000 O   0  0  0  0  0  0  0  0  0  0  0  0
   -1.2833    1.2625    0.0000 C   0  0  0  0  0  0  0  0  0  0  0  0
    3.4167   -3.4375    0.0000 O   0  0  0  0  0  0  0  0  0  0  0  0
   -1.8833    0.7208    0.0000 C   0  0  0  0  0  0  0  0  0  0  0  0
    2.1292   -2.8625    0.0000 O   0  0  0  0  0  0  0  0  0  0  0  0
   -1.7083   -0.0875    0.0000 C   0  0  0  0  0  0  0  0  0  0  0  0
   -2.6708    0.9708    0.0000 I   0  0  0  0  0  0  0  0  0  0  0  0
    4.0875   -1.9500    0.0000 C   0  0  0  0  0  0  0  0  0  0  0  0
    3.1292   -0.6417    0.0000 C   0  0  0  0  0  0  0  0  0  0  0  0
    0.1042    1.5625    0.0000 C   0  0  0  0  0  0  0  0  0  0  0  0
    4.4250   -1.2042    0.0000 C   0  0  0  0  0  0  0  0  0  0  0  0
    3.9375   -0.5542    0.0000 C   0  0  0  0  0  0  0  0  0  0  0  0
  2  1  1  0  0  0  0
  3  1  1  0  0  0  0
  4  3  1  0  0  0  0
  5  2  1  0  0  0  0
  6  1  1  0  0  0  0
  7  9  2  0  0  0  0
  8  4  1  0  0  0  0
  9  8  1  0  0  0  0
 10  7  1  0  0  0  0
 11  6  2  0  0  0  0
 12  6  1  0  0  0  0
 13  2  2  0  0  0  0
 14  3  2  0  0  0  0
 15 11  1  0  0  0  0
 16 10  2  0  0  0  0
 17 19  1  0  0  0  0
 18 10  1  0  0  0  0
 19 12  2  0  0  0  0
 20 17  1  0  0  0  0
 21  7  1  0  0  0  0
 22  9  1  0  0  0  0
 23 11  1  0  0  0  0
 24 25  1  0  0  0  0
 25 22  2  0  0  0  0
  5  4  1  0  0  0  0
 17 15  2  0  0  0  0
 24 21  2  0  0  0  0
M  END
> <IDNUMBER>
F1199-0098

> <Chemical_Name>
2-{[1-(4-iodo-2-methylphenyl)-2,5-dioxopyrrolidin-3-yl]sulfanyl}benzoic acid

> <CAS>
431933-50-5

> <PriceCoeff>
1.00

> <MW>
467.28

> <Description>
solid

> <FSP3>
0.17

> <clogP>
3.57

> <TPSA>
99.98

> <Acceptor>
4

> <Donor>
0

> <RotBonds>
4

> <HAC>
25

> <Collection>
General

$$$$
F1814-0480
  -ISIS-  06222321142D

 31 34  0  0  0  0  0  0  0  0999 V2000
   -5.2833    2.1958    0.0000 C   0  0  0  0  0  0  0  0  0  0  0  0
   -6.0292    2.5333    0.0000 S   0  0  0  0  0  0  0  0  0  0  0  0
   -6.5917    1.9083    0.0000 C   0  0  0  0  0  0  0  0  0  0  0  0
   -4.5833    2.5958    0.0000 N   0  0  0  0  0  0  0  0  0  0  0  0
   -5.3625    1.3500    0.0000 N   0  0  3  0  0  0  0  0  0  0  0  0
   -6.1667    1.1833    0.0000 C   0  0  0  0  0  0  0  0  0  0  0  0
   -1.7083    5.0250    0.0000 N   0  0  3  0  0  0  0  0  0  0  0  0
   -4.5833    3.3958    0.0000 C   0  0  0  0  0  0  0  0  0  0  0  0
   -0.9458    4.7167    0.0000 C   0  0  0  0  0  0  0  0  0  0  0  0
   -1.6500    5.8542    0.0000 C   0  0  0  0  0  0  0  0  0  0  0  0
   -2.4333    4.6167    0.0000 C   0  0  0  0  0  0  0  0  0  0  0  0
   -7.4417    1.9083    0.0000 C   0  0  0  0  0  0  0  0  0  0  0  0
   -6.5917    0.4583    0.0000 C   0  0  0  0  0  0  0  0  0  0  0  0
   -3.8708    3.8000    0.0000 C   0  0  0  0  0  0  0  0  0  0  0  0
   -5.2833    3.7958    0.0000 O   0  0  0  0  0  0  0  0  0  0  0  0
   -0.8458    6.0542    0.0000 C   0  0  0  0  0  0  0  0  0  0  0  0
   -0.4208    5.3542    0.0000 C   0  0  0  0  0  0  0  0  0  0  0  0
   -2.2958    6.4000    0.0000 O   0  0  0  0  0  0  0  0  0  0  0  0
   -0.7458    3.9250    0.0000 O   0  0  0  0  0  0  0  0  0  0  0  0
   -3.1500    5.0417    0.0000 C   0  0  0  0  0  0  0  0  0  0  0  0
   -2.4458    3.8000    0.0000 C   0  0  0  0  0  0  0  0  0  0  0  0
   -7.8542    1.1833    0.0000 C   0  0  0  0  0  0  0  0  0  0  0  0
   -7.4417    0.4500    0.0000 C   0  0  0  0  0  0  0  0  0  0  0  0
   -3.1583    3.3958    0.0000 C   0  0  0  0  0  0  0  0  0  0  0  0
   -3.8625    4.6292    0.0000 C   0  0  0  0  0  0  0  0  0  0  0  0
   -4.7708    0.8083    0.0000 C   0  0  0  0  0  0  0  0  0  0  0  0
   -7.8417    2.6208    0.0000 O   0  0  0  0  0  0  0  0  0  0  0  0
   -6.1875   -0.2500    0.0000 O   0  0  0  0  0  0  0  0  0  0  0  0
   -6.5167   -1.0042    0.0000 C   0  0  0  0  0  0  0  0  0  0  0  0
   -8.6750    2.6250    0.0000 C   0  0  0  0  0  0  0  0  0  0  0  0
   -4.9458    0.0083    0.0000 C   0  0  0  0  0  0  0  0  0  0  0  0
  2  1  1  0  0  0  0
  3  2  1  0  0  0  0
  4  1  2  0  0  0  0
  5  1  1  0  0  0  0
  6  5  1  0  0  0  0
  7 11  1  0  0  0  0
  8  4  1  0  0  0  0
  9  7  1  0  0  0  0
 10  7  1  0  0  0  0
 11 20  1  0  0  0  0
 12  3  1  0  0  0  0
 13  6  1  0  0  0  0
 14  8  1  0  0  0  0
 15  8  2  0  0  0  0
 16 10  1  0  0  0  0
 17  9  1  0  0  0  0
 18 10  2  0  0  0  0
 19  9  2  0  0  0  0
 20 25  2  0  0  0  0
 21 24  1  0  0  0  0
 22 12  2  0  0  0  0
 23 13  2  0  0  0  0
 24 14  2  0  0  0  0
 25 14  1  0  0  0  0
 26  5  1  0  0  0  0
 27 12  1  0  0  0  0
 28 13  1  0  0  0  0
 29 28  1  0  0  0  0
 30 27  1  0  0  0  0
 31 26  1  0  0  0  0
  6  3  2  0  0  0  0
 22 23  1  0  0  0  0
 21 11  2  0  0  0  0
 16 17  1  0  0  0  0
M  END
> <IDNUMBER>
F1814-0480

> <Chemical_Name>
4-(2,5-dioxopyrrolidin-1-yl)-N-[(2Z)-3-ethyl-4,7-dimethoxy-2,3-dihydro-1,3-benzothiazol-2-ylidene]benzamide

> <CAS>
1164536-00-8

> <PriceCoeff>
1.00

> <MW>
439.48

> <Description>
solid

> <FSP3>
0.27

> <clogP>
3.49

> <TPSA>
113.81

> <Acceptor>
5

> <Donor>
0

> <RotBonds>
6

> <HAC>
31

> <Collection>
General

$$$$
F1814-0660
  -ISIS-  06222321142D

 31 34  0  0  0  0  0  0  0  0999 V2000
   -5.2833    2.1958    0.0000 C   0  0  0  0  0  0  0  0  0  0  0  0
   -6.0292    2.5333    0.0000 S   0  0  0  0  0  0  0  0  0  0  0  0
   -6.5917    1.9083    0.0000 C   0  0  0  0  0  0  0  0  0  0  0  0
   -4.5833    2.5958    0.0000 N   0  0  0  0  0  0  0  0  0  0  0  0
   -5.3625    1.3500    0.0000 N   0  0  3  0  0  0  0  0  0  0  0  0
   -1.7208    3.3833    0.0000 N   0  0  3  0  0  0  0  0  0  0  0  0
   -6.1667    1.1833    0.0000 C   0  0  0  0  0  0  0  0  0  0  0  0
   -4.5833    3.3958    0.0000 C   0  0  0  0  0  0  0  0  0  0  0  0
   -2.4375    3.8083    0.0000 C   0  0  0  0  0  0  0  0  0  0  0  0
   -1.6750    2.5583    0.0000 C   0  0  0  0  0  0  0  0  0  0  0  0
   -0.9500    3.6958    0.0000 C   0  0  0  0  0  0  0  0  0  0  0  0
   -3.1583    3.3958    0.0000 C   0  0  0  0  0  0  0  0  0  0  0  0
   -3.8708    3.8000    0.0000 C   0  0  0  0  0  0  0  0  0  0  0  0
   -7.4417    1.9083    0.0000 C   0  0  0  0  0  0  0  0  0  0  0  0
   -6.5917    0.4583    0.0000 C   0  0  0  0  0  0  0  0  0  0  0  0
   -5.2833    3.7958    0.0000 O   0  0  0  0  0  0  0  0  0  0  0  0
   -0.4208    3.0583    0.0000 C   0  0  0  0  0  0  0  0  0  0  0  0
   -0.8583    2.3583    0.0000 C   0  0  0  0  0  0  0  0  0  0  0  0
   -0.7375    4.4667    0.0000 O   0  0  0  0  0  0  0  0  0  0  0  0
   -2.3083    2.0375    0.0000 O   0  0  0  0  0  0  0  0  0  0  0  0
   -7.8542    1.1833    0.0000 C   0  0  0  0  0  0  0  0  0  0  0  0
   -7.4417    0.4500    0.0000 C   0  0  0  0  0  0  0  0  0  0  0  0
   -4.7708    0.8083    0.0000 C   0  0  0  0  0  0  0  0  0  0  0  0
   -2.4333    4.6167    0.0000 C   0  0  0  0  0  0  0  0  0  0  0  0
   -7.8417    2.6208    0.0000 O   0  0  0  0  0  0  0  0  0  0  0  0
   -6.1875   -0.2500    0.0000 O   0  0  0  0  0  0  0  0  0  0  0  0
   -3.8625    4.6292    0.0000 C   0  0  0  0  0  0  0  0  0  0  0  0
   -3.1458    5.0417    0.0000 C   0  0  0  0  0  0  0  0  0  0  0  0
   -6.5167   -1.0042    0.0000 C   0  0  0  0  0  0  0  0  0  0  0  0
   -8.6750    2.6250    0.0000 C   0  0  0  0  0  0  0  0  0  0  0  0
   -4.9458    0.0083    0.0000 C   0  0  0  0  0  0  0  0  0  0  0  0
  2  1  1  0  0  0  0
  3  2  1  0  0  0  0
  4  1  2  0  0  0  0
  5  1  1  0  0  0  0
  6  9  1  0  0  0  0
  7  5  1  0  0  0  0
  8  4  1  0  0  0  0
  9 12  1  0  0  0  0
 10  6  1  0  0  0  0
 11  6  1  0  0  0  0
 12 13  2  0  0  0  0
 13  8  1  0  0  0  0
 14  3  1  0  0  0  0
 15  7  1  0  0  0  0
 16  8  2  0  0  0  0
 17 11  1  0  0  0  0
 18 10  1  0  0  0  0
 19 11  2  0  0  0  0
 20 10  2  0  0  0  0
 21 14  2  0  0  0  0
 22 15  2  0  0  0  0
 23  5  1  0  0  0  0
 24 28  1  0  0  0  0
 25 14  1  0  0  0  0
 26 15  1  0  0  0  0
 27 13  1  0  0  0  0
 28 27  2  0  0  0  0
 29 26  1  0  0  0  0
 30 25  1  0  0  0  0
 31 23  1  0  0  0  0
  7  3  2  0  0  0  0
 21 22  1  0  0  0  0
 24  9  2  0  0  0  0
 17 18  1  0  0  0  0
M  END
> <IDNUMBER>
F1814-0660

> <Chemical_Name>
3-(2,5-dioxopyrrolidin-1-yl)-N-[(2Z)-3-ethyl-4,7-dimethoxy-2,3-dihydro-1,3-benzothiazol-2-ylidene]benzamide

> <CAS>
868369-98-6

> <PriceCoeff>
1.00

> <MW>
439.48

> <Description>
solid

> <FSP3>
0.27

> <clogP>
3.49

> <TPSA>
113.81

> <Acceptor>
5

> <Donor>
0

> <RotBonds>
6

> <HAC>
31

> <Collection>
General

$$$$
F1673-4952
  -ISIS-  06222321452D

 29 31  0  0  0  0  0  0  0  0999 V2000
   -0.5458    0.5375    0.0000 S   0  0  3  0  0  0  0  0  0  0  0  0
   -3.7125   -1.9750    0.0000 N   0  3  0  0  0  0  0  0  0  0  0  0
   -2.9958   -1.5625    0.0000 C   0  0  0  0  0  0  0  0  0  0  0  0
   -0.8583   -1.9792    0.0000 C   0  0  0  0  0  0  0  0  0  0  0  0
   -0.1375   -1.5667    0.0000 N   0  0  3  0  0  0  0  0  0  0  0  0
   -0.8083   -0.2500    0.0000 C   0  0  0  0  0  0  0  0  0  0  0  0
   -2.2833   -1.9667    0.0000 C   0  0  0  0  0  0  0  0  0  0  0  0
   -1.5708   -1.5625    0.0000 C   0  0  0  0  0  0  0  0  0  0  0  0
   -0.1375   -0.7375    0.0000 C   0  0  3  0  0  0  0  0  0  0  0  0
   -2.9958   -0.7292    0.0000 C   0  0  0  0  0  0  0  0  0  0  0  0
   -1.3708    0.6708    0.0000 O   0  0  0  0  0  0  0  0  0  0  0  0
   -0.4333    1.3583    0.0000 O   0  0  0  0  0  0  0  0  0  0  0  0
   -4.4250   -1.5625    0.0000 O   0  5  0  0  0  0  0  0  0  0  0  0
    0.5292   -0.2542    0.0000 C   0  0  0  0  0  0  0  0  0  0  0  0
   -3.7125   -2.8000    0.0000 O   0  0  0  0  0  0  0  0  0  0  0  0
    0.5750   -1.9792    0.0000 C   0  0  0  0  0  0  0  0  0  0  0  0
    0.2792    0.5375    0.0000 C   0  0  0  0  0  0  0  0  0  0  0  0
   -0.8625   -2.8042    0.0000 O   0  0  0  0  0  0  0  0  0  0  0  0
   -1.5625   -0.7375    0.0000 C   0  0  0  0  0  0  0  0  0  0  0  0
   -2.2750   -0.3167    0.0000 C   0  0  0  0  0  0  0  0  0  0  0  0
    1.2917   -1.5750    0.0000 C   0  0  0  0  0  0  0  0  0  0  0  0
   -3.7000   -0.3167    0.0000 Cl  0  0  0  0  0  0  0  0  0  0  0  0
    2.7292   -0.7542    0.0000 C   0  0  0  0  0  0  0  0  0  0  0  0
    2.0042   -1.9917    0.0000 C   0  0  0  0  0  0  0  0  0  0  0  0
    1.2917   -0.7500    0.0000 C   0  0  0  0  0  0  0  0  0  0  0  0
    2.0042   -0.3375    0.0000 C   0  0  0  0  0  0  0  0  0  0  0  0
    2.7292   -1.5792    0.0000 C   0  0  0  0  0  0  0  0  0  0  0  0
    3.4500   -0.3417    0.0000 O   0  0  0  0  0  0  0  0  0  0  0  0
    4.1625   -0.7542    0.0000 C   0  0  0  0  0  0  0  0  0  0  0  0
  2  3  1  0  0  0  0
  3  7  2  0  0  0  0
  4  5  1  0  0  0  0
  5  9  1  0  0  0  0
  6  1  1  0  0  0  0
  7  8  1  0  0  0  0
  8  4  1  0  0  0  0
  9  6  1  0  0  0  0
 10 20  2  0  0  0  0
 11  1  2  0  0  0  0
 12  1  2  0  0  0  0
 13  2  1  0  0  0  0
 14 17  1  0  0  0  0
 15  2  2  0  0  0  0
 16  5  1  0  0  0  0
 17  1  1  0  0  0  0
 18  4  2  0  0  0  0
 19  8  2  0  0  0  0
 20 19  1  0  0  0  0
 21 16  1  0  0  0  0
 22 10  1  0  0  0  0
 23 26  1  0  0  0  0
 24 21  2  0  0  0  0
 25 21  1  0  0  0  0
 26 25  2  0  0  0  0
 27 24  1  0  0  0  0
 28 23  1  0  0  0  0
 29 28  1  0  0  0  0
 14  9  1  0  0  0  0
 23 27  2  0  0  0  0
 10  3  1  0  0  0  0
M  CHG  2   2   1  13  -1
M  END
> <IDNUMBER>
F1673-4952

> <Chemical_Name>
4-chloro-N-(1,1-dioxo-1lambda6-thiolan-3-yl)-N-[(4-methoxyphenyl)methyl]-3-nitrobenzamide

> <CAS>
579442-88-9

> <PriceCoeff>
1.00

> <MW>
438.88

> <Description>
solid

> <FSP3>
0.32

> <clogP>
2.13

> <TPSA>
115.20

> <Acceptor>
6

> <Donor>
0

> <RotBonds>
7

> <HAC>
29

> <Collection>
General

$$$$
F6739-8494
  -ISIS-  06222321472D

 21 22  0  0  0  0  0  0  0  0999 V2000
   -2.8583   -1.6500    0.0000 N   0  0  3  0  0  0  0  0  0  0  0  0
   -2.8583    0.8250    0.0000 C   0  0  0  0  0  0  0  0  0  0  0  0
   -2.8583   -2.4750    0.0000 C   0  0  3  0  0  0  0  0  0  0  0  0
   -3.5750   -1.2292    0.0000 C   0  0  0  0  0  0  0  0  0  0  0  0
   -3.5750    1.2375    0.0000 C   0  0  0  0  0  0  0  0  0  0  0  0
   -2.8583   -0.0000    0.0000 C   0  0  0  0  0  0  0  0  0  0  0  0
   -3.5750   -0.4042    0.0000 C   0  0  0  0  0  0  0  0  0  0  0  0
   -2.1458   -2.8792    0.0000 C   0  0  0  0  0  0  0  0  0  0  0  0
   -4.2875    0.8250    0.0000 C   0  0  0  0  0  0  0  0  0  0  0  0
   -4.2875   -0.0000    0.0000 C   0  0  0  0  0  0  0  0  0  0  0  0
   -2.1458    1.2375    0.0000 O   0  0  0  0  0  0  0  0  0  0  0  0
   -3.5750    2.0625    0.0000 O   0  0  0  0  0  0  0  0  0  0  0  0
   -2.1458   -1.2292    0.0000 C   0  0  0  0  0  0  0  0  0  0  0  0
   -3.5750   -2.8792    0.0000 C   0  0  0  0  0  0  0  0  0  0  0  0
   -1.4333   -2.4750    0.0000 C   0  0  0  0  0  0  0  0  0  0  0  0
   -2.1458   -3.7042    0.0000 C   0  0  0  0  0  0  0  0  0  0  0  0
   -1.4333    0.8250    0.0000 C   0  0  0  0  0  0  0  0  0  0  0  0
   -4.2875    2.4750    0.0000 C   0  0  0  0  0  0  0  0  0  0  0  0
   -1.4333   -4.1250    0.0000 C   0  0  0  0  0  0  0  0  0  0  0  0
   -0.7208   -2.8792    0.0000 C   0  0  0  0  0  0  0  0  0  0  0  0
   -0.7208   -3.7042    0.0000 C   0  0  0  0  0  0  0  0  0  0  0  0
  2  6  1  0  0  0  0
  3  1  1  0  0  0  0
  4  1  1  0  0  0  0
  5  9  1  0  0  0  0
  6  7  2  0  0  0  0
  7  4  1  0  0  0  0
  8  3  1  0  0  0  0
  9 10  2  0  0  0  0
 10  7  1  0  0  0  0
 11  2  1  0  0  0  0
 12  5  1  0  0  0  0
 13  1  1  0  0  0  0
 14  3  1  0  0  0  0
 15  8  1  0  0  0  0
 16  8  2  0  0  0  0
 17 11  1  0  0  0  0
 18 12  1  0  0  0  0
 19 16  1  0  0  0  0
 20 15  2  0  0  0  0
 21 19  2  0  0  0  0
  2  5  2  0  0  0  0
 20 21  1  0  0  0  0
M  END
> <IDNUMBER>
F6739-8494

> <Chemical_Name>
[(3,4-dimethoxyphenyl)methyl](methyl)(1-phenylethyl)amine

> <CAS>


> <PriceCoeff>
1.50

> <MW>
285.38

> <Description>
oil

> <FSP3>
0.33

> <clogP>
3.71

> <TPSA>
21.70

> <Acceptor>
2

> <Donor>
1

> <RotBonds>
6

> <HAC>
21

> <Collection>
Advanced

> <Reference_compound>
CHEMBL3234001

> <Similarity>
0.8050

$$$$
F1008-0242
  -ISIS-  06222304352D

 40 42  0  0  0  0  0  0  0  0999 V2000
   -0.2708    0.7083    0.0000 C   0  0  0  0  0  0  0  0  0  0  0  0
   -0.7208    0.0250    0.0000 N   0  0  0  0  0  0  0  0  0  0  0  0
   -0.7208    1.3583    0.0000 N   0  0  3  0  0  0  0  0  0  0  0  0
   -1.5208    1.1125    0.0000 C   0  0  0  0  0  0  0  0  0  0  0  0
   -1.5208    0.2708    0.0000 C   0  0  0  0  0  0  0  0  0  0  0  0
    2.2167   -0.7417    0.0000 C   0  0  0  0  0  0  0  0  0  0  0  0
    0.5750    0.7083    0.0000 S   0  0  0  0  0  0  0  0  0  0  0  0
    1.8125   -1.4500    0.0000 C   0  0  0  0  0  0  0  0  0  0  0  0
    0.9667   -1.4500    0.0000 O   0  0  0  0  0  0  0  0  0  0  0  0
    1.8125   -0.0000    0.0000 C   0  0  0  0  0  0  0  0  0  0  0  0
    0.5542   -2.1750    0.0000 C   0  0  3  0  0  0  0  0  0  0  0  0
    0.9917   -0.0000    0.0000 C   0  0  0  0  0  0  0  0  0  0  0  0
    2.2167    0.7083    0.0000 O   0  0  0  0  0  0  0  0  0  0  0  0
   -0.2708   -2.1500    0.0000 F   0  0  0  0  0  0  0  0  0  0  0  0
    0.9667   -2.8917    0.0000 F   0  0  0  0  0  0  0  0  0  0  0  0
   -0.4583    2.1833    0.0000 C   0  0  0  0  0  0  0  0  0  0  0  0
   -2.2208    1.5208    0.0000 C   0  0  0  0  0  0  0  0  0  0  0  0
    3.0417   -0.7417    0.0000 C   0  0  0  0  0  0  0  0  0  0  0  0
   -2.2208   -0.1417    0.0000 C   0  0  0  0  0  0  0  0  0  0  0  0
    2.2167   -2.1750    0.0000 C   0  0  0  0  0  0  0  0  0  0  0  0
    3.4542   -1.4500    0.0000 C   0  0  0  0  0  0  0  0  0  0  0  0
   -2.9458    1.1125    0.0000 C   0  0  0  0  0  0  0  0  0  0  0  0
   -2.9458    0.2708    0.0000 C   0  0  0  0  0  0  0  0  0  0  0  0
    3.0417   -2.1917    0.0000 C   0  0  0  0  0  0  0  0  0  0  0  0
    6.3750    0.1000    0.0000 C   0  0  0  0  0  0  0  0  0  0  0  0
    6.2083   -1.2958    0.0000 C   0  0  0  0  0  0  0  0  0  0  0  0
    5.8958   -0.5500    0.0000 C   0  0  0  0  0  0  0  0  0  0  0  0
    6.0375    0.8750    0.0000 N   0  3  0  0  0  0  0  0  0  0  0  0
    5.6875   -1.9750    0.0000 N   0  3  0  0  0  0  0  0  0  0  0  0
    8.3500   -0.8250    0.0000 N   0  3  0  0  0  0  0  0  0  0  0  0
    7.5250   -0.7375    0.0000 C   0  0  0  0  0  0  0  0  0  0  0  0
    7.0333   -1.4250    0.0000 C   0  0  0  0  0  0  0  0  0  0  0  0
    7.2000   -0.0000    0.0000 C   0  0  0  0  0  0  0  0  0  0  0  0
    4.8791   -1.8583    0.0000 O   0  5  0  0  0  0  0  0  0  0  0  0
    6.5333    1.5292    0.0000 O   0  5  0  0  0  0  0  0  0  0  0  0
    8.7000   -1.5625    0.0000 O   0  5  0  0  0  0  0  0  0  0  0  0
    5.2375    0.9500    0.0000 O   0  0  0  0  0  0  0  0  0  0  0  0
    6.0125   -2.7375    0.0000 O   0  0  0  0  0  0  0  0  0  0  0  0
    8.8250   -0.1375    0.0000 O   0  0  0  0  0  0  0  0  0  0  0  0
    5.0666   -0.4500    0.0000 O   0  0  0  0  0  0  0  0  0  0  0  0
 18  6  2  0  0  0  0
 19  5  1  0  0  0  0
 20  8  2  0  0  0  0
 21 18  1  0  0  0  0
 22 17  2  0  0  0  0
 23 19  2  0  0  0  0
 24 21  2  0  0  0  0
  4  5  2  0  0  0  0
 22 23  1  0  0  0  0
 24 20  1  0  0  0  0
  2  1  2  0  0  0  0
  3  1  1  0  0  0  0
  4  3  1  0  0  0  0
  5  2  1  0  0  0  0
  6 10  1  0  0  0  0
  7  1  1  0  0  0  0
  8  6  1  0  0  0  0
  9  8  1  0  0  0  0
 10 12  1  0  0  0  0
 11  9  1  0  0  0  0
 12  7  1  0  0  0  0
 13 10  2  0  0  0  0
 14 11  1  0  0  0  0
 15 11  1  0  0  0  0
 16  3  1  0  0  0  0
 17  4  1  0  0  0  0
 26 27  2  0  0  0  0
 27 25  1  0  0  0  0
 28 25  1  0  0  0  0
 29 26  1  0  0  0  0
 30 31  1  0  0  0  0
 31 33  1  0  0  0  0
 32 31  2  0  0  0  0
 33 25  2  0  0  0  0
 34 29  1  0  0  0  0
 35 28  1  0  0  0  0
 36 30  1  0  0  0  0
 37 28  2  0  0  0  0
 38 29  2  0  0  0  0
 39 30  2  0  0  0  0
 40 27  1  0  0  0  0
 26 32  1  0  0  0  0
M  CHG  6  28   1  29   1  30   1  34  -1  35  -1  36  -1
M  END
> <IDNUMBER>
F1008-0242

> <Chemical_Name>
1-[2-(difluoromethoxy)phenyl]-2-[(1-methyl-1H-1,3-benzodiazol-2-yl)sulfanyl]ethan-1-one; 2,4,6-trinitrophenol

> <CAS>
381165-88-4

> <PriceCoeff>
1.00

> <MW>
348.37

> <Description>
solid

> <FSP3>
0.18

> <clogP>
4.35

> <TPSA>
69.42

> <Acceptor>
3

> <Donor>
0

> <RotBonds>
6

> <HAC>
24

> <Collection>
General

> <Reference_compound>
CHEMBL273386

> <Similarity>
0.9070

$$$$
F1816-0722
  -ISIS-  06222321452D

 31 34  0  0  0  0  0  0  0  0999 V2000
   -4.5833    2.5500    0.0000 C   0  0  0  0  0  0  0  0  0  0  0  0
   -3.8708    2.9708    0.0000 N   0  0  0  0  0  0  0  0  0  0  0  0
   -4.6833    1.7333    0.0000 N   0  0  3  0  0  0  0  0  0  0  0  0
   -1.0083    3.7958    0.0000 N   0  0  3  0  0  0  0  0  0  0  0  0
   -5.3208    2.8958    0.0000 S   0  0  0  0  0  0  0  0  0  0  0  0
   -5.4875    1.5750    0.0000 C   0  0  0  0  0  0  0  0  0  0  0  0
   -5.8958    2.2958    0.0000 C   0  0  0  0  0  0  0  0  0  0  0  0
   -3.8708    3.8000    0.0000 C   0  0  0  0  0  0  0  0  0  0  0  0
   -1.7208    4.2125    0.0000 C   0  0  0  0  0  0  0  0  0  0  0  0
   -0.9625    2.9708    0.0000 C   0  0  0  0  0  0  0  0  0  0  0  0
   -0.2375    4.0917    0.0000 C   0  0  0  0  0  0  0  0  0  0  0  0
   -2.4375    3.8083    0.0000 C   0  0  0  0  0  0  0  0  0  0  0  0
   -3.1583    4.2125    0.0000 C   0  0  0  0  0  0  0  0  0  0  0  0
   -4.2500    0.3500    0.0000 C   0  0  0  0  0  0  0  0  0  0  0  0
   -4.4333   -0.4625    0.0000 C   0  0  0  0  0  0  0  0  0  0  0  0
   -5.9125    0.8708    0.0000 C   0  0  0  0  0  0  0  0  0  0  0  0
   -4.5958    4.2042    0.0000 O   0  0  0  0  0  0  0  0  0  0  0  0
   -0.1458    2.7708    0.0000 C   0  0  0  0  0  0  0  0  0  0  0  0
    0.2917    3.4708    0.0000 C   0  0  0  0  0  0  0  0  0  0  0  0
   -1.5958    2.4583    0.0000 O   0  0  0  0  0  0  0  0  0  0  0  0
   -0.0208    4.8875    0.0000 O   0  0  0  0  0  0  0  0  0  0  0  0
   -4.0625    1.1583    0.0000 C   0  0  0  0  0  0  0  0  0  0  0  0
   -6.7042    2.3125    0.0000 C   0  0  0  0  0  0  0  0  0  0  0  0
   -1.7125    5.0292    0.0000 C   0  0  0  0  0  0  0  0  0  0  0  0
   -5.5208    0.1375    0.0000 O   0  0  0  0  0  0  0  0  0  0  0  0
   -3.1500    5.0417    0.0000 C   0  0  0  0  0  0  0  0  0  0  0  0
   -2.4333    5.4542    0.0000 C   0  0  0  0  0  0  0  0  0  0  0  0
   -7.1417    1.6083    0.0000 C   0  0  0  0  0  0  0  0  0  0  0  0
   -6.7292    0.8833    0.0000 C   0  0  0  0  0  0  0  0  0  0  0  0
   -5.9458   -0.5667    0.0000 C   0  0  0  0  0  0  0  0  0  0  0  0
   -5.5625   -1.2792    0.0000 C   0  0  0  0  0  0  0  0  0  0  0  0
  2  1  2  0  0  0  0
  3  1  1  0  0  0  0
  4  9  1  0  0  0  0
  5  1  1  0  0  0  0
  6  3  1  0  0  0  0
  7  5  1  0  0  0  0
  8  2  1  0  0  0  0
  9 12  1  0  0  0  0
 10  4  1  0  0  0  0
 11  4  1  0  0  0  0
 12 13  2  0  0  0  0
 13  8  1  0  0  0  0
 14 22  1  0  0  0  0
 15 14  3  0  0  0  0
 16  6  1  0  0  0  0
 17  8  2  0  0  0  0
 18 10  1  0  0  0  0
 19 11  1  0  0  0  0
 20 10  2  0  0  0  0
 21 11  2  0  0  0  0
 22  3  1  0  0  0  0
 23  7  1  0  0  0  0
 24 27  1  0  0  0  0
 25 16  1  0  0  0  0
 26 13  1  0  0  0  0
 27 26  2  0  0  0  0
 28 23  2  0  0  0  0
 29 16  2  0  0  0  0
 30 25  1  0  0  0  0
 31 30  1  0  0  0  0
  6  7  2  0  0  0  0
 28 29  1  0  0  0  0
 24  9  2  0  0  0  0
 19 18  1  0  0  0  0
M  END
> <IDNUMBER>
F1816-0722

> <Chemical_Name>
3-(2,5-dioxopyrrolidin-1-yl)-N-[(2Z)-4-ethoxy-3-(prop-2-yn-1-yl)-2,3-dihydro-1,3-benzothiazol-2-ylidene]benzamide

> <CAS>
868674-14-0

> <PriceCoeff>
1.00

> <MW>
433.48

> <Description>
solid

> <FSP3>
0.22

> <clogP>
3.50

> <TPSA>
104.58

> <Acceptor>
4

> <Donor>
0

> <RotBonds>
7

> <HAC>
31

> <Collection>
General

$$$$
F1820-0521
  -ISIS-  06222321442D

 32 35  0  0  0  0  0  0  0  0999 V2000
   -4.5958    2.5625    0.0000 C   0  0  0  0  0  0  0  0  0  0  0  0
   -4.6833    1.7458    0.0000 N   0  0  3  0  0  0  0  0  0  0  0  0
   -3.8625    2.9833    0.0000 N   0  0  0  0  0  0  0  0  0  0  0  0
   -5.3208    2.9000    0.0000 S   0  0  0  0  0  0  0  0  0  0  0  0
   -5.4875    1.5958    0.0000 C   0  0  0  0  0  0  0  0  0  0  0  0
   -1.0083    5.4292    0.0000 N   0  0  3  0  0  0  0  0  0  0  0  0
   -5.8833    2.3083    0.0000 C   0  0  0  0  0  0  0  0  0  0  0  0
   -3.8708    3.8000    0.0000 C   0  0  0  0  0  0  0  0  0  0  0  0
   -0.2500    5.1292    0.0000 C   0  0  0  0  0  0  0  0  0  0  0  0
   -0.9583    6.2542    0.0000 C   0  0  0  0  0  0  0  0  0  0  0  0
   -6.7000    2.3333    0.0000 C   0  0  0  0  0  0  0  0  0  0  0  0
   -4.0708    1.1833    0.0000 C   0  0  0  0  0  0  0  0  0  0  0  0
   -1.7250    5.0250    0.0000 C   0  0  0  0  0  0  0  0  0  0  0  0
   -5.9083    0.8875    0.0000 C   0  0  0  0  0  0  0  0  0  0  0  0
   -4.2583    0.3708    0.0000 C   0  0  0  0  0  0  0  0  0  0  0  0
   -3.1583    4.2042    0.0000 C   0  0  0  0  0  0  0  0  0  0  0  0
   -7.1292    1.6250    0.0000 C   0  0  0  0  0  0  0  0  0  0  0  0
   -4.5833    4.2167    0.0000 O   0  0  0  0  0  0  0  0  0  0  0  0
    0.2750    5.7625    0.0000 C   0  0  0  0  0  0  0  0  0  0  0  0
   -0.1500    6.4542    0.0000 C   0  0  0  0  0  0  0  0  0  0  0  0
   -0.0458    4.3292    0.0000 O   0  0  0  0  0  0  0  0  0  0  0  0
   -1.5958    6.8042    0.0000 O   0  0  0  0  0  0  0  0  0  0  0  0
   -6.7167    0.9083    0.0000 C   0  0  0  0  0  0  0  0  0  0  0  0
   -5.0458    0.1333    0.0000 O   0  0  0  0  0  0  0  0  0  0  0  0
   -1.7375    4.2042    0.0000 C   0  0  0  0  0  0  0  0  0  0  0  0
   -2.4458    5.4417    0.0000 C   0  0  0  0  0  0  0  0  0  0  0  0
   -3.1583    5.0292    0.0000 C   0  0  0  0  0  0  0  0  0  0  0  0
   -2.4500    3.8083    0.0000 C   0  0  0  0  0  0  0  0  0  0  0  0
   -3.6625   -0.1875    0.0000 O   0  0  0  0  0  0  0  0  0  0  0  0
   -7.0917    3.0583    0.0000 C   0  0  0  0  0  0  0  0  0  0  0  0
   -7.1292    0.1875    0.0000 C   0  0  0  0  0  0  0  0  0  0  0  0
   -3.8500   -0.9875    0.0000 C   0  0  0  0  0  0  0  0  0  0  0  0
  2  1  1  0  0  0  0
  3  1  2  0  0  0  0
  4  1  1  0  0  0  0
  5  2  1  0  0  0  0
  6 13  1  0  0  0  0
  7  4  1  0  0  0  0
  8  3  1  0  0  0  0
  9  6  1  0  0  0  0
 10  6  1  0  0  0  0
 11  7  1  0  0  0  0
 12  2  1  0  0  0  0
 13 25  2  0  0  0  0
 14  5  1  0  0  0  0
 15 12  1  0  0  0  0
 16  8  1  0  0  0  0
 17 11  2  0  0  0  0
 18  8  2  0  0  0  0
 19  9  1  0  0  0  0
 20 10  1  0  0  0  0
 21  9  2  0  0  0  0
 22 10  2  0  0  0  0
 23 14  2  0  0  0  0
 24 15  2  0  0  0  0
 25 28  1  0  0  0  0
 26 27  2  0  0  0  0
 27 16  1  0  0  0  0
 28 16  2  0  0  0  0
 29 15  1  0  0  0  0
 30 11  1  0  0  0  0
 31 23  1  0  0  0  0
 32 29  1  0  0  0  0
  5  7  2  0  0  0  0
 17 23  1  0  0  0  0
 26 13  1  0  0  0  0
 20 19  1  0  0  0  0
M  END
> <IDNUMBER>
F1820-0521

> <Chemical_Name>
methyl 2-[(2Z)-2-{[4-(2,5-dioxopyrrolidin-1-yl)benzoyl]imino}-5,7-dimethyl-2,3-dihydro-1,3-benzothiazol-3-yl]acetate

> <CAS>
1322259-53-9

> <PriceCoeff>
1.00

> <MW>
451.49

> <Description>
solid

> <FSP3>
0.26

> <clogP>
3.51

> <TPSA>
121.65

> <Acceptor>
5

> <Donor>
0

> <RotBonds>
6

> <HAC>
32

> <Collection>
General

$$$$
F1820-0719
  -ISIS-  06222321442D

 32 35  0  0  0  0  0  0  0  0999 V2000
   -4.5958    2.5625    0.0000 C   0  0  0  0  0  0  0  0  0  0  0  0
   -4.6833    1.7458    0.0000 N   0  0  3  0  0  0  0  0  0  0  0  0
   -3.8625    2.9833    0.0000 N   0  0  0  0  0  0  0  0  0  0  0  0
   -5.3208    2.9000    0.0000 S   0  0  0  0  0  0  0  0  0  0  0  0
   -1.0208    3.8000    0.0000 N   0  0  3  0  0  0  0  0  0  0  0  0
   -5.4875    1.5958    0.0000 C   0  0  0  0  0  0  0  0  0  0  0  0
   -5.8833    2.3083    0.0000 C   0  0  0  0  0  0  0  0  0  0  0  0
   -3.8708    3.8000    0.0000 C   0  0  0  0  0  0  0  0  0  0  0  0
   -1.7333    4.2042    0.0000 C   0  0  0  0  0  0  0  0  0  0  0  0
   -0.9708    2.9833    0.0000 C   0  0  0  0  0  0  0  0  0  0  0  0
   -0.2583    4.0917    0.0000 C   0  0  0  0  0  0  0  0  0  0  0  0
   -6.7000    2.3333    0.0000 C   0  0  0  0  0  0  0  0  0  0  0  0
   -4.0708    1.1833    0.0000 C   0  0  0  0  0  0  0  0  0  0  0  0
   -2.4458    3.8083    0.0000 C   0  0  0  0  0  0  0  0  0  0  0  0
   -3.1583    4.2042    0.0000 C   0  0  0  0  0  0  0  0  0  0  0  0
   -5.9083    0.8875    0.0000 C   0  0  0  0  0  0  0  0  0  0  0  0
   -4.2583    0.3708    0.0000 C   0  0  0  0  0  0  0  0  0  0  0  0
   -7.1292    1.6250    0.0000 C   0  0  0  0  0  0  0  0  0  0  0  0
   -4.5833    4.2167    0.0000 O   0  0  0  0  0  0  0  0  0  0  0  0
   -0.1583    2.7833    0.0000 C   0  0  0  0  0  0  0  0  0  0  0  0
    0.2750    3.4708    0.0000 C   0  0  0  0  0  0  0  0  0  0  0  0
   -1.6083    2.4583    0.0000 O   0  0  0  0  0  0  0  0  0  0  0  0
   -0.0375    4.8875    0.0000 O   0  0  0  0  0  0  0  0  0  0  0  0
   -6.7167    0.9083    0.0000 C   0  0  0  0  0  0  0  0  0  0  0  0
   -5.0458    0.1333    0.0000 O   0  0  0  0  0  0  0  0  0  0  0  0
   -3.6625   -0.1875    0.0000 O   0  0  0  0  0  0  0  0  0  0  0  0
   -1.7250    5.0292    0.0000 C   0  0  0  0  0  0  0  0  0  0  0  0
   -7.0917    3.0583    0.0000 C   0  0  0  0  0  0  0  0  0  0  0  0
   -3.1583    5.0292    0.0000 C   0  0  0  0  0  0  0  0  0  0  0  0
   -2.4375    5.4417    0.0000 C   0  0  0  0  0  0  0  0  0  0  0  0
   -7.1292    0.1875    0.0000 C   0  0  0  0  0  0  0  0  0  0  0  0
   -3.8500   -0.9875    0.0000 C   0  0  0  0  0  0  0  0  0  0  0  0
  2  1  1  0  0  0  0
  3  1  2  0  0  0  0
  4  1  1  0  0  0  0
  5  9  1  0  0  0  0
  6  2  1  0  0  0  0
  7  4  1  0  0  0  0
  8  3  1  0  0  0  0
  9 14  1  0  0  0  0
 10  5  1  0  0  0  0
 11  5  1  0  0  0  0
 12  7  1  0  0  0  0
 13  2  1  0  0  0  0
 14 15  2  0  0  0  0
 15  8  1  0  0  0  0
 16  6  1  0  0  0  0
 17 13  1  0  0  0  0
 18 12  2  0  0  0  0
 19  8  2  0  0  0  0
 20 10  1  0  0  0  0
 21 11  1  0  0  0  0
 22 10  2  0  0  0  0
 23 11  2  0  0  0  0
 24 16  2  0  0  0  0
 25 17  2  0  0  0  0
 26 17  1  0  0  0  0
 27 30  1  0  0  0  0
 28 12  1  0  0  0  0
 29 15  1  0  0  0  0
 30 29  2  0  0  0  0
 31 24  1  0  0  0  0
 32 26  1  0  0  0  0
  6  7  2  0  0  0  0
 18 24  1  0  0  0  0
 27  9  2  0  0  0  0
 21 20  1  0  0  0  0
M  END
> <IDNUMBER>
F1820-0719

> <Chemical_Name>
methyl 2-[(2Z)-2-{[3-(2,5-dioxopyrrolidin-1-yl)benzoyl]imino}-5,7-dimethyl-2,3-dihydro-1,3-benzothiazol-3-yl]acetate

> <CAS>
1322008-17-2

> <PriceCoeff>
1.00

> <MW>
451.49

> <Description>
solid

> <FSP3>
0.26

> <clogP>
3.51

> <TPSA>
121.65

> <Acceptor>
5

> <Donor>
0

> <RotBonds>
6

> <HAC>
32

> <Collection>
General

$$$$
F1365-0240
  -ISIS-  06222321452D

 28 30  0  0  0  0  0  0  0  0999 V2000
   -1.1625    2.3833    0.0000 C   0  0  0  0  0  0  0  0  0  0  0  0
    1.3167    3.8083    0.0000 N   0  0  3  0  0  0  0  0  0  0  0  0
   -1.6458    1.7208    0.0000 N   0  0  3  0  0  0  0  0  0  0  0  0
   -0.3375    2.3750    0.0000 N   0  0  0  0  0  0  0  0  0  0  0  0
   -1.6458    3.0500    0.0000 S   0  0  0  0  0  0  0  0  0  0  0  0
   -2.4333    2.7958    0.0000 C   0  0  0  0  0  0  0  0  0  0  0  0
   -2.4333    1.9708    0.0000 C   0  0  0  0  0  0  0  0  0  0  0  0
    2.1292    3.8833    0.0000 C   0  0  0  0  0  0  0  0  0  0  0  0
    0.9792    4.5417    0.0000 C   0  0  0  0  0  0  0  0  0  0  0  0
    0.0750    3.0875    0.0000 C   0  0  0  0  0  0  0  0  0  0  0  0
    0.9000    3.0875    0.0000 C   0  0  0  0  0  0  0  0  0  0  0  0
   -4.5833    3.2125    0.0000 C   0  0  0  0  0  0  0  0  0  0  0  0
   -3.1458    3.2083    0.0000 C   0  0  0  0  0  0  0  0  0  0  0  0
   -3.8583    2.7958    0.0000 C   0  0  0  0  0  0  0  0  0  0  0  0
   -3.1458    1.5583    0.0000 C   0  0  0  0  0  0  0  0  0  0  0  0
    1.5917    5.0917    0.0000 C   0  0  0  0  0  0  0  0  0  0  0  0
    2.3125    4.6917    0.0000 C   0  0  0  0  0  0  0  0  0  0  0  0
    0.1792    4.7292    0.0000 O   0  0  0  0  0  0  0  0  0  0  0  0
    2.6875    3.2708    0.0000 O   0  0  0  0  0  0  0  0  0  0  0  0
   -3.8583    1.9708    0.0000 C   0  0  0  0  0  0  0  0  0  0  0  0
   -0.3375    3.8000    0.0000 O   0  0  0  0  0  0  0  0  0  0  0  0
   -5.2958    2.8000    0.0000 O   0  0  0  0  0  0  0  0  0  0  0  0
   -1.9458    0.3208    0.0000 C   0  0  0  0  0  0  0  0  0  0  0  0
   -1.3958    0.9333    0.0000 C   0  0  0  0  0  0  0  0  0  0  0  0
   -2.7500    0.4875    0.0000 C   0  0  0  0  0  0  0  0  0  0  0  0
   -4.5708    4.0292    0.0000 O   0  0  0  0  0  0  0  0  0  0  0  0
   -5.2958    4.4542    0.0000 C   0  0  0  0  0  0  0  0  0  0  0  0
   -5.2875    5.2750    0.0000 C   0  0  0  0  0  0  0  0  0  0  0  0
  2 11  1  0  0  0  0
  3  1  1  0  0  0  0
  4  1  2  0  0  0  0
  5  1  1  0  0  0  0
  6  5  1  0  0  0  0
  7  3  1  0  0  0  0
  8  2  1  0  0  0  0
  9  2  1  0  0  0  0
 10  4  1  0  0  0  0
 11 10  1  0  0  0  0
 12 14  1  0  0  0  0
 13  6  1  0  0  0  0
 14 13  2  0  0  0  0
 15  7  1  0  0  0  0
 16  9  1  0  0  0  0
 17  8  1  0  0  0  0
 18  9  2  0  0  0  0
 19  8  2  0  0  0  0
 20 15  2  0  0  0  0
 21 10  2  0  0  0  0
 22 12  2  0  0  0  0
 23 24  1  0  0  0  0
 24  3  1  0  0  0  0
 25 23  2  0  0  0  0
 26 12  1  0  0  0  0
 27 26  1  0  0  0  0
 28 27  1  0  0  0  0
  7  6  2  0  0  0  0
 20 14  1  0  0  0  0
 17 16  1  0  0  0  0
M  END
> <IDNUMBER>
F1365-0240

> <Chemical_Name>
ethyl (2Z)-2-{[2-(2,5-dioxopyrrolidin-1-yl)acetyl]imino}-3-(prop-2-en-1-yl)-2,3-dihydro-1,3-benzothiazole-6-carboxylate

> <CAS>
865174-79-4

> <PriceCoeff>
1.00

> <MW>
401.44

> <Description>
solid

> <FSP3>
0.32

> <clogP>
4.05

> <TPSA>
121.65

> <Acceptor>
5

> <Donor>
0

> <RotBonds>
8

> <HAC>
28

> <Collection>
General

$$$$
F1673-3710
  -ISIS-  06222321142D

 28 30  0  0  0  0  0  0  0  0999 V2000
    1.2417   -2.7042    0.0000 S   0  0  3  0  0  0  0  0  0  0  0  0
    1.7417    0.7333    0.0000 N   0  3  0  0  0  0  0  0  0  0  0  0
    1.7417    0.0208    0.0000 C   0  0  0  0  0  0  0  0  0  0  0  0
    2.9750   -1.4000    0.0000 C   0  0  0  0  0  0  0  0  0  0  0  0
    2.9750   -2.1042    0.0000 N   0  0  3  0  0  0  0  0  0  0  0  0
    1.7167   -2.1792    0.0000 C   0  0  0  0  0  0  0  0  0  0  0  0
    2.3542   -0.3292    0.0000 C   0  0  0  0  0  0  0  0  0  0  0  0
    2.3542   -1.0417    0.0000 C   0  0  0  0  0  0  0  0  0  0  0  0
    2.3625   -2.4625    0.0000 C   0  0  3  0  0  0  0  0  0  0  0  0
    1.1292   -0.3375    0.0000 C   0  0  0  0  0  0  0  0  0  0  0  0
    0.6542   -3.1042    0.0000 O   0  0  0  0  0  0  0  0  0  0  0  0
    0.8417   -2.1250    0.0000 O   0  0  0  0  0  0  0  0  0  0  0  0
    2.3542    1.0875    0.0000 O   0  5  0  0  0  0  0  0  0  0  0  0
    2.2917   -3.1667    0.0000 C   0  0  0  0  0  0  0  0  0  0  0  0
    1.1292    1.0833    0.0000 O   0  0  0  0  0  0  0  0  0  0  0  0
    3.5917   -2.4542    0.0000 C   0  0  0  0  0  0  0  0  0  0  0  0
    1.6042   -3.3167    0.0000 C   0  0  0  0  0  0  0  0  0  0  0  0
    3.5875   -1.0417    0.0000 O   0  0  0  0  0  0  0  0  0  0  0  0
    1.7417   -1.4000    0.0000 C   0  0  0  0  0  0  0  0  0  0  0  0
    1.1292   -1.0417    0.0000 C   0  0  0  0  0  0  0  0  0  0  0  0
    4.2042   -2.1042    0.0000 C   0  0  0  0  0  0  0  0  0  0  0  0
    0.5250    0.0208    0.0000 Cl  0  0  0  0  0  0  0  0  0  0  0  0
    5.4250   -1.3917    0.0000 C   0  0  0  0  0  0  0  0  0  0  0  0
    6.0417   -1.0375    0.0000 Cl  0  0  0  0  0  0  0  0  0  0  0  0
    4.8167   -2.4542    0.0000 C   0  0  0  0  0  0  0  0  0  0  0  0
    4.2000   -1.4000    0.0000 C   0  0  0  0  0  0  0  0  0  0  0  0
    4.8042   -1.0417    0.0000 C   0  0  0  0  0  0  0  0  0  0  0  0
    5.4292   -2.1042    0.0000 C   0  0  0  0  0  0  0  0  0  0  0  0
  2  3  1  0  0  0  0
  3  7  2  0  0  0  0
  4  5  1  0  0  0  0
  5  9  1  0  0  0  0
  6  1  1  0  0  0  0
  7  8  1  0  0  0  0
  8  4  1  0  0  0  0
  9  6  1  0  0  0  0
 10 20  2  0  0  0  0
 11  1  2  0  0  0  0
 12  1  2  0  0  0  0
 13  2  1  0  0  0  0
 14 17  1  0  0  0  0
 15  2  2  0  0  0  0
 16  5  1  0  0  0  0
 17  1  1  0  0  0  0
 18  4  2  0  0  0  0
 19  8  2  0  0  0  0
 20 19  1  0  0  0  0
 21 16  1  0  0  0  0
 22 10  1  0  0  0  0
 23 27  1  0  0  0  0
 24 23  1  0  0  0  0
 25 21  2  0  0  0  0
 26 21  1  0  0  0  0
 27 26  2  0  0  0  0
 28 25  1  0  0  0  0
  9 14  1  0  0  0  0
 23 28  2  0  0  0  0
 10  3  1  0  0  0  0
M  CHG  2   2   1  13  -1
M  END
> <IDNUMBER>
F1673-3710

> <Chemical_Name>
4-chloro-N-[(4-chlorophenyl)methyl]-N-(1,1-dioxo-1lambda6-thiolan-3-yl)-3-nitrobenzamide

> <CAS>
575460-04-7

> <PriceCoeff>
1.00

> <MW>
443.30

> <Description>
solid

> <FSP3>
0.28

> <clogP>
2.92

> <TPSA>
105.97

> <Acceptor>
5

> <Donor>
0

> <RotBonds>
6

> <HAC>
28

> <Collection>
General

$$$$
F0709-0274
  -ISIS-  06222321142D

 27 28  0  0  0  0  0  0  0  0999 V2000
    3.7417   -5.5625    0.0000 C   0  0  0  0  0  0  0  0  0  0  0  0
    3.7292   -6.3875    0.0000 N   0  3  0  0  0  0  0  0  0  0  0  0
    1.5917   -4.3167    0.0000 C   0  0  0  0  0  0  0  0  0  0  0  0
    1.6000   -5.1417    0.0000 C   0  0  0  0  0  0  0  0  0  0  0  0
    3.0292   -5.1417    0.0000 C   0  0  0  0  0  0  0  0  0  0  0  0
    2.3167   -5.5625    0.0000 N   0  0  0  0  0  0  0  0  0  0  0  0
    0.8667   -3.9042    0.0000 C   0  0  0  0  0  0  0  0  0  0  0  0
    2.3042   -3.9042    0.0000 C   0  0  0  0  0  0  0  0  0  0  0  0
    4.4542   -5.1500    0.0000 C   0  0  0  0  0  0  0  0  0  0  0  0
    3.0167   -3.4792    0.0000 N   0  0  0  0  0  0  0  0  0  0  0  0
    3.0167   -6.7917    0.0000 O   0  5  0  0  0  0  0  0  0  0  0  0
   -1.2708   -4.3292    0.0000 C   0  0  0  0  0  0  0  0  0  0  0  0
    4.4417   -6.8042    0.0000 O   0  0  0  0  0  0  0  0  0  0  0  0
    0.1542   -4.3292    0.0000 C   0  0  0  0  0  0  0  0  0  0  0  0
    0.8917   -5.5542    0.0000 O   0  0  0  0  0  0  0  0  0  0  0  0
   -0.5583   -3.9167    0.0000 C   0  0  0  0  0  0  0  0  0  0  0  0
   -1.2708   -5.1542    0.0000 C   0  0  0  0  0  0  0  0  0  0  0  0
    3.0292   -4.3167    0.0000 C   0  0  0  0  0  0  0  0  0  0  0  0
    4.4542   -4.3167    0.0000 C   0  0  0  0  0  0  0  0  0  0  0  0
   -0.5583   -5.5667    0.0000 C   0  0  0  0  0  0  0  0  0  0  0  0
    0.1542   -5.1542    0.0000 C   0  0  0  0  0  0  0  0  0  0  0  0
    3.7417   -3.9125    0.0000 C   0  0  0  0  0  0  0  0  0  0  0  0
   -1.9958   -3.9167    0.0000 O   0  0  0  0  0  0  0  0  0  0  0  0
    5.1750   -3.9042    0.0000 Cl  0  0  0  0  0  0  0  0  0  0  0  0
   -1.9958   -5.5750    0.0000 O   0  0  0  0  0  0  0  0  0  0  0  0
   -1.9958   -3.0917    0.0000 C   0  0  0  0  0  0  0  0  0  0  0  0
   -1.9958   -6.4000    0.0000 C   0  0  0  0  0  0  0  0  0  0  0  0
  2  1  1  0  0  0  0
  3  4  1  0  0  0  0
  4  6  1  0  0  0  0
  5  1  2  0  0  0  0
  6  5  1  0  0  0  0
  7  3  2  0  0  0  0
  8  3  1  0  0  0  0
  9  1  1  0  0  0  0
 10  8  3  0  0  0  0
 11  2  1  0  0  0  0
 12 16  2  0  0  0  0
 13  2  2  0  0  0  0
 14  7  1  0  0  0  0
 15  4  2  0  0  0  0
 16 14  1  0  0  0  0
 17 20  2  0  0  0  0
 18  5  1  0  0  0  0
 19  9  2  0  0  0  0
 20 21  1  0  0  0  0
 21 14  2  0  0  0  0
 22 19  1  0  0  0  0
 23 12  1  0  0  0  0
 24 19  1  0  0  0  0
 25 17  1  0  0  0  0
 26 23  1  0  0  0  0
 27 25  1  0  0  0  0
 18 22  2  0  0  0  0
 17 12  1  0  0  0  0
M  CHG  2   2   1  11  -1
M  END
> <IDNUMBER>
F0709-0274

> <Chemical_Name>
(2Z)-N-(4-chloro-2-nitrophenyl)-2-cyano-3-(3,4-dimethoxyphenyl)prop-2-enamide

> <CAS>
332918-83-9

> <PriceCoeff>
1.00

> <MW>
387.77

> <Description>
solid

> <FSP3>
0.11

> <clogP>
3.28

> <TPSA>
114.49

> <Acceptor>
6

> <Donor>
1

> <RotBonds>
6

> <HAC>
27

> <Collection>
General

$$$$
F0347-1155
  -ISIS-  06222321142D

 30 32  0  0  0  0  0  0  0  0999 V2000
    6.1000   -1.0000    0.0000 C   0  0  0  0  0  0  0  0  0  0  0  0
    5.4500   -1.3667    0.0000 C   0  0  0  0  0  0  0  0  0  0  0  0
   -1.0500   -2.1042    0.0000 C   0  0  3  0  0  0  0  0  0  0  0  0
    2.1875   -2.5000    0.0000 C   0  0  0  0  0  0  0  0  0  0  0  0
    6.7500   -1.3667    0.0000 C   0  0  0  0  0  0  0  0  0  0  0  0
    4.8000   -1.0000    0.0000 N   0  0  0  0  0  0  0  0  0  0  0  0
    1.5500   -2.1042    0.0000 N   0  0  0  0  0  0  0  0  0  0  0  0
   -0.4000   -2.5000    0.0000 C   0  0  0  0  0  0  0  0  0  0  0  0
    6.1000   -0.2500    0.0000 C   0  0  0  0  0  0  0  0  0  0  0  0
    7.3792   -1.0000    0.0000 C   0  0  0  0  0  0  0  0  0  0  0  0
    2.8500   -2.1042    0.0000 C   0  0  0  0  0  0  0  0  0  0  0  0
    5.4500   -2.1167    0.0000 O   0  0  0  0  0  0  0  0  0  0  0  0
    0.9000   -2.5000    0.0000 C   0  0  0  0  0  0  0  0  0  0  0  0
    0.2292   -2.1042    0.0000 C   0  0  0  0  0  0  0  0  0  0  0  0
    2.1875   -3.2500    0.0000 O   0  0  0  0  0  0  0  0  0  0  0  0
   -1.4958   -2.7500    0.0000 F   0  0  0  0  0  0  0  0  0  0  0  0
   -1.6208   -1.7000    0.0000 F   0  0  0  0  0  0  0  0  0  0  0  0
   -1.0000   -1.3500    0.0000 F   0  0  0  0  0  0  0  0  0  0  0  0
    4.1500   -1.3542    0.0000 C   0  0  0  0  0  0  0  0  0  0  0  0
    2.8500   -1.3542    0.0000 C   0  0  0  0  0  0  0  0  0  0  0  0
    3.5000   -2.5000    0.0000 C   0  0  0  0  0  0  0  0  0  0  0  0
    7.4000   -0.2500    0.0000 C   0  0  0  0  0  0  0  0  0  0  0  0
    6.7292   -2.1167    0.0000 Cl  0  0  0  0  0  0  0  0  0  0  0  0
    6.7500    0.1125    0.0000 C   0  0  0  0  0  0  0  0  0  0  0  0
    3.5000   -1.0000    0.0000 C   0  0  0  0  0  0  0  0  0  0  0  0
    4.1500   -2.1042    0.0000 C   0  0  0  0  0  0  0  0  0  0  0  0
    8.0500    0.1125    0.0000 Cl  0  0  0  0  0  0  0  0  0  0  0  0
   -0.4000   -3.2500    0.0000 C   0  0  0  0  0  0  0  0  0  0  0  0
    0.2292   -3.6167    0.0000 C   0  0  0  0  0  0  0  0  0  0  0  0
    0.9000   -3.2500    0.0000 C   0  0  0  0  0  0  0  0  0  0  0  0
  2  1  1  0  0  0  0
  3  8  1  0  0  0  0
  4 11  1  0  0  0  0
  5  1  1  0  0  0  0
  6  2  1  0  0  0  0
  7  4  1  0  0  0  0
  8 14  2  0  0  0  0
  9  1  2  0  0  0  0
 10  5  2  0  0  0  0
 11 21  1  0  0  0  0
 12  2  2  0  0  0  0
 13  7  1  0  0  0  0
 14 13  1  0  0  0  0
 15  4  2  0  0  0  0
 16  3  1  0  0  0  0
 17  3  1  0  0  0  0
 18  3  1  0  0  0  0
 19  6  1  0  0  0  0
 20 25  1  0  0  0  0
 21 26  2  0  0  0  0
 22 24  2  0  0  0  0
 23  5  1  0  0  0  0
 24  9  1  0  0  0  0
 25 19  2  0  0  0  0
 26 19  1  0  0  0  0
 27 22  1  0  0  0  0
 28 29  2  0  0  0  0
 29 30  1  0  0  0  0
 30 13  2  0  0  0  0
 22 10  1  0  0  0  0
 11 20  2  0  0  0  0
 28  8  1  0  0  0  0
M  END
> <IDNUMBER>
F0347-1155

> <Chemical_Name>
2,4-dichloro-N-(4-{[3-(trifluoromethyl)phenyl]carbamoyl}phenyl)benzamide

> <CAS>
312616-66-3

> <PriceCoeff>
1.00

> <MW>
453.24

> <Description>
solid

> <FSP3>
0.05

> <clogP>
5.48

> <TPSA>
58.20

> <Acceptor>
2

> <Donor>
2

> <RotBonds>
4

> <HAC>
30

> <Collection>
General

> <Reference_compound>
CHEMBL2251256

> <Similarity>
0.8020

$$$$
F1366-2178
  -ISIS-  06222321142D

 32 35  0  0  0  0  0  0  0  0999 V2000
   -1.1625    2.3833    0.0000 C   0  0  0  0  0  0  0  0  0  0  0  0
   -1.6458    1.7208    0.0000 N   0  0  3  0  0  0  0  0  0  0  0  0
   -0.3375    2.3750    0.0000 N   0  0  0  0  0  0  0  0  0  0  0  0
    2.5042    1.6708    0.0000 N   0  0  3  0  0  0  0  0  0  0  0  0
   -1.6458    3.0500    0.0000 S   0  0  0  0  0  0  0  0  0  0  0  0
    0.0750    3.0875    0.0000 C   0  0  0  0  0  0  0  0  0  0  0  0
    2.1042    2.3833    0.0000 C   0  0  0  0  0  0  0  0  0  0  0  0
   -2.4333    1.9708    0.0000 C   0  0  0  0  0  0  0  0  0  0  0  0
    3.3167    1.5500    0.0000 C   0  0  0  0  0  0  0  0  0  0  0  0
    2.1417    0.9458    0.0000 C   0  0  0  0  0  0  0  0  0  0  0  0
   -2.4333    2.7958    0.0000 C   0  0  0  0  0  0  0  0  0  0  0  0
   -1.7625    0.9083    0.0000 C   0  0  0  0  0  0  0  0  0  0  0  0
    1.2917    2.3833    0.0000 C   0  0  0  0  0  0  0  0  0  0  0  0
    0.8875    3.0875    0.0000 C   0  0  0  0  0  0  0  0  0  0  0  0
   -2.5208    0.6083    0.0000 C   0  0  0  0  0  0  0  0  0  0  0  0
   -0.3375    3.8000    0.0000 O   0  0  0  0  0  0  0  0  0  0  0  0
    3.4542    0.7458    0.0000 C   0  0  0  0  0  0  0  0  0  0  0  0
    2.7417    0.3708    0.0000 C   0  0  0  0  0  0  0  0  0  0  0  0
    3.8917    2.1208    0.0000 O   0  0  0  0  0  0  0  0  0  0  0  0
    1.3417    0.8125    0.0000 O   0  0  0  0  0  0  0  0  0  0  0  0
   -2.6333   -0.2000    0.0000 O   0  0  0  0  0  0  0  0  0  0  0  0
   -3.1583    1.1083    0.0000 O   0  0  0  0  0  0  0  0  0  0  0  0
    2.5167    3.0833    0.0000 C   0  0  0  0  0  0  0  0  0  0  0  0
   -3.1458    1.5583    0.0000 C   0  0  0  0  0  0  0  0  0  0  0  0
   -3.1458    3.2083    0.0000 C   0  0  0  0  0  0  0  0  0  0  0  0
    1.3000    3.7958    0.0000 C   0  0  0  0  0  0  0  0  0  0  0  0
    2.1125    3.7958    0.0000 C   0  0  0  0  0  0  0  0  0  0  0  0
   -3.9125    0.8000    0.0000 C   0  0  0  0  0  0  0  0  0  0  0  0
   -3.8583    1.9708    0.0000 C   0  0  0  0  0  0  0  0  0  0  0  0
   -3.8583    2.7958    0.0000 C   0  0  0  0  0  0  0  0  0  0  0  0
   -4.5458    1.3083    0.0000 C   0  0  0  0  0  0  0  0  0  0  0  0
   -4.5625    3.2083    0.0000 H   0  0  0  0  0  0  0  0  0  0  0  0
  2  1  1  0  0  0  0
  3  1  2  0  0  0  0
  4  7  1  0  0  0  0
  5  1  1  0  0  0  0
  6  3  1  0  0  0  0
  7 13  1  0  0  0  0
  8  2  1  0  0  0  0
  9  4  1  0  0  0  0
 10  4  1  0  0  0  0
 11  5  1  0  0  0  0
 12  2  1  0  0  0  0
 13 14  2  0  0  0  0
 14  6  1  0  0  0  0
 15 12  1  0  0  0  0
 16  6  2  0  0  0  0
 17  9  1  0  0  0  0
 18 10  1  0  0  0  0
 19  9  2  0  0  0  0
 20 10  2  0  0  0  0
 21 15  2  0  0  0  0
 22 15  1  0  0  0  0
 23 27  1  0  0  0  0
 24  8  1  0  0  0  0
 25 11  1  0  0  0  0
 26 14  1  0  0  0  0
 27 26  2  0  0  0  0
 28 22  1  0  0  0  0
 29 24  2  0  0  0  0
 30 25  2  0  0  0  0
 31 28  1  0  0  0  0
 32 30  1  0  0  0  0
 11  8  2  0  0  0  0
 30 29  1  0  0  0  0
 23  7  2  0  0  0  0
 18 17  1  0  0  0  0
M  END
> <IDNUMBER>
F1366-2178

> <Chemical_Name>
ethyl 2-[(2Z)-2-{[3-(2,5-dioxopyrrolidin-1-yl)benzoyl]imino}-2,3-dihydro-1,3-benzothiazol-3-yl]acetate

> <CAS>
865247-00-3

> <PriceCoeff>
1.00

> <MW>
437.47

> <Description>
solid

> <FSP3>
0.23

> <clogP>
3.04

> <TPSA>
121.65

> <Acceptor>
5

> <Donor>
0

> <RotBonds>
7

> <HAC>
31

> <Collection>
General

$$$$
F1757-0140
  -ISIS-  06222321442D

 27 29  0  0  0  0  0  0  0  0999 V2000
    2.0000   -7.9667    0.0000 N   0  0  3  0  0  0  0  0  0  0  0  0
    1.2542   -8.3250    0.0000 N   0  0  0  0  0  0  0  0  0  0  0  0
    1.8875   -7.1500    0.0000 C   0  0  0  0  0  0  0  0  0  0  0  0
    1.0750   -7.0042    0.0000 C   0  0  0  0  0  0  0  0  0  0  0  0
    0.6792   -7.7292    0.0000 C   0  0  0  0  0  0  0  0  0  0  0  0
    2.7292   -8.3625    0.0000 C   0  0  0  0  0  0  0  0  0  0  0  0
    7.0542  -10.8042    0.0000 C   0  0  0  0  0  0  0  0  0  0  0  0
    6.3417  -10.3917    0.0000 C   0  0  0  0  0  0  0  0  0  0  0  0
    0.7167   -6.2542    0.0000 Br  0  0  0  0  0  0  0  0  0  0  0  0
    7.7667  -10.3917    0.0000 O   0  0  0  0  0  0  0  0  0  0  0  0
    7.0500  -11.6292    0.0000 C   0  0  0  0  0  0  0  0  0  0  0  0
    3.4292   -7.9292    0.0000 C   0  0  3  0  0  0  0  0  0  0  0  0
    6.3417   -9.5792    0.0000 C   0  0  0  0  0  0  0  0  0  0  0  0
    5.6167  -10.8042    0.0000 C   0  0  0  0  0  0  0  0  0  0  0  0
    4.1917   -9.1625    0.0000 O   0  0  0  0  0  0  0  0  0  0  0  0
    4.9167   -9.5792    0.0000 C   0  0  0  0  0  0  0  0  0  0  0  0
    2.4792   -6.5792    0.0000 C   0  0  0  0  0  0  0  0  0  0  0  0
    4.1667   -8.3167    0.0000 C   0  0  0  0  0  0  0  0  0  0  0  0
   -0.1333   -7.8375    0.0000 C   0  0  0  0  0  0  0  0  0  0  0  0
    5.6167   -9.1625    0.0000 C   0  0  0  0  0  0  0  0  0  0  0  0
    4.9167  -10.3917    0.0000 C   0  0  0  0  0  0  0  0  0  0  0  0
    3.4042   -7.1000    0.0000 O   0  0  0  0  0  0  0  0  0  0  0  0
    7.7625  -12.0417    0.0000 C   0  0  0  0  0  0  0  0  0  0  0  0
    6.3292  -12.0417    0.0000 C   0  0  0  0  0  0  0  0  0  0  0  0
    7.7667  -12.8625    0.0000 C   0  0  0  0  0  0  0  0  0  0  0  0
    6.3292  -12.8667    0.0000 C   0  0  0  0  0  0  0  0  0  0  0  0
    7.0417  -13.2792    0.0000 C   0  0  0  0  0  0  0  0  0  0  0  0
  2  1  1  0  0  0  0
  3  1  1  0  0  0  0
  4  3  2  0  0  0  0
  5  2  2  0  0  0  0
  6  1  1  0  0  0  0
  7  8  1  0  0  0  0
  8 14  2  0  0  0  0
  9  4  1  0  0  0  0
 10  7  2  0  0  0  0
 11  7  1  0  0  0  0
 12  6  1  0  0  0  0
 13 20  2  0  0  0  0
 14 21  1  0  0  0  0
 15 18  1  0  0  0  0
 16 15  1  0  0  0  0
 17  3  1  0  0  0  0
 18 12  1  0  0  0  0
 19  5  1  0  0  0  0
 20 16  1  0  0  0  0
 21 16  2  0  0  0  0
 22 12  1  0  0  0  0
 23 11  1  0  0  0  0
 24 11  2  0  0  0  0
 25 23  2  0  0  0  0
 26 24  1  0  0  0  0
 27 26  2  0  0  0  0
  4  5  1  0  0  0  0
  8 13  1  0  0  0  0
 27 25  1  0  0  0  0
M  END
> <IDNUMBER>
F1757-0140

> <Chemical_Name>
1-(4-benzoylphenoxy)-3-(4-bromo-3,5-dimethyl-1H-pyrazol-1-yl)propan-2-ol

> <CAS>
890602-30-9

> <PriceCoeff>
1.00

> <MW>
429.31

> <Description>
solid

> <FSP3>
0.24

> <clogP>
4.13

> <TPSA>
64.35

> <Acceptor>
4

> <Donor>
1

> <RotBonds>
7

> <HAC>
27

> <Collection>
General

$$$$
F1366-1518
  -ISIS-  06222321452D

 32 35  0  0  0  0  0  0  0  0999 V2000
   -1.1625    2.3833    0.0000 C   0  0  0  0  0  0  0  0  0  0  0  0
   -1.6458    1.7208    0.0000 N   0  0  3  0  0  0  0  0  0  0  0  0
   -0.3375    2.3750    0.0000 N   0  0  0  0  0  0  0  0  0  0  0  0
    2.5042    1.6708    0.0000 N   0  0  3  0  0  0  0  0  0  0  0  0
   -1.6458    3.0500    0.0000 S   0  0  0  0  0  0  0  0  0  0  0  0
   -2.4333    2.7958    0.0000 C   0  0  0  0  0  0  0  0  0  0  0  0
   -2.4333    1.9708    0.0000 C   0  0  0  0  0  0  0  0  0  0  0  0
    0.0750    3.0875    0.0000 C   0  0  0  0  0  0  0  0  0  0  0  0
    2.1042    2.3833    0.0000 C   0  0  0  0  0  0  0  0  0  0  0  0
    3.3167    1.5500    0.0000 C   0  0  0  0  0  0  0  0  0  0  0  0
    2.1417    0.9458    0.0000 C   0  0  0  0  0  0  0  0  0  0  0  0
   -1.7625    0.9083    0.0000 C   0  0  0  0  0  0  0  0  0  0  0  0
    1.2917    2.3833    0.0000 C   0  0  0  0  0  0  0  0  0  0  0  0
    0.8875    3.0875    0.0000 C   0  0  0  0  0  0  0  0  0  0  0  0
   -3.1458    3.2083    0.0000 C   0  0  0  0  0  0  0  0  0  0  0  0
   -3.1458    1.5583    0.0000 C   0  0  0  0  0  0  0  0  0  0  0  0
   -2.5208    0.6083    0.0000 C   0  0  0  0  0  0  0  0  0  0  0  0
   -0.3375    3.8000    0.0000 O   0  0  0  0  0  0  0  0  0  0  0  0
    3.4542    0.7458    0.0000 C   0  0  0  0  0  0  0  0  0  0  0  0
    2.7417    0.3708    0.0000 C   0  0  0  0  0  0  0  0  0  0  0  0
    3.8917    2.1208    0.0000 O   0  0  0  0  0  0  0  0  0  0  0  0
    1.3417    0.8125    0.0000 O   0  0  0  0  0  0  0  0  0  0  0  0
   -2.6333   -0.2000    0.0000 O   0  0  0  0  0  0  0  0  0  0  0  0
   -3.8583    2.7958    0.0000 C   0  0  0  0  0  0  0  0  0  0  0  0
   -3.8583    1.9708    0.0000 C   0  0  0  0  0  0  0  0  0  0  0  0
   -3.1583    1.1083    0.0000 O   0  0  0  0  0  0  0  0  0  0  0  0
    2.5167    3.0833    0.0000 C   0  0  0  0  0  0  0  0  0  0  0  0
   -4.5625    3.2083    0.0000 O   0  0  0  0  0  0  0  0  0  0  0  0
    1.3000    3.7958    0.0000 C   0  0  0  0  0  0  0  0  0  0  0  0
    2.1125    3.7958    0.0000 C   0  0  0  0  0  0  0  0  0  0  0  0
   -3.9125    0.8083    0.0000 C   0  0  0  0  0  0  0  0  0  0  0  0
   -5.2708    2.8000    0.0000 C   0  0  0  0  0  0  0  0  0  0  0  0
  2  1  1  0  0  0  0
  3  1  2  0  0  0  0
  4  9  1  0  0  0  0
  5  1  1  0  0  0  0
  6  5  1  0  0  0  0
  7  2  1  0  0  0  0
  8  3  1  0  0  0  0
  9 13  1  0  0  0  0
 10  4  1  0  0  0  0
 11  4  1  0  0  0  0
 12  2  1  0  0  0  0
 13 14  2  0  0  0  0
 14  8  1  0  0  0  0
 15  6  1  0  0  0  0
 16  7  1  0  0  0  0
 17 12  1  0  0  0  0
 18  8  2  0  0  0  0
 19 10  1  0  0  0  0
 20 11  1  0  0  0  0
 21 10  2  0  0  0  0
 22 11  2  0  0  0  0
 23 17  2  0  0  0  0
 24 15  2  0  0  0  0
 25 16  2  0  0  0  0
 26 17  1  0  0  0  0
 27 30  1  0  0  0  0
 28 24  1  0  0  0  0
 29 14  1  0  0  0  0
 30 29  2  0  0  0  0
 31 26  1  0  0  0  0
 32 28  1  0  0  0  0
  6  7  2  0  0  0  0
 24 25  1  0  0  0  0
 27  9  2  0  0  0  0
 20 19  1  0  0  0  0
M  END
> <IDNUMBER>
F1366-1518

> <Chemical_Name>
methyl 2-[(2Z)-2-{[3-(2,5-dioxopyrrolidin-1-yl)benzoyl]imino}-6-methoxy-2,3-dihydro-1,3-benzothiazol-3-yl]acetate

> <CAS>
865199-98-0

> <PriceCoeff>
1.00

> <MW>
453.47

> <Description>
solid

> <FSP3>
0.23

> <clogP>
2.43

> <TPSA>
130.88

> <Acceptor>
6

> <Donor>
0

> <RotBonds>
7

> <HAC>
32

> <Collection>
General

$$$$
F1751-0027
  -ISIS-  06222321142D

 28 31  0  0  0  0  0  0  0  0999 V2000
    1.7875    0.2375    0.0000 N   0  0  3  0  0  0  0  0  0  0  0  0
    2.4417    0.5333    0.0000 C   0  0  0  0  0  0  0  0  0  0  0  0
    1.8625   -0.4750    0.0000 C   0  0  0  0  0  0  0  0  0  0  0  0
    2.5625   -0.6167    0.0000 C   0  0  3  0  0  0  0  0  0  0  0  0
    1.1667    0.5958    0.0000 C   0  0  0  0  0  0  0  0  0  0  0  0
    4.7417   -3.9625    0.0000 N   0  3  0  0  0  0  0  0  0  0  0  0
    2.9167   -0.0000    0.0000 C   0  0  0  0  0  0  0  0  0  0  0  0
    0.5417    0.2375    0.0000 C   0  0  0  0  0  0  0  0  0  0  0  0
    2.8542   -1.2750    0.0000 N   0  0  0  0  0  0  0  0  0  0  0  0
    4.4500   -3.3042    0.0000 C   0  0  0  0  0  0  0  0  0  0  0  0
    4.3250   -4.5417    0.0000 O   0  5  0  0  0  0  0  0  0  0  0  0
    2.5875    1.2333    0.0000 O   0  0  0  0  0  0  0  0  0  0  0  0
    5.4542   -4.0292    0.0000 O   0  0  0  0  0  0  0  0  0  0  0  0
    1.3292   -0.9542    0.0000 O   0  0  0  0  0  0  0  0  0  0  0  0
    3.5667   -1.3417    0.0000 N   0  0  0  0  0  0  0  0  0  0  0  0
    3.7375   -3.2292    0.0000 C   0  0  0  0  0  0  0  0  0  0  0  0
    4.8667   -2.7167    0.0000 C   0  0  0  0  0  0  0  0  0  0  0  0
   -0.0750    0.6000    0.0000 C   0  0  0  0  0  0  0  0  0  0  0  0
    3.8625   -2.0000    0.0000 C   0  0  0  0  0  0  0  0  0  0  0  0
    1.1667    1.3208    0.0000 C   0  0  0  0  0  0  0  0  0  0  0  0
    4.5750   -2.0667    0.0000 C   0  0  0  0  0  0  0  0  0  0  0  0
    3.4417   -2.5792    0.0000 C   0  0  0  0  0  0  0  0  0  0  0  0
    0.5417   -0.4792    0.0000 C   0  0  0  0  0  0  0  0  0  0  0  0
    0.5417    1.6750    0.0000 C   0  0  0  0  0  0  0  0  0  0  0  0
   -0.0750    1.3125    0.0000 C   0  0  0  0  0  0  0  0  0  0  0  0
   -0.6958    0.2458    0.0000 C   0  0  0  0  0  0  0  0  0  0  0  0
   -0.0708   -0.8375    0.0000 C   0  0  0  0  0  0  0  0  0  0  0  0
   -0.6958   -0.4792    0.0000 C   0  0  0  0  0  0  0  0  0  0  0  0
  2  1  1  0  0  0  0
  3  1  1  0  0  0  0
  4  3  1  0  0  0  0
  5  1  1  0  0  0  0
  6 10  1  0  0  0  0
  7  2  1  0  0  0  0
  8  5  2  0  0  0  0
  9  4  1  0  0  0  0
 10 16  2  0  0  0  0
 11  6  1  0  0  0  0
 12  2  2  0  0  0  0
 13  6  2  0  0  0  0
 14  3  2  0  0  0  0
 15  9  1  0  0  0  0
 16 22  1  0  0  0  0
 17 21  2  0  0  0  0
 18  8  1  0  0  0  0
 19 15  1  0  0  0  0
 20  5  1  0  0  0  0
 21 19  1  0  0  0  0
 22 19  2  0  0  0  0
 23  8  1  0  0  0  0
 24 20  2  0  0  0  0
 25 24  1  0  0  0  0
 26 18  1  0  0  0  0
 27 23  2  0  0  0  0
 28 27  1  0  0  0  0
  4  7  1  0  0  0  0
 18 25  2  0  0  0  0
 26 28  2  0  0  0  0
 17 10  1  0  0  0  0
M  CHG  2   6   1  11  -1
M  END
> <IDNUMBER>
F1751-0027

> <Chemical_Name>
1-(naphthalen-1-yl)-3-[2-(4-nitrophenyl)hydrazin-1-yl]pyrrolidine-2,5-dione

> <CAS>
956607-02-6

> <PriceCoeff>
1.00

> <MW>
376.37

> <Description>
solid

> <FSP3>
0.10

> <clogP>
3.62

> <TPSA>
104.58

> <Acceptor>
5

> <Donor>
2

> <RotBonds>
5

> <HAC>
28

> <Collection>
General

$$$$
F0611-0297
  -ISIS-  06222321142D

 30 32  0  0  0  0  0  0  0  0999 V2000
   -2.4375    0.9500    0.0000 N   0  0  0  0  0  0  0  0  0  0  0  0
    3.9917    2.1708    0.0000 N   0  3  0  0  0  0  0  0  0  0  0  0
    3.2792    2.5833    0.0000 C   0  0  0  0  0  0  0  0  0  0  0  0
   -3.1500    2.1958    0.0000 C   0  0  0  0  0  0  0  0  0  0  0  0
   -3.1583    1.3708    0.0000 C   0  0  0  0  0  0  0  0  0  0  0  0
   -2.4375    2.6083    0.0000 C   0  0  0  0  0  0  0  0  0  0  0  0
   -1.7208    1.3625    0.0000 C   0  0  0  0  0  0  0  0  0  0  0  0
   -1.7208    2.1958    0.0000 C   0  0  0  0  0  0  0  0  0  0  0  0
    2.5667    2.1958    0.0000 C   0  0  0  0  0  0  0  0  0  0  0  0
    1.1375    2.1833    0.0000 C   0  0  0  0  0  0  0  0  0  0  0  0
    1.8542    2.5958    0.0000 C   0  0  0  0  0  0  0  0  0  0  0  0
    3.2917    3.4083    0.0000 C   0  0  0  0  0  0  0  0  0  0  0  0
   -3.8708    2.6083    0.0000 C   0  0  0  0  0  0  0  0  0  0  0  0
    4.7167    2.5708    0.0000 O   0  5  0  0  0  0  0  0  0  0  0  0
   -3.8708    0.9500    0.0000 C   0  0  0  0  0  0  0  0  0  0  0  0
    3.9750    1.3375    0.0000 O   0  0  0  0  0  0  0  0  0  0  0  0
   -1.0083    0.9500    0.0000 O   0  0  0  0  0  0  0  0  0  0  0  0
    1.1375    1.3625    0.0000 O   0  0  0  0  0  0  0  0  0  0  0  0
    1.8625    3.4375    0.0000 C   0  0  0  0  0  0  0  0  0  0  0  0
    2.5667    3.8333    0.0000 C   0  0  0  0  0  0  0  0  0  0  0  0
   -4.5833    2.1875    0.0000 C   0  0  0  0  0  0  0  0  0  0  0  0
    0.4250    2.6000    0.0000 N   0  0  0  0  0  0  0  0  0  0  0  0
   -4.5833    1.3625    0.0000 C   0  0  0  0  0  0  0  0  0  0  0  0
    4.0167    3.8208    0.0000 Cl  0  0  0  0  0  0  0  0  0  0  0  0
   -1.0083    2.6000    0.0000 C   0  0  0  0  0  0  0  0  0  0  0  0
   -3.8708    3.4208    0.0000 O   0  0  0  0  0  0  0  0  0  0  0  0
   -3.8625    0.1333    0.0000 O   0  0  0  0  0  0  0  0  0  0  0  0
   -0.2958    2.1875    0.0000 C   0  0  0  0  0  0  0  0  0  0  0  0
   -4.5833    3.8333    0.0000 C   0  0  0  0  0  0  0  0  0  0  0  0
   -3.1458   -0.2792    0.0000 C   0  0  0  0  0  0  0  0  0  0  0  0
  2  3  1  0  0  0  0
  3  9  1  0  0  0  0
  4  5  1  0  0  0  0
  5  1  1  0  0  0  0
  6  8  2  0  0  0  0
  7  1  1  0  0  0  0
  8  7  1  0  0  0  0
  9 11  2  0  0  0  0
 10 22  1  0  0  0  0
 11 10  1  0  0  0  0
 12 20  1  0  0  0  0
 13  4  2  0  0  0  0
 14  2  1  0  0  0  0
 15  5  2  0  0  0  0
 16  2  2  0  0  0  0
 17  7  2  0  0  0  0
 18 10  2  0  0  0  0
 19 11  1  0  0  0  0
 20 19  2  0  0  0  0
 21 23  2  0  0  0  0
 22 28  1  0  0  0  0
 23 15  1  0  0  0  0
 24 12  1  0  0  0  0
 25  8  1  0  0  0  0
 26 13  1  0  0  0  0
 27 15  1  0  0  0  0
 28 25  1  0  0  0  0
 29 26  1  0  0  0  0
 30 27  1  0  0  0  0
  6  4  1  0  0  0  0
 21 13  1  0  0  0  0
  3 12  2  0  0  0  0
M  CHG  2   2   1  14  -1
M  END
> <IDNUMBER>
F0611-0297

> <Chemical_Name>
4-chloro-N-[2-(5,8-dimethoxy-2-oxo-1,2-dihydroquinolin-3-yl)ethyl]-3-nitrobenzamide

> <CAS>
851404-06-3

> <PriceCoeff>
1.00

> <MW>
431.83

> <Description>
solid

> <FSP3>
0.20

> <clogP>
2.79

> <TPSA>
119.80

> <Acceptor>
6

> <Donor>
2

> <RotBonds>
7

> <HAC>
30

> <Collection>
General

$$$$
F1366-4950
  -ISIS-  06222321442D

 32 35  0  0  0  0  0  0  0  0999 V2000
   -1.8958    2.1583    0.0000 C   0  0  0  0  0  0  0  0  0  0  0  0
   -2.3750    2.8208    0.0000 N   0  0  3  0  0  0  0  0  0  0  0  0
   -1.0708    2.1583    0.0000 N   0  0  0  0  0  0  0  0  0  0  0  0
    1.8167    0.0208    0.0000 N   0  0  3  0  0  0  0  0  0  0  0  0
   -2.3750    1.4833    0.0000 S   0  0  0  0  0  0  0  0  0  0  0  0
   -3.1625    2.5583    0.0000 C   0  0  0  0  0  0  0  0  0  0  0  0
   -3.1583    1.7333    0.0000 C   0  0  0  0  0  0  0  0  0  0  0  0
   -0.6583    1.4458    0.0000 C   0  0  0  0  0  0  0  0  0  0  0  0
    1.4042    0.7375    0.0000 C   0  0  0  0  0  0  0  0  0  0  0  0
    2.6292   -0.0917    0.0000 C   0  0  0  0  0  0  0  0  0  0  0  0
    1.4500   -0.7125    0.0000 C   0  0  0  0  0  0  0  0  0  0  0  0
   -2.1250    3.6083    0.0000 C   0  0  0  0  0  0  0  0  0  0  0  0
    0.5792    0.7375    0.0000 C   0  0  0  0  0  0  0  0  0  0  0  0
    0.1667    1.4458    0.0000 C   0  0  0  0  0  0  0  0  0  0  0  0
   -1.3208    3.7708    0.0000 C   0  0  0  0  0  0  0  0  0  0  0  0
   -3.8750    2.9833    0.0000 C   0  0  0  0  0  0  0  0  0  0  0  0
   -1.0625    0.7250    0.0000 O   0  0  0  0  0  0  0  0  0  0  0  0
    2.7792   -0.9000    0.0000 C   0  0  0  0  0  0  0  0  0  0  0  0
    2.0542   -1.2917    0.0000 C   0  0  0  0  0  0  0  0  0  0  0  0
    3.2125    0.4875    0.0000 O   0  0  0  0  0  0  0  0  0  0  0  0
    0.6417   -0.8500    0.0000 O   0  0  0  0  0  0  0  0  0  0  0  0
   -1.0708    4.5417    0.0000 O   0  0  0  0  0  0  0  0  0  0  0  0
   -3.8750    3.8000    0.0000 F   0  0  0  0  0  0  0  0  0  0  0  0
   -3.8750    1.3250    0.0000 C   0  0  0  0  0  0  0  0  0  0  0  0
   -0.7750    3.1708    0.0000 O   0  0  0  0  0  0  0  0  0  0  0  0
    1.8167    1.4458    0.0000 C   0  0  0  0  0  0  0  0  0  0  0  0
    0.5792    2.1625    0.0000 C   0  0  0  0  0  0  0  0  0  0  0  0
    1.4042    2.1625    0.0000 C   0  0  0  0  0  0  0  0  0  0  0  0
   -4.5833    1.7333    0.0000 C   0  0  0  0  0  0  0  0  0  0  0  0
   -4.5833    2.5583    0.0000 C   0  0  0  0  0  0  0  0  0  0  0  0
    0.0292    3.3375    0.0000 C   0  0  0  0  0  0  0  0  0  0  0  0
    0.5792    2.7333    0.0000 C   0  0  0  0  0  0  0  0  0  0  0  0
  2  1  1  0  0  0  0
  3  1  2  0  0  0  0
  4  9  1  0  0  0  0
  5  1  1  0  0  0  0
  6  2  1  0  0  0  0
  7  5  1  0  0  0  0
  8  3  1  0  0  0  0
  9 13  1  0  0  0  0
 10  4  1  0  0  0  0
 11  4  1  0  0  0  0
 12  2  1  0  0  0  0
 13 14  2  0  0  0  0
 14  8  1  0  0  0  0
 15 12  1  0  0  0  0
 16  6  1  0  0  0  0
 17  8  2  0  0  0  0
 18 10  1  0  0  0  0
 19 11  1  0  0  0  0
 20 10  2  0  0  0  0
 21 11  2  0  0  0  0
 22 15  2  0  0  0  0
 23 16  1  0  0  0  0
 24  7  1  0  0  0  0
 25 15  1  0  0  0  0
 26 28  1  0  0  0  0
 27 14  1  0  0  0  0
 28 27  2  0  0  0  0
 29 24  2  0  0  0  0
 30 16  2  0  0  0  0
 31 25  1  0  0  0  0
 32 31  1  0  0  0  0
  6  7  2  0  0  0  0
 30 29  1  0  0  0  0
 26  9  2  0  0  0  0
 19 18  1  0  0  0  0
M  END
> <IDNUMBER>
F1366-4950

> <Chemical_Name>
ethyl 2-[(2Z)-2-{[3-(2,5-dioxopyrrolidin-1-yl)benzoyl]imino}-4-fluoro-2,3-dihydro-1,3-benzothiazol-3-yl]acetate

> <CAS>
865249-16-7

> <PriceCoeff>
1.00

> <MW>
455.46

> <Description>
solid

> <FSP3>
0.23

> <clogP>
3.18

> <TPSA>
121.65

> <Acceptor>
5

> <Donor>
0

> <RotBonds>
7

> <HAC>
32

> <Collection>
General

$$$$
F1673-4175
  -ISIS-  06222321442D

 29 31  0  0  0  0  0  0  0  0999 V2000
   -2.7500   -2.3542    0.0000 S   0  0  3  0  0  0  0  0  0  0  0  0
   -2.1750    1.6500    0.0000 N   0  3  0  0  0  0  0  0  0  0  0  0
   -2.1708    0.8208    0.0000 C   0  0  0  0  0  0  0  0  0  0  0  0
   -0.7375   -0.8250    0.0000 C   0  0  0  0  0  0  0  0  0  0  0  0
   -0.7375   -1.6542    0.0000 N   0  0  3  0  0  0  0  0  0  0  0  0
   -2.2083   -1.7417    0.0000 C   0  0  0  0  0  0  0  0  0  0  0  0
   -1.4500    0.4125    0.0000 C   0  0  0  0  0  0  0  0  0  0  0  0
   -1.4500   -0.4167    0.0000 C   0  0  0  0  0  0  0  0  0  0  0  0
   -1.4458   -2.0667    0.0000 C   0  0  3  0  0  0  0  0  0  0  0  0
   -2.8833    0.4125    0.0000 C   0  0  0  0  0  0  0  0  0  0  0  0
   -3.4458   -2.8167    0.0000 O   0  0  0  0  0  0  0  0  0  0  0  0
   -3.2250   -1.6750    0.0000 O   0  0  0  0  0  0  0  0  0  0  0  0
   -1.4625    2.0625    0.0000 O   0  5  0  0  0  0  0  0  0  0  0  0
   -1.5333   -2.8917    0.0000 C   0  0  0  0  0  0  0  0  0  0  0  0
   -2.8958    2.0583    0.0000 O   0  0  0  0  0  0  0  0  0  0  0  0
   -0.0208   -2.0625    0.0000 C   0  0  0  0  0  0  0  0  0  0  0  0
   -2.3375   -3.0667    0.0000 C   0  0  0  0  0  0  0  0  0  0  0  0
   -0.0250   -0.4125    0.0000 O   0  0  0  0  0  0  0  0  0  0  0  0
   -2.1708   -0.8250    0.0000 C   0  0  0  0  0  0  0  0  0  0  0  0
   -2.8833   -0.4167    0.0000 C   0  0  0  0  0  0  0  0  0  0  0  0
    0.6917   -1.6417    0.0000 C   0  0  0  0  0  0  0  0  0  0  0  0
   -3.5958    0.8208    0.0000 Cl  0  0  0  0  0  0  0  0  0  0  0  0
    2.1250   -0.8167    0.0000 C   0  0  0  0  0  0  0  0  0  0  0  0
    1.4125   -2.0625    0.0000 C   0  0  0  0  0  0  0  0  0  0  0  0
    0.6917   -0.8250    0.0000 C   0  0  0  0  0  0  0  0  0  0  0  0
    2.1292   -1.6417    0.0000 C   0  0  0  0  0  0  0  0  0  0  0  0
    1.4042   -0.4125    0.0000 C   0  0  0  0  0  0  0  0  0  0  0  0
    2.8292   -0.4042    0.0000 C   0  0  0  0  0  0  0  0  0  0  0  0
    3.5417   -0.8125    0.0000 C   0  0  0  0  0  0  0  0  0  0  0  0
  2  3  1  0  0  0  0
  3  7  1  0  0  0  0
  4  5  1  0  0  0  0
  5  9  1  0  0  0  0
  6  1  1  0  0  0  0
  7  8  2  0  0  0  0
  8  4  1  0  0  0  0
  9  6  1  0  0  0  0
 10 20  1  0  0  0  0
 11  1  2  0  0  0  0
 12  1  2  0  0  0  0
 13  2  1  0  0  0  0
 14 17  1  0  0  0  0
 15  2  2  0  0  0  0
 16  5  1  0  0  0  0
 17  1  1  0  0  0  0
 18  4  2  0  0  0  0
 19  8  1  0  0  0  0
 20 19  2  0  0  0  0
 21 16  1  0  0  0  0
 22 10  1  0  0  0  0
 23 27  1  0  0  0  0
 24 21  2  0  0  0  0
 25 21  1  0  0  0  0
 26 24  1  0  0  0  0
 27 25  2  0  0  0  0
 28 23  1  0  0  0  0
 29 28  1  0  0  0  0
 14  9  1  0  0  0  0
 23 26  2  0  0  0  0
 10  3  2  0  0  0  0
M  CHG  2   2   1  13  -1
M  END
> <IDNUMBER>
F1673-4175

> <Chemical_Name>
4-chloro-N-(1,1-dioxo-1lambda6-thiolan-3-yl)-N-[(4-ethylphenyl)methyl]-3-nitrobenzamide

> <CAS>
573936-87-5

> <PriceCoeff>
1.00

> <MW>
436.91

> <Description>
solid

> <FSP3>
0.35

> <clogP>
3.24

> <TPSA>
105.97

> <Acceptor>
5

> <Donor>
0

> <RotBonds>
7

> <HAC>
29

> <Collection>
General

$$$$
F3394-0687
  -ISIS-  06222321462D

 39 44  0  0  0  0  0  0  0  0999 V2000
    7.2000    0.6458    0.0000 C   0  0  0  0  0  0  0  0  0  0  0  0
    6.4875    1.0500    0.0000 C   0  0  0  0  0  0  0  0  0  0  0  0
    6.4792   -0.5792    0.0000 N   0  0  3  0  0  0  0  0  0  0  0  0
    5.7667   -0.1667    0.0000 C   0  0  0  0  0  0  0  0  0  0  0  0
    5.7792    0.6500    0.0000 N   0  0  0  0  0  0  0  0  0  0  0  0
    7.2000   -0.1667    0.0000 C   0  0  0  0  0  0  0  0  0  0  0  0
    6.6667    1.8500    0.0000 S   0  0  0  0  0  0  0  0  0  0  0  0
    7.8042    1.1833    0.0000 C   0  0  0  0  0  0  0  0  0  0  0  0
    7.4792    1.9333    0.0000 C   0  0  0  0  0  0  0  0  0  0  0  0
    2.9042   -0.1542    0.0000 N   0  0  3  0  0  0  0  0  0  0  0  0
    3.6375   -0.5792    0.0000 C   0  0  0  0  0  0  0  0  0  0  0  0
    1.4875   -0.1542    0.0000 C   0  0  0  0  0  0  0  0  0  0  0  0
    5.0542   -0.5792    0.0000 S   0  0  0  0  0  0  0  0  0  0  0  0
    2.1917   -0.5667    0.0000 C   0  0  0  0  0  0  0  0  0  0  0  0
    1.4875    0.6500    0.0000 C   0  0  0  0  0  0  0  0  0  0  0  0
    0.7667   -0.5667    0.0000 C   0  0  0  0  0  0  0  0  0  0  0  0
    0.0542   -0.1542    0.0000 C   0  0  0  0  0  0  0  0  0  0  0  0
    0.0542    0.6500    0.0000 C   0  0  0  0  0  0  0  0  0  0  0  0
    6.4792   -1.4000    0.0000 C   0  0  0  0  0  0  0  0  0  0  0  0
    0.7667    1.0708    0.0000 C   0  0  0  0  0  0  0  0  0  0  0  0
    7.9000   -0.5875    0.0000 O   0  0  0  0  0  0  0  0  0  0  0  0
    2.9042    0.6500    0.0000 C   0  0  0  0  0  0  0  0  0  0  0  0
    4.3500   -0.1667    0.0000 C   0  0  0  0  0  0  0  0  0  0  0  0
    3.6292   -1.4042    0.0000 O   0  0  0  0  0  0  0  0  0  0  0  0
    2.1917    1.0708    0.0000 C   0  0  0  0  0  0  0  0  0  0  0  0
    8.6000    0.9708    0.0000 C   0  0  0  0  0  0  0  0  0  0  0  0
   -0.6500    1.0708    0.0000 O   0  0  0  0  0  0  0  0  0  0  0  0
   -0.6500   -0.5792    0.0000 O   0  0  0  0  0  0  0  0  0  0  0  0
    7.8667    2.6500    0.0000 C   0  0  0  0  0  0  0  0  0  0  0  0
    7.1875   -1.8167    0.0000 C   0  0  0  0  0  0  0  0  0  0  0  0
    5.7667   -1.8042    0.0000 C   0  0  0  0  0  0  0  0  0  0  0  0
   -1.3708    0.6500    0.0000 C   0  0  0  0  0  0  0  0  0  0  0  0
   -1.3833   -0.1667    0.0000 C   0  0  0  0  0  0  0  0  0  0  0  0
    9.2542    1.4500    0.0000 C   0  0  0  0  0  0  0  0  0  0  0  0
    8.6667    2.8125    0.0000 C   0  0  0  0  0  0  0  0  0  0  0  0
    5.7542   -2.6292    0.0000 C   0  0  0  0  0  0  0  0  0  0  0  0
    7.1875   -2.6375    0.0000 C   0  0  0  0  0  0  0  0  0  0  0  0
    6.4667   -3.0500    0.0000 C   0  0  0  0  0  0  0  0  0  0  0  0
    9.3000    2.2833    0.0000 C   0  0  0  0  0  0  0  0  0  0  0  0
  2  1  2  0  0  0  0
  3  6  1  0  0  0  0
  4  3  1  0  0  0  0
  5  2  1  0  0  0  0
  6  1  1  0  0  0  0
  7  2  1  0  0  0  0
  8  1  1  0  0  0  0
  9  8  2  0  0  0  0
 10 11  1  0  0  0  0
 11 23  1  0  0  0  0
 12 14  1  0  0  0  0
 13  4  1  0  0  0  0
 14 10  1  0  0  0  0
 15 25  1  0  0  0  0
 16 12  2  0  0  0  0
 17 16  1  0  0  0  0
 18 20  1  0  0  0  0
 19  3  1  0  0  0  0
 20 15  2  0  0  0  0
 21  6  2  0  0  0  0
 22 10  1  0  0  0  0
 23 13  1  0  0  0  0
 24 11  2  0  0  0  0
 25 22  1  0  0  0  0
 26  8  1  0  0  0  0
 27 18  1  0  0  0  0
 28 17  1  0  0  0  0
 29  9  1  0  0  0  0
 30 19  1  0  0  0  0
 31 19  2  0  0  0  0
 32 27  1  0  0  0  0
 33 28  1  0  0  0  0
 34 26  1  0  0  0  0
 35 29  1  0  0  0  0
 36 31  1  0  0  0  0
 37 30  2  0  0  0  0
 38 36  2  0  0  0  0
 39 34  1  0  0  0  0
  7  9  1  0  0  0  0
  4  5  2  0  0  0  0
 39 35  1  0  0  0  0
 37 38  1  0  0  0  0
 12 15  1  0  0  0  0
 17 18  2  0  0  0  0
M  END
> <IDNUMBER>
F3394-0687

> <Chemical_Name>
5-{[2-(6,7-dimethoxy-1,2,3,4-tetrahydroisoquinolin-2-yl)-2-oxoethyl]sulfanyl}-4-phenyl-8-thia-4,6-diazatricyclo[7.5.0.0^{2,7}]tetradeca-1(9),2(7),5-trien-3-one

> <CAS>
671200-54-7

> <PriceCoeff>
1.00

> <MW>
561.71

> <Description>
solid

> <FSP3>
0.37

> <clogP>
5.92

> <TPSA>
124.98

> <Acceptor>
5

> <Donor>
0

> <RotBonds>
7

> <HAC>
39

> <Collection>
General

> <Reference_compound>
CHEMBL577016

> <Similarity>
0.8270

$$$$
F1365-2046
  -ISIS-  06222321442D

 32 35  0  0  0  0  0  0  0  0999 V2000
   -1.1625    2.3833    0.0000 C   0  0  0  0  0  0  0  0  0  0  0  0
   -0.3375    2.3750    0.0000 N   0  0  0  0  0  0  0  0  0  0  0  0
    2.5542    1.6500    0.0000 N   0  0  3  0  0  0  0  0  0  0  0  0
   -1.6458    1.7208    0.0000 N   0  0  3  0  0  0  0  0  0  0  0  0
   -1.6458    3.0500    0.0000 S   0  0  0  0  0  0  0  0  0  0  0  0
   -2.4333    2.7958    0.0000 C   0  0  0  0  0  0  0  0  0  0  0  0
   -2.4333    1.9708    0.0000 C   0  0  0  0  0  0  0  0  0  0  0  0
    0.0750    3.0875    0.0000 C   0  0  0  0  0  0  0  0  0  0  0  0
    2.1292    2.3708    0.0000 C   0  0  0  0  0  0  0  0  0  0  0  0
    3.3667    1.5333    0.0000 C   0  0  0  0  0  0  0  0  0  0  0  0
    2.1750    0.9125    0.0000 C   0  0  0  0  0  0  0  0  0  0  0  0
   -4.5833    3.2125    0.0000 C   0  0  0  0  0  0  0  0  0  0  0  0
   -3.1458    3.2083    0.0000 C   0  0  0  0  0  0  0  0  0  0  0  0
   -3.8583    2.7958    0.0000 C   0  0  0  0  0  0  0  0  0  0  0  0
    1.3125    2.3750    0.0000 C   0  0  0  0  0  0  0  0  0  0  0  0
    0.9000    3.0875    0.0000 C   0  0  0  0  0  0  0  0  0  0  0  0
   -1.9458    0.3208    0.0000 C   0  0  0  0  0  0  0  0  0  0  0  0
   -3.1458    1.5583    0.0000 C   0  0  0  0  0  0  0  0  0  0  0  0
   -2.4958   -0.2917    0.0000 C   0  0  0  0  0  0  0  0  0  0  0  0
   -0.3375    3.8000    0.0000 O   0  0  0  0  0  0  0  0  0  0  0  0
    3.5042    0.7125    0.0000 C   0  0  0  0  0  0  0  0  0  0  0  0
    2.7792    0.3250    0.0000 C   0  0  0  0  0  0  0  0  0  0  0  0
    3.9500    2.1083    0.0000 O   0  0  0  0  0  0  0  0  0  0  0  0
    1.3667    0.7833    0.0000 O   0  0  0  0  0  0  0  0  0  0  0  0
   -3.8583    1.9708    0.0000 C   0  0  0  0  0  0  0  0  0  0  0  0
   -5.2875    2.8000    0.0000 O   0  0  0  0  0  0  0  0  0  0  0  0
   -1.3958    0.9333    0.0000 C   0  0  0  0  0  0  0  0  0  0  0  0
   -4.5708    4.0292    0.0000 O   0  0  0  0  0  0  0  0  0  0  0  0
    2.5542    3.0833    0.0000 C   0  0  0  0  0  0  0  0  0  0  0  0
    1.3167    3.8083    0.0000 C   0  0  0  0  0  0  0  0  0  0  0  0
    2.1417    3.8000    0.0000 C   0  0  0  0  0  0  0  0  0  0  0  0
   -5.2875    4.4417    0.0000 C   0  0  0  0  0  0  0  0  0  0  0  0
  2  1  2  0  0  0  0
  3  9  1  0  0  0  0
  4  1  1  0  0  0  0
  5  1  1  0  0  0  0
  6  5  1  0  0  0  0
  7  4  1  0  0  0  0
  8  2  1  0  0  0  0
  9 15  1  0  0  0  0
 10  3  1  0  0  0  0
 11  3  1  0  0  0  0
 12 14  1  0  0  0  0
 13  6  1  0  0  0  0
 14 13  2  0  0  0  0
 15 16  2  0  0  0  0
 16  8  1  0  0  0  0
 17 27  1  0  0  0  0
 18  7  1  0  0  0  0
 19 17  3  0  0  0  0
 20  8  2  0  0  0  0
 21 10  1  0  0  0  0
 22 11  1  0  0  0  0
 23 10  2  0  0  0  0
 24 11  2  0  0  0  0
 25 18  2  0  0  0  0
 26 12  2  0  0  0  0
 27  4  1  0  0  0  0
 28 12  1  0  0  0  0
 29 31  1  0  0  0  0
 30 16  1  0  0  0  0
 31 30  2  0  0  0  0
 32 28  1  0  0  0  0
  7  6  2  0  0  0  0
 25 14  1  0  0  0  0
  9 29  2  0  0  0  0
 21 22  1  0  0  0  0
M  END
> <IDNUMBER>
F1365-2046

> <Chemical_Name>
methyl (2Z)-2-{[3-(2,5-dioxopyrrolidin-1-yl)benzoyl]imino}-3-(prop-2-yn-1-yl)-2,3-dihydro-1,3-benzothiazole-6-carboxylate

> <CAS>
941976-94-9

> <PriceCoeff>
1.00

> <MW>
447.46

> <Description>
solid

> <FSP3>
0.17

> <clogP>
3.02

> <TPSA>
121.65

> <Acceptor>
5

> <Donor>
0

> <RotBonds>
7

> <HAC>
32

> <Collection>
General

$$$$
F0709-0029
  -ISIS-  06222321452D

 26 27  0  0  0  0  0  0  0  0999 V2000
   -1.0250   -2.6917    0.0000 C   0  0  0  0  0  0  0  0  0  0  0  0
   -1.7458   -2.2792    0.0000 N   0  3  0  0  0  0  0  0  0  0  0  0
    1.1292   -1.4417    0.0000 C   0  0  0  0  0  0  0  0  0  0  0  0
    3.2875    1.4625    0.0000 N   0  3  0  0  0  0  0  0  0  0  0  0
    0.4042   -1.0292    0.0000 C   0  0  0  0  0  0  0  0  0  0  0  0
   -0.3083   -2.2667    0.0000 C   0  0  0  0  0  0  0  0  0  0  0  0
   -0.3083   -1.4417    0.0000 N   0  0  0  0  0  0  0  0  0  0  0  0
    1.8417   -1.0292    0.0000 C   0  0  0  0  0  0  0  0  0  0  0  0
    1.1292   -2.2667    0.0000 C   0  0  0  0  0  0  0  0  0  0  0  0
    2.5625    1.0458    0.0000 C   0  0  0  0  0  0  0  0  0  0  0  0
   -1.0250   -3.5167    0.0000 C   0  0  0  0  0  0  0  0  0  0  0  0
    1.1292   -3.1125    0.0000 N   0  0  0  0  0  0  0  0  0  0  0  0
   -1.7458   -1.4542    0.0000 O   0  5  0  0  0  0  0  0  0  0  0  0
    4.0042    1.0458    0.0000 O   0  5  0  0  0  0  0  0  0  0  0  0
   -2.4583   -2.6917    0.0000 O   0  0  0  0  0  0  0  0  0  0  0  0
    3.2875    2.2875    0.0000 O   0  0  0  0  0  0  0  0  0  0  0  0
    1.8417   -0.2042    0.0000 C   0  0  0  0  0  0  0  0  0  0  0  0
    2.5625    0.2125    0.0000 C   0  0  0  0  0  0  0  0  0  0  0  0
    0.4042   -0.2042    0.0000 O   0  0  0  0  0  0  0  0  0  0  0  0
    0.4042   -2.6917    0.0000 C   0  0  0  0  0  0  0  0  0  0  0  0
   -0.3083   -3.9375    0.0000 C   0  0  0  0  0  0  0  0  0  0  0  0
    0.4042   -3.5167    0.0000 C   0  0  0  0  0  0  0  0  0  0  0  0
   -0.3083   -4.7667    0.0000 Cl  0  0  0  0  0  0  0  0  0  0  0  0
    1.8417    1.4583    0.0000 C   0  0  0  0  0  0  0  0  0  0  0  0
    1.1292    1.0458    0.0000 C   0  0  0  0  0  0  0  0  0  0  0  0
    1.1292    0.2125    0.0000 C   0  0  0  0  0  0  0  0  0  0  0  0
  2  1  1  0  0  0  0
  3  5  1  0  0  0  0
  4 10  1  0  0  0  0
  5  7  1  0  0  0  0
  6  1  2  0  0  0  0
  7  6  1  0  0  0  0
  8  3  2  0  0  0  0
  9  3  1  0  0  0  0
 10 18  2  0  0  0  0
 11  1  1  0  0  0  0
 12  9  3  0  0  0  0
 13  2  1  0  0  0  0
 14  4  1  0  0  0  0
 15  2  2  0  0  0  0
 16  4  2  0  0  0  0
 17  8  1  0  0  0  0
 18 17  1  0  0  0  0
 19  5  2  0  0  0  0
 20  6  1  0  0  0  0
 21 11  2  0  0  0  0
 22 21  1  0  0  0  0
 23 21  1  0  0  0  0
 24 25  2  0  0  0  0
 25 26  1  0  0  0  0
 26 17  2  0  0  0  0
 20 22  2  0  0  0  0
 24 10  1  0  0  0  0
M  CHG  4   2   1   4   1  13  -1  14  -1
M  END
> <IDNUMBER>
F0709-0029

> <Chemical_Name>
(2Z)-N-(4-chloro-2-nitrophenyl)-2-cyano-3-(3-nitrophenyl)prop-2-enamide

> <CAS>
332918-81-7

> <PriceCoeff>
1.00

> <MW>
372.72

> <Description>
solid

> <FSP3>
0.00

> <clogP>
3.37

> <TPSA>
139.17

> <Acceptor>
6

> <Donor>
1

> <RotBonds>
5

> <HAC>
26

> <Collection>
General

$$$$
F1366-1782
  -ISIS-  06222321142D

 32 35  0  0  0  0  0  0  0  0999 V2000
   -1.1625    2.3833    0.0000 C   0  0  0  0  0  0  0  0  0  0  0  0
   -1.6458    1.7208    0.0000 N   0  0  3  0  0  0  0  0  0  0  0  0
   -0.3375    2.3750    0.0000 N   0  0  0  0  0  0  0  0  0  0  0  0
    2.5042    1.6708    0.0000 N   0  0  3  0  0  0  0  0  0  0  0  0
   -1.6458    3.0500    0.0000 S   0  0  0  0  0  0  0  0  0  0  0  0
   -2.4333    1.9708    0.0000 C   0  0  0  0  0  0  0  0  0  0  0  0
   -2.4333    2.7958    0.0000 C   0  0  0  0  0  0  0  0  0  0  0  0
    0.0750    3.0875    0.0000 C   0  0  0  0  0  0  0  0  0  0  0  0
    2.1042    2.3833    0.0000 C   0  0  0  0  0  0  0  0  0  0  0  0
    3.3167    1.5500    0.0000 C   0  0  0  0  0  0  0  0  0  0  0  0
    2.1417    0.9458    0.0000 C   0  0  0  0  0  0  0  0  0  0  0  0
   -1.7625    0.9083    0.0000 C   0  0  0  0  0  0  0  0  0  0  0  0
    1.2917    2.3833    0.0000 C   0  0  0  0  0  0  0  0  0  0  0  0
    0.8875    3.0875    0.0000 C   0  0  0  0  0  0  0  0  0  0  0  0
   -3.1458    1.5583    0.0000 C   0  0  0  0  0  0  0  0  0  0  0  0
   -2.5208    0.6083    0.0000 C   0  0  0  0  0  0  0  0  0  0  0  0
   -3.1458    3.2083    0.0000 C   0  0  0  0  0  0  0  0  0  0  0  0
   -0.3375    3.8000    0.0000 O   0  0  0  0  0  0  0  0  0  0  0  0
    3.4542    0.7458    0.0000 C   0  0  0  0  0  0  0  0  0  0  0  0
    2.7417    0.3708    0.0000 C   0  0  0  0  0  0  0  0  0  0  0  0
    3.8917    2.1208    0.0000 O   0  0  0  0  0  0  0  0  0  0  0  0
    1.3417    0.8125    0.0000 O   0  0  0  0  0  0  0  0  0  0  0  0
   -2.6333   -0.2000    0.0000 O   0  0  0  0  0  0  0  0  0  0  0  0
   -3.8583    1.9708    0.0000 C   0  0  0  0  0  0  0  0  0  0  0  0
   -3.8583    2.7958    0.0000 C   0  0  0  0  0  0  0  0  0  0  0  0
   -3.1583    1.1083    0.0000 O   0  0  0  0  0  0  0  0  0  0  0  0
    2.5167    3.0833    0.0000 C   0  0  0  0  0  0  0  0  0  0  0  0
    1.3000    3.7958    0.0000 C   0  0  0  0  0  0  0  0  0  0  0  0
    2.1125    3.7958    0.0000 C   0  0  0  0  0  0  0  0  0  0  0  0
   -3.9125    0.8000    0.0000 C   0  0  0  0  0  0  0  0  0  0  0  0
   -4.5625    3.2083    0.0000 C   0  0  0  0  0  0  0  0  0  0  0  0
   -4.5458    1.3083    0.0000 C   0  0  0  0  0  0  0  0  0  0  0  0
  2  1  1  0  0  0  0
  3  1  2  0  0  0  0
  4  9  1  0  0  0  0
  5  1  1  0  0  0  0
  6  2  1  0  0  0  0
  7  5  1  0  0  0  0
  8  3  1  0  0  0  0
  9 13  1  0  0  0  0
 10  4  1  0  0  0  0
 11  4  1  0  0  0  0
 12  2  1  0  0  0  0
 13 14  2  0  0  0  0
 14  8  1  0  0  0  0
 15  6  1  0  0  0  0
 16 12  1  0  0  0  0
 17  7  1  0  0  0  0
 18  8  2  0  0  0  0
 19 10  1  0  0  0  0
 20 11  1  0  0  0  0
 21 10  2  0  0  0  0
 22 11  2  0  0  0  0
 23 16  2  0  0  0  0
 24 15  2  0  0  0  0
 25 17  2  0  0  0  0
 26 16  1  0  0  0  0
 27 29  1  0  0  0  0
 28 14  1  0  0  0  0
 29 28  2  0  0  0  0
 30 26  1  0  0  0  0
 31 25  1  0  0  0  0
 32 30  1  0  0  0  0
  7  6  2  0  0  0  0
 25 24  1  0  0  0  0
 27  9  2  0  0  0  0
 20 19  1  0  0  0  0
M  END
> <IDNUMBER>
F1366-1782

> <Chemical_Name>
ethyl 2-[(2Z)-2-{[3-(2,5-dioxopyrrolidin-1-yl)benzoyl]imino}-6-methyl-2,3-dihydro-1,3-benzothiazol-3-yl]acetate

> <CAS>
897734-58-6

> <PriceCoeff>
1.00

> <MW>
451.49

> <Description>
solid

> <FSP3>
0.26

> <clogP>
3.54

> <TPSA>
121.65

> <Acceptor>
5

> <Donor>
0

> <RotBonds>
7

> <HAC>
32

> <Collection>
General

$$$$
F1359-0708
  -ISIS-  06222321142D

 30 33  0  0  0  0  0  0  0  0999 V2000
   -1.1625    2.3833    0.0000 C   0  0  0  0  0  0  0  0  0  0  0  0
   -0.3375    2.3750    0.0000 N   0  0  0  0  0  0  0  0  0  0  0  0
   -1.6458    1.7208    0.0000 N   0  0  3  0  0  0  0  0  0  0  0  0
    3.3792    3.0708    0.0000 N   0  0  3  0  0  0  0  0  0  0  0  0
   -1.6458    3.0500    0.0000 S   0  0  0  0  0  0  0  0  0  0  0  0
   -2.4333    2.7958    0.0000 C   0  0  0  0  0  0  0  0  0  0  0  0
   -2.4333    1.9708    0.0000 C   0  0  0  0  0  0  0  0  0  0  0  0
    0.0750    3.0875    0.0000 C   0  0  0  0  0  0  0  0  0  0  0  0
    3.8500    3.7583    0.0000 C   0  0  0  0  0  0  0  0  0  0  0  0
    3.8917    2.4250    0.0000 C   0  0  0  0  0  0  0  0  0  0  0  0
   -3.1458    3.2083    0.0000 C   0  0  0  0  0  0  0  0  0  0  0  0
    2.5542    3.0833    0.0000 C   0  0  0  0  0  0  0  0  0  0  0  0
   -3.1458    1.5583    0.0000 C   0  0  0  0  0  0  0  0  0  0  0  0
    0.9000    3.0875    0.0000 C   0  0  0  0  0  0  0  0  0  0  0  0
   -0.3375    3.8000    0.0000 O   0  0  0  0  0  0  0  0  0  0  0  0
    4.6417    3.5250    0.0000 C   0  0  0  0  0  0  0  0  0  0  0  0
    4.6667    2.7083    0.0000 C   0  0  0  0  0  0  0  0  0  0  0  0
    3.5667    4.5417    0.0000 O   0  0  0  0  0  0  0  0  0  0  0  0
    3.6667    1.6333    0.0000 O   0  0  0  0  0  0  0  0  0  0  0  0
    2.1417    3.8000    0.0000 C   0  0  0  0  0  0  0  0  0  0  0  0
    2.1292    2.3708    0.0000 C   0  0  0  0  0  0  0  0  0  0  0  0
    1.3125    2.3833    0.0000 C   0  0  0  0  0  0  0  0  0  0  0  0
    1.3250    3.8083    0.0000 C   0  0  0  0  0  0  0  0  0  0  0  0
   -3.8583    2.7958    0.0000 C   0  0  0  0  0  0  0  0  0  0  0  0
   -1.3958    0.9333    0.0000 C   0  0  0  0  0  0  0  0  0  0  0  0
   -3.8583    1.9708    0.0000 C   0  0  0  0  0  0  0  0  0  0  0  0
   -4.5833    3.2125    0.0000 Br  0  0  0  0  0  0  0  0  0  0  0  0
   -2.7500    0.4875    0.0000 O   0  0  0  0  0  0  0  0  0  0  0  0
   -1.9458    0.3208    0.0000 C   0  0  0  0  0  0  0  0  0  0  0  0
   -3.3083   -0.1250    0.0000 C   0  0  0  0  0  0  0  0  0  0  0  0
  2  1  2  0  0  0  0
  3  1  1  0  0  0  0
  4 12  1  0  0  0  0
  5  1  1  0  0  0  0
  6  5  1  0  0  0  0
  7  3  1  0  0  0  0
  8  2  1  0  0  0  0
  9  4  1  0  0  0  0
 10  4  1  0  0  0  0
 11  6  1  0  0  0  0
 12 20  1  0  0  0  0
 13  7  1  0  0  0  0
 14  8  1  0  0  0  0
 15  8  2  0  0  0  0
 16  9  1  0  0  0  0
 17 10  1  0  0  0  0
 18  9  2  0  0  0  0
 19 10  2  0  0  0  0
 20 23  2  0  0  0  0
 21 22  1  0  0  0  0
 22 14  2  0  0  0  0
 23 14  1  0  0  0  0
 24 11  2  0  0  0  0
 25  3  1  0  0  0  0
 26 13  2  0  0  0  0
 27 24  1  0  0  0  0
 28 29  1  0  0  0  0
 29 25  1  0  0  0  0
 30 28  1  0  0  0  0
  7  6  2  0  0  0  0
 26 24  1  0  0  0  0
 12 21  2  0  0  0  0
 16 17  1  0  0  0  0
M  END
> <IDNUMBER>
F1359-0708

> <Chemical_Name>
N-[(2Z)-6-bromo-3-(2-methoxyethyl)-2,3-dihydro-1,3-benzothiazol-2-ylidene]-4-(2,5-dioxopyrrolidin-1-yl)benzamide

> <CAS>
864976-05-6

> <PriceCoeff>
1.00

> <MW>
488.35

> <Description>
solid

> <FSP3>
0.24

> <clogP>
3.48

> <TPSA>
104.58

> <Acceptor>
4

> <Donor>
0

> <RotBonds>
6

> <HAC>
30

> <Collection>
General

$$$$
F3406-0991
  -ISIS-  06222321462D

 31 34  0  0  0  0  0  0  0  0999 V2000
    4.6167   -5.9750    0.0000 C   0  0  0  0  0  0  0  0  0  0  0  0
    5.7667   -3.9792    0.0000 C   0  0  0  0  0  0  0  0  0  0  0  0
    4.6167   -3.3125    0.0000 C   0  0  0  0  0  0  0  0  0  0  0  0
    5.7667   -5.3042    0.0000 C   0  0  0  0  0  0  0  0  0  0  0  0
    3.4667   -5.3042    0.0000 C   0  0  0  0  0  0  0  0  0  0  0  0
    3.4667   -3.9792    0.0000 N   0  0  3  0  0  0  0  0  0  0  0  0
    4.6167   -7.2792    0.0000 C   0  0  0  0  0  0  0  0  0  0  0  0
    4.6167   -1.9750    0.0000 N   0  0  0  0  0  0  0  0  0  0  0  0
    3.4667   -7.9500    0.0000 N   0  0  0  0  0  0  0  0  0  0  0  0
    6.9292   -3.3125    0.0000 C   0  0  0  0  0  0  0  0  0  0  0  0
    6.9292   -5.9750    0.0000 O   0  0  0  0  0  0  0  0  0  0  0  0
    5.7792   -7.9500    0.0000 O   0  0  0  0  0  0  0  0  0  0  0  0
    5.7667   -1.3167    0.0000 C   0  0  0  0  0  0  0  0  0  0  0  0
    3.4542  -13.2750    0.0000 O   0  0  0  0  0  0  0  0  0  0  0  0
    3.4667   -9.2750    0.0000 C   0  0  0  0  0  0  0  0  0  0  0  0
    6.9292   -1.9917    0.0000 C   0  0  0  0  0  0  0  0  0  0  0  0
    3.4542  -11.9500    0.0000 C   0  0  0  0  0  0  0  0  0  0  0  0
    2.3167   -3.2917    0.0000 C   0  0  0  0  0  0  0  0  0  0  0  0
    2.2917  -13.9292    0.0000 C   0  0  0  0  0  0  0  0  0  0  0  0
    2.3167   -9.9417    0.0000 C   0  0  0  0  0  0  0  0  0  0  0  0
    4.6167   -9.9417    0.0000 C   0  0  0  0  0  0  0  0  0  0  0  0
    2.3042  -11.2792    0.0000 C   0  0  0  0  0  0  0  0  0  0  0  0
    4.6167  -11.2792    0.0000 C   0  0  0  0  0  0  0  0  0  0  0  0
    5.7792   -0.0000    0.0000 C   0  0  0  0  0  0  0  0  0  0  0  0
    1.1792  -13.2542    0.0000 C   0  0  0  0  0  0  0  0  0  0  0  0
    2.2917  -15.2667    0.0000 C   0  0  0  0  0  0  0  0  0  0  0  0
    2.3167   -1.9750    0.0000 C   0  0  0  0  0  0  0  0  0  0  0  0
    1.1792   -1.3042    0.0000 C   0  0  0  0  0  0  0  0  0  0  0  0
    1.1417  -15.9375    0.0000 C   0  0  0  0  0  0  0  0  0  0  0  0
    0.0125  -13.9292    0.0000 C   0  0  0  0  0  0  0  0  0  0  0  0
    0.0000  -15.2667    0.0000 C   0  0  0  0  0  0  0  0  0  0  0  0
  2  4  1  0  0  0  0
  3  6  1  0  0  0  0
  4  1  1  0  0  0  0
  5  1  2  0  0  0  0
  6  5  1  0  0  0  0
  7  1  1  0  0  0  0
  8  3  2  0  0  0  0
  9  7  1  0  0  0  0
 10  2  2  0  0  0  0
 11  4  2  0  0  0  0
 12  7  2  0  0  0  0
 13  8  1  0  0  0  0
 14 17  1  0  0  0  0
 15  9  1  0  0  0  0
 16 10  1  0  0  0  0
 17 23  2  0  0  0  0
 18  6  1  0  0  0  0
 19 14  1  0  0  0  0
 20 15  1  0  0  0  0
 21 15  2  0  0  0  0
 22 20  2  0  0  0  0
 23 21  1  0  0  0  0
 24 13  1  0  0  0  0
 25 19  2  0  0  0  0
 26 19  1  0  0  0  0
 27 18  1  0  0  0  0
 28 27  1  0  0  0  0
 29 26  2  0  0  0  0
 30 25  1  0  0  0  0
 31 29  1  0  0  0  0
  2  3  1  0  0  0  0
 13 16  2  0  0  0  0
 17 22  1  0  0  0  0
 30 31  2  0  0  0  0
M  END
> <IDNUMBER>
F3406-0991

> <Chemical_Name>
7-methyl-4-oxo-N-(4-phenoxyphenyl)-1-propyl-1,4-dihydro-1,8-naphthyridine-3-carboxamide

> <CAS>
1251564-30-3

> <PriceCoeff>
1.00

> <MW>
413.47

> <Description>
solid

> <FSP3>
0.16

> <clogP>
4.34

> <TPSA>
71.53

> <Acceptor>
4

> <Donor>
3

> <RotBonds>
6

> <HAC>
31

> <Collection>
General

> <Reference_compound>
CHEMBL2228610

> <Similarity>
0.8060

$$$$
F1365-2442
  -ISIS-  06222321142D

 29 32  0  0  0  0  0  0  0  0999 V2000
   -1.1625    2.3833    0.0000 C   0  0  0  0  0  0  0  0  0  0  0  0
   -0.3375    2.3750    0.0000 N   0  0  0  0  0  0  0  0  0  0  0  0
    2.5542    1.6500    0.0000 N   0  0  3  0  0  0  0  0  0  0  0  0
   -1.6458    1.7208    0.0000 N   0  0  3  0  0  0  0  0  0  0  0  0
   -1.6458    3.0500    0.0000 S   0  0  0  0  0  0  0  0  0  0  0  0
   -2.4333    2.7958    0.0000 C   0  0  0  0  0  0  0  0  0  0  0  0
   -2.4333    1.9708    0.0000 C   0  0  0  0  0  0  0  0  0  0  0  0
    0.0750    3.0875    0.0000 C   0  0  0  0  0  0  0  0  0  0  0  0
    2.1292    2.3708    0.0000 C   0  0  0  0  0  0  0  0  0  0  0  0
    3.3667    1.5333    0.0000 C   0  0  0  0  0  0  0  0  0  0  0  0
    2.1750    0.9125    0.0000 C   0  0  0  0  0  0  0  0  0  0  0  0
    1.3125    2.3750    0.0000 C   0  0  0  0  0  0  0  0  0  0  0  0
    0.9000    3.0875    0.0000 C   0  0  0  0  0  0  0  0  0  0  0  0
   -3.1458    3.2083    0.0000 C   0  0  0  0  0  0  0  0  0  0  0  0
   -1.9458    0.3208    0.0000 C   0  0  0  0  0  0  0  0  0  0  0  0
   -2.4958   -0.2917    0.0000 C   0  0  0  0  0  0  0  0  0  0  0  0
   -3.1458    1.5583    0.0000 C   0  0  0  0  0  0  0  0  0  0  0  0
   -0.3375    3.8000    0.0000 O   0  0  0  0  0  0  0  0  0  0  0  0
    3.5042    0.7125    0.0000 C   0  0  0  0  0  0  0  0  0  0  0  0
    2.7792    0.3250    0.0000 C   0  0  0  0  0  0  0  0  0  0  0  0
    3.9500    2.1083    0.0000 O   0  0  0  0  0  0  0  0  0  0  0  0
    1.3667    0.7833    0.0000 O   0  0  0  0  0  0  0  0  0  0  0  0
   -1.3958    0.9333    0.0000 C   0  0  0  0  0  0  0  0  0  0  0  0
   -3.8583    2.7958    0.0000 C   0  0  0  0  0  0  0  0  0  0  0  0
   -3.8583    1.9708    0.0000 C   0  0  0  0  0  0  0  0  0  0  0  0
   -4.5833    3.2125    0.0000 Br  0  0  0  0  0  0  0  0  0  0  0  0
    2.5542    3.0833    0.0000 C   0  0  0  0  0  0  0  0  0  0  0  0
    1.3167    3.8083    0.0000 C   0  0  0  0  0  0  0  0  0  0  0  0
    2.1417    3.8000    0.0000 C   0  0  0  0  0  0  0  0  0  0  0  0
  2  1  2  0  0  0  0
  3  9  1  0  0  0  0
  4  1  1  0  0  0  0
  5  1  1  0  0  0  0
  6  5  1  0  0  0  0
  7  4  1  0  0  0  0
  8  2  1  0  0  0  0
  9 12  1  0  0  0  0
 10  3  1  0  0  0  0
 11  3  1  0  0  0  0
 12 13  2  0  0  0  0
 13  8  1  0  0  0  0
 14  6  1  0  0  0  0
 15 23  1  0  0  0  0
 16 15  3  0  0  0  0
 17  7  1  0  0  0  0
 18  8  2  0  0  0  0
 19 10  1  0  0  0  0
 20 11  1  0  0  0  0
 21 10  2  0  0  0  0
 22 11  2  0  0  0  0
 23  4  1  0  0  0  0
 24 14  2  0  0  0  0
 25 17  2  0  0  0  0
 26 24  1  0  0  0  0
 27 29  1  0  0  0  0
 28 13  1  0  0  0  0
 29 28  2  0  0  0  0
  7  6  2  0  0  0  0
 25 24  1  0  0  0  0
  9 27  2  0  0  0  0
 19 20  1  0  0  0  0
M  END
> <IDNUMBER>
F1365-2442

> <Chemical_Name>
N-[(2Z)-6-bromo-3-(prop-2-yn-1-yl)-2,3-dihydro-1,3-benzothiazol-2-ylidene]-3-(2,5-dioxopyrrolidin-1-yl)benzamide

> <CAS>
865181-36-8

> <PriceCoeff>
1.00

> <MW>
468.32

> <Description>
solid

> <FSP3>
0.14

> <clogP>
3.91

> <TPSA>
95.35

> <Acceptor>
3

> <Donor>
0

> <RotBonds>
5

> <HAC>
29

> <Collection>
General

$$$$
F5520-0095
  -ISIS-  06222321152D

 28 30  0  0  0  0  0  0  0  0999 V2000
   -1.1708    2.5958    0.0000 C   0  0  0  0  0  0  0  0  0  0  0  0
   -0.4333    2.4625    0.0000 S   0  0  0  0  0  0  0  0  0  0  0  0
   -5.0708   -1.1750    0.0000 N   0  3  0  0  0  0  0  0  0  0  0  0
   -4.4125   -0.7917    0.0000 C   0  0  0  0  0  0  0  0  0  0  0  0
   -1.2833    3.3333    0.0000 N   0  0  0  0  0  0  0  0  0  0  0  0
   -0.0833    3.1333    0.0000 C   0  0  0  0  0  0  0  0  0  0  0  0
   -0.6083    3.6708    0.0000 N   0  0  0  0  0  0  0  0  0  0  0  0
   -3.7708    1.0833    0.0000 C   0  0  0  0  0  0  0  0  0  0  0  0
   -1.8208    2.2125    0.0000 N   0  0  3  0  0  0  0  0  0  0  0  0
   -3.1125    1.4625    0.0000 N   0  0  3  0  0  0  0  0  0  0  0  0
   -4.4125   -0.0417    0.0000 C   0  0  0  0  0  0  0  0  0  0  0  0
   -3.7625    0.3333    0.0000 C   0  0  0  0  0  0  0  0  0  0  0  0
   -3.7625   -1.1667    0.0000 C   0  0  0  0  0  0  0  0  0  0  0  0
   -5.7208   -0.8000    0.0000 O   0  5  0  0  0  0  0  0  0  0  0  0
   -5.0708   -1.9250    0.0000 O   0  0  0  0  0  0  0  0  0  0  0  0
    0.6625    3.2375    0.0000 S   0  0  0  0  0  0  0  0  0  0  0  0
    1.8667    2.7583    0.0000 C   0  0  0  0  0  0  0  0  0  0  0  0
   -2.4708    2.5958    0.0000 C   0  0  0  0  0  0  0  0  0  0  0  0
   -1.8208    1.4625    0.0000 C   0  0  0  0  0  0  0  0  0  0  0  0
   -3.1125    2.2125    0.0000 C   0  0  0  0  0  0  0  0  0  0  0  0
   -2.4708    1.0958    0.0000 C   0  0  0  0  0  0  0  0  0  0  0  0
   -4.4250    1.4583    0.0000 O   0  0  0  0  0  0  0  0  0  0  0  0
   -3.1208   -0.0417    0.0000 C   0  0  0  0  0  0  0  0  0  0  0  0
    2.1500    3.4583    0.0000 O   0  0  0  0  0  0  0  0  0  0  0  0
   -3.1208   -0.7917    0.0000 C   0  0  0  0  0  0  0  0  0  0  0  0
    1.1250    2.6500    0.0000 C   0  0  0  0  0  0  0  0  0  0  0  0
    2.3167    2.1625    0.0000 N   0  0  0  0  0  0  0  0  0  0  0  0
   -3.7625   -1.9167    0.0000 Cl  0  0  0  0  0  0  0  0  0  0  0  0
  2  1  1  0  0  0  0
  3  4  1  0  0  0  0
  4 11  2  0  0  0  0
  5  1  2  0  0  0  0
  6  2  1  0  0  0  0
  7  5  1  0  0  0  0
  8 10  1  0  0  0  0
  9  1  1  0  0  0  0
 10 21  1  0  0  0  0
 11 12  1  0  0  0  0
 12  8  1  0  0  0  0
 13 25  2  0  0  0  0
 14  3  1  0  0  0  0
 15  3  2  0  0  0  0
 16  6  1  0  0  0  0
 17 26  1  0  0  0  0
 18  9  1  0  0  0  0
 19  9  1  0  0  0  0
 20 18  1  0  0  0  0
 21 19  1  0  0  0  0
 22  8  2  0  0  0  0
 23 12  2  0  0  0  0
 24 17  2  0  0  0  0
 25 23  1  0  0  0  0
 26 16  1  0  0  0  0
 27 17  1  0  0  0  0
 28 13  1  0  0  0  0
  7  6  2  0  0  0  0
 10 20  1  0  0  0  0
  4 13  1  0  0  0  0
M  CHG  2   3   1  14  -1
M  END
> <IDNUMBER>
F5520-0095

> <Chemical_Name>
2-({5-[4-(4-chloro-3-nitrobenzoyl)piperazin-1-yl]-1,3,4-thiadiazol-2-yl}sulfanyl)acetamide

> <CAS>
1105198-05-7

> <PriceCoeff>
1.00

> <MW>
442.90

> <Description>
solid

> <FSP3>
0.33

> <clogP>
0.48

> <TPSA>
189.10

> <Acceptor>
6

> <Donor>
2

> <RotBonds>
7

> <HAC>
28

> <Collection>
General

$$$$
F1365-2424
  -ISIS-  06222321442D

 29 32  0  0  0  0  0  0  0  0999 V2000
   -1.1625    2.3833    0.0000 C   0  0  0  0  0  0  0  0  0  0  0  0
   -0.3375    2.3750    0.0000 N   0  0  0  0  0  0  0  0  0  0  0  0
   -1.6458    1.7208    0.0000 N   0  0  3  0  0  0  0  0  0  0  0  0
    3.3792    3.0708    0.0000 N   0  0  3  0  0  0  0  0  0  0  0  0
   -1.6458    3.0500    0.0000 S   0  0  0  0  0  0  0  0  0  0  0  0
   -2.4333    2.7958    0.0000 C   0  0  0  0  0  0  0  0  0  0  0  0
   -2.4333    1.9708    0.0000 C   0  0  0  0  0  0  0  0  0  0  0  0
    0.0750    3.0875    0.0000 C   0  0  0  0  0  0  0  0  0  0  0  0
    3.8500    3.7583    0.0000 C   0  0  0  0  0  0  0  0  0  0  0  0
    3.8917    2.4250    0.0000 C   0  0  0  0  0  0  0  0  0  0  0  0
   -3.1458    3.2083    0.0000 C   0  0  0  0  0  0  0  0  0  0  0  0
    2.5542    3.0833    0.0000 C   0  0  0  0  0  0  0  0  0  0  0  0
   -1.9458    0.3208    0.0000 C   0  0  0  0  0  0  0  0  0  0  0  0
   -2.4958   -0.2917    0.0000 C   0  0  0  0  0  0  0  0  0  0  0  0
   -3.1458    1.5583    0.0000 C   0  0  0  0  0  0  0  0  0  0  0  0
    0.9000    3.0875    0.0000 C   0  0  0  0  0  0  0  0  0  0  0  0
   -0.3375    3.8000    0.0000 O   0  0  0  0  0  0  0  0  0  0  0  0
    4.6417    3.5250    0.0000 C   0  0  0  0  0  0  0  0  0  0  0  0
    4.6667    2.7083    0.0000 C   0  0  0  0  0  0  0  0  0  0  0  0
    3.5667    4.5417    0.0000 O   0  0  0  0  0  0  0  0  0  0  0  0
    3.6667    1.6333    0.0000 O   0  0  0  0  0  0  0  0  0  0  0  0
   -1.3958    0.9333    0.0000 C   0  0  0  0  0  0  0  0  0  0  0  0
    2.1417    3.8000    0.0000 C   0  0  0  0  0  0  0  0  0  0  0  0
    2.1292    2.3708    0.0000 C   0  0  0  0  0  0  0  0  0  0  0  0
    1.3125    2.3833    0.0000 C   0  0  0  0  0  0  0  0  0  0  0  0
    1.3250    3.8083    0.0000 C   0  0  0  0  0  0  0  0  0  0  0  0
   -3.8583    2.7958    0.0000 C   0  0  0  0  0  0  0  0  0  0  0  0
   -3.8583    1.9708    0.0000 C   0  0  0  0  0  0  0  0  0  0  0  0
   -4.5833    3.2125    0.0000 Br  0  0  0  0  0  0  0  0  0  0  0  0
  2  1  2  0  0  0  0
  3  1  1  0  0  0  0
  4 12  1  0  0  0  0
  5  1  1  0  0  0  0
  6  5  1  0  0  0  0
  7  3  1  0  0  0  0
  8  2  1  0  0  0  0
  9  4  1  0  0  0  0
 10  4  1  0  0  0  0
 11  6  1  0  0  0  0
 12 23  1  0  0  0  0
 13 22  1  0  0  0  0
 14 13  3  0  0  0  0
 15  7  1  0  0  0  0
 16  8  1  0  0  0  0
 17  8  2  0  0  0  0
 18  9  1  0  0  0  0
 19 10  1  0  0  0  0
 20  9  2  0  0  0  0
 21 10  2  0  0  0  0
 22  3  1  0  0  0  0
 23 26  2  0  0  0  0
 24 25  1  0  0  0  0
 25 16  2  0  0  0  0
 26 16  1  0  0  0  0
 27 11  2  0  0  0  0
 28 15  2  0  0  0  0
 29 27  1  0  0  0  0
  7  6  2  0  0  0  0
 28 27  1  0  0  0  0
 12 24  2  0  0  0  0
 18 19  1  0  0  0  0
M  END
> <IDNUMBER>
F1365-2424

> <Chemical_Name>
N-[(2Z)-6-bromo-3-(prop-2-yn-1-yl)-2,3-dihydro-1,3-benzothiazol-2-ylidene]-4-(2,5-dioxopyrrolidin-1-yl)benzamide

> <CAS>
865181-31-3

> <PriceCoeff>
1.00

> <MW>
468.32

> <Description>
solid

> <FSP3>
0.14

> <clogP>
3.91

> <TPSA>
95.35

> <Acceptor>
3

> <Donor>
0

> <RotBonds>
5

> <HAC>
29

> <Collection>
General

$$$$
F2660-0054
  -ISIS-  06222321462D

 30 33  0  0  0  0  0  0  0  0999 V2000
   -0.2458    6.4667    0.0000 N   0  3  0  0  0  0  0  0  0  0  0  0
   -5.4458    4.9625    0.0000 N   0  0  3  0  0  0  0  0  0  0  0  0
   -2.1958    5.3417    0.0000 C   0  0  0  0  0  0  0  0  0  0  0  0
   -4.7875    5.3417    0.0000 C   0  0  3  0  0  0  0  0  0  0  0  0
   -2.8333    4.9667    0.0000 C   0  0  0  0  0  0  0  0  0  0  0  0
   -2.1958    6.0917    0.0000 C   0  0  0  0  0  0  0  0  0  0  0  0
   -0.8958    6.0917    0.0000 C   0  0  0  0  0  0  0  0  0  0  0  0
   -1.5458    6.4667    0.0000 C   0  0  0  0  0  0  0  0  0  0  0  0
   -4.7875    6.0917    0.0000 C   0  0  0  0  0  0  0  0  0  0  0  0
   -6.0917    5.3375    0.0000 C   0  0  0  0  0  0  0  0  0  0  0  0
   -3.4875    5.3417    0.0000 N   0  0  0  0  0  0  0  0  0  0  0  0
   -4.1458    4.9667    0.0000 C   0  0  0  0  0  0  0  0  0  0  0  0
   -1.5458    4.9667    0.0000 C   0  0  0  0  0  0  0  0  0  0  0  0
   -6.7292    4.9625    0.0000 C   0  0  0  0  0  0  0  0  0  0  0  0
    0.4042    6.0917    0.0000 O   0  5  0  0  0  0  0  0  0  0  0  0
   -5.4333    6.4667    0.0000 O   0  0  0  0  0  0  0  0  0  0  0  0
   -0.2458    7.2167    0.0000 O   0  0  0  0  0  0  0  0  0  0  0  0
   -5.4458    4.2125    0.0000 C   0  0  0  0  0  0  0  0  0  0  0  0
   -0.8958    5.3417    0.0000 C   0  0  0  0  0  0  0  0  0  0  0  0
   -4.2333    6.5917    0.0000 C   0  0  0  0  0  0  0  0  0  0  0  0
   -6.7292    4.2125    0.0000 C   0  0  0  0  0  0  0  0  0  0  0  0
   -2.8375    4.2167    0.0000 O   0  0  0  0  0  0  0  0  0  0  0  0
   -5.2833    7.2042    0.0000 C   0  0  0  0  0  0  0  0  0  0  0  0
   -4.5375    7.2792    0.0000 C   0  0  0  0  0  0  0  0  0  0  0  0
   -6.0917    3.8375    0.0000 C   0  0  0  0  0  0  0  0  0  0  0  0
   -2.8458    6.4667    0.0000 Cl  0  0  0  0  0  0  0  0  0  0  0  0
   -7.3792    5.3375    0.0000 C   0  0  0  0  0  0  0  0  0  0  0  0
   -7.3875    3.8375    0.0000 C   0  0  0  0  0  0  0  0  0  0  0  0
   -8.0292    4.9625    0.0000 C   0  0  0  0  0  0  0  0  0  0  0  0
   -8.0292    4.2125    0.0000 C   0  0  0  0  0  0  0  0  0  0  0  0
  2  4  1  0  0  0  0
  3 13  2  0  0  0  0
  4 12  1  0  0  0  0
  5  3  1  0  0  0  0
  6  8  2  0  0  0  0
  7  1  1  0  0  0  0
  8  7  1  0  0  0  0
  9  4  1  0  0  0  0
 10  2  1  0  0  0  0
 11  5  1  0  0  0  0
 12 11  1  0  0  0  0
 13 19  1  0  0  0  0
 14 10  1  0  0  0  0
 15  1  1  0  0  0  0
 16  9  1  0  0  0  0
 17  1  2  0  0  0  0
 18  2  1  0  0  0  0
 19  7  2  0  0  0  0
 20  9  2  0  0  0  0
 21 25  1  0  0  0  0
 22  5  2  0  0  0  0
 23 16  1  0  0  0  0
 24 20  1  0  0  0  0
 25 18  1  0  0  0  0
 26  6  1  0  0  0  0
 27 14  1  0  0  0  0
 28 21  1  0  0  0  0
 29 27  2  0  0  0  0
 30 28  2  0  0  0  0
  3  6  1  0  0  0  0
 23 24  2  0  0  0  0
 14 21  2  0  0  0  0
 30 29  1  0  0  0  0
M  CHG  2   1   1  15  -1
M  END
> <IDNUMBER>
F2660-0054

> <Chemical_Name>
2-chloro-N-[2-(furan-2-yl)-2-(1,2,3,4-tetrahydroisoquinolin-2-yl)ethyl]-4-nitrobenzamide

> <CAS>
898458-66-7

> <PriceCoeff>
1.00

> <MW>
425.86

> <Description>
solid

> <FSP3>
0.23

> <clogP>
4.11

> <TPSA>
88.62

> <Acceptor>
4

> <Donor>
2

> <RotBonds>
6

> <HAC>
30

> <Collection>
General

$$$$
F2823-0236
  -ISIS-  06222321152D

 29 32  0  0  0  0  0  0  0  0999 V2000
   -3.1583    1.7333    0.0000 C   0  0  0  0  0  0  0  0  0  0  0  0
   -3.1583    2.5583    0.0000 C   0  0  0  0  0  0  0  0  0  0  0  0
   -1.7333    2.5583    0.0000 N   0  0  3  0  0  0  0  0  0  0  0  0
   -2.4458    1.3250    0.0000 N   0  0  0  0  0  0  0  0  0  0  0  0
   -3.8708    1.3208    0.0000 N   0  0  3  0  0  0  0  0  0  0  0  0
   -2.4458    2.9833    0.0000 C   0  0  0  0  0  0  0  0  0  0  0  0
   -4.5833    1.7333    0.0000 N   0  0  0  0  0  0  0  0  0  0  0  0
    2.7125    0.7625    0.0000 N   0  3  0  0  0  0  0  0  0  0  0  0
    2.1417    1.4833    0.0000 C   0  0  0  0  0  0  0  0  0  0  0  0
   -1.7333    1.7333    0.0000 C   0  0  0  0  0  0  0  0  0  0  0  0
   -4.5833    2.5583    0.0000 C   0  0  0  0  0  0  0  0  0  0  0  0
   -0.8458    2.6833    0.0000 N   0  0  0  0  0  0  0  0  0  0  0  0
   -0.2833    1.9583    0.0000 C   0  0  0  0  0  0  0  0  0  0  0  0
    1.2125    1.3583    0.0000 C   0  0  0  0  0  0  0  0  0  0  0  0
    0.6417    2.0833    0.0000 C   0  0  0  0  0  0  0  0  0  0  0  0
    2.4792    2.3625    0.0000 C   0  0  0  0  0  0  0  0  0  0  0  0
    2.3792   -0.0917    0.0000 O   0  5  0  0  0  0  0  0  0  0  0  0
    3.6292    0.8958    0.0000 O   0  0  0  0  0  0  0  0  0  0  0  0
   -3.8708    0.3958    0.0000 C   0  0  0  0  0  0  0  0  0  0  0  0
   -2.4458    3.8000    0.0000 O   0  0  0  0  0  0  0  0  0  0  0  0
   -0.6250    1.0958    0.0000 O   0  0  0  0  0  0  0  0  0  0  0  0
    0.9792    2.9458    0.0000 C   0  0  0  0  0  0  0  0  0  0  0  0
    1.9000    3.0958    0.0000 C   0  0  0  0  0  0  0  0  0  0  0  0
    3.3875    2.4958    0.0000 Cl  0  0  0  0  0  0  0  0  0  0  0  0
   -4.6708   -0.0667    0.0000 C   0  0  0  0  0  0  0  0  0  0  0  0
   -3.0708   -0.0625    0.0000 C   0  0  0  0  0  0  0  0  0  0  0  0
   -3.0583   -0.9792    0.0000 C   0  0  0  0  0  0  0  0  0  0  0  0
   -4.6708   -0.9917    0.0000 C   0  0  0  0  0  0  0  0  0  0  0  0
   -3.8583   -1.4542    0.0000 C   0  0  0  0  0  0  0  0  0  0  0  0
  2  1  2  0  0  0  0
  3 10  1  0  0  0  0
  4  1  1  0  0  0  0
  5  1  1  0  0  0  0
  6  2  1  0  0  0  0
  7  5  1  0  0  0  0
  8  9  1  0  0  0  0
  9 14  2  0  0  0  0
 10  4  2  0  0  0  0
 11  2  1  0  0  0  0
 12  3  1  0  0  0  0
 13 12  1  0  0  0  0
 14 15  1  0  0  0  0
 15 13  1  0  0  0  0
 16 23  2  0  0  0  0
 17  8  1  0  0  0  0
 18  8  2  0  0  0  0
 19  5  1  0  0  0  0
 20  6  2  0  0  0  0
 21 13  2  0  0  0  0
 22 15  2  0  0  0  0
 23 22  1  0  0  0  0
 24 16  1  0  0  0  0
 25 19  2  0  0  0  0
 26 19  1  0  0  0  0
 27 26  2  0  0  0  0
 28 25  1  0  0  0  0
 29 27  1  0  0  0  0
 11  7  2  0  0  0  0
  3  6  1  0  0  0  0
 28 29  2  0  0  0  0
 16  9  1  0  0  0  0
M  CHG  2   8   1  17  -1
M  END
> <IDNUMBER>
F2823-0236

> <Chemical_Name>
4-chloro-3-nitro-N-{4-oxo-1-phenyl-1H,4H,5H-pyrazolo[3,4-d]pyrimidin-5-yl}benzamide

> <CAS>
899996-45-3

> <PriceCoeff>
1.00

> <MW>
410.77

> <Description>
solid

> <FSP3>
0.00

> <clogP>
1.67

> <TPSA>
122.73

> <Acceptor>
6

> <Donor>
1

> <RotBonds>
4

> <HAC>
29

> <Collection>
General

$$$$
F3244-0173
  -ISIS-  06222321152D

 26 29  0  0  0  0  0  0  0  0999 V2000
    5.9250   -4.4417    0.0000 C   0  0  0  0  0  0  0  0  0  0  0  0
    6.2542   -3.6917    0.0000 C   0  0  0  0  0  0  0  0  0  0  0  0
    7.0792   -2.6417    0.0000 C   0  0  0  0  0  0  0  0  0  0  0  0
    7.0417   -3.4667    0.0000 O   0  0  0  0  0  0  0  0  0  0  0  0
    3.6250   -7.9375    0.0000 N   0  3  0  0  0  0  0  0  0  0  0  0
    3.6167   -7.1042    0.0000 C   0  0  0  0  0  0  0  0  0  0  0  0
    5.1292   -4.6292    0.0000 C   0  0  0  0  0  0  0  0  0  0  0  0
    5.7917   -3.0042    0.0000 N   0  0  0  0  0  0  0  0  0  0  0  0
    6.3042   -2.3542    0.0000 N   0  0  0  0  0  0  0  0  0  0  0  0
    5.0500   -5.4500    0.0000 C   0  0  0  0  0  0  0  0  0  0  0  0
    6.3542   -5.1667    0.0000 C   0  0  0  0  0  0  0  0  0  0  0  0
    5.8042   -5.7792    0.0000 O   0  0  0  0  0  0  0  0  0  0  0  0
    4.3375   -6.6917    0.0000 C   0  0  0  0  0  0  0  0  0  0  0  0
    7.7625   -2.1792    0.0000 C   0  0  0  0  0  0  0  0  0  0  0  0
    4.3375   -5.8667    0.0000 C   0  0  0  0  0  0  0  0  0  0  0  0
    2.9042   -6.6917    0.0000 C   0  0  0  0  0  0  0  0  0  0  0  0
    2.9042   -8.3500    0.0000 O   0  5  0  0  0  0  0  0  0  0  0  0
    8.5375   -2.4667    0.0000 O   0  0  0  0  0  0  0  0  0  0  0  0
    4.3375   -8.3500    0.0000 O   0  0  0  0  0  0  0  0  0  0  0  0
    7.7917   -1.3542    0.0000 C   0  0  0  0  0  0  0  0  0  0  0  0
    9.0417   -1.8167    0.0000 C   0  0  0  0  0  0  0  0  0  0  0  0
    3.6167   -5.4542    0.0000 C   0  0  0  0  0  0  0  0  0  0  0  0
    8.5750   -1.1292    0.0000 C   0  0  0  0  0  0  0  0  0  0  0  0
    2.9042   -5.8667    0.0000 C   0  0  0  0  0  0  0  0  0  0  0  0
    2.1917   -7.1042    0.0000 Cl  0  0  0  0  0  0  0  0  0  0  0  0
    7.1750   -5.2500    0.0000 C   0  0  0  0  0  0  0  0  0  0  0  0
  2  1  1  0  0  0  0
  3  4  1  0  0  0  0
  4  2  1  0  0  0  0
  5  6  1  0  0  0  0
  6 13  2  0  0  0  0
  7  1  1  0  0  0  0
  8  2  2  0  0  0  0
  9  8  1  0  0  0  0
 10  7  2  0  0  0  0
 11  1  2  0  0  0  0
 12 11  1  0  0  0  0
 13 15  1  0  0  0  0
 14  3  1  0  0  0  0
 15 10  1  0  0  0  0
 16 24  2  0  0  0  0
 17  5  1  0  0  0  0
 18 14  1  0  0  0  0
 19  5  2  0  0  0  0
 20 14  2  0  0  0  0
 21 18  1  0  0  0  0
 22 15  2  0  0  0  0
 23 20  1  0  0  0  0
 24 22  1  0  0  0  0
 25 16  1  0  0  0  0
 26 11  1  0  0  0  0
 12 10  1  0  0  0  0
  9  3  2  0  0  0  0
  6 16  1  0  0  0  0
 23 21  2  0  0  0  0
M  CHG  2   5   1  17  -1
M  END
> <IDNUMBER>
F3244-0173

> <Chemical_Name>
2-[5-(4-chloro-3-nitrophenyl)-2-methylfuran-3-yl]-5-(furan-2-yl)-1,3,4-oxadiazole

> <CAS>
890641-99-3

> <PriceCoeff>
1.00

> <MW>
371.73

> <Description>
solid

> <FSP3>
0.06

> <clogP>
3.96

> <TPSA>
108.34

> <Acceptor>
7

> <Donor>
0

> <RotBonds>
4

> <HAC>
26

> <Collection>
General

$$$$
F0327-0298
  -ISIS-  06222321452D

 30 33  0  0  0  0  0  0  0  0999 V2000
   -1.9083    0.4333    0.0000 C   0  0  0  0  0  0  0  0  0  0  0  0
    2.9167   -0.3292    0.0000 N   0  0  3  0  0  0  0  0  0  0  0  0
   -2.4125   -0.2792    0.0000 N   0  0  0  0  0  0  0  0  0  0  0  0
   -3.2458   -0.0292    0.0000 C   0  0  0  0  0  0  0  0  0  0  0  0
   -5.5208    1.3000    0.0000 N   0  3  0  0  0  0  0  0  0  0  0  0
   -3.2458    0.8708    0.0000 C   0  0  0  0  0  0  0  0  0  0  0  0
   -1.0458    0.4333    0.0000 N   0  0  0  0  0  0  0  0  0  0  0  0
   -2.4000    1.1333    0.0000 S   0  0  0  0  0  0  0  0  0  0  0  0
   -4.7708    0.8625    0.0000 C   0  0  0  0  0  0  0  0  0  0  0  0
   -0.6000   -0.3292    0.0000 C   0  0  0  0  0  0  0  0  0  0  0  0
    3.4167    0.3333    0.0000 C   0  0  0  0  0  0  0  0  0  0  0  0
    3.4042   -1.0500    0.0000 C   0  0  0  0  0  0  0  0  0  0  0  0
   -4.0000    1.3125    0.0000 C   0  0  0  0  0  0  0  0  0  0  0  0
   -4.0000   -0.4500    0.0000 C   0  0  0  0  0  0  0  0  0  0  0  0
   -4.7708   -0.0292    0.0000 C   0  0  0  0  0  0  0  0  0  0  0  0
    2.0375   -0.3292    0.0000 C   0  0  0  0  0  0  0  0  0  0  0  0
   -5.5208    2.1500    0.0000 O   0  5  0  0  0  0  0  0  0  0  0  0
    0.2792   -0.3292    0.0000 C   0  0  0  0  0  0  0  0  0  0  0  0
   -6.2917    0.9333    0.0000 O   0  0  0  0  0  0  0  0  0  0  0  0
   -1.0458   -1.0875    0.0000 O   0  0  0  0  0  0  0  0  0  0  0  0
    4.2500    0.0708    0.0000 C   0  0  0  0  0  0  0  0  0  0  0  0
    4.2542   -0.8000    0.0000 C   0  0  0  0  0  0  0  0  0  0  0  0
    3.1292    1.1833    0.0000 O   0  0  0  0  0  0  0  0  0  0  0  0
    3.1000   -1.8667    0.0000 O   0  0  0  0  0  0  0  0  0  0  0  0
    1.6000   -1.0875    0.0000 C   0  0  0  0  0  0  0  0  0  0  0  0
    1.6000    0.4333    0.0000 C   0  0  0  0  0  0  0  0  0  0  0  0
    0.7167   -1.0875    0.0000 C   0  0  0  0  0  0  0  0  0  0  0  0
    0.7167    0.4333    0.0000 C   0  0  0  0  0  0  0  0  0  0  0  0
   -4.0000   -1.3167    0.0000 O   0  0  0  0  0  0  0  0  0  0  0  0
   -4.7708   -1.7500    0.0000 C   0  0  0  0  0  0  0  0  0  0  0  0
  2 16  1  0  0  0  0
  3  1  2  0  0  0  0
  4  3  1  0  0  0  0
  5  9  1  0  0  0  0
  6  8  1  0  0  0  0
  7  1  1  0  0  0  0
  8  1  1  0  0  0  0
  9 13  2  0  0  0  0
 10  7  1  0  0  0  0
 11  2  1  0  0  0  0
 12  2  1  0  0  0  0
 13  6  1  0  0  0  0
 14  4  1  0  0  0  0
 15 14  2  0  0  0  0
 16 26  1  0  0  0  0
 17  5  1  0  0  0  0
 18 10  1  0  0  0  0
 19  5  2  0  0  0  0
 20 10  2  0  0  0  0
 21 11  1  0  0  0  0
 22 12  1  0  0  0  0
 23 11  2  0  0  0  0
 24 12  2  0  0  0  0
 25 27  1  0  0  0  0
 26 28  2  0  0  0  0
 27 18  2  0  0  0  0
 28 18  1  0  0  0  0
 29 14  1  0  0  0  0
 30 29  1  0  0  0  0
  6  4  2  0  0  0  0
 15  9  1  0  0  0  0
 25 16  2  0  0  0  0
 22 21  1  0  0  0  0
M  CHG  2   5   1  17  -1
M  END
> <IDNUMBER>
F0327-0298

> <Chemical_Name>
4-(2,5-dioxopyrrolidin-1-yl)-N-(4-methoxy-6-nitro-1,3-benzothiazol-2-yl)benzamide

> <CAS>
328027-82-3

> <PriceCoeff>
1.00

> <MW>
426.40

> <Description>
solid

> <FSP3>
0.16

> <clogP>
1.75

> <TPSA>
159.98

> <Acceptor>
7

> <Donor>
1

> <RotBonds>
5

> <HAC>
30

> <Collection>
General

$$$$
F0327-0341
  -ISIS-  06222321142D

 30 33  0  0  0  0  0  0  0  0999 V2000
    4.4167    0.3500    0.0000 N   0  0  3  0  0  0  0  0  0  0  0  0
   -0.4000    1.1125    0.0000 C   0  0  0  0  0  0  0  0  0  0  0  0
   -0.9125    0.4000    0.0000 N   0  0  0  0  0  0  0  0  0  0  0  0
   -4.5208   -1.5000    0.0000 N   0  3  0  0  0  0  0  0  0  0  0  0
    0.4542    1.1125    0.0000 N   0  0  0  0  0  0  0  0  0  0  0  0
   -1.7458    0.6500    0.0000 C   0  0  0  0  0  0  0  0  0  0  0  0
    0.9000    0.3500    0.0000 C   0  0  0  0  0  0  0  0  0  0  0  0
    4.9167    1.0125    0.0000 C   0  0  0  0  0  0  0  0  0  0  0  0
    4.9042   -0.3667    0.0000 C   0  0  0  0  0  0  0  0  0  0  0  0
   -0.9000    1.8125    0.0000 S   0  0  0  0  0  0  0  0  0  0  0  0
   -1.7458    1.5500    0.0000 C   0  0  0  0  0  0  0  0  0  0  0  0
    3.5375    0.3500    0.0000 C   0  0  0  0  0  0  0  0  0  0  0  0
   -3.8208   -0.9667    0.0000 C   0  0  0  0  0  0  0  0  0  0  0  0
   -5.3500   -1.2375    0.0000 O   0  5  0  0  0  0  0  0  0  0  0  0
   -2.4208    0.1208    0.0000 C   0  0  0  0  0  0  0  0  0  0  0  0
    1.7792    0.3500    0.0000 C   0  0  0  0  0  0  0  0  0  0  0  0
   -4.5000   -2.3792    0.0000 O   0  0  0  0  0  0  0  0  0  0  0  0
    0.4542   -0.4042    0.0000 O   0  0  0  0  0  0  0  0  0  0  0  0
    5.7500    0.7500    0.0000 C   0  0  0  0  0  0  0  0  0  0  0  0
    5.7542   -0.1167    0.0000 C   0  0  0  0  0  0  0  0  0  0  0  0
    4.6292    1.8625    0.0000 O   0  0  0  0  0  0  0  0  0  0  0  0
    4.6000   -1.1875    0.0000 O   0  0  0  0  0  0  0  0  0  0  0  0
    3.1000   -0.4042    0.0000 C   0  0  0  0  0  0  0  0  0  0  0  0
    3.1000    1.1125    0.0000 C   0  0  0  0  0  0  0  0  0  0  0  0
   -2.9958   -1.3000    0.0000 C   0  0  0  0  0  0  0  0  0  0  0  0
   -3.9458   -0.0875    0.0000 C   0  0  0  0  0  0  0  0  0  0  0  0
    2.2167   -0.4042    0.0000 C   0  0  0  0  0  0  0  0  0  0  0  0
    2.2167    1.1125    0.0000 C   0  0  0  0  0  0  0  0  0  0  0  0
   -3.2458    0.4500    0.0000 C   0  0  0  0  0  0  0  0  0  0  0  0
   -2.3000   -0.7542    0.0000 C   0  0  0  0  0  0  0  0  0  0  0  0
  2  5  1  0  0  0  0
  3  2  2  0  0  0  0
  4 13  1  0  0  0  0
  5  7  1  0  0  0  0
  6  3  1  0  0  0  0
  7 16  1  0  0  0  0
  8  1  1  0  0  0  0
  9  1  1  0  0  0  0
 10  2  1  0  0  0  0
 11 10  1  0  0  0  0
 12  1  1  0  0  0  0
 13 25  1  0  0  0  0
 14  4  1  0  0  0  0
 15  6  1  0  0  0  0
 16 28  1  0  0  0  0
 17  4  2  0  0  0  0
 18  7  2  0  0  0  0
 19  8  1  0  0  0  0
 20  9  1  0  0  0  0
 21  8  2  0  0  0  0
 22  9  2  0  0  0  0
 23 12  2  0  0  0  0
 24 12  1  0  0  0  0
 25 30  2  0  0  0  0
 26 29  1  0  0  0  0
 27 23  1  0  0  0  0
 28 24  2  0  0  0  0
 29 15  2  0  0  0  0
 30 15  1  0  0  0  0
 19 20  1  0  0  0  0
 27 16  2  0  0  0  0
 11  6  2  0  0  0  0
 26 13  2  0  0  0  0
M  CHG  2   4   1  14  -1
M  END
> <IDNUMBER>
F0327-0341

> <Chemical_Name>
4-(2,5-dioxopyrrolidin-1-yl)-N-[4-(4-nitrophenyl)-1,3-thiazol-2-yl]benzamide

> <CAS>
330200-84-5

> <PriceCoeff>
1.00

> <MW>
422.41

> <Description>
solid

> <FSP3>
0.10

> <clogP>
1.89

> <TPSA>
150.75

> <Acceptor>
6

> <Donor>
1

> <RotBonds>
5

> <HAC>
30

> <Collection>
General

$$$$
F0398-0056
  -ISIS-  06222321142D

 21 23  0  0  0  0  0  0  0  0999 V2000
    6.5000   -1.8875    0.0000 C   0  0  0  0  0  0  0  0  0  0  0  0
    7.2042   -3.1292    0.0000 C   0  0  0  0  0  0  0  0  0  0  0  0
    7.2042   -1.4792    0.0000 O   0  0  0  0  0  0  0  0  0  0  0  0
    7.9292   -1.8875    0.0000 C   0  0  0  0  0  0  0  0  0  0  0  0
    6.5000   -2.7042    0.0000 C   0  0  0  0  0  0  0  0  0  0  0  0
    7.9292   -2.7042    0.0000 C   0  0  0  0  0  0  0  0  0  0  0  0
    5.7792   -1.4792    0.0000 C   0  0  0  0  0  0  0  0  0  0  0  0
    5.7875   -3.1292    0.0000 C   0  0  0  0  0  0  0  0  0  0  0  0
    8.6500   -1.4667    0.0000 O   0  0  0  0  0  0  0  0  0  0  0  0
    5.0667   -1.8875    0.0000 C   0  0  0  0  0  0  0  0  0  0  0  0
    4.3500   -1.4667    0.0000 O   0  0  0  0  0  0  0  0  0  0  0  0
    5.0667   -2.7042    0.0000 C   0  0  0  0  0  0  0  0  0  0  0  0
    2.1917   -1.9042    0.0000 C   0  0  0  0  0  0  0  0  0  0  0  0
    3.6375   -1.8875    0.0000 C   0  0  0  0  0  0  0  0  0  0  0  0
    2.9042   -1.4792    0.0000 C   0  0  0  0  0  0  0  0  0  0  0  0
    7.2042   -3.9500    0.0000 C   0  0  0  0  0  0  0  0  0  0  0  0
    1.4792   -1.5000    0.0000 C   0  0  0  0  0  0  0  0  0  0  0  0
    2.1917   -0.2500    0.0000 C   0  0  0  0  0  0  0  0  0  0  0  0
    2.9042   -0.6542    0.0000 C   0  0  0  0  0  0  0  0  0  0  0  0
    1.4667   -0.6667    0.0000 C   0  0  0  0  0  0  0  0  0  0  0  0
    0.7667   -1.9167    0.0000 C   0  0  0  0  0  0  0  0  0  0  0  0
  2  5  1  0  0  0  0
  3  1  1  0  0  0  0
  4  3  1  0  0  0  0
  5  1  1  0  0  0  0
  6  2  2  0  0  0  0
  7  1  2  0  0  0  0
  8  5  2  0  0  0  0
  9  4  2  0  0  0  0
 10  7  1  0  0  0  0
 11 10  1  0  0  0  0
 12 10  2  0  0  0  0
 13 15  1  0  0  0  0
 14 11  1  0  0  0  0
 15 14  1  0  0  0  0
 16  2  1  0  0  0  0
 17 13  2  0  0  0  0
 18 19  1  0  0  0  0
 19 15  2  0  0  0  0
 20 18  2  0  0  0  0
 21 17  1  0  0  0  0
 12  8  1  0  0  0  0
  4  6  1  0  0  0  0
 17 20  1  0  0  0  0
M  END
> <IDNUMBER>
F0398-0056

> <Chemical_Name>
4-methyl-7-[(3-methylphenyl)methoxy]-2H-chromen-2-one

> <CAS>
314262-50-5

> <PriceCoeff>
1.00

> <MW>
280.32

> <Description>
solid

> <FSP3>
0.17

> <clogP>
4.51

> <TPSA>
35.53

> <Acceptor>
3

> <Donor>
0

> <RotBonds>
3

> <HAC>
21

> <Collection>
General

> <Reference_compound>
CHEMBL52229

> <Similarity>
0.8050

$$$$
F2147-0938
  -ISIS-  06222321442D

 17 18  0  0  0  0  0  0  0  0999 V2000
    7.1667   -3.5208    0.0000 C   0  0  0  0  0  0  0  0  0  0  0  0
    6.4542   -3.9375    0.0000 C   0  0  0  0  0  0  0  0  0  0  0  0
    5.7375   -3.5250    0.0000 C   0  0  0  0  0  0  0  0  0  0  0  0
    3.6000   -4.7708    0.0000 C   0  0  0  0  0  0  0  0  0  0  0  0
    7.1625   -2.6958    0.0000 O   0  0  0  0  0  0  0  0  0  0  0  0
    2.8917   -5.1875    0.0000 C   0  0  0  0  0  0  0  0  0  0  0  0
    4.3167   -5.1833    0.0000 C   0  0  0  0  0  0  0  0  0  0  0  0
    3.5958   -3.9500    0.0000 C   0  0  0  0  0  0  0  0  0  0  0  0
    5.0250   -3.9417    0.0000 C   0  0  0  0  0  0  0  0  0  0  0  0
    7.8833   -3.9292    0.0000 O   0  0  0  0  0  0  0  0  0  0  0  0
    5.0292   -4.7708    0.0000 C   0  0  0  0  0  0  0  0  0  0  0  0
    4.3042   -3.5333    0.0000 C   0  0  0  0  0  0  0  0  0  0  0  0
    2.1750   -4.7750    0.0000 C   0  0  0  0  0  0  0  0  0  0  0  0
    2.8917   -6.0167    0.0000 C   0  0  0  0  0  0  0  0  0  0  0  0
    1.4625   -5.1875    0.0000 C   0  0  0  0  0  0  0  0  0  0  0  0
    2.1750   -6.4292    0.0000 C   0  0  0  0  0  0  0  0  0  0  0  0
    1.4625   -6.0167    0.0000 C   0  0  0  0  0  0  0  0  0  0  0  0
  2  1  1  0  0  0  0
  3  2  2  0  0  0  0
  4  8  1  0  0  0  0
  5  1  2  0  0  0  0
  6  4  1  0  0  0  0
  7 11  1  0  0  0  0
  8 12  2  0  0  0  0
  9  3  1  0  0  0  0
 10  1  1  0  0  0  0
 11  9  2  0  0  0  0
 12  9  1  0  0  0  0
 13  6  2  0  0  0  0
 14  6  1  0  0  0  0
 15 13  1  0  0  0  0
 16 14  2  0  0  0  0
 17 15  2  0  0  0  0
  7  4  2  0  0  0  0
 16 17  1  0  0  0  0
M  END
> <IDNUMBER>
F2147-0938

> <Chemical_Name>
(2E)-3-{[1,1'-biphenyl]-4-yl}prop-2-enoic acid

> <CAS>
88241-65-0

> <PriceCoeff>
1.00

> <MW>
224.25

> <Description>
solid

> <FSP3>
0.00

> <clogP>
4.13

> <TPSA>
37.30

> <Acceptor>
2

> <Donor>
0

> <RotBonds>
3

> <HAC>
17

> <Collection>
General

> <Reference_compound>
CHEMBL27246

> <Similarity>
0.8530

$$$$
F0700-0155
  -ISIS-  06222321452D

 30 33  0  0  0  0  0  0  0  0999 V2000
    0.5667    0.3625    0.0000 C   0  0  0  0  0  0  0  0  0  0  0  0
    3.1792   -0.1875    0.0000 N   0  0  3  0  0  0  0  0  0  0  0  0
    0.8042   -0.1792    0.0000 N   0  0  0  0  0  0  0  0  0  0  0  0
    0.3792   -0.5542    0.0000 C   0  0  0  0  0  0  0  0  0  0  0  0
   -1.1333   -1.4500    0.0000 N   0  3  0  0  0  0  0  0  0  0  0  0
   -0.1458   -0.2542    0.0000 C   0  0  0  0  0  0  0  0  0  0  0  0
    0.8500    0.8708    0.0000 N   0  0  0  0  0  0  0  0  0  0  0  0
    0.0000    0.3000    0.0000 S   0  0  0  0  0  0  0  0  0  0  0  0
   -0.6208   -1.1292    0.0000 C   0  0  0  0  0  0  0  0  0  0  0  0
    2.6000   -0.1792    0.0000 C   0  0  0  0  0  0  0  0  0  0  0  0
    1.4375    0.8708    0.0000 C   0  0  0  0  0  0  0  0  0  0  0  0
    3.5042   -0.6542    0.0000 C   0  0  0  0  0  0  0  0  0  0  0  0
    3.5667    0.2708    0.0000 C   0  0  0  0  0  0  0  0  0  0  0  0
   -0.6458   -0.5500    0.0000 C   0  0  0  0  0  0  0  0  0  0  0  0
    0.3667   -1.1292    0.0000 C   0  0  0  0  0  0  0  0  0  0  0  0
   -0.1625   -1.4167    0.0000 C   0  0  0  0  0  0  0  0  0  0  0  0
    2.3167    0.3500    0.0000 C   0  0  0  0  0  0  0  0  0  0  0  0
    1.7292    0.3625    0.0000 C   0  0  0  0  0  0  0  0  0  0  0  0
   -1.6458   -1.1667    0.0000 O   0  5  0  0  0  0  0  0  0  0  0  0
   -1.1208   -2.0375    0.0000 O   0  0  0  0  0  0  0  0  0  0  0  0
    1.7292    1.3833    0.0000 O   0  0  0  0  0  0  0  0  0  0  0  0
    4.0667   -0.5292    0.0000 C   0  0  0  0  0  0  0  0  0  0  0  0
    4.0875    0.0458    0.0000 C   0  0  0  0  0  0  0  0  0  0  0  0
    3.3000   -1.2167    0.0000 O   0  0  0  0  0  0  0  0  0  0  0  0
    3.4292    0.8333    0.0000 O   0  0  0  0  0  0  0  0  0  0  0  0
    0.8792   -1.4500    0.0000 O   0  0  0  0  0  0  0  0  0  0  0  0
    2.3042   -0.6292    0.0000 C   0  0  0  0  0  0  0  0  0  0  0  0
    1.4292   -0.1542    0.0000 C   0  0  0  0  0  0  0  0  0  0  0  0
    1.7167   -0.6500    0.0000 C   0  0  0  0  0  0  0  0  0  0  0  0
    1.3792   -1.1667    0.0000 C   0  0  0  0  0  0  0  0  0  0  0  0
  2 10  1  0  0  0  0
  3  1  2  0  0  0  0
  4  3  1  0  0  0  0
  5  9  1  0  0  0  0
  6  8  1  0  0  0  0
  7  1  1  0  0  0  0
  8  1  1  0  0  0  0
  9 14  2  0  0  0  0
 10 17  2  0  0  0  0
 11  7  1  0  0  0  0
 12  2  1  0  0  0  0
 13  2  1  0  0  0  0
 14  6  1  0  0  0  0
 15  4  1  0  0  0  0
 16 15  2  0  0  0  0
 17 18  1  0  0  0  0
 18 11  1  0  0  0  0
 19  5  1  0  0  0  0
 20  5  2  0  0  0  0
 21 11  2  0  0  0  0
 22 12  1  0  0  0  0
 23 13  1  0  0  0  0
 24 12  2  0  0  0  0
 25 13  2  0  0  0  0
 26 15  1  0  0  0  0
 27 29  2  0  0  0  0
 28 18  2  0  0  0  0
 29 28  1  0  0  0  0
 30 26  1  0  0  0  0
  6  4  2  0  0  0  0
  9 16  1  0  0  0  0
 27 10  1  0  0  0  0
 22 23  1  0  0  0  0
M  CHG  2   5   1  19  -1
M  END
> <IDNUMBER>
F0700-0155

> <Chemical_Name>
3-(2,5-dioxopyrrolidin-1-yl)-N-(4-methoxy-6-nitro-1,3-benzothiazol-2-yl)benzamide

> <CAS>
361479-47-2

> <PriceCoeff>
1.00

> <MW>
426.40

> <Description>
solid

> <FSP3>
0.16

> <clogP>
1.75

> <TPSA>
159.98

> <Acceptor>
7

> <Donor>
1

> <RotBonds>
5

> <HAC>
30

> <Collection>
General

$$$$
F0433-0272
  -ISIS-  06222321442D

 28 30  0  0  0  0  0  0  0  0999 V2000
   -0.9125   -0.2000    0.0000 C   0  0  0  0  0  0  0  0  0  0  0  0
   -1.4958   -0.4167    0.0000 C   0  0  0  0  0  0  0  0  0  0  0  0
   -1.5500    0.5958    0.0000 N   0  0  3  0  0  0  0  0  0  0  0  0
   -1.8958    0.0708    0.0000 N   0  0  3  0  0  0  0  0  0  0  0  0
    0.2000   -0.2542    0.0000 S   0  0  3  0  0  0  0  0  0  0  0  0
   -0.9333    0.4125    0.0000 C   0  0  0  0  0  0  0  0  0  0  0  0
   -0.3708   -0.5542    0.0000 N   0  0  0  0  0  0  0  0  0  0  0  0
    1.3500    0.9500    0.0000 C   0  0  0  0  0  0  0  0  0  0  0  0
    1.3542    1.5708    0.0000 N   0  3  0  0  0  0  0  0  0  0  0  0
    0.8000    0.6500    0.0000 C   0  0  0  0  0  0  0  0  0  0  0  0
    0.7542    0.0333    0.0000 C   0  0  0  0  0  0  0  0  0  0  0  0
   -1.6500   -1.0542    0.0000 O   0  0  0  0  0  0  0  0  0  0  0  0
    0.4792   -0.8500    0.0000 O   0  0  0  0  0  0  0  0  0  0  0  0
   -0.0958    0.3125    0.0000 O   0  0  0  0  0  0  0  0  0  0  0  0
    1.8792    0.6125    0.0000 C   0  0  0  0  0  0  0  0  0  0  0  0
    1.9000    1.8958    0.0000 O   0  5  0  0  0  0  0  0  0  0  0  0
   -2.5125    0.0708    0.0000 C   0  0  0  0  0  0  0  0  0  0  0  0
    0.8167    1.8958    0.0000 O   0  0  0  0  0  0  0  0  0  0  0  0
    1.3000   -0.3000    0.0000 C   0  0  0  0  0  0  0  0  0  0  0  0
    1.8542   -0.0167    0.0000 C   0  0  0  0  0  0  0  0  0  0  0  0
   -1.7708    1.1708    0.0000 C   0  0  0  0  0  0  0  0  0  0  0  0
   -0.4333    0.8125    0.0000 C   0  0  0  0  0  0  0  0  0  0  0  0
    2.4375    0.8958    0.0000 Cl  0  0  0  0  0  0  0  0  0  0  0  0
   -2.8333   -0.4792    0.0000 C   0  0  0  0  0  0  0  0  0  0  0  0
   -2.8333    0.6125    0.0000 C   0  0  0  0  0  0  0  0  0  0  0  0
   -3.4500    0.6125    0.0000 C   0  0  0  0  0  0  0  0  0  0  0  0
   -3.4500   -0.4792    0.0000 C   0  0  0  0  0  0  0  0  0  0  0  0
   -3.7708    0.0708    0.0000 C   0  0  0  0  0  0  0  0  0  0  0  0
  2  1  1  0  0  0  0
  3  6  1  0  0  0  0
  4  2  1  0  0  0  0
  5  7  1  0  0  0  0
  6  1  2  0  0  0  0
  7  1  1  0  0  0  0
  8 10  2  0  0  0  0
  9  8  1  0  0  0  0
 10 11  1  0  0  0  0
 11  5  1  0  0  0  0
 12  2  2  0  0  0  0
 13  5  2  0  0  0  0
 14  5  2  0  0  0  0
 15 20  2  0  0  0  0
 16  9  1  0  0  0  0
 17  4  1  0  0  0  0
 18  9  2  0  0  0  0
 19 11  2  0  0  0  0
 20 19  1  0  0  0  0
 21  3  1  0  0  0  0
 22  6  1  0  0  0  0
 23 15  1  0  0  0  0
 24 17  1  0  0  0  0
 25 17  2  0  0  0  0
 26 25  1  0  0  0  0
 27 24  2  0  0  0  0
 28 26  2  0  0  0  0
  3  4  1  0  0  0  0
 15  8  1  0  0  0  0
 28 27  1  0  0  0  0
M  CHG  2   9   1  16  -1
M  END
> <IDNUMBER>
F0433-0272

> <Chemical_Name>
4-chloro-N-(1,5-dimethyl-3-oxo-2-phenyl-2,3-dihydro-1H-pyrazol-4-yl)-3-nitrobenzene-1-sulfonamide

> <CAS>
301314-58-9

> <PriceCoeff>
1.00

> <MW>
422.84

> <Description>
solid

> <FSP3>
0.12

> <clogP>
1.62

> <TPSA>
121.24

> <Acceptor>
5

> <Donor>
2

> <RotBonds>
5

> <HAC>
28

> <Collection>
General

$$$$
F1359-0312
  -ISIS-  06222321142D

 33 36  0  0  0  0  0  0  0  0999 V2000
   -1.1625    2.3833    0.0000 C   0  0  0  0  0  0  0  0  0  0  0  0
   -0.3375    2.3750    0.0000 N   0  0  0  0  0  0  0  0  0  0  0  0
   -1.6458    1.7208    0.0000 N   0  0  3  0  0  0  0  0  0  0  0  0
    3.3792    3.0708    0.0000 N   0  0  3  0  0  0  0  0  0  0  0  0
   -1.6458    3.0500    0.0000 S   0  0  0  0  0  0  0  0  0  0  0  0
   -2.4333    2.7958    0.0000 C   0  0  0  0  0  0  0  0  0  0  0  0
   -2.4333    1.9708    0.0000 C   0  0  0  0  0  0  0  0  0  0  0  0
    0.0750    3.0875    0.0000 C   0  0  0  0  0  0  0  0  0  0  0  0
    3.8500    3.7583    0.0000 C   0  0  0  0  0  0  0  0  0  0  0  0
    3.8917    2.4250    0.0000 C   0  0  0  0  0  0  0  0  0  0  0  0
   -4.5833    3.2125    0.0000 C   0  0  0  0  0  0  0  0  0  0  0  0
   -3.1458    3.2083    0.0000 C   0  0  0  0  0  0  0  0  0  0  0  0
   -3.8583    2.7958    0.0000 C   0  0  0  0  0  0  0  0  0  0  0  0
    2.5542    3.0833    0.0000 C   0  0  0  0  0  0  0  0  0  0  0  0
   -3.1458    1.5583    0.0000 C   0  0  0  0  0  0  0  0  0  0  0  0
    0.9000    3.0875    0.0000 C   0  0  0  0  0  0  0  0  0  0  0  0
   -0.3375    3.8000    0.0000 O   0  0  0  0  0  0  0  0  0  0  0  0
    4.6417    3.5250    0.0000 C   0  0  0  0  0  0  0  0  0  0  0  0
    4.6667    2.7083    0.0000 C   0  0  0  0  0  0  0  0  0  0  0  0
    3.5667    4.5417    0.0000 O   0  0  0  0  0  0  0  0  0  0  0  0
    3.6667    1.6333    0.0000 O   0  0  0  0  0  0  0  0  0  0  0  0
   -3.8583    1.9708    0.0000 C   0  0  0  0  0  0  0  0  0  0  0  0
   -5.2875    2.8000    0.0000 O   0  0  0  0  0  0  0  0  0  0  0  0
    2.1417    3.8000    0.0000 C   0  0  0  0  0  0  0  0  0  0  0  0
    2.1292    2.3708    0.0000 C   0  0  0  0  0  0  0  0  0  0  0  0
    1.3125    2.3833    0.0000 C   0  0  0  0  0  0  0  0  0  0  0  0
    1.3250    3.8083    0.0000 C   0  0  0  0  0  0  0  0  0  0  0  0
   -1.3958    0.9333    0.0000 C   0  0  0  0  0  0  0  0  0  0  0  0
   -4.5708    4.0292    0.0000 O   0  0  0  0  0  0  0  0  0  0  0  0
   -2.7500    0.4875    0.0000 O   0  0  0  0  0  0  0  0  0  0  0  0
   -1.9458    0.3208    0.0000 C   0  0  0  0  0  0  0  0  0  0  0  0
   -5.2875    4.4417    0.0000 C   0  0  0  0  0  0  0  0  0  0  0  0
   -3.3083   -0.1250    0.0000 C   0  0  0  0  0  0  0  0  0  0  0  0
  2  1  2  0  0  0  0
  3  1  1  0  0  0  0
  4 14  1  0  0  0  0
  5  1  1  0  0  0  0
  6  5  1  0  0  0  0
  7  3  1  0  0  0  0
  8  2  1  0  0  0  0
  9  4  1  0  0  0  0
 10  4  1  0  0  0  0
 11 13  1  0  0  0  0
 12  6  1  0  0  0  0
 13 12  2  0  0  0  0
 14 24  1  0  0  0  0
 15  7  1  0  0  0  0
 16  8  1  0  0  0  0
 17  8  2  0  0  0  0
 18  9  1  0  0  0  0
 19 10  1  0  0  0  0
 20  9  2  0  0  0  0
 21 10  2  0  0  0  0
 22 15  2  0  0  0  0
 23 11  2  0  0  0  0
 24 27  2  0  0  0  0
 25 26  1  0  0  0  0
 26 16  2  0  0  0  0
 27 16  1  0  0  0  0
 28  3  1  0  0  0  0
 29 11  1  0  0  0  0
 30 31  1  0  0  0  0
 31 28  1  0  0  0  0
 32 29  1  0  0  0  0
 33 30  1  0  0  0  0
  7  6  2  0  0  0  0
 22 13  1  0  0  0  0
 14 25  2  0  0  0  0
 18 19  1  0  0  0  0
M  END
> <IDNUMBER>
F1359-0312

> <Chemical_Name>
methyl (2Z)-2-{[4-(2,5-dioxopyrrolidin-1-yl)benzoyl]imino}-3-(2-methoxyethyl)-2,3-dihydro-1,3-benzothiazole-6-carboxylate

> <CAS>
864975-31-5

> <PriceCoeff>
1.00

> <MW>
467.49

> <Description>
solid

> <FSP3>
0.26

> <clogP>
2.59

> <TPSA>
130.88

> <Acceptor>
6

> <Donor>
0

> <RotBonds>
8

> <HAC>
33

> <Collection>
General

$$$$
F2823-0872
  -ISIS-  06222321462D

 31 34  0  0  0  0  0  0  0  0999 V2000
   -3.1583    1.7333    0.0000 C   0  0  0  0  0  0  0  0  0  0  0  0
   -3.1583    2.5583    0.0000 C   0  0  0  0  0  0  0  0  0  0  0  0
   -3.8708    1.3208    0.0000 N   0  0  3  0  0  0  0  0  0  0  0  0
   -1.7333    2.5583    0.0000 N   0  0  3  0  0  0  0  0  0  0  0  0
   -2.4458    1.3250    0.0000 N   0  0  0  0  0  0  0  0  0  0  0  0
   -2.4458    2.9833    0.0000 C   0  0  0  0  0  0  0  0  0  0  0  0
   -4.5833    1.7333    0.0000 N   0  0  0  0  0  0  0  0  0  0  0  0
    2.7125    0.7625    0.0000 N   0  3  0  0  0  0  0  0  0  0  0  0
    2.1417    1.4833    0.0000 C   0  0  0  0  0  0  0  0  0  0  0  0
   -1.7333    1.7333    0.0000 C   0  0  0  0  0  0  0  0  0  0  0  0
   -4.5833    2.5583    0.0000 C   0  0  0  0  0  0  0  0  0  0  0  0
   -0.8458    2.6833    0.0000 N   0  0  0  0  0  0  0  0  0  0  0  0
   -0.2833    1.9583    0.0000 C   0  0  0  0  0  0  0  0  0  0  0  0
   -3.8708    0.3958    0.0000 C   0  0  0  0  0  0  0  0  0  0  0  0
    1.2125    1.3583    0.0000 C   0  0  0  0  0  0  0  0  0  0  0  0
    0.6417    2.0833    0.0000 C   0  0  0  0  0  0  0  0  0  0  0  0
   -3.0708   -0.0625    0.0000 C   0  0  0  0  0  0  0  0  0  0  0  0
    2.4792    2.3625    0.0000 C   0  0  0  0  0  0  0  0  0  0  0  0
    2.3792   -0.0917    0.0000 O   0  5  0  0  0  0  0  0  0  0  0  0
   -3.0583   -0.9792    0.0000 C   0  0  0  0  0  0  0  0  0  0  0  0
    3.6292    0.8958    0.0000 O   0  0  0  0  0  0  0  0  0  0  0  0
   -2.4458    3.8000    0.0000 O   0  0  0  0  0  0  0  0  0  0  0  0
   -0.6250    1.0958    0.0000 O   0  0  0  0  0  0  0  0  0  0  0  0
   -4.6708   -0.0667    0.0000 C   0  0  0  0  0  0  0  0  0  0  0  0
   -3.8583   -1.4542    0.0000 C   0  0  0  0  0  0  0  0  0  0  0  0
    0.9792    2.9458    0.0000 C   0  0  0  0  0  0  0  0  0  0  0  0
    1.9000    3.0958    0.0000 C   0  0  0  0  0  0  0  0  0  0  0  0
   -4.6708   -0.9917    0.0000 C   0  0  0  0  0  0  0  0  0  0  0  0
    3.3875    2.4958    0.0000 Cl  0  0  0  0  0  0  0  0  0  0  0  0
   -2.2458   -1.4375    0.0000 C   0  0  0  0  0  0  0  0  0  0  0  0
   -3.8500   -2.3792    0.0000 C   0  0  0  0  0  0  0  0  0  0  0  0
  2  1  2  0  0  0  0
  3  1  1  0  0  0  0
  4 10  1  0  0  0  0
  5  1  1  0  0  0  0
  6  2  1  0  0  0  0
  7  3  1  0  0  0  0
  8  9  1  0  0  0  0
  9 15  2  0  0  0  0
 10  5  2  0  0  0  0
 11  2  1  0  0  0  0
 12  4  1  0  0  0  0
 13 12  1  0  0  0  0
 14  3  1  0  0  0  0
 15 16  1  0  0  0  0
 16 13  1  0  0  0  0
 17 14  1  0  0  0  0
 18 27  2  0  0  0  0
 19  8  1  0  0  0  0
 20 17  2  0  0  0  0
 21  8  2  0  0  0  0
 22  6  2  0  0  0  0
 23 13  2  0  0  0  0
 24 14  2  0  0  0  0
 25 28  2  0  0  0  0
 26 16  2  0  0  0  0
 27 26  1  0  0  0  0
 28 24  1  0  0  0  0
 29 18  1  0  0  0  0
 30 20  1  0  0  0  0
 31 25  1  0  0  0  0
 11  7  2  0  0  0  0
  4  6  1  0  0  0  0
 20 25  1  0  0  0  0
 18  9  1  0  0  0  0
M  CHG  2   8   1  19  -1
M  END
> <IDNUMBER>
F2823-0872

> <Chemical_Name>
4-chloro-N-[1-(3,4-dimethylphenyl)-4-oxo-1H,4H,5H-pyrazolo[3,4-d]pyrimidin-5-yl]-3-nitrobenzamide

> <CAS>
900008-97-1

> <PriceCoeff>
1.00

> <MW>
438.82

> <Description>
solid

> <FSP3>
0.10

> <clogP>
2.62

> <TPSA>
122.73

> <Acceptor>
6

> <Donor>
1

> <RotBonds>
4

> <HAC>
31

> <Collection>
General

$$$$
F3139-0671
  -ISIS-  06222321462D

 22 23  0  0  0  0  0  0  0  0999 V2000
    4.8625   -2.7917    0.0000 C   0  0  0  0  0  0  0  0  0  0  0  0
    6.2917   -2.7875    0.0000 C   0  0  0  0  0  0  0  0  0  0  0  0
    5.5792   -3.2042    0.0000 C   0  0  0  0  0  0  0  0  0  0  0  0
    7.0042   -3.2000    0.0000 C   0  0  0  0  0  0  0  0  0  0  0  0
    8.4375   -3.2000    0.0000 C   0  0  0  0  0  0  0  0  0  0  0  0
    9.1500   -2.7875    0.0000 C   0  0  0  0  0  0  0  0  0  0  0  0
    7.7167   -2.7875    0.0000 C   0  0  0  0  0  0  0  0  0  0  0  0
    4.8625   -1.9625    0.0000 C   0  0  0  0  0  0  0  0  0  0  0  0
    4.1417   -3.2042    0.0000 C   0  0  0  0  0  0  0  0  0  0  0  0
    5.5792   -4.0292    0.0000 O   0  0  0  0  0  0  0  0  0  0  0  0
    7.7167   -1.9667    0.0000 C   0  0  0  0  0  0  0  0  0  0  0  0
    4.1417   -1.5500    0.0000 C   0  0  0  0  0  0  0  0  0  0  0  0
    9.1500   -1.9625    0.0000 C   0  0  0  0  0  0  0  0  0  0  0  0
    3.4292   -2.7917    0.0000 C   0  0  0  0  0  0  0  0  0  0  0  0
    8.4292   -1.5500    0.0000 C   0  0  0  0  0  0  0  0  0  0  0  0
    8.4375   -4.0167    0.0000 O   0  0  0  0  0  0  0  0  0  0  0  0
    3.4292   -1.9625    0.0000 C   0  0  0  0  0  0  0  0  0  0  0  0
    5.5750   -1.5417    0.0000 O   0  0  0  0  0  0  0  0  0  0  0  0
    9.8542   -1.5417    0.0000 O   0  0  0  0  0  0  0  0  0  0  0  0
    2.7167   -3.2042    0.0000 C   0  0  0  0  0  0  0  0  0  0  0  0
    9.1500   -4.4292    0.0000 C   0  0  0  0  0  0  0  0  0  0  0  0
    9.8542   -0.7167    0.0000 C   0  0  0  0  0  0  0  0  0  0  0  0
  2  3  1  0  0  0  0
  3  1  1  0  0  0  0
  4  2  2  0  0  0  0
  5  7  2  0  0  0  0
  6  5  1  0  0  0  0
  7  4  1  0  0  0  0
  8  1  1  0  0  0  0
  9  1  2  0  0  0  0
 10  3  2  0  0  0  0
 11  7  1  0  0  0  0
 12  8  2  0  0  0  0
 13 15  1  0  0  0  0
 14  9  1  0  0  0  0
 15 11  2  0  0  0  0
 16  5  1  0  0  0  0
 17 14  2  0  0  0  0
 18  8  1  0  0  0  0
 19 13  1  0  0  0  0
 20 14  1  0  0  0  0
 21 16  1  0  0  0  0
 22 19  1  0  0  0  0
 12 17  1  0  0  0  0
  6 13  2  0  0  0  0
M  END
> <IDNUMBER>
F3139-0671

> <Chemical_Name>
(2E)-3-(2,4-dimethoxyphenyl)-1-(2-hydroxy-5-methylphenyl)prop-2-en-1-one

> <CAS>
1571080-70-0

> <PriceCoeff>
1.00

> <MW>
298.33

> <Description>
solid

> <FSP3>
0.17

> <clogP>
4.46

> <TPSA>
55.76

> <Acceptor>
4

> <Donor>
1

> <RotBonds>
5

> <HAC>
22

> <Collection>
General

> <Reference_compound>
CHEMBL362378

> <Similarity>
0.8100

$$$$
F0327-0336
  -ISIS-  06222321142D

 33 37  0  0  0  0  0  0  0  0999 V2000
    4.4167    0.3500    0.0000 N   0  0  3  0  0  0  0  0  0  0  0  0
   -0.4000    1.1125    0.0000 C   0  0  0  0  0  0  0  0  0  0  0  0
   -0.9125    0.4000    0.0000 N   0  0  0  0  0  0  0  0  0  0  0  0
    0.4542    1.1125    0.0000 N   0  0  0  0  0  0  0  0  0  0  0  0
   -1.7458    0.6500    0.0000 C   0  0  0  0  0  0  0  0  0  0  0  0
    0.9000    0.3500    0.0000 C   0  0  0  0  0  0  0  0  0  0  0  0
    4.9042   -0.3667    0.0000 C   0  0  0  0  0  0  0  0  0  0  0  0
    4.9167    1.0125    0.0000 C   0  0  0  0  0  0  0  0  0  0  0  0
   -0.9000    1.8125    0.0000 S   0  0  0  0  0  0  0  0  0  0  0  0
   -1.7458    1.5500    0.0000 C   0  0  0  0  0  0  0  0  0  0  0  0
    3.5375    0.3500    0.0000 C   0  0  0  0  0  0  0  0  0  0  0  0
   -2.4208    0.1208    0.0000 C   0  0  0  0  0  0  0  0  0  0  0  0
    1.7792    0.3500    0.0000 C   0  0  0  0  0  0  0  0  0  0  0  0
    0.4542   -0.4042    0.0000 O   0  0  0  0  0  0  0  0  0  0  0  0
    5.7542   -0.1167    0.0000 C   0  0  0  0  0  0  0  0  0  0  0  0
    5.7500    0.7500    0.0000 C   0  0  0  0  0  0  0  0  0  0  0  0
   -3.8208   -0.9667    0.0000 C   0  0  0  0  0  0  0  0  0  0  0  0
    4.6292    1.8625    0.0000 O   0  0  0  0  0  0  0  0  0  0  0  0
    4.6000   -1.1875    0.0000 O   0  0  0  0  0  0  0  0  0  0  0  0
    3.1000    1.1125    0.0000 C   0  0  0  0  0  0  0  0  0  0  0  0
    3.1000   -0.4042    0.0000 C   0  0  0  0  0  0  0  0  0  0  0  0
    2.2167    1.1125    0.0000 C   0  0  0  0  0  0  0  0  0  0  0  0
    2.2167   -0.4042    0.0000 C   0  0  0  0  0  0  0  0  0  0  0  0
   -2.3000   -0.7542    0.0000 C   0  0  0  0  0  0  0  0  0  0  0  0
   -3.2458    0.4500    0.0000 C   0  0  0  0  0  0  0  0  0  0  0  0
   -2.9958   -1.3000    0.0000 C   0  0  0  0  0  0  0  0  0  0  0  0
   -3.9458   -0.0875    0.0000 C   0  0  0  0  0  0  0  0  0  0  0  0
   -4.5208   -1.5000    0.0000 C   0  0  0  0  0  0  0  0  0  0  0  0
   -5.3458   -1.1667    0.0000 C   0  0  0  0  0  0  0  0  0  0  0  0
   -4.3958   -2.3792    0.0000 C   0  0  0  0  0  0  0  0  0  0  0  0
   -5.0958   -2.9292    0.0000 C   0  0  0  0  0  0  0  0  0  0  0  0
   -6.0292   -1.7000    0.0000 C   0  0  0  0  0  0  0  0  0  0  0  0
   -5.9208   -2.5875    0.0000 C   0  0  0  0  0  0  0  0  0  0  0  0
  2  4  1  0  0  0  0
  3  2  2  0  0  0  0
  4  6  1  0  0  0  0
  5  3  1  0  0  0  0
  6 13  1  0  0  0  0
  7  1  1  0  0  0  0
  8  1  1  0  0  0  0
  9  2  1  0  0  0  0
 10  9  1  0  0  0  0
 11  1  1  0  0  0  0
 12  5  1  0  0  0  0
 13 23  2  0  0  0  0
 14  6  2  0  0  0  0
 15  7  1  0  0  0  0
 16  8  1  0  0  0  0
 17 27  2  0  0  0  0
 18  8  2  0  0  0  0
 19  7  2  0  0  0  0
 20 11  1  0  0  0  0
 21 11  2  0  0  0  0
 22 20  2  0  0  0  0
 23 21  1  0  0  0  0
 24 12  1  0  0  0  0
 25 12  2  0  0  0  0
 26 24  2  0  0  0  0
 27 25  1  0  0  0  0
 28 17  1  0  0  0  0
 29 28  2  0  0  0  0
 30 28  1  0  0  0  0
 31 30  2  0  0  0  0
 32 29  1  0  0  0  0
 33 31  1  0  0  0  0
 16 15  1  0  0  0  0
 22 13  1  0  0  0  0
 10  5  2  0  0  0  0
 26 17  1  0  0  0  0
 33 32  2  0  0  0  0
M  END
> <IDNUMBER>
F0327-0336

> <Chemical_Name>
N-(4-{[1,1'-biphenyl]-4-yl}-1,3-thiazol-2-yl)-4-(2,5-dioxopyrrolidin-1-yl)benzamide

> <CAS>
392246-35-4

> <PriceCoeff>
1.00

> <MW>
453.51

> <Description>
solid

> <FSP3>
0.08

> <clogP>
4.01

> <TPSA>
107.61

> <Acceptor>
4

> <Donor>
1

> <RotBonds>
5

> <HAC>
33

> <Collection>
General

$$$$
F1536-0042
  -ISIS-  06222321142D

 27 29  0  0  0  0  0  0  0  0999 V2000
   12.1917   -9.1542    0.0000 C   0  0  0  0  0  0  0  0  0  0  0  0
    1.3292   -9.0750    0.0000 N   0  3  0  0  0  0  0  0  0  0  0  0
    7.6042   -7.0417    0.0000 C   0  0  0  0  0  0  0  0  0  0  0  0
   13.7542   -9.6667    0.0000 C   0  0  0  0  0  0  0  0  0  0  0  0
    6.0417   -7.5500    0.0000 C   0  0  0  0  0  0  0  0  0  0  0  0
    8.9500   -8.0167    0.0000 O   0  0  0  0  0  0  0  0  0  0  0  0
   11.8500   -7.5500    0.0000 C   0  0  0  0  0  0  0  0  0  0  0  0
   10.2792   -7.0417    0.0000 C   0  0  0  0  0  0  0  0  0  0  0  0
   14.1000  -11.2792    0.0000 N   0  0  3  0  0  0  0  0  0  0  0  0
    5.7042   -9.1542    0.0000 C   0  0  0  0  0  0  0  0  0  0  0  0
    2.9125   -8.5625    0.0000 C   0  0  0  0  0  0  0  0  0  0  0  0
   10.9542  -10.2625    0.0000 C   0  0  0  0  0  0  0  0  0  0  0  0
    4.1417   -9.6667    0.0000 C   0  0  0  0  0  0  0  0  0  0  0  0
    8.1167   -5.4792    0.0000 C   0  0  0  0  0  0  0  0  0  0  0  0
    9.7500  -11.3750    0.0000 N   0  0  0  0  0  0  0  0  0  0  0  0
    9.7750   -5.4792    0.0000 C   0  0  0  0  0  0  0  0  0  0  0  0
    4.8250   -6.4417    0.0000 C   0  0  0  0  0  0  0  0  0  0  0  0
    0.1125   -7.9667    0.0000 O   0  5  0  0  0  0  0  0  0  0  0  0
    1.0000  -10.6792    0.0000 O   0  0  0  0  0  0  0  0  0  0  0  0
   14.9667   -8.5625    0.0000 O   0  0  0  0  0  0  0  0  0  0  0  0
    3.2625   -6.9542    0.0000 C   0  0  0  0  0  0  0  0  0  0  0  0
    6.9292  -10.2542    0.0000 Cl  0  0  0  0  0  0  0  0  0  0  0  0
   15.6667  -11.7792    0.0000 C   0  0  0  0  0  0  0  0  0  0  0  0
   12.8750  -12.3750    0.0000 C   0  0  0  0  0  0  0  0  0  0  0  0
   13.2167  -13.9875    0.0000 C   0  0  0  0  0  0  0  0  0  0  0  0
   16.0000  -13.3875    0.0000 C   0  0  0  0  0  0  0  0  0  0  0  0
   14.7792  -14.5000    0.0000 C   0  0  0  0  0  0  0  0  0  0  0  0
  2 11  1  0  0  0  0
  3  6  1  0  0  0  0
  4  1  1  0  0  0  0
  5  3  1  0  0  0  0
  6  8  1  0  0  0  0
  7  1  2  0  0  0  0
  8  7  1  0  0  0  0
  9  4  1  0  0  0  0
 10  5  1  0  0  0  0
 11 21  2  0  0  0  0
 12  1  1  0  0  0  0
 13 10  2  0  0  0  0
 14 16  1  0  0  0  0
 15 12  3  0  0  0  0
 16  8  2  0  0  0  0
 17  5  2  0  0  0  0
 18  2  1  0  0  0  0
 19  2  2  0  0  0  0
 20  4  2  0  0  0  0
 21 17  1  0  0  0  0
 22 10  1  0  0  0  0
 23  9  1  0  0  0  0
 24  9  1  0  0  0  0
 25 24  1  0  0  0  0
 26 23  1  0  0  0  0
 27 25  1  0  0  0  0
  3 14  2  0  0  0  0
 27 26  1  0  0  0  0
 13 11  1  0  0  0  0
M  CHG  2   2   1  18  -1
M  END
> <IDNUMBER>
F1536-0042

> <Chemical_Name>
(2E)-3-[5-(2-chloro-4-nitrophenyl)furan-2-yl]-2-[(E)-piperidine-1-carbonyl]prop-2-enenitrile

> <CAS>
630090-35-6

> <PriceCoeff>
1.00

> <MW>
385.80

> <Description>
solid

> <FSP3>
0.26

> <clogP>
4.07

> <TPSA>
100.38

> <Acceptor>
5

> <Donor>
0

> <RotBonds>
5

> <HAC>
27

> <Collection>
General

$$$$
F1365-0330
  -ISIS-  06222321442D

 32 35  0  0  0  0  0  0  0  0999 V2000
   -1.1625    2.3833    0.0000 C   0  0  0  0  0  0  0  0  0  0  0  0
   -0.3375    2.3750    0.0000 N   0  0  0  0  0  0  0  0  0  0  0  0
    2.5542    1.6500    0.0000 N   0  0  3  0  0  0  0  0  0  0  0  0
   -1.6458    1.7208    0.0000 N   0  0  3  0  0  0  0  0  0  0  0  0
   -1.6458    3.0500    0.0000 S   0  0  0  0  0  0  0  0  0  0  0  0
   -2.4333    2.7958    0.0000 C   0  0  0  0  0  0  0  0  0  0  0  0
   -2.4333    1.9708    0.0000 C   0  0  0  0  0  0  0  0  0  0  0  0
    0.0750    3.0875    0.0000 C   0  0  0  0  0  0  0  0  0  0  0  0
    2.1292    2.3708    0.0000 C   0  0  0  0  0  0  0  0  0  0  0  0
    3.3667    1.5333    0.0000 C   0  0  0  0  0  0  0  0  0  0  0  0
    2.1750    0.9125    0.0000 C   0  0  0  0  0  0  0  0  0  0  0  0
   -4.5833    3.2125    0.0000 C   0  0  0  0  0  0  0  0  0  0  0  0
   -3.1458    3.2083    0.0000 C   0  0  0  0  0  0  0  0  0  0  0  0
   -3.8583    2.7958    0.0000 C   0  0  0  0  0  0  0  0  0  0  0  0
    1.3125    2.3750    0.0000 C   0  0  0  0  0  0  0  0  0  0  0  0
    0.9000    3.0875    0.0000 C   0  0  0  0  0  0  0  0  0  0  0  0
   -3.1458    1.5583    0.0000 C   0  0  0  0  0  0  0  0  0  0  0  0
   -0.3375    3.8000    0.0000 O   0  0  0  0  0  0  0  0  0  0  0  0
    3.5042    0.7125    0.0000 C   0  0  0  0  0  0  0  0  0  0  0  0
    2.7792    0.3250    0.0000 C   0  0  0  0  0  0  0  0  0  0  0  0
    3.9500    2.1083    0.0000 O   0  0  0  0  0  0  0  0  0  0  0  0
    1.3667    0.7833    0.0000 O   0  0  0  0  0  0  0  0  0  0  0  0
   -3.8583    1.9708    0.0000 C   0  0  0  0  0  0  0  0  0  0  0  0
   -5.2875    2.8000    0.0000 O   0  0  0  0  0  0  0  0  0  0  0  0
   -1.9458    0.3208    0.0000 C   0  0  0  0  0  0  0  0  0  0  0  0
   -1.3958    0.9333    0.0000 C   0  0  0  0  0  0  0  0  0  0  0  0
   -2.7500    0.4875    0.0000 C   0  0  0  0  0  0  0  0  0  0  0  0
   -4.5708    4.0292    0.0000 O   0  0  0  0  0  0  0  0  0  0  0  0
    2.5542    3.0833    0.0000 C   0  0  0  0  0  0  0  0  0  0  0  0
    1.3167    3.8083    0.0000 C   0  0  0  0  0  0  0  0  0  0  0  0
    2.1417    3.8000    0.0000 C   0  0  0  0  0  0  0  0  0  0  0  0
   -5.2875    4.4417    0.0000 C   0  0  0  0  0  0  0  0  0  0  0  0
  2  1  2  0  0  0  0
  3  9  1  0  0  0  0
  4  1  1  0  0  0  0
  5  1  1  0  0  0  0
  6  5  1  0  0  0  0
  7  4  1  0  0  0  0
  8  2  1  0  0  0  0
  9 15  1  0  0  0  0
 10  3  1  0  0  0  0
 11  3  1  0  0  0  0
 12 14  1  0  0  0  0
 13  6  1  0  0  0  0
 14 13  2  0  0  0  0
 15 16  2  0  0  0  0
 16  8  1  0  0  0  0
 17  7  1  0  0  0  0
 18  8  2  0  0  0  0
 19 10  1  0  0  0  0
 20 11  1  0  0  0  0
 21 10  2  0  0  0  0
 22 11  2  0  0  0  0
 23 17  2  0  0  0  0
 24 12  2  0  0  0  0
 25 26  1  0  0  0  0
 26  4  1  0  0  0  0
 27 25  2  0  0  0  0
 28 12  1  0  0  0  0
 29 31  1  0  0  0  0
 30 16  1  0  0  0  0
 31 30  2  0  0  0  0
 32 28  1  0  0  0  0
  7  6  2  0  0  0  0
 23 14  1  0  0  0  0
  9 29  2  0  0  0  0
 19 20  1  0  0  0  0
M  END
> <IDNUMBER>
F1365-0330

> <Chemical_Name>
methyl (2Z)-2-{[3-(2,5-dioxopyrrolidin-1-yl)benzoyl]imino}-3-(prop-2-en-1-yl)-2,3-dihydro-1,3-benzothiazole-6-carboxylate

> <CAS>
941976-63-2

> <PriceCoeff>
1.00

> <MW>
449.48

> <Description>
solid

> <FSP3>
0.17

> <clogP>
3.69

> <TPSA>
121.65

> <Acceptor>
5

> <Donor>
0

> <RotBonds>
7

> <HAC>
32

> <Collection>
General

$$$$
F1190-0643
  -ISIS-  06222321452D

 22 23  0  0  0  0  0  0  0  0999 V2000
    2.8917   -4.2167    0.0000 C   0  0  0  0  0  0  0  0  0  0  0  0
    3.6042   -4.6292    0.0000 C   0  0  0  0  0  0  0  0  0  0  0  0
    4.3167   -4.2167    0.0000 C   0  0  0  0  0  0  0  0  0  0  0  0
    7.1792   -4.2250    0.0000 C   0  0  0  0  0  0  0  0  0  0  0  0
    5.0417   -4.6292    0.0000 C   0  0  0  0  0  0  0  0  0  0  0  0
    2.8917   -3.3875    0.0000 C   0  0  0  0  0  0  0  0  0  0  0  0
    2.1792   -4.6250    0.0000 C   0  0  0  0  0  0  0  0  0  0  0  0
    7.1792   -3.4000    0.0000 C   0  0  0  0  0  0  0  0  0  0  0  0
    6.4667   -4.6375    0.0000 C   0  0  0  0  0  0  0  0  0  0  0  0
    3.6042   -5.4542    0.0000 O   0  0  0  0  0  0  0  0  0  0  0  0
    5.7542   -4.2167    0.0000 C   0  0  0  0  0  0  0  0  0  0  0  0
    2.1792   -2.9750    0.0000 C   0  0  0  0  0  0  0  0  0  0  0  0
    6.4542   -2.9875    0.0000 C   0  0  0  0  0  0  0  0  0  0  0  0
    1.4667   -4.2125    0.0000 C   0  0  0  0  0  0  0  0  0  0  0  0
    5.7417   -3.4000    0.0000 C   0  0  0  0  0  0  0  0  0  0  0  0
    1.4667   -3.3875    0.0000 C   0  0  0  0  0  0  0  0  0  0  0  0
    7.8917   -4.6375    0.0000 O   0  0  0  0  0  0  0  0  0  0  0  0
    3.6042   -2.9667    0.0000 O   0  0  0  0  0  0  0  0  0  0  0  0
    0.7542   -4.6250    0.0000 Cl  0  0  0  0  0  0  0  0  0  0  0  0
    7.8917   -2.9875    0.0000 O   0  0  0  0  0  0  0  0  0  0  0  0
    8.6042   -4.2250    0.0000 C   0  0  0  0  0  0  0  0  0  0  0  0
    7.8917   -2.1625    0.0000 C   0  0  0  0  0  0  0  0  0  0  0  0
  2  1  1  0  0  0  0
  3  2  1  0  0  0  0
  4  9  1  0  0  0  0
  5  3  2  0  0  0  0
  6  1  1  0  0  0  0
  7  1  2  0  0  0  0
  8 13  1  0  0  0  0
  9 11  2  0  0  0  0
 10  2  2  0  0  0  0
 11  5  1  0  0  0  0
 12  6  2  0  0  0  0
 13 15  2  0  0  0  0
 14  7  1  0  0  0  0
 15 11  1  0  0  0  0
 16 14  2  0  0  0  0
 17  4  1  0  0  0  0
 18  6  1  0  0  0  0
 19 14  1  0  0  0  0
 20  8  1  0  0  0  0
 21 17  1  0  0  0  0
 22 20  1  0  0  0  0
 12 16  1  0  0  0  0
  4  8  2  0  0  0  0
M  END
> <IDNUMBER>
F1190-0643

> <Chemical_Name>
(2E)-1-(5-chloro-2-hydroxyphenyl)-3-(3,4-dimethoxyphenyl)prop-2-en-1-one

> <CAS>
104236-76-2

> <PriceCoeff>
1.00

> <MW>
318.75

> <Description>
solid

> <FSP3>
0.12

> <clogP>
4.46

> <TPSA>
55.76

> <Acceptor>
4

> <Donor>
1

> <RotBonds>
5

> <HAC>
22

> <Collection>
General

$$$$
F2659-0054
  -ISIS-  06222321152D

 29 32  0  0  0  0  0  0  0  0999 V2000
   -5.4083    4.9542    0.0000 N   0  0  3  0  0  0  0  0  0  0  0  0
   -0.8583    5.1375    0.0000 N   0  3  0  0  0  0  0  0  0  0  0  0
   -2.8500    4.0875    0.0000 C   0  0  0  0  0  0  0  0  0  0  0  0
   -4.7333    5.3042    0.0000 C   0  0  3  0  0  0  0  0  0  0  0  0
   -6.0625    5.2917    0.0000 C   0  0  0  0  0  0  0  0  0  0  0  0
   -3.5083    3.7375    0.0000 C   0  0  0  0  0  0  0  0  0  0  0  0
   -2.8208    4.8375    0.0000 C   0  0  0  0  0  0  0  0  0  0  0  0
   -1.5250    4.7792    0.0000 C   0  0  0  0  0  0  0  0  0  0  0  0
   -4.6958    6.0542    0.0000 C   0  0  0  0  0  0  0  0  0  0  0  0
   -2.1625    5.1875    0.0000 C   0  0  0  0  0  0  0  0  0  0  0  0
   -5.5083    4.2292    0.0000 C   0  0  0  0  0  0  0  0  0  0  0  0
   -4.1458    4.1417    0.0000 N   0  0  0  0  0  0  0  0  0  0  0  0
   -4.1000    4.8917    0.0000 C   0  0  0  0  0  0  0  0  0  0  0  0
   -2.2208    3.6875    0.0000 C   0  0  0  0  0  0  0  0  0  0  0  0
   -0.2208    4.7292    0.0000 O   0  5  0  0  0  0  0  0  0  0  0  0
   -5.3333    6.4542    0.0000 O   0  0  0  0  0  0  0  0  0  0  0  0
   -0.8208    5.8917    0.0000 O   0  0  0  0  0  0  0  0  0  0  0  0
   -6.5917    4.7667    0.0000 C   0  0  0  0  0  0  0  0  0  0  0  0
   -4.1125    6.5292    0.0000 C   0  0  0  0  0  0  0  0  0  0  0  0
   -1.5500    4.0292    0.0000 C   0  0  0  0  0  0  0  0  0  0  0  0
   -3.5458    2.9833    0.0000 O   0  0  0  0  0  0  0  0  0  0  0  0
   -6.2542    4.1042    0.0000 C   0  0  0  0  0  0  0  0  0  0  0  0
   -5.1333    7.1875    0.0000 C   0  0  0  0  0  0  0  0  0  0  0  0
   -4.3958    7.2292    0.0000 C   0  0  0  0  0  0  0  0  0  0  0  0
   -3.4583    5.2417    0.0000 Cl  0  0  0  0  0  0  0  0  0  0  0  0
   -6.2542    6.0125    0.0000 C   0  0  0  0  0  0  0  0  0  0  0  0
   -7.3042    4.9542    0.0000 C   0  0  0  0  0  0  0  0  0  0  0  0
   -6.9667    6.2125    0.0000 C   0  0  0  0  0  0  0  0  0  0  0  0
   -7.5042    5.6792    0.0000 C   0  0  0  0  0  0  0  0  0  0  0  0
  2  8  1  0  0  0  0
  3  6  1  0  0  0  0
  4  1  1  0  0  0  0
  5  1  1  0  0  0  0
  6 12  1  0  0  0  0
  7  3  1  0  0  0  0
  8 20  2  0  0  0  0
  9  4  1  0  0  0  0
 10  7  2  0  0  0  0
 11  1  1  0  0  0  0
 12 13  1  0  0  0  0
 13  4  1  0  0  0  0
 14  3  2  0  0  0  0
 15  2  1  0  0  0  0
 16  9  1  0  0  0  0
 17  2  2  0  0  0  0
 18  5  2  0  0  0  0
 19  9  2  0  0  0  0
 20 14  1  0  0  0  0
 21  6  2  0  0  0  0
 22 11  1  0  0  0  0
 23 16  1  0  0  0  0
 24 19  1  0  0  0  0
 25  7  1  0  0  0  0
 26  5  1  0  0  0  0
 27 18  1  0  0  0  0
 28 26  2  0  0  0  0
 29 28  1  0  0  0  0
 18 22  1  0  0  0  0
 29 27  2  0  0  0  0
 24 23  2  0  0  0  0
 10  8  1  0  0  0  0
M  CHG  2   2   1  15  -1
M  END
> <IDNUMBER>
F2659-0054

> <Chemical_Name>
2-chloro-N-[2-(2,3-dihydro-1H-indol-1-yl)-2-(furan-2-yl)ethyl]-4-nitrobenzamide

> <CAS>
898458-20-3

> <PriceCoeff>
1.00

> <MW>
411.84

> <Description>
solid

> <FSP3>
0.19

> <clogP>
4.21

> <TPSA>
88.62

> <Acceptor>
5

> <Donor>
2

> <RotBonds>
6

> <HAC>
29

> <Collection>
General

$$$$
F0466-0049
  -ISIS-  06222321452D

 32 36  0  0  0  0  0  0  0  0999 V2000
   -4.8833    2.5708    0.0000 N   0  0  3  0  0  0  0  0  0  0  0  0
   -1.6458    1.6125    0.0000 C   0  0  0  0  0  0  0  0  0  0  0  0
   -1.3625    1.1333    0.0000 C   0  0  0  0  0  0  0  0  0  0  0  0
   -0.8208    2.0708    0.0000 C   0  0  0  0  0  0  0  0  0  0  0  0
   -1.3625    2.0708    0.0000 C   0  0  0  0  0  0  0  0  0  0  0  0
   -0.8208    1.1125    0.0000 C   0  0  0  0  0  0  0  0  0  0  0  0
   -0.5458    1.6125    0.0000 C   0  0  0  0  0  0  0  0  0  0  0  0
   -4.6208    2.0958    0.0000 C   0  0  0  0  0  0  0  0  0  0  0  0
   -5.4458    2.6500    0.0000 C   0  0  0  0  0  0  0  0  0  0  0  0
   -4.6333    3.0500    0.0000 C   0  0  0  0  0  0  0  0  0  0  0  0
   -3.2833    1.5958    0.0000 C   0  0  0  0  0  0  0  0  0  0  0  0
   -3.0000    2.0708    0.0000 N   0  0  0  0  0  0  0  0  0  0  0  0
   -4.0833    2.0958    0.0000 C   0  0  0  0  0  0  0  0  0  0  0  0
   -3.8208    1.6125    0.0000 C   0  0  0  0  0  0  0  0  0  0  0  0
   -1.6458    2.5500    0.0000 C   0  0  0  0  0  0  0  0  0  0  0  0
   -2.1833    1.6125    0.0000 C   0  0  0  0  0  0  0  0  0  0  0  0
   -1.6208    0.6500    0.0000 O   0  0  0  0  0  0  0  0  0  0  0  0
   -2.4625    2.0708    0.0000 C   0  0  0  0  0  0  0  0  0  0  0  0
   -0.5208    2.5500    0.0000 O   0  0  0  0  0  0  0  0  0  0  0  0
   -3.0000    1.1125    0.0000 O   0  0  0  0  0  0  0  0  0  0  0  0
   -5.5000    3.1958    0.0000 C   0  0  0  0  0  0  0  0  0  0  0  0
   -5.0208    3.4458    0.0000 C   0  0  0  0  0  0  0  0  0  0  0  0
   -5.8458    2.2458    0.0000 O   0  0  0  0  0  0  0  0  0  0  0  0
   -4.0833    3.1208    0.0000 O   0  0  0  0  0  0  0  0  0  0  0  0
   -2.1833    2.5708    0.0000 C   0  0  0  0  0  0  0  0  0  0  0  0
   -4.9083    1.6125    0.0000 C   0  0  0  0  0  0  0  0  0  0  0  0
   -0.5458    0.6333    0.0000 C   0  0  0  0  0  0  0  0  0  0  0  0
    0.0042    1.6125    0.0000 C   0  0  0  0  0  0  0  0  0  0  0  0
   -4.0833    1.1333    0.0000 C   0  0  0  0  0  0  0  0  0  0  0  0
   -4.6458    1.1333    0.0000 C   0  0  0  0  0  0  0  0  0  0  0  0
    0.3000    1.1333    0.0000 C   0  0  0  0  0  0  0  0  0  0  0  0
    0.0042    0.6333    0.0000 C   0  0  0  0  0  0  0  0  0  0  0  0
  2 16  1  0  0  0  0
  3  2  1  0  0  0  0
  4  5  1  0  0  0  0
  5 15  1  0  0  0  0
  6  3  1  0  0  0  0
  7  4  1  0  0  0  0
  8  1  1  0  0  0  0
  9  1  1  0  0  0  0
 10  1  1  0  0  0  0
 11 14  1  0  0  0  0
 12 11  1  0  0  0  0
 13  8  2  0  0  0  0
 14 13  1  0  0  0  0
 15 25  2  0  0  0  0
 16 18  2  0  0  0  0
 17  3  2  0  0  0  0
 18 12  1  0  0  0  0
 19  4  2  0  0  0  0
 20 11  2  0  0  0  0
 21  9  1  0  0  0  0
 22 10  1  0  0  0  0
 23  9  2  0  0  0  0
 24 10  2  0  0  0  0
 25 18  1  0  0  0  0
 26  8  1  0  0  0  0
 27  6  1  0  0  0  0
 28  7  1  0  0  0  0
 29 30  1  0  0  0  0
 30 26  2  0  0  0  0
 31 28  2  0  0  0  0
 32 27  2  0  0  0  0
 21 22  1  0  0  0  0
 29 14  2  0  0  0  0
  5  2  2  0  0  0  0
  7  6  2  0  0  0  0
 31 32  1  0  0  0  0
M  END
> <IDNUMBER>
F0466-0049

> <Chemical_Name>
N-(9,10-dioxo-9,10-dihydroanthracen-2-yl)-3-(2,5-dioxopyrrolidin-1-yl)benzamide

> <CAS>
476322-98-2

> <PriceCoeff>
1.00

> <MW>
424.40

> <Description>
solid

> <FSP3>
0.08

> <clogP>
2.55

> <TPSA>
100.62

> <Acceptor>
5

> <Donor>
1

> <RotBonds>
3

> <HAC>
32

> <Collection>
General

$$$$
F1740-0134
  -ISIS-  06222321452D

 29 31  0  0  0  0  0  0  0  0999 V2000
    6.7917    0.1375    0.0000 N   0  0  3  0  0  0  0  0  0  0  0  0
    7.0500   -0.6500    0.0000 C   0  0  0  0  0  0  0  0  0  0  0  0
   11.0292   -3.4667    0.0000 S   0  0  3  0  0  0  0  0  0  0  0  0
    7.4625    0.6208    0.0000 C   0  0  0  0  0  0  0  0  0  0  0  0
    7.8750   -0.6500    0.0000 C   0  0  0  0  0  0  0  0  0  0  0  0
    8.1292    0.1375    0.0000 C   0  0  3  0  0  0  0  0  0  0  0  0
    6.2042    0.1333    0.0000 C   0  0  0  0  0  0  0  0  0  0  0  0
   10.9875   -2.6417    0.0000 C   0  0  0  0  0  0  0  0  0  0  0  0
    8.9167    0.3958    0.0000 S   0  0  0  0  0  0  0  0  0  0  0  0
   11.0667   -4.2917    0.0000 O   0  0  0  0  0  0  0  0  0  0  0  0
   11.8542   -3.4292    0.0000 O   0  0  0  0  0  0  0  0  0  0  0  0
   10.3125    0.0958    0.0000 C   0  0  0  0  0  0  0  0  0  0  0  0
    6.5625   -1.3167    0.0000 O   0  0  0  0  0  0  0  0  0  0  0  0
    7.4542    1.4458    0.0000 O   0  0  0  0  0  0  0  0  0  0  0  0
   10.9250   -0.4625    0.0000 N   0  0  0  0  0  0  0  0  0  0  0  0
   10.2042   -3.5000    0.0000 N   0  0  0  0  0  0  0  0  0  0  0  0
   10.4792    0.8958    0.0000 O   0  0  0  0  0  0  0  0  0  0  0  0
   10.2542   -2.2625    0.0000 C   0  0  0  0  0  0  0  0  0  0  0  0
   11.6875   -2.1917    0.0000 C   0  0  0  0  0  0  0  0  0  0  0  0
    5.8042   -0.5917    0.0000 C   0  0  0  0  0  0  0  0  0  0  0  0
    5.7750    0.8375    0.0000 C   0  0  0  0  0  0  0  0  0  0  0  0
    9.5250   -0.1542    0.0000 C   0  0  0  0  0  0  0  0  0  0  0  0
   10.9167   -0.9917    0.0000 C   0  0  0  0  0  0  0  0  0  0  0  0
   10.2167   -1.4375    0.0000 C   0  0  0  0  0  0  0  0  0  0  0  0
   11.6417   -1.3667    0.0000 C   0  0  0  0  0  0  0  0  0  0  0  0
    4.9875   -0.6167    0.0000 C   0  0  0  0  0  0  0  0  0  0  0  0
    4.9500    0.8208    0.0000 C   0  0  0  0  0  0  0  0  0  0  0  0
    4.5542    0.0958    0.0000 C   0  0  0  0  0  0  0  0  0  0  0  0
    3.7292    0.0708    0.0000 C   0  0  0  0  0  0  0  0  0  0  0  0
  2  1  1  0  0  0  0
  3  8  1  0  0  0  0
  4  1  1  0  0  0  0
  5  2  1  0  0  0  0
  6  4  1  0  0  0  0
  7  1  1  0  0  0  0
  8 19  1  0  0  0  0
  9  6  1  0  0  0  0
 10  3  2  0  0  0  0
 11  3  2  0  0  0  0
 12 22  1  0  0  0  0
 13  2  2  0  0  0  0
 14  4  2  0  0  0  0
 15 12  1  0  0  0  0
 16  3  1  0  0  0  0
 17 12  2  0  0  0  0
 18 24  1  0  0  0  0
 19 25  2  0  0  0  0
 20  7  1  0  0  0  0
 21  7  2  0  0  0  0
 22  9  1  0  0  0  0
 23 15  1  0  0  0  0
 24 23  2  0  0  0  0
 25 23  1  0  0  0  0
 26 20  2  0  0  0  0
 27 21  1  0  0  0  0
 28 27  2  0  0  0  0
 29 28  1  0  0  0  0
  5  6  1  0  0  0  0
 28 26  1  0  0  0  0
 18  8  2  0  0  0  0
M  END
> <IDNUMBER>
F1740-0134

> <Chemical_Name>
2-{[1-(4-methylphenyl)-2,5-dioxopyrrolidin-3-yl]sulfanyl}-N-(4-sulfamoylphenyl)acetamide

> <CAS>
831177-22-1

> <PriceCoeff>
1.00

> <MW>
433.50

> <Description>
solid

> <FSP3>
0.21

> <clogP>
1.21

> <TPSA>
160.32

> <Acceptor>
5

> <Donor>
2

> <RotBonds>
6

> <HAC>
29

> <Collection>
General

$$$$
F0327-0370
  -ISIS-  06222321142D

 32 36  0  0  0  0  0  0  0  0999 V2000
    0.4667    0.3458    0.0000 C   0  0  0  0  0  0  0  0  0  0  0  0
    0.8375    0.9833    0.0000 C   0  0  0  0  0  0  0  0  0  0  0  0
    4.9500   -0.9542    0.0000 N   0  0  3  0  0  0  0  0  0  0  0  0
   -0.2958    0.3458    0.0000 C   0  0  0  0  0  0  0  0  0  0  0  0
   -0.6625    0.9833    0.0000 C   0  0  0  0  0  0  0  0  0  0  0  0
    0.4542    1.6208    0.0000 C   0  0  0  0  0  0  0  0  0  0  0  0
   -0.2958    1.6208    0.0000 C   0  0  0  0  0  0  0  0  0  0  0  0
    0.8292   -0.3167    0.0000 C   0  0  0  0  0  0  0  0  0  0  0  0
    5.3042   -1.6000    0.0000 C   0  0  0  0  0  0  0  0  0  0  0  0
    5.4500   -0.4000    0.0000 C   0  0  0  0  0  0  0  0  0  0  0  0
    1.5875   -0.3167    0.0000 N   0  0  0  0  0  0  0  0  0  0  0  0
    1.9500   -0.9542    0.0000 C   0  0  0  0  0  0  0  0  0  0  0  0
    4.1875   -0.9542    0.0000 C   0  0  0  0  0  0  0  0  0  0  0  0
    2.7042   -0.9542    0.0000 C   0  0  0  0  0  0  0  0  0  0  0  0
    1.5792    0.9833    0.0000 O   0  0  0  0  0  0  0  0  0  0  0  0
   -1.4625    0.9833    0.0000 O   0  0  0  0  0  0  0  0  0  0  0  0
    1.5875   -1.6000    0.0000 O   0  0  0  0  0  0  0  0  0  0  0  0
    6.0292   -1.4375    0.0000 C   0  0  0  0  0  0  0  0  0  0  0  0
    6.1292   -0.7000    0.0000 C   0  0  0  0  0  0  0  0  0  0  0  0
    5.0292   -2.2792    0.0000 O   0  0  0  0  0  0  0  0  0  0  0  0
    5.2875    0.3625    0.0000 O   0  0  0  0  0  0  0  0  0  0  0  0
    3.8292   -0.3167    0.0000 C   0  0  0  0  0  0  0  0  0  0  0  0
    3.8292   -1.6000    0.0000 C   0  0  0  0  0  0  0  0  0  0  0  0
    3.0667   -1.6000    0.0000 C   0  0  0  0  0  0  0  0  0  0  0  0
    3.0667   -0.3167    0.0000 C   0  0  0  0  0  0  0  0  0  0  0  0
   -0.6708   -0.3167    0.0000 C   0  0  0  0  0  0  0  0  0  0  0  0
    0.4667   -0.9542    0.0000 C   0  0  0  0  0  0  0  0  0  0  0  0
    0.8375    2.2708    0.0000 C   0  0  0  0  0  0  0  0  0  0  0  0
   -0.6625    2.2708    0.0000 C   0  0  0  0  0  0  0  0  0  0  0  0
   -0.2958   -0.9542    0.0000 C   0  0  0  0  0  0  0  0  0  0  0  0
   -0.2958    2.9000    0.0000 C   0  0  0  0  0  0  0  0  0  0  0  0
    0.4542    2.9000    0.0000 C   0  0  0  0  0  0  0  0  0  0  0  0
  2  1  1  0  0  0  0
  3 13  1  0  0  0  0
  4  1  1  0  0  0  0
  5  4  1  0  0  0  0
  6  2  1  0  0  0  0
  7  5  1  0  0  0  0
  8  1  2  0  0  0  0
  9  3  1  0  0  0  0
 10  3  1  0  0  0  0
 11  8  1  0  0  0  0
 12 11  1  0  0  0  0
 13 22  1  0  0  0  0
 14 12  1  0  0  0  0
 15  2  2  0  0  0  0
 16  5  2  0  0  0  0
 17 12  2  0  0  0  0
 18  9  1  0  0  0  0
 19 10  1  0  0  0  0
 20  9  2  0  0  0  0
 21 10  2  0  0  0  0
 22 25  2  0  0  0  0
 23 24  1  0  0  0  0
 24 14  2  0  0  0  0
 25 14  1  0  0  0  0
 26  4  2  0  0  0  0
 27  8  1  0  0  0  0
 28  6  1  0  0  0  0
 29  7  1  0  0  0  0
 30 27  2  0  0  0  0
 31 29  2  0  0  0  0
 32 28  2  0  0  0  0
 26 30  1  0  0  0  0
  6  7  2  0  0  0  0
 32 31  1  0  0  0  0
 23 13  2  0  0  0  0
 19 18  1  0  0  0  0
M  END
> <IDNUMBER>
F0327-0370

> <Chemical_Name>
N-(9,10-dioxo-9,10-dihydroanthracen-1-yl)-4-(2,5-dioxopyrrolidin-1-yl)benzamide

> <CAS>
392246-41-2

> <PriceCoeff>
1.00

> <MW>
424.40

> <Description>
solid

> <FSP3>
0.08

> <clogP>
2.55

> <TPSA>
100.62

> <Acceptor>
5

> <Donor>
1

> <RotBonds>
3

> <HAC>
32

> <Collection>
General

$$$$
F3139-0228
  -ISIS-  06222321462D

 19 20  0  0  0  0  0  0  0  0999 V2000
   -1.3208   -2.4792    0.0000 C   0  0  0  0  0  0  0  0  0  0  0  0
   -2.0375   -1.2375    0.0000 C   0  0  0  0  0  0  0  0  0  0  0  0
   -0.6083   -2.8917    0.0000 C   0  0  0  0  0  0  0  0  0  0  0  0
   -1.3208   -1.6500    0.0000 C   0  0  0  0  0  0  0  0  0  0  0  0
    0.1042   -2.4750    0.0000 C   0  0  0  0  0  0  0  0  0  0  0  0
   -2.7500   -1.6500    0.0000 C   0  0  0  0  0  0  0  0  0  0  0  0
    0.8250   -2.8875    0.0000 C   0  0  0  0  0  0  0  0  0  0  0  0
   -2.0375   -2.8917    0.0000 C   0  0  0  0  0  0  0  0  0  0  0  0
   -2.7500   -2.4792    0.0000 C   0  0  0  0  0  0  0  0  0  0  0  0
    0.8250   -3.7125    0.0000 O   0  0  0  0  0  0  0  0  0  0  0  0
    1.5375   -2.4750    0.0000 C   0  0  0  0  0  0  0  0  0  0  0  0
   -2.0375   -0.4167    0.0000 Cl  0  0  0  0  0  0  0  0  0  0  0  0
   -0.6083   -1.2292    0.0000 O   0  0  0  0  0  0  0  0  0  0  0  0
   -3.4625   -2.8917    0.0000 Cl  0  0  0  0  0  0  0  0  0  0  0  0
    2.2542   -2.8875    0.0000 C   0  0  0  0  0  0  0  0  0  0  0  0
    1.5292   -1.6542    0.0000 C   0  0  0  0  0  0  0  0  0  0  0  0
    2.2417   -1.2375    0.0000 C   0  0  0  0  0  0  0  0  0  0  0  0
    2.9667   -2.4750    0.0000 C   0  0  0  0  0  0  0  0  0  0  0  0
    2.9667   -1.6500    0.0000 C   0  0  0  0  0  0  0  0  0  0  0  0
  2  4  2  0  0  0  0
  3  1  1  0  0  0  0
  4  1  1  0  0  0  0
  5  3  2  0  0  0  0
  6  9  2  0  0  0  0
  7  5  1  0  0  0  0
  8  1  2  0  0  0  0
  9  8  1  0  0  0  0
 10  7  2  0  0  0  0
 11  7  1  0  0  0  0
 12  2  1  0  0  0  0
 13  4  1  0  0  0  0
 14  9  1  0  0  0  0
 15 11  2  0  0  0  0
 16 11  1  0  0  0  0
 17 16  2  0  0  0  0
 18 15  1  0  0  0  0
 19 17  1  0  0  0  0
  2  6  1  0  0  0  0
 18 19  2  0  0  0  0
M  END
> <IDNUMBER>
F3139-0228

> <Chemical_Name>
(2E)-3-(3,5-dichloro-2-hydroxyphenyl)-1-phenylprop-2-en-1-one

> <CAS>
55210-71-4

> <PriceCoeff>
1.00

> <MW>
293.14

> <Description>
solid

> <FSP3>
0.00

> <clogP>
4.45

> <TPSA>
37.30

> <Acceptor>
2

> <Donor>
1

> <RotBonds>
3

> <HAC>
19

> <Collection>
General

$$$$
F1065-0536
  -ISIS-  06222321142D

 26 28  0  0  0  0  0  0  0  0999 V2000
   -0.2458    0.1833    0.0000 N   0  0  3  0  0  0  0  0  0  0  0  0
    0.2167    1.1458    0.0000 C   0  0  0  0  0  0  0  0  0  0  0  0
    0.5375   -0.5292    0.0000 C   0  0  0  0  0  0  0  0  0  0  0  0
    1.4667   -0.0000    0.0000 C   0  0  3  0  0  0  0  0  0  0  0  0
   -4.3958   -0.6292    0.0000 N   0  3  0  0  0  0  0  0  0  0  0  0
    1.2500    1.0458    0.0000 C   0  0  0  0  0  0  0  0  0  0  0  0
    4.2167   -0.5292    0.0000 C   0  0  0  0  0  0  0  0  0  0  0  0
    2.4000   -0.5292    0.0000 S   0  0  0  0  0  0  0  0  0  0  0  0
    3.3042    0.0208    0.0000 C   0  0  0  0  0  0  0  0  0  0  0  0
    4.2167   -1.5792    0.0000 C   0  0  0  0  0  0  0  0  0  0  0  0
   -1.2708   -0.0042    0.0000 C   0  0  0  0  0  0  0  0  0  0  0  0
   -3.3625   -0.4292    0.0000 C   0  0  0  0  0  0  0  0  0  0  0  0
   -5.1625    0.1208    0.0000 O   0  5  0  0  0  0  0  0  0  0  0  0
   -0.1333    2.1208    0.0000 O   0  0  0  0  0  0  0  0  0  0  0  0
   -4.7958   -1.6000    0.0000 O   0  0  0  0  0  0  0  0  0  0  0  0
    0.4500   -1.5792    0.0000 O   0  0  0  0  0  0  0  0  0  0  0  0
    5.1375   -2.1167    0.0000 O   0  0  0  0  0  0  0  0  0  0  0  0
   -1.9833    0.7833    0.0000 C   0  0  0  0  0  0  0  0  0  0  0  0
   -1.5958   -1.0292    0.0000 C   0  0  0  0  0  0  0  0  0  0  0  0
   -2.6500   -1.2375    0.0000 C   0  0  0  0  0  0  0  0  0  0  0  0
   -3.0208    0.5833    0.0000 C   0  0  0  0  0  0  0  0  0  0  0  0
    3.3042   -2.1167    0.0000 O   0  0  0  0  0  0  0  0  0  0  0  0
    5.1375    0.0208    0.0000 C   0  0  0  0  0  0  0  0  0  0  0  0
    3.3042    1.0833    0.0000 C   0  0  0  0  0  0  0  0  0  0  0  0
    5.1375    1.0833    0.0000 C   0  0  0  0  0  0  0  0  0  0  0  0
    4.2167    1.6125    0.0000 C   0  0  0  0  0  0  0  0  0  0  0  0
  2  1  1  0  0  0  0
  3  1  1  0  0  0  0
  4  3  1  0  0  0  0
  5 12  1  0  0  0  0
  6  2  1  0  0  0  0
  7  9  2  0  0  0  0
  8  4  1  0  0  0  0
  9  8  1  0  0  0  0
 10  7  1  0  0  0  0
 11  1  1  0  0  0  0
 12 20  1  0  0  0  0
 13  5  1  0  0  0  0
 14  2  2  0  0  0  0
 15  5  2  0  0  0  0
 16  3  2  0  0  0  0
 17 10  2  0  0  0  0
 18 11  2  0  0  0  0
 19 11  1  0  0  0  0
 20 19  2  0  0  0  0
 21 18  1  0  0  0  0
 22 10  1  0  0  0  0
 23  7  1  0  0  0  0
 24  9  1  0  0  0  0
 25 26  1  0  0  0  0
 26 24  2  0  0  0  0
  6  4  1  0  0  0  0
 21 12  2  0  0  0  0
 25 23  2  0  0  0  0
M  CHG  2   5   1  13  -1
M  END
> <IDNUMBER>
F1065-0536

> <Chemical_Name>
2-{[1-(4-nitrophenyl)-2,5-dioxopyrrolidin-3-yl]sulfanyl}benzoic acid

> <CAS>
303033-66-1

> <PriceCoeff>
1.00

> <MW>
372.35

> <Description>
solid

> <FSP3>
0.12

> <clogP>
2.41

> <TPSA>
143.12

> <Acceptor>
6

> <Donor>
0

> <RotBonds>
5

> <HAC>
26

> <Collection>
General

$$$$
F3215-0274
  -ISIS-  06222321462D

 27 29  0  0  0  0  0  0  0  0999 V2000
    3.5042   -0.8542    0.0000 C   0  0  0  0  0  0  0  0  0  0  0  0
    2.4542   -1.6667    0.0000 C   0  0  0  0  0  0  0  0  0  0  0  0
    2.6917   -0.8792    0.0000 C   0  0  0  0  0  0  0  0  0  0  0  0
    2.1625   -3.2792    0.0000 N   0  3  0  0  0  0  0  0  0  0  0  0
    3.9667   -0.1667    0.0000 C   0  0  0  0  0  0  0  0  0  0  0  0
    1.6792   -1.9417    0.0000 C   0  0  0  0  0  0  0  0  0  0  0  0
    3.7792   -1.6375    0.0000 C   0  0  0  0  0  0  0  0  0  0  0  0
    1.5292   -2.7500    0.0000 C   0  0  0  0  0  0  0  0  0  0  0  0
    3.1292   -2.1375    0.0000 O   0  0  0  0  0  0  0  0  0  0  0  0
    4.7917   -0.2292    0.0000 N   0  0  0  0  0  0  0  0  0  0  0  0
    0.7542   -3.0250    0.0000 C   0  0  0  0  0  0  0  0  0  0  0  0
    1.0542   -1.4042    0.0000 C   0  0  0  0  0  0  0  0  0  0  0  0
    5.2542    0.4500    0.0000 C   0  0  0  0  0  0  0  0  0  0  0  0
    2.0042   -4.0917    0.0000 O   0  5  0  0  0  0  0  0  0  0  0  0
    2.9417   -3.0042    0.0000 O   0  0  0  0  0  0  0  0  0  0  0  0
    3.6125    0.5708    0.0000 O   0  0  0  0  0  0  0  0  0  0  0  0
    6.0750    0.3875    0.0000 C   0  0  0  0  0  0  0  0  0  0  0  0
    0.1292   -2.4875    0.0000 C   0  0  0  0  0  0  0  0  0  0  0  0
    0.2792   -1.6750    0.0000 C   0  0  0  0  0  0  0  0  0  0  0  0
   -0.5875   -2.8917    0.0000 Cl  0  0  0  0  0  0  0  0  0  0  0  0
    4.5750   -1.8667    0.0000 C   0  0  0  0  0  0  0  0  0  0  0  0
    6.4292   -0.3542    0.0000 O   0  0  0  0  0  0  0  0  0  0  0  0
    4.8917    1.1958    0.0000 C   0  0  0  0  0  0  0  0  0  0  0  0
    6.5417    1.0708    0.0000 C   0  0  0  0  0  0  0  0  0  0  0  0
    7.2542   -0.4167    0.0000 C   0  0  0  0  0  0  0  0  0  0  0  0
    5.3542    1.8708    0.0000 C   0  0  0  0  0  0  0  0  0  0  0  0
    6.1792    1.8125    0.0000 C   0  0  0  0  0  0  0  0  0  0  0  0
  2  3  2  0  0  0  0
  3  1  1  0  0  0  0
  4  8  1  0  0  0  0
  5  1  1  0  0  0  0
  6  2  1  0  0  0  0
  7  1  2  0  0  0  0
  8  6  1  0  0  0  0
  9  7  1  0  0  0  0
 10  5  1  0  0  0  0
 11  8  2  0  0  0  0
 12  6  2  0  0  0  0
 13 10  1  0  0  0  0
 14  4  1  0  0  0  0
 15  4  2  0  0  0  0
 16  5  2  0  0  0  0
 17 13  2  0  0  0  0
 18 19  2  0  0  0  0
 19 12  1  0  0  0  0
 20 18  1  0  0  0  0
 21  7  1  0  0  0  0
 22 17  1  0  0  0  0
 23 13  1  0  0  0  0
 24 17  1  0  0  0  0
 25 22  1  0  0  0  0
 26 23  2  0  0  0  0
 27 26  1  0  0  0  0
  2  9  1  0  0  0  0
 27 24  2  0  0  0  0
 11 18  1  0  0  0  0
M  CHG  2   4   1  14  -1
M  END
> <IDNUMBER>
F3215-0274

> <Chemical_Name>
5-(4-chloro-2-nitrophenyl)-N-(2-methoxyphenyl)-2-methylfuran-3-carboxamide

> <CAS>
876871-41-9

> <PriceCoeff>
1.00

> <MW>
386.79

> <Description>
solid

> <FSP3>
0.11

> <clogP>
4.06

> <TPSA>
94.61

> <Acceptor>
5

> <Donor>
1

> <RotBonds>
5

> <HAC>
27

> <Collection>
General

$$$$
F3139-0551
  -ISIS-  06222321152D

 24 25  0  0  0  0  0  0  0  0999 V2000
    2.7292   -2.7917    0.0000 C   0  0  0  0  0  0  0  0  0  0  0  0
    7.0167   -1.9917    0.0000 C   0  0  0  0  0  0  0  0  0  0  0  0
    7.0167   -2.7917    0.0000 C   0  0  0  0  0  0  0  0  0  0  0  0
    6.3000   -1.5542    0.0000 C   0  0  0  0  0  0  0  0  0  0  0  0
    3.4500   -3.2042    0.0000 C   0  0  0  0  0  0  0  0  0  0  0  0
    4.1625   -2.7917    0.0000 C   0  0  0  0  0  0  0  0  0  0  0  0
    4.8792   -3.2042    0.0000 C   0  0  0  0  0  0  0  0  0  0  0  0
    2.7292   -1.9667    0.0000 C   0  0  0  0  0  0  0  0  0  0  0  0
    5.5917   -2.7917    0.0000 C   0  0  0  0  0  0  0  0  0  0  0  0
    2.0167   -3.2042    0.0000 C   0  0  0  0  0  0  0  0  0  0  0  0
    6.3042   -3.2042    0.0000 C   0  0  0  0  0  0  0  0  0  0  0  0
    5.5875   -1.9667    0.0000 C   0  0  0  0  0  0  0  0  0  0  0  0
    3.4500   -4.0292    0.0000 O   0  0  0  0  0  0  0  0  0  0  0  0
    2.0167   -1.5542    0.0000 C   0  0  0  0  0  0  0  0  0  0  0  0
    1.3042   -2.7917    0.0000 C   0  0  0  0  0  0  0  0  0  0  0  0
    7.7375   -1.5917    0.0000 O   0  0  0  0  0  0  0  0  0  0  0  0
    7.7292   -3.2042    0.0000 O   0  0  0  0  0  0  0  0  0  0  0  0
    6.3042   -0.7292    0.0000 O   0  0  0  0  0  0  0  0  0  0  0  0
    1.3042   -1.9667    0.0000 C   0  0  0  0  0  0  0  0  0  0  0  0
    3.4417   -1.5500    0.0000 O   0  0  0  0  0  0  0  0  0  0  0  0
    0.5875   -3.2042    0.0000 Cl  0  0  0  0  0  0  0  0  0  0  0  0
    7.7417   -0.7667    0.0000 C   0  0  0  0  0  0  0  0  0  0  0  0
    8.4417   -2.7917    0.0000 C   0  0  0  0  0  0  0  0  0  0  0  0
    5.5917   -0.3125    0.0000 C   0  0  0  0  0  0  0  0  0  0  0  0
  2  4  1  0  0  0  0
  3 11  1  0  0  0  0
  4 12  2  0  0  0  0
  5  1  1  0  0  0  0
  6  5  1  0  0  0  0
  7  6  2  0  0  0  0
  8  1  1  0  0  0  0
  9  7  1  0  0  0  0
 10  1  2  0  0  0  0
 11  9  2  0  0  0  0
 12  9  1  0  0  0  0
 13  5  2  0  0  0  0
 14  8  2  0  0  0  0
 15 10  1  0  0  0  0
 16  2  1  0  0  0  0
 17  3  1  0  0  0  0
 18  4  1  0  0  0  0
 19 15  2  0  0  0  0
 20  8  1  0  0  0  0
 21 15  1  0  0  0  0
 22 16  1  0  0  0  0
 23 17  1  0  0  0  0
 24 18  1  0  0  0  0
 14 19  1  0  0  0  0
  3  2  2  0  0  0  0
M  END
> <IDNUMBER>
F3139-0551

> <Chemical_Name>
(2E)-1-(5-chloro-2-hydroxyphenyl)-3-(3,4,5-trimethoxyphenyl)prop-2-en-1-one

> <CAS>
1255189-04-8

> <PriceCoeff>
1.00

> <MW>
348.78

> <Description>
solid

> <FSP3>
0.17

> <clogP>
4.10

> <TPSA>
64.99

> <Acceptor>
5

> <Donor>
1

> <RotBonds>
6

> <HAC>
24

> <Collection>
General

$$$$
F1365-1896
  -ISIS-  06222321452D

 33 36  0  0  0  0  0  0  0  0999 V2000
   -1.1625    2.3833    0.0000 C   0  0  0  0  0  0  0  0  0  0  0  0
   -0.3375    2.3750    0.0000 N   0  0  0  0  0  0  0  0  0  0  0  0
   -1.6458    1.7208    0.0000 N   0  0  3  0  0  0  0  0  0  0  0  0
    3.3792    3.0708    0.0000 N   0  0  3  0  0  0  0  0  0  0  0  0
   -1.6458    3.0500    0.0000 S   0  0  0  0  0  0  0  0  0  0  0  0
   -2.4333    2.7958    0.0000 C   0  0  0  0  0  0  0  0  0  0  0  0
   -2.4333    1.9708    0.0000 C   0  0  0  0  0  0  0  0  0  0  0  0
    0.0750    3.0875    0.0000 C   0  0  0  0  0  0  0  0  0  0  0  0
    3.8500    3.7583    0.0000 C   0  0  0  0  0  0  0  0  0  0  0  0
    3.8917    2.4250    0.0000 C   0  0  0  0  0  0  0  0  0  0  0  0
   -4.5833    3.2125    0.0000 C   0  0  0  0  0  0  0  0  0  0  0  0
   -3.1458    3.2083    0.0000 C   0  0  0  0  0  0  0  0  0  0  0  0
   -3.8583    2.7958    0.0000 C   0  0  0  0  0  0  0  0  0  0  0  0
    2.5542    3.0833    0.0000 C   0  0  0  0  0  0  0  0  0  0  0  0
   -1.9458    0.3208    0.0000 C   0  0  0  0  0  0  0  0  0  0  0  0
   -3.1458    1.5583    0.0000 C   0  0  0  0  0  0  0  0  0  0  0  0
   -2.4958   -0.2917    0.0000 C   0  0  0  0  0  0  0  0  0  0  0  0
    0.9000    3.0875    0.0000 C   0  0  0  0  0  0  0  0  0  0  0  0
   -0.3375    3.8000    0.0000 O   0  0  0  0  0  0  0  0  0  0  0  0
    4.6417    3.5250    0.0000 C   0  0  0  0  0  0  0  0  0  0  0  0
    4.6667    2.7083    0.0000 C   0  0  0  0  0  0  0  0  0  0  0  0
    3.5667    4.5417    0.0000 O   0  0  0  0  0  0  0  0  0  0  0  0
    3.6667    1.6333    0.0000 O   0  0  0  0  0  0  0  0  0  0  0  0
   -3.8583    1.9708    0.0000 C   0  0  0  0  0  0  0  0  0  0  0  0
   -5.2958    2.8000    0.0000 O   0  0  0  0  0  0  0  0  0  0  0  0
   -1.3958    0.9333    0.0000 C   0  0  0  0  0  0  0  0  0  0  0  0
    2.1417    3.8000    0.0000 C   0  0  0  0  0  0  0  0  0  0  0  0
    2.1292    2.3708    0.0000 C   0  0  0  0  0  0  0  0  0  0  0  0
    1.3125    2.3833    0.0000 C   0  0  0  0  0  0  0  0  0  0  0  0
    1.3250    3.8083    0.0000 C   0  0  0  0  0  0  0  0  0  0  0  0
   -4.5708    4.0292    0.0000 O   0  0  0  0  0  0  0  0  0  0  0  0
   -5.2958    4.4542    0.0000 C   0  0  0  0  0  0  0  0  0  0  0  0
   -5.2875    5.2750    0.0000 C   0  0  0  0  0  0  0  0  0  0  0  0
  2  1  2  0  0  0  0
  3  1  1  0  0  0  0
  4 14  1  0  0  0  0
  5  1  1  0  0  0  0
  6  5  1  0  0  0  0
  7  3  1  0  0  0  0
  8  2  1  0  0  0  0
  9  4  1  0  0  0  0
 10  4  1  0  0  0  0
 11 13  1  0  0  0  0
 12  6  1  0  0  0  0
 13 12  2  0  0  0  0
 14 27  1  0  0  0  0
 15 26  1  0  0  0  0
 16  7  1  0  0  0  0
 17 15  3  0  0  0  0
 18  8  1  0  0  0  0
 19  8  2  0  0  0  0
 20  9  1  0  0  0  0
 21 10  1  0  0  0  0
 22  9  2  0  0  0  0
 23 10  2  0  0  0  0
 24 16  2  0  0  0  0
 25 11  2  0  0  0  0
 26  3  1  0  0  0  0
 27 30  2  0  0  0  0
 28 29  1  0  0  0  0
 29 18  2  0  0  0  0
 30 18  1  0  0  0  0
 31 11  1  0  0  0  0
 32 31  1  0  0  0  0
 33 32  1  0  0  0  0
  7  6  2  0  0  0  0
 24 13  1  0  0  0  0
 14 28  2  0  0  0  0
 20 21  1  0  0  0  0
M  END
> <IDNUMBER>
F1365-1896

> <Chemical_Name>
ethyl (2Z)-2-{[4-(2,5-dioxopyrrolidin-1-yl)benzoyl]imino}-3-(prop-2-yn-1-yl)-2,3-dihydro-1,3-benzothiazole-6-carboxylate

> <CAS>
865180-91-2

> <PriceCoeff>
1.00

> <MW>
461.49

> <Description>
solid

> <FSP3>
0.21

> <clogP>
3.55

> <TPSA>
121.65

> <Acceptor>
5

> <Donor>
0

> <RotBonds>
8

> <HAC>
33

> <Collection>
General

$$$$
F2524-0807
  -ISIS-  06222321442D

 32 36  0  0  0  0  0  0  0  0999 V2000
   -0.5458    2.1875    0.0000 C   0  0  0  0  0  0  0  0  0  0  0  0
    0.2417    2.4458    0.0000 N   0  0  0  0  0  0  0  0  0  0  0  0
   -0.8000    1.4000    0.0000 N   0  0  3  0  0  0  0  0  0  0  0  0
    3.2042    2.6458    0.0000 N   0  0  3  0  0  0  0  0  0  0  0  0
   -1.2125    2.6708    0.0000 S   0  0  0  0  0  0  0  0  0  0  0  0
   -1.6250    1.4000    0.0000 C   0  0  0  0  0  0  0  0  0  0  0  0
   -1.8750    2.1833    0.0000 C   0  0  0  0  0  0  0  0  0  0  0  0
    0.4167    3.2458    0.0000 C   0  0  0  0  0  0  0  0  0  0  0  0
    2.5917    3.2083    0.0000 C   0  0  0  0  0  0  0  0  0  0  0  0
   -2.1708    0.7958    0.0000 C   0  0  0  0  0  0  0  0  0  0  0  0
    4.0125    2.7833    0.0000 C   0  0  0  0  0  0  0  0  0  0  0  0
    3.0750    1.8333    0.0000 C   0  0  0  0  0  0  0  0  0  0  0  0
   -2.6833    2.3583    0.0000 C   0  0  0  0  0  0  0  0  0  0  0  0
   -2.9708    0.9625    0.0000 C   0  0  0  0  0  0  0  0  0  0  0  0
   -3.2250    1.7458    0.0000 C   0  0  0  0  0  0  0  0  0  0  0  0
    1.8042    2.9583    0.0000 C   0  0  0  0  0  0  0  0  0  0  0  0
    1.1917    3.5000    0.0000 C   0  0  0  0  0  0  0  0  0  0  0  0
   -3.5208    0.3500    0.0000 O   0  0  0  0  0  0  0  0  0  0  0  0
   -0.1958    3.8000    0.0000 O   0  0  0  0  0  0  0  0  0  0  0  0
   -4.0333    1.9208    0.0000 O   0  0  0  0  0  0  0  0  0  0  0  0
    4.4000    2.0583    0.0000 C   0  0  0  0  0  0  0  0  0  0  0  0
    3.8292    1.4708    0.0000 C   0  0  0  0  0  0  0  0  0  0  0  0
    4.3875    3.5208    0.0000 O   0  0  0  0  0  0  0  0  0  0  0  0
    2.3417    1.4583    0.0000 O   0  0  0  0  0  0  0  0  0  0  0  0
   -0.3208    0.7375    0.0000 C   0  0  0  0  0  0  0  0  0  0  0  0
    0.4917    0.8208    0.0000 C   0  0  0  0  0  0  0  0  0  0  0  0
    0.8292    1.5833    0.0000 C   0  0  0  0  0  0  0  0  0  0  0  0
    2.7667    4.0000    0.0000 C   0  0  0  0  0  0  0  0  0  0  0  0
    1.3667    4.3042    0.0000 C   0  0  0  0  0  0  0  0  0  0  0  0
    2.1542    4.5542    0.0000 C   0  0  0  0  0  0  0  0  0  0  0  0
   -4.3333    0.5208    0.0000 C   0  0  0  0  0  0  0  0  0  0  0  0
   -4.5833    1.3083    0.0000 C   0  0  0  0  0  0  0  0  0  0  0  0
  2  1  2  0  0  0  0
  3  1  1  0  0  0  0
  4  9  1  0  0  0  0
  5  1  1  0  0  0  0
  6  3  1  0  0  0  0
  7  5  1  0  0  0  0
  8  2  1  0  0  0  0
  9 16  1  0  0  0  0
 10  6  1  0  0  0  0
 11  4  1  0  0  0  0
 12  4  1  0  0  0  0
 13  7  1  0  0  0  0
 14 10  2  0  0  0  0
 15 13  2  0  0  0  0
 16 17  2  0  0  0  0
 17  8  1  0  0  0  0
 18 14  1  0  0  0  0
 19  8  2  0  0  0  0
 20 15  1  0  0  0  0
 21 11  1  0  0  0  0
 22 12  1  0  0  0  0
 23 11  2  0  0  0  0
 24 12  2  0  0  0  0
 25  3  1  0  0  0  0
 26 25  1  0  0  0  0
 27 26  2  0  0  0  0
 28 30  1  0  0  0  0
 29 17  1  0  0  0  0
 30 29  2  0  0  0  0
 31 18  1  0  0  0  0
 32 20  1  0  0  0  0
  6  7  2  0  0  0  0
 14 15  1  0  0  0  0
 32 31  1  0  0  0  0
 28  9  2  0  0  0  0
 21 22  1  0  0  0  0
M  END
> <IDNUMBER>
F2524-0807

> <Chemical_Name>
3-(2,5-dioxopyrrolidin-1-yl)-N-[(5Z)-6-(prop-2-en-1-yl)-10,13-dioxa-4-thia-6-azatricyclo[7.4.0.0^{3,7}]trideca-1,3(7),8-trien-5-ylidene]benzamide

> <CAS>
905659-67-8

> <PriceCoeff>
1.00

> <MW>
449.48

> <Description>
solid

> <FSP3>
0.22

> <clogP>
3.65

> <TPSA>
113.81

> <Acceptor>
5

> <Donor>
0

> <RotBonds>
5

> <HAC>
32

> <Collection>
General

$$$$
F0709-0469
  -ISIS-  06222321442D

 27 29  0  0  0  0  0  0  0  0999 V2000
    3.7917   -3.9167    0.0000 C   0  0  0  0  0  0  0  0  0  0  0  0
   -0.2375   -3.2750    0.0000 N   0  3  0  0  0  0  0  0  0  0  0  0
   -0.3708   -4.0917    0.0000 C   0  0  0  0  0  0  0  0  0  0  0  0
    1.0542   -4.3417    0.0000 C   0  0  0  0  0  0  0  0  0  0  0  0
    0.2667   -4.6292    0.0000 C   0  0  0  0  0  0  0  0  0  0  0  0
    4.5875   -4.1125    0.0000 C   0  0  0  0  0  0  0  0  0  0  0  0
    1.7292   -4.8250    0.0000 O   0  0  0  0  0  0  0  0  0  0  0  0
    3.2167   -4.5167    0.0000 C   0  0  0  0  0  0  0  0  0  0  0  0
    2.4042   -4.3167    0.0000 C   0  0  0  0  0  0  0  0  0  0  0  0
    4.8167   -4.9125    0.0000 N   0  0  3  0  0  0  0  0  0  0  0  0
    3.5542   -3.1167    0.0000 C   0  0  0  0  0  0  0  0  0  0  0  0
    1.3042   -3.5792    0.0000 C   0  0  0  0  0  0  0  0  0  0  0  0
    3.3292   -2.3167    0.0000 N   0  0  0  0  0  0  0  0  0  0  0  0
   -1.1333   -4.3917    0.0000 C   0  0  0  0  0  0  0  0  0  0  0  0
    2.1292   -3.5792    0.0000 C   0  0  0  0  0  0  0  0  0  0  0  0
    0.1292   -5.4542    0.0000 C   0  0  0  0  0  0  0  0  0  0  0  0
    0.5292   -2.9792    0.0000 O   0  5  0  0  0  0  0  0  0  0  0  0
   -0.8750   -2.7542    0.0000 O   0  0  0  0  0  0  0  0  0  0  0  0
    5.1542   -3.5250    0.0000 O   0  0  0  0  0  0  0  0  0  0  0  0
   -1.2708   -5.2125    0.0000 C   0  0  0  0  0  0  0  0  0  0  0  0
   -0.6500   -5.7417    0.0000 C   0  0  0  0  0  0  0  0  0  0  0  0
   -2.0708   -5.5292    0.0000 Cl  0  0  0  0  0  0  0  0  0  0  0  0
    4.2500   -5.4917    0.0000 C   0  0  0  0  0  0  0  0  0  0  0  0
    5.6167   -5.1042    0.0000 C   0  0  0  0  0  0  0  0  0  0  0  0
    5.8500   -5.8875    0.0000 C   0  0  0  0  0  0  0  0  0  0  0  0
    4.4792   -6.2792    0.0000 C   0  0  0  0  0  0  0  0  0  0  0  0
    5.2792   -6.4917    0.0000 C   0  0  0  0  0  0  0  0  0  0  0  0
  2  3  1  0  0  0  0
  3  5  2  0  0  0  0
  4  7  1  0  0  0  0
  5  4  1  0  0  0  0
  6  1  1  0  0  0  0
  7  9  1  0  0  0  0
  8  1  2  0  0  0  0
  9  8  1  0  0  0  0
 10  6  1  0  0  0  0
 11  1  1  0  0  0  0
 12 15  1  0  0  0  0
 13 11  3  0  0  0  0
 14  3  1  0  0  0  0
 15  9  2  0  0  0  0
 16  5  1  0  0  0  0
 17  2  1  0  0  0  0
 18  2  2  0  0  0  0
 19  6  2  0  0  0  0
 20 21  1  0  0  0  0
 21 16  2  0  0  0  0
 22 20  1  0  0  0  0
 23 10  1  0  0  0  0
 24 10  1  0  0  0  0
 25 24  1  0  0  0  0
 26 23  1  0  0  0  0
 27 25  1  0  0  0  0
  4 12  2  0  0  0  0
 26 27  1  0  0  0  0
 14 20  2  0  0  0  0
M  CHG  2   2   1  17  -1
M  END
> <IDNUMBER>
F0709-0469

> <Chemical_Name>
(2E)-3-[5-(4-chloro-2-nitrophenyl)furan-2-yl]-2-[(E)-piperidine-1-carbonyl]prop-2-enenitrile

> <CAS>
476616-33-8

> <PriceCoeff>
1.00

> <MW>
385.80

> <Description>
solid

> <FSP3>
0.26

> <clogP>
4.32

> <TPSA>
100.38

> <Acceptor>
5

> <Donor>
0

> <RotBonds>
5

> <HAC>
27

> <Collection>
General

$$$$
F3188-0038
  -ISIS-  06222321442D

 26 28  0  0  0  0  0  0  0  0999 V2000
    0.6875   -1.4917    0.0000 N   0  0  3  0  0  0  0  0  0  0  0  0
    1.1667   -0.8167    0.0000 C   0  0  0  0  0  0  0  0  0  0  0  0
    1.1792   -2.1542    0.0000 C   0  0  0  0  0  0  0  0  0  0  0  0
    1.9625   -1.8917    0.0000 C   0  0  3  0  0  0  0  0  0  0  0  0
    1.9542   -1.0667    0.0000 C   0  0  0  0  0  0  0  0  0  0  0  0
    4.0500   -2.5250    0.0000 C   0  0  0  0  0  0  0  0  0  0  0  0
    2.6292   -2.3792    0.0000 S   0  0  0  0  0  0  0  0  0  0  0  0
    3.3792   -2.0417    0.0000 C   0  0  0  0  0  0  0  0  0  0  0  0
    3.9667   -3.3417    0.0000 C   0  0  0  0  0  0  0  0  0  0  0  0
   -0.1333   -1.4917    0.0000 C   0  0  0  0  0  0  0  0  0  0  0  0
    0.9125   -0.0292    0.0000 O   0  0  0  0  0  0  0  0  0  0  0  0
    0.9250   -2.9417    0.0000 O   0  0  0  0  0  0  0  0  0  0  0  0
    4.6292   -3.8292    0.0000 O   0  0  0  0  0  0  0  0  0  0  0  0
   -0.5458   -2.2125    0.0000 C   0  0  0  0  0  0  0  0  0  0  0  0
   -0.5500   -0.7792    0.0000 C   0  0  0  0  0  0  0  0  0  0  0  0
    3.2125   -3.6792    0.0000 O   0  0  0  0  0  0  0  0  0  0  0  0
   -1.3625   -2.2167    0.0000 C   0  0  0  0  0  0  0  0  0  0  0  0
   -1.3750   -0.7875    0.0000 C   0  0  0  0  0  0  0  0  0  0  0  0
   -1.7833   -1.5042    0.0000 C   0  0  0  0  0  0  0  0  0  0  0  0
    4.8000   -2.1875    0.0000 C   0  0  0  0  0  0  0  0  0  0  0  0
    3.4625   -1.2250    0.0000 C   0  0  0  0  0  0  0  0  0  0  0  0
   -2.6083   -1.5042    0.0000 C   0  0  0  0  0  0  0  0  0  0  0  0
    2.5417   -3.2000    0.0000 C   0  0  0  0  0  0  0  0  0  0  0  0
    4.8792   -1.3625    0.0000 C   0  0  0  0  0  0  0  0  0  0  0  0
    4.2042   -0.8792    0.0000 C   0  0  0  0  0  0  0  0  0  0  0  0
   -3.0250   -0.7917    0.0000 C   0  0  0  0  0  0  0  0  0  0  0  0
  2  1  1  0  0  0  0
  3  1  1  0  0  0  0
  4  3  1  0  0  0  0
  5  2  1  0  0  0  0
  6  8  2  0  0  0  0
  7  4  1  0  0  0  0
  8  7  1  0  0  0  0
  9  6  1  0  0  0  0
 10  1  1  0  0  0  0
 11  2  2  0  0  0  0
 12  3  2  0  0  0  0
 13  9  2  0  0  0  0
 14 10  1  0  0  0  0
 15 10  2  0  0  0  0
 16  9  1  0  0  0  0
 17 14  2  0  0  0  0
 18 15  1  0  0  0  0
 19 18  2  0  0  0  0
 20  6  1  0  0  0  0
 21  8  1  0  0  0  0
 22 19  1  0  0  0  0
 23 16  1  0  0  0  0
 24 25  1  0  0  0  0
 25 21  2  0  0  0  0
 26 22  1  0  0  0  0
  5  4  1  0  0  0  0
 17 19  1  0  0  0  0
 24 20  2  0  0  0  0
M  END
> <IDNUMBER>
F3188-0038

> <Chemical_Name>
methyl 2-{[1-(4-ethylphenyl)-2,5-dioxopyrrolidin-3-yl]sulfanyl}benzoate

> <CAS>
857494-40-7

> <PriceCoeff>
1.00

> <MW>
369.43

> <Description>
solid

> <FSP3>
0.25

> <clogP>
4.06

> <TPSA>
88.98

> <Acceptor>
4

> <Donor>
0

> <RotBonds>
6

> <HAC>
26

> <Collection>
General

$$$$
F6660-0797
  -ISIS-  06222321472D

 21 23  0  0  0  0  0  0  0  0999 V2000
    3.8500   -3.6917    0.0000 C   0  0  0  0  0  0  0  0  0  0  0  0
    2.4292   -3.6917    0.0000 C   0  0  0  0  0  0  0  0  0  0  0  0
    3.1375   -4.1042    0.0000 N   0  0  0  0  0  0  0  0  0  0  0  0
    2.4292   -2.8667    0.0000 C   0  0  0  0  0  0  0  0  0  0  0  0
    3.8500   -2.8667    0.0000 N   0  0  0  0  0  0  0  0  0  0  0  0
    3.1375   -2.4542    0.0000 C   0  0  3  0  0  0  0  0  0  0  0  0
    1.7125   -4.1042    0.0000 C   0  0  0  0  0  0  0  0  0  0  0  0
    4.5667   -4.1042    0.0000 S   0  0  0  0  0  0  0  0  0  0  0  0
    3.1375   -1.6292    0.0000 C   0  0  0  0  0  0  0  0  0  0  0  0
    1.7167   -4.9292    0.0000 C   0  0  0  0  0  0  0  0  0  0  0  0
    1.0000   -3.6917    0.0000 C   0  0  0  0  0  0  0  0  0  0  0  0
    3.8542   -1.2167    0.0000 C   0  0  0  0  0  0  0  0  0  0  0  0
    2.4292   -1.2167    0.0000 C   0  0  0  0  0  0  0  0  0  0  0  0
    3.1417    0.0208    0.0000 C   0  0  0  0  0  0  0  0  0  0  0  0
    2.4250   -0.3917    0.0000 C   0  0  0  0  0  0  0  0  0  0  0  0
    3.8542   -0.3917    0.0000 C   0  0  0  0  0  0  0  0  0  0  0  0
    0.2875   -4.1042    0.0000 C   0  0  0  0  0  0  0  0  0  0  0  0
    1.0042   -5.3417    0.0000 C   0  0  0  0  0  0  0  0  0  0  0  0
    0.2875   -4.9292    0.0000 C   0  0  0  0  0  0  0  0  0  0  0  0
    3.1375    0.8458    0.0000 Br  0  0  0  0  0  0  0  0  0  0  0  0
   -0.4333   -5.3417    0.0000 C   0  0  0  0  0  0  0  0  0  0  0  0
  2  3  1  0  0  0  0
  3  1  1  0  0  0  0
  4  6  1  0  0  0  0
  5  1  1  0  0  0  0
  6  5  1  0  0  0  0
  7  2  1  0  0  0  0
  8  1  2  0  0  0  0
  9  6  1  0  0  0  0
 10  7  1  0  0  0  0
 11  7  2  0  0  0  0
 12  9  2  0  0  0  0
 13  9  1  0  0  0  0
 14 15  1  0  0  0  0
 15 13  2  0  0  0  0
 16 12  1  0  0  0  0
 17 11  1  0  0  0  0
 18 10  2  0  0  0  0
 19 17  2  0  0  0  0
 20 14  1  0  0  0  0
 21 19  1  0  0  0  0
  2  4  2  0  0  0  0
 16 14  2  0  0  0  0
 18 19  1  0  0  0  0
M  END
> <IDNUMBER>
F6660-0797

> <Chemical_Name>
4-(4-bromophenyl)-6-(4-methylphenyl)-1,2,3,4-tetrahydropyrimidine-2-thione

> <CAS>
2309825-87-2

> <PriceCoeff>
1.00

> <MW>
359.28

> <Description>
solid

> <FSP3>
0.12

> <clogP>
4.35

> <TPSA>
56.15

> <Acceptor>
1

> <Donor>
2

> <RotBonds>
2

> <HAC>
21

> <Collection>
General

> <Reference_compound>
CHEMBL2272930

> <Similarity>
0.9240

$$$$
F3215-0073
  -ISIS-  06222321152D

 29 32  0  0  0  0  0  0  0  0999 V2000
    0.8417    2.3375    0.0000 N   0  0  3  0  0  0  0  0  0  0  0  0
    0.2292    2.8958    0.0000 C   0  0  0  0  0  0  0  0  0  0  0  0
    0.5125    1.5833    0.0000 C   0  0  0  0  0  0  0  0  0  0  0  0
   -0.3083    1.6708    0.0000 C   0  0  0  0  0  0  0  0  0  0  0  0
   -0.4833    2.4750    0.0000 S   0  0  0  0  0  0  0  0  0  0  0  0
   -1.6250   -4.2042    0.0000 N   0  3  0  0  0  0  0  0  0  0  0  0
   -0.6083   -1.0625    0.0000 C   0  0  0  0  0  0  0  0  0  0  0  0
    1.6542    2.5083    0.0000 N   0  0  3  0  0  0  0  0  0  0  0  0
   -0.8625    1.0583    0.0000 C   0  0  0  0  0  0  0  0  0  0  0  0
   -0.8625   -1.8500    0.0000 C   0  0  0  0  0  0  0  0  0  0  0  0
   -1.0958   -0.3917    0.0000 O   0  0  0  0  0  0  0  0  0  0  0  0
   -0.6083    0.2708    0.0000 C   0  0  0  0  0  0  0  0  0  0  0  0
   -1.6708   -2.0167    0.0000 C   0  0  0  0  0  0  0  0  0  0  0  0
   -1.3708   -3.4167    0.0000 C   0  0  0  0  0  0  0  0  0  0  0  0
   -1.9250   -2.8042    0.0000 C   0  0  0  0  0  0  0  0  0  0  0  0
    0.1792   -0.8042    0.0000 C   0  0  0  0  0  0  0  0  0  0  0  0
    0.3167    3.7083    0.0000 S   0  0  0  0  0  0  0  0  0  0  0  0
    0.1792    0.0208    0.0000 C   0  0  0  0  0  0  0  0  0  0  0  0
   -0.3083   -2.4625    0.0000 C   0  0  0  0  0  0  0  0  0  0  0  0
   -2.4333   -4.3750    0.0000 O   0  5  0  0  0  0  0  0  0  0  0  0
    0.9250    0.8708    0.0000 O   0  0  0  0  0  0  0  0  0  0  0  0
   -1.0750   -4.8167    0.0000 O   0  0  0  0  0  0  0  0  0  0  0  0
   -0.5625   -3.2417    0.0000 C   0  0  0  0  0  0  0  0  0  0  0  0
    3.2667    2.8500    0.0000 O   0  0  0  0  0  0  0  0  0  0  0  0
    1.9042    3.2958    0.0000 C   0  0  0  0  0  0  0  0  0  0  0  0
    2.2042    1.8958    0.0000 C   0  0  0  0  0  0  0  0  0  0  0  0
   -2.2208   -1.4042    0.0000 Cl  0  0  0  0  0  0  0  0  0  0  0  0
    2.7167    3.4625    0.0000 C   0  0  0  0  0  0  0  0  0  0  0  0
    3.0125    2.0708    0.0000 C   0  0  0  0  0  0  0  0  0  0  0  0
  2  1  1  0  0  0  0
  3  1  1  0  0  0  0
  4  3  1  0  0  0  0
  5  2  1  0  0  0  0
  6 14  1  0  0  0  0
  7 11  1  0  0  0  0
  8  1  1  0  0  0  0
  9  4  2  0  0  0  0
 10  7  1  0  0  0  0
 11 12  1  0  0  0  0
 12  9  1  0  0  0  0
 13 10  2  0  0  0  0
 14 23  1  0  0  0  0
 15 13  1  0  0  0  0
 16 18  1  0  0  0  0
 17  2  2  0  0  0  0
 18 12  2  0  0  0  0
 19 10  1  0  0  0  0
 20  6  1  0  0  0  0
 21  3  2  0  0  0  0
 22  6  2  0  0  0  0
 23 19  2  0  0  0  0
 24 29  1  0  0  0  0
 25  8  1  0  0  0  0
 26  8  1  0  0  0  0
 27 13  1  0  0  0  0
 28 25  1  0  0  0  0
 29 26  1  0  0  0  0
  4  5  1  0  0  0  0
 28 24  1  0  0  0  0
  7 16  2  0  0  0  0
 15 14  2  0  0  0  0
M  CHG  2   6   1  20  -1
M  END
> <IDNUMBER>
F3215-0073

> <Chemical_Name>
(5E)-5-{[5-(2-chloro-4-nitrophenyl)furan-2-yl]methylidene}-3-(morpholin-4-yl)-2-sulfanylidene-1,3-thiazolidin-4-one

> <CAS>
635295-88-4

> <PriceCoeff>
1.00

> <MW>
451.90

> <Description>
solid

> <FSP3>
0.22

> <clogP>
4.29

> <TPSA>
146.45

> <Acceptor>
6

> <Donor>
1

> <RotBonds>
4

> <HAC>
29

> <Collection>
General

$$$$
F0440-0350
  -ISIS-  06222321452D

 29 32  0  0  0  0  0  0  0  0999 V2000
    2.2042   -0.8667    0.0000 N   0  0  3  0  0  0  0  0  0  0  0  0
    0.1292   -2.0667    0.0000 C   0  0  0  0  0  0  0  0  0  0  0  0
   -0.2625   -2.6500    0.0000 N   0  0  0  0  0  0  0  0  0  0  0  0
   -0.9208   -2.4292    0.0000 C   0  0  0  0  0  0  0  0  0  0  0  0
    0.8292   -2.0667    0.0000 N   0  0  0  0  0  0  0  0  0  0  0  0
    2.0042   -0.2042    0.0000 C   0  0  0  0  0  0  0  0  0  0  0  0
    2.9042   -0.9000    0.0000 C   0  0  0  0  0  0  0  0  0  0  0  0
   -0.2625   -1.5292    0.0000 S   0  0  0  0  0  0  0  0  0  0  0  0
    1.1667   -1.4667    0.0000 C   0  0  0  0  0  0  0  0  0  0  0  0
   -0.9208   -1.7292    0.0000 C   0  0  0  0  0  0  0  0  0  0  0  0
    1.8667   -1.4667    0.0000 C   0  0  0  0  0  0  0  0  0  0  0  0
   -1.5208   -2.8000    0.0000 C   0  0  0  0  0  0  0  0  0  0  0  0
    2.5667    0.1625    0.0000 C   0  0  0  0  0  0  0  0  0  0  0  0
    3.1292   -0.2292    0.0000 C   0  0  0  0  0  0  0  0  0  0  0  0
    1.3500   -0.0000    0.0000 O   0  0  0  0  0  0  0  0  0  0  0  0
    3.3292   -1.4500    0.0000 O   0  0  0  0  0  0  0  0  0  0  0  0
    0.8292   -0.8500    0.0000 O   0  0  0  0  0  0  0  0  0  0  0  0
   -3.3458   -3.8500    0.0000 O   0  0  0  0  0  0  0  0  0  0  0  0
   -1.5208   -3.5000    0.0000 C   0  0  0  0  0  0  0  0  0  0  0  0
   -2.1208   -2.4292    0.0000 C   0  0  0  0  0  0  0  0  0  0  0  0
   -2.7458   -3.5000    0.0000 C   0  0  0  0  0  0  0  0  0  0  0  0
   -2.7458   -2.7667    0.0000 C   0  0  0  0  0  0  0  0  0  0  0  0
   -2.1208   -3.8292    0.0000 C   0  0  0  0  0  0  0  0  0  0  0  0
   -3.3208   -4.5500    0.0000 C   0  0  0  0  0  0  0  0  0  0  0  0
   -3.9208   -4.9000    0.0000 C   0  0  0  0  0  0  0  0  0  0  0  0
   -2.7208   -4.9000    0.0000 C   0  0  0  0  0  0  0  0  0  0  0  0
   -2.7000   -5.5667    0.0000 C   0  0  0  0  0  0  0  0  0  0  0  0
   -3.9208   -5.6000    0.0000 C   0  0  0  0  0  0  0  0  0  0  0  0
   -3.3208   -5.9500    0.0000 C   0  0  0  0  0  0  0  0  0  0  0  0
  2  5  1  0  0  0  0
  3  2  2  0  0  0  0
  4  3  1  0  0  0  0
  5  9  1  0  0  0  0
  6  1  1  0  0  0  0
  7  1  1  0  0  0  0
  8  2  1  0  0  0  0
  9 11  1  0  0  0  0
 10  8  1  0  0  0  0
 11  1  1  0  0  0  0
 12  4  1  0  0  0  0
 13  6  1  0  0  0  0
 14  7  1  0  0  0  0
 15  6  2  0  0  0  0
 16  7  2  0  0  0  0
 17  9  2  0  0  0  0
 18 21  1  0  0  0  0
 19 12  1  0  0  0  0
 20 12  2  0  0  0  0
 21 22  2  0  0  0  0
 22 20  1  0  0  0  0
 23 19  2  0  0  0  0
 24 18  1  0  0  0  0
 25 24  2  0  0  0  0
 26 24  1  0  0  0  0
 27 26  2  0  0  0  0
 28 25  1  0  0  0  0
 29 27  1  0  0  0  0
 14 13  1  0  0  0  0
 10  4  2  0  0  0  0
 21 23  1  0  0  0  0
 29 28  2  0  0  0  0
M  END
> <IDNUMBER>
F0440-0350

> <Chemical_Name>
2-(2,5-dioxopyrrolidin-1-yl)-N-[4-(4-phenoxyphenyl)-1,3-thiazol-2-yl]acetamide

> <CAS>
476308-69-7

> <PriceCoeff>
1.00

> <MW>
407.44

> <Description>
solid

> <FSP3>
0.14

> <clogP>
4.04

> <TPSA>
116.84

> <Acceptor>
5

> <Donor>
1

> <RotBonds>
6

> <HAC>
29

> <Collection>
General

$$$$
F1199-0005
  -ISIS-  06222321452D

 27 29  0  0  0  0  0  0  0  0999 V2000
   -0.2708   -0.0042    0.0000 N   0  0  3  0  0  0  0  0  0  0  0  0
   -0.1833    0.8125    0.0000 C   0  0  0  0  0  0  0  0  0  0  0  0
    0.4875   -0.3417    0.0000 C   0  0  0  0  0  0  0  0  0  0  0  0
   -0.9750   -0.4250    0.0000 C   0  0  0  0  0  0  0  0  0  0  0  0
   -1.6875   -2.4917    0.0000 N   0  3  0  0  0  0  0  0  0  0  0  0
    1.0375    0.2708    0.0000 C   0  0  3  0  0  0  0  0  0  0  0  0
    0.6250    0.9875    0.0000 C   0  0  0  0  0  0  0  0  0  0  0  0
   -0.9750   -1.2542    0.0000 C   0  0  0  0  0  0  0  0  0  0  0  0
    3.0167   -0.6417    0.0000 C   0  0  0  0  0  0  0  0  0  0  0  0
    1.8542    0.1875    0.0000 S   0  0  0  0  0  0  0  0  0  0  0  0
   -1.6958   -1.6667    0.0000 C   0  0  0  0  0  0  0  0  0  0  0  0
    2.1917   -0.5625    0.0000 C   0  0  0  0  0  0  0  0  0  0  0  0
    3.4917    0.0333    0.0000 C   0  0  0  0  0  0  0  0  0  0  0  0
   -2.4083   -2.9042    0.0000 O   0  5  0  0  0  0  0  0  0  0  0  0
   -1.6958   -0.0125    0.0000 C   0  0  0  0  0  0  0  0  0  0  0  0
   -0.7958    1.3625    0.0000 O   0  0  0  0  0  0  0  0  0  0  0  0
   -0.9750   -2.9042    0.0000 O   0  0  0  0  0  0  0  0  0  0  0  0
    0.6625   -1.1500    0.0000 O   0  0  0  0  0  0  0  0  0  0  0  0
    3.1542    0.7833    0.0000 O   0  0  0  0  0  0  0  0  0  0  0  0
   -2.4083   -1.2542    0.0000 C   0  0  0  0  0  0  0  0  0  0  0  0
   -2.4083   -0.4250    0.0000 C   0  0  0  0  0  0  0  0  0  0  0  0
    4.3167   -0.0500    0.0000 O   0  0  0  0  0  0  0  0  0  0  0  0
    3.3542   -1.3917    0.0000 C   0  0  0  0  0  0  0  0  0  0  0  0
    1.7125   -1.2292    0.0000 C   0  0  0  0  0  0  0  0  0  0  0  0
   -1.6958    0.8125    0.0000 C   0  0  0  0  0  0  0  0  0  0  0  0
    2.8750   -2.0667    0.0000 C   0  0  0  0  0  0  0  0  0  0  0  0
    2.0500   -1.9792    0.0000 C   0  0  0  0  0  0  0  0  0  0  0  0
  2  1  1  0  0  0  0
  3  1  1  0  0  0  0
  4  1  1  0  0  0  0
  5 11  1  0  0  0  0
  6  3  1  0  0  0  0
  7  2  1  0  0  0  0
  8  4  1  0  0  0  0
  9 12  1  0  0  0  0
 10  6  1  0  0  0  0
 11  8  2  0  0  0  0
 12 10  1  0  0  0  0
 13  9  1  0  0  0  0
 14  5  1  0  0  0  0
 15  4  2  0  0  0  0
 16  2  2  0  0  0  0
 17  5  2  0  0  0  0
 18  3  2  0  0  0  0
 19 13  2  0  0  0  0
 20 21  2  0  0  0  0
 21 15  1  0  0  0  0
 22 13  1  0  0  0  0
 23  9  2  0  0  0  0
 24 12  2  0  0  0  0
 25 15  1  0  0  0  0
 26 27  2  0  0  0  0
 27 24  1  0  0  0  0
  7  6  1  0  0  0  0
 11 20  1  0  0  0  0
 26 23  1  0  0  0  0
M  CHG  2   5   1  14  -1
M  END
> <IDNUMBER>
F1199-0005

> <Chemical_Name>
2-{[1-(2-methyl-5-nitrophenyl)-2,5-dioxopyrrolidin-3-yl]sulfanyl}benzoic acid

> <CAS>
433701-85-0

> <PriceCoeff>
1.00

> <MW>
386.38

> <Description>
solid

> <FSP3>
0.17

> <clogP>
2.51

> <TPSA>
143.12

> <Acceptor>
6

> <Donor>
0

> <RotBonds>
5

> <HAC>
27

> <Collection>
General

$$$$
F0417-2081
  -ISIS-  06222321142D

 25 26  0  0  0  0  0  0  0  0999 V2000
    0.3500   -0.0667    0.0000 C   0  0  0  0  0  0  0  0  0  0  0  0
    3.3667    0.9125    0.0000 N   0  3  0  0  0  0  0  0  0  0  0  0
    3.0000    0.4458    0.0000 C   0  0  0  0  0  0  0  0  0  0  0  0
   -0.1500   -0.4375    0.0000 S   0  0  0  0  0  0  0  0  0  0  0  0
    0.9875   -0.2667    0.0000 N   0  0  0  0  0  0  0  0  0  0  0  0
   -0.6500   -0.0542    0.0000 C   0  0  0  0  0  0  0  0  0  0  0  0
    0.1542    0.4125    0.0000 N   0  0  0  0  0  0  0  0  0  0  0  0
   -0.4708    0.4125    0.0000 N   0  0  0  0  0  0  0  0  0  0  0  0
    1.4500    0.1458    0.0000 C   0  0  0  0  0  0  0  0  0  0  0  0
    2.4042    0.5333    0.0000 C   0  0  0  0  0  0  0  0  0  0  0  0
    2.0375    0.0625    0.0000 C   0  0  0  0  0  0  0  0  0  0  0  0
    3.2167   -0.1167    0.0000 C   0  0  0  0  0  0  0  0  0  0  0  0
    3.1375    1.4500    0.0000 O   0  5  0  0  0  0  0  0  0  0  0  0
    3.9667    0.8458    0.0000 O   0  0  0  0  0  0  0  0  0  0  0  0
   -1.3000   -0.1542    0.0000 S   0  0  0  0  0  0  0  0  0  0  0  0
   -2.1708    0.1708    0.0000 C   0  0  0  0  0  0  0  0  0  0  0  0
    1.3292    0.6333    0.0000 O   0  0  0  0  0  0  0  0  0  0  0  0
    2.2500   -0.4875    0.0000 C   0  0  0  0  0  0  0  0  0  0  0  0
   -2.3958   -0.4042    0.0000 O   0  0  0  0  0  0  0  0  0  0  0  0
    2.8375   -0.5792    0.0000 C   0  0  0  0  0  0  0  0  0  0  0  0
   -1.5708    0.3125    0.0000 C   0  0  0  0  0  0  0  0  0  0  0  0
    3.8792   -0.2292    0.0000 Cl  0  0  0  0  0  0  0  0  0  0  0  0
   -2.6000    0.5500    0.0000 O   0  0  0  0  0  0  0  0  0  0  0  0
   -3.3000    0.3125    0.0000 C   0  0  0  0  0  0  0  0  0  0  0  0
   -3.7208    0.8458    0.0000 C   0  0  0  0  0  0  0  0  0  0  0  0
  2  3  1  0  0  0  0
  3 10  1  0  0  0  0
  4  1  1  0  0  0  0
  5  1  1  0  0  0  0
  6  4  1  0  0  0  0
  7  1  2  0  0  0  0
  8  7  1  0  0  0  0
  9  5  1  0  0  0  0
 10 11  2  0  0  0  0
 11  9  1  0  0  0  0
 12 20  1  0  0  0  0
 13  2  1  0  0  0  0
 14  2  2  0  0  0  0
 15  6  1  0  0  0  0
 16 21  1  0  0  0  0
 17  9  2  0  0  0  0
 18 11  1  0  0  0  0
 19 16  2  0  0  0  0
 20 18  2  0  0  0  0
 21 15  1  0  0  0  0
 22 12  1  0  0  0  0
 23 16  1  0  0  0  0
 24 23  1  0  0  0  0
 25 24  1  0  0  0  0
  8  6  2  0  0  0  0
 12  3  2  0  0  0  0
M  CHG  2   2   1  13  -1
M  END
> <IDNUMBER>
F0417-2081

> <Chemical_Name>
ethyl 2-{[5-(4-chloro-3-nitrobenzamido)-1,3,4-thiadiazol-2-yl]sulfanyl}acetate

> <CAS>
392318-48-8

> <PriceCoeff>
1.00

> <MW>
402.83

> <Description>
solid

> <FSP3>
0.23

> <clogP>
2.44

> <TPSA>
177.86

> <Acceptor>
7

> <Donor>
1

> <RotBonds>
8

> <HAC>
25

> <Collection>
General

$$$$
F3088-3663
  -ISIS-  06222321462D

 26 28  0  0  0  0  0  0  0  0999 V2000
   -0.2458   -2.3292    0.0000 N   0  3  0  0  0  0  0  0  0  0  0  0
    1.1792   -3.1542    0.0000 C   0  0  0  0  0  0  0  0  0  0  0  0
   -0.2458   -3.1542    0.0000 C   0  0  0  0  0  0  0  0  0  0  0  0
    0.4750   -3.5667    0.0000 C   0  0  0  0  0  0  0  0  0  0  0  0
    1.9375   -3.4875    0.0000 O   0  0  0  0  0  0  0  0  0  0  0  0
    2.4875   -2.8750    0.0000 C   0  0  0  0  0  0  0  0  0  0  0  0
    3.3042   -2.9542    0.0000 C   0  0  0  0  0  0  0  0  0  0  0  0
    1.2667   -2.3292    0.0000 C   0  0  0  0  0  0  0  0  0  0  0  0
    2.0667   -2.1542    0.0000 C   0  0  0  0  0  0  0  0  0  0  0  0
    3.6500   -3.7042    0.0000 N   0  0  0  0  0  0  0  0  0  0  0  0
   -0.9583   -3.5750    0.0000 C   0  0  0  0  0  0  0  0  0  0  0  0
    0.4750   -4.4000    0.0000 C   0  0  0  0  0  0  0  0  0  0  0  0
    0.4667   -1.9167    0.0000 O   0  5  0  0  0  0  0  0  0  0  0  0
   -0.9625   -1.9167    0.0000 O   0  0  0  0  0  0  0  0  0  0  0  0
    4.4750   -3.7917    0.0000 C   0  0  0  0  0  0  0  0  0  0  0  0
    3.7917   -2.2875    0.0000 O   0  0  0  0  0  0  0  0  0  0  0  0
    4.9417   -3.1250    0.0000 C   0  0  0  0  0  0  0  0  0  0  0  0
   -0.9583   -4.4000    0.0000 C   0  0  0  0  0  0  0  0  0  0  0  0
   -0.2458   -4.8125    0.0000 C   0  0  0  0  0  0  0  0  0  0  0  0
    5.7625   -3.2000    0.0000 C   0  0  0  0  0  0  0  0  0  0  0  0
   -1.6708   -4.8042    0.0000 Cl  0  0  0  0  0  0  0  0  0  0  0  0
    6.2417   -2.5167    0.0000 O   0  0  0  0  0  0  0  0  0  0  0  0
    5.6292   -4.6250    0.0000 C   0  0  0  0  0  0  0  0  0  0  0  0
    4.8042   -4.5417    0.0000 C   0  0  0  0  0  0  0  0  0  0  0  0
    6.1125   -3.9417    0.0000 C   0  0  0  0  0  0  0  0  0  0  0  0
    5.9000   -1.7750    0.0000 C   0  0  0  0  0  0  0  0  0  0  0  0
  2  4  1  0  0  0  0
  3  1  1  0  0  0  0
  4  3  2  0  0  0  0
  5  2  1  0  0  0  0
  6  5  1  0  0  0  0
  7  6  1  0  0  0  0
  8  2  2  0  0  0  0
  9  8  1  0  0  0  0
 10  7  1  0  0  0  0
 11  3  1  0  0  0  0
 12  4  1  0  0  0  0
 13  1  1  0  0  0  0
 14  1  2  0  0  0  0
 15 10  1  0  0  0  0
 16  7  2  0  0  0  0
 17 15  1  0  0  0  0
 18 11  2  0  0  0  0
 19 18  1  0  0  0  0
 20 17  2  0  0  0  0
 21 18  1  0  0  0  0
 22 20  1  0  0  0  0
 23 24  1  0  0  0  0
 24 15  2  0  0  0  0
 25 23  2  0  0  0  0
 26 22  1  0  0  0  0
 19 12  2  0  0  0  0
  6  9  2  0  0  0  0
 20 25  1  0  0  0  0
M  CHG  2   1   1  13  -1
M  END
> <IDNUMBER>
F3088-3663

> <Chemical_Name>
5-(4-chloro-2-nitrophenyl)-N-(3-methoxyphenyl)furan-2-carboxamide

> <CAS>
874465-37-9

> <PriceCoeff>
1.00

> <MW>
372.76

> <Description>
solid

> <FSP3>
0.06

> <clogP>
4.49

> <TPSA>
94.61

> <Acceptor>
5

> <Donor>
1

> <RotBonds>
5

> <HAC>
26

> <Collection>
General

$$$$
F3386-3752
  -ISIS-  06222321462D

 18 19  0  0  0  0  0  0  0  0999 V2000
    5.4667   -6.1625    0.0000 S   0  0  3  0  0  0  0  0  0  0  0  0
    6.2917   -6.1625    0.0000 O   0  0  0  0  0  0  0  0  0  0  0  0
    4.6417   -6.1625    0.0000 C   0  0  0  0  0  0  0  0  0  0  0  0
    5.4667   -6.9875    0.0000 O   0  0  0  0  0  0  0  0  0  0  0  0
    5.4667   -5.3375    0.0000 O   0  0  0  0  0  0  0  0  0  0  0  0
    4.2292   -5.4417    0.0000 C   0  0  0  0  0  0  0  0  0  0  0  0
    4.2292   -6.8667    0.0000 C   0  0  0  0  0  0  0  0  0  0  0  0
    7.1167   -6.1625    0.0000 C   0  0  0  0  0  0  0  0  0  0  0  0
    8.7625   -6.1625    0.0000 C   0  0  0  0  0  0  0  0  0  0  0  0
    3.4042   -6.8750    0.0000 C   0  0  0  0  0  0  0  0  0  0  0  0
    3.4042   -5.4417    0.0000 C   0  0  0  0  0  0  0  0  0  0  0  0
    2.9917   -6.1542    0.0000 C   0  0  0  0  0  0  0  0  0  0  0  0
    9.5875   -6.1625    0.0000 Cl  0  0  0  0  0  0  0  0  0  0  0  0
    7.5250   -5.4500    0.0000 C   0  0  0  0  0  0  0  0  0  0  0  0
    7.5250   -6.8792    0.0000 C   0  0  0  0  0  0  0  0  0  0  0  0
    8.3500   -6.8792    0.0000 C   0  0  0  0  0  0  0  0  0  0  0  0
    8.3417   -5.4417    0.0000 C   0  0  0  0  0  0  0  0  0  0  0  0
    2.1667   -6.1542    0.0000 C   0  0  0  0  0  0  0  0  0  0  0  0
  2  1  1  0  0  0  0
  3  1  1  0  0  0  0
  4  1  2  0  0  0  0
  5  1  2  0  0  0  0
  6  3  2  0  0  0  0
  7  3  1  0  0  0  0
  8  2  1  0  0  0  0
  9 16  2  0  0  0  0
 10  7  2  0  0  0  0
 11  6  1  0  0  0  0
 12 10  1  0  0  0  0
 13  9  1  0  0  0  0
 14  8  1  0  0  0  0
 15  8  2  0  0  0  0
 16 15  1  0  0  0  0
 17 14  2  0  0  0  0
 18 12  1  0  0  0  0
 12 11  2  0  0  0  0
  9 17  1  0  0  0  0
M  END
> <IDNUMBER>
F3386-3752

> <Chemical_Name>
4-chlorophenyl 4-methylbenzene-1-sulfonate

> <CAS>
599-89-3

> <PriceCoeff>
1.00

> <MW>
282.74

> <Description>
solid

> <FSP3>
0.08

> <clogP>
4.44

> <TPSA>
51.75

> <Acceptor>
3

> <Donor>
0

> <RotBonds>
3

> <HAC>
18

> <Collection>
General

> <Reference_compound>
PRI3215

> <Similarity>
0.8850

$$$$
F3222-2469
  -ISIS-  06222321152D

 35 39  0  0  0  0  0  0  0  0999 V2000
    4.8750   -8.9792    0.0000 N   0  0  3  0  0  0  0  0  0  0  0  0
    5.5417  -10.2500    0.0000 C   0  0  0  0  0  0  0  0  0  0  0  0
    6.2667   -9.8667    0.0000 C   0  0  0  0  0  0  0  0  0  0  0  0
    5.6042   -8.6000    0.0000 C   0  0  0  0  0  0  0  0  0  0  0  0
    6.3042   -9.0375    0.0000 N   0  0  0  0  0  0  0  0  0  0  0  0
    4.8417   -9.8042    0.0000 C   0  0  0  0  0  0  0  0  0  0  0  0
    5.6792  -11.0625    0.0000 C   0  0  0  0  0  0  0  0  0  0  0  0
    6.4917  -11.1792    0.0000 C   0  0  0  0  0  0  0  0  0  0  0  0
    6.8625  -10.4500    0.0000 S   0  0  0  0  0  0  0  0  0  0  0  0
    5.0292   -4.8375    0.0000 N   0  3  0  0  0  0  0  0  0  0  0  0
    6.2917  -12.5917    0.0000 N   0  0  3  0  0  0  0  0  0  0  0  0
    4.1792   -8.5417    0.0000 C   0  0  0  0  0  0  0  0  0  0  0  0
    6.8042  -11.9417    0.0000 C   0  0  0  0  0  0  0  0  0  0  0  0
    5.6375   -7.7750    0.0000 S   0  0  0  0  0  0  0  0  0  0  0  0
    6.5917  -13.3625    0.0000 C   0  0  0  0  0  0  0  0  0  0  0  0
    5.7292   -5.2917    0.0000 C   0  0  0  0  0  0  0  0  0  0  0  0
    5.1750  -11.7042    0.0000 C   0  0  0  0  0  0  0  0  0  0  0  0
    4.0917  -10.1792    0.0000 O   0  0  0  0  0  0  0  0  0  0  0  0
    5.0667   -4.0042    0.0000 O   0  5  0  0  0  0  0  0  0  0  0  0
    5.4792  -12.4750    0.0000 C   0  0  0  0  0  0  0  0  0  0  0  0
    4.3000   -5.2250    0.0000 O   0  0  0  0  0  0  0  0  0  0  0  0
    5.7000   -6.1167    0.0000 C   0  0  0  0  0  0  0  0  0  0  0  0
    3.4500   -8.9292    0.0000 C   0  0  0  0  0  0  0  0  0  0  0  0
    7.4042  -13.4917    0.0000 O   0  0  0  0  0  0  0  0  0  0  0  0
    6.3667   -7.3875    0.0000 C   0  0  0  0  0  0  0  0  0  0  0  0
    6.4000   -6.5625    0.0000 C   0  0  0  0  0  0  0  0  0  0  0  0
    4.2125   -7.7167    0.0000 C   0  0  0  0  0  0  0  0  0  0  0  0
    6.0750  -14.0042    0.0000 C   0  0  0  0  0  0  0  0  0  0  0  0
    6.4667   -4.9125    0.0000 C   0  0  0  0  0  0  0  0  0  0  0  0
    7.1625   -5.3500    0.0000 C   0  0  0  0  0  0  0  0  0  0  0  0
    3.4167   -9.7542    0.0000 C   0  0  0  0  0  0  0  0  0  0  0  0
    2.7500   -8.4875    0.0000 C   0  0  0  0  0  0  0  0  0  0  0  0
    7.1292   -6.1750    0.0000 C   0  0  0  0  0  0  0  0  0  0  0  0
    3.5167   -7.2792    0.0000 C   0  0  0  0  0  0  0  0  0  0  0  0
    2.7792   -7.6542    0.0000 C   0  0  0  0  0  0  0  0  0  0  0  0
  2  6  1  0  0  0  0
  3  2  2  0  0  0  0
  4  1  1  0  0  0  0
  5  4  2  0  0  0  0
  6  1  1  0  0  0  0
  7  2  1  0  0  0  0
  8  7  2  0  0  0  0
  9  3  1  0  0  0  0
 10 16  1  0  0  0  0
 11 20  1  0  0  0  0
 12  1  1  0  0  0  0
 13  8  1  0  0  0  0
 14  4  1  0  0  0  0
 15 11  1  0  0  0  0
 16 22  1  0  0  0  0
 17  7  1  0  0  0  0
 18  6  2  0  0  0  0
 19 10  1  0  0  0  0
 20 17  1  0  0  0  0
 21 10  2  0  0  0  0
 22 26  2  0  0  0  0
 23 12  1  0  0  0  0
 24 15  2  0  0  0  0
 25 14  1  0  0  0  0
 26 25  1  0  0  0  0
 27 12  2  0  0  0  0
 28 15  1  0  0  0  0
 29 30  1  0  0  0  0
 30 33  2  0  0  0  0
 31 23  1  0  0  0  0
 32 23  2  0  0  0  0
 33 26  1  0  0  0  0
 34 27  1  0  0  0  0
 35 34  2  0  0  0  0
  3  5  1  0  0  0  0
 32 35  1  0  0  0  0
  8  9  1  0  0  0  0
 13 11  1  0  0  0  0
 29 16  2  0  0  0  0
M  CHG  2  10   1  19  -1
M  END
> <IDNUMBER>
F3222-2469

> <Chemical_Name>
11-acetyl-4-(2-methylphenyl)-5-{[(3-nitrophenyl)methyl]sulfanyl}-8-thia-4,6,11-triazatricyclo[7.4.0.0^{2,7}]trideca-1(9),2(7),5-trien-3-one

> <CAS>
1185172-93-3

> <PriceCoeff>
1.00

> <MW>
506.60

> <Description>
solid

> <FSP3>
0.24

> <clogP>
3.88

> <TPSA>
149.66

> <Acceptor>
5

> <Donor>
0

> <RotBonds>
6

> <HAC>
35

> <Collection>
General

> <Reference_compound>
CHEMBL577016

> <Similarity>
0.8790

$$$$
F2099-0016
  -ISIS-  06222321142D

 29 31  0  0  0  0  0  0  0  0999 V2000
   -3.1583    9.7417    0.0000 S   0  0  3  0  0  0  0  0  0  0  0  0
   -3.1583    8.9917    0.0000 C   0  0  0  0  0  0  0  0  0  0  0  0
   -2.5083    1.1208    0.0000 N   0  3  0  0  0  0  0  0  0  0  0  0
   -2.5083    3.3708    0.0000 C   0  0  0  0  0  0  0  0  0  0  0  0
   -2.5083    4.1167    0.0000 C   0  0  0  0  0  0  0  0  0  0  0  0
   -2.5083    8.6167    0.0000 N   0  0  0  0  0  0  0  0  0  0  0  0
   -3.1583    2.9958    0.0000 C   0  0  0  0  0  0  0  0  0  0  0  0
   -2.5083    7.8667    0.0000 N   0  0  0  0  0  0  0  0  0  0  0  0
   -2.5083    1.8708    0.0000 C   0  0  0  0  0  0  0  0  0  0  0  0
   -3.1583    2.2458    0.0000 C   0  0  0  0  0  0  0  0  0  0  0  0
   -3.1583    4.4917    0.0000 N   0  0  0  0  0  0  0  0  0  0  0  0
   -1.8583    2.9958    0.0000 C   0  0  0  0  0  0  0  0  0  0  0  0
   -3.1583    0.7458    0.0000 O   0  5  0  0  0  0  0  0  0  0  0  0
   -3.1583    7.4917    0.0000 C   0  0  0  0  0  0  0  0  0  0  0  0
   -3.9083    9.7417    0.0000 O   0  0  0  0  0  0  0  0  0  0  0  0
   -2.4083    9.7417    0.0000 O   0  0  0  0  0  0  0  0  0  0  0  0
   -1.8583    0.7458    0.0000 O   0  0  0  0  0  0  0  0  0  0  0  0
   -3.8083    8.6167    0.0000 C   0  0  0  0  0  0  0  0  0  0  0  0
   -1.8625    4.4917    0.0000 O   0  0  0  0  0  0  0  0  0  0  0  0
   -3.1583    6.7417    0.0000 C   0  0  0  0  0  0  0  0  0  0  0  0
   -1.8583    2.2458    0.0000 C   0  0  0  0  0  0  0  0  0  0  0  0
   -3.8083    7.8667    0.0000 C   0  0  0  0  0  0  0  0  0  0  0  0
   -3.1583    5.2417    0.0000 C   0  0  0  0  0  0  0  0  0  0  0  0
   -2.5083    6.3667    0.0000 C   0  0  0  0  0  0  0  0  0  0  0  0
   -3.8083    6.3667    0.0000 C   0  0  0  0  0  0  0  0  0  0  0  0
   -3.8083    3.3750    0.0000 Cl  0  0  0  0  0  0  0  0  0  0  0  0
   -3.1583   10.4917    0.0000 C   0  0  0  0  0  0  0  0  0  0  0  0
   -3.8083    5.6167    0.0000 C   0  0  0  0  0  0  0  0  0  0  0  0
   -2.5083    5.6167    0.0000 C   0  0  0  0  0  0  0  0  0  0  0  0
  2  1  1  0  0  0  0
  3  9  1  0  0  0  0
  4  5  1  0  0  0  0
  5 11  1  0  0  0  0
  6  2  2  0  0  0  0
  7  4  2  0  0  0  0
  8  6  1  0  0  0  0
  9 21  1  0  0  0  0
 10  7  1  0  0  0  0
 11 23  1  0  0  0  0
 12  4  1  0  0  0  0
 13  3  1  0  0  0  0
 14 22  1  0  0  0  0
 15  1  2  0  0  0  0
 16  1  2  0  0  0  0
 17  3  2  0  0  0  0
 18  2  1  0  0  0  0
 19  5  2  0  0  0  0
 20 14  1  0  0  0  0
 21 12  2  0  0  0  0
 22 18  2  0  0  0  0
 23 28  2  0  0  0  0
 24 20  1  0  0  0  0
 25 20  2  0  0  0  0
 26  7  1  0  0  0  0
 27  1  1  0  0  0  0
 28 25  1  0  0  0  0
 29 24  2  0  0  0  0
 14  8  2  0  0  0  0
 29 23  1  0  0  0  0
 10  9  2  0  0  0  0
M  CHG  2   3   1  13  -1
M  END
> <IDNUMBER>
F2099-0016

> <Chemical_Name>
2-chloro-N-[4-(6-methanesulfonylpyridazin-3-yl)phenyl]-4-nitrobenzamide

> <CAS>
921795-74-6

> <PriceCoeff>
1.00

> <MW>
432.84

> <Description>
solid

> <FSP3>
0.06

> <clogP>
1.52

> <TPSA>
140.54

> <Acceptor>
7

> <Donor>
1

> <RotBonds>
5

> <HAC>
29

> <Collection>
General

$$$$
F2098-0016
  -ISIS-  06222321442D

 29 31  0  0  0  0  0  0  0  0999 V2000
    3.9167   -1.1542    0.0000 S   0  0  3  0  0  0  0  0  0  0  0  0
    4.6417   -1.5667    0.0000 C   0  0  0  0  0  0  0  0  0  0  0  0
    8.1917   -8.5917    0.0000 N   0  3  0  0  0  0  0  0  0  0  0  0
    8.1917   -6.1167    0.0000 C   0  0  0  0  0  0  0  0  0  0  0  0
    8.1917   -5.2917    0.0000 C   0  0  0  0  0  0  0  0  0  0  0  0
    5.3542   -1.1542    0.0000 N   0  0  0  0  0  0  0  0  0  0  0  0
    7.4792   -6.5292    0.0000 C   0  0  0  0  0  0  0  0  0  0  0  0
    6.0667   -1.5667    0.0000 N   0  0  0  0  0  0  0  0  0  0  0  0
    8.1917   -7.7667    0.0000 C   0  0  0  0  0  0  0  0  0  0  0  0
    7.4792   -7.3542    0.0000 C   0  0  0  0  0  0  0  0  0  0  0  0
    7.4875   -4.8750    0.0000 N   0  0  0  0  0  0  0  0  0  0  0  0
    8.9042   -6.5292    0.0000 C   0  0  0  0  0  0  0  0  0  0  0  0
    6.0667   -2.3917    0.0000 C   0  0  0  0  0  0  0  0  0  0  0  0
    7.4792   -9.0042    0.0000 O   0  5  0  0  0  0  0  0  0  0  0  0
    3.5042   -1.8750    0.0000 O   0  0  0  0  0  0  0  0  0  0  0  0
    4.3375   -0.4292    0.0000 O   0  0  0  0  0  0  0  0  0  0  0  0
    6.7792   -2.8042    0.0000 C   0  0  0  0  0  0  0  0  0  0  0  0
    8.9042   -9.0042    0.0000 O   0  0  0  0  0  0  0  0  0  0  0  0
    4.6417   -2.3917    0.0000 C   0  0  0  0  0  0  0  0  0  0  0  0
    8.9042   -4.8792    0.0000 O   0  0  0  0  0  0  0  0  0  0  0  0
    7.4917   -4.0500    0.0000 C   0  0  0  0  0  0  0  0  0  0  0  0
    8.9042   -7.3542    0.0000 C   0  0  0  0  0  0  0  0  0  0  0  0
    6.7792   -3.6375    0.0000 C   0  0  0  0  0  0  0  0  0  0  0  0
    5.3542   -2.8042    0.0000 C   0  0  0  0  0  0  0  0  0  0  0  0
    6.7542   -6.1042    0.0000 Cl  0  0  0  0  0  0  0  0  0  0  0  0
    3.2000   -0.7375    0.0000 C   0  0  0  0  0  0  0  0  0  0  0  0
    7.5000   -2.3917    0.0000 C   0  0  0  0  0  0  0  0  0  0  0  0
    8.2167   -2.8042    0.0000 C   0  0  0  0  0  0  0  0  0  0  0  0
    8.2167   -3.6375    0.0000 C   0  0  0  0  0  0  0  0  0  0  0  0
  2  1  1  0  0  0  0
  3  9  1  0  0  0  0
  4  5  1  0  0  0  0
  5 11  1  0  0  0  0
  6  2  2  0  0  0  0
  7  4  2  0  0  0  0
  8  6  1  0  0  0  0
  9 22  1  0  0  0  0
 10  7  1  0  0  0  0
 11 21  1  0  0  0  0
 12  4  1  0  0  0  0
 13 24  1  0  0  0  0
 14  3  1  0  0  0  0
 15  1  2  0  0  0  0
 16  1  2  0  0  0  0
 17 13  1  0  0  0  0
 18  3  2  0  0  0  0
 19  2  1  0  0  0  0
 20  5  2  0  0  0  0
 21 23  1  0  0  0  0
 22 12  2  0  0  0  0
 23 17  2  0  0  0  0
 24 19  2  0  0  0  0
 25  7  1  0  0  0  0
 26  1  1  0  0  0  0
 27 17  1  0  0  0  0
 28 27  2  0  0  0  0
 29 28  1  0  0  0  0
 13  8  2  0  0  0  0
 21 29  2  0  0  0  0
 10  9  2  0  0  0  0
M  CHG  2   3   1  14  -1
M  END
> <IDNUMBER>
F2098-0016

> <Chemical_Name>
2-chloro-N-[3-(6-methanesulfonylpyridazin-3-yl)phenyl]-4-nitrobenzamide

> <CAS>
946327-29-3

> <PriceCoeff>
1.00

> <MW>
432.84

> <Description>
solid

> <FSP3>
0.06

> <clogP>
1.52

> <TPSA>
140.54

> <Acceptor>
7

> <Donor>
1

> <RotBonds>
5

> <HAC>
29

> <Collection>
General

$$$$
F2823-0395
  -ISIS-  06222321152D

 30 33  0  0  0  0  0  0  0  0999 V2000
   -3.1583    1.7333    0.0000 C   0  0  0  0  0  0  0  0  0  0  0  0
   -3.1583    2.5583    0.0000 C   0  0  0  0  0  0  0  0  0  0  0  0
   -1.7333    2.5583    0.0000 N   0  0  3  0  0  0  0  0  0  0  0  0
   -2.4458    1.3250    0.0000 N   0  0  0  0  0  0  0  0  0  0  0  0
   -3.8708    1.3208    0.0000 N   0  0  3  0  0  0  0  0  0  0  0  0
   -2.4458    2.9833    0.0000 C   0  0  0  0  0  0  0  0  0  0  0  0
   -4.5833    1.7333    0.0000 N   0  0  0  0  0  0  0  0  0  0  0  0
    2.7125    0.7625    0.0000 N   0  3  0  0  0  0  0  0  0  0  0  0
    2.1417    1.4833    0.0000 C   0  0  0  0  0  0  0  0  0  0  0  0
   -1.7333    1.7333    0.0000 C   0  0  0  0  0  0  0  0  0  0  0  0
   -4.5833    2.5583    0.0000 C   0  0  0  0  0  0  0  0  0  0  0  0
   -0.8458    2.6833    0.0000 N   0  0  0  0  0  0  0  0  0  0  0  0
   -0.2833    1.9583    0.0000 C   0  0  0  0  0  0  0  0  0  0  0  0
    1.2125    1.3583    0.0000 C   0  0  0  0  0  0  0  0  0  0  0  0
    0.6417    2.0833    0.0000 C   0  0  0  0  0  0  0  0  0  0  0  0
   -3.8708    0.3958    0.0000 C   0  0  0  0  0  0  0  0  0  0  0  0
    2.4792    2.3625    0.0000 C   0  0  0  0  0  0  0  0  0  0  0  0
    2.3792   -0.0917    0.0000 O   0  5  0  0  0  0  0  0  0  0  0  0
    3.6292    0.8958    0.0000 O   0  0  0  0  0  0  0  0  0  0  0  0
   -2.4458    3.8000    0.0000 O   0  0  0  0  0  0  0  0  0  0  0  0
   -0.6250    1.0958    0.0000 O   0  0  0  0  0  0  0  0  0  0  0  0
    0.9792    2.9458    0.0000 C   0  0  0  0  0  0  0  0  0  0  0  0
    1.9000    3.0958    0.0000 C   0  0  0  0  0  0  0  0  0  0  0  0
   -3.0708   -0.0625    0.0000 C   0  0  0  0  0  0  0  0  0  0  0  0
   -4.6708   -0.0667    0.0000 C   0  0  0  0  0  0  0  0  0  0  0  0
    3.3875    2.4958    0.0000 Cl  0  0  0  0  0  0  0  0  0  0  0  0
   -3.0583   -0.9792    0.0000 C   0  0  0  0  0  0  0  0  0  0  0  0
   -4.6708   -0.9917    0.0000 C   0  0  0  0  0  0  0  0  0  0  0  0
   -3.8583   -1.4542    0.0000 C   0  0  0  0  0  0  0  0  0  0  0  0
   -3.8500   -2.3792    0.0000 C   0  0  0  0  0  0  0  0  0  0  0  0
  2  1  2  0  0  0  0
  3 10  1  0  0  0  0
  4  1  1  0  0  0  0
  5  1  1  0  0  0  0
  6  2  1  0  0  0  0
  7  5  1  0  0  0  0
  8  9  1  0  0  0  0
  9 14  2  0  0  0  0
 10  4  2  0  0  0  0
 11  2  1  0  0  0  0
 12  3  1  0  0  0  0
 13 12  1  0  0  0  0
 14 15  1  0  0  0  0
 15 13  1  0  0  0  0
 16  5  1  0  0  0  0
 17 23  2  0  0  0  0
 18  8  1  0  0  0  0
 19  8  2  0  0  0  0
 20  6  2  0  0  0  0
 21 13  2  0  0  0  0
 22 15  2  0  0  0  0
 23 22  1  0  0  0  0
 24 16  1  0  0  0  0
 25 16  2  0  0  0  0
 26 17  1  0  0  0  0
 27 24  2  0  0  0  0
 28 25  1  0  0  0  0
 29 28  2  0  0  0  0
 30 29  1  0  0  0  0
 11  7  2  0  0  0  0
  3  6  1  0  0  0  0
 27 29  1  0  0  0  0
 17  9  1  0  0  0  0
M  CHG  2   8   1  18  -1
M  END
> <IDNUMBER>
F2823-0395

> <Chemical_Name>
4-chloro-N-[1-(4-methylphenyl)-4-oxo-1H,4H,5H-pyrazolo[3,4-d]pyrimidin-5-yl]-3-nitrobenzamide

> <CAS>
899966-69-9

> <PriceCoeff>
1.00

> <MW>
424.80

> <Description>
solid

> <FSP3>
0.05

> <clogP>
2.17

> <TPSA>
122.73

> <Acceptor>
6

> <Donor>
1

> <RotBonds>
4

> <HAC>
30

> <Collection>
General

$$$$
F1589-0503
  -ISIS-  06222321142D

 28 30  0  0  0  0  0  0  0  0999 V2000
   14.5792   -0.8125    0.0000 S   0  0  3  0  0  0  0  0  0  0  0  0
   -0.4000   -4.5667    0.0000 N   0  3  0  0  0  0  0  0  0  0  0  0
    4.4875   -1.7167    0.0000 C   0  0  0  0  0  0  0  0  0  0  0  0
    5.7875   -2.3000    0.0000 O   0  0  0  0  0  0  0  0  0  0  0  0
    6.7292   -1.2500    0.0000 C   0  0  0  0  0  0  0  0  0  0  0  0
    3.2792   -2.4417    0.0000 C   0  0  0  0  0  0  0  0  0  0  0  0
    8.1292   -1.3917    0.0000 C   0  0  0  0  0  0  0  0  0  0  0  0
    2.0417   -1.7292    0.0000 C   0  0  0  0  0  0  0  0  0  0  0  0
    0.8167   -3.8625    0.0000 C   0  0  0  0  0  0  0  0  0  0  0  0
    4.6375   -0.3167    0.0000 C   0  0  0  0  0  0  0  0  0  0  0  0
    6.0167   -0.0167    0.0000 C   0  0  0  0  0  0  0  0  0  0  0  0
    0.8167   -2.4417    0.0000 C   0  0  0  0  0  0  0  0  0  0  0  0
    8.9667   -0.2417    0.0000 N   0  0  0  0  0  0  0  0  0  0  0  0
   13.1792   -0.6667    0.0000 C   0  0  0  0  0  0  0  0  0  0  0  0
    3.2792   -3.8625    0.0000 C   0  0  0  0  0  0  0  0  0  0  0  0
   14.5792    0.6083    0.0000 O   0  0  0  0  0  0  0  0  0  0  0  0
   14.5792   -2.2292    0.0000 O   0  0  0  0  0  0  0  0  0  0  0  0
   -1.6333   -3.8625    0.0000 O   0  5  0  0  0  0  0  0  0  0  0  0
   -0.4000   -5.9875    0.0000 O   0  0  0  0  0  0  0  0  0  0  0  0
   16.0000   -0.9500    0.0000 N   0  0  0  0  0  0  0  0  0  0  0  0
    8.7250   -2.6792    0.0000 O   0  0  0  0  0  0  0  0  0  0  0  0
    2.0417   -4.5667    0.0000 C   0  0  0  0  0  0  0  0  0  0  0  0
   12.5875    0.6250    0.0000 C   0  0  0  0  0  0  0  0  0  0  0  0
   12.3542   -1.8167    0.0000 C   0  0  0  0  0  0  0  0  0  0  0  0
   10.3750   -0.3667    0.0000 C   0  0  0  0  0  0  0  0  0  0  0  0
    2.0417   -0.3167    0.0000 Cl  0  0  0  0  0  0  0  0  0  0  0  0
   10.9375   -1.6792    0.0000 C   0  0  0  0  0  0  0  0  0  0  0  0
   11.1875    0.7708    0.0000 C   0  0  0  0  0  0  0  0  0  0  0  0
  2  9  1  0  0  0  0
  3  4  1  0  0  0  0
  4  5  1  0  0  0  0
  5  7  1  0  0  0  0
  6  3  1  0  0  0  0
  7 13  1  0  0  0  0
  8  6  2  0  0  0  0
  9 22  1  0  0  0  0
 10 11  1  0  0  0  0
 11  5  2  0  0  0  0
 12  8  1  0  0  0  0
 13 25  1  0  0  0  0
 14  1  1  0  0  0  0
 15  6  1  0  0  0  0
 16  1  2  0  0  0  0
 17  1  2  0  0  0  0
 18  2  1  0  0  0  0
 19  2  2  0  0  0  0
 20  1  1  0  0  0  0
 21  7  2  0  0  0  0
 22 15  2  0  0  0  0
 23 14  1  0  0  0  0
 24 14  2  0  0  0  0
 25 27  2  0  0  0  0
 26  8  1  0  0  0  0
 27 24  1  0  0  0  0
 28 23  2  0  0  0  0
 28 25  1  0  0  0  0
 10  3  2  0  0  0  0
 12  9  2  0  0  0  0
M  CHG  2   2   1  18  -1
M  END
> <IDNUMBER>
F1589-0503

> <Chemical_Name>
5-(2-chloro-4-nitrophenyl)-N-(4-sulfamoylphenyl)furan-2-carboxamide

> <CAS>
618395-85-0

> <PriceCoeff>
1.00

> <MW>
421.81

> <Description>
solid

> <FSP3>
0.00

> <clogP>
2.65

> <TPSA>
153.92

> <Acceptor>
6

> <Donor>
2

> <RotBonds>
5

> <HAC>
28

> <Collection>
General

$$$$
F2843-0123
  -ISIS-  06222321462D

 27 29  0  0  0  0  0  0  0  0999 V2000
   -1.7125    2.5625    0.0000 N   0  0  3  0  0  0  0  0  0  0  0  0
   -2.4333    2.9833    0.0000 C   0  0  0  0  0  0  0  0  0  0  0  0
    0.4042    5.4792    0.0000 N   0  3  0  0  0  0  0  0  0  0  0  0
   -0.2958    5.0542    0.0000 C   0  0  0  0  0  0  0  0  0  0  0  0
   -1.0000    2.9833    0.0000 C   0  0  0  0  0  0  0  0  0  0  0  0
   -3.1583    2.5583    0.0000 N   0  0  3  0  0  0  0  0  0  0  0  0
   -1.0083    3.8083    0.0000 C   0  0  0  0  0  0  0  0  0  0  0  0
   -0.2958    4.2167    0.0000 C   0  0  0  0  0  0  0  0  0  0  0  0
   -1.0333    5.4625    0.0000 C   0  0  0  0  0  0  0  0  0  0  0  0
    1.1292    5.0792    0.0000 O   0  5  0  0  0  0  0  0  0  0  0  0
   -1.7083    1.7375    0.0000 C   0  0  0  0  0  0  0  0  0  0  0  0
   -2.4375    3.8000    0.0000 O   0  0  0  0  0  0  0  0  0  0  0  0
    0.4000    6.3042    0.0000 O   0  0  0  0  0  0  0  0  0  0  0  0
   -0.2833    2.5708    0.0000 O   0  0  0  0  0  0  0  0  0  0  0  0
   -1.7250    4.2042    0.0000 C   0  0  0  0  0  0  0  0  0  0  0  0
   -1.7458    5.0292    0.0000 C   0  0  0  0  0  0  0  0  0  0  0  0
   -1.0458    6.2792    0.0000 Cl  0  0  0  0  0  0  0  0  0  0  0  0
   -3.1583    1.7250    0.0000 C   0  0  0  0  0  0  0  0  0  0  0  0
   -3.8708    2.9708    0.0000 C   0  0  0  0  0  0  0  0  0  0  0  0
   -0.9958    1.3333    0.0000 C   0  0  0  0  0  0  0  0  0  0  0  0
   -2.4208    1.3250    0.0000 C   0  0  0  0  0  0  0  0  0  0  0  0
   -3.8708    1.3125    0.0000 C   0  0  0  0  0  0  0  0  0  0  0  0
   -4.5833    2.5583    0.0000 C   0  0  0  0  0  0  0  0  0  0  0  0
   -2.4208    0.5000    0.0000 C   0  0  0  0  0  0  0  0  0  0  0  0
   -0.9875    0.5083    0.0000 C   0  0  0  0  0  0  0  0  0  0  0  0
   -1.7000    0.0875    0.0000 C   0  0  0  0  0  0  0  0  0  0  0  0
   -4.5833    1.7250    0.0000 C   0  0  0  0  0  0  0  0  0  0  0  0
  2  1  1  0  0  0  0
  3  4  1  0  0  0  0
  4  8  2  0  0  0  0
  5  1  1  0  0  0  0
  6  2  1  0  0  0  0
  7  5  1  0  0  0  0
  8  7  1  0  0  0  0
  9 16  2  0  0  0  0
 10  3  1  0  0  0  0
 11  1  1  0  0  0  0
 12  2  2  0  0  0  0
 13  3  2  0  0  0  0
 14  5  2  0  0  0  0
 15  7  2  0  0  0  0
 16 15  1  0  0  0  0
 17  9  1  0  0  0  0
 18  6  1  0  0  0  0
 19  6  1  0  0  0  0
 20 11  2  0  0  0  0
 21 11  1  0  0  0  0
 22 18  1  0  0  0  0
 23 19  1  0  0  0  0
 24 21  2  0  0  0  0
 25 20  1  0  0  0  0
 26 24  1  0  0  0  0
 27 23  1  0  0  0  0
 26 25  2  0  0  0  0
  4  9  1  0  0  0  0
 22 27  1  0  0  0  0
M  CHG  2   3   1  10  -1
M  END
> <IDNUMBER>
F2843-0123

> <Chemical_Name>
4-chloro-3-nitro-N-phenyl-N-(piperidine-1-carbonyl)benzamide

> <CAS>
899992-45-1

> <PriceCoeff>
1.00

> <MW>
387.82

> <Description>
solid

> <FSP3>
0.26

> <clogP>
3.87

> <TPSA>
83.76

> <Acceptor>
4

> <Donor>
0

> <RotBonds>
6

> <HAC>
27

> <Collection>
General

$$$$
F3168-0273
  -ISIS-  06222321152D

 33 37  0  0  0  0  0  0  0  0999 V2000
    7.6167   -4.5667    0.0000 N   0  0  3  0  0  0  0  0  0  0  0  0
    6.1792   -4.5667    0.0000 C   0  0  0  0  0  0  0  0  0  0  0  0
    6.1792   -5.3875    0.0000 C   0  0  0  0  0  0  0  0  0  0  0  0
    7.6167   -5.3875    0.0000 C   0  0  0  0  0  0  0  0  0  0  0  0
    6.8917   -5.8000    0.0000 N   0  0  0  0  0  0  0  0  0  0  0  0
    6.9000   -4.1542    0.0000 C   0  0  0  0  0  0  0  0  0  0  0  0
    5.4000   -4.3042    0.0000 C   0  0  0  0  0  0  0  0  0  0  0  0
    4.9167   -4.9792    0.0000 C   0  0  0  0  0  0  0  0  0  0  0  0
    5.4000   -5.6417    0.0000 S   0  0  0  0  0  0  0  0  0  0  0  0
    8.3292   -4.1542    0.0000 C   0  0  0  0  0  0  0  0  0  0  0  0
    3.7417   -4.1500    0.0000 N   0  0  3  0  0  0  0  0  0  0  0  0
    4.0917   -4.8917    0.0000 C   0  0  0  0  0  0  0  0  0  0  0  0
    8.3250   -3.3250    0.0000 C   0  0  0  0  0  0  0  0  0  0  0  0
    8.3417   -5.7917    0.0000 S   0  0  0  0  0  0  0  0  0  0  0  0
    2.9167   -4.0792    0.0000 C   0  0  0  0  0  0  0  0  0  0  0  0
    5.0625   -3.5542    0.0000 C   0  0  0  0  0  0  0  0  0  0  0  0
    9.0375   -2.9042    0.0000 C   0  0  0  0  0  0  0  0  0  0  0  0
    6.9042   -3.3292    0.0000 O   0  0  0  0  0  0  0  0  0  0  0  0
    4.2417   -3.4667    0.0000 C   0  0  0  0  0  0  0  0  0  0  0  0
    9.0500   -4.5625    0.0000 C   0  0  0  0  0  0  0  0  0  0  0  0
    9.7625   -3.3167    0.0000 C   0  0  0  0  0  0  0  0  0  0  0  0
    2.4542   -4.7667    0.0000 O   0  0  0  0  0  0  0  0  0  0  0  0
    9.7667   -4.1417    0.0000 C   0  0  0  0  0  0  0  0  0  0  0  0
    8.3500   -6.6250    0.0000 C   0  0  0  0  0  0  0  0  0  0  0  0
    9.0250   -2.0792    0.0000 Cl  0  0  0  0  0  0  0  0  0  0  0  0
   10.4875   -2.8917    0.0000 F   0  0  0  0  0  0  0  0  0  0  0  0
    9.0667   -7.0292    0.0000 C   0  0  0  0  0  0  0  0  0  0  0  0
    2.5667   -3.3417    0.0000 C   0  0  0  0  0  0  0  0  0  0  0  0
    9.0667   -7.8625    0.0000 C   0  0  0  0  0  0  0  0  0  0  0  0
    9.7792   -6.6125    0.0000 C   0  0  0  0  0  0  0  0  0  0  0  0
   10.5042   -7.0167    0.0000 C   0  0  0  0  0  0  0  0  0  0  0  0
    9.7875   -8.2667    0.0000 C   0  0  0  0  0  0  0  0  0  0  0  0
   10.5125   -7.8500    0.0000 C   0  0  0  0  0  0  0  0  0  0  0  0
  2  6  1  0  0  0  0
  3  2  2  0  0  0  0
  4  1  1  0  0  0  0
  5  4  2  0  0  0  0
  6  1  1  0  0  0  0
  7  2  1  0  0  0  0
  8  7  2  0  0  0  0
  9  3  1  0  0  0  0
 10  1  1  0  0  0  0
 11 19  1  0  0  0  0
 12  8  1  0  0  0  0
 13 10  1  0  0  0  0
 14  4  1  0  0  0  0
 15 11  1  0  0  0  0
 16  7  1  0  0  0  0
 17 13  2  0  0  0  0
 18  6  2  0  0  0  0
 19 16  1  0  0  0  0
 20 10  2  0  0  0  0
 21 23  2  0  0  0  0
 22 15  2  0  0  0  0
 23 20  1  0  0  0  0
 24 14  1  0  0  0  0
 25 17  1  0  0  0  0
 26 21  1  0  0  0  0
 27 24  1  0  0  0  0
 28 15  1  0  0  0  0
 29 27  2  0  0  0  0
 30 27  1  0  0  0  0
 31 30  2  0  0  0  0
 32 29  1  0  0  0  0
 33 31  1  0  0  0  0
  3  5  1  0  0  0  0
 21 17  1  0  0  0  0
  9  8  1  0  0  0  0
 12 11  1  0  0  0  0
 33 32  2  0  0  0  0
M  END
> <IDNUMBER>
F3168-0273

> <Chemical_Name>
11-acetyl-5-(benzylsulfanyl)-4-(3-chloro-4-fluorophenyl)-8-thia-4,6,11-triazatricyclo[7.4.0.0^{2,7}]trideca-1(9),2(7),5-trien-3-one

> <CAS>
892281-51-5

> <PriceCoeff>
1.00

> <MW>
500.01

> <Description>
solid

> <FSP3>
0.21

> <clogP>
4.50

> <TPSA>
106.52

> <Acceptor>
3

> <Donor>
0

> <RotBonds>
5

> <HAC>
33

> <Collection>
General

> <Reference_compound>
CHEMBL577016

> <Similarity>
0.8770

$$$$
F3222-2276
  -ISIS-  06222321152D

 33 37  0  0  0  0  0  0  0  0999 V2000
    4.8417   -3.2917    0.0000 N   0  0  3  0  0  0  0  0  0  0  0  0
    5.5125   -4.5667    0.0000 C   0  0  0  0  0  0  0  0  0  0  0  0
    6.2417   -4.1792    0.0000 C   0  0  0  0  0  0  0  0  0  0  0  0
    5.5750   -2.9167    0.0000 C   0  0  0  0  0  0  0  0  0  0  0  0
    6.2750   -3.3542    0.0000 N   0  0  0  0  0  0  0  0  0  0  0  0
    4.8125   -4.1167    0.0000 C   0  0  0  0  0  0  0  0  0  0  0  0
    5.6542   -5.3792    0.0000 C   0  0  0  0  0  0  0  0  0  0  0  0
    6.4667   -5.4917    0.0000 C   0  0  0  0  0  0  0  0  0  0  0  0
    6.8292   -4.7667    0.0000 S   0  0  0  0  0  0  0  0  0  0  0  0
    6.2625   -6.9042    0.0000 N   0  0  3  0  0  0  0  0  0  0  0  0
    4.1500   -2.8542    0.0000 C   0  0  0  0  0  0  0  0  0  0  0  0
    6.7750   -6.2542    0.0000 C   0  0  0  0  0  0  0  0  0  0  0  0
    5.6042   -2.0917    0.0000 S   0  0  0  0  0  0  0  0  0  0  0  0
    6.5625   -7.6792    0.0000 C   0  0  0  0  0  0  0  0  0  0  0  0
    5.1417   -6.0250    0.0000 C   0  0  0  0  0  0  0  0  0  0  0  0
    4.0667   -4.5000    0.0000 O   0  0  0  0  0  0  0  0  0  0  0  0
    5.4542   -6.7917    0.0000 C   0  0  0  0  0  0  0  0  0  0  0  0
    3.4167   -3.2417    0.0000 C   0  0  0  0  0  0  0  0  0  0  0  0
    7.3792   -7.8042    0.0000 O   0  0  0  0  0  0  0  0  0  0  0  0
    6.3375   -1.7042    0.0000 C   0  0  0  0  0  0  0  0  0  0  0  0
    6.4292    0.7833    0.0000 C   0  0  0  0  0  0  0  0  0  0  0  0
    6.3667   -0.8792    0.0000 C   0  0  0  0  0  0  0  0  0  0  0  0
    6.4500    1.6083    0.0000 Cl  0  0  0  0  0  0  0  0  0  0  0  0
    7.1292    0.3333    0.0000 C   0  0  0  0  0  0  0  0  0  0  0  0
    5.7042    0.3875    0.0000 C   0  0  0  0  0  0  0  0  0  0  0  0
    7.1000   -0.4917    0.0000 C   0  0  0  0  0  0  0  0  0  0  0  0
    5.6750   -0.4417    0.0000 C   0  0  0  0  0  0  0  0  0  0  0  0
    4.1792   -2.0292    0.0000 C   0  0  0  0  0  0  0  0  0  0  0  0
    6.0417   -8.3167    0.0000 C   0  0  0  0  0  0  0  0  0  0  0  0
    3.3875   -4.0667    0.0000 C   0  0  0  0  0  0  0  0  0  0  0  0
    2.7167   -2.8042    0.0000 C   0  0  0  0  0  0  0  0  0  0  0  0
    3.4875   -1.5917    0.0000 C   0  0  0  0  0  0  0  0  0  0  0  0
    2.7542   -1.9750    0.0000 C   0  0  0  0  0  0  0  0  0  0  0  0
  2  6  1  0  0  0  0
  3  2  2  0  0  0  0
  4  1  1  0  0  0  0
  5  4  2  0  0  0  0
  6  1  1  0  0  0  0
  7  2  1  0  0  0  0
  8  7  2  0  0  0  0
  9  3  1  0  0  0  0
 10 17  1  0  0  0  0
 11  1  1  0  0  0  0
 12  8  1  0  0  0  0
 13  4  1  0  0  0  0
 14 10  1  0  0  0  0
 15  7  1  0  0  0  0
 16  6  2  0  0  0  0
 17 15  1  0  0  0  0
 18 11  1  0  0  0  0
 19 14  2  0  0  0  0
 20 13  1  0  0  0  0
 21 25  1  0  0  0  0
 22 20  1  0  0  0  0
 23 21  1  0  0  0  0
 24 26  1  0  0  0  0
 25 27  2  0  0  0  0
 26 22  2  0  0  0  0
 27 22  1  0  0  0  0
 28 11  2  0  0  0  0
 29 14  1  0  0  0  0
 30 18  1  0  0  0  0
 31 18  2  0  0  0  0
 32 28  1  0  0  0  0
 33 32  2  0  0  0  0
  3  5  1  0  0  0  0
 31 33  1  0  0  0  0
  8  9  1  0  0  0  0
 12 10  1  0  0  0  0
 24 21  2  0  0  0  0
M  END
> <IDNUMBER>
F3222-2276

> <Chemical_Name>
11-acetyl-5-{[(4-chlorophenyl)methyl]sulfanyl}-4-(2-methylphenyl)-8-thia-4,6,11-triazatricyclo[7.4.0.0^{2,7}]trideca-1(9),2(7),5-trien-3-one

> <CAS>
1216893-50-3

> <PriceCoeff>
1.00

> <MW>
496.04

> <Description>
solid

> <FSP3>
0.24

> <clogP>
4.85

> <TPSA>
106.52

> <Acceptor>
3

> <Donor>
0

> <RotBonds>
5

> <HAC>
33

> <Collection>
General

> <Reference_compound>
CHEMBL577016

> <Similarity>
0.9130

$$$$
F3222-2459
  -ISIS-  06222321462D

 36 40  0  0  0  0  0  0  0  0999 V2000
    4.4042   -9.5042    0.0000 C   0  0  0  0  0  0  0  0  0  0  0  0
    3.6917   -9.0917    0.0000 C   0  0  0  0  0  0  0  0  0  0  0  0
    5.1167   -8.2625    0.0000 N   0  0  3  0  0  0  0  0  0  0  0  0
    4.4000   -7.8417    0.0000 C   0  0  0  0  0  0  0  0  0  0  0  0
    3.6917   -8.2625    0.0000 N   0  0  0  0  0  0  0  0  0  0  0  0
    5.1292   -9.0917    0.0000 C   0  0  0  0  0  0  0  0  0  0  0  0
    4.2292  -10.3167    0.0000 C   0  0  0  0  0  0  0  0  0  0  0  0
    3.4167  -10.4042    0.0000 C   0  0  0  0  0  0  0  0  0  0  0  0
    3.0750   -9.6542    0.0000 S   0  0  0  0  0  0  0  0  0  0  0  0
    3.5542  -11.8292    0.0000 N   0  0  3  0  0  0  0  0  0  0  0  0
    3.0667  -11.1625    0.0000 C   0  0  0  0  0  0  0  0  0  0  0  0
    4.4042   -7.0167    0.0000 S   0  0  0  0  0  0  0  0  0  0  0  0
    3.2250  -12.6000    0.0000 C   0  0  0  0  0  0  0  0  0  0  0  0
    5.8292   -7.8417    0.0000 C   0  0  0  0  0  0  0  0  0  0  0  0
    4.4042   -5.3750    0.0000 N   0  0  0  0  0  0  0  0  0  0  0  0
    4.7167  -10.9917    0.0000 C   0  0  0  0  0  0  0  0  0  0  0  0
    5.1167   -5.7792    0.0000 C   0  0  0  0  0  0  0  0  0  0  0  0
    5.8417   -9.5125    0.0000 O   0  0  0  0  0  0  0  0  0  0  0  0
    3.6917   -5.7792    0.0000 C   0  0  0  0  0  0  0  0  0  0  0  0
    4.3750  -11.7500    0.0000 C   0  0  0  0  0  0  0  0  0  0  0  0
    2.3917  -12.6917    0.0000 O   0  0  0  0  0  0  0  0  0  0  0  0
    2.9792   -5.3750    0.0000 C   0  0  0  0  0  0  0  0  0  0  0  0
    5.8292   -5.3750    0.0000 O   0  0  0  0  0  0  0  0  0  0  0  0
    5.1167   -6.6042    0.0000 C   0  0  0  0  0  0  0  0  0  0  0  0
    5.8292   -7.0167    0.0000 C   0  0  0  0  0  0  0  0  0  0  0  0
    6.5542   -8.2625    0.0000 C   0  0  0  0  0  0  0  0  0  0  0  0
    2.9792   -4.5417    0.0000 F   0  0  0  0  0  0  0  0  0  0  0  0
    6.5500   -6.6042    0.0000 C   0  0  0  0  0  0  0  0  0  0  0  0
    7.2750   -7.8417    0.0000 C   0  0  0  0  0  0  0  0  0  0  0  0
    7.2750   -7.0167    0.0000 C   0  0  0  0  0  0  0  0  0  0  0  0
    3.7167  -13.2750    0.0000 C   0  0  0  0  0  0  0  0  0  0  0  0
    3.6917   -6.6042    0.0000 C   0  0  0  0  0  0  0  0  0  0  0  0
    2.2542   -5.7792    0.0000 C   0  0  0  0  0  0  0  0  0  0  0  0
    8.0000   -6.6042    0.0000 C   0  0  0  0  0  0  0  0  0  0  0  0
    2.9792   -7.0167    0.0000 C   0  0  0  0  0  0  0  0  0  0  0  0
    2.2542   -6.6042    0.0000 C   0  0  0  0  0  0  0  0  0  0  0  0
  2  1  2  0  0  0  0
  3  6  1  0  0  0  0
  4  3  1  0  0  0  0
  5  2  1  0  0  0  0
  6  1  1  0  0  0  0
  7  1  1  0  0  0  0
  8  7  2  0  0  0  0
  9  2  1  0  0  0  0
 10 20  1  0  0  0  0
 11  8  1  0  0  0  0
 12  4  1  0  0  0  0
 13 10  1  0  0  0  0
 14  3  1  0  0  0  0
 15 17  1  0  0  0  0
 16  7  1  0  0  0  0
 17 24  1  0  0  0  0
 18  6  2  0  0  0  0
 19 15  1  0  0  0  0
 20 16  1  0  0  0  0
 21 13  2  0  0  0  0
 22 19  1  0  0  0  0
 23 17  2  0  0  0  0
 24 12  1  0  0  0  0
 25 14  2  0  0  0  0
 26 14  1  0  0  0  0
 27 22  1  0  0  0  0
 28 25  1  0  0  0  0
 29 26  2  0  0  0  0
 30 29  1  0  0  0  0
 31 13  1  0  0  0  0
 32 19  2  0  0  0  0
 33 22  2  0  0  0  0
 34 30  1  0  0  0  0
 35 32  1  0  0  0  0
 36 35  2  0  0  0  0
  8  9  1  0  0  0  0
  5  4  2  0  0  0  0
 11 10  1  0  0  0  0
 28 30  2  0  0  0  0
 33 36  1  0  0  0  0
M  END
> <IDNUMBER>
F3222-2459

> <Chemical_Name>
2-{[11-acetyl-4-(4-methylphenyl)-3-oxo-8-thia-4,6,11-triazatricyclo[7.4.0.0^{2,7}]trideca-1(9),2(7),5-trien-5-yl]sulfanyl}-N-(2-fluorophenyl)acetamide

> <CAS>
1189958-55-1

> <PriceCoeff>
1.00

> <MW>
522.61

> <Description>
solid

> <FSP3>
0.23

> <clogP>
2.90

> <TPSA>
135.62

> <Acceptor>
4

> <Donor>
1

> <RotBonds>
6

> <HAC>
36

> <Collection>
General

> <Reference_compound>
CHEMBL577016

> <Similarity>
0.8820

$$$$
F3222-1857
  -ISIS-  06222321462D

 33 37  0  0  0  0  0  0  0  0999 V2000
    3.3125   -0.5292    0.0000 N   0  0  3  0  0  0  0  0  0  0  0  0
    1.8917   -0.5250    0.0000 C   0  0  0  0  0  0  0  0  0  0  0  0
    1.8917   -1.3542    0.0000 C   0  0  0  0  0  0  0  0  0  0  0  0
    3.3125   -1.3542    0.0000 C   0  0  0  0  0  0  0  0  0  0  0  0
    2.6042   -1.7625    0.0000 N   0  0  0  0  0  0  0  0  0  0  0  0
    2.6042   -0.1125    0.0000 C   0  0  0  0  0  0  0  0  0  0  0  0
    1.1000   -0.2667    0.0000 C   0  0  0  0  0  0  0  0  0  0  0  0
    0.6042   -0.9417    0.0000 C   0  0  0  0  0  0  0  0  0  0  0  0
    1.1000   -1.6167    0.0000 S   0  0  0  0  0  0  0  0  0  0  0  0
    4.0167   -0.1250    0.0000 C   0  0  0  0  0  0  0  0  0  0  0  0
   -0.5708   -0.0917    0.0000 N   0  0  3  0  0  0  0  0  0  0  0  0
   -0.2250   -0.8542    0.0000 C   0  0  0  0  0  0  0  0  0  0  0  0
    4.0167    0.6958    0.0000 C   0  0  0  0  0  0  0  0  0  0  0  0
    4.0167   -1.7667    0.0000 S   0  0  0  0  0  0  0  0  0  0  0  0
   -1.3833   -0.0042    0.0000 C   0  0  0  0  0  0  0  0  0  0  0  0
    0.7625    0.4958    0.0000 C   0  0  0  0  0  0  0  0  0  0  0  0
    4.7292    1.1000    0.0000 C   0  0  0  0  0  0  0  0  0  0  0  0
    2.6042    0.7000    0.0000 O   0  0  0  0  0  0  0  0  0  0  0  0
   -0.0708    0.5875    0.0000 C   0  0  0  0  0  0  0  0  0  0  0  0
    4.7292   -0.5417    0.0000 C   0  0  0  0  0  0  0  0  0  0  0  0
    5.4500    0.6958    0.0000 C   0  0  0  0  0  0  0  0  0  0  0  0
   -1.8625   -0.6667    0.0000 O   0  0  0  0  0  0  0  0  0  0  0  0
    5.4417   -0.1375    0.0000 C   0  0  0  0  0  0  0  0  0  0  0  0
    4.0167   -2.5875    0.0000 C   0  0  0  0  0  0  0  0  0  0  0  0
    4.7250    1.9250    0.0000 Cl  0  0  0  0  0  0  0  0  0  0  0  0
    4.7292   -3.0000    0.0000 C   0  0  0  0  0  0  0  0  0  0  0  0
   -1.7125    0.7458    0.0000 C   0  0  0  0  0  0  0  0  0  0  0  0
    6.1625    1.1125    0.0000 C   0  0  0  0  0  0  0  0  0  0  0  0
    4.7292   -3.8250    0.0000 C   0  0  0  0  0  0  0  0  0  0  0  0
    5.4417   -2.5792    0.0000 C   0  0  0  0  0  0  0  0  0  0  0  0
    6.1625   -2.9917    0.0000 C   0  0  0  0  0  0  0  0  0  0  0  0
    5.4500   -4.2375    0.0000 C   0  0  0  0  0  0  0  0  0  0  0  0
    6.1667   -3.8250    0.0000 C   0  0  0  0  0  0  0  0  0  0  0  0
  2  6  1  0  0  0  0
  3  2  2  0  0  0  0
  4  1  1  0  0  0  0
  5  4  2  0  0  0  0
  6  1  1  0  0  0  0
  7  2  1  0  0  0  0
  8  7  2  0  0  0  0
  9  3  1  0  0  0  0
 10  1  1  0  0  0  0
 11 19  1  0  0  0  0
 12  8  1  0  0  0  0
 13 10  1  0  0  0  0
 14  4  1  0  0  0  0
 15 11  1  0  0  0  0
 16  7  1  0  0  0  0
 17 13  2  0  0  0  0
 18  6  2  0  0  0  0
 19 16  1  0  0  0  0
 20 10  2  0  0  0  0
 21 23  2  0  0  0  0
 22 15  2  0  0  0  0
 23 20  1  0  0  0  0
 24 14  1  0  0  0  0
 25 17  1  0  0  0  0
 26 24  1  0  0  0  0
 27 15  1  0  0  0  0
 28 21  1  0  0  0  0
 29 26  2  0  0  0  0
 30 26  1  0  0  0  0
 31 30  2  0  0  0  0
 32 29  1  0  0  0  0
 33 31  1  0  0  0  0
  5  3  1  0  0  0  0
 17 21  1  0  0  0  0
  8  9  1  0  0  0  0
 11 12  1  0  0  0  0
 32 33  2  0  0  0  0
M  END
> <IDNUMBER>
F3222-1857

> <Chemical_Name>
11-acetyl-5-(benzylsulfanyl)-4-(3-chloro-4-methylphenyl)-8-thia-4,6,11-triazatricyclo[7.4.0.0^{2,7}]trideca-1(9),2(7),5-trien-3-one

> <CAS>
892304-54-0

> <PriceCoeff>
1.00

> <MW>
496.04

> <Description>
solid

> <FSP3>
0.24

> <clogP>
4.85

> <TPSA>
106.52

> <Acceptor>
3

> <Donor>
0

> <RotBonds>
5

> <HAC>
33

> <Collection>
General

> <Reference_compound>
CHEMBL577016

> <Similarity>
0.9130

$$$$
F1360-0685
  -ISIS-  06222321452D

 30 33  0  0  0  0  0  0  0  0999 V2000
   -1.7708    1.2833    0.0000 C   0  0  0  0  0  0  0  0  0  0  0  0
   -1.6500    0.9000    0.0000 C   0  0  0  0  0  0  0  0  0  0  0  0
   -1.1333    1.4833    0.0000 N   0  0  3  0  0  0  0  0  0  0  0  0
   -0.9958    1.1000    0.0000 C   0  0  0  0  0  0  0  0  0  0  0  0
   -1.2708    0.8000    0.0000 N   0  0  0  0  0  0  0  0  0  0  0  0
   -1.5125    1.5625    0.0000 C   0  0  0  0  0  0  0  0  0  0  0  0
   -1.9708    0.6833    0.0000 S   0  0  0  0  0  0  0  0  0  0  0  0
   -2.1500    1.2833    0.0000 C   0  0  0  0  0  0  0  0  0  0  0  0
   -2.2708    0.9000    0.0000 C   0  0  0  0  0  0  0  0  0  0  0  0
   -0.5958    1.0208    0.0000 S   0  0  0  0  0  0  0  0  0  0  0  0
    0.3042    1.5625    0.0000 N   0  0  0  0  0  0  0  0  0  0  0  0
   -0.8708    1.7833    0.0000 C   0  0  0  0  0  0  0  0  0  0  0  0
    0.0500    1.2625    0.0000 C   0  0  0  0  0  0  0  0  0  0  0  0
   -1.6333    1.9625    0.0000 O   0  0  0  0  0  0  0  0  0  0  0  0
    0.7042    1.5000    0.0000 C   0  0  0  0  0  0  0  0  0  0  0  0
    0.1875    0.8833    0.0000 O   0  0  0  0  0  0  0  0  0  0  0  0
    0.8500    1.1208    0.0000 C   0  0  0  0  0  0  0  0  0  0  0  0
   -0.3333    1.3208    0.0000 C   0  0  0  0  0  0  0  0  0  0  0  0
   -2.3958    1.6000    0.0000 C   0  0  0  0  0  0  0  0  0  0  0  0
   -2.6500    0.7625    0.0000 C   0  0  0  0  0  0  0  0  0  0  0  0
    0.9500    1.8000    0.0000 C   0  0  0  0  0  0  0  0  0  0  0  0
   -0.9333    2.1833    0.0000 C   0  0  0  0  0  0  0  0  0  0  0  0
   -0.5125    1.6458    0.0000 C   0  0  0  0  0  0  0  0  0  0  0  0
    0.5875    0.8208    0.0000 C   0  0  0  0  0  0  0  0  0  0  0  0
    1.2292    1.0625    0.0000 C   0  0  0  0  0  0  0  0  0  0  0  0
    1.3500    1.7208    0.0000 C   0  0  0  0  0  0  0  0  0  0  0  0
   -0.2125    1.8833    0.0000 C   0  0  0  0  0  0  0  0  0  0  0  0
   -0.6125    2.4208    0.0000 C   0  0  0  0  0  0  0  0  0  0  0  0
    1.4875    1.3833    0.0000 C   0  0  0  0  0  0  0  0  0  0  0  0
   -0.2708    2.2833    0.0000 C   0  0  0  0  0  0  0  0  0  0  0  0
  2  1  2  0  0  0  0
  3  6  1  0  0  0  0
  4  3  1  0  0  0  0
  5  2  1  0  0  0  0
  6  1  1  0  0  0  0
  7  2  1  0  0  0  0
  8  1  1  0  0  0  0
  9  8  2  0  0  0  0
 10  4  1  0  0  0  0
 11 13  1  0  0  0  0
 12  3  1  0  0  0  0
 13 18  1  0  0  0  0
 14  6  2  0  0  0  0
 15 11  1  0  0  0  0
 16 13  2  0  0  0  0
 17 15  1  0  0  0  0
 18 10  1  0  0  0  0
 19  8  1  0  0  0  0
 20  9  1  0  0  0  0
 21 15  2  0  0  0  0
 22 12  2  0  0  0  0
 23 12  1  0  0  0  0
 24 17  1  0  0  0  0
 25 17  2  0  0  0  0
 26 21  1  0  0  0  0
 27 23  2  0  0  0  0
 28 22  1  0  0  0  0
 29 26  2  0  0  0  0
 30 27  1  0  0  0  0
  9  7  1  0  0  0  0
  5  4  2  0  0  0  0
 28 30  2  0  0  0  0
 25 29  1  0  0  0  0
M  END
> <IDNUMBER>
F1360-0685

> <Chemical_Name>
2-({5,6-dimethyl-4-oxo-3-phenyl-3H,4H-thieno[2,3-d]pyrimidin-2-yl}sulfanyl)-N-(2-methylphenyl)acetamide

> <CAS>
354795-47-4

> <PriceCoeff>
1.00

> <MW>
435.56

> <Description>
solid

> <FSP3>
0.17

> <clogP>
4.90

> <TPSA>
115.31

> <Acceptor>
3

> <Donor>
1

> <RotBonds>
5

> <HAC>
30

> <Collection>
General

> <Reference_compound>
CHEMBL577016

> <Similarity>
0.8410

$$$$
F1065-0450
  -ISIS-  06222321142D

 27 29  0  0  0  0  0  0  0  0999 V2000
   -1.3958   -0.0667    0.0000 N   0  0  3  0  0  0  0  0  0  0  0  0
   -1.4458    1.0500    0.0000 C   0  0  0  0  0  0  0  0  0  0  0  0
   -2.1500   -1.8792    0.0000 C   0  0  0  0  0  0  0  0  0  0  0  0
   -2.2833   -0.7375    0.0000 C   0  0  0  0  0  0  0  0  0  0  0  0
   -0.2958   -0.4000    0.0000 C   0  0  0  0  0  0  0  0  0  0  0  0
   -1.1125   -2.3042    0.0000 N   0  3  0  0  0  0  0  0  0  0  0  0
    0.3167    0.5500    0.0000 C   0  0  3  0  0  0  0  0  0  0  0  0
   -0.3708    1.4333    0.0000 C   0  0  0  0  0  0  0  0  0  0  0  0
    3.1042    1.6125    0.0000 C   0  0  0  0  0  0  0  0  0  0  0  0
    1.4500    0.6000    0.0000 S   0  0  0  0  0  0  0  0  0  0  0  0
    1.9875    1.5958    0.0000 C   0  0  0  0  0  0  0  0  0  0  0  0
    3.7292    0.6333    0.0000 C   0  0  0  0  0  0  0  0  0  0  0  0
   -3.3458   -0.3042    0.0000 C   0  0  0  0  0  0  0  0  0  0  0  0
   -3.0500   -2.5792    0.0000 C   0  0  0  0  0  0  0  0  0  0  0  0
   -0.8708   -3.4375    0.0000 O   0  5  0  0  0  0  0  0  0  0  0  0
   -2.3708    1.7000    0.0000 O   0  0  0  0  0  0  0  0  0  0  0  0
   -0.3000   -1.7542    0.0000 O   0  0  0  0  0  0  0  0  0  0  0  0
    0.1042   -1.4667    0.0000 O   0  0  0  0  0  0  0  0  0  0  0  0
    4.8792    0.6458    0.0000 O   0  0  0  0  0  0  0  0  0  0  0  0
    3.1875   -0.3792    0.0000 O   0  0  0  0  0  0  0  0  0  0  0  0
   -4.2708   -0.9875    0.0000 C   0  0  0  0  0  0  0  0  0  0  0  0
   -4.1000   -2.1292    0.0000 C   0  0  0  0  0  0  0  0  0  0  0  0
    3.6500    2.6125    0.0000 C   0  0  0  0  0  0  0  0  0  0  0  0
    1.4000    2.5500    0.0000 C   0  0  0  0  0  0  0  0  0  0  0  0
   -4.9958   -2.8292    0.0000 C   0  0  0  0  0  0  0  0  0  0  0  0
    3.0542    3.5708    0.0000 C   0  0  0  0  0  0  0  0  0  0  0  0
    1.9542    3.5458    0.0000 C   0  0  0  0  0  0  0  0  0  0  0  0
  2  1  1  0  0  0  0
  3  4  1  0  0  0  0
  4  1  1  0  0  0  0
  5  1  1  0  0  0  0
  6  3  1  0  0  0  0
  7  5  1  0  0  0  0
  8  2  1  0  0  0  0
  9 11  2  0  0  0  0
 10  7  1  0  0  0  0
 11 10  1  0  0  0  0
 12  9  1  0  0  0  0
 13  4  2  0  0  0  0
 14  3  2  0  0  0  0
 15  6  1  0  0  0  0
 16  2  2  0  0  0  0
 17  6  2  0  0  0  0
 18  5  2  0  0  0  0
 19 12  2  0  0  0  0
 20 12  1  0  0  0  0
 21 13  1  0  0  0  0
 22 21  2  0  0  0  0
 23  9  1  0  0  0  0
 24 11  1  0  0  0  0
 25 22  1  0  0  0  0
 26 27  1  0  0  0  0
 27 24  2  0  0  0  0
  8  7  1  0  0  0  0
 22 14  1  0  0  0  0
 23 26  2  0  0  0  0
M  CHG  2   6   1  15  -1
M  END
> <IDNUMBER>
F1065-0450

> <Chemical_Name>
2-{[1-(4-methyl-2-nitrophenyl)-2,5-dioxopyrrolidin-3-yl]sulfanyl}benzoic acid

> <CAS>
302804-35-9

> <PriceCoeff>
1.00

> <MW>
386.38

> <Description>
solid

> <FSP3>
0.17

> <clogP>
2.91

> <TPSA>
145.80

> <Acceptor>
6

> <Donor>
0

> <RotBonds>
5

> <HAC>
27

> <Collection>
General

$$$$
F2099-0132
  -ISIS-  06222321462D

 30 32  0  0  0  0  0  0  0  0999 V2000
   -3.1583    9.7417    0.0000 S   0  0  3  0  0  0  0  0  0  0  0  0
   -3.1583    8.9917    0.0000 C   0  0  0  0  0  0  0  0  0  0  0  0
   -2.5083    1.1208    0.0000 N   0  3  0  0  0  0  0  0  0  0  0  0
   -2.5083    3.3708    0.0000 C   0  0  0  0  0  0  0  0  0  0  0  0
   -2.5083    4.1167    0.0000 C   0  0  0  0  0  0  0  0  0  0  0  0
   -2.5083    8.6167    0.0000 N   0  0  0  0  0  0  0  0  0  0  0  0
   -3.1583    2.9958    0.0000 C   0  0  0  0  0  0  0  0  0  0  0  0
   -2.5083    7.8667    0.0000 N   0  0  0  0  0  0  0  0  0  0  0  0
   -2.5083    1.8708    0.0000 C   0  0  0  0  0  0  0  0  0  0  0  0
   -3.1583    2.2458    0.0000 C   0  0  0  0  0  0  0  0  0  0  0  0
   -3.1583    4.4917    0.0000 N   0  0  0  0  0  0  0  0  0  0  0  0
   -1.8583    2.9958    0.0000 C   0  0  0  0  0  0  0  0  0  0  0  0
   -3.1583    0.7458    0.0000 O   0  5  0  0  0  0  0  0  0  0  0  0
   -3.1583    7.4917    0.0000 C   0  0  0  0  0  0  0  0  0  0  0  0
   -3.9083    9.7417    0.0000 O   0  0  0  0  0  0  0  0  0  0  0  0
   -2.4083    9.7417    0.0000 O   0  0  0  0  0  0  0  0  0  0  0  0
   -1.8583    0.7458    0.0000 O   0  0  0  0  0  0  0  0  0  0  0  0
   -3.8083    8.6167    0.0000 C   0  0  0  0  0  0  0  0  0  0  0  0
   -1.8625    4.4917    0.0000 O   0  0  0  0  0  0  0  0  0  0  0  0
   -3.1583    6.7417    0.0000 C   0  0  0  0  0  0  0  0  0  0  0  0
   -1.8583    2.2458    0.0000 C   0  0  0  0  0  0  0  0  0  0  0  0
   -3.8083    7.8667    0.0000 C   0  0  0  0  0  0  0  0  0  0  0  0
   -3.1583    5.2417    0.0000 C   0  0  0  0  0  0  0  0  0  0  0  0
   -2.5083    6.3667    0.0000 C   0  0  0  0  0  0  0  0  0  0  0  0
   -3.8083    6.3667    0.0000 C   0  0  0  0  0  0  0  0  0  0  0  0
   -3.8083    3.3750    0.0000 Cl  0  0  0  0  0  0  0  0  0  0  0  0
   -3.1583   10.4917    0.0000 C   0  0  0  0  0  0  0  0  0  0  0  0
   -3.8083    5.6167    0.0000 C   0  0  0  0  0  0  0  0  0  0  0  0
   -2.5083    5.6167    0.0000 C   0  0  0  0  0  0  0  0  0  0  0  0
   -3.8000   10.8667    0.0000 C   0  0  0  0  0  0  0  0  0  0  0  0
  2  1  1  0  0  0  0
  3  9  1  0  0  0  0
  4  5  1  0  0  0  0
  5 11  1  0  0  0  0
  6  2  2  0  0  0  0
  7  4  2  0  0  0  0
  8  6  1  0  0  0  0
  9 21  1  0  0  0  0
 10  7  1  0  0  0  0
 11 23  1  0  0  0  0
 12  4  1  0  0  0  0
 13  3  1  0  0  0  0
 14 22  1  0  0  0  0
 15  1  2  0  0  0  0
 16  1  2  0  0  0  0
 17  3  2  0  0  0  0
 18  2  1  0  0  0  0
 19  5  2  0  0  0  0
 20 14  1  0  0  0  0
 21 12  2  0  0  0  0
 22 18  2  0  0  0  0
 23 28  2  0  0  0  0
 24 20  1  0  0  0  0
 25 20  2  0  0  0  0
 26  7  1  0  0  0  0
 27  1  1  0  0  0  0
 28 25  1  0  0  0  0
 29 24  2  0  0  0  0
 30 27  1  0  0  0  0
 14  8  2  0  0  0  0
 29 23  1  0  0  0  0
 10  9  2  0  0  0  0
M  CHG  2   3   1  13  -1
M  END
> <IDNUMBER>
F2099-0132

> <Chemical_Name>
2-chloro-N-{4-[6-(ethanesulfonyl)pyridazin-3-yl]phenyl}-4-nitrobenzamide

> <CAS>
1005294-64-3

> <PriceCoeff>
1.00

> <MW>
446.86

> <Description>
solid

> <FSP3>
0.11

> <clogP>
2.05

> <TPSA>
140.54

> <Acceptor>
7

> <Donor>
1

> <RotBonds>
6

> <HAC>
30

> <Collection>
General

$$$$
F2098-0132
  -ISIS-  06222321142D

 30 32  0  0  0  0  0  0  0  0999 V2000
    4.2667   -1.1542    0.0000 S   0  0  3  0  0  0  0  0  0  0  0  0
    4.9875   -1.5667    0.0000 C   0  0  0  0  0  0  0  0  0  0  0  0
    8.5375   -8.5917    0.0000 N   0  3  0  0  0  0  0  0  0  0  0  0
    8.5375   -6.1167    0.0000 C   0  0  0  0  0  0  0  0  0  0  0  0
    8.5417   -5.2917    0.0000 C   0  0  0  0  0  0  0  0  0  0  0  0
    5.7000   -1.1542    0.0000 N   0  0  0  0  0  0  0  0  0  0  0  0
    7.8250   -6.5292    0.0000 C   0  0  0  0  0  0  0  0  0  0  0  0
    6.4167   -1.5667    0.0000 N   0  0  0  0  0  0  0  0  0  0  0  0
    8.5375   -7.7667    0.0000 C   0  0  0  0  0  0  0  0  0  0  0  0
    7.8250   -7.3542    0.0000 C   0  0  0  0  0  0  0  0  0  0  0  0
    7.8292   -4.8750    0.0000 N   0  0  0  0  0  0  0  0  0  0  0  0
    9.2542   -6.5292    0.0000 C   0  0  0  0  0  0  0  0  0  0  0  0
    6.4167   -2.3917    0.0000 C   0  0  0  0  0  0  0  0  0  0  0  0
    7.8250   -9.0042    0.0000 O   0  5  0  0  0  0  0  0  0  0  0  0
    3.8500   -1.8750    0.0000 O   0  0  0  0  0  0  0  0  0  0  0  0
    4.6792   -0.4292    0.0000 O   0  0  0  0  0  0  0  0  0  0  0  0
    7.1292   -2.8042    0.0000 C   0  0  0  0  0  0  0  0  0  0  0  0
    9.2542   -9.0042    0.0000 O   0  0  0  0  0  0  0  0  0  0  0  0
    4.9875   -2.3917    0.0000 C   0  0  0  0  0  0  0  0  0  0  0  0
    9.2542   -4.8792    0.0000 O   0  0  0  0  0  0  0  0  0  0  0  0
    7.8417   -4.0500    0.0000 C   0  0  0  0  0  0  0  0  0  0  0  0
    9.2542   -7.3542    0.0000 C   0  0  0  0  0  0  0  0  0  0  0  0
    7.1292   -3.6375    0.0000 C   0  0  0  0  0  0  0  0  0  0  0  0
    5.7000   -2.8042    0.0000 C   0  0  0  0  0  0  0  0  0  0  0  0
    7.1042   -6.1042    0.0000 Cl  0  0  0  0  0  0  0  0  0  0  0  0
    3.5417   -0.7375    0.0000 C   0  0  0  0  0  0  0  0  0  0  0  0
    7.8417   -2.3917    0.0000 C   0  0  0  0  0  0  0  0  0  0  0  0
    8.5625   -2.8042    0.0000 C   0  0  0  0  0  0  0  0  0  0  0  0
    8.5625   -3.6375    0.0000 C   0  0  0  0  0  0  0  0  0  0  0  0
    3.5417    0.0958    0.0000 C   0  0  0  0  0  0  0  0  0  0  0  0
  2  1  1  0  0  0  0
  3  9  1  0  0  0  0
  4  5  1  0  0  0  0
  5 11  1  0  0  0  0
  6  2  2  0  0  0  0
  7  4  2  0  0  0  0
  8  6  1  0  0  0  0
  9 22  1  0  0  0  0
 10  7  1  0  0  0  0
 11 21  1  0  0  0  0
 12  4  1  0  0  0  0
 13 24  1  0  0  0  0
 14  3  1  0  0  0  0
 15  1  2  0  0  0  0
 16  1  2  0  0  0  0
 17 13  1  0  0  0  0
 18  3  2  0  0  0  0
 19  2  1  0  0  0  0
 20  5  2  0  0  0  0
 21 23  1  0  0  0  0
 22 12  2  0  0  0  0
 23 17  2  0  0  0  0
 24 19  2  0  0  0  0
 25  7  1  0  0  0  0
 26  1  1  0  0  0  0
 27 17  1  0  0  0  0
 28 27  2  0  0  0  0
 29 28  1  0  0  0  0
 30 26  1  0  0  0  0
 13  8  2  0  0  0  0
 21 29  2  0  0  0  0
 10  9  2  0  0  0  0
M  CHG  2   3   1  14  -1
M  END
> <IDNUMBER>
F2098-0132

> <Chemical_Name>
2-chloro-N-{3-[6-(ethanesulfonyl)pyridazin-3-yl]phenyl}-4-nitrobenzamide

> <CAS>
946272-41-9

> <PriceCoeff>
1.00

> <MW>
446.86

> <Description>
solid

> <FSP3>
0.11

> <clogP>
2.05

> <TPSA>
140.54

> <Acceptor>
7

> <Donor>
1

> <RotBonds>
6

> <HAC>
30

> <Collection>
General

$$$$
F3215-0290
  -ISIS-  06222321152D

 28 30  0  0  0  0  0  0  0  0999 V2000
    3.5042   -0.8542    0.0000 C   0  0  0  0  0  0  0  0  0  0  0  0
    2.4542   -1.6667    0.0000 C   0  0  0  0  0  0  0  0  0  0  0  0
    2.6917   -0.8792    0.0000 C   0  0  0  0  0  0  0  0  0  0  0  0
    2.1625   -3.2792    0.0000 N   0  3  0  0  0  0  0  0  0  0  0  0
    1.6792   -1.9417    0.0000 C   0  0  0  0  0  0  0  0  0  0  0  0
    3.9667   -0.1667    0.0000 C   0  0  0  0  0  0  0  0  0  0  0  0
    3.7792   -1.6375    0.0000 C   0  0  0  0  0  0  0  0  0  0  0  0
    1.5292   -2.7500    0.0000 C   0  0  0  0  0  0  0  0  0  0  0  0
    3.1292   -2.1375    0.0000 O   0  0  0  0  0  0  0  0  0  0  0  0
    4.7917   -0.2292    0.0000 N   0  0  0  0  0  0  0  0  0  0  0  0
    0.7542   -3.0250    0.0000 C   0  0  0  0  0  0  0  0  0  0  0  0
    1.0542   -1.4042    0.0000 C   0  0  0  0  0  0  0  0  0  0  0  0
    2.0042   -4.0917    0.0000 O   0  5  0  0  0  0  0  0  0  0  0  0
    2.9417   -3.0042    0.0000 O   0  0  0  0  0  0  0  0  0  0  0  0
    3.6125    0.5708    0.0000 O   0  0  0  0  0  0  0  0  0  0  0  0
    6.6500    2.4958    0.0000 C   0  0  0  0  0  0  0  0  0  0  0  0
    6.1792    1.8125    0.0000 C   0  0  0  0  0  0  0  0  0  0  0  0
    6.2917    3.2375    0.0000 O   0  0  0  0  0  0  0  0  0  0  0  0
    5.2542    0.4500    0.0000 C   0  0  0  0  0  0  0  0  0  0  0  0
    0.1292   -2.4875    0.0000 C   0  0  0  0  0  0  0  0  0  0  0  0
    5.3542    1.8708    0.0000 C   0  0  0  0  0  0  0  0  0  0  0  0
    6.5417    1.0708    0.0000 C   0  0  0  0  0  0  0  0  0  0  0  0
    0.2792   -1.6750    0.0000 C   0  0  0  0  0  0  0  0  0  0  0  0
    4.8917    1.1958    0.0000 C   0  0  0  0  0  0  0  0  0  0  0  0
    6.0750    0.3875    0.0000 C   0  0  0  0  0  0  0  0  0  0  0  0
   -0.5875   -2.8917    0.0000 Cl  0  0  0  0  0  0  0  0  0  0  0  0
    4.5750   -1.8667    0.0000 C   0  0  0  0  0  0  0  0  0  0  0  0
    7.4667    2.4333    0.0000 C   0  0  0  0  0  0  0  0  0  0  0  0
  2  3  2  0  0  0  0
  3  1  1  0  0  0  0
  4  8  1  0  0  0  0
  5  2  1  0  0  0  0
  6  1  1  0  0  0  0
  7  1  2  0  0  0  0
  8  5  1  0  0  0  0
  9  7  1  0  0  0  0
 10  6  1  0  0  0  0
 11  8  2  0  0  0  0
 12  5  2  0  0  0  0
 13  4  1  0  0  0  0
 14  4  2  0  0  0  0
 15  6  2  0  0  0  0
 16 17  1  0  0  0  0
 17 22  2  0  0  0  0
 18 16  2  0  0  0  0
 19 10  1  0  0  0  0
 20 23  2  0  0  0  0
 21 24  2  0  0  0  0
 22 25  1  0  0  0  0
 23 12  1  0  0  0  0
 24 19  1  0  0  0  0
 25 19  2  0  0  0  0
 26 20  1  0  0  0  0
 27  7  1  0  0  0  0
 28 16  1  0  0  0  0
  2  9  1  0  0  0  0
 17 21  1  0  0  0  0
 11 20  1  0  0  0  0
M  CHG  2   4   1  13  -1
M  END
> <IDNUMBER>
F3215-0290

> <Chemical_Name>
N-(4-acetylphenyl)-5-(4-chloro-2-nitrophenyl)-2-methylfuran-3-carboxamide

> <CAS>
876873-87-9

> <PriceCoeff>
1.00

> <MW>
398.80

> <Description>
solid

> <FSP3>
0.10

> <clogP>
4.48

> <TPSA>
102.45

> <Acceptor>
5

> <Donor>
1

> <RotBonds>
5

> <HAC>
28

> <Collection>
General

$$$$
F3215-0283
  -ISIS-  06222321442D

 28 30  0  0  0  0  0  0  0  0999 V2000
    3.5042   -0.8542    0.0000 C   0  0  0  0  0  0  0  0  0  0  0  0
    2.4542   -1.6667    0.0000 C   0  0  0  0  0  0  0  0  0  0  0  0
    2.6917   -0.8792    0.0000 C   0  0  0  0  0  0  0  0  0  0  0  0
    2.1625   -3.2792    0.0000 N   0  3  0  0  0  0  0  0  0  0  0  0
    1.6792   -1.9417    0.0000 C   0  0  0  0  0  0  0  0  0  0  0  0
    3.9667   -0.1667    0.0000 C   0  0  0  0  0  0  0  0  0  0  0  0
    3.7792   -1.6375    0.0000 C   0  0  0  0  0  0  0  0  0  0  0  0
    1.5292   -2.7500    0.0000 C   0  0  0  0  0  0  0  0  0  0  0  0
    3.1292   -2.1375    0.0000 O   0  0  0  0  0  0  0  0  0  0  0  0
    4.7917   -0.2292    0.0000 N   0  0  0  0  0  0  0  0  0  0  0  0
    0.7542   -3.0250    0.0000 C   0  0  0  0  0  0  0  0  0  0  0  0
    1.0542   -1.4042    0.0000 C   0  0  0  0  0  0  0  0  0  0  0  0
    2.0042   -4.0917    0.0000 O   0  5  0  0  0  0  0  0  0  0  0  0
    6.5417    1.0708    0.0000 C   0  0  0  0  0  0  0  0  0  0  0  0
    2.9417   -3.0042    0.0000 O   0  0  0  0  0  0  0  0  0  0  0  0
    7.3625    1.0083    0.0000 C   0  0  0  0  0  0  0  0  0  0  0  0
    3.6125    0.5708    0.0000 O   0  0  0  0  0  0  0  0  0  0  0  0
    5.2542    0.4500    0.0000 C   0  0  0  0  0  0  0  0  0  0  0  0
    6.0750    0.3875    0.0000 C   0  0  0  0  0  0  0  0  0  0  0  0
    7.8292    1.6833    0.0000 O   0  0  0  0  0  0  0  0  0  0  0  0
    0.1292   -2.4875    0.0000 C   0  0  0  0  0  0  0  0  0  0  0  0
    0.2792   -1.6750    0.0000 C   0  0  0  0  0  0  0  0  0  0  0  0
   -0.5875   -2.8917    0.0000 Cl  0  0  0  0  0  0  0  0  0  0  0  0
    4.5750   -1.8667    0.0000 C   0  0  0  0  0  0  0  0  0  0  0  0
    6.1792    1.8125    0.0000 C   0  0  0  0  0  0  0  0  0  0  0  0
    5.3542    1.8708    0.0000 C   0  0  0  0  0  0  0  0  0  0  0  0
    4.8917    1.1958    0.0000 C   0  0  0  0  0  0  0  0  0  0  0  0
    7.7167    0.2583    0.0000 C   0  0  0  0  0  0  0  0  0  0  0  0
  2  3  2  0  0  0  0
  3  1  1  0  0  0  0
  4  8  1  0  0  0  0
  5  2  1  0  0  0  0
  6  1  1  0  0  0  0
  7  1  2  0  0  0  0
  8  5  1  0  0  0  0
  9  7  1  0  0  0  0
 10  6  1  0  0  0  0
 11  8  2  0  0  0  0
 12  5  2  0  0  0  0
 13  4  1  0  0  0  0
 14 19  1  0  0  0  0
 15  4  2  0  0  0  0
 16 14  1  0  0  0  0
 17  6  2  0  0  0  0
 18 10  1  0  0  0  0
 19 18  2  0  0  0  0
 20 16  2  0  0  0  0
 21 22  2  0  0  0  0
 22 12  1  0  0  0  0
 23 21  1  0  0  0  0
 24  7  1  0  0  0  0
 25 26  1  0  0  0  0
 26 27  2  0  0  0  0
 27 18  1  0  0  0  0
 28 16  1  0  0  0  0
  2  9  1  0  0  0  0
 25 14  2  0  0  0  0
 11 21  1  0  0  0  0
M  CHG  2   4   1  13  -1
M  END
> <IDNUMBER>
F3215-0283

> <Chemical_Name>
N-(3-acetylphenyl)-5-(4-chloro-2-nitrophenyl)-2-methylfuran-3-carboxamide

> <CAS>
876873-04-0

> <PriceCoeff>
1.00

> <MW>
398.80

> <Description>
solid

> <FSP3>
0.10

> <clogP>
4.48

> <TPSA>
102.45

> <Acceptor>
5

> <Donor>
1

> <RotBonds>
5

> <HAC>
28

> <Collection>
General

$$$$
F3188-0042
  -ISIS-  06222321152D

 26 28  0  0  0  0  0  0  0  0999 V2000
    5.4375   -1.8625    0.0000 N   0  0  3  0  0  0  0  0  0  0  0  0
    5.9292   -2.5292    0.0000 C   0  0  0  0  0  0  0  0  0  0  0  0
    5.9167   -1.1917    0.0000 C   0  0  0  0  0  0  0  0  0  0  0  0
    6.7125   -2.2667    0.0000 C   0  0  3  0  0  0  0  0  0  0  0  0
    6.7042   -1.4417    0.0000 C   0  0  0  0  0  0  0  0  0  0  0  0
    8.8000   -2.8917    0.0000 C   0  0  0  0  0  0  0  0  0  0  0  0
    7.3792   -2.7500    0.0000 S   0  0  0  0  0  0  0  0  0  0  0  0
    8.1292   -2.4125    0.0000 C   0  0  0  0  0  0  0  0  0  0  0  0
    8.7167   -3.7167    0.0000 C   0  0  0  0  0  0  0  0  0  0  0  0
    4.6167   -1.8667    0.0000 C   0  0  0  0  0  0  0  0  0  0  0  0
    5.6750   -3.3125    0.0000 O   0  0  0  0  0  0  0  0  0  0  0  0
    5.6625   -0.4042    0.0000 O   0  0  0  0  0  0  0  0  0  0  0  0
    9.3792   -4.1917    0.0000 O   0  0  0  0  0  0  0  0  0  0  0  0
    4.2000   -1.1542    0.0000 C   0  0  0  0  0  0  0  0  0  0  0  0
    7.9625   -4.0542    0.0000 O   0  0  0  0  0  0  0  0  0  0  0  0
    9.5500   -2.5542    0.0000 C   0  0  0  0  0  0  0  0  0  0  0  0
    3.3750   -1.1625    0.0000 C   0  0  0  0  0  0  0  0  0  0  0  0
    8.2125   -1.5917    0.0000 C   0  0  0  0  0  0  0  0  0  0  0  0
    7.2917   -3.5667    0.0000 C   0  0  0  0  0  0  0  0  0  0  0  0
    2.9542   -0.4500    0.0000 C   0  0  0  0  0  0  0  0  0  0  0  0
    2.9667   -1.8792    0.0000 C   0  0  0  0  0  0  0  0  0  0  0  0
    9.6292   -1.7292    0.0000 C   0  0  0  0  0  0  0  0  0  0  0  0
    8.9542   -1.2542    0.0000 C   0  0  0  0  0  0  0  0  0  0  0  0
    2.1417   -1.8875    0.0000 C   0  0  0  0  0  0  0  0  0  0  0  0
    2.1292   -0.4542    0.0000 C   0  0  0  0  0  0  0  0  0  0  0  0
    1.7250   -1.1667    0.0000 C   0  0  0  0  0  0  0  0  0  0  0  0
  2  1  1  0  0  0  0
  3  1  1  0  0  0  0
  4  2  1  0  0  0  0
  5  3  1  0  0  0  0
  6  8  2  0  0  0  0
  7  4  1  0  0  0  0
  8  7  1  0  0  0  0
  9  6  1  0  0  0  0
 10  1  1  0  0  0  0
 11  2  2  0  0  0  0
 12  3  2  0  0  0  0
 13  9  2  0  0  0  0
 14 10  1  0  0  0  0
 15  9  1  0  0  0  0
 16  6  1  0  0  0  0
 17 14  1  0  0  0  0
 18  8  1  0  0  0  0
 19 15  1  0  0  0  0
 20 17  2  0  0  0  0
 21 17  1  0  0  0  0
 22 23  1  0  0  0  0
 23 18  2  0  0  0  0
 24 21  2  0  0  0  0
 25 20  1  0  0  0  0
 26 24  1  0  0  0  0
  5  4  1  0  0  0  0
 26 25  2  0  0  0  0
 22 16  2  0  0  0  0
M  END
> <IDNUMBER>
F3188-0042

> <Chemical_Name>
methyl 2-{[2,5-dioxo-1-(2-phenylethyl)pyrrolidin-3-yl]sulfanyl}benzoate

> <CAS>
857494-41-8

> <PriceCoeff>
1.00

> <MW>
369.43

> <Description>
solid

> <FSP3>
0.25

> <clogP>
4.30

> <TPSA>
88.98

> <Acceptor>
4

> <Donor>
0

> <RotBonds>
7

> <HAC>
26

> <Collection>
General

$$$$
F3222-2450
  -ISIS-  06222321152D

 32 36  0  0  0  0  0  0  0  0999 V2000
    4.7167   -9.7167    0.0000 C   0  0  0  0  0  0  0  0  0  0  0  0
    4.0000   -9.3042    0.0000 C   0  0  0  0  0  0  0  0  0  0  0  0
    5.4250   -8.4750    0.0000 N   0  0  3  0  0  0  0  0  0  0  0  0
    4.7042   -8.0625    0.0000 C   0  0  0  0  0  0  0  0  0  0  0  0
    4.0000   -8.4750    0.0000 N   0  0  0  0  0  0  0  0  0  0  0  0
    5.4292   -9.3042    0.0000 C   0  0  0  0  0  0  0  0  0  0  0  0
    4.5375  -10.5292    0.0000 C   0  0  0  0  0  0  0  0  0  0  0  0
    3.7250  -10.6125    0.0000 C   0  0  0  0  0  0  0  0  0  0  0  0
    3.3792   -9.8667    0.0000 S   0  0  0  0  0  0  0  0  0  0  0  0
    3.8542  -12.0500    0.0000 N   0  0  3  0  0  0  0  0  0  0  0  0
    3.3750  -11.3750    0.0000 C   0  0  0  0  0  0  0  0  0  0  0  0
    4.7167   -7.2292    0.0000 S   0  0  0  0  0  0  0  0  0  0  0  0
    3.5292  -12.8042    0.0000 C   0  0  0  0  0  0  0  0  0  0  0  0
    5.0167  -11.2042    0.0000 C   0  0  0  0  0  0  0  0  0  0  0  0
    6.1417   -8.0625    0.0000 C   0  0  0  0  0  0  0  0  0  0  0  0
    6.1542   -9.7292    0.0000 O   0  0  0  0  0  0  0  0  0  0  0  0
    4.6792  -11.9667    0.0000 C   0  0  0  0  0  0  0  0  0  0  0  0
    2.7000  -12.9042    0.0000 O   0  0  0  0  0  0  0  0  0  0  0  0
    5.4250   -6.8167    0.0000 C   0  0  0  0  0  0  0  0  0  0  0  0
    4.7167   -5.5875    0.0000 C   0  0  0  0  0  0  0  0  0  0  0  0
    4.7167   -4.7542    0.0000 C   0  0  0  0  0  0  0  0  0  0  0  0
    5.4250   -5.9917    0.0000 C   0  0  0  0  0  0  0  0  0  0  0  0
    3.9875   -4.3292    0.0000 Br  0  0  0  0  0  0  0  0  0  0  0  0
    4.0250  -13.4875    0.0000 C   0  0  0  0  0  0  0  0  0  0  0  0
    6.1417   -4.7542    0.0000 C   0  0  0  0  0  0  0  0  0  0  0  0
    6.1417   -7.2292    0.0000 C   0  0  0  0  0  0  0  0  0  0  0  0
    6.8625   -8.4750    0.0000 C   0  0  0  0  0  0  0  0  0  0  0  0
    5.4250   -4.3417    0.0000 C   0  0  0  0  0  0  0  0  0  0  0  0
    6.1417   -5.5875    0.0000 C   0  0  0  0  0  0  0  0  0  0  0  0
    7.5792   -8.0625    0.0000 C   0  0  0  0  0  0  0  0  0  0  0  0
    6.8542   -6.8167    0.0000 C   0  0  0  0  0  0  0  0  0  0  0  0
    7.5792   -7.2292    0.0000 C   0  0  0  0  0  0  0  0  0  0  0  0
  2  1  2  0  0  0  0
  3  6  1  0  0  0  0
  4  3  1  0  0  0  0
  5  2  1  0  0  0  0
  6  1  1  0  0  0  0
  7  1  1  0  0  0  0
  8  7  2  0  0  0  0
  9  2  1  0  0  0  0
 10 17  1  0  0  0  0
 11  8  1  0  0  0  0
 12  4  1  0  0  0  0
 13 10  1  0  0  0  0
 14  7  1  0  0  0  0
 15  3  1  0  0  0  0
 16  6  2  0  0  0  0
 17 14  1  0  0  0  0
 18 13  2  0  0  0  0
 19 12  1  0  0  0  0
 20 22  1  0  0  0  0
 21 20  2  0  0  0  0
 22 19  1  0  0  0  0
 23 21  1  0  0  0  0
 24 13  1  0  0  0  0
 25 29  1  0  0  0  0
 26 15  2  0  0  0  0
 27 15  1  0  0  0  0
 28 25  2  0  0  0  0
 29 22  2  0  0  0  0
 30 27  2  0  0  0  0
 31 26  1  0  0  0  0
 32 30  1  0  0  0  0
  8  9  1  0  0  0  0
  5  4  2  0  0  0  0
 10 11  1  0  0  0  0
 31 32  2  0  0  0  0
 21 28  1  0  0  0  0
M  END
> <IDNUMBER>
F3222-2450

> <Chemical_Name>
11-acetyl-5-{[(3-bromophenyl)methyl]sulfanyl}-4-phenyl-8-thia-4,6,11-triazatricyclo[7.4.0.0^{2,7}]trideca-1(9),2(7),5-trien-3-one

> <CAS>
1185169-52-1

> <PriceCoeff>
1.00

> <MW>
526.47

> <Description>
solid

> <FSP3>
0.21

> <clogP>
4.50

> <TPSA>
106.52

> <Acceptor>
3

> <Donor>
0

> <RotBonds>
5

> <HAC>
32

> <Collection>
General

> <Reference_compound>
CHEMBL577016

> <Similarity>
0.9230

$$$$
F0561-0612
  -ISIS-  06222321452D

 29 32  0  0  0  0  0  0  0  0999 V2000
   -3.2708    2.5458    0.0000 C   0  0  0  0  0  0  0  0  0  0  0  0
   -4.0958    2.5458    0.0000 N   0  0  3  0  0  0  0  0  0  0  0  0
   -3.0083    1.7583    0.0000 C   0  0  0  0  0  0  0  0  0  0  0  0
   -4.3458    1.7583    0.0000 N   0  0  0  0  0  0  0  0  0  0  0  0
   -3.6750    1.2750    0.0000 C   0  0  0  0  0  0  0  0  0  0  0  0
   -2.7833    3.2125    0.0000 N   0  0  0  0  0  0  0  0  0  0  0  0
   -1.6750    5.9542    0.0000 N   0  3  0  0  0  0  0  0  0  0  0  0
   -1.3333    5.2042    0.0000 C   0  0  0  0  0  0  0  0  0  0  0  0
   -2.6000    0.4875    0.0000 S   0  0  3  0  0  0  0  0  0  0  0  0
   -1.9708    3.1333    0.0000 C   0  0  0  0  0  0  0  0  0  0  0  0
   -4.5833    3.2083    0.0000 C   0  0  0  0  0  0  0  0  0  0  0  0
   -3.4250    0.4875    0.0000 C   0  0  0  0  0  0  0  0  0  0  0  0
   -1.8208    4.5417    0.0000 C   0  0  0  0  0  0  0  0  0  0  0  0
   -2.3458    1.2750    0.0000 C   0  0  0  0  0  0  0  0  0  0  0  0
   -1.4833    3.7958    0.0000 C   0  0  0  0  0  0  0  0  0  0  0  0
   -0.5250    5.1250    0.0000 C   0  0  0  0  0  0  0  0  0  0  0  0
   -1.2000    6.6250    0.0000 O   0  5  0  0  0  0  0  0  0  0  0  0
   -2.4958    6.0417    0.0000 O   0  0  0  0  0  0  0  0  0  0  0  0
   -2.1125   -0.1792    0.0000 O   0  0  0  0  0  0  0  0  0  0  0  0
   -1.6250    2.3750    0.0000 O   0  0  0  0  0  0  0  0  0  0  0  0
   -5.3958    3.1125    0.0000 C   0  0  0  0  0  0  0  0  0  0  0  0
   -0.6625    3.7125    0.0000 C   0  0  0  0  0  0  0  0  0  0  0  0
   -0.1875    4.3667    0.0000 C   0  0  0  0  0  0  0  0  0  0  0  0
   -0.0458    5.7792    0.0000 Cl  0  0  0  0  0  0  0  0  0  0  0  0
   -4.2458    3.9583    0.0000 C   0  0  0  0  0  0  0  0  0  0  0  0
   -5.7208    2.3625    0.0000 C   0  0  0  0  0  0  0  0  0  0  0  0
   -5.8750    3.7750    0.0000 C   0  0  0  0  0  0  0  0  0  0  0  0
   -4.7333    4.6167    0.0000 C   0  0  0  0  0  0  0  0  0  0  0  0
   -5.5458    4.5250    0.0000 C   0  0  0  0  0  0  0  0  0  0  0  0
  2  1  1  0  0  0  0
  3  1  2  0  0  0  0
  4  2  1  0  0  0  0
  5  3  1  0  0  0  0
  6  1  1  0  0  0  0
  7  8  1  0  0  0  0
  8 13  2  0  0  0  0
  9 14  1  0  0  0  0
 10  6  1  0  0  0  0
 11  2  1  0  0  0  0
 12  5  1  0  0  0  0
 13 15  1  0  0  0  0
 14  3  1  0  0  0  0
 15 10  1  0  0  0  0
 16 23  2  0  0  0  0
 17  7  1  0  0  0  0
 18  7  2  0  0  0  0
 19  9  2  0  0  0  0
 20 10  2  0  0  0  0
 21 11  2  0  0  0  0
 22 15  2  0  0  0  0
 23 22  1  0  0  0  0
 24 16  1  0  0  0  0
 25 11  1  0  0  0  0
 26 21  1  0  0  0  0
 27 21  1  0  0  0  0
 28 25  2  0  0  0  0
 29 28  1  0  0  0  0
  4  5  2  0  0  0  0
 12  9  1  0  0  0  0
 27 29  2  0  0  0  0
  8 16  1  0  0  0  0
M  CHG  2   7   1  17  -1
M  END
> <IDNUMBER>
F0561-0612

> <Chemical_Name>
4-chloro-N-[2-(2-methylphenyl)-5-oxo-2H,4H,6H-5lambda4-thieno[3,4-c]pyrazol-3-yl]-3-nitrobenzamide

> <CAS>
1007195-37-0

> <PriceCoeff>
1.00

> <MW>
430.86

> <Description>
solid

> <FSP3>
0.16

> <clogP>
2.05

> <TPSA>
126.34

> <Acceptor>
5

> <Donor>
1

> <RotBonds>
4

> <HAC>
29

> <Collection>
General

$$$$
F3222-2452
  -ISIS-  06222321462D

 36 40  0  0  0  0  0  0  0  0999 V2000
    4.7667   -9.7000    0.0000 C   0  0  0  0  0  0  0  0  0  0  0  0
    4.0542   -9.2875    0.0000 C   0  0  0  0  0  0  0  0  0  0  0  0
    5.4750   -8.4542    0.0000 N   0  0  3  0  0  0  0  0  0  0  0  0
    4.7625   -8.0417    0.0000 C   0  0  0  0  0  0  0  0  0  0  0  0
    4.0542   -8.4542    0.0000 N   0  0  0  0  0  0  0  0  0  0  0  0
    5.4875   -9.2875    0.0000 C   0  0  0  0  0  0  0  0  0  0  0  0
    4.5917  -10.5167    0.0000 C   0  0  0  0  0  0  0  0  0  0  0  0
    3.7750  -10.6000    0.0000 C   0  0  0  0  0  0  0  0  0  0  0  0
    3.4375   -9.8417    0.0000 S   0  0  0  0  0  0  0  0  0  0  0  0
    3.9125  -12.0292    0.0000 N   0  0  3  0  0  0  0  0  0  0  0  0
    3.4292  -11.3542    0.0000 C   0  0  0  0  0  0  0  0  0  0  0  0
    4.7667   -7.2167    0.0000 S   0  0  0  0  0  0  0  0  0  0  0  0
    3.5792  -12.7917    0.0000 C   0  0  0  0  0  0  0  0  0  0  0  0
    6.1917   -8.0417    0.0000 C   0  0  0  0  0  0  0  0  0  0  0  0
    5.0667  -11.1917    0.0000 C   0  0  0  0  0  0  0  0  0  0  0  0
    6.2042   -9.7125    0.0000 O   0  0  0  0  0  0  0  0  0  0  0  0
    5.4750   -5.9792    0.0000 C   0  0  0  0  0  0  0  0  0  0  0  0
    4.7375  -11.9417    0.0000 C   0  0  0  0  0  0  0  0  0  0  0  0
    4.7667   -5.5667    0.0000 N   0  0  0  0  0  0  0  0  0  0  0  0
    2.7542  -12.8917    0.0000 O   0  0  0  0  0  0  0  0  0  0  0  0
    6.1917   -5.5667    0.0000 O   0  0  0  0  0  0  0  0  0  0  0  0
    5.4750   -6.8000    0.0000 C   0  0  0  0  0  0  0  0  0  0  0  0
    6.1917   -7.2167    0.0000 C   0  0  0  0  0  0  0  0  0  0  0  0
    6.9167   -8.4542    0.0000 C   0  0  0  0  0  0  0  0  0  0  0  0
    4.0542   -5.9792    0.0000 C   0  0  0  0  0  0  0  0  0  0  0  0
    6.9125   -6.8000    0.0000 C   0  0  0  0  0  0  0  0  0  0  0  0
    7.6292   -8.0417    0.0000 C   0  0  0  0  0  0  0  0  0  0  0  0
    7.6292   -7.2167    0.0000 C   0  0  0  0  0  0  0  0  0  0  0  0
    3.3292   -5.5667    0.0000 C   0  0  0  0  0  0  0  0  0  0  0  0
    4.0792  -13.4667    0.0000 C   0  0  0  0  0  0  0  0  0  0  0  0
    8.3542   -6.8000    0.0000 C   0  0  0  0  0  0  0  0  0  0  0  0
    2.6167   -5.9792    0.0000 C   0  0  0  0  0  0  0  0  0  0  0  0
    3.3292   -4.7417    0.0000 C   0  0  0  0  0  0  0  0  0  0  0  0
    1.9000   -5.5667    0.0000 C   0  0  0  0  0  0  0  0  0  0  0  0
    2.6167   -4.3292    0.0000 C   0  0  0  0  0  0  0  0  0  0  0  0
    1.9000   -4.7417    0.0000 C   0  0  0  0  0  0  0  0  0  0  0  0
  2  1  2  0  0  0  0
  3  6  1  0  0  0  0
  4  3  1  0  0  0  0
  5  2  1  0  0  0  0
  6  1  1  0  0  0  0
  7  1  1  0  0  0  0
  8  7  2  0  0  0  0
  9  2  1  0  0  0  0
 10 18  1  0  0  0  0
 11  8  1  0  0  0  0
 12  4  1  0  0  0  0
 13 10  1  0  0  0  0
 14  3  1  0  0  0  0
 15  7  1  0  0  0  0
 16  6  2  0  0  0  0
 17 22  1  0  0  0  0
 18 15  1  0  0  0  0
 19 17  1  0  0  0  0
 20 13  2  0  0  0  0
 21 17  2  0  0  0  0
 22 12  1  0  0  0  0
 23 14  2  0  0  0  0
 24 14  1  0  0  0  0
 25 19  1  0  0  0  0
 26 23  1  0  0  0  0
 27 24  2  0  0  0  0
 28 27  1  0  0  0  0
 29 25  1  0  0  0  0
 30 13  1  0  0  0  0
 31 28  1  0  0  0  0
 32 29  1  0  0  0  0
 33 29  2  0  0  0  0
 34 32  2  0  0  0  0
 35 33  1  0  0  0  0
 36 35  2  0  0  0  0
  8  9  1  0  0  0  0
  5  4  2  0  0  0  0
 11 10  1  0  0  0  0
 26 28  2  0  0  0  0
 34 36  1  0  0  0  0
M  END
> <IDNUMBER>
F3222-2452

> <Chemical_Name>
2-{[11-acetyl-4-(4-methylphenyl)-3-oxo-8-thia-4,6,11-triazatricyclo[7.4.0.0^{2,7}]trideca-1(9),2(7),5-trien-5-yl]sulfanyl}-N-benzylacetamide

> <CAS>
1219221-47-2

> <PriceCoeff>
1.00

> <MW>
518.65

> <Description>
solid

> <FSP3>
0.26

> <clogP>
3.00

> <TPSA>
135.62

> <Acceptor>
4

> <Donor>
1

> <RotBonds>
7

> <HAC>
36

> <Collection>
General

> <Reference_compound>
CHEMBL577016

> <Similarity>
0.9340

$$$$
F3215-0287
  -ISIS-  06222321152D

 29 31  0  0  0  0  0  0  0  0999 V2000
    3.5042   -0.8542    0.0000 C   0  0  0  0  0  0  0  0  0  0  0  0
    2.4542   -1.6667    0.0000 C   0  0  0  0  0  0  0  0  0  0  0  0
    6.6500    2.4958    0.0000 S   0  0  3  0  0  0  0  0  0  0  0  0
    2.6917   -0.8792    0.0000 C   0  0  0  0  0  0  0  0  0  0  0  0
    2.1625   -3.2792    0.0000 N   0  3  0  0  0  0  0  0  0  0  0  0
    1.6792   -1.9417    0.0000 C   0  0  0  0  0  0  0  0  0  0  0  0
    3.9667   -0.1667    0.0000 C   0  0  0  0  0  0  0  0  0  0  0  0
    3.7792   -1.6375    0.0000 C   0  0  0  0  0  0  0  0  0  0  0  0
    1.5292   -2.7500    0.0000 C   0  0  0  0  0  0  0  0  0  0  0  0
    3.1292   -2.1375    0.0000 O   0  0  0  0  0  0  0  0  0  0  0  0
    4.7917   -0.2292    0.0000 N   0  0  0  0  0  0  0  0  0  0  0  0
    6.1792    1.8125    0.0000 C   0  0  0  0  0  0  0  0  0  0  0  0
    0.7542   -3.0250    0.0000 C   0  0  0  0  0  0  0  0  0  0  0  0
    1.0542   -1.4042    0.0000 C   0  0  0  0  0  0  0  0  0  0  0  0
    5.9292    2.9083    0.0000 O   0  0  0  0  0  0  0  0  0  0  0  0
    7.2292    1.9083    0.0000 O   0  0  0  0  0  0  0  0  0  0  0  0
    2.0042   -4.0917    0.0000 O   0  5  0  0  0  0  0  0  0  0  0  0
    2.9417   -3.0042    0.0000 O   0  0  0  0  0  0  0  0  0  0  0  0
    3.6125    0.5708    0.0000 O   0  0  0  0  0  0  0  0  0  0  0  0
    7.1250    3.1708    0.0000 N   0  0  0  0  0  0  0  0  0  0  0  0
    5.3542    1.8708    0.0000 C   0  0  0  0  0  0  0  0  0  0  0  0
    6.5417    1.0708    0.0000 C   0  0  0  0  0  0  0  0  0  0  0  0
    5.2542    0.4500    0.0000 C   0  0  0  0  0  0  0  0  0  0  0  0
    0.1292   -2.4875    0.0000 C   0  0  0  0  0  0  0  0  0  0  0  0
    0.2792   -1.6750    0.0000 C   0  0  0  0  0  0  0  0  0  0  0  0
    4.8917    1.1958    0.0000 C   0  0  0  0  0  0  0  0  0  0  0  0
    6.0750    0.3875    0.0000 C   0  0  0  0  0  0  0  0  0  0  0  0
   -0.5875   -2.8917    0.0000 Cl  0  0  0  0  0  0  0  0  0  0  0  0
    4.5750   -1.8667    0.0000 C   0  0  0  0  0  0  0  0  0  0  0  0
  2  4  2  0  0  0  0
  3 12  1  0  0  0  0
  4  1  1  0  0  0  0
  5  9  1  0  0  0  0
  6  2  1  0  0  0  0
  7  1  1  0  0  0  0
  8  1  2  0  0  0  0
  9  6  1  0  0  0  0
 10  8  1  0  0  0  0
 11  7  1  0  0  0  0
 12 22  2  0  0  0  0
 13  9  2  0  0  0  0
 14  6  2  0  0  0  0
 15  3  2  0  0  0  0
 16  3  2  0  0  0  0
 17  5  1  0  0  0  0
 18  5  2  0  0  0  0
 19  7  2  0  0  0  0
 20  3  1  0  0  0  0
 21 26  2  0  0  0  0
 22 27  1  0  0  0  0
 23 11  1  0  0  0  0
 24 25  2  0  0  0  0
 25 14  1  0  0  0  0
 26 23  1  0  0  0  0
 27 23  2  0  0  0  0
 28 24  1  0  0  0  0
 29  8  1  0  0  0  0
  2 10  1  0  0  0  0
 12 21  1  0  0  0  0
 13 24  1  0  0  0  0
M  CHG  2   5   1  17  -1
M  END
> <IDNUMBER>
F3215-0287

> <Chemical_Name>
5-(4-chloro-2-nitrophenyl)-2-methyl-N-(4-sulfamoylphenyl)furan-3-carboxamide

> <CAS>
890617-00-2

> <PriceCoeff>
1.00

> <MW>
435.84

> <Description>
solid

> <FSP3>
0.06

> <clogP>
3.06

> <TPSA>
153.92

> <Acceptor>
6

> <Donor>
2

> <RotBonds>
5

> <HAC>
29

> <Collection>
General

$$$$
F3222-1441
  -ISIS-  06222321152D

 35 39  0  0  0  0  0  0  0  0999 V2000
    7.5417  -10.6042    0.0000 N   0  0  3  0  0  0  0  0  0  0  0  0
    6.1125  -10.6792    0.0000 C   0  0  0  0  0  0  0  0  0  0  0  0
    6.1542  -11.5042    0.0000 C   0  0  0  0  0  0  0  0  0  0  0  0
    7.5875  -11.4250    0.0000 C   0  0  0  0  0  0  0  0  0  0  0  0
    6.8917  -11.8792    0.0000 N   0  0  0  0  0  0  0  0  0  0  0  0
    6.8042  -10.2292    0.0000 C   0  0  0  0  0  0  0  0  0  0  0  0
    5.3167  -10.4667    0.0000 C   0  0  0  0  0  0  0  0  0  0  0  0
    4.8667  -11.1667    0.0000 C   0  0  0  0  0  0  0  0  0  0  0  0
    5.3875  -11.8000    0.0000 S   0  0  0  0  0  0  0  0  0  0  0  0
    3.6542  -10.4000    0.0000 N   0  0  3  0  0  0  0  0  0  0  0  0
    8.2292  -10.1542    0.0000 C   0  0  0  0  0  0  0  0  0  0  0  0
    4.0417  -11.1292    0.0000 C   0  0  0  0  0  0  0  0  0  0  0  0
    8.3292  -11.7917    0.0000 S   0  0  0  0  0  0  0  0  0  0  0  0
    2.8292  -10.3792    0.0000 C   0  0  0  0  0  0  0  0  0  0  0  0
    4.9375   -9.7292    0.0000 C   0  0  0  0  0  0  0  0  0  0  0  0
    6.7625   -9.4042    0.0000 O   0  0  0  0  0  0  0  0  0  0  0  0
    9.1250  -12.9917    0.0000 C   0  0  0  0  0  0  0  0  0  0  0  0
    4.1125   -9.6917    0.0000 C   0  0  0  0  0  0  0  0  0  0  0  0
    9.1750  -13.8167    0.0000 N   0  0  0  0  0  0  0  0  0  0  0  0
    8.1792   -9.3250    0.0000 C   0  0  0  0  0  0  0  0  0  0  0  0
    2.4000  -11.0875    0.0000 O   0  0  0  0  0  0  0  0  0  0  0  0
    9.8125  -12.5375    0.0000 O   0  0  0  0  0  0  0  0  0  0  0  0
    8.3875  -12.6167    0.0000 C   0  0  0  0  0  0  0  0  0  0  0  0
    9.9125  -14.1875    0.0000 C   0  0  0  0  0  0  0  0  0  0  0  0
    8.9667  -10.5292    0.0000 C   0  0  0  0  0  0  0  0  0  0  0  0
    2.4292   -9.6542    0.0000 C   0  0  0  0  0  0  0  0  0  0  0  0
    7.4417   -8.9417    0.0000 C   0  0  0  0  0  0  0  0  0  0  0  0
    8.8750   -8.8750    0.0000 C   0  0  0  0  0  0  0  0  0  0  0  0
   10.6000  -13.7292    0.0000 C   0  0  0  0  0  0  0  0  0  0  0  0
    9.9625  -15.0125    0.0000 C   0  0  0  0  0  0  0  0  0  0  0  0
    9.6625  -10.0750    0.0000 C   0  0  0  0  0  0  0  0  0  0  0  0
    9.6125   -9.2500    0.0000 C   0  0  0  0  0  0  0  0  0  0  0  0
   11.3417  -14.1042    0.0000 C   0  0  0  0  0  0  0  0  0  0  0  0
   10.7000  -15.3792    0.0000 C   0  0  0  0  0  0  0  0  0  0  0  0
   11.3917  -14.9250    0.0000 C   0  0  0  0  0  0  0  0  0  0  0  0
  2  6  1  0  0  0  0
  3  2  2  0  0  0  0
  4  1  1  0  0  0  0
  5  4  2  0  0  0  0
  6  1  1  0  0  0  0
  7  2  1  0  0  0  0
  8  7  2  0  0  0  0
  9  3  1  0  0  0  0
 10 18  1  0  0  0  0
 11  1  1  0  0  0  0
 12  8  1  0  0  0  0
 13  4  1  0  0  0  0
 14 10  1  0  0  0  0
 15  7  1  0  0  0  0
 16  6  2  0  0  0  0
 17 23  1  0  0  0  0
 18 15  1  0  0  0  0
 19 17  1  0  0  0  0
 20 11  1  0  0  0  0
 21 14  2  0  0  0  0
 22 17  2  0  0  0  0
 23 13  1  0  0  0  0
 24 19  1  0  0  0  0
 25 11  2  0  0  0  0
 26 14  1  0  0  0  0
 27 20  1  0  0  0  0
 28 20  2  0  0  0  0
 29 24  1  0  0  0  0
 30 24  2  0  0  0  0
 31 25  1  0  0  0  0
 32 31  2  0  0  0  0
 33 29  2  0  0  0  0
 34 30  1  0  0  0  0
 35 34  2  0  0  0  0
  3  5  1  0  0  0  0
 28 32  1  0  0  0  0
  8  9  1  0  0  0  0
 12 10  1  0  0  0  0
 33 35  1  0  0  0  0
M  END
> <IDNUMBER>
F3222-1441

> <Chemical_Name>
2-{[11-acetyl-4-(2-methylphenyl)-3-oxo-8-thia-4,6,11-triazatricyclo[7.4.0.0^{2,7}]trideca-1(9),2(7),5-trien-5-yl]sulfanyl}-N-phenylacetamide

> <CAS>
1217092-97-1

> <PriceCoeff>
1.00

> <MW>
504.62

> <Description>
solid

> <FSP3>
0.23

> <clogP>
3.10

> <TPSA>
135.62

> <Acceptor>
4

> <Donor>
1

> <RotBonds>
6

> <HAC>
35

> <Collection>
General

> <Reference_compound>
CHEMBL577016

> <Similarity>
0.9130

$$$$
F1065-0770
  -ISIS-  06222321452D

 28 30  0  0  0  0  0  0  0  0999 V2000
   -1.4000   -0.8875    0.0000 N   0  0  3  0  0  0  0  0  0  0  0  0
   -1.7833   -1.7667    0.0000 C   0  0  0  0  0  0  0  0  0  0  0  0
   -0.4208   -0.9542    0.0000 C   0  0  0  0  0  0  0  0  0  0  0  0
   -2.1125    1.6208    0.0000 C   0  0  0  0  0  0  0  0  0  0  0  0
   -0.1958   -1.9000    0.0000 C   0  0  3  0  0  0  0  0  0  0  0  0
   -1.9833   -0.0792    0.0000 C   0  0  0  0  0  0  0  0  0  0  0  0
   -1.0458   -2.4167    0.0000 C   0  0  0  0  0  0  0  0  0  0  0  0
   -1.7000    2.5208    0.0000 C   0  0  3  0  0  0  0  0  0  0  0  0
    2.4167   -1.7500    0.0000 C   0  0  0  0  0  0  0  0  0  0  0  0
   -1.5500    0.8208    0.0000 C   0  0  0  0  0  0  0  0  0  0  0  0
    0.7500   -2.1667    0.0000 S   0  0  0  0  0  0  0  0  0  0  0  0
    1.4542   -1.5000    0.0000 C   0  0  0  0  0  0  0  0  0  0  0  0
    2.6792   -2.6875    0.0000 C   0  0  0  0  0  0  0  0  0  0  0  0
   -3.0958    1.5333    0.0000 C   0  0  0  0  0  0  0  0  0  0  0  0
   -2.7458   -1.9542    0.0000 O   0  0  0  0  0  0  0  0  0  0  0  0
    0.2042   -0.1792    0.0000 O   0  0  0  0  0  0  0  0  0  0  0  0
   -2.9500   -0.1542    0.0000 C   0  0  0  0  0  0  0  0  0  0  0  0
    3.6292   -2.9500    0.0000 O   0  0  0  0  0  0  0  0  0  0  0  0
   -3.5125    0.6500    0.0000 C   0  0  0  0  0  0  0  0  0  0  0  0
   -2.5833    2.9458    0.0000 F   0  0  0  0  0  0  0  0  0  0  0  0
   -1.2708    3.4333    0.0000 F   0  0  0  0  0  0  0  0  0  0  0  0
   -0.8333    2.0958    0.0000 F   0  0  0  0  0  0  0  0  0  0  0  0
    2.0167   -3.4292    0.0000 O   0  0  0  0  0  0  0  0  0  0  0  0
   -3.6500    2.3208    0.0000 Cl  0  0  0  0  0  0  0  0  0  0  0  0
    3.1042   -1.0542    0.0000 C   0  0  0  0  0  0  0  0  0  0  0  0
    1.1875   -0.5375    0.0000 C   0  0  0  0  0  0  0  0  0  0  0  0
    2.8375   -0.0917    0.0000 C   0  0  0  0  0  0  0  0  0  0  0  0
    1.8792    0.1500    0.0000 C   0  0  0  0  0  0  0  0  0  0  0  0
  2  1  1  0  0  0  0
  3  1  1  0  0  0  0
  4 10  1  0  0  0  0
  5  3  1  0  0  0  0
  6  1  1  0  0  0  0
  7  2  1  0  0  0  0
  8  4  1  0  0  0  0
  9 12  2  0  0  0  0
 10  6  2  0  0  0  0
 11  5  1  0  0  0  0
 12 11  1  0  0  0  0
 13  9  1  0  0  0  0
 14 19  1  0  0  0  0
 15  2  2  0  0  0  0
 16  3  2  0  0  0  0
 17  6  1  0  0  0  0
 18 13  2  0  0  0  0
 19 17  2  0  0  0  0
 20  8  1  0  0  0  0
 21  8  1  0  0  0  0
 22  8  1  0  0  0  0
 23 13  1  0  0  0  0
 24 14  1  0  0  0  0
 25  9  1  0  0  0  0
 26 12  1  0  0  0  0
 27 28  1  0  0  0  0
 28 26  2  0  0  0  0
  7  5  1  0  0  0  0
 14  4  2  0  0  0  0
 27 25  2  0  0  0  0
M  END
> <IDNUMBER>
F1065-0770

> <Chemical_Name>
2-({1-[4-chloro-3-(trifluoromethyl)phenyl]-2,5-dioxopyrrolidin-3-yl}sulfanyl)benzoic acid

> <CAS>
367908-34-7

> <PriceCoeff>
1.00

> <MW>
429.80

> <Description>
solid

> <FSP3>
0.17

> <clogP>
4.05

> <TPSA>
99.98

> <Acceptor>
4

> <Donor>
0

> <RotBonds>
4

> <HAC>
28

> <Collection>
General

$$$$
F0561-0605
  -ISIS-  06222321442D

 28 31  0  0  0  0  0  0  0  0999 V2000
   -3.2708    2.5458    0.0000 C   0  0  0  0  0  0  0  0  0  0  0  0
   -3.0083    1.7583    0.0000 C   0  0  0  0  0  0  0  0  0  0  0  0
   -4.0958    2.5458    0.0000 N   0  0  3  0  0  0  0  0  0  0  0  0
   -4.3458    1.7583    0.0000 N   0  0  0  0  0  0  0  0  0  0  0  0
   -3.6750    1.2750    0.0000 C   0  0  0  0  0  0  0  0  0  0  0  0
   -2.7833    3.2125    0.0000 N   0  0  0  0  0  0  0  0  0  0  0  0
   -1.6750    5.9542    0.0000 N   0  3  0  0  0  0  0  0  0  0  0  0
   -1.3333    5.2042    0.0000 C   0  0  0  0  0  0  0  0  0  0  0  0
   -2.6000    0.4875    0.0000 S   0  0  3  0  0  0  0  0  0  0  0  0
   -1.9708    3.1333    0.0000 C   0  0  0  0  0  0  0  0  0  0  0  0
   -3.4250    0.4875    0.0000 C   0  0  0  0  0  0  0  0  0  0  0  0
   -1.8208    4.5417    0.0000 C   0  0  0  0  0  0  0  0  0  0  0  0
   -2.3458    1.2750    0.0000 C   0  0  0  0  0  0  0  0  0  0  0  0
   -1.4833    3.7958    0.0000 C   0  0  0  0  0  0  0  0  0  0  0  0
   -0.5250    5.1250    0.0000 C   0  0  0  0  0  0  0  0  0  0  0  0
   -1.2000    6.6250    0.0000 O   0  5  0  0  0  0  0  0  0  0  0  0
   -4.5833    3.2083    0.0000 C   0  0  0  0  0  0  0  0  0  0  0  0
   -2.4958    6.0417    0.0000 O   0  0  0  0  0  0  0  0  0  0  0  0
   -2.1125   -0.1792    0.0000 O   0  0  0  0  0  0  0  0  0  0  0  0
   -1.6250    2.3750    0.0000 O   0  0  0  0  0  0  0  0  0  0  0  0
   -0.6625    3.7125    0.0000 C   0  0  0  0  0  0  0  0  0  0  0  0
   -0.1875    4.3667    0.0000 C   0  0  0  0  0  0  0  0  0  0  0  0
   -0.0458    5.7792    0.0000 Cl  0  0  0  0  0  0  0  0  0  0  0  0
   -5.3958    3.1125    0.0000 C   0  0  0  0  0  0  0  0  0  0  0  0
   -4.2458    3.9583    0.0000 C   0  0  0  0  0  0  0  0  0  0  0  0
   -4.7333    4.6042    0.0000 C   0  0  0  0  0  0  0  0  0  0  0  0
   -5.8833    3.7750    0.0000 C   0  0  0  0  0  0  0  0  0  0  0  0
   -5.5458    4.5250    0.0000 C   0  0  0  0  0  0  0  0  0  0  0  0
  2  1  2  0  0  0  0
  3  1  1  0  0  0  0
  4  3  1  0  0  0  0
  5  2  1  0  0  0  0
  6  1  1  0  0  0  0
  7  8  1  0  0  0  0
  8 12  2  0  0  0  0
  9 13  1  0  0  0  0
 10  6  1  0  0  0  0
 11  5  1  0  0  0  0
 12 14  1  0  0  0  0
 13  2  1  0  0  0  0
 14 10  1  0  0  0  0
 15 22  2  0  0  0  0
 16  7  1  0  0  0  0
 17  3  1  0  0  0  0
 18  7  2  0  0  0  0
 19  9  2  0  0  0  0
 20 10  2  0  0  0  0
 21 14  2  0  0  0  0
 22 21  1  0  0  0  0
 23 15  1  0  0  0  0
 24 17  2  0  0  0  0
 25 17  1  0  0  0  0
 26 25  2  0  0  0  0
 27 24  1  0  0  0  0
 28 26  1  0  0  0  0
  4  5  2  0  0  0  0
 11  9  1  0  0  0  0
 27 28  2  0  0  0  0
  8 15  1  0  0  0  0
M  CHG  2   7   1  16  -1
M  END
> <IDNUMBER>
F0561-0605

> <Chemical_Name>
4-chloro-3-nitro-N-{5-oxo-2-phenyl-2H,4H,6H-5lambda4-thieno[3,4-c]pyrazol-3-yl}benzamide

> <CAS>
1007193-86-3

> <PriceCoeff>
1.00

> <MW>
416.84

> <Description>
solid

> <FSP3>
0.11

> <clogP>
1.55

> <TPSA>
126.34

> <Acceptor>
5

> <Donor>
1

> <RotBonds>
4

> <HAC>
28

> <Collection>
General

$$$$
F0834-0675
  -ISIS-  06222321452D

 29 32  0  0  0  0  0  0  0  0999 V2000
   -4.6583    5.1500    0.0000 N   0  0  3  0  0  0  0  0  0  0  0  0
    0.1250    6.2917    0.0000 C   0  0  0  0  0  0  0  0  0  0  0  0
   -0.3583    6.8667    0.0000 N   0  0  0  0  0  0  0  0  0  0  0  0
    0.8042    6.5625    0.0000 O   0  0  0  0  0  0  0  0  0  0  0  0
   -2.0875    4.7417    0.0000 C   0  0  0  0  0  0  0  0  0  0  0  0
   -5.3958    5.0292    0.0000 C   0  0  0  0  0  0  0  0  0  0  0  0
   -4.5375    5.8917    0.0000 C   0  0  0  0  0  0  0  0  0  0  0  0
   -2.7875    4.4667    0.0000 N   0  0  0  0  0  0  0  0  0  0  0  0
   -3.3708    4.9417    0.0000 C   0  0  0  0  0  0  0  0  0  0  0  0
    0.0417    7.5000    0.0000 C   0  0  0  0  0  0  0  0  0  0  0  0
   -4.0708    4.6792    0.0000 C   0  0  0  0  0  0  0  0  0  0  0  0
    0.7625    7.3042    0.0000 C   0  0  0  0  0  0  0  0  0  0  0  0
    0.0167    5.5417    0.0000 C   0  0  0  0  0  0  0  0  0  0  0  0
   -1.5000    4.2625    0.0000 N   0  0  0  0  0  0  0  0  0  0  0  0
   -1.9708    5.4792    0.0000 S   0  0  0  0  0  0  0  0  0  0  0  0
   -0.6833    5.2750    0.0000 C   0  0  0  0  0  0  0  0  0  0  0  0
   -5.7333    5.7000    0.0000 C   0  0  0  0  0  0  0  0  0  0  0  0
   -5.2083    6.2292    0.0000 C   0  0  0  0  0  0  0  0  0  0  0  0
   -5.7333    4.3542    0.0000 O   0  0  0  0  0  0  0  0  0  0  0  0
   -3.8625    6.2375    0.0000 O   0  0  0  0  0  0  0  0  0  0  0  0
   -0.7958    4.5292    0.0000 C   0  0  0  0  0  0  0  0  0  0  0  0
   -3.2583    5.6875    0.0000 O   0  0  0  0  0  0  0  0  0  0  0  0
    0.6042    5.0875    0.0000 C   0  0  0  0  0  0  0  0  0  0  0  0
    0.5000    4.3417    0.0000 C   0  0  0  0  0  0  0  0  0  0  0  0
   -0.1583    8.2167    0.0000 C   0  0  0  0  0  0  0  0  0  0  0  0
    1.2875    7.8375    0.0000 C   0  0  0  0  0  0  0  0  0  0  0  0
   -0.1958    4.0625    0.0000 C   0  0  0  0  0  0  0  0  0  0  0  0
    1.0917    8.5542    0.0000 C   0  0  0  0  0  0  0  0  0  0  0  0
    0.3667    8.7542    0.0000 C   0  0  0  0  0  0  0  0  0  0  0  0
  2 13  1  0  0  0  0
  3  2  2  0  0  0  0
  4  2  1  0  0  0  0
  5  8  1  0  0  0  0
  6  1  1  0  0  0  0
  7  1  1  0  0  0  0
  8  9  1  0  0  0  0
  9 11  1  0  0  0  0
 10  3  1  0  0  0  0
 11  1  1  0  0  0  0
 12  4  1  0  0  0  0
 13 16  2  0  0  0  0
 14  5  1  0  0  0  0
 15  5  2  0  0  0  0
 16 21  1  0  0  0  0
 17  6  1  0  0  0  0
 18  7  1  0  0  0  0
 19  6  2  0  0  0  0
 20  7  2  0  0  0  0
 21 14  1  0  0  0  0
 22  9  2  0  0  0  0
 23 24  2  0  0  0  0
 24 27  1  0  0  0  0
 25 10  1  0  0  0  0
 26 12  1  0  0  0  0
 27 21  2  0  0  0  0
 28 26  2  0  0  0  0
 29 25  2  0  0  0  0
 17 18  1  0  0  0  0
 13 23  1  0  0  0  0
 10 12  2  0  0  0  0
 29 28  1  0  0  0  0
M  END
> <IDNUMBER>
F0834-0675

> <Chemical_Name>
1-[3-(1,3-benzoxazol-2-yl)phenyl]-3-[2-(2,5-dioxopyrrolidin-1-yl)acetyl]thiourea

> <CAS>
398999-46-7

> <PriceCoeff>
1.00

> <MW>
408.43

> <Description>
solid

> <FSP3>
0.15

> <clogP>
2.04

> <TPSA>
136.63

> <Acceptor>
6

> <Donor>
2

> <RotBonds>
4

> <HAC>
29

> <Collection>
General

$$$$
F3222-1454
  -ISIS-  06222321152D

 36 40  0  0  0  0  0  0  0  0999 V2000
    5.7167   -9.3875    0.0000 C   0  0  0  0  0  0  0  0  0  0  0  0
    7.1042   -9.0542    0.0000 N   0  0  3  0  0  0  0  0  0  0  0  0
    5.9042  -10.1917    0.0000 C   0  0  0  0  0  0  0  0  0  0  0  0
    6.3167   -8.8167    0.0000 C   0  0  0  0  0  0  0  0  0  0  0  0
    6.6917  -10.4250    0.0000 N   0  0  0  0  0  0  0  0  0  0  0  0
    7.2875   -9.8667    0.0000 C   0  0  0  0  0  0  0  0  0  0  0  0
    4.8792   -9.3042    0.0000 C   0  0  0  0  0  0  0  0  0  0  0  0
    4.5667  -10.0792    0.0000 C   0  0  0  0  0  0  0  0  0  0  0  0
    5.1875  -10.6167    0.0000 S   0  0  0  0  0  0  0  0  0  0  0  0
    3.2292   -9.5167    0.0000 N   0  0  3  0  0  0  0  0  0  0  0  0
    3.7292  -10.1875    0.0000 C   0  0  0  0  0  0  0  0  0  0  0  0
    2.4042   -9.6250    0.0000 C   0  0  0  0  0  0  0  0  0  0  0  0
    8.0792  -10.1042    0.0000 S   0  0  0  0  0  0  0  0  0  0  0  0
    7.7042   -8.5000    0.0000 C   0  0  0  0  0  0  0  0  0  0  0  0
    7.8542  -12.2875    0.0000 N   0  0  0  0  0  0  0  0  0  0  0  0
    4.3917   -8.6500    0.0000 C   0  0  0  0  0  0  0  0  0  0  0  0
    7.6667  -11.4667    0.0000 C   0  0  0  0  0  0  0  0  0  0  0  0
    6.1250   -8.0042    0.0000 O   0  0  0  0  0  0  0  0  0  0  0  0
    7.2500  -12.8417    0.0000 C   0  0  0  0  0  0  0  0  0  0  0  0
    3.5542   -8.7542    0.0000 C   0  0  0  0  0  0  0  0  0  0  0  0
    2.0917  -10.3875    0.0000 O   0  0  0  0  0  0  0  0  0  0  0  0
    6.4542  -12.6000    0.0000 C   0  0  0  0  0  0  0  0  0  0  0  0
    6.8792  -11.2375    0.0000 O   0  0  0  0  0  0  0  0  0  0  0  0
    8.2667  -10.9167    0.0000 C   0  0  0  0  0  0  0  0  0  0  0  0
    6.2625  -11.8000    0.0000 F   0  0  0  0  0  0  0  0  0  0  0  0
    8.5042   -8.7375    0.0000 C   0  0  0  0  0  0  0  0  0  0  0  0
    1.9042   -8.9667    0.0000 C   0  0  0  0  0  0  0  0  0  0  0  0
    7.4292  -13.6542    0.0000 C   0  0  0  0  0  0  0  0  0  0  0  0
    5.8417  -13.1750    0.0000 C   0  0  0  0  0  0  0  0  0  0  0  0
    8.6917   -9.5500    0.0000 C   0  0  0  0  0  0  0  0  0  0  0  0
    9.1042   -8.1667    0.0000 C   0  0  0  0  0  0  0  0  0  0  0  0
    6.8250  -14.2167    0.0000 C   0  0  0  0  0  0  0  0  0  0  0  0
    6.0292  -13.9750    0.0000 C   0  0  0  0  0  0  0  0  0  0  0  0
    9.4667   -9.7875    0.0000 C   0  0  0  0  0  0  0  0  0  0  0  0
    9.8792   -8.4042    0.0000 C   0  0  0  0  0  0  0  0  0  0  0  0
   10.0750   -9.2167    0.0000 C   0  0  0  0  0  0  0  0  0  0  0  0
  2  4  1  0  0  0  0
  3  1  2  0  0  0  0
  4  1  1  0  0  0  0
  5  3  1  0  0  0  0
  6  2  1  0  0  0  0
  7  1  1  0  0  0  0
  8  7  2  0  0  0  0
  9  3  1  0  0  0  0
 10 20  1  0  0  0  0
 11  8  1  0  0  0  0
 12 10  1  0  0  0  0
 13  6  1  0  0  0  0
 14  2  1  0  0  0  0
 15 17  1  0  0  0  0
 16  7  1  0  0  0  0
 17 24  1  0  0  0  0
 18  4  2  0  0  0  0
 19 15  1  0  0  0  0
 20 16  1  0  0  0  0
 21 12  2  0  0  0  0
 22 19  1  0  0  0  0
 23 17  2  0  0  0  0
 24 13  1  0  0  0  0
 25 22  1  0  0  0  0
 26 14  1  0  0  0  0
 27 12  1  0  0  0  0
 28 19  2  0  0  0  0
 29 22  2  0  0  0  0
 30 26  1  0  0  0  0
 31 26  2  0  0  0  0
 32 28  1  0  0  0  0
 33 32  2  0  0  0  0
 34 30  2  0  0  0  0
 35 31  1  0  0  0  0
 36 35  2  0  0  0  0
  9  8  1  0  0  0  0
 10 11  1  0  0  0  0
  6  5  2  0  0  0  0
 34 36  1  0  0  0  0
 33 29  1  0  0  0  0
M  END
> <IDNUMBER>
F3222-1454

> <Chemical_Name>
2-({11-acetyl-4-benzyl-3-oxo-8-thia-4,6,11-triazatricyclo[7.4.0.0^{2,7}]trideca-1(9),2(7),5-trien-5-yl}sulfanyl)-N-(2-fluorophenyl)acetamide

> <CAS>
1189862-88-1

> <PriceCoeff>
1.00

> <MW>
522.61

> <Description>
solid

> <FSP3>
0.23

> <clogP>
2.18

> <TPSA>
135.62

> <Acceptor>
4

> <Donor>
1

> <RotBonds>
7

> <HAC>
36

> <Collection>
General

> <Reference_compound>
CHEMBL577016

> <Similarity>
0.8450

$$$$
F2724-0269
  -ISIS-  06222321462D

 31 34  0  0  0  0  0  0  0  0999 V2000
   -3.7458    1.7625    0.0000 N   0  3  0  0  0  0  0  0  0  0  0  0
   -3.0875    2.1458    0.0000 C   0  0  0  0  0  0  0  0  0  0  0  0
   -2.4458    4.0167    0.0000 C   0  0  0  0  0  0  0  0  0  0  0  0
   -5.6833    6.6417    0.0000 N   0  0  0  0  0  0  0  0  0  0  0  0
   -3.0875    2.8958    0.0000 C   0  0  0  0  0  0  0  0  0  0  0  0
   -5.0333    6.2667    0.0000 N   0  0  0  0  0  0  0  0  0  0  0  0
   -5.6833    7.3917    0.0000 C   0  0  0  0  0  0  0  0  0  0  0  0
   -6.3250    7.7667    0.0000 N   0  0  3  0  0  0  0  0  0  0  0  0
   -2.4458    3.2708    0.0000 C   0  0  0  0  0  0  0  0  0  0  0  0
   -3.0875    4.3917    0.0000 N   0  0  0  0  0  0  0  0  0  0  0  0
   -2.4458    1.7708    0.0000 C   0  0  0  0  0  0  0  0  0  0  0  0
   -4.3833    6.6417    0.0000 C   0  0  0  0  0  0  0  0  0  0  0  0
   -4.3958    2.1458    0.0000 O   0  5  0  0  0  0  0  0  0  0  0  0
   -3.7375    6.2667    0.0000 C   0  0  0  0  0  0  0  0  0  0  0  0
   -3.7458    1.0125    0.0000 O   0  0  0  0  0  0  0  0  0  0  0  0
   -3.0875    5.1417    0.0000 C   0  0  0  0  0  0  0  0  0  0  0  0
   -1.7958    4.3917    0.0000 O   0  0  0  0  0  0  0  0  0  0  0  0
   -3.7375    5.5167    0.0000 C   0  0  0  0  0  0  0  0  0  0  0  0
   -5.0333    7.7667    0.0000 C   0  0  0  0  0  0  0  0  0  0  0  0
   -1.7958    2.8958    0.0000 C   0  0  0  0  0  0  0  0  0  0  0  0
   -4.3833    7.3917    0.0000 C   0  0  0  0  0  0  0  0  0  0  0  0
   -1.7958    2.1458    0.0000 C   0  0  0  0  0  0  0  0  0  0  0  0
   -7.6167    8.5167    0.0000 O   0  0  0  0  0  0  0  0  0  0  0  0
   -2.4458    1.0208    0.0000 Cl  0  0  0  0  0  0  0  0  0  0  0  0
   -6.9667    7.3917    0.0000 C   0  0  0  0  0  0  0  0  0  0  0  0
   -6.3250    8.5167    0.0000 C   0  0  0  0  0  0  0  0  0  0  0  0
   -3.0875    6.6417    0.0000 C   0  0  0  0  0  0  0  0  0  0  0  0
   -2.4458    6.2667    0.0000 C   0  0  0  0  0  0  0  0  0  0  0  0
   -2.4458    5.5167    0.0000 C   0  0  0  0  0  0  0  0  0  0  0  0
   -6.9667    8.8917    0.0000 C   0  0  0  0  0  0  0  0  0  0  0  0
   -7.6167    7.7667    0.0000 C   0  0  0  0  0  0  0  0  0  0  0  0
  2  1  1  0  0  0  0
  3  9  1  0  0  0  0
  4  6  2  0  0  0  0
  5  2  1  0  0  0  0
  6 12  1  0  0  0  0
  7 19  2  0  0  0  0
  8  7  1  0  0  0  0
  9  5  2  0  0  0  0
 10  3  1  0  0  0  0
 11  2  2  0  0  0  0
 12 14  1  0  0  0  0
 13  1  1  0  0  0  0
 14 18  2  0  0  0  0
 15  1  2  0  0  0  0
 16 10  1  0  0  0  0
 17  3  2  0  0  0  0
 18 16  1  0  0  0  0
 19 21  1  0  0  0  0
 20 22  2  0  0  0  0
 21 12  2  0  0  0  0
 22 11  1  0  0  0  0
 23 30  1  0  0  0  0
 24 11  1  0  0  0  0
 25  8  1  0  0  0  0
 26  8  1  0  0  0  0
 27 28  2  0  0  0  0
 28 29  1  0  0  0  0
 29 16  2  0  0  0  0
 30 26  1  0  0  0  0
 31 25  1  0  0  0  0
 20  9  1  0  0  0  0
 14 27  1  0  0  0  0
  4  7  1  0  0  0  0
 31 23  1  0  0  0  0
M  CHG  2   1   1  13  -1
M  END
> <IDNUMBER>
F2724-0269

> <Chemical_Name>
4-chloro-N-{3-[6-(morpholin-4-yl)pyridazin-3-yl]phenyl}-3-nitrobenzamide

> <CAS>
899745-41-6

> <PriceCoeff>
1.00

> <MW>
439.85

> <Description>
solid

> <FSP3>
0.19

> <clogP>
3.14

> <TPSA>
110.49

> <Acceptor>
6

> <Donor>
2

> <RotBonds>
5

> <HAC>
31

> <Collection>
General

$$$$
F3222-2277
  -ISIS-  06222321442D

 34 38  0  0  0  0  0  0  0  0999 V2000
    4.8417   -2.8667    0.0000 N   0  0  3  0  0  0  0  0  0  0  0  0
    5.5125   -4.1417    0.0000 C   0  0  0  0  0  0  0  0  0  0  0  0
    6.2417   -3.7542    0.0000 C   0  0  0  0  0  0  0  0  0  0  0  0
    5.5750   -2.4917    0.0000 C   0  0  0  0  0  0  0  0  0  0  0  0
    6.2750   -2.9292    0.0000 N   0  0  0  0  0  0  0  0  0  0  0  0
    4.8125   -3.6917    0.0000 C   0  0  0  0  0  0  0  0  0  0  0  0
    5.6542   -4.9542    0.0000 C   0  0  0  0  0  0  0  0  0  0  0  0
    6.4667   -5.0667    0.0000 C   0  0  0  0  0  0  0  0  0  0  0  0
    6.8292   -4.3417    0.0000 S   0  0  0  0  0  0  0  0  0  0  0  0
    6.2625   -6.4792    0.0000 N   0  0  3  0  0  0  0  0  0  0  0  0
    4.1500   -2.4292    0.0000 C   0  0  0  0  0  0  0  0  0  0  0  0
    6.3667   -0.4542    0.0000 C   0  0  0  0  0  0  0  0  0  0  0  0
    5.6042   -1.6667    0.0000 S   0  0  0  0  0  0  0  0  0  0  0  0
    6.7750   -5.8292    0.0000 C   0  0  0  0  0  0  0  0  0  0  0  0
    6.5625   -7.2542    0.0000 C   0  0  0  0  0  0  0  0  0  0  0  0
    6.3375   -1.2792    0.0000 C   0  0  0  0  0  0  0  0  0  0  0  0
    5.1417   -5.6000    0.0000 C   0  0  0  0  0  0  0  0  0  0  0  0
    4.0667   -4.0667    0.0000 O   0  0  0  0  0  0  0  0  0  0  0  0
    5.4542   -6.3667    0.0000 C   0  0  0  0  0  0  0  0  0  0  0  0
    7.1000   -0.0667    0.0000 C   0  0  0  0  0  0  0  0  0  0  0  0
    5.6750   -0.0167    0.0000 C   0  0  0  0  0  0  0  0  0  0  0  0
    3.4167   -2.8167    0.0000 C   0  0  0  0  0  0  0  0  0  0  0  0
    7.3792   -7.3792    0.0000 O   0  0  0  0  0  0  0  0  0  0  0  0
    7.8125   -0.5042    0.0000 Cl  0  0  0  0  0  0  0  0  0  0  0  0
    4.9375   -0.4125    0.0000 F   0  0  0  0  0  0  0  0  0  0  0  0
    4.1792   -1.6042    0.0000 C   0  0  0  0  0  0  0  0  0  0  0  0
    6.0417   -7.8917    0.0000 C   0  0  0  0  0  0  0  0  0  0  0  0
    6.4292    1.2083    0.0000 C   0  0  0  0  0  0  0  0  0  0  0  0
    7.1292    0.7583    0.0000 C   0  0  0  0  0  0  0  0  0  0  0  0
    5.7042    0.8125    0.0000 C   0  0  0  0  0  0  0  0  0  0  0  0
    3.3875   -3.6417    0.0000 C   0  0  0  0  0  0  0  0  0  0  0  0
    2.7167   -2.3792    0.0000 C   0  0  0  0  0  0  0  0  0  0  0  0
    3.4875   -1.1667    0.0000 C   0  0  0  0  0  0  0  0  0  0  0  0
    2.7542   -1.5500    0.0000 C   0  0  0  0  0  0  0  0  0  0  0  0
  2  6  1  0  0  0  0
  3  2  2  0  0  0  0
  4  1  1  0  0  0  0
  5  4  2  0  0  0  0
  6  1  1  0  0  0  0
  7  2  1  0  0  0  0
  8  7  2  0  0  0  0
  9  3  1  0  0  0  0
 10 19  1  0  0  0  0
 11  1  1  0  0  0  0
 12 16  1  0  0  0  0
 13  4  1  0  0  0  0
 14  8  1  0  0  0  0
 15 10  1  0  0  0  0
 16 13  1  0  0  0  0
 17  7  1  0  0  0  0
 18  6  2  0  0  0  0
 19 17  1  0  0  0  0
 20 12  2  0  0  0  0
 21 12  1  0  0  0  0
 22 11  1  0  0  0  0
 23 15  2  0  0  0  0
 24 20  1  0  0  0  0
 25 21  1  0  0  0  0
 26 11  2  0  0  0  0
 27 15  1  0  0  0  0
 28 30  1  0  0  0  0
 29 20  1  0  0  0  0
 30 21  2  0  0  0  0
 31 22  1  0  0  0  0
 32 22  2  0  0  0  0
 33 26  1  0  0  0  0
 34 33  2  0  0  0  0
  3  5  1  0  0  0  0
 32 34  1  0  0  0  0
  8  9  1  0  0  0  0
 14 10  1  0  0  0  0
 29 28  2  0  0  0  0
M  END
> <IDNUMBER>
F3222-2277

> <Chemical_Name>
11-acetyl-5-{[(2-chloro-6-fluorophenyl)methyl]sulfanyl}-4-(2-methylphenyl)-8-thia-4,6,11-triazatricyclo[7.4.0.0^{2,7}]trideca-1(9),2(7),5-trien-3-one

> <CAS>
1185006-47-6

> <PriceCoeff>
1.00

> <MW>
514.03

> <Description>
solid

> <FSP3>
0.24

> <clogP>
4.99

> <TPSA>
106.52

> <Acceptor>
3

> <Donor>
0

> <RotBonds>
5

> <HAC>
34

> <Collection>
General

> <Reference_compound>
CHEMBL577016

> <Similarity>
0.8440

$$$$
F0327-0363
  -ISIS-  06222321452D

 34 38  0  0  0  0  0  0  0  0999 V2000
    4.4167    0.3500    0.0000 N   0  0  3  0  0  0  0  0  0  0  0  0
   -0.4000    1.1125    0.0000 C   0  0  0  0  0  0  0  0  0  0  0  0
   -0.9125    0.4000    0.0000 N   0  0  0  0  0  0  0  0  0  0  0  0
    0.4542    1.1125    0.0000 N   0  0  0  0  0  0  0  0  0  0  0  0
   -1.7458    0.6500    0.0000 C   0  0  0  0  0  0  0  0  0  0  0  0
    0.9000    0.3500    0.0000 C   0  0  0  0  0  0  0  0  0  0  0  0
    4.9042   -0.3667    0.0000 C   0  0  0  0  0  0  0  0  0  0  0  0
    4.9167    1.0125    0.0000 C   0  0  0  0  0  0  0  0  0  0  0  0
   -0.9000    1.8125    0.0000 S   0  0  0  0  0  0  0  0  0  0  0  0
   -1.7458    1.5500    0.0000 C   0  0  0  0  0  0  0  0  0  0  0  0
    3.5375    0.3500    0.0000 C   0  0  0  0  0  0  0  0  0  0  0  0
    1.7792    0.3500    0.0000 C   0  0  0  0  0  0  0  0  0  0  0  0
   -2.4208    0.1208    0.0000 C   0  0  0  0  0  0  0  0  0  0  0  0
    0.4542   -0.4042    0.0000 O   0  0  0  0  0  0  0  0  0  0  0  0
    5.7542   -0.1167    0.0000 C   0  0  0  0  0  0  0  0  0  0  0  0
    5.7500    0.7500    0.0000 C   0  0  0  0  0  0  0  0  0  0  0  0
    4.6000   -1.1875    0.0000 O   0  0  0  0  0  0  0  0  0  0  0  0
    4.6292    1.8625    0.0000 O   0  0  0  0  0  0  0  0  0  0  0  0
    3.1000    1.1125    0.0000 C   0  0  0  0  0  0  0  0  0  0  0  0
    3.1000   -0.4042    0.0000 C   0  0  0  0  0  0  0  0  0  0  0  0
    2.2167    1.1125    0.0000 C   0  0  0  0  0  0  0  0  0  0  0  0
    2.2167   -0.4042    0.0000 C   0  0  0  0  0  0  0  0  0  0  0  0
   -4.5208   -1.5000    0.0000 O   0  0  0  0  0  0  0  0  0  0  0  0
   -2.3000   -0.7542    0.0000 C   0  0  0  0  0  0  0  0  0  0  0  0
   -3.2458    0.4500    0.0000 C   0  0  0  0  0  0  0  0  0  0  0  0
   -3.8208   -0.9667    0.0000 C   0  0  0  0  0  0  0  0  0  0  0  0
   -2.9958   -1.3000    0.0000 C   0  0  0  0  0  0  0  0  0  0  0  0
   -3.9458   -0.0875    0.0000 C   0  0  0  0  0  0  0  0  0  0  0  0
   -4.4083   -2.3667    0.0000 C   0  0  0  0  0  0  0  0  0  0  0  0
   -5.1125   -2.9042    0.0000 C   0  0  0  0  0  0  0  0  0  0  0  0
   -3.5833   -2.7042    0.0000 C   0  0  0  0  0  0  0  0  0  0  0  0
   -3.4708   -3.5875    0.0000 C   0  0  0  0  0  0  0  0  0  0  0  0
   -4.9958   -3.7875    0.0000 C   0  0  0  0  0  0  0  0  0  0  0  0
   -4.1833   -4.1292    0.0000 C   0  0  0  0  0  0  0  0  0  0  0  0
  2  4  1  0  0  0  0
  3  2  2  0  0  0  0
  4  6  1  0  0  0  0
  5  3  1  0  0  0  0
  6 12  1  0  0  0  0
  7  1  1  0  0  0  0
  8  1  1  0  0  0  0
  9  2  1  0  0  0  0
 10  9  1  0  0  0  0
 11  1  1  0  0  0  0
 12 22  2  0  0  0  0
 13  5  1  0  0  0  0
 14  6  2  0  0  0  0
 15  7  1  0  0  0  0
 16  8  1  0  0  0  0
 17  7  2  0  0  0  0
 18  8  2  0  0  0  0
 19 11  1  0  0  0  0
 20 11  2  0  0  0  0
 21 19  2  0  0  0  0
 22 20  1  0  0  0  0
 23 26  1  0  0  0  0
 24 13  1  0  0  0  0
 25 13  2  0  0  0  0
 26 28  2  0  0  0  0
 27 24  2  0  0  0  0
 28 25  1  0  0  0  0
 29 23  1  0  0  0  0
 30 29  2  0  0  0  0
 31 29  1  0  0  0  0
 32 31  2  0  0  0  0
 33 30  1  0  0  0  0
 34 32  1  0  0  0  0
 16 15  1  0  0  0  0
 21 12  1  0  0  0  0
  5 10  2  0  0  0  0
 27 26  1  0  0  0  0
 34 33  2  0  0  0  0
M  END
> <IDNUMBER>
F0327-0363

> <Chemical_Name>
4-(2,5-dioxopyrrolidin-1-yl)-N-[4-(4-phenoxyphenyl)-1,3-thiazol-2-yl]benzamide

> <CAS>
392246-40-1

> <PriceCoeff>
1.00

> <MW>
469.51

> <Description>
solid

> <FSP3>
0.08

> <clogP>
4.22

> <TPSA>
116.84

> <Acceptor>
5

> <Donor>
1

> <RotBonds>
6

> <HAC>
34

> <Collection>
General

$$$$
F1210-0012
  -ISIS-  06222321452D

 30 33  0  0  0  0  0  0  0  0999 V2000
   -0.4583   -0.2625    0.0000 C   0  0  0  0  0  0  0  0  0  0  0  0
   -0.2000   -1.0417    0.0000 C   0  0  0  0  0  0  0  0  0  0  0  0
    0.9042    0.1958    0.0000 N   0  0  3  0  0  0  0  0  0  0  0  0
    1.1542   -0.5917    0.0000 C   0  0  0  0  0  0  0  0  0  0  0  0
    0.6042   -1.2125    0.0000 N   0  0  0  0  0  0  0  0  0  0  0  0
    0.0917    0.3625    0.0000 C   0  0  0  0  0  0  0  0  0  0  0  0
   -0.8708   -1.5167    0.0000 S   0  0  0  0  0  0  0  0  0  0  0  0
   -1.2833   -0.2542    0.0000 C   0  0  0  0  0  0  0  0  0  0  0  0
   -1.5458   -1.0417    0.0000 C   0  0  0  0  0  0  0  0  0  0  0  0
    1.9625   -0.7667    0.0000 S   0  0  0  0  0  0  0  0  0  0  0  0
    1.4417    0.8000    0.0000 C   0  0  0  0  0  0  0  0  0  0  0  0
   -0.1708    1.1458    0.0000 O   0  0  0  0  0  0  0  0  0  0  0  0
    3.0167   -1.7167    0.0000 C   0  0  0  0  0  0  0  0  0  0  0  0
    3.2750   -2.4917    0.0000 N   0  0  0  0  0  0  0  0  0  0  0  0
    3.5667   -1.1042    0.0000 O   0  0  0  0  0  0  0  0  0  0  0  0
    2.2167   -1.5417    0.0000 C   0  0  0  0  0  0  0  0  0  0  0  0
    4.0792   -2.6667    0.0000 C   0  0  0  0  0  0  0  0  0  0  0  0
   -1.8333    0.3583    0.0000 C   0  0  0  0  0  0  0  0  0  0  0  0
   -2.3458   -1.3042    0.0000 C   0  0  0  0  0  0  0  0  0  0  0  0
    4.3292   -3.4500    0.0000 C   0  0  0  0  0  0  0  0  0  0  0  0
    2.2542    0.5875    0.0000 C   0  0  0  0  0  0  0  0  0  0  0  0
    1.1875    1.5750    0.0000 C   0  0  0  0  0  0  0  0  0  0  0  0
    3.7792   -4.0625    0.0000 C   0  0  0  0  0  0  0  0  0  0  0  0
    5.1417   -3.6167    0.0000 C   0  0  0  0  0  0  0  0  0  0  0  0
    1.7375    2.1875    0.0000 C   0  0  0  0  0  0  0  0  0  0  0  0
    2.8167    1.2125    0.0000 C   0  0  0  0  0  0  0  0  0  0  0  0
    5.3917   -4.4000    0.0000 C   0  0  0  0  0  0  0  0  0  0  0  0
    4.0375   -4.8417    0.0000 C   0  0  0  0  0  0  0  0  0  0  0  0
    2.5542    2.0208    0.0000 C   0  0  0  0  0  0  0  0  0  0  0  0
    4.8417   -5.0167    0.0000 C   0  0  0  0  0  0  0  0  0  0  0  0
  2  1  2  0  0  0  0
  3  6  1  0  0  0  0
  4  3  1  0  0  0  0
  5  2  1  0  0  0  0
  6  1  1  0  0  0  0
  7  2  1  0  0  0  0
  8  1  1  0  0  0  0
  9  8  2  0  0  0  0
 10  4  1  0  0  0  0
 11  3  1  0  0  0  0
 12  6  2  0  0  0  0
 13 16  1  0  0  0  0
 14 13  1  0  0  0  0
 15 13  2  0  0  0  0
 16 10  1  0  0  0  0
 17 14  1  0  0  0  0
 18  8  1  0  0  0  0
 19  9  1  0  0  0  0
 20 17  1  0  0  0  0
 21 11  2  0  0  0  0
 22 11  1  0  0  0  0
 23 20  2  0  0  0  0
 24 20  1  0  0  0  0
 25 22  2  0  0  0  0
 26 21  1  0  0  0  0
 27 24  2  0  0  0  0
 28 23  1  0  0  0  0
 29 25  1  0  0  0  0
 30 27  1  0  0  0  0
  9  7  1  0  0  0  0
  5  4  2  0  0  0  0
 26 29  2  0  0  0  0
 28 30  2  0  0  0  0
M  END
> <IDNUMBER>
F1210-0012

> <Chemical_Name>
N-benzyl-2-({5,6-dimethyl-4-oxo-3-phenyl-3H,4H-thieno[2,3-d]pyrimidin-2-yl}sulfanyl)acetamide

> <CAS>
332882-86-7

> <PriceCoeff>
1.00

> <MW>
435.56

> <Description>
solid

> <FSP3>
0.17

> <clogP>
4.95

> <TPSA>
115.31

> <Acceptor>
3

> <Donor>
1

> <RotBonds>
6

> <HAC>
30

> <Collection>
General

> <Reference_compound>
CHEMBL577016

> <Similarity>
0.8630

$$$$
F3222-1440
  -ISIS-  06222321152D

 36 40  0  0  0  0  0  0  0  0999 V2000
    7.1417  -10.3125    0.0000 N   0  0  3  0  0  0  0  0  0  0  0  0
    5.7292  -10.5500    0.0000 C   0  0  0  0  0  0  0  0  0  0  0  0
    5.8750  -11.3667    0.0000 C   0  0  0  0  0  0  0  0  0  0  0  0
    7.2875  -11.1292    0.0000 C   0  0  0  0  0  0  0  0  0  0  0  0
    6.6500  -11.6542    0.0000 N   0  0  0  0  0  0  0  0  0  0  0  0
    6.3667  -10.0167    0.0000 C   0  0  0  0  0  0  0  0  0  0  0  0
    4.9042  -10.4375    0.0000 C   0  0  0  0  0  0  0  0  0  0  0  0
    4.5417  -11.1792    0.0000 C   0  0  0  0  0  0  0  0  0  0  0  0
    5.1292  -11.7542    0.0000 S   0  0  0  0  0  0  0  0  0  0  0  0
    3.2542  -10.5542    0.0000 N   0  0  3  0  0  0  0  0  0  0  0  0
    7.7792   -9.7792    0.0000 C   0  0  0  0  0  0  0  0  0  0  0  0
    3.7167  -11.2417    0.0000 C   0  0  0  0  0  0  0  0  0  0  0  0
    8.0667  -11.4042    0.0000 S   0  0  0  0  0  0  0  0  0  0  0  0
    2.4167  -10.6000    0.0000 C   0  0  0  0  0  0  0  0  0  0  0  0
    9.6125  -11.9667    0.0000 N   0  0  0  0  0  0  0  0  0  0  0  0
    4.4375   -9.7542    0.0000 C   0  0  0  0  0  0  0  0  0  0  0  0
    9.4667  -11.1667    0.0000 C   0  0  0  0  0  0  0  0  0  0  0  0
    6.2167   -9.2042    0.0000 O   0  0  0  0  0  0  0  0  0  0  0  0
    8.9792  -12.5042    0.0000 C   0  0  0  0  0  0  0  0  0  0  0  0
    3.6125   -9.8167    0.0000 C   0  0  0  0  0  0  0  0  0  0  0  0
    7.6375   -8.9542    0.0000 C   0  0  0  0  0  0  0  0  0  0  0  0
    2.0500  -11.3417    0.0000 O   0  0  0  0  0  0  0  0  0  0  0  0
    9.1167  -13.3167    0.0000 C   0  0  0  0  0  0  0  0  0  0  0  0
   10.1000  -10.6292    0.0000 O   0  0  0  0  0  0  0  0  0  0  0  0
    8.7000  -10.8792    0.0000 C   0  0  0  0  0  0  0  0  0  0  0  0
    9.8917  -13.6042    0.0000 F   0  0  0  0  0  0  0  0  0  0  0  0
    8.5542  -10.0667    0.0000 C   0  0  0  0  0  0  0  0  0  0  0  0
    1.9542   -9.9000    0.0000 C   0  0  0  0  0  0  0  0  0  0  0  0
    8.2042  -12.2250    0.0000 C   0  0  0  0  0  0  0  0  0  0  0  0
    6.8625   -8.6750    0.0000 C   0  0  0  0  0  0  0  0  0  0  0  0
    8.2750   -8.4292    0.0000 C   0  0  0  0  0  0  0  0  0  0  0  0
    8.4875  -13.8542    0.0000 C   0  0  0  0  0  0  0  0  0  0  0  0
    9.1917   -9.5417    0.0000 C   0  0  0  0  0  0  0  0  0  0  0  0
    7.5750  -12.7542    0.0000 C   0  0  0  0  0  0  0  0  0  0  0  0
    9.0542   -8.7167    0.0000 C   0  0  0  0  0  0  0  0  0  0  0  0
    7.7167  -13.5667    0.0000 C   0  0  0  0  0  0  0  0  0  0  0  0
  2  6  1  0  0  0  0
  3  2  2  0  0  0  0
  4  1  1  0  0  0  0
  5  4  2  0  0  0  0
  6  1  1  0  0  0  0
  7  2  1  0  0  0  0
  8  7  2  0  0  0  0
  9  3  1  0  0  0  0
 10 20  1  0  0  0  0
 11  1  1  0  0  0  0
 12  8  1  0  0  0  0
 13  4  1  0  0  0  0
 14 10  1  0  0  0  0
 15 17  1  0  0  0  0
 16  7  1  0  0  0  0
 17 25  1  0  0  0  0
 18  6  2  0  0  0  0
 19 15  1  0  0  0  0
 20 16  1  0  0  0  0
 21 11  1  0  0  0  0
 22 14  2  0  0  0  0
 23 19  1  0  0  0  0
 24 17  2  0  0  0  0
 25 13  1  0  0  0  0
 26 23  1  0  0  0  0
 27 11  2  0  0  0  0
 28 14  1  0  0  0  0
 29 19  2  0  0  0  0
 30 21  1  0  0  0  0
 31 21  2  0  0  0  0
 32 23  2  0  0  0  0
 33 27  1  0  0  0  0
 34 29  1  0  0  0  0
 35 33  2  0  0  0  0
 36 34  2  0  0  0  0
  3  5  1  0  0  0  0
 31 35  1  0  0  0  0
  8  9  1  0  0  0  0
 12 10  1  0  0  0  0
 32 36  1  0  0  0  0
M  END
> <IDNUMBER>
F3222-1440

> <Chemical_Name>
2-{[11-acetyl-4-(2-methylphenyl)-3-oxo-8-thia-4,6,11-triazatricyclo[7.4.0.0^{2,7}]trideca-1(9),2(7),5-trien-5-yl]sulfanyl}-N-(2-fluorophenyl)acetamide

> <CAS>
1189501-86-7

> <PriceCoeff>
1.00

> <MW>
522.61

> <Description>
solid

> <FSP3>
0.23

> <clogP>
2.90

> <TPSA>
135.62

> <Acceptor>
4

> <Donor>
1

> <RotBonds>
6

> <HAC>
36

> <Collection>
General

> <Reference_compound>
CHEMBL577016

> <Similarity>
0.8620

$$$$
F3222-2454
  -ISIS-  06222321442D

 36 40  0  0  0  0  0  0  0  0999 V2000
    5.4792   -9.0917    0.0000 C   0  0  0  0  0  0  0  0  0  0  0  0
    6.2125   -8.7042    0.0000 C   0  0  0  0  0  0  0  0  0  0  0  0
    4.8167   -7.8167    0.0000 N   0  0  3  0  0  0  0  0  0  0  0  0
    5.5417   -7.4417    0.0000 C   0  0  0  0  0  0  0  0  0  0  0  0
    6.2417   -7.8792    0.0000 N   0  0  0  0  0  0  0  0  0  0  0  0
    4.7792   -8.6417    0.0000 C   0  0  0  0  0  0  0  0  0  0  0  0
    5.6250   -9.9042    0.0000 C   0  0  0  0  0  0  0  0  0  0  0  0
    6.4375  -10.0167    0.0000 C   0  0  0  0  0  0  0  0  0  0  0  0
    6.8042   -9.2917    0.0000 S   0  0  0  0  0  0  0  0  0  0  0  0
    6.2292  -11.4292    0.0000 N   0  0  3  0  0  0  0  0  0  0  0  0
    6.7417  -10.7792    0.0000 C   0  0  0  0  0  0  0  0  0  0  0  0
    5.5792   -6.6167    0.0000 S   0  0  0  0  0  0  0  0  0  0  0  0
    6.5292  -12.2042    0.0000 C   0  0  0  0  0  0  0  0  0  0  0  0
    4.1167   -7.3750    0.0000 C   0  0  0  0  0  0  0  0  0  0  0  0
    5.1167  -10.5500    0.0000 C   0  0  0  0  0  0  0  0  0  0  0  0
    4.0375   -9.0250    0.0000 O   0  0  0  0  0  0  0  0  0  0  0  0
    6.3417   -5.4042    0.0000 C   0  0  0  0  0  0  0  0  0  0  0  0
    5.4250  -11.3167    0.0000 C   0  0  0  0  0  0  0  0  0  0  0  0
    7.0667   -5.0167    0.0000 N   0  0  0  0  0  0  0  0  0  0  0  0
    7.3500  -12.3292    0.0000 O   0  0  0  0  0  0  0  0  0  0  0  0
    5.6417   -4.9625    0.0000 O   0  0  0  0  0  0  0  0  0  0  0  0
    6.3042   -6.2292    0.0000 C   0  0  0  0  0  0  0  0  0  0  0  0
    4.1625   -6.5500    0.0000 C   0  0  0  0  0  0  0  0  0  0  0  0
    3.3792   -7.7542    0.0000 C   0  0  0  0  0  0  0  0  0  0  0  0
    7.1042   -4.1917    0.0000 C   0  0  0  0  0  0  0  0  0  0  0  0
    3.4667   -6.1042    0.0000 C   0  0  0  0  0  0  0  0  0  0  0  0
    2.6917   -7.3042    0.0000 C   0  0  0  0  0  0  0  0  0  0  0  0
    2.7375   -6.4792    0.0000 C   0  0  0  0  0  0  0  0  0  0  0  0
    7.1667   -2.5417    0.0000 C   0  0  0  0  0  0  0  0  0  0  0  0
    6.4042   -3.7500    0.0000 C   0  0  0  0  0  0  0  0  0  0  0  0
    7.8292   -3.8042    0.0000 C   0  0  0  0  0  0  0  0  0  0  0  0
    6.4375   -2.9167    0.0000 C   0  0  0  0  0  0  0  0  0  0  0  0
    7.8667   -2.9792    0.0000 C   0  0  0  0  0  0  0  0  0  0  0  0
    6.0167  -12.8417    0.0000 C   0  0  0  0  0  0  0  0  0  0  0  0
    2.0417   -6.0250    0.0000 C   0  0  0  0  0  0  0  0  0  0  0  0
    7.2125   -1.7167    0.0000 C   0  0  0  0  0  0  0  0  0  0  0  0
  2  1  2  0  0  0  0
  3  6  1  0  0  0  0
  4  3  1  0  0  0  0
  5  2  1  0  0  0  0
  6  1  1  0  0  0  0
  7  1  1  0  0  0  0
  8  7  2  0  0  0  0
  9  2  1  0  0  0  0
 10 18  1  0  0  0  0
 11  8  1  0  0  0  0
 12  4  1  0  0  0  0
 13 10  1  0  0  0  0
 14  3  1  0  0  0  0
 15  7  1  0  0  0  0
 16  6  2  0  0  0  0
 17 22  1  0  0  0  0
 18 15  1  0  0  0  0
 19 17  1  0  0  0  0
 20 13  2  0  0  0  0
 21 17  2  0  0  0  0
 22 12  1  0  0  0  0
 23 14  2  0  0  0  0
 24 14  1  0  0  0  0
 25 19  1  0  0  0  0
 26 23  1  0  0  0  0
 27 24  2  0  0  0  0
 28 27  1  0  0  0  0
 29 33  1  0  0  0  0
 30 25  2  0  0  0  0
 31 25  1  0  0  0  0
 32 30  1  0  0  0  0
 33 31  2  0  0  0  0
 34 13  1  0  0  0  0
 35 28  1  0  0  0  0
 36 29  1  0  0  0  0
  8  9  1  0  0  0  0
  5  4  2  0  0  0  0
 11 10  1  0  0  0  0
 26 28  2  0  0  0  0
 29 32  2  0  0  0  0
M  END
> <IDNUMBER>
F3222-2454

> <Chemical_Name>
2-{[11-acetyl-4-(4-methylphenyl)-3-oxo-8-thia-4,6,11-triazatricyclo[7.4.0.0^{2,7}]trideca-1(9),2(7),5-trien-5-yl]sulfanyl}-N-(4-methylphenyl)acetamide

> <CAS>
1189647-63-9

> <PriceCoeff>
1.00

> <MW>
518.65

> <Description>
solid

> <FSP3>
0.26

> <clogP>
3.60

> <TPSA>
135.62

> <Acceptor>
4

> <Donor>
1

> <RotBonds>
6

> <HAC>
36

> <Collection>
General

> <Reference_compound>
CHEMBL577016

> <Similarity>
0.9340

$$$$
F1678-0159
  -ISIS-  06222321142D

 31 34  0  0  0  0  0  0  0  0999 V2000
   -0.6125    2.0208    0.0000 C   0  0  0  0  0  0  0  0  0  0  0  0
   -0.5333    1.6958    0.0000 C   0  0  0  0  0  0  0  0  0  0  0  0
   -0.0958    2.1708    0.0000 N   0  0  3  0  0  0  0  0  0  0  0  0
    0.0042    1.8625    0.0000 C   0  0  0  0  0  0  0  0  0  0  0  0
   -0.2125    1.6208    0.0000 N   0  0  0  0  0  0  0  0  0  0  0  0
   -0.3958    2.2500    0.0000 C   0  0  0  0  0  0  0  0  0  0  0  0
   -0.8000    1.5125    0.0000 S   0  0  0  0  0  0  0  0  0  0  0  0
   -0.9500    2.0208    0.0000 C   0  0  0  0  0  0  0  0  0  0  0  0
   -1.0458    1.7000    0.0000 C   0  0  0  0  0  0  0  0  0  0  0  0
    0.3292    1.7708    0.0000 S   0  0  0  0  0  0  0  0  0  0  0  0
    0.1292    2.4333    0.0000 C   0  0  0  0  0  0  0  0  0  0  0  0
   -0.4708    2.5625    0.0000 O   0  0  0  0  0  0  0  0  0  0  0  0
    0.8542    1.9125    0.0000 C   0  0  0  0  0  0  0  0  0  0  0  0
    1.1042    2.1333    0.0000 O   0  0  0  0  0  0  0  0  0  0  0  0
    0.5500    2.0208    0.0000 C   0  0  0  0  0  0  0  0  0  0  0  0
    0.9375    1.6125    0.0000 N   0  0  0  0  0  0  0  0  0  0  0  0
   -1.1458    2.2833    0.0000 C   0  0  0  0  0  0  0  0  0  0  0  0
   -1.3625    1.5833    0.0000 C   0  0  0  0  0  0  0  0  0  0  0  0
    0.6875    1.3958    0.0000 C   0  0  0  0  0  0  0  0  0  0  0  0
    0.5167    0.8500    0.0000 C   0  0  0  0  0  0  0  0  0  0  0  0
    0.0500    2.7208    0.0000 C   0  0  0  0  0  0  0  0  0  0  0  0
    0.4500    2.3625    0.0000 C   0  0  0  0  0  0  0  0  0  0  0  0
    0.7667    1.0833    0.0000 C   0  0  0  0  0  0  0  0  0  0  0  0
    0.5667    0.5458    0.0000 C   0  0  0  0  0  0  0  0  0  0  0  0
    0.2042    0.9500    0.0000 C   0  0  0  0  0  0  0  0  0  0  0  0
    0.2500    2.9708    0.0000 C   0  0  0  0  0  0  0  0  0  0  0  0
    0.6667    2.6125    0.0000 C   0  0  0  0  0  0  0  0  0  0  0  0
    0.3375    0.3208    0.0000 C   0  0  0  0  0  0  0  0  0  0  0  0
   -0.0125    0.7333    0.0000 C   0  0  0  0  0  0  0  0  0  0  0  0
    0.5792    2.9000    0.0000 C   0  0  0  0  0  0  0  0  0  0  0  0
    0.0375    0.4208    0.0000 C   0  0  0  0  0  0  0  0  0  0  0  0
  2  1  2  0  0  0  0
  3  6  1  0  0  0  0
  4  3  1  0  0  0  0
  5  2  1  0  0  0  0
  6  1  1  0  0  0  0
  7  2  1  0  0  0  0
  8  1  1  0  0  0  0
  9  8  2  0  0  0  0
 10  4  1  0  0  0  0
 11  3  1  0  0  0  0
 12  6  2  0  0  0  0
 13 15  1  0  0  0  0
 14 13  2  0  0  0  0
 15 10  1  0  0  0  0
 16 13  1  0  0  0  0
 17  8  1  0  0  0  0
 18  9  1  0  0  0  0
 19 16  1  0  0  0  0
 20 23  1  0  0  0  0
 21 11  2  0  0  0  0
 22 11  1  0  0  0  0
 23 19  1  0  0  0  0
 24 20  1  0  0  0  0
 25 20  2  0  0  0  0
 26 21  1  0  0  0  0
 27 22  2  0  0  0  0
 28 24  2  0  0  0  0
 29 25  1  0  0  0  0
 30 27  1  0  0  0  0
 31 29  2  0  0  0  0
  9  7  1  0  0  0  0
  5  4  2  0  0  0  0
 30 26  2  0  0  0  0
 28 31  1  0  0  0  0
M  END
> <IDNUMBER>
F1678-0159

> <Chemical_Name>
2-({5,6-dimethyl-4-oxo-3-phenyl-3H,4H-thieno[2,3-d]pyrimidin-2-yl}sulfanyl)-N-(2-phenylethyl)acetamide

> <CAS>
618395-70-3

> <PriceCoeff>
1.00

> <MW>
449.59

> <Description>
solid

> <FSP3>
0.21

> <clogP>
5.17

> <TPSA>
115.31

> <Acceptor>
3

> <Donor>
1

> <RotBonds>
7

> <HAC>
31

> <Collection>
General

> <Reference_compound>
CHEMBL577016

> <Similarity>
0.8850

$$$$
F3222-1424
  -ISIS-  06222321442D

 36 40  0  0  0  0  0  0  0  0999 V2000
    4.9500  -10.5167    0.0000 C   0  0  0  0  0  0  0  0  0  0  0  0
    5.1917  -11.3042    0.0000 C   0  0  0  0  0  0  0  0  0  0  0  0
    6.3125  -10.0917    0.0000 N   0  0  3  0  0  0  0  0  0  0  0  0
    6.5667  -10.8792    0.0000 C   0  0  0  0  0  0  0  0  0  0  0  0
    6.0042  -11.4875    0.0000 N   0  0  0  0  0  0  0  0  0  0  0  0
    5.5042   -9.9042    0.0000 C   0  0  0  0  0  0  0  0  0  0  0  0
    4.1125  -10.5167    0.0000 C   0  0  0  0  0  0  0  0  0  0  0  0
    3.8542  -11.2917    0.0000 C   0  0  0  0  0  0  0  0  0  0  0  0
    4.5167  -11.7875    0.0000 S   0  0  0  0  0  0  0  0  0  0  0  0
    2.4875  -10.8542    0.0000 N   0  0  3  0  0  0  0  0  0  0  0  0
    3.0375  -11.4667    0.0000 C   0  0  0  0  0  0  0  0  0  0  0  0
    7.3750  -11.0500    0.0000 S   0  0  0  0  0  0  0  0  0  0  0  0
    1.6667  -11.0042    0.0000 C   0  0  0  0  0  0  0  0  0  0  0  0
    9.2917  -10.0167    0.0000 N   0  0  0  0  0  0  0  0  0  0  0  0
    3.5542   -9.9000    0.0000 C   0  0  0  0  0  0  0  0  0  0  0  0
    6.8750   -9.4875    0.0000 C   0  0  0  0  0  0  0  0  0  0  0  0
    8.7292  -10.6292    0.0000 C   0  0  0  0  0  0  0  0  0  0  0  0
    5.2417   -9.1125    0.0000 O   0  0  0  0  0  0  0  0  0  0  0  0
   10.0917  -10.2000    0.0000 C   0  0  0  0  0  0  0  0  0  0  0  0
    2.7417  -10.0667    0.0000 C   0  0  0  0  0  0  0  0  0  0  0  0
    1.3917  -11.8000    0.0000 O   0  0  0  0  0  0  0  0  0  0  0  0
    8.9792  -11.4042    0.0000 O   0  0  0  0  0  0  0  0  0  0  0  0
   10.6542   -9.5875    0.0000 C   0  0  0  0  0  0  0  0  0  0  0  0
    7.9292  -10.4542    0.0000 C   0  0  0  0  0  0  0  0  0  0  0  0
    1.1167  -10.3792    0.0000 C   0  0  0  0  0  0  0  0  0  0  0  0
   10.3417  -10.9875    0.0000 C   0  0  0  0  0  0  0  0  0  0  0  0
    6.6250   -8.6917    0.0000 C   0  0  0  0  0  0  0  0  0  0  0  0
    7.6792   -9.6625    0.0000 C   0  0  0  0  0  0  0  0  0  0  0  0
   10.4042   -8.7917    0.0000 C   0  0  0  0  0  0  0  0  0  0  0  0
   11.4625   -9.7667    0.0000 C   0  0  0  0  0  0  0  0  0  0  0  0
    9.6000   -8.6167    0.0000 C   0  0  0  0  0  0  0  0  0  0  0  0
   11.1542  -11.1667    0.0000 C   0  0  0  0  0  0  0  0  0  0  0  0
    7.1792   -8.0792    0.0000 C   0  0  0  0  0  0  0  0  0  0  0  0
   11.7125  -10.5542    0.0000 C   0  0  0  0  0  0  0  0  0  0  0  0
    8.2417   -9.0542    0.0000 C   0  0  0  0  0  0  0  0  0  0  0  0
    7.9917   -8.2542    0.0000 C   0  0  0  0  0  0  0  0  0  0  0  0
  2  1  2  0  0  0  0
  3  6  1  0  0  0  0
  4  3  1  0  0  0  0
  5  2  1  0  0  0  0
  6  1  1  0  0  0  0
  7  1  1  0  0  0  0
  8  7  2  0  0  0  0
  9  2  1  0  0  0  0
 10 20  1  0  0  0  0
 11  8  1  0  0  0  0
 12  4  1  0  0  0  0
 13 10  1  0  0  0  0
 14 17  1  0  0  0  0
 15  7  1  0  0  0  0
 16  3  1  0  0  0  0
 17 24  1  0  0  0  0
 18  6  2  0  0  0  0
 19 14  1  0  0  0  0
 20 15  1  0  0  0  0
 21 13  2  0  0  0  0
 22 17  2  0  0  0  0
 23 19  1  0  0  0  0
 24 12  1  0  0  0  0
 25 13  1  0  0  0  0
 26 19  2  0  0  0  0
 27 16  1  0  0  0  0
 28 16  2  0  0  0  0
 29 23  1  0  0  0  0
 30 23  2  0  0  0  0
 31 29  1  0  0  0  0
 32 26  1  0  0  0  0
 33 27  2  0  0  0  0
 34 32  2  0  0  0  0
 35 28  1  0  0  0  0
 36 35  2  0  0  0  0
  8  9  1  0  0  0  0
  5  4  2  0  0  0  0
 11 10  1  0  0  0  0
 33 36  1  0  0  0  0
 30 34  1  0  0  0  0
M  END
> <IDNUMBER>
F3222-1424

> <Chemical_Name>
2-({11-acetyl-3-oxo-4-phenyl-8-thia-4,6,11-triazatricyclo[7.4.0.0^{2,7}]trideca-1(9),2(7),5-trien-5-yl}sulfanyl)-N-(2-ethylphenyl)acetamide

> <CAS>
1185046-06-3

> <PriceCoeff>
1.00

> <MW>
518.65

> <Description>
solid

> <FSP3>
0.26

> <clogP>
2.76

> <TPSA>
135.62

> <Acceptor>
4

> <Donor>
1

> <RotBonds>
7

> <HAC>
36

> <Collection>
General

> <Reference_compound>
CHEMBL577016

> <Similarity>
0.9130

$$$$
F2688-0046
  -ISIS-  06222321152D

 25 27  0  0  0  0  0  0  0  0999 V2000
   -1.7333    1.9708    0.0000 C   0  0  0  0  0  0  0  0  0  0  0  0
   -1.7333    2.7958    0.0000 C   0  0  0  0  0  0  0  0  0  0  0  0
   -2.4458    1.5583    0.0000 O   0  0  0  0  0  0  0  0  0  0  0  0
    2.5667    3.9833    0.0000 N   0  3  0  0  0  0  0  0  0  0  0  0
    1.7375    4.1917    0.0000 C   0  0  0  0  0  0  0  0  0  0  0  0
   -1.1500    3.3833    0.0000 N   0  0  0  0  0  0  0  0  0  0  0  0
   -3.1625    2.7958    0.0000 C   0  0  0  0  0  0  0  0  0  0  0  0
   -0.3208    3.1708    0.0000 C   0  0  0  0  0  0  0  0  0  0  0  0
   -3.1583    1.9708    0.0000 C   0  0  0  0  0  0  0  0  0  0  0  0
   -1.1500    1.3875    0.0000 C   0  0  0  0  0  0  0  0  0  0  0  0
    1.1167    3.5833    0.0000 C   0  0  0  0  0  0  0  0  0  0  0  0
    0.2917    3.7958    0.0000 C   0  0  0  0  0  0  0  0  0  0  0  0
    1.4917    5.0292    0.0000 C   0  0  0  0  0  0  0  0  0  0  0  0
    2.8125    3.1583    0.0000 O   0  5  0  0  0  0  0  0  0  0  0  0
    3.1750    4.5917    0.0000 O   0  0  0  0  0  0  0  0  0  0  0  0
   -0.0875    2.3375    0.0000 O   0  0  0  0  0  0  0  0  0  0  0  0
   -1.7375    0.8083    0.0000 O   0  0  0  0  0  0  0  0  0  0  0  0
    0.0500    4.6042    0.0000 C   0  0  0  0  0  0  0  0  0  0  0  0
    0.6500    5.2417    0.0000 C   0  0  0  0  0  0  0  0  0  0  0  0
   -0.5708    0.8083    0.0000 N   0  0  0  0  0  0  0  0  0  0  0  0
    2.0875    5.6417    0.0000 Cl  0  0  0  0  0  0  0  0  0  0  0  0
   -3.8750    3.2083    0.0000 C   0  0  0  0  0  0  0  0  0  0  0  0
   -3.8750    1.5583    0.0000 C   0  0  0  0  0  0  0  0  0  0  0  0
   -4.5833    2.7958    0.0000 C   0  0  0  0  0  0  0  0  0  0  0  0
   -4.5833    1.9708    0.0000 C   0  0  0  0  0  0  0  0  0  0  0  0
  2  1  2  0  0  0  0
  3  1  1  0  0  0  0
  4  5  1  0  0  0  0
  5 11  2  0  0  0  0
  6  2  1  0  0  0  0
  7  2  1  0  0  0  0
  8  6  1  0  0  0  0
  9  3  1  0  0  0  0
 10  1  1  0  0  0  0
 11 12  1  0  0  0  0
 12  8  1  0  0  0  0
 13 19  2  0  0  0  0
 14  4  1  0  0  0  0
 15  4  2  0  0  0  0
 16  8  2  0  0  0  0
 17 10  2  0  0  0  0
 18 12  2  0  0  0  0
 19 18  1  0  0  0  0
 20 10  1  0  0  0  0
 21 13  1  0  0  0  0
 22  7  1  0  0  0  0
 23  9  1  0  0  0  0
 24 22  2  0  0  0  0
 25 23  2  0  0  0  0
  9  7  2  0  0  0  0
 25 24  1  0  0  0  0
  5 13  1  0  0  0  0
M  CHG  2   4   1  14  -1
M  END
> <IDNUMBER>
F2688-0046

> <Chemical_Name>
3-(4-chloro-3-nitrobenzamido)-1-benzofuran-2-carboxamide

> <CAS>
898373-42-7

> <PriceCoeff>
1.00

> <MW>
359.72

> <Description>
solid

> <FSP3>
0.00

> <clogP>
2.89

> <TPSA>
128.47

> <Acceptor>
5

> <Donor>
2

> <RotBonds>
4

> <HAC>
25

> <Collection>
General

$$$$
F3222-2456
  -ISIS-  06222321462D

 37 41  0  0  0  0  0  0  0  0999 V2000
    5.1292   -9.0917    0.0000 C   0  0  0  0  0  0  0  0  0  0  0  0
    5.8625   -8.7042    0.0000 C   0  0  0  0  0  0  0  0  0  0  0  0
    4.4667   -7.8167    0.0000 N   0  0  3  0  0  0  0  0  0  0  0  0
    5.1917   -7.4417    0.0000 C   0  0  0  0  0  0  0  0  0  0  0  0
    5.8917   -7.8792    0.0000 N   0  0  0  0  0  0  0  0  0  0  0  0
    4.4292   -8.6417    0.0000 C   0  0  0  0  0  0  0  0  0  0  0  0
    5.2750   -9.9042    0.0000 C   0  0  0  0  0  0  0  0  0  0  0  0
    6.0875  -10.0167    0.0000 C   0  0  0  0  0  0  0  0  0  0  0  0
    6.4542   -9.2917    0.0000 S   0  0  0  0  0  0  0  0  0  0  0  0
    5.8792  -11.4292    0.0000 N   0  0  3  0  0  0  0  0  0  0  0  0
    6.3917  -10.7792    0.0000 C   0  0  0  0  0  0  0  0  0  0  0  0
    5.2292   -6.6167    0.0000 S   0  0  0  0  0  0  0  0  0  0  0  0
    6.1792  -12.2042    0.0000 C   0  0  0  0  0  0  0  0  0  0  0  0
    3.7667   -7.3750    0.0000 C   0  0  0  0  0  0  0  0  0  0  0  0
    4.7667  -10.5500    0.0000 C   0  0  0  0  0  0  0  0  0  0  0  0
    3.6875   -9.0250    0.0000 O   0  0  0  0  0  0  0  0  0  0  0  0
    5.9917   -5.4042    0.0000 C   0  0  0  0  0  0  0  0  0  0  0  0
    5.0750  -11.3167    0.0000 C   0  0  0  0  0  0  0  0  0  0  0  0
    6.7167   -5.0167    0.0000 N   0  0  0  0  0  0  0  0  0  0  0  0
    7.0000  -12.3292    0.0000 O   0  0  0  0  0  0  0  0  0  0  0  0
    5.2917   -4.9625    0.0000 O   0  0  0  0  0  0  0  0  0  0  0  0
    5.9542   -6.2292    0.0000 C   0  0  0  0  0  0  0  0  0  0  0  0
    3.8125   -6.5500    0.0000 C   0  0  0  0  0  0  0  0  0  0  0  0
    3.0292   -7.7542    0.0000 C   0  0  0  0  0  0  0  0  0  0  0  0
    6.7542   -4.1917    0.0000 C   0  0  0  0  0  0  0  0  0  0  0  0
    6.8125   -2.5292    0.0000 C   0  0  0  0  0  0  0  0  0  0  0  0
    2.3417   -7.3042    0.0000 C   0  0  0  0  0  0  0  0  0  0  0  0
    3.1167   -6.1042    0.0000 C   0  0  0  0  0  0  0  0  0  0  0  0
    2.3792   -6.4792    0.0000 C   0  0  0  0  0  0  0  0  0  0  0  0
    7.4792   -3.8042    0.0000 C   0  0  0  0  0  0  0  0  0  0  0  0
    6.0542   -3.7542    0.0000 C   0  0  0  0  0  0  0  0  0  0  0  0
    7.5167   -2.9792    0.0000 C   0  0  0  0  0  0  0  0  0  0  0  0
    6.0875   -2.9250    0.0000 C   0  0  0  0  0  0  0  0  0  0  0  0
    6.8292   -1.7042    0.0000 O   0  0  0  0  0  0  0  0  0  0  0  0
    5.6667  -12.8417    0.0000 C   0  0  0  0  0  0  0  0  0  0  0  0
    1.6917   -6.0250    0.0000 C   0  0  0  0  0  0  0  0  0  0  0  0
    7.5542   -1.3125    0.0000 C   0  0  0  0  0  0  0  0  0  0  0  0
  2  1  2  0  0  0  0
  3  6  1  0  0  0  0
  4  3  1  0  0  0  0
  5  2  1  0  0  0  0
  6  1  1  0  0  0  0
  7  1  1  0  0  0  0
  8  7  2  0  0  0  0
  9  2  1  0  0  0  0
 10 18  1  0  0  0  0
 11  8  1  0  0  0  0
 12  4  1  0  0  0  0
 13 10  1  0  0  0  0
 14  3  1  0  0  0  0
 15  7  1  0  0  0  0
 16  6  2  0  0  0  0
 17 22  1  0  0  0  0
 18 15  1  0  0  0  0
 19 17  1  0  0  0  0
 20 13  2  0  0  0  0
 21 17  2  0  0  0  0
 22 12  1  0  0  0  0
 23 14  2  0  0  0  0
 24 14  1  0  0  0  0
 25 19  1  0  0  0  0
 26 33  2  0  0  0  0
 27 24  2  0  0  0  0
 28 23  1  0  0  0  0
 29 27  1  0  0  0  0
 30 25  1  0  0  0  0
 31 25  2  0  0  0  0
 32 30  2  0  0  0  0
 33 31  1  0  0  0  0
 34 26  1  0  0  0  0
 35 13  1  0  0  0  0
 36 29  1  0  0  0  0
 37 34  1  0  0  0  0
  8  9  1  0  0  0  0
  5  4  2  0  0  0  0
 11 10  1  0  0  0  0
 28 29  2  0  0  0  0
 32 26  1  0  0  0  0
M  END
> <IDNUMBER>
F3222-2456

> <Chemical_Name>
2-{[11-acetyl-4-(4-methylphenyl)-3-oxo-8-thia-4,6,11-triazatricyclo[7.4.0.0^{2,7}]trideca-1(9),2(7),5-trien-5-yl]sulfanyl}-N-(4-methoxyphenyl)acetamide

> <CAS>
1189691-26-6

> <PriceCoeff>
1.00

> <MW>
534.65

> <Description>
solid

> <FSP3>
0.26

> <clogP>
3.18

> <TPSA>
144.85

> <Acceptor>
5

> <Donor>
1

> <RotBonds>
7

> <HAC>
37

> <Collection>
General

> <Reference_compound>
CHEMBL577016

> <Similarity>
0.8990

$$$$
F1360-0679
  -ISIS-  06222321452D

 30 33  0  0  0  0  0  0  0  0999 V2000
   -1.7708    1.2958    0.0000 C   0  0  0  0  0  0  0  0  0  0  0  0
   -1.6500    0.9125    0.0000 C   0  0  0  0  0  0  0  0  0  0  0  0
   -1.1125    1.4958    0.0000 N   0  0  3  0  0  0  0  0  0  0  0  0
   -0.9958    1.1333    0.0000 C   0  0  0  0  0  0  0  0  0  0  0  0
   -1.2500    0.8125    0.0000 N   0  0  0  0  0  0  0  0  0  0  0  0
   -1.4958    1.5708    0.0000 C   0  0  0  0  0  0  0  0  0  0  0  0
   -1.9958    0.6708    0.0000 S   0  0  0  0  0  0  0  0  0  0  0  0
   -2.1708    1.2958    0.0000 C   0  0  0  0  0  0  0  0  0  0  0  0
   -2.2958    0.9125    0.0000 C   0  0  0  0  0  0  0  0  0  0  0  0
   -0.5708    1.0708    0.0000 S   0  0  0  0  0  0  0  0  0  0  0  0
   -0.8333    1.7958    0.0000 C   0  0  0  0  0  0  0  0  0  0  0  0
   -1.6125    1.9958    0.0000 O   0  0  0  0  0  0  0  0  0  0  0  0
    0.0667    1.3333    0.0000 C   0  0  0  0  0  0  0  0  0  0  0  0
    0.3042    1.6708    0.0000 N   0  0  0  0  0  0  0  0  0  0  0  0
    0.2292    0.9708    0.0000 O   0  0  0  0  0  0  0  0  0  0  0  0
   -0.3333    1.3958    0.0000 C   0  0  0  0  0  0  0  0  0  0  0  0
    0.7042    1.6333    0.0000 C   0  0  0  0  0  0  0  0  0  0  0  0
   -2.4125    1.6333    0.0000 C   0  0  0  0  0  0  0  0  0  0  0  0
    1.5042    1.5500    0.0000 C   0  0  0  0  0  0  0  0  0  0  0  0
   -2.6708    0.7958    0.0000 C   0  0  0  0  0  0  0  0  0  0  0  0
    0.8875    1.2500    0.0000 C   0  0  0  0  0  0  0  0  0  0  0  0
    0.9500    1.9583    0.0000 C   0  0  0  0  0  0  0  0  0  0  0  0
    1.2875    1.2125    0.0000 C   0  0  0  0  0  0  0  0  0  0  0  0
    1.3500    1.8958    0.0000 C   0  0  0  0  0  0  0  0  0  0  0  0
   -0.9125    2.1708    0.0000 C   0  0  0  0  0  0  0  0  0  0  0  0
   -0.4500    1.6500    0.0000 C   0  0  0  0  0  0  0  0  0  0  0  0
    1.9292    1.5333    0.0000 C   0  0  0  0  0  0  0  0  0  0  0  0
   -0.1500    1.8958    0.0000 C   0  0  0  0  0  0  0  0  0  0  0  0
   -0.5958    2.4333    0.0000 C   0  0  0  0  0  0  0  0  0  0  0  0
   -0.2125    2.2958    0.0000 C   0  0  0  0  0  0  0  0  0  0  0  0
  2  1  2  0  0  0  0
  3  6  1  0  0  0  0
  4  3  1  0  0  0  0
  5  2  1  0  0  0  0
  6  1  1  0  0  0  0
  7  2  1  0  0  0  0
  8  1  1  0  0  0  0
  9  8  2  0  0  0  0
 10  4  1  0  0  0  0
 11  3  1  0  0  0  0
 12  6  2  0  0  0  0
 13 16  1  0  0  0  0
 14 13  1  0  0  0  0
 15 13  2  0  0  0  0
 16 10  1  0  0  0  0
 17 14  1  0  0  0  0
 18  8  1  0  0  0  0
 19 24  2  0  0  0  0
 20  9  1  0  0  0  0
 21 17  1  0  0  0  0
 22 17  2  0  0  0  0
 23 21  2  0  0  0  0
 24 22  1  0  0  0  0
 25 11  2  0  0  0  0
 26 11  1  0  0  0  0
 27 19  1  0  0  0  0
 28 26  2  0  0  0  0
 29 25  1  0  0  0  0
 30 28  1  0  0  0  0
  7  9  1  0  0  0  0
  4  5  2  0  0  0  0
 30 29  2  0  0  0  0
 19 23  1  0  0  0  0
M  END
> <IDNUMBER>
F1360-0679

> <Chemical_Name>
2-({5,6-dimethyl-4-oxo-3-phenyl-3H,4H-thieno[2,3-d]pyrimidin-2-yl}sulfanyl)-N-(4-methylphenyl)acetamide

> <CAS>
496967-51-2

> <PriceCoeff>
1.00

> <MW>
435.56

> <Description>
solid

> <FSP3>
0.17

> <clogP>
5.55

> <TPSA>
115.31

> <Acceptor>
3

> <Donor>
1

> <RotBonds>
5

> <HAC>
30

> <Collection>
General

> <Reference_compound>
CHEMBL577016

> <Similarity>
0.8540

$$$$
F3222-2280
  -ISIS-  06222321462D

 36 40  0  0  0  0  0  0  0  0999 V2000
    5.7917   -3.5042    0.0000 C   0  0  0  0  0  0  0  0  0  0  0  0
    6.4625   -2.2375    0.0000 N   0  0  3  0  0  0  0  0  0  0  0  0
    5.0667   -3.1250    0.0000 C   0  0  0  0  0  0  0  0  0  0  0  0
    6.4917   -3.0625    0.0000 C   0  0  0  0  0  0  0  0  0  0  0  0
    5.0292   -2.2917    0.0000 N   0  0  0  0  0  0  0  0  0  0  0  0
    5.7292   -1.8542    0.0000 C   0  0  0  0  0  0  0  0  0  0  0  0
    5.6542   -4.3167    0.0000 C   0  0  0  0  0  0  0  0  0  0  0  0
    4.8417   -4.4375    0.0000 C   0  0  0  0  0  0  0  0  0  0  0  0
    4.4750   -3.7042    0.0000 S   0  0  0  0  0  0  0  0  0  0  0  0
    5.0417   -5.8500    0.0000 N   0  0  3  0  0  0  0  0  0  0  0  0
    4.5292   -5.2000    0.0000 C   0  0  0  0  0  0  0  0  0  0  0  0
    4.7417   -6.6167    0.0000 C   0  0  0  0  0  0  0  0  0  0  0  0
    5.7000   -1.0292    0.0000 S   0  0  0  0  0  0  0  0  0  0  0  0
    7.1667   -1.7792    0.0000 C   0  0  0  0  0  0  0  0  0  0  0  0
    6.1625   -4.9667    0.0000 C   0  0  0  0  0  0  0  0  0  0  0  0
    7.2417   -3.4417    0.0000 O   0  0  0  0  0  0  0  0  0  0  0  0
    6.3667    0.2333    0.0000 C   0  0  0  0  0  0  0  0  0  0  0  0
    5.8542   -5.7292    0.0000 C   0  0  0  0  0  0  0  0  0  0  0  0
    5.6375    0.6333    0.0000 N   0  0  0  0  0  0  0  0  0  0  0  0
    3.9292   -6.7417    0.0000 O   0  0  0  0  0  0  0  0  0  0  0  0
    4.9292    0.1958    0.0000 C   0  0  0  0  0  0  0  0  0  0  0  0
    7.0667    0.6708    0.0000 O   0  0  0  0  0  0  0  0  0  0  0  0
    6.3917   -0.5917    0.0000 C   0  0  0  0  0  0  0  0  0  0  0  0
    4.9542   -0.6292    0.0000 C   0  0  0  0  0  0  0  0  0  0  0  0
    7.9042   -2.1542    0.0000 C   0  0  0  0  0  0  0  0  0  0  0  0
    4.2500   -1.0542    0.0000 C   0  0  0  0  0  0  0  0  0  0  0  0
    5.2542   -7.2625    0.0000 C   0  0  0  0  0  0  0  0  0  0  0  0
    3.5000    0.1583    0.0000 C   0  0  0  0  0  0  0  0  0  0  0  0
    4.2042    0.5958    0.0000 C   0  0  0  0  0  0  0  0  0  0  0  0
    3.5167   -0.6667    0.0000 C   0  0  0  0  0  0  0  0  0  0  0  0
    4.2750   -1.8792    0.0000 C   0  0  0  0  0  0  0  0  0  0  0  0
    7.9542   -2.9792    0.0000 C   0  0  0  0  0  0  0  0  0  0  0  0
    8.5917   -1.7042    0.0000 C   0  0  0  0  0  0  0  0  0  0  0  0
    8.6917   -3.3542    0.0000 C   0  0  0  0  0  0  0  0  0  0  0  0
    9.3292   -2.0667    0.0000 C   0  0  0  0  0  0  0  0  0  0  0  0
    9.3917   -2.8917    0.0000 C   0  0  0  0  0  0  0  0  0  0  0  0
  2  4  1  0  0  0  0
  3  1  2  0  0  0  0
  4  1  1  0  0  0  0
  5  3  1  0  0  0  0
  6  2  1  0  0  0  0
  7  1  1  0  0  0  0
  8  7  2  0  0  0  0
  9  3  1  0  0  0  0
 10 18  1  0  0  0  0
 11  8  1  0  0  0  0
 12 10  1  0  0  0  0
 13  6  1  0  0  0  0
 14  2  1  0  0  0  0
 15  7  1  0  0  0  0
 16  4  2  0  0  0  0
 17 23  1  0  0  0  0
 18 15  1  0  0  0  0
 19 17  1  0  0  0  0
 20 12  2  0  0  0  0
 21 19  1  0  0  0  0
 22 17  2  0  0  0  0
 23 13  1  0  0  0  0
 24 21  2  0  0  0  0
 25 14  1  0  0  0  0
 26 24  1  0  0  0  0
 27 12  1  0  0  0  0
 28 29  2  0  0  0  0
 29 21  1  0  0  0  0
 30 28  1  0  0  0  0
 31 26  1  0  0  0  0
 32 25  1  0  0  0  0
 33 25  2  0  0  0  0
 34 32  2  0  0  0  0
 35 33  1  0  0  0  0
 36 35  2  0  0  0  0
  9  8  1  0  0  0  0
 10 11  1  0  0  0  0
  6  5  2  0  0  0  0
 34 36  1  0  0  0  0
 26 30  2  0  0  0  0
M  END
> <IDNUMBER>
F3222-2280

> <Chemical_Name>
2-({11-acetyl-4-benzyl-3-oxo-8-thia-4,6,11-triazatricyclo[7.4.0.0^{2,7}]trideca-1(9),2(7),5-trien-5-yl}sulfanyl)-N-(3-methylphenyl)acetamide

> <CAS>
1189926-11-1

> <PriceCoeff>
1.00

> <MW>
518.65

> <Description>
solid

> <FSP3>
0.26

> <clogP>
2.88

> <TPSA>
135.62

> <Acceptor>
4

> <Donor>
1

> <RotBonds>
7

> <HAC>
36

> <Collection>
General

> <Reference_compound>
CHEMBL577016

> <Similarity>
0.8960

$$$$
F1537-0036
  -ISIS-  06222321142D

 29 31  0  0  0  0  0  0  0  0999 V2000
    4.4875   -1.0875    0.0000 C   0  0  0  0  0  0  0  0  0  0  0  0
    4.4875   -1.8042    0.0000 N   0  3  0  0  0  0  0  0  0  0  0  0
    0.7917    0.3833    0.0000 N   0  0  0  0  0  0  0  0  0  0  0  0
    1.4375    0.0083    0.0000 C   0  0  0  0  0  0  0  0  0  0  0  0
    0.7917   -1.1000    0.0000 S   0  0  0  0  0  0  0  0  0  0  0  0
    1.4375   -0.7292    0.0000 C   0  0  3  0  0  0  0  0  0  0  0  0
   -1.7375    0.3708    0.0000 C   0  0  3  0  0  0  0  0  0  0  0  0
    0.1625    0.0083    0.0000 C   0  0  0  0  0  0  0  0  0  0  0  0
    3.8792   -0.7292    0.0000 C   0  0  0  0  0  0  0  0  0  0  0  0
    2.0500   -1.0792    0.0000 C   0  0  0  0  0  0  0  0  0  0  0  0
    2.6542   -0.7292    0.0000 C   0  0  0  0  0  0  0  0  0  0  0  0
    0.1625   -0.7292    0.0000 C   0  0  0  0  0  0  0  0  0  0  0  0
    3.2667   -1.0792    0.0000 N   0  0  0  0  0  0  0  0  0  0  0  0
   -1.1208    0.0125    0.0000 C   0  0  0  0  0  0  0  0  0  0  0  0
    5.0917   -0.7417    0.0000 C   0  0  0  0  0  0  0  0  0  0  0  0
   -0.4833    0.3833    0.0000 C   0  0  0  0  0  0  0  0  0  0  0  0
    3.8667   -2.1667    0.0000 O   0  5  0  0  0  0  0  0  0  0  0  0
    5.1042   -2.1667    0.0000 O   0  0  0  0  0  0  0  0  0  0  0  0
    2.0500    0.3625    0.0000 O   0  0  0  0  0  0  0  0  0  0  0  0
    2.6542   -0.0292    0.0000 O   0  0  0  0  0  0  0  0  0  0  0  0
   -0.4833   -1.0917    0.0000 C   0  0  0  0  0  0  0  0  0  0  0  0
   -1.1208   -0.7292    0.0000 C   0  0  0  0  0  0  0  0  0  0  0  0
    3.8750   -0.0292    0.0000 C   0  0  0  0  0  0  0  0  0  0  0  0
   -2.3083    0.6958    0.0000 F   0  0  0  0  0  0  0  0  0  0  0  0
   -1.8583    1.1125    0.0000 F   0  0  0  0  0  0  0  0  0  0  0  0
   -2.4375    0.1083    0.0000 F   0  0  0  0  0  0  0  0  0  0  0  0
    5.0917   -0.0292    0.0000 C   0  0  0  0  0  0  0  0  0  0  0  0
    4.4792    0.3208    0.0000 C   0  0  0  0  0  0  0  0  0  0  0  0
    5.7167    0.3208    0.0000 Cl  0  0  0  0  0  0  0  0  0  0  0  0
  2  1  1  0  0  0  0
  3  4  1  0  0  0  0
  4  6  1  0  0  0  0
  5  6  1  0  0  0  0
  6 10  1  0  0  0  0
  7 14  1  0  0  0  0
  8 12  2  0  0  0  0
  9  1  2  0  0  0  0
 10 11  1  0  0  0  0
 11 13  1  0  0  0  0
 12  5  1  0  0  0  0
 13  9  1  0  0  0  0
 14 22  1  0  0  0  0
 15  1  1  0  0  0  0
 16  8  1  0  0  0  0
 17  2  1  0  0  0  0
 18  2  2  0  0  0  0
 19  4  2  0  0  0  0
 20 11  2  0  0  0  0
 21 12  1  0  0  0  0
 22 21  2  0  0  0  0
 23  9  1  0  0  0  0
 24  7  1  0  0  0  0
 25  7  1  0  0  0  0
 26  7  1  0  0  0  0
 27 15  2  0  0  0  0
 28 27  1  0  0  0  0
 29 27  1  0  0  0  0
 28 23  2  0  0  0  0
  3  8  1  0  0  0  0
 14 16  2  0  0  0  0
M  CHG  2   2   1  17  -1
M  END
> <IDNUMBER>
F1537-0036

> <Chemical_Name>
N-(4-chloro-2-nitrophenyl)-2-[3-oxo-6-(trifluoromethyl)-3,4-dihydro-2H-1,4-benzothiazin-2-yl]acetamide

> <CAS>
670255-11-5

> <PriceCoeff>
1.00

> <MW>
445.80

> <Description>
solid

> <FSP3>
0.18

> <clogP>
4.25

> <TPSA>
126.64

> <Acceptor>
4

> <Donor>
2

> <RotBonds>
4

> <HAC>
29

> <Collection>
General

$$$$
F3222-2642
  -ISIS-  06222321152D

 37 41  0  0  0  0  0  0  0  0999 V2000
    6.5167   -9.0667    0.0000 C   0  0  0  0  0  0  0  0  0  0  0  0
    7.1792   -7.7917    0.0000 N   0  0  3  0  0  0  0  0  0  0  0  0
    5.7875   -8.6792    0.0000 C   0  0  0  0  0  0  0  0  0  0  0  0
    7.2167   -8.6167    0.0000 C   0  0  0  0  0  0  0  0  0  0  0  0
    5.7542   -7.8542    0.0000 N   0  0  0  0  0  0  0  0  0  0  0  0
    6.4542   -7.4167    0.0000 C   0  0  0  0  0  0  0  0  0  0  0  0
    6.3750   -9.8792    0.0000 C   0  0  0  0  0  0  0  0  0  0  0  0
    5.5625   -9.9917    0.0000 C   0  0  0  0  0  0  0  0  0  0  0  0
    5.1917   -9.2667    0.0000 S   0  0  0  0  0  0  0  0  0  0  0  0
    5.7667  -11.4042    0.0000 N   0  0  3  0  0  0  0  0  0  0  0  0
    5.2542  -10.7542    0.0000 C   0  0  0  0  0  0  0  0  0  0  0  0
    7.7667   -4.0625    0.0000 C   0  0  0  0  0  0  0  0  0  0  0  0
    5.4667  -12.1792    0.0000 C   0  0  0  0  0  0  0  0  0  0  0  0
    6.4167   -6.5917    0.0000 S   0  0  0  0  0  0  0  0  0  0  0  0
    7.7875   -4.8917    0.0000 N   0  0  0  0  0  0  0  0  0  0  0  0
    7.8875   -7.3417    0.0000 C   0  0  0  0  0  0  0  0  0  0  0  0
    6.8792  -10.5250    0.0000 C   0  0  0  0  0  0  0  0  0  0  0  0
    7.0875   -5.3250    0.0000 C   0  0  0  0  0  0  0  0  0  0  0  0
    7.9625   -9.0000    0.0000 O   0  0  0  0  0  0  0  0  0  0  0  0
    8.4792   -3.6292    0.0000 C   0  0  0  0  0  0  0  0  0  0  0  0
    6.5750  -11.2917    0.0000 C   0  0  0  0  0  0  0  0  0  0  0  0
    7.0417   -3.6625    0.0000 C   0  0  0  0  0  0  0  0  0  0  0  0
    4.6500  -12.3042    0.0000 O   0  0  0  0  0  0  0  0  0  0  0  0
    6.3542   -4.9292    0.0000 O   0  0  0  0  0  0  0  0  0  0  0  0
    7.1167   -6.1542    0.0000 C   0  0  0  0  0  0  0  0  0  0  0  0
    7.0292   -2.8292    0.0000 C   0  0  0  0  0  0  0  0  0  0  0  0
    8.4625   -2.8042    0.0000 C   0  0  0  0  0  0  0  0  0  0  0  0
    6.3292   -4.0917    0.0000 F   0  0  0  0  0  0  0  0  0  0  0  0
    8.6250   -7.7167    0.0000 C   0  0  0  0  0  0  0  0  0  0  0  0
    7.7417   -2.4167    0.0000 C   0  0  0  0  0  0  0  0  0  0  0  0
    9.1667   -2.3625    0.0000 F   0  0  0  0  0  0  0  0  0  0  0  0
    5.9792  -12.8167    0.0000 C   0  0  0  0  0  0  0  0  0  0  0  0
    9.3167   -7.2542    0.0000 C   0  0  0  0  0  0  0  0  0  0  0  0
    8.6792   -8.5417    0.0000 C   0  0  0  0  0  0  0  0  0  0  0  0
   10.0542   -7.6292    0.0000 C   0  0  0  0  0  0  0  0  0  0  0  0
    9.4167   -8.9125    0.0000 C   0  0  0  0  0  0  0  0  0  0  0  0
   10.1000   -8.4542    0.0000 C   0  0  0  0  0  0  0  0  0  0  0  0
  2  4  1  0  0  0  0
  3  1  2  0  0  0  0
  4  1  1  0  0  0  0
  5  3  1  0  0  0  0
  6  2  1  0  0  0  0
  7  1  1  0  0  0  0
  8  7  2  0  0  0  0
  9  3  1  0  0  0  0
 10 21  1  0  0  0  0
 11  8  1  0  0  0  0
 12 15  1  0  0  0  0
 13 10  1  0  0  0  0
 14  6  1  0  0  0  0
 15 18  1  0  0  0  0
 16  2  1  0  0  0  0
 17  7  1  0  0  0  0
 18 25  1  0  0  0  0
 19  4  2  0  0  0  0
 20 12  2  0  0  0  0
 21 17  1  0  0  0  0
 22 12  1  0  0  0  0
 23 13  2  0  0  0  0
 24 18  2  0  0  0  0
 25 14  1  0  0  0  0
 26 22  2  0  0  0  0
 27 20  1  0  0  0  0
 28 22  1  0  0  0  0
 29 16  1  0  0  0  0
 30 26  1  0  0  0  0
 31 27  1  0  0  0  0
 32 13  1  0  0  0  0
 33 29  2  0  0  0  0
 34 29  1  0  0  0  0
 35 33  1  0  0  0  0
 36 34  2  0  0  0  0
 37 36  1  0  0  0  0
  9  8  1  0  0  0  0
 10 11  1  0  0  0  0
  6  5  2  0  0  0  0
 37 35  2  0  0  0  0
 30 27  2  0  0  0  0
M  END
> <IDNUMBER>
F3222-2642

> <Chemical_Name>
2-({11-acetyl-4-benzyl-3-oxo-8-thia-4,6,11-triazatricyclo[7.4.0.0^{2,7}]trideca-1(9),2(7),5-trien-5-yl}sulfanyl)-N-(2,5-difluorophenyl)acetamide

> <CAS>
1215612-33-1

> <PriceCoeff>
1.00

> <MW>
540.60

> <Description>
solid

> <FSP3>
0.23

> <clogP>
2.41

> <TPSA>
135.62

> <Acceptor>
4

> <Donor>
1

> <RotBonds>
7

> <HAC>
37

> <Collection>
General

> <Reference_compound>
CHEMBL577016

> <Similarity>
0.8410

$$$$
F3222-1452
  -ISIS-  06222321462D

 37 41  0  0  0  0  0  0  0  0999 V2000
    5.7167   -9.3625    0.0000 C   0  0  0  0  0  0  0  0  0  0  0  0
    7.1042   -9.0417    0.0000 N   0  0  3  0  0  0  0  0  0  0  0  0
    5.9042  -10.1750    0.0000 C   0  0  0  0  0  0  0  0  0  0  0  0
    6.3125   -8.8042    0.0000 C   0  0  0  0  0  0  0  0  0  0  0  0
    6.6917  -10.4042    0.0000 N   0  0  0  0  0  0  0  0  0  0  0  0
    7.2917   -9.8500    0.0000 C   0  0  0  0  0  0  0  0  0  0  0  0
    4.8792   -9.2917    0.0000 C   0  0  0  0  0  0  0  0  0  0  0  0
    4.5625  -10.0625    0.0000 C   0  0  0  0  0  0  0  0  0  0  0  0
    5.1792  -10.6042    0.0000 S   0  0  0  0  0  0  0  0  0  0  0  0
    3.2250   -9.5042    0.0000 N   0  0  3  0  0  0  0  0  0  0  0  0
    3.7292  -10.1667    0.0000 C   0  0  0  0  0  0  0  0  0  0  0  0
    2.4042   -9.6042    0.0000 C   0  0  0  0  0  0  0  0  0  0  0  0
    8.0792  -10.0875    0.0000 S   0  0  0  0  0  0  0  0  0  0  0  0
    7.7042   -8.4792    0.0000 C   0  0  0  0  0  0  0  0  0  0  0  0
    6.8750  -11.2250    0.0000 N   0  0  0  0  0  0  0  0  0  0  0  0
    4.3792   -8.6292    0.0000 C   0  0  0  0  0  0  0  0  0  0  0  0
    6.2667  -11.7917    0.0000 C   0  0  0  0  0  0  0  0  0  0  0  0
    7.6625  -11.4667    0.0000 C   0  0  0  0  0  0  0  0  0  0  0  0
    6.1167   -7.9917    0.0000 O   0  0  0  0  0  0  0  0  0  0  0  0
    6.4500  -12.5917    0.0000 C   0  0  0  0  0  0  0  0  0  0  0  0
    3.5500   -8.7375    0.0000 C   0  0  0  0  0  0  0  0  0  0  0  0
    2.0917  -10.3667    0.0000 O   0  0  0  0  0  0  0  0  0  0  0  0
    5.8500  -13.1542    0.0000 C   0  0  0  0  0  0  0  0  0  0  0  0
    7.8542  -12.2667    0.0000 O   0  0  0  0  0  0  0  0  0  0  0  0
    5.4750  -11.5542    0.0000 C   0  0  0  0  0  0  0  0  0  0  0  0
    8.2667  -10.9000    0.0000 C   0  0  0  0  0  0  0  0  0  0  0  0
    5.0542  -12.9042    0.0000 C   0  0  0  0  0  0  0  0  0  0  0  0
    8.5000   -8.7250    0.0000 C   0  0  0  0  0  0  0  0  0  0  0  0
    4.8667  -12.1125    0.0000 C   0  0  0  0  0  0  0  0  0  0  0  0
    1.9042   -8.9500    0.0000 C   0  0  0  0  0  0  0  0  0  0  0  0
    7.2500  -12.8500    0.0000 C   0  0  0  0  0  0  0  0  0  0  0  0
    4.4417  -13.4917    0.0000 C   0  0  0  0  0  0  0  0  0  0  0  0
    9.1042   -8.1542    0.0000 C   0  0  0  0  0  0  0  0  0  0  0  0
    8.6875   -9.5292    0.0000 C   0  0  0  0  0  0  0  0  0  0  0  0
    9.8792   -8.3917    0.0000 C   0  0  0  0  0  0  0  0  0  0  0  0
    9.4667   -9.7667    0.0000 C   0  0  0  0  0  0  0  0  0  0  0  0
   10.0667   -9.2000    0.0000 C   0  0  0  0  0  0  0  0  0  0  0  0
  2  4  1  0  0  0  0
  3  1  2  0  0  0  0
  4  1  1  0  0  0  0
  5  3  1  0  0  0  0
  6  2  1  0  0  0  0
  7  1  1  0  0  0  0
  8  7  2  0  0  0  0
  9  3  1  0  0  0  0
 10 21  1  0  0  0  0
 11  8  1  0  0  0  0
 12 10  1  0  0  0  0
 13  6  1  0  0  0  0
 14  2  1  0  0  0  0
 15 18  1  0  0  0  0
 16  7  1  0  0  0  0
 17 15  1  0  0  0  0
 18 26  1  0  0  0  0
 19  4  2  0  0  0  0
 20 17  1  0  0  0  0
 21 16  1  0  0  0  0
 22 12  2  0  0  0  0
 23 20  2  0  0  0  0
 24 18  2  0  0  0  0
 25 17  2  0  0  0  0
 26 13  1  0  0  0  0
 27 29  2  0  0  0  0
 28 14  1  0  0  0  0
 29 25  1  0  0  0  0
 30 12  1  0  0  0  0
 31 20  1  0  0  0  0
 32 27  1  0  0  0  0
 33 28  2  0  0  0  0
 34 28  1  0  0  0  0
 35 33  1  0  0  0  0
 36 34  2  0  0  0  0
 37 36  1  0  0  0  0
  9  8  1  0  0  0  0
 10 11  1  0  0  0  0
  6  5  2  0  0  0  0
 37 35  2  0  0  0  0
 27 23  1  0  0  0  0
M  END
> <IDNUMBER>
F3222-1452

> <Chemical_Name>
2-({11-acetyl-4-benzyl-3-oxo-8-thia-4,6,11-triazatricyclo[7.4.0.0^{2,7}]trideca-1(9),2(7),5-trien-5-yl}sulfanyl)-N-(2,4-dimethylphenyl)acetamide

> <CAS>
1189865-08-4

> <PriceCoeff>
1.00

> <MW>
532.68

> <Description>
solid

> <FSP3>
0.29

> <clogP>
2.73

> <TPSA>
135.62

> <Acceptor>
4

> <Donor>
1

> <RotBonds>
7

> <HAC>
37

> <Collection>
General

> <Reference_compound>
CHEMBL577016

> <Similarity>
0.8820

$$$$
F3386-3753
  -ISIS-  06222321462D

 18 19  0  0  0  0  0  0  0  0999 V2000
    4.7917   -6.1625    0.0000 S   0  0  3  0  0  0  0  0  0  0  0  0
    5.6167   -6.1625    0.0000 O   0  0  0  0  0  0  0  0  0  0  0  0
    3.9667   -6.1625    0.0000 C   0  0  0  0  0  0  0  0  0  0  0  0
    4.7917   -6.9875    0.0000 O   0  0  0  0  0  0  0  0  0  0  0  0
    4.7917   -5.3375    0.0000 O   0  0  0  0  0  0  0  0  0  0  0  0
    3.5542   -5.4417    0.0000 C   0  0  0  0  0  0  0  0  0  0  0  0
    3.5542   -6.8667    0.0000 C   0  0  0  0  0  0  0  0  0  0  0  0
    6.4417   -6.1625    0.0000 C   0  0  0  0  0  0  0  0  0  0  0  0
    2.3167   -6.1542    0.0000 C   0  0  0  0  0  0  0  0  0  0  0  0
    8.0875   -6.1625    0.0000 C   0  0  0  0  0  0  0  0  0  0  0  0
    2.7292   -6.8750    0.0000 C   0  0  0  0  0  0  0  0  0  0  0  0
    2.7292   -5.4417    0.0000 C   0  0  0  0  0  0  0  0  0  0  0  0
    8.9125   -6.1625    0.0000 Cl  0  0  0  0  0  0  0  0  0  0  0  0
    1.4917   -6.1542    0.0000 Br  0  0  0  0  0  0  0  0  0  0  0  0
    6.8500   -6.8792    0.0000 C   0  0  0  0  0  0  0  0  0  0  0  0
    6.8500   -5.4500    0.0000 C   0  0  0  0  0  0  0  0  0  0  0  0
    7.6667   -5.4417    0.0000 C   0  0  0  0  0  0  0  0  0  0  0  0
    7.6750   -6.8792    0.0000 C   0  0  0  0  0  0  0  0  0  0  0  0
  2  1  1  0  0  0  0
  3  1  1  0  0  0  0
  4  1  2  0  0  0  0
  5  1  2  0  0  0  0
  6  3  2  0  0  0  0
  7  3  1  0  0  0  0
  8  2  1  0  0  0  0
  9 11  1  0  0  0  0
 10 17  1  0  0  0  0
 11  7  2  0  0  0  0
 12  6  1  0  0  0  0
 13 10  1  0  0  0  0
 14  9  1  0  0  0  0
 15  8  2  0  0  0  0
 16  8  1  0  0  0  0
 17 16  2  0  0  0  0
 18 15  1  0  0  0  0
  9 12  2  0  0  0  0
 10 18  2  0  0  0  0
M  END
> <IDNUMBER>
F3386-3753

> <Chemical_Name>
4-chlorophenyl 4-bromobenzene-1-sulfonate

> <CAS>
7463-24-3

> <PriceCoeff>
1.00

> <MW>
347.61

> <Description>
solid

> <FSP3>
0.00

> <clogP>
4.81

> <TPSA>
51.75

> <Acceptor>
3

> <Donor>
0

> <RotBonds>
3

> <HAC>
18

> <Collection>
General

> <Reference_compound>
PRI3215

> <Similarity>
0.8980

$$$$
F2510-0139
  -ISIS-  06222321142D

 28 30  0  0  0  0  0  0  0  0999 V2000
   -6.0042    5.5792    0.0000 N   0  3  0  0  0  0  0  0  0  0  0  0
   -5.8083    4.7917    0.0000 C   0  0  0  0  0  0  0  0  0  0  0  0
   -2.9833    2.5583    0.0000 C   0  0  0  0  0  0  0  0  0  0  0  0
   -2.2708    2.9833    0.0000 C   0  0  0  0  0  0  0  0  0  0  0  0
   -3.9958    3.5708    0.0000 C   0  0  0  0  0  0  0  0  0  0  0  0
   -1.5583    2.5583    0.0000 C   0  0  0  0  0  0  0  0  0  0  0  0
   -5.0083    4.5667    0.0000 C   0  0  0  0  0  0  0  0  0  0  0  0
   -3.7833    2.7750    0.0000 O   0  0  0  0  0  0  0  0  0  0  0  0
   -2.9833    1.7333    0.0000 C   0  0  0  0  0  0  0  0  0  0  0  0
    0.5292    1.7000    0.0000 C   0  0  0  0  0  0  0  0  0  0  0  0
   -4.7875    3.7833    0.0000 C   0  0  0  0  0  0  0  0  0  0  0  0
   -1.5583    1.7333    0.0000 C   0  0  0  0  0  0  0  0  0  0  0  0
   -2.2708    1.3250    0.0000 O   0  0  0  0  0  0  0  0  0  0  0  0
   -6.3792    4.1917    0.0000 C   0  0  0  0  0  0  0  0  0  0  0  0
   -5.4375    6.1667    0.0000 O   0  5  0  0  0  0  0  0  0  0  0  0
   -6.8042    5.7917    0.0000 O   0  0  0  0  0  0  0  0  0  0  0  0
    1.1125    2.2875    0.0000 N   0  0  0  0  0  0  0  0  0  0  0  0
    0.7417    0.9083    0.0000 N   0  0  0  0  0  0  0  0  0  0  0  0
   -0.2625    1.9083    0.0000 S   0  0  0  0  0  0  0  0  0  0  0  0
   -3.4083    4.1417    0.0000 O   0  0  0  0  0  0  0  0  0  0  0  0
   -2.2708    3.8000    0.0000 O   0  0  0  0  0  0  0  0  0  0  0  0
   -5.3708    3.2083    0.0000 C   0  0  0  0  0  0  0  0  0  0  0  0
   -6.1542    3.4083    0.0000 C   0  0  0  0  0  0  0  0  0  0  0  0
   -0.8458    1.3208    0.0000 C   0  0  0  0  0  0  0  0  0  0  0  0
   -7.1667    4.4042    0.0000 Cl  0  0  0  0  0  0  0  0  0  0  0  0
    2.1250    1.2833    0.0000 C   0  0  0  0  0  0  0  0  0  0  0  0
    1.5375    0.6958    0.0000 C   0  0  0  0  0  0  0  0  0  0  0  0
    1.9042    2.0833    0.0000 C   0  0  0  0  0  0  0  0  0  0  0  0
  2  1  1  0  0  0  0
  3  8  1  0  0  0  0
  4  3  1  0  0  0  0
  5 11  1  0  0  0  0
  6  4  1  0  0  0  0
  7  2  2  0  0  0  0
  8  5  1  0  0  0  0
  9  3  2  0  0  0  0
 10 19  1  0  0  0  0
 11  7  1  0  0  0  0
 12 13  1  0  0  0  0
 13  9  1  0  0  0  0
 14  2  1  0  0  0  0
 15  1  1  0  0  0  0
 16  1  2  0  0  0  0
 17 10  2  0  0  0  0
 18 10  1  0  0  0  0
 19 24  1  0  0  0  0
 20  5  2  0  0  0  0
 21  4  2  0  0  0  0
 22 23  1  0  0  0  0
 23 14  2  0  0  0  0
 24 12  1  0  0  0  0
 25 14  1  0  0  0  0
 26 27  1  0  0  0  0
 27 18  2  0  0  0  0
 28 17  1  0  0  0  0
 11 22  2  0  0  0  0
 12  6  2  0  0  0  0
 28 26  2  0  0  0  0
M  CHG  2   1   1  15  -1
M  END
> <IDNUMBER>
F2510-0139

> <Chemical_Name>
4-oxo-6-[(pyrimidin-2-ylsulfanyl)methyl]-4H-pyran-3-yl 4-chloro-3-nitrobenzoate

> <CAS>
877636-57-2

> <PriceCoeff>
1.00

> <MW>
419.80

> <Description>
solid

> <FSP3>
0.06

> <clogP>
2.14

> <TPSA>
146.82

> <Acceptor>
8

> <Donor>
0

> <RotBonds>
7

> <HAC>
28

> <Collection>
General

$$$$
F3115-0024
  -ISIS-  06222321442D

 28 30  0  0  0  0  0  0  0  0999 V2000
   -0.3333    0.0958    0.0000 N   0  0  3  0  0  0  0  0  0  0  0  0
   -2.0000    0.9333    0.0000 C   0  0  0  0  0  0  0  0  0  0  0  0
    0.2042    1.0333    0.0000 C   0  0  0  0  0  0  0  0  0  0  0  0
   -1.4333    0.0125    0.0000 C   0  0  0  0  0  0  0  0  0  0  0  0
    0.3667   -0.7500    0.0000 C   0  0  0  0  0  0  0  0  0  0  0  0
   -1.4833    1.8958    0.0000 N   0  3  0  0  0  0  0  0  0  0  0  0
    1.3792   -0.3042    0.0000 C   0  0  3  0  0  0  0  0  0  0  0  0
    1.2667    0.7833    0.0000 C   0  0  0  0  0  0  0  0  0  0  0  0
    4.1375   -1.1292    0.0000 C   0  0  0  0  0  0  0  0  0  0  0  0
    2.2500   -0.9500    0.0000 S   0  0  0  0  0  0  0  0  0  0  0  0
    3.2667   -0.5000    0.0000 C   0  0  0  0  0  0  0  0  0  0  0  0
    4.0542   -2.2167    0.0000 C   0  0  0  0  0  0  0  0  0  0  0  0
   -3.1000    0.8833    0.0000 C   0  0  0  0  0  0  0  0  0  0  0  0
   -1.9125   -0.9667    0.0000 C   0  0  0  0  0  0  0  0  0  0  0  0
   -0.8125    1.9583    0.0000 O   0  5  0  0  0  0  0  0  0  0  0  0
    0.1500    1.9583    0.0000 O   0  0  0  0  0  0  0  0  0  0  0  0
   -1.9958    2.8625    0.0000 O   0  0  0  0  0  0  0  0  0  0  0  0
    0.1500   -1.8167    0.0000 O   0  0  0  0  0  0  0  0  0  0  0  0
    4.9292   -2.8542    0.0000 O   0  0  0  0  0  0  0  0  0  0  0  0
   -3.6000   -0.0875    0.0000 C   0  0  0  0  0  0  0  0  0  0  0  0
   -3.0000   -1.0375    0.0000 C   0  0  0  0  0  0  0  0  0  0  0  0
    3.0542   -2.7000    0.0000 O   0  0  0  0  0  0  0  0  0  0  0  0
    5.1292   -0.7000    0.0000 C   0  0  0  0  0  0  0  0  0  0  0  0
   -4.6958   -0.1042    0.0000 O   0  0  0  0  0  0  0  0  0  0  0  0
    3.3667    0.5625    0.0000 C   0  0  0  0  0  0  0  0  0  0  0  0
   -5.2708    0.8125    0.0000 C   0  0  0  0  0  0  0  0  0  0  0  0
    5.2375    0.4000    0.0000 C   0  0  0  0  0  0  0  0  0  0  0  0
    4.3542    1.0500    0.0000 C   0  0  0  0  0  0  0  0  0  0  0  0
  2  4  2  0  0  0  0
  3  1  1  0  0  0  0
  4  1  1  0  0  0  0
  5  1  1  0  0  0  0
  6  2  1  0  0  0  0
  7  5  1  0  0  0  0
  8  3  1  0  0  0  0
  9 11  2  0  0  0  0
 10  7  1  0  0  0  0
 11 10  1  0  0  0  0
 12  9  1  0  0  0  0
 13  2  1  0  0  0  0
 14  4  1  0  0  0  0
 15  6  1  0  0  0  0
 16  3  2  0  0  0  0
 17  6  2  0  0  0  0
 18  5  2  0  0  0  0
 19 12  2  0  0  0  0
 20 21  1  0  0  0  0
 21 14  2  0  0  0  0
 22 12  1  0  0  0  0
 23  9  1  0  0  0  0
 24 20  1  0  0  0  0
 25 11  1  0  0  0  0
 26 24  1  0  0  0  0
 27 28  1  0  0  0  0
 28 25  2  0  0  0  0
  7  8  1  0  0  0  0
 20 13  2  0  0  0  0
 27 23  2  0  0  0  0
M  CHG  2   6   1  15  -1
M  END
> <IDNUMBER>
F3115-0024

> <Chemical_Name>
2-{[1-(4-methoxy-2-nitrophenyl)-2,5-dioxopyrrolidin-3-yl]sulfanyl}benzoic acid

> <CAS>
514182-18-4

> <PriceCoeff>
1.00

> <MW>
402.38

> <Description>
solid

> <FSP3>
0.17

> <clogP>
2.48

> <TPSA>
152.35

> <Acceptor>
7

> <Donor>
0

> <RotBonds>
6

> <HAC>
28

> <Collection>
General

$$$$
F0561-0608
  -ISIS-  06222321142D

 29 32  0  0  0  0  0  0  0  0999 V2000
   -3.2708    2.5458    0.0000 C   0  0  0  0  0  0  0  0  0  0  0  0
   -3.0083    1.7583    0.0000 C   0  0  0  0  0  0  0  0  0  0  0  0
   -4.0958    2.5458    0.0000 N   0  0  3  0  0  0  0  0  0  0  0  0
   -4.3458    1.7583    0.0000 N   0  0  0  0  0  0  0  0  0  0  0  0
   -3.6750    1.2750    0.0000 C   0  0  0  0  0  0  0  0  0  0  0  0
   -2.7833    3.2125    0.0000 N   0  0  0  0  0  0  0  0  0  0  0  0
   -1.6750    5.9542    0.0000 N   0  3  0  0  0  0  0  0  0  0  0  0
   -1.3333    5.2042    0.0000 C   0  0  0  0  0  0  0  0  0  0  0  0
   -2.6000    0.4875    0.0000 S   0  0  3  0  0  0  0  0  0  0  0  0
   -1.9708    3.1333    0.0000 C   0  0  0  0  0  0  0  0  0  0  0  0
   -3.4250    0.4875    0.0000 C   0  0  0  0  0  0  0  0  0  0  0  0
   -1.8208    4.5417    0.0000 C   0  0  0  0  0  0  0  0  0  0  0  0
   -2.3458    1.2750    0.0000 C   0  0  0  0  0  0  0  0  0  0  0  0
   -1.4833    3.7958    0.0000 C   0  0  0  0  0  0  0  0  0  0  0  0
   -4.5833    3.2083    0.0000 C   0  0  0  0  0  0  0  0  0  0  0  0
   -0.5250    5.1250    0.0000 C   0  0  0  0  0  0  0  0  0  0  0  0
   -1.2000    6.6250    0.0000 O   0  5  0  0  0  0  0  0  0  0  0  0
   -2.4958    6.0417    0.0000 O   0  0  0  0  0  0  0  0  0  0  0  0
   -2.1125   -0.1792    0.0000 O   0  0  0  0  0  0  0  0  0  0  0  0
   -1.6250    2.3750    0.0000 O   0  0  0  0  0  0  0  0  0  0  0  0
   -0.6625    3.7125    0.0000 C   0  0  0  0  0  0  0  0  0  0  0  0
   -0.1875    4.3667    0.0000 C   0  0  0  0  0  0  0  0  0  0  0  0
   -5.3958    3.1125    0.0000 C   0  0  0  0  0  0  0  0  0  0  0  0
   -4.2458    3.9583    0.0000 C   0  0  0  0  0  0  0  0  0  0  0  0
   -5.5458    4.5250    0.0000 C   0  0  0  0  0  0  0  0  0  0  0  0
   -0.0458    5.7792    0.0000 Cl  0  0  0  0  0  0  0  0  0  0  0  0
   -4.7333    4.6042    0.0000 C   0  0  0  0  0  0  0  0  0  0  0  0
   -5.8750    3.7750    0.0000 C   0  0  0  0  0  0  0  0  0  0  0  0
   -6.0292    5.1792    0.0000 F   0  0  0  0  0  0  0  0  0  0  0  0
  2  1  2  0  0  0  0
  3  1  1  0  0  0  0
  4  3  1  0  0  0  0
  5  2  1  0  0  0  0
  6  1  1  0  0  0  0
  7  8  1  0  0  0  0
  8 12  2  0  0  0  0
  9 13  1  0  0  0  0
 10  6  1  0  0  0  0
 11  5  1  0  0  0  0
 12 14  1  0  0  0  0
 13  2  1  0  0  0  0
 14 10  1  0  0  0  0
 15  3  1  0  0  0  0
 16 22  2  0  0  0  0
 17  7  1  0  0  0  0
 18  7  2  0  0  0  0
 19  9  2  0  0  0  0
 20 10  2  0  0  0  0
 21 14  2  0  0  0  0
 22 21  1  0  0  0  0
 23 15  2  0  0  0  0
 24 15  1  0  0  0  0
 25 27  1  0  0  0  0
 26 16  1  0  0  0  0
 27 24  2  0  0  0  0
 28 23  1  0  0  0  0
 29 25  1  0  0  0  0
  4  5  2  0  0  0  0
 11  9  1  0  0  0  0
 28 25  2  0  0  0  0
  8 16  1  0  0  0  0
M  CHG  2   7   1  17  -1
M  END
> <IDNUMBER>
F0561-0608

> <Chemical_Name>
4-chloro-N-[2-(4-fluorophenyl)-5-oxo-2H,4H,6H-5lambda4-thieno[3,4-c]pyrazol-3-yl]-3-nitrobenzamide

> <CAS>
1007192-96-2

> <PriceCoeff>
1.00

> <MW>
434.83

> <Description>
solid

> <FSP3>
0.11

> <clogP>
1.77

> <TPSA>
126.34

> <Acceptor>
5

> <Donor>
1

> <RotBonds>
4

> <HAC>
29

> <Collection>
General

$$$$
F3222-1439
  -ISIS-  06222321152D

 37 41  0  0  0  0  0  0  0  0999 V2000
    6.0125   -9.9042    0.0000 N   0  0  3  0  0  0  0  0  0  0  0  0
    4.5917  -10.0167    0.0000 C   0  0  0  0  0  0  0  0  0  0  0  0
    4.6625  -10.8417    0.0000 C   0  0  0  0  0  0  0  0  0  0  0  0
    6.0792  -10.7292    0.0000 C   0  0  0  0  0  0  0  0  0  0  0  0
    5.4042  -11.1917    0.0000 N   0  0  0  0  0  0  0  0  0  0  0  0
    5.2667   -9.5542    0.0000 C   0  0  0  0  0  0  0  0  0  0  0  0
    3.7792   -9.8417    0.0000 C   0  0  0  0  0  0  0  0  0  0  0  0
    3.3667  -10.5417    0.0000 C   0  0  0  0  0  0  0  0  0  0  0  0
    3.8917  -11.1667    0.0000 S   0  0  0  0  0  0  0  0  0  0  0  0
    2.1292   -9.8042    0.0000 N   0  0  3  0  0  0  0  0  0  0  0  0
    6.6917   -9.4250    0.0000 C   0  0  0  0  0  0  0  0  0  0  0  0
    2.5292  -10.5292    0.0000 C   0  0  0  0  0  0  0  0  0  0  0  0
    6.8292  -11.0667    0.0000 S   0  0  0  0  0  0  0  0  0  0  0  0
    1.3042   -9.7792    0.0000 C   0  0  0  0  0  0  0  0  0  0  0  0
    8.9167  -10.4792    0.0000 N   0  0  0  0  0  0  0  0  0  0  0  0
    3.3750   -9.1250    0.0000 C   0  0  0  0  0  0  0  0  0  0  0  0
    9.6667  -10.8292    0.0000 C   0  0  0  0  0  0  0  0  0  0  0  0
    8.2500  -10.9500    0.0000 C   0  0  0  0  0  0  0  0  0  0  0  0
    5.1917   -8.7250    0.0000 O   0  0  0  0  0  0  0  0  0  0  0  0
    9.7375  -11.6417    0.0000 C   0  0  0  0  0  0  0  0  0  0  0  0
    2.5500   -9.1042    0.0000 C   0  0  0  0  0  0  0  0  0  0  0  0
    6.6167   -8.6042    0.0000 C   0  0  0  0  0  0  0  0  0  0  0  0
    0.8667  -10.4917    0.0000 O   0  0  0  0  0  0  0  0  0  0  0  0
   10.4875  -11.9917    0.0000 C   0  0  0  0  0  0  0  0  0  0  0  0
    8.3167  -11.7667    0.0000 O   0  0  0  0  0  0  0  0  0  0  0  0
   10.3417  -10.3500    0.0000 C   0  0  0  0  0  0  0  0  0  0  0  0
    7.5042  -10.6042    0.0000 C   0  0  0  0  0  0  0  0  0  0  0  0
   11.1542  -11.5292    0.0000 C   0  0  0  0  0  0  0  0  0  0  0  0
   11.0917  -10.7000    0.0000 C   0  0  0  0  0  0  0  0  0  0  0  0
    7.4417   -9.7750    0.0000 C   0  0  0  0  0  0  0  0  0  0  0  0
    0.9042   -9.0500    0.0000 C   0  0  0  0  0  0  0  0  0  0  0  0
    9.0542  -12.1167    0.0000 C   0  0  0  0  0  0  0  0  0  0  0  0
    5.8750   -8.2542    0.0000 C   0  0  0  0  0  0  0  0  0  0  0  0
    7.2917   -8.1375    0.0000 C   0  0  0  0  0  0  0  0  0  0  0  0
   11.9042  -11.8792    0.0000 C   0  0  0  0  0  0  0  0  0  0  0  0
    8.1167   -9.3042    0.0000 C   0  0  0  0  0  0  0  0  0  0  0  0
    8.0417   -8.4875    0.0000 C   0  0  0  0  0  0  0  0  0  0  0  0
  2  6  1  0  0  0  0
  3  2  2  0  0  0  0
  4  1  1  0  0  0  0
  5  4  2  0  0  0  0
  6  1  1  0  0  0  0
  7  2  1  0  0  0  0
  8  7  2  0  0  0  0
  9  3  1  0  0  0  0
 10 21  1  0  0  0  0
 11  1  1  0  0  0  0
 12  8  1  0  0  0  0
 13  4  1  0  0  0  0
 14 10  1  0  0  0  0
 15 18  1  0  0  0  0
 16  7  1  0  0  0  0
 17 15  1  0  0  0  0
 18 27  1  0  0  0  0
 19  6  2  0  0  0  0
 20 17  1  0  0  0  0
 21 16  1  0  0  0  0
 22 11  1  0  0  0  0
 23 14  2  0  0  0  0
 24 20  2  0  0  0  0
 25 18  2  0  0  0  0
 26 17  2  0  0  0  0
 27 13  1  0  0  0  0
 28 29  2  0  0  0  0
 29 26  1  0  0  0  0
 30 11  2  0  0  0  0
 31 14  1  0  0  0  0
 32 20  1  0  0  0  0
 33 22  1  0  0  0  0
 34 22  2  0  0  0  0
 35 28  1  0  0  0  0
 36 30  1  0  0  0  0
 37 36  2  0  0  0  0
  5  3  1  0  0  0  0
 34 37  1  0  0  0  0
  8  9  1  0  0  0  0
 12 10  1  0  0  0  0
 24 28  1  0  0  0  0
M  END
> <IDNUMBER>
F3222-1439

> <Chemical_Name>
2-{[11-acetyl-4-(2-methylphenyl)-3-oxo-8-thia-4,6,11-triazatricyclo[7.4.0.0^{2,7}]trideca-1(9),2(7),5-trien-5-yl]sulfanyl}-N-(2,4-dimethylphenyl)acetamide

> <CAS>
1185057-09-3

> <PriceCoeff>
1.00

> <MW>
532.68

> <Description>
solid

> <FSP3>
0.29

> <clogP>
3.45

> <TPSA>
135.62

> <Acceptor>
4

> <Donor>
1

> <RotBonds>
6

> <HAC>
37

> <Collection>
General

> <Reference_compound>
CHEMBL577016

> <Similarity>
0.9130

$$$$
F3222-1443
  -ISIS-  06222321152D

 37 41  0  0  0  0  0  0  0  0999 V2000
    7.1667  -10.4667    0.0000 N   0  0  3  0  0  0  0  0  0  0  0  0
    5.7417  -10.5417    0.0000 C   0  0  0  0  0  0  0  0  0  0  0  0
    5.7875  -11.3667    0.0000 C   0  0  0  0  0  0  0  0  0  0  0  0
    7.2167  -11.2875    0.0000 C   0  0  0  0  0  0  0  0  0  0  0  0
    6.5167  -11.7417    0.0000 N   0  0  0  0  0  0  0  0  0  0  0  0
    6.4292  -10.0917    0.0000 C   0  0  0  0  0  0  0  0  0  0  0  0
    4.9417  -10.3292    0.0000 C   0  0  0  0  0  0  0  0  0  0  0  0
    4.5000  -11.0292    0.0000 C   0  0  0  0  0  0  0  0  0  0  0  0
    5.0167  -11.6625    0.0000 S   0  0  0  0  0  0  0  0  0  0  0  0
    3.2792  -10.2625    0.0000 N   0  0  3  0  0  0  0  0  0  0  0  0
    7.8625  -10.0167    0.0000 C   0  0  0  0  0  0  0  0  0  0  0  0
    3.6667  -10.9917    0.0000 C   0  0  0  0  0  0  0  0  0  0  0  0
    7.9625  -11.6542    0.0000 S   0  0  0  0  0  0  0  0  0  0  0  0
    2.4542  -10.2417    0.0000 C   0  0  0  0  0  0  0  0  0  0  0  0
    9.5417  -14.0500    0.0000 C   0  0  0  0  0  0  0  0  0  0  0  0
    8.8042  -13.6792    0.0000 N   0  0  0  0  0  0  0  0  0  0  0  0
    4.5667   -9.5917    0.0000 C   0  0  0  0  0  0  0  0  0  0  0  0
    8.7542  -12.8542    0.0000 C   0  0  0  0  0  0  0  0  0  0  0  0
    6.3917   -9.2667    0.0000 O   0  0  0  0  0  0  0  0  0  0  0  0
    3.7417   -9.5542    0.0000 C   0  0  0  0  0  0  0  0  0  0  0  0
   10.2292  -13.5917    0.0000 C   0  0  0  0  0  0  0  0  0  0  0  0
    9.5917  -14.8750    0.0000 C   0  0  0  0  0  0  0  0  0  0  0  0
    7.8125   -9.1875    0.0000 C   0  0  0  0  0  0  0  0  0  0  0  0
    2.0292  -10.9500    0.0000 O   0  0  0  0  0  0  0  0  0  0  0  0
    9.4417  -12.3917    0.0000 O   0  0  0  0  0  0  0  0  0  0  0  0
    8.0167  -12.4792    0.0000 C   0  0  0  0  0  0  0  0  0  0  0  0
   10.9750  -13.9542    0.0000 C   0  0  0  0  0  0  0  0  0  0  0  0
   10.3292  -15.2417    0.0000 C   0  0  0  0  0  0  0  0  0  0  0  0
   11.0292  -14.7875    0.0000 C   0  0  0  0  0  0  0  0  0  0  0  0
    8.5917  -10.3917    0.0000 C   0  0  0  0  0  0  0  0  0  0  0  0
    2.0625   -9.5167    0.0000 C   0  0  0  0  0  0  0  0  0  0  0  0
   10.1792  -12.7667    0.0000 C   0  0  0  0  0  0  0  0  0  0  0  0
    7.0667   -8.8042    0.0000 C   0  0  0  0  0  0  0  0  0  0  0  0
    8.5042   -8.7375    0.0000 C   0  0  0  0  0  0  0  0  0  0  0  0
   10.3667  -16.0667    0.0000 C   0  0  0  0  0  0  0  0  0  0  0  0
    9.2917   -9.9375    0.0000 C   0  0  0  0  0  0  0  0  0  0  0  0
    9.2417   -9.1125    0.0000 C   0  0  0  0  0  0  0  0  0  0  0  0
  2  6  1  0  0  0  0
  3  2  2  0  0  0  0
  4  1  1  0  0  0  0
  5  4  2  0  0  0  0
  6  1  1  0  0  0  0
  7  2  1  0  0  0  0
  8  7  2  0  0  0  0
  9  3  1  0  0  0  0
 10 20  1  0  0  0  0
 11  1  1  0  0  0  0
 12  8  1  0  0  0  0
 13  4  1  0  0  0  0
 14 10  1  0  0  0  0
 15 16  1  0  0  0  0
 16 18  1  0  0  0  0
 17  7  1  0  0  0  0
 18 26  1  0  0  0  0
 19  6  2  0  0  0  0
 20 17  1  0  0  0  0
 21 15  1  0  0  0  0
 22 15  2  0  0  0  0
 23 11  1  0  0  0  0
 24 14  2  0  0  0  0
 25 18  2  0  0  0  0
 26 13  1  0  0  0  0
 27 21  2  0  0  0  0
 28 22  1  0  0  0  0
 29 28  2  0  0  0  0
 30 11  2  0  0  0  0
 31 14  1  0  0  0  0
 32 21  1  0  0  0  0
 33 23  1  0  0  0  0
 34 23  2  0  0  0  0
 35 28  1  0  0  0  0
 36 30  1  0  0  0  0
 37 36  2  0  0  0  0
  5  3  1  0  0  0  0
 34 37  1  0  0  0  0
  8  9  1  0  0  0  0
 12 10  1  0  0  0  0
 27 29  1  0  0  0  0
M  END
> <IDNUMBER>
F3222-1443

> <Chemical_Name>
2-{[11-acetyl-4-(2-methylphenyl)-3-oxo-8-thia-4,6,11-triazatricyclo[7.4.0.0^{2,7}]trideca-1(9),2(7),5-trien-5-yl]sulfanyl}-N-(2,5-dimethylphenyl)acetamide

> <CAS>
1185076-56-5

> <PriceCoeff>
1.00

> <MW>
532.68

> <Description>
solid

> <FSP3>
0.29

> <clogP>
3.45

> <TPSA>
135.62

> <Acceptor>
4

> <Donor>
1

> <RotBonds>
6

> <HAC>
37

> <Collection>
General

> <Reference_compound>
CHEMBL577016

> <Similarity>
0.9130

$$$$
F0526-2261
  -ISIS-  06222321142D

 35 39  0  0  0  0  0  0  0  0999 V2000
    0.5542    1.7083    0.0000 C   0  0  0  0  0  0  0  0  0  0  0  0
    0.8875    2.4583    0.0000 C   0  0  0  0  0  0  0  0  0  0  0  0
    3.0625   -1.1125    0.0000 N   0  0  3  0  0  0  0  0  0  0  0  0
   -0.4458    2.5958    0.0000 C   0  0  0  0  0  0  0  0  0  0  0  0
   -0.2708    1.7833    0.0000 S   0  0  0  0  0  0  0  0  0  0  0  0
    0.2667    3.0083    0.0000 C   0  0  0  0  0  0  0  0  0  0  0  0
    0.9792    0.9833    0.0000 N   0  0  0  0  0  0  0  0  0  0  0  0
    2.2375   -1.1375    0.0000 C   0  0  0  0  0  0  0  0  0  0  0  0
    0.5667    0.2583    0.0000 C   0  0  0  0  0  0  0  0  0  0  0  0
    3.5500   -0.4542    0.0000 C   0  0  0  0  0  0  0  0  0  0  0  0
    3.5500   -1.7542    0.0000 C   0  0  0  0  0  0  0  0  0  0  0  0
    1.6917    2.6458    0.0000 C   0  0  0  0  0  0  0  0  0  0  0  0
    1.8042   -0.4417    0.0000 C   0  0  0  0  0  0  0  0  0  0  0  0
    0.9917   -0.4542    0.0000 C   0  0  0  0  0  0  0  0  0  0  0  0
   -3.3208    2.5833    0.0000 C   0  0  0  0  0  0  0  0  0  0  0  0
   -1.1708    3.0083    0.0000 C   0  0  0  0  0  0  0  0  0  0  0  0
   -3.3208    1.7583    0.0000 C   0  0  0  0  0  0  0  0  0  0  0  0
   -4.1000    2.8375    0.0000 O   0  0  0  0  0  0  0  0  0  0  0  0
   -4.1000    1.5083    0.0000 O   0  0  0  0  0  0  0  0  0  0  0  0
   -4.5833    2.1750    0.0000 C   0  0  0  0  0  0  0  0  0  0  0  0
   -2.6083    2.9958    0.0000 C   0  0  0  0  0  0  0  0  0  0  0  0
   -0.2583    0.2458    0.0000 O   0  0  0  0  0  0  0  0  0  0  0  0
    4.3167   -1.4875    0.0000 C   0  0  0  0  0  0  0  0  0  0  0  0
    4.3167   -0.7000    0.0000 C   0  0  0  0  0  0  0  0  0  0  0  0
   -1.8875    2.5833    0.0000 C   0  0  0  0  0  0  0  0  0  0  0  0
    3.3375   -2.6042    0.0000 O   0  0  0  0  0  0  0  0  0  0  0  0
    3.2917    0.3708    0.0000 O   0  0  0  0  0  0  0  0  0  0  0  0
    2.2875    1.9875    0.0000 O   0  0  0  0  0  0  0  0  0  0  0  0
   -2.6083    1.3458    0.0000 C   0  0  0  0  0  0  0  0  0  0  0  0
    1.9292    3.3750    0.0000 N   0  0  0  0  0  0  0  0  0  0  0  0
   -1.8875    1.7583    0.0000 C   0  0  0  0  0  0  0  0  0  0  0  0
    0.3417    3.8333    0.0000 C   0  0  0  0  0  0  0  0  0  0  0  0
    1.8167   -1.8625    0.0000 C   0  0  0  0  0  0  0  0  0  0  0  0
    0.5750   -1.1917    0.0000 C   0  0  0  0  0  0  0  0  0  0  0  0
    1.0292   -1.8917    0.0000 C   0  0  0  0  0  0  0  0  0  0  0  0
  2  1  2  0  0  0  0
  3  8  1  0  0  0  0
  4  5  1  0  0  0  0
  5  1  1  0  0  0  0
  6  2  1  0  0  0  0
  7  1  1  0  0  0  0
  8 13  2  0  0  0  0
  9  7  1  0  0  0  0
 10  3  1  0  0  0  0
 11  3  1  0  0  0  0
 12  2  1  0  0  0  0
 13 14  1  0  0  0  0
 14  9  1  0  0  0  0
 15 21  1  0  0  0  0
 16  4  1  0  0  0  0
 17 29  1  0  0  0  0
 18 15  1  0  0  0  0
 19 17  1  0  0  0  0
 20 18  1  0  0  0  0
 21 25  2  0  0  0  0
 22  9  2  0  0  0  0
 23 11  1  0  0  0  0
 24 10  1  0  0  0  0
 25 16  1  0  0  0  0
 26 11  2  0  0  0  0
 27 10  2  0  0  0  0
 28 12  2  0  0  0  0
 29 31  2  0  0  0  0
 30 12  1  0  0  0  0
 31 25  1  0  0  0  0
 32  6  1  0  0  0  0
 33 35  2  0  0  0  0
 34 14  2  0  0  0  0
 35 34  1  0  0  0  0
  4  6  2  0  0  0  0
  8 33  1  0  0  0  0
 17 15  2  0  0  0  0
 24 23  1  0  0  0  0
 19 20  1  0  0  0  0
M  END
> <IDNUMBER>
F0526-2261

> <Chemical_Name>
5-[(2H-1,3-benzodioxol-5-yl)methyl]-2-[3-(2,5-dioxopyrrolidin-1-yl)benzamido]-4-methylthiophene-3-carboxamide

> <CAS>
476368-62-4

> <PriceCoeff>
1.00

> <MW>
491.52

> <Description>
solid

> <FSP3>
0.20

> <clogP>
1.88

> <TPSA>
156.27

> <Acceptor>
6

> <Donor>
2

> <RotBonds>
6

> <HAC>
35

> <Collection>
General

$$$$
F3098-1286
  -ISIS-  06222321152D

 28 31  0  0  0  0  0  0  0  0999 V2000
    7.5250   -5.3667    0.0000 C   0  0  0  0  0  0  0  0  0  0  0  0
    6.1000   -4.5667    0.0000 C   0  0  0  0  0  0  0  0  0  0  0  0
    6.1125   -5.3792    0.0000 C   0  0  0  0  0  0  0  0  0  0  0  0
    6.8125   -5.7792    0.0000 C   0  0  0  0  0  0  0  0  0  0  0  0
    5.3875   -4.1667    0.0000 C   0  0  0  0  0  0  0  0  0  0  0  0
    6.8000   -4.1542    0.0000 O   0  0  0  0  0  0  0  0  0  0  0  0
    7.5250   -4.5625    0.0000 C   0  0  0  0  0  0  0  0  0  0  0  0
    5.3875   -5.7792    0.0000 C   0  0  0  0  0  0  0  0  0  0  0  0
    5.3875   -3.3417    0.0000 C   0  0  0  0  0  0  0  0  0  0  0  0
    4.6875   -4.5667    0.0000 C   0  0  0  0  0  0  0  0  0  0  0  0
    8.2292   -5.7750    0.0000 C   0  0  0  0  0  0  0  0  0  0  0  0
    6.8125   -6.5792    0.0000 O   0  0  0  0  0  0  0  0  0  0  0  0
    4.6750   -2.9292    0.0000 N   0  0  3  0  0  0  0  0  0  0  0  0
    4.6875   -5.3792    0.0000 C   0  0  0  0  0  0  0  0  0  0  0  0
    4.6667   -2.1042    0.0000 C   0  0  0  0  0  0  0  0  0  0  0  0
    3.9750   -4.1750    0.0000 O   0  0  0  0  0  0  0  0  0  0  0  0
    5.3875   -1.6917    0.0000 C   0  0  0  0  0  0  0  0  0  0  0  0
    3.9542   -3.3417    0.0000 C   0  0  0  0  0  0  0  0  0  0  0  0
    8.2292   -6.6042    0.0000 C   0  0  0  0  0  0  0  0  0  0  0  0
    8.9417   -5.3667    0.0000 C   0  0  0  0  0  0  0  0  0  0  0  0
    5.3792   -0.8750    0.0000 C   0  0  0  0  0  0  0  0  0  0  0  0
    6.1000   -2.1042    0.0000 C   0  0  0  0  0  0  0  0  0  0  0  0
    9.6542   -5.7750    0.0000 C   0  0  0  0  0  0  0  0  0  0  0  0
    8.9417   -7.0167    0.0000 C   0  0  0  0  0  0  0  0  0  0  0  0
    6.8125   -1.6917    0.0000 C   0  0  0  0  0  0  0  0  0  0  0  0
    6.0917   -0.4542    0.0000 C   0  0  0  0  0  0  0  0  0  0  0  0
    6.8125   -0.8667    0.0000 C   0  0  0  0  0  0  0  0  0  0  0  0
    9.6625   -6.6042    0.0000 C   0  0  0  0  0  0  0  0  0  0  0  0
  2  6  1  0  0  0  0
  3  4  1  0  0  0  0
  4  1  1  0  0  0  0
  5  2  2  0  0  0  0
  6  7  1  0  0  0  0
  7  1  2  0  0  0  0
  8  3  2  0  0  0  0
  9  5  1  0  0  0  0
 10  5  1  0  0  0  0
 11  1  1  0  0  0  0
 12  4  2  0  0  0  0
 13  9  1  0  0  0  0
 14  8  1  0  0  0  0
 15 13  1  0  0  0  0
 16 10  1  0  0  0  0
 17 15  1  0  0  0  0
 18 13  1  0  0  0  0
 19 11  2  0  0  0  0
 20 11  1  0  0  0  0
 21 17  1  0  0  0  0
 22 17  2  0  0  0  0
 23 20  2  0  0  0  0
 24 19  1  0  0  0  0
 25 22  1  0  0  0  0
 26 21  2  0  0  0  0
 27 25  2  0  0  0  0
 28 23  1  0  0  0  0
  3  2  1  0  0  0  0
 24 28  2  0  0  0  0
 14 10  2  0  0  0  0
 26 27  1  0  0  0  0
M  END
> <IDNUMBER>
F3098-1286

> <Chemical_Name>
8-{[benzyl(methyl)amino]methyl}-7-hydroxy-3-phenyl-4H-chromen-4-one

> <CAS>
449740-13-0

> <PriceCoeff>
1.00

> <MW>
371.43

> <Description>
solid

> <FSP3>
0.12

> <clogP>
4.26

> <TPSA>
49.77

> <Acceptor>
3

> <Donor>
2

> <RotBonds>
5

> <HAC>
28

> <Collection>
General

> <Reference_compound>
CHEMBL44

> <Similarity>
0.8180

$$$$
F0561-0610
  -ISIS-  06222321442D

 30 33  0  0  0  0  0  0  0  0999 V2000
   -3.2708    2.5458    0.0000 C   0  0  0  0  0  0  0  0  0  0  0  0
   -4.0958    2.5458    0.0000 N   0  0  3  0  0  0  0  0  0  0  0  0
   -3.0083    1.7583    0.0000 C   0  0  0  0  0  0  0  0  0  0  0  0
   -4.3458    1.7583    0.0000 N   0  0  0  0  0  0  0  0  0  0  0  0
   -3.6750    1.2750    0.0000 C   0  0  0  0  0  0  0  0  0  0  0  0
   -2.7833    3.2125    0.0000 N   0  0  0  0  0  0  0  0  0  0  0  0
   -1.6750    5.9542    0.0000 N   0  3  0  0  0  0  0  0  0  0  0  0
   -1.3333    5.2042    0.0000 C   0  0  0  0  0  0  0  0  0  0  0  0
   -4.5833    3.2083    0.0000 C   0  0  0  0  0  0  0  0  0  0  0  0
   -2.6000    0.4875    0.0000 S   0  0  3  0  0  0  0  0  0  0  0  0
   -1.9708    3.1333    0.0000 C   0  0  0  0  0  0  0  0  0  0  0  0
   -3.4250    0.4875    0.0000 C   0  0  0  0  0  0  0  0  0  0  0  0
   -1.8208    4.5417    0.0000 C   0  0  0  0  0  0  0  0  0  0  0  0
   -2.3458    1.2750    0.0000 C   0  0  0  0  0  0  0  0  0  0  0  0
   -5.3958    3.1125    0.0000 C   0  0  0  0  0  0  0  0  0  0  0  0
   -1.4833    3.7958    0.0000 C   0  0  0  0  0  0  0  0  0  0  0  0
   -0.5250    5.1250    0.0000 C   0  0  0  0  0  0  0  0  0  0  0  0
   -1.2000    6.6250    0.0000 O   0  5  0  0  0  0  0  0  0  0  0  0
   -2.4958    6.0417    0.0000 O   0  0  0  0  0  0  0  0  0  0  0  0
   -2.1125   -0.1792    0.0000 O   0  0  0  0  0  0  0  0  0  0  0  0
   -1.6250    2.3750    0.0000 O   0  0  0  0  0  0  0  0  0  0  0  0
   -5.8833    3.7750    0.0000 C   0  0  0  0  0  0  0  0  0  0  0  0
   -0.6625    3.7125    0.0000 C   0  0  0  0  0  0  0  0  0  0  0  0
   -0.1875    4.3667    0.0000 C   0  0  0  0  0  0  0  0  0  0  0  0
   -0.0458    5.7792    0.0000 Cl  0  0  0  0  0  0  0  0  0  0  0  0
   -4.2458    3.9583    0.0000 C   0  0  0  0  0  0  0  0  0  0  0  0
   -5.7208    2.3625    0.0000 C   0  0  0  0  0  0  0  0  0  0  0  0
   -4.7333    4.6042    0.0000 C   0  0  0  0  0  0  0  0  0  0  0  0
   -5.5458    4.5250    0.0000 C   0  0  0  0  0  0  0  0  0  0  0  0
   -6.6917    3.6833    0.0000 C   0  0  0  0  0  0  0  0  0  0  0  0
  2  1  1  0  0  0  0
  3  1  2  0  0  0  0
  4  2  1  0  0  0  0
  5  3  1  0  0  0  0
  6  1  1  0  0  0  0
  7  8  1  0  0  0  0
  8 13  2  0  0  0  0
  9  2  1  0  0  0  0
 10 14  1  0  0  0  0
 11  6  1  0  0  0  0
 12  5  1  0  0  0  0
 13 16  1  0  0  0  0
 14  3  1  0  0  0  0
 15  9  2  0  0  0  0
 16 11  1  0  0  0  0
 17 24  2  0  0  0  0
 18  7  1  0  0  0  0
 19  7  2  0  0  0  0
 20 10  2  0  0  0  0
 21 11  2  0  0  0  0
 22 15  1  0  0  0  0
 23 16  2  0  0  0  0
 24 23  1  0  0  0  0
 25 17  1  0  0  0  0
 26  9  1  0  0  0  0
 27 15  1  0  0  0  0
 28 26  2  0  0  0  0
 29 28  1  0  0  0  0
 30 22  1  0  0  0  0
  4  5  2  0  0  0  0
 12 10  1  0  0  0  0
 22 29  2  0  0  0  0
  8 17  1  0  0  0  0
M  CHG  2   7   1  18  -1
M  END
> <IDNUMBER>
F0561-0610

> <Chemical_Name>
4-chloro-N-[2-(2,3-dimethylphenyl)-5-oxo-2H,4H,6H-5lambda4-thieno[3,4-c]pyrazol-3-yl]-3-nitrobenzamide

> <CAS>
1007193-30-7

> <PriceCoeff>
1.00

> <MW>
444.89

> <Description>
solid

> <FSP3>
0.20

> <clogP>
2.50

> <TPSA>
126.34

> <Acceptor>
5

> <Donor>
1

> <RotBonds>
4

> <HAC>
30

> <Collection>
General

$$$$
F3222-1453
  -ISIS-  06222321462D

 37 41  0  0  0  0  0  0  0  0999 V2000
    5.7500   -9.0250    0.0000 C   0  0  0  0  0  0  0  0  0  0  0  0
    7.1042   -8.6125    0.0000 N   0  0  3  0  0  0  0  0  0  0  0  0
    5.9792   -9.8167    0.0000 C   0  0  0  0  0  0  0  0  0  0  0  0
    6.3042   -8.4292    0.0000 C   0  0  0  0  0  0  0  0  0  0  0  0
    6.7875  -10.0042    0.0000 N   0  0  0  0  0  0  0  0  0  0  0  0
    7.3500   -9.4042    0.0000 C   0  0  0  0  0  0  0  0  0  0  0  0
    4.9042   -9.0042    0.0000 C   0  0  0  0  0  0  0  0  0  0  0  0
    4.6375   -9.7917    0.0000 C   0  0  0  0  0  0  0  0  0  0  0  0
    5.2917  -10.2917    0.0000 S   0  0  0  0  0  0  0  0  0  0  0  0
    3.2667   -9.3250    0.0000 N   0  0  3  0  0  0  0  0  0  0  0  0
    3.8167   -9.9542    0.0000 C   0  0  0  0  0  0  0  0  0  0  0  0
    2.4542   -9.4792    0.0000 C   0  0  0  0  0  0  0  0  0  0  0  0
    8.1500   -9.5917    0.0000 S   0  0  0  0  0  0  0  0  0  0  0  0
    7.6750   -8.0125    0.0000 C   0  0  0  0  0  0  0  0  0  0  0  0
    8.0542  -11.7750    0.0000 N   0  0  0  0  0  0  0  0  0  0  0  0
    4.3667   -8.3875    0.0000 C   0  0  0  0  0  0  0  0  0  0  0  0
    7.4792  -12.3792    0.0000 C   0  0  0  0  0  0  0  0  0  0  0  0
    7.7167  -13.1625    0.0000 C   0  0  0  0  0  0  0  0  0  0  0  0
    7.8250  -10.9875    0.0000 C   0  0  0  0  0  0  0  0  0  0  0  0
    6.0625   -7.6292    0.0000 O   0  0  0  0  0  0  0  0  0  0  0  0
    7.1500  -13.7667    0.0000 C   0  0  0  0  0  0  0  0  0  0  0  0
    3.5417   -8.5417    0.0000 C   0  0  0  0  0  0  0  0  0  0  0  0
    2.1917  -10.2542    0.0000 O   0  0  0  0  0  0  0  0  0  0  0  0
    7.0250  -10.7917    0.0000 O   0  0  0  0  0  0  0  0  0  0  0  0
    6.6667  -12.1792    0.0000 C   0  0  0  0  0  0  0  0  0  0  0  0
    8.3917  -10.3875    0.0000 C   0  0  0  0  0  0  0  0  0  0  0  0
    6.3417  -13.5792    0.0000 C   0  0  0  0  0  0  0  0  0  0  0  0
    8.5042  -13.3542    0.0000 F   0  0  0  0  0  0  0  0  0  0  0  0
    8.4792   -8.2000    0.0000 C   0  0  0  0  0  0  0  0  0  0  0  0
    6.1042  -12.7792    0.0000 C   0  0  0  0  0  0  0  0  0  0  0  0
    5.7542  -14.1792    0.0000 F   0  0  0  0  0  0  0  0  0  0  0  0
    1.9125   -8.8542    0.0000 C   0  0  0  0  0  0  0  0  0  0  0  0
    9.0500   -7.5917    0.0000 C   0  0  0  0  0  0  0  0  0  0  0  0
    8.7167   -9.0000    0.0000 C   0  0  0  0  0  0  0  0  0  0  0  0
    9.8417   -7.7792    0.0000 C   0  0  0  0  0  0  0  0  0  0  0  0
    9.5125   -9.1792    0.0000 C   0  0  0  0  0  0  0  0  0  0  0  0
   10.0792   -8.5750    0.0000 C   0  0  0  0  0  0  0  0  0  0  0  0
  2  4  1  0  0  0  0
  3  1  2  0  0  0  0
  4  1  1  0  0  0  0
  5  3  1  0  0  0  0
  6  2  1  0  0  0  0
  7  1  1  0  0  0  0
  8  7  2  0  0  0  0
  9  3  1  0  0  0  0
 10 22  1  0  0  0  0
 11  8  1  0  0  0  0
 12 10  1  0  0  0  0
 13  6  1  0  0  0  0
 14  2  1  0  0  0  0
 15 19  1  0  0  0  0
 16  7  1  0  0  0  0
 17 15  1  0  0  0  0
 18 17  2  0  0  0  0
 19 26  1  0  0  0  0
 20  4  2  0  0  0  0
 21 18  1  0  0  0  0
 22 16  1  0  0  0  0
 23 12  2  0  0  0  0
 24 19  2  0  0  0  0
 25 17  1  0  0  0  0
 26 13  1  0  0  0  0
 27 30  1  0  0  0  0
 28 18  1  0  0  0  0
 29 14  1  0  0  0  0
 30 25  2  0  0  0  0
 31 27  1  0  0  0  0
 32 12  1  0  0  0  0
 33 29  2  0  0  0  0
 34 29  1  0  0  0  0
 35 33  1  0  0  0  0
 36 34  2  0  0  0  0
 37 36  1  0  0  0  0
  9  8  1  0  0  0  0
 10 11  1  0  0  0  0
  6  5  2  0  0  0  0
 37 35  2  0  0  0  0
 27 21  2  0  0  0  0
M  END
> <IDNUMBER>
F3222-1453

> <Chemical_Name>
2-({11-acetyl-4-benzyl-3-oxo-8-thia-4,6,11-triazatricyclo[7.4.0.0^{2,7}]trideca-1(9),2(7),5-trien-5-yl}sulfanyl)-N-(2,4-difluorophenyl)acetamide

> <CAS>
1189865-84-6

> <PriceCoeff>
1.00

> <MW>
540.60

> <Description>
solid

> <FSP3>
0.23

> <clogP>
2.41

> <TPSA>
135.62

> <Acceptor>
4

> <Donor>
1

> <RotBonds>
7

> <HAC>
37

> <Collection>
General

> <Reference_compound>
CHEMBL577016

> <Similarity>
0.8330

$$$$
F3222-1449
  -ISIS-  06222321152D

 36 40  0  0  0  0  0  0  0  0999 V2000
    5.8042   -9.3625    0.0000 C   0  0  0  0  0  0  0  0  0  0  0  0
    7.2292   -9.2875    0.0000 N   0  0  3  0  0  0  0  0  0  0  0  0
    5.8500  -10.1792    0.0000 C   0  0  0  0  0  0  0  0  0  0  0  0
    6.4917   -8.9125    0.0000 C   0  0  0  0  0  0  0  0  0  0  0  0
    6.5792  -10.5542    0.0000 N   0  0  0  0  0  0  0  0  0  0  0  0
    7.2792  -10.1042    0.0000 C   0  0  0  0  0  0  0  0  0  0  0  0
    5.0042   -9.1500    0.0000 C   0  0  0  0  0  0  0  0  0  0  0  0
    4.5625   -9.8417    0.0000 C   0  0  0  0  0  0  0  0  0  0  0  0
    5.0792  -10.4792    0.0000 S   0  0  0  0  0  0  0  0  0  0  0  0
    3.3417   -9.0792    0.0000 N   0  0  3  0  0  0  0  0  0  0  0  0
    3.7292   -9.8042    0.0000 C   0  0  0  0  0  0  0  0  0  0  0  0
    2.5167   -9.0542    0.0000 C   0  0  0  0  0  0  0  0  0  0  0  0
    8.0250  -10.4667    0.0000 S   0  0  0  0  0  0  0  0  0  0  0  0
    7.9375   -8.8375    0.0000 C   0  0  0  0  0  0  0  0  0  0  0  0
    4.6292   -8.4125    0.0000 C   0  0  0  0  0  0  0  0  0  0  0  0
    6.4542   -8.0917    0.0000 O   0  0  0  0  0  0  0  0  0  0  0  0
    8.8167  -11.6667    0.0000 C   0  0  0  0  0  0  0  0  0  0  0  0
    3.8042   -8.3667    0.0000 C   0  0  0  0  0  0  0  0  0  0  0  0
    8.8667  -12.4917    0.0000 N   0  0  0  0  0  0  0  0  0  0  0  0
    2.0917   -9.7667    0.0000 O   0  0  0  0  0  0  0  0  0  0  0  0
    9.5042  -11.2167    0.0000 O   0  0  0  0  0  0  0  0  0  0  0  0
    8.0792  -11.3000    0.0000 C   0  0  0  0  0  0  0  0  0  0  0  0
    9.6042  -12.8667    0.0000 C   0  0  0  0  0  0  0  0  0  0  0  0
   11.0792  -13.6042    0.0000 C   0  0  0  0  0  0  0  0  0  0  0  0
    7.9000   -8.0042    0.0000 C   0  0  0  0  0  0  0  0  0  0  0  0
   11.8292  -13.9667    0.0000 F   0  0  0  0  0  0  0  0  0  0  0  0
   10.2917  -12.4125    0.0000 C   0  0  0  0  0  0  0  0  0  0  0  0
    9.6542  -13.6917    0.0000 C   0  0  0  0  0  0  0  0  0  0  0  0
   10.3917  -14.0625    0.0000 C   0  0  0  0  0  0  0  0  0  0  0  0
   11.0292  -12.7792    0.0000 C   0  0  0  0  0  0  0  0  0  0  0  0
    2.1250   -8.3375    0.0000 C   0  0  0  0  0  0  0  0  0  0  0  0
    8.6000   -7.5625    0.0000 C   0  0  0  0  0  0  0  0  0  0  0  0
    7.1667   -7.6167    0.0000 C   0  0  0  0  0  0  0  0  0  0  0  0
    8.5667   -6.7292    0.0000 C   0  0  0  0  0  0  0  0  0  0  0  0
    7.1375   -6.7917    0.0000 C   0  0  0  0  0  0  0  0  0  0  0  0
    7.8292   -6.3542    0.0000 C   0  0  0  0  0  0  0  0  0  0  0  0
  2  4  1  0  0  0  0
  3  1  2  0  0  0  0
  4  1  1  0  0  0  0
  5  3  1  0  0  0  0
  6  2  1  0  0  0  0
  7  1  1  0  0  0  0
  8  7  2  0  0  0  0
  9  3  1  0  0  0  0
 10 18  1  0  0  0  0
 11  8  1  0  0  0  0
 12 10  1  0  0  0  0
 13  6  1  0  0  0  0
 14  2  1  0  0  0  0
 15  7  1  0  0  0  0
 16  4  2  0  0  0  0
 17 22  1  0  0  0  0
 18 15  1  0  0  0  0
 19 17  1  0  0  0  0
 20 12  2  0  0  0  0
 21 17  2  0  0  0  0
 22 13  1  0  0  0  0
 23 19  1  0  0  0  0
 24 29  2  0  0  0  0
 25 14  1  0  0  0  0
 26 24  1  0  0  0  0
 27 23  1  0  0  0  0
 28 23  2  0  0  0  0
 29 28  1  0  0  0  0
 30 27  2  0  0  0  0
 31 12  1  0  0  0  0
 32 25  1  0  0  0  0
 33 25  2  0  0  0  0
 34 32  2  0  0  0  0
 35 33  1  0  0  0  0
 36 35  2  0  0  0  0
  9  8  1  0  0  0  0
 10 11  1  0  0  0  0
  6  5  2  0  0  0  0
 34 36  1  0  0  0  0
 24 30  1  0  0  0  0
M  END
> <IDNUMBER>
F3222-1449

> <Chemical_Name>
2-({11-acetyl-4-benzyl-3-oxo-8-thia-4,6,11-triazatricyclo[7.4.0.0^{2,7}]trideca-1(9),2(7),5-trien-5-yl}sulfanyl)-N-(4-fluorophenyl)acetamide

> <CAS>
1189971-94-5

> <PriceCoeff>
1.00

> <MW>
522.61

> <Description>
solid

> <FSP3>
0.23

> <clogP>
2.78

> <TPSA>
135.62

> <Acceptor>
4

> <Donor>
1

> <RotBonds>
7

> <HAC>
36

> <Collection>
General

> <Reference_compound>
CHEMBL577016

> <Similarity>
0.8620

$$$$
F3222-2278
  -ISIS-  06222321152D

 33 37  0  0  0  0  0  0  0  0999 V2000
    4.8417   -3.2917    0.0000 N   0  0  3  0  0  0  0  0  0  0  0  0
    5.5125   -4.5667    0.0000 C   0  0  0  0  0  0  0  0  0  0  0  0
    6.2417   -4.1792    0.0000 C   0  0  0  0  0  0  0  0  0  0  0  0
    5.5750   -2.9167    0.0000 C   0  0  0  0  0  0  0  0  0  0  0  0
    6.2750   -3.3542    0.0000 N   0  0  0  0  0  0  0  0  0  0  0  0
    4.8125   -4.1167    0.0000 C   0  0  0  0  0  0  0  0  0  0  0  0
    5.6542   -5.3792    0.0000 C   0  0  0  0  0  0  0  0  0  0  0  0
    6.4667   -5.4917    0.0000 C   0  0  0  0  0  0  0  0  0  0  0  0
    6.8292   -4.7667    0.0000 S   0  0  0  0  0  0  0  0  0  0  0  0
    6.2625   -6.9042    0.0000 N   0  0  3  0  0  0  0  0  0  0  0  0
    4.1500   -2.8542    0.0000 C   0  0  0  0  0  0  0  0  0  0  0  0
    6.7750   -6.2542    0.0000 C   0  0  0  0  0  0  0  0  0  0  0  0
    5.6042   -2.0917    0.0000 S   0  0  0  0  0  0  0  0  0  0  0  0
    6.5625   -7.6792    0.0000 C   0  0  0  0  0  0  0  0  0  0  0  0
    5.1417   -6.0250    0.0000 C   0  0  0  0  0  0  0  0  0  0  0  0
    4.0667   -4.5000    0.0000 O   0  0  0  0  0  0  0  0  0  0  0  0
    5.4542   -6.7917    0.0000 C   0  0  0  0  0  0  0  0  0  0  0  0
    3.4167   -3.2417    0.0000 C   0  0  0  0  0  0  0  0  0  0  0  0
    7.3792   -7.8042    0.0000 O   0  0  0  0  0  0  0  0  0  0  0  0
    6.3375   -1.7042    0.0000 C   0  0  0  0  0  0  0  0  0  0  0  0
    6.4375    0.7708    0.0000 C   0  0  0  0  0  0  0  0  0  0  0  0
    6.3667   -0.8792    0.0000 C   0  0  0  0  0  0  0  0  0  0  0  0
    6.4792    1.5958    0.0000 Br  0  0  0  0  0  0  0  0  0  0  0  0
    5.7042    0.3958    0.0000 C   0  0  0  0  0  0  0  0  0  0  0  0
    7.1292    0.3333    0.0000 C   0  0  0  0  0  0  0  0  0  0  0  0
    5.6667   -0.4375    0.0000 C   0  0  0  0  0  0  0  0  0  0  0  0
    7.1000   -0.4917    0.0000 C   0  0  0  0  0  0  0  0  0  0  0  0
    4.1792   -2.0292    0.0000 C   0  0  0  0  0  0  0  0  0  0  0  0
    6.0417   -8.3167    0.0000 C   0  0  0  0  0  0  0  0  0  0  0  0
    3.3875   -4.0667    0.0000 C   0  0  0  0  0  0  0  0  0  0  0  0
    2.7167   -2.8042    0.0000 C   0  0  0  0  0  0  0  0  0  0  0  0
    3.4875   -1.5917    0.0000 C   0  0  0  0  0  0  0  0  0  0  0  0
    2.7542   -1.9750    0.0000 C   0  0  0  0  0  0  0  0  0  0  0  0
  2  6  1  0  0  0  0
  3  2  2  0  0  0  0
  4  1  1  0  0  0  0
  5  4  2  0  0  0  0
  6  1  1  0  0  0  0
  7  2  1  0  0  0  0
  8  7  2  0  0  0  0
  9  3  1  0  0  0  0
 10 17  1  0  0  0  0
 11  1  1  0  0  0  0
 12  8  1  0  0  0  0
 13  4  1  0  0  0  0
 14 10  1  0  0  0  0
 15  7  1  0  0  0  0
 16  6  2  0  0  0  0
 17 15  1  0  0  0  0
 18 11  1  0  0  0  0
 19 14  2  0  0  0  0
 20 13  1  0  0  0  0
 21 25  1  0  0  0  0
 22 20  1  0  0  0  0
 23 21  1  0  0  0  0
 24 26  1  0  0  0  0
 25 27  2  0  0  0  0
 26 22  2  0  0  0  0
 27 22  1  0  0  0  0
 28 11  2  0  0  0  0
 29 14  1  0  0  0  0
 30 18  1  0  0  0  0
 31 18  2  0  0  0  0
 32 28  1  0  0  0  0
 33 32  2  0  0  0  0
  3  5  1  0  0  0  0
 31 33  1  0  0  0  0
  8  9  1  0  0  0  0
 12 10  1  0  0  0  0
 21 24  2  0  0  0  0
M  END
> <IDNUMBER>
F3222-2278

> <Chemical_Name>
11-acetyl-5-{[(4-bromophenyl)methyl]sulfanyl}-4-(2-methylphenyl)-8-thia-4,6,11-triazatricyclo[7.4.0.0^{2,7}]trideca-1(9),2(7),5-trien-3-one

> <CAS>
1216755-43-9

> <PriceCoeff>
1.00

> <MW>
540.50

> <Description>
solid

> <FSP3>
0.24

> <clogP>
5.00

> <TPSA>
106.52

> <Acceptor>
3

> <Donor>
0

> <RotBonds>
5

> <HAC>
33

> <Collection>
General

> <Reference_compound>
CHEMBL577016

> <Similarity>
0.9100

$$$$
F0541-0352
  -ISIS-  06222321142D

 30 33  0  0  0  0  0  0  0  0999 V2000
   -3.1750    2.0833    0.0000 C   0  0  0  0  0  0  0  0  0  0  0  0
   -3.4333    1.2958    0.0000 C   0  0  0  0  0  0  0  0  0  0  0  0
   -3.8458    2.5708    0.0000 N   0  0  3  0  0  0  0  0  0  0  0  0
   -4.2708    1.2958    0.0000 C   0  0  0  0  0  0  0  0  0  0  0  0
   -4.5208    2.0833    0.0000 N   0  0  0  0  0  0  0  0  0  0  0  0
   -3.8458    0.0208    0.0000 S   0  0  3  0  0  0  0  0  0  0  0  0
   -2.4458    1.8958    0.0000 N   0  0  0  0  0  0  0  0  0  0  0  0
   -0.0500   -0.2625    0.0000 N   0  3  0  0  0  0  0  0  0  0  0  0
   -0.0208    0.6208    0.0000 C   0  0  0  0  0  0  0  0  0  0  0  0
   -4.5208    0.5083    0.0000 C   0  0  0  0  0  0  0  0  0  0  0  0
   -1.5125    2.4250    0.0000 C   0  0  0  0  0  0  0  0  0  0  0  0
   -3.1750    0.5083    0.0000 C   0  0  0  0  0  0  0  0  0  0  0  0
   -0.7833    1.0750    0.0000 C   0  0  0  0  0  0  0  0  0  0  0  0
   -0.7625    1.9708    0.0000 C   0  0  0  0  0  0  0  0  0  0  0  0
   -3.8458    3.4583    0.0000 C   0  0  0  0  0  0  0  0  0  0  0  0
   -3.2333   -0.3542    0.0000 O   0  0  0  0  0  0  0  0  0  0  0  0
   -4.5625   -0.3917    0.0000 O   0  0  0  0  0  0  0  0  0  0  0  0
    0.7542    1.0500    0.0000 C   0  0  0  0  0  0  0  0  0  0  0  0
   -0.8208   -0.6917    0.0000 O   0  5  0  0  0  0  0  0  0  0  0  0
    0.7167   -0.7167    0.0000 O   0  0  0  0  0  0  0  0  0  0  0  0
   -1.4833    3.2375    0.0000 O   0  0  0  0  0  0  0  0  0  0  0  0
    0.0167    2.3958    0.0000 C   0  0  0  0  0  0  0  0  0  0  0  0
    0.7667    1.9333    0.0000 C   0  0  0  0  0  0  0  0  0  0  0  0
   -4.6000    3.8958    0.0000 C   0  0  0  0  0  0  0  0  0  0  0  0
   -3.0708    3.8958    0.0000 C   0  0  0  0  0  0  0  0  0  0  0  0
    1.5125    0.5958    0.0000 Cl  0  0  0  0  0  0  0  0  0  0  0  0
   -4.6083    4.7667    0.0000 C   0  0  0  0  0  0  0  0  0  0  0  0
   -3.0708    4.7667    0.0000 C   0  0  0  0  0  0  0  0  0  0  0  0
   -3.8458    5.2167    0.0000 C   0  0  0  0  0  0  0  0  0  0  0  0
   -3.8458    6.0917    0.0000 C   0  0  0  0  0  0  0  0  0  0  0  0
  2  1  2  0  0  0  0
  3  1  1  0  0  0  0
  4  2  1  0  0  0  0
  5  3  1  0  0  0  0
  6 12  1  0  0  0  0
  7  1  1  0  0  0  0
  8  9  1  0  0  0  0
  9 13  1  0  0  0  0
 10  4  1  0  0  0  0
 11  7  1  0  0  0  0
 12  2  1  0  0  0  0
 13 14  2  0  0  0  0
 14 11  1  0  0  0  0
 15  3  1  0  0  0  0
 16  6  2  0  0  0  0
 17  6  2  0  0  0  0
 18 23  1  0  0  0  0
 19  8  1  0  0  0  0
 20  8  2  0  0  0  0
 21 11  2  0  0  0  0
 22 14  1  0  0  0  0
 23 22  2  0  0  0  0
 24 15  1  0  0  0  0
 25 15  2  0  0  0  0
 26 18  1  0  0  0  0
 27 24  2  0  0  0  0
 28 25  1  0  0  0  0
 29 28  2  0  0  0  0
 30 29  1  0  0  0  0
  4  5  2  0  0  0  0
  6 10  1  0  0  0  0
 29 27  1  0  0  0  0
 18  9  2  0  0  0  0
M  CHG  2   8   1  19  -1
M  END
> <IDNUMBER>
F0541-0352

> <Chemical_Name>
4-chloro-N-[2-(4-methylphenyl)-5,5-dioxo-2H,4H,6H-5lambda6-thieno[3,4-c]pyrazol-3-yl]-3-nitrobenzamide

> <CAS>
449787-80-8

> <PriceCoeff>
1.00

> <MW>
446.86

> <Description>
solid

> <FSP3>
0.16

> <clogP>
1.92

> <TPSA>
132.58

> <Acceptor>
6

> <Donor>
1

> <RotBonds>
4

> <HAC>
30

> <Collection>
General

$$$$
F2566-0077
  -ISIS-  06222321142D

 28 30  0  0  0  0  0  0  0  0999 V2000
   -5.2333    6.3000    0.0000 N   0  3  0  0  0  0  0  0  0  0  0  0
   -5.2208    5.4667    0.0000 C   0  0  0  0  0  0  0  0  0  0  0  0
   -3.0375    2.5583    0.0000 C   0  0  0  0  0  0  0  0  0  0  0  0
    0.5250    2.1208    0.0000 C   0  0  0  0  0  0  0  0  0  0  0  0
    0.5250    2.8708    0.0000 N   0  0  0  0  0  0  0  0  0  0  0  0
   -2.3333    2.9833    0.0000 C   0  0  0  0  0  0  0  0  0  0  0  0
   -3.7583    3.8083    0.0000 C   0  0  0  0  0  0  0  0  0  0  0  0
   -1.6208    2.5583    0.0000 C   0  0  0  0  0  0  0  0  0  0  0  0
   -4.4958    5.0417    0.0000 C   0  0  0  0  0  0  0  0  0  0  0  0
   -3.7583    2.9708    0.0000 O   0  0  0  0  0  0  0  0  0  0  0  0
    1.1667    1.7458    0.0000 S   0  0  0  0  0  0  0  0  0  0  0  0
   -3.0375    1.7333    0.0000 C   0  0  0  0  0  0  0  0  0  0  0  0
   -4.4833    4.2167    0.0000 C   0  0  0  0  0  0  0  0  0  0  0  0
   -1.6208    1.7333    0.0000 C   0  0  0  0  0  0  0  0  0  0  0  0
   -2.3333    1.3250    0.0000 O   0  0  0  0  0  0  0  0  0  0  0  0
    1.8167    2.8708    0.0000 C   0  0  0  0  0  0  0  0  0  0  0  0
    1.8167    2.1208    0.0000 C   0  0  0  0  0  0  0  0  0  0  0  0
   -5.9583    5.0292    0.0000 C   0  0  0  0  0  0  0  0  0  0  0  0
   -4.5208    6.7292    0.0000 O   0  5  0  0  0  0  0  0  0  0  0  0
   -5.9583    6.7042    0.0000 O   0  0  0  0  0  0  0  0  0  0  0  0
   -0.1583    1.7208    0.0000 S   0  0  0  0  0  0  0  0  0  0  0  0
   -3.0375    4.2167    0.0000 O   0  0  0  0  0  0  0  0  0  0  0  0
   -2.3333    3.8000    0.0000 O   0  0  0  0  0  0  0  0  0  0  0  0
   -5.2083    3.7958    0.0000 C   0  0  0  0  0  0  0  0  0  0  0  0
   -5.9375    4.1917    0.0000 C   0  0  0  0  0  0  0  0  0  0  0  0
   -0.8708    2.1333    0.0000 C   0  0  0  0  0  0  0  0  0  0  0  0
   -6.6542    5.4375    0.0000 Cl  0  0  0  0  0  0  0  0  0  0  0  0
    2.4042    3.4583    0.0000 C   0  0  0  0  0  0  0  0  0  0  0  0
  2  1  1  0  0  0  0
  3 10  1  0  0  0  0
  4 21  1  0  0  0  0
  5  4  2  0  0  0  0
  6  3  1  0  0  0  0
  7 13  1  0  0  0  0
  8  6  1  0  0  0  0
  9  2  2  0  0  0  0
 10  7  1  0  0  0  0
 11  4  1  0  0  0  0
 12  3  2  0  0  0  0
 13  9  1  0  0  0  0
 14 15  1  0  0  0  0
 15 12  1  0  0  0  0
 16  5  1  0  0  0  0
 17 11  1  0  0  0  0
 18  2  1  0  0  0  0
 19  1  1  0  0  0  0
 20  1  2  0  0  0  0
 21 26  1  0  0  0  0
 22  7  2  0  0  0  0
 23  6  2  0  0  0  0
 24 25  1  0  0  0  0
 25 18  2  0  0  0  0
 26 14  1  0  0  0  0
 27 18  1  0  0  0  0
 28 16  1  0  0  0  0
 13 24  2  0  0  0  0
  8 14  2  0  0  0  0
 17 16  2  0  0  0  0
M  CHG  2   1   1  19  -1
M  END
> <IDNUMBER>
F2566-0077

> <Chemical_Name>
6-{[(4-methyl-1,3-thiazol-2-yl)sulfanyl]methyl}-4-oxo-4H-pyran-3-yl 4-chloro-3-nitrobenzoate

> <CAS>
896305-03-6

> <PriceCoeff>
1.00

> <MW>
438.86

> <Description>
solid

> <FSP3>
0.12

> <clogP>
3.39

> <TPSA>
162.17

> <Acceptor>
7

> <Donor>
0

> <RotBonds>
7

> <HAC>
28

> <Collection>
General

$$$$
F0561-0611
  -ISIS-  06222321452D

 30 33  0  0  0  0  0  0  0  0999 V2000
   -3.2708    2.5458    0.0000 C   0  0  0  0  0  0  0  0  0  0  0  0
   -4.0958    2.5458    0.0000 N   0  0  3  0  0  0  0  0  0  0  0  0
   -3.0083    1.7583    0.0000 C   0  0  0  0  0  0  0  0  0  0  0  0
   -4.3458    1.7583    0.0000 N   0  0  0  0  0  0  0  0  0  0  0  0
   -3.6750    1.2750    0.0000 C   0  0  0  0  0  0  0  0  0  0  0  0
   -2.7833    3.2125    0.0000 N   0  0  0  0  0  0  0  0  0  0  0  0
   -1.6750    5.9542    0.0000 N   0  3  0  0  0  0  0  0  0  0  0  0
   -1.3333    5.2042    0.0000 C   0  0  0  0  0  0  0  0  0  0  0  0
   -2.6000    0.4875    0.0000 S   0  0  3  0  0  0  0  0  0  0  0  0
   -4.5833    3.2083    0.0000 C   0  0  0  0  0  0  0  0  0  0  0  0
   -1.9708    3.1333    0.0000 C   0  0  0  0  0  0  0  0  0  0  0  0
   -3.4250    0.4875    0.0000 C   0  0  0  0  0  0  0  0  0  0  0  0
   -1.8208    4.5417    0.0000 C   0  0  0  0  0  0  0  0  0  0  0  0
   -2.3458    1.2750    0.0000 C   0  0  0  0  0  0  0  0  0  0  0  0
   -1.4833    3.7958    0.0000 C   0  0  0  0  0  0  0  0  0  0  0  0
   -5.3958    3.1125    0.0000 C   0  0  0  0  0  0  0  0  0  0  0  0
   -0.5250    5.1250    0.0000 C   0  0  0  0  0  0  0  0  0  0  0  0
   -4.2458    3.9583    0.0000 C   0  0  0  0  0  0  0  0  0  0  0  0
   -1.2000    6.6250    0.0000 O   0  5  0  0  0  0  0  0  0  0  0  0
   -2.4958    6.0417    0.0000 O   0  0  0  0  0  0  0  0  0  0  0  0
   -2.1125   -0.1792    0.0000 O   0  0  0  0  0  0  0  0  0  0  0  0
   -1.6250    2.3750    0.0000 O   0  0  0  0  0  0  0  0  0  0  0  0
   -5.8833    3.7750    0.0000 C   0  0  0  0  0  0  0  0  0  0  0  0
   -0.6625    3.7125    0.0000 C   0  0  0  0  0  0  0  0  0  0  0  0
   -0.1875    4.3667    0.0000 C   0  0  0  0  0  0  0  0  0  0  0  0
   -4.7333    4.6042    0.0000 C   0  0  0  0  0  0  0  0  0  0  0  0
   -5.5458    4.5250    0.0000 C   0  0  0  0  0  0  0  0  0  0  0  0
   -0.0458    5.7792    0.0000 Cl  0  0  0  0  0  0  0  0  0  0  0  0
   -5.7208    2.3625    0.0000 C   0  0  0  0  0  0  0  0  0  0  0  0
   -6.0292    5.1792    0.0000 C   0  0  0  0  0  0  0  0  0  0  0  0
  2  1  1  0  0  0  0
  3  1  2  0  0  0  0
  4  2  1  0  0  0  0
  5  3  1  0  0  0  0
  6  1  1  0  0  0  0
  7  8  1  0  0  0  0
  8 13  2  0  0  0  0
  9 14  1  0  0  0  0
 10  2  1  0  0  0  0
 11  6  1  0  0  0  0
 12  5  1  0  0  0  0
 13 15  1  0  0  0  0
 14  3  1  0  0  0  0
 15 11  1  0  0  0  0
 16 10  2  0  0  0  0
 17 25  2  0  0  0  0
 18 10  1  0  0  0  0
 19  7  1  0  0  0  0
 20  7  2  0  0  0  0
 21  9  2  0  0  0  0
 22 11  2  0  0  0  0
 23 16  1  0  0  0  0
 24 15  2  0  0  0  0
 25 24  1  0  0  0  0
 26 18  2  0  0  0  0
 27 26  1  0  0  0  0
 28 17  1  0  0  0  0
 29 16  1  0  0  0  0
 30 27  1  0  0  0  0
  4  5  2  0  0  0  0
 12  9  1  0  0  0  0
 23 27  2  0  0  0  0
  8 17  1  0  0  0  0
M  CHG  2   7   1  19  -1
M  END
> <IDNUMBER>
F0561-0611

> <Chemical_Name>
4-chloro-N-[2-(2,4-dimethylphenyl)-5-oxo-2H,4H,6H-5lambda4-thieno[3,4-c]pyrazol-3-yl]-3-nitrobenzamide

> <CAS>
1007195-40-5

> <PriceCoeff>
1.00

> <MW>
444.89

> <Description>
solid

> <FSP3>
0.20

> <clogP>
2.55

> <TPSA>
126.34

> <Acceptor>
5

> <Donor>
1

> <RotBonds>
4

> <HAC>
30

> <Collection>
General

$$$$
F3374-0032
  -ISIS-  06222321462D

 28 30  0  0  0  0  0  0  0  0999 V2000
    3.9000    3.6708    0.0000 S   0  0  3  0  0  0  0  0  0  0  0  0
    3.2167   -1.7167    0.0000 N   0  3  0  0  0  0  0  0  0  0  0  0
    2.5042   -1.3042    0.0000 C   0  0  0  0  0  0  0  0  0  0  0  0
    4.6167    4.0667    0.0000 N   0  0  3  0  0  0  0  0  0  0  0  0
    3.1917    3.2458    0.0000 C   0  0  0  0  0  0  0  0  0  0  0  0
    2.4917    1.1708    0.0000 C   0  0  0  0  0  0  0  0  0  0  0  0
    2.5042   -0.4792    0.0000 C   0  0  0  0  0  0  0  0  0  0  0  0
    1.7792    0.7583    0.0000 N   0  0  0  0  0  0  0  0  0  0  0  0
    2.4875    1.9958    0.0000 C   0  0  0  0  0  0  0  0  0  0  0  0
    3.2000    2.4208    0.0000 C   0  0  0  0  0  0  0  0  0  0  0  0
    3.4792    4.3750    0.0000 O   0  0  0  0  0  0  0  0  0  0  0  0
    4.3125    2.9583    0.0000 O   0  0  0  0  0  0  0  0  0  0  0  0
    1.7792   -1.7167    0.0000 C   0  0  0  0  0  0  0  0  0  0  0  0
    3.2167   -2.5417    0.0000 O   0  5  0  0  0  0  0  0  0  0  0  0
    3.9292   -1.3042    0.0000 O   0  0  0  0  0  0  0  0  0  0  0  0
    1.7792   -0.0667    0.0000 C   0  0  0  0  0  0  0  0  0  0  0  0
    3.2042    0.7625    0.0000 O   0  0  0  0  0  0  0  0  0  0  0  0
    6.0417    4.8792    0.0000 O   0  0  0  0  0  0  0  0  0  0  0  0
    1.0667   -1.3042    0.0000 C   0  0  0  0  0  0  0  0  0  0  0  0
    4.6167    4.8917    0.0000 C   0  0  0  0  0  0  0  0  0  0  0  0
    5.3250    3.6500    0.0000 C   0  0  0  0  0  0  0  0  0  0  0  0
    1.0667   -0.4792    0.0000 C   0  0  0  0  0  0  0  0  0  0  0  0
    1.7792   -2.5417    0.0000 Cl  0  0  0  0  0  0  0  0  0  0  0  0
    2.4750    3.6458    0.0000 C   0  0  0  0  0  0  0  0  0  0  0  0
    1.7667    2.4083    0.0000 C   0  0  0  0  0  0  0  0  0  0  0  0
    6.0375    4.0542    0.0000 C   0  0  0  0  0  0  0  0  0  0  0  0
    5.3375    5.2917    0.0000 C   0  0  0  0  0  0  0  0  0  0  0  0
    1.7667    3.2333    0.0000 C   0  0  0  0  0  0  0  0  0  0  0  0
  2  3  1  0  0  0  0
  3  7  1  0  0  0  0
  4  1  1  0  0  0  0
  5  1  1  0  0  0  0
  6  9  1  0  0  0  0
  7 16  2  0  0  0  0
  8  6  1  0  0  0  0
  9 10  2  0  0  0  0
 10  5  1  0  0  0  0
 11  1  2  0  0  0  0
 12  1  2  0  0  0  0
 13 19  1  0  0  0  0
 14  2  1  0  0  0  0
 15  2  2  0  0  0  0
 16  8  1  0  0  0  0
 17  6  2  0  0  0  0
 18 26  1  0  0  0  0
 19 22  2  0  0  0  0
 20  4  1  0  0  0  0
 21  4  1  0  0  0  0
 22 16  1  0  0  0  0
 23 13  1  0  0  0  0
 24  5  2  0  0  0  0
 25 28  2  0  0  0  0
 26 21  1  0  0  0  0
 27 20  1  0  0  0  0
 28 24  1  0  0  0  0
 27 18  1  0  0  0  0
 25  9  1  0  0  0  0
 13  3  2  0  0  0  0
M  CHG  2   2   1  14  -1
M  END
> <IDNUMBER>
F3374-0032

> <Chemical_Name>
N-(4-chloro-3-nitrophenyl)-3-(morpholine-4-sulfonyl)benzamide

> <CAS>
953852-39-6

> <PriceCoeff>
1.00

> <MW>
425.84

> <Description>
solid

> <FSP3>
0.24

> <clogP>
2.81

> <TPSA>
127.23

> <Acceptor>
6

> <Donor>
1

> <RotBonds>
5

> <HAC>
28

> <Collection>
General

$$$$
F3222-2457
  -ISIS-  06222321152D

 36 40  0  0  0  0  0  0  0  0999 V2000
    5.8917  -10.7417    0.0000 C   0  0  0  0  0  0  0  0  0  0  0  0
    6.6167  -10.3625    0.0000 C   0  0  0  0  0  0  0  0  0  0  0  0
    5.2250   -9.4750    0.0000 N   0  0  3  0  0  0  0  0  0  0  0  0
    5.9542   -9.0917    0.0000 C   0  0  0  0  0  0  0  0  0  0  0  0
    6.6542   -9.5292    0.0000 N   0  0  0  0  0  0  0  0  0  0  0  0
    5.1917  -10.3000    0.0000 C   0  0  0  0  0  0  0  0  0  0  0  0
    6.0292  -11.5542    0.0000 C   0  0  0  0  0  0  0  0  0  0  0  0
    6.8417  -11.6750    0.0000 C   0  0  0  0  0  0  0  0  0  0  0  0
    7.2125  -10.9417    0.0000 S   0  0  0  0  0  0  0  0  0  0  0  0
    6.6417  -13.0875    0.0000 N   0  0  3  0  0  0  0  0  0  0  0  0
    7.1542  -12.4375    0.0000 C   0  0  0  0  0  0  0  0  0  0  0  0
    5.9875   -8.2667    0.0000 S   0  0  0  0  0  0  0  0  0  0  0  0
    6.9417  -13.8542    0.0000 C   0  0  0  0  0  0  0  0  0  0  0  0
    4.5292   -9.0292    0.0000 C   0  0  0  0  0  0  0  0  0  0  0  0
    5.5250  -12.2042    0.0000 C   0  0  0  0  0  0  0  0  0  0  0  0
    4.4417  -10.6792    0.0000 O   0  0  0  0  0  0  0  0  0  0  0  0
    6.7500   -7.0542    0.0000 C   0  0  0  0  0  0  0  0  0  0  0  0
    5.8292  -12.9667    0.0000 C   0  0  0  0  0  0  0  0  0  0  0  0
    7.4792   -6.6667    0.0000 N   0  0  0  0  0  0  0  0  0  0  0  0
    7.7542  -13.9875    0.0000 O   0  0  0  0  0  0  0  0  0  0  0  0
    6.0500   -6.6167    0.0000 O   0  0  0  0  0  0  0  0  0  0  0  0
    6.7167   -7.8792    0.0000 C   0  0  0  0  0  0  0  0  0  0  0  0
    4.5667   -8.2042    0.0000 C   0  0  0  0  0  0  0  0  0  0  0  0
    3.7917   -9.4042    0.0000 C   0  0  0  0  0  0  0  0  0  0  0  0
    7.5125   -5.8417    0.0000 C   0  0  0  0  0  0  0  0  0  0  0  0
    7.5792   -4.1917    0.0000 C   0  0  0  0  0  0  0  0  0  0  0  0
    3.1000   -8.9542    0.0000 C   0  0  0  0  0  0  0  0  0  0  0  0
    3.8792   -7.7542    0.0000 C   0  0  0  0  0  0  0  0  0  0  0  0
    3.1417   -8.1292    0.0000 C   0  0  0  0  0  0  0  0  0  0  0  0
    7.6167   -3.3667    0.0000 F   0  0  0  0  0  0  0  0  0  0  0  0
    6.8125   -5.4042    0.0000 C   0  0  0  0  0  0  0  0  0  0  0  0
    8.2417   -5.4542    0.0000 C   0  0  0  0  0  0  0  0  0  0  0  0
    8.2750   -4.6292    0.0000 C   0  0  0  0  0  0  0  0  0  0  0  0
    6.8417   -4.5750    0.0000 C   0  0  0  0  0  0  0  0  0  0  0  0
    6.4250  -14.5000    0.0000 C   0  0  0  0  0  0  0  0  0  0  0  0
    2.4417   -7.6792    0.0000 C   0  0  0  0  0  0  0  0  0  0  0  0
  2  1  2  0  0  0  0
  3  6  1  0  0  0  0
  4  3  1  0  0  0  0
  5  2  1  0  0  0  0
  6  1  1  0  0  0  0
  7  1  1  0  0  0  0
  8  7  2  0  0  0  0
  9  2  1  0  0  0  0
 10 18  1  0  0  0  0
 11  8  1  0  0  0  0
 12  4  1  0  0  0  0
 13 10  1  0  0  0  0
 14  3  1  0  0  0  0
 15  7  1  0  0  0  0
 16  6  2  0  0  0  0
 17 22  1  0  0  0  0
 18 15  1  0  0  0  0
 19 17  1  0  0  0  0
 20 13  2  0  0  0  0
 21 17  2  0  0  0  0
 22 12  1  0  0  0  0
 23 14  2  0  0  0  0
 24 14  1  0  0  0  0
 25 19  1  0  0  0  0
 26 33  2  0  0  0  0
 27 24  2  0  0  0  0
 28 23  1  0  0  0  0
 29 27  1  0  0  0  0
 30 26  1  0  0  0  0
 31 25  1  0  0  0  0
 32 25  2  0  0  0  0
 33 32  1  0  0  0  0
 34 31  2  0  0  0  0
 35 13  1  0  0  0  0
 36 29  1  0  0  0  0
  8  9  1  0  0  0  0
  5  4  2  0  0  0  0
 11 10  1  0  0  0  0
 28 29  2  0  0  0  0
 34 26  1  0  0  0  0
M  END
> <IDNUMBER>
F3222-2457

> <Chemical_Name>
2-{[11-acetyl-4-(4-methylphenyl)-3-oxo-8-thia-4,6,11-triazatricyclo[7.4.0.0^{2,7}]trideca-1(9),2(7),5-trien-5-yl]sulfanyl}-N-(4-fluorophenyl)acetamide

> <CAS>
1216377-62-6

> <PriceCoeff>
1.00

> <MW>
522.61

> <Description>
solid

> <FSP3>
0.23

> <clogP>
3.50

> <TPSA>
135.62

> <Acceptor>
4

> <Donor>
1

> <RotBonds>
6

> <HAC>
36

> <Collection>
General

> <Reference_compound>
CHEMBL577016

> <Similarity>
0.8990

$$$$
F3222-2458
  -ISIS-  06222321152D

 37 41  0  0  0  0  0  0  0  0999 V2000
    4.9375  -10.7167    0.0000 C   0  0  0  0  0  0  0  0  0  0  0  0
    4.2042  -10.3292    0.0000 C   0  0  0  0  0  0  0  0  0  0  0  0
    5.6042   -9.4417    0.0000 N   0  0  3  0  0  0  0  0  0  0  0  0
    4.8750   -9.0667    0.0000 C   0  0  0  0  0  0  0  0  0  0  0  0
    4.1750   -9.5042    0.0000 N   0  0  0  0  0  0  0  0  0  0  0  0
    5.6375  -10.2667    0.0000 C   0  0  0  0  0  0  0  0  0  0  0  0
    4.7917  -11.5292    0.0000 C   0  0  0  0  0  0  0  0  0  0  0  0
    3.9792  -11.6417    0.0000 C   0  0  0  0  0  0  0  0  0  0  0  0
    3.6167  -10.9167    0.0000 S   0  0  0  0  0  0  0  0  0  0  0  0
    4.1875  -13.0542    0.0000 N   0  0  3  0  0  0  0  0  0  0  0  0
    3.6750  -12.4042    0.0000 C   0  0  0  0  0  0  0  0  0  0  0  0
    4.8417   -8.2417    0.0000 S   0  0  0  0  0  0  0  0  0  0  0  0
    3.8875  -13.8292    0.0000 C   0  0  0  0  0  0  0  0  0  0  0  0
    6.3000   -9.0000    0.0000 C   0  0  0  0  0  0  0  0  0  0  0  0
    3.3500   -6.6417    0.0000 N   0  0  0  0  0  0  0  0  0  0  0  0
    5.3042  -12.1750    0.0000 C   0  0  0  0  0  0  0  0  0  0  0  0
    3.3167   -5.8167    0.0000 C   0  0  0  0  0  0  0  0  0  0  0  0
    2.5875   -5.4292    0.0000 C   0  0  0  0  0  0  0  0  0  0  0  0
    4.0792   -7.0292    0.0000 C   0  0  0  0  0  0  0  0  0  0  0  0
    6.3792  -10.6500    0.0000 O   0  0  0  0  0  0  0  0  0  0  0  0
    2.5542   -4.6042    0.0000 C   0  0  0  0  0  0  0  0  0  0  0  0
    4.9917  -12.9417    0.0000 C   0  0  0  0  0  0  0  0  0  0  0  0
    3.0667  -13.9542    0.0000 O   0  0  0  0  0  0  0  0  0  0  0  0
    4.7792   -6.5875    0.0000 O   0  0  0  0  0  0  0  0  0  0  0  0
    4.0167   -5.3750    0.0000 C   0  0  0  0  0  0  0  0  0  0  0  0
    4.1125   -7.8542    0.0000 C   0  0  0  0  0  0  0  0  0  0  0  0
    6.2542   -8.1750    0.0000 C   0  0  0  0  0  0  0  0  0  0  0  0
    7.0375   -9.3792    0.0000 C   0  0  0  0  0  0  0  0  0  0  0  0
    3.2500   -4.1667    0.0000 C   0  0  0  0  0  0  0  0  0  0  0  0
    1.8750   -5.8667    0.0000 F   0  0  0  0  0  0  0  0  0  0  0  0
    3.9792   -4.5417    0.0000 C   0  0  0  0  0  0  0  0  0  0  0  0
    6.9500   -7.7292    0.0000 C   0  0  0  0  0  0  0  0  0  0  0  0
    7.7292   -8.9292    0.0000 C   0  0  0  0  0  0  0  0  0  0  0  0
    3.2042   -3.3417    0.0000 F   0  0  0  0  0  0  0  0  0  0  0  0
    7.6792   -8.1042    0.0000 C   0  0  0  0  0  0  0  0  0  0  0  0
    4.4042  -14.4667    0.0000 C   0  0  0  0  0  0  0  0  0  0  0  0
    8.3792   -7.6500    0.0000 C   0  0  0  0  0  0  0  0  0  0  0  0
  2  1  2  0  0  0  0
  3  6  1  0  0  0  0
  4  3  1  0  0  0  0
  5  2  1  0  0  0  0
  6  1  1  0  0  0  0
  7  1  1  0  0  0  0
  8  7  2  0  0  0  0
  9  2  1  0  0  0  0
 10 22  1  0  0  0  0
 11  8  1  0  0  0  0
 12  4  1  0  0  0  0
 13 10  1  0  0  0  0
 14  3  1  0  0  0  0
 15 19  1  0  0  0  0
 16  7  1  0  0  0  0
 17 15  1  0  0  0  0
 18 17  2  0  0  0  0
 19 26  1  0  0  0  0
 20  6  2  0  0  0  0
 21 18  1  0  0  0  0
 22 16  1  0  0  0  0
 23 13  2  0  0  0  0
 24 19  2  0  0  0  0
 25 17  1  0  0  0  0
 26 12  1  0  0  0  0
 27 14  2  0  0  0  0
 28 14  1  0  0  0  0
 29 31  1  0  0  0  0
 30 18  1  0  0  0  0
 31 25  2  0  0  0  0
 32 27  1  0  0  0  0
 33 28  2  0  0  0  0
 34 29  1  0  0  0  0
 35 33  1  0  0  0  0
 36 13  1  0  0  0  0
 37 35  1  0  0  0  0
  9  8  1  0  0  0  0
  4  5  2  0  0  0  0
 10 11  1  0  0  0  0
 35 32  2  0  0  0  0
 29 21  2  0  0  0  0
M  END
> <IDNUMBER>
F3222-2458

> <Chemical_Name>
2-{[11-acetyl-4-(4-methylphenyl)-3-oxo-8-thia-4,6,11-triazatricyclo[7.4.0.0^{2,7}]trideca-1(9),2(7),5-trien-5-yl]sulfanyl}-N-(2,4-difluorophenyl)acetamide

> <CAS>
1190016-78-4

> <PriceCoeff>
1.00

> <MW>
540.60

> <Description>
solid

> <FSP3>
0.23

> <clogP>
3.14

> <TPSA>
135.62

> <Acceptor>
4

> <Donor>
1

> <RotBonds>
6

> <HAC>
37

> <Collection>
General

> <Reference_compound>
CHEMBL577016

> <Similarity>
0.8690

$$$$
F3222-2464
  -ISIS-  06222321152D

 37 41  0  0  0  0  0  0  0  0999 V2000
    5.8417   -9.5042    0.0000 C   0  0  0  0  0  0  0  0  0  0  0  0
    6.5667   -9.1167    0.0000 C   0  0  0  0  0  0  0  0  0  0  0  0
    5.1750   -8.2292    0.0000 N   0  0  3  0  0  0  0  0  0  0  0  0
    5.9042   -7.8542    0.0000 C   0  0  0  0  0  0  0  0  0  0  0  0
    6.6042   -8.2917    0.0000 N   0  0  0  0  0  0  0  0  0  0  0  0
    5.1417   -9.0542    0.0000 C   0  0  0  0  0  0  0  0  0  0  0  0
    5.9792  -10.3167    0.0000 C   0  0  0  0  0  0  0  0  0  0  0  0
    6.7917  -10.4292    0.0000 C   0  0  0  0  0  0  0  0  0  0  0  0
    7.1625   -9.7042    0.0000 S   0  0  0  0  0  0  0  0  0  0  0  0
    6.5917  -11.8417    0.0000 N   0  0  3  0  0  0  0  0  0  0  0  0
    7.1042  -11.1917    0.0000 C   0  0  0  0  0  0  0  0  0  0  0  0
    7.4625   -4.6042    0.0000 C   0  0  0  0  0  0  0  0  0  0  0  0
    5.9375   -7.0292    0.0000 S   0  0  0  0  0  0  0  0  0  0  0  0
    6.8917  -12.6167    0.0000 C   0  0  0  0  0  0  0  0  0  0  0  0
    4.4792   -7.7875    0.0000 C   0  0  0  0  0  0  0  0  0  0  0  0
    7.4292   -5.4292    0.0000 N   0  0  0  0  0  0  0  0  0  0  0  0
    5.4750  -10.9625    0.0000 C   0  0  0  0  0  0  0  0  0  0  0  0
    6.7000   -5.8167    0.0000 C   0  0  0  0  0  0  0  0  0  0  0  0
    4.3917   -9.4375    0.0000 O   0  0  0  0  0  0  0  0  0  0  0  0
    8.1917   -4.2167    0.0000 C   0  0  0  0  0  0  0  0  0  0  0  0
    5.7792  -11.7292    0.0000 C   0  0  0  0  0  0  0  0  0  0  0  0
    6.7667   -4.1667    0.0000 C   0  0  0  0  0  0  0  0  0  0  0  0
    7.7042  -12.7417    0.0000 O   0  0  0  0  0  0  0  0  0  0  0  0
    6.0000   -5.3750    0.0000 O   0  0  0  0  0  0  0  0  0  0  0  0
    6.6667   -6.6417    0.0000 C   0  0  0  0  0  0  0  0  0  0  0  0
    3.7500   -8.1750    0.0000 C   0  0  0  0  0  0  0  0  0  0  0  0
    4.5167   -6.9542    0.0000 C   0  0  0  0  0  0  0  0  0  0  0  0
    6.7917   -3.3375    0.0000 C   0  0  0  0  0  0  0  0  0  0  0  0
    8.2250   -3.3917    0.0000 C   0  0  0  0  0  0  0  0  0  0  0  0
    6.0292   -4.5625    0.0000 F   0  0  0  0  0  0  0  0  0  0  0  0
    7.5167   -2.9417    0.0000 C   0  0  0  0  0  0  0  0  0  0  0  0
    3.8167   -6.5167    0.0000 C   0  0  0  0  0  0  0  0  0  0  0  0
    3.0500   -7.7292    0.0000 C   0  0  0  0  0  0  0  0  0  0  0  0
    8.9667   -3.0042    0.0000 F   0  0  0  0  0  0  0  0  0  0  0  0
    3.0917   -6.9042    0.0000 C   0  0  0  0  0  0  0  0  0  0  0  0
    6.3750  -13.2542    0.0000 C   0  0  0  0  0  0  0  0  0  0  0  0
    2.3792   -6.4542    0.0000 C   0  0  0  0  0  0  0  0  0  0  0  0
  2  1  2  0  0  0  0
  3  6  1  0  0  0  0
  4  3  1  0  0  0  0
  5  2  1  0  0  0  0
  6  1  1  0  0  0  0
  7  1  1  0  0  0  0
  8  7  2  0  0  0  0
  9  2  1  0  0  0  0
 10 21  1  0  0  0  0
 11  8  1  0  0  0  0
 12 16  1  0  0  0  0
 13  4  1  0  0  0  0
 14 10  1  0  0  0  0
 15  3  1  0  0  0  0
 16 18  1  0  0  0  0
 17  7  1  0  0  0  0
 18 25  1  0  0  0  0
 19  6  2  0  0  0  0
 20 12  2  0  0  0  0
 21 17  1  0  0  0  0
 22 12  1  0  0  0  0
 23 14  2  0  0  0  0
 24 18  2  0  0  0  0
 25 13  1  0  0  0  0
 26 15  1  0  0  0  0
 27 15  2  0  0  0  0
 28 22  2  0  0  0  0
 29 20  1  0  0  0  0
 30 22  1  0  0  0  0
 31 28  1  0  0  0  0
 32 27  1  0  0  0  0
 33 26  2  0  0  0  0
 34 29  1  0  0  0  0
 35 32  2  0  0  0  0
 36 14  1  0  0  0  0
 37 35  1  0  0  0  0
  8  9  1  0  0  0  0
  5  4  2  0  0  0  0
 11 10  1  0  0  0  0
 33 35  1  0  0  0  0
 29 31  2  0  0  0  0
M  END
> <IDNUMBER>
F3222-2464

> <Chemical_Name>
2-{[11-acetyl-4-(4-methylphenyl)-3-oxo-8-thia-4,6,11-triazatricyclo[7.4.0.0^{2,7}]trideca-1(9),2(7),5-trien-5-yl]sulfanyl}-N-(2,5-difluorophenyl)acetamide

> <CAS>
1215539-40-4

> <PriceCoeff>
1.00

> <MW>
540.60

> <Description>
solid

> <FSP3>
0.23

> <clogP>
3.14

> <TPSA>
135.62

> <Acceptor>
4

> <Donor>
1

> <RotBonds>
6

> <HAC>
37

> <Collection>
General

> <Reference_compound>
CHEMBL577016

> <Similarity>
0.8740

$$$$
F3222-2787
  -ISIS-  06222321152D

 37 41  0  0  0  0  0  0  0  0999 V2000
    4.8125   -8.2292    0.0000 N   0  0  3  0  0  0  0  0  0  0  0  0
    5.4792   -9.5042    0.0000 C   0  0  0  0  0  0  0  0  0  0  0  0
    6.2042   -9.1167    0.0000 C   0  0  0  0  0  0  0  0  0  0  0  0
    5.5417   -7.8542    0.0000 C   0  0  0  0  0  0  0  0  0  0  0  0
    6.2417   -8.2917    0.0000 N   0  0  0  0  0  0  0  0  0  0  0  0
    4.7792   -9.0542    0.0000 C   0  0  0  0  0  0  0  0  0  0  0  0
    5.6167  -10.3167    0.0000 C   0  0  0  0  0  0  0  0  0  0  0  0
    6.4292  -10.4292    0.0000 C   0  0  0  0  0  0  0  0  0  0  0  0
    6.8000   -9.7042    0.0000 S   0  0  0  0  0  0  0  0  0  0  0  0
    6.2292  -11.8417    0.0000 N   0  0  3  0  0  0  0  0  0  0  0  0
    4.1167   -7.7917    0.0000 C   0  0  0  0  0  0  0  0  0  0  0  0
    6.7417  -11.1917    0.0000 C   0  0  0  0  0  0  0  0  0  0  0  0
    7.1000   -4.6042    0.0000 C   0  0  0  0  0  0  0  0  0  0  0  0
    5.5750   -7.0292    0.0000 S   0  0  0  0  0  0  0  0  0  0  0  0
    6.5292  -12.6167    0.0000 C   0  0  0  0  0  0  0  0  0  0  0  0
    7.0667   -5.4292    0.0000 N   0  0  0  0  0  0  0  0  0  0  0  0
    5.1125  -10.9625    0.0000 C   0  0  0  0  0  0  0  0  0  0  0  0
    6.3375   -5.8167    0.0000 C   0  0  0  0  0  0  0  0  0  0  0  0
    4.0292   -9.4375    0.0000 O   0  0  0  0  0  0  0  0  0  0  0  0
    7.8292   -4.2167    0.0000 C   0  0  0  0  0  0  0  0  0  0  0  0
    5.4167  -11.7292    0.0000 C   0  0  0  0  0  0  0  0  0  0  0  0
    6.4042   -4.1667    0.0000 C   0  0  0  0  0  0  0  0  0  0  0  0
    3.3875   -8.1792    0.0000 C   0  0  0  0  0  0  0  0  0  0  0  0
    7.3417  -12.7417    0.0000 O   0  0  0  0  0  0  0  0  0  0  0  0
    5.6375   -5.3750    0.0000 O   0  0  0  0  0  0  0  0  0  0  0  0
    6.3042   -6.6417    0.0000 C   0  0  0  0  0  0  0  0  0  0  0  0
    6.4292   -3.3375    0.0000 C   0  0  0  0  0  0  0  0  0  0  0  0
    7.8625   -3.3917    0.0000 C   0  0  0  0  0  0  0  0  0  0  0  0
    5.6667   -4.5625    0.0000 F   0  0  0  0  0  0  0  0  0  0  0  0
    7.1542   -2.9417    0.0000 C   0  0  0  0  0  0  0  0  0  0  0  0
    8.6042   -3.0042    0.0000 F   0  0  0  0  0  0  0  0  0  0  0  0
    4.1500   -6.9667    0.0000 C   0  0  0  0  0  0  0  0  0  0  0  0
    6.0125  -13.2542    0.0000 C   0  0  0  0  0  0  0  0  0  0  0  0
    3.3542   -9.0042    0.0000 C   0  0  0  0  0  0  0  0  0  0  0  0
    2.6875   -7.7417    0.0000 C   0  0  0  0  0  0  0  0  0  0  0  0
    3.4542   -6.5292    0.0000 C   0  0  0  0  0  0  0  0  0  0  0  0
    2.7167   -6.9125    0.0000 C   0  0  0  0  0  0  0  0  0  0  0  0
  2  6  1  0  0  0  0
  3  2  2  0  0  0  0
  4  1  1  0  0  0  0
  5  4  2  0  0  0  0
  6  1  1  0  0  0  0
  7  2  1  0  0  0  0
  8  7  2  0  0  0  0
  9  3  1  0  0  0  0
 10 21  1  0  0  0  0
 11  1  1  0  0  0  0
 12  8  1  0  0  0  0
 13 16  1  0  0  0  0
 14  4  1  0  0  0  0
 15 10  1  0  0  0  0
 16 18  1  0  0  0  0
 17  7  1  0  0  0  0
 18 26  1  0  0  0  0
 19  6  2  0  0  0  0
 20 13  2  0  0  0  0
 21 17  1  0  0  0  0
 22 13  1  0  0  0  0
 23 11  1  0  0  0  0
 24 15  2  0  0  0  0
 25 18  2  0  0  0  0
 26 14  1  0  0  0  0
 27 22  2  0  0  0  0
 28 20  1  0  0  0  0
 29 22  1  0  0  0  0
 30 27  1  0  0  0  0
 31 28  1  0  0  0  0
 32 11  2  0  0  0  0
 33 15  1  0  0  0  0
 34 23  1  0  0  0  0
 35 23  2  0  0  0  0
 36 32  1  0  0  0  0
 37 36  2  0  0  0  0
  5  3  1  0  0  0  0
 35 37  1  0  0  0  0
  8  9  1  0  0  0  0
 12 10  1  0  0  0  0
 28 30  2  0  0  0  0
M  END
> <IDNUMBER>
F3222-2787

> <Chemical_Name>
2-{[11-acetyl-4-(2-methylphenyl)-3-oxo-8-thia-4,6,11-triazatricyclo[7.4.0.0^{2,7}]trideca-1(9),2(7),5-trien-5-yl]sulfanyl}-N-(2,5-difluorophenyl)acetamide

> <CAS>
1189886-74-5

> <PriceCoeff>
1.00

> <MW>
540.60

> <Description>
solid

> <FSP3>
0.23

> <clogP>
3.14

> <TPSA>
135.62

> <Acceptor>
4

> <Donor>
1

> <RotBonds>
6

> <HAC>
37

> <Collection>
General

> <Reference_compound>
CHEMBL577016

> <Similarity>
0.8550

$$$$
F1175-0222
  -ISIS-  06222321452D

 22 24  0  0  0  0  0  0  0  0999 V2000
    7.6917    4.8542    0.0000 C   0  0  0  0  0  0  0  0  0  0  0  0
    1.4042    1.2083    0.0000 N   0  3  0  0  0  0  0  0  0  0  0  0
    2.0917    2.4333    0.0000 C   0  0  0  0  0  0  0  0  0  0  0  0
    8.5042    5.9917    0.0000 N   0  0  0  0  0  0  0  0  0  0  0  0
    6.2917    4.8542    0.0000 N   0  0  0  0  0  0  0  0  0  0  0  0
    8.5167    3.7333    0.0000 S   0  0  0  0  0  0  0  0  0  0  0  0
    5.5917    3.6583    0.0000 C   0  0  0  0  0  0  0  0  0  0  0  0
    3.4917    2.4333    0.0000 C   0  0  0  0  0  0  0  0  0  0  0  0
    4.1917    3.6458    0.0000 C   0  0  0  0  0  0  0  0  0  0  0  0
    9.8417    5.5625    0.0000 C   0  0  0  0  0  0  0  0  0  0  0  0
    9.8417    4.1542    0.0000 C   0  0  0  0  0  0  0  0  0  0  0  0
    1.3917    3.6333    0.0000 C   0  0  0  0  0  0  0  0  0  0  0  0
    0.0042    1.2083    0.0000 O   0  5  0  0  0  0  0  0  0  0  0  0
    2.1042   -0.0000    0.0000 O   0  0  0  0  0  0  0  0  0  0  0  0
    6.3042    2.4458    0.0000 O   0  0  0  0  0  0  0  0  0  0  0  0
    3.4917    4.8417    0.0000 C   0  0  0  0  0  0  0  0  0  0  0  0
    2.0792    4.8417    0.0000 C   0  0  0  0  0  0  0  0  0  0  0  0
    0.0000    3.6333    0.0000 Cl  0  0  0  0  0  0  0  0  0  0  0  0
   11.0500    6.2625    0.0000 C   0  0  0  0  0  0  0  0  0  0  0  0
   11.0542    3.4708    0.0000 C   0  0  0  0  0  0  0  0  0  0  0  0
   12.2667    4.1542    0.0000 C   0  0  0  0  0  0  0  0  0  0  0  0
   12.2667    5.5625    0.0000 C   0  0  0  0  0  0  0  0  0  0  0  0
  2  3  1  0  0  0  0
  3  8  2  0  0  0  0
  4  1  2  0  0  0  0
  5  1  1  0  0  0  0
  6  1  1  0  0  0  0
  7  5  1  0  0  0  0
  8  9  1  0  0  0  0
  9  7  1  0  0  0  0
 10  4  1  0  0  0  0
 11  6  1  0  0  0  0
 12 17  2  0  0  0  0
 13  2  1  0  0  0  0
 14  2  2  0  0  0  0
 15  7  2  0  0  0  0
 16  9  2  0  0  0  0
 17 16  1  0  0  0  0
 18 12  1  0  0  0  0
 19 10  1  0  0  0  0
 20 11  1  0  0  0  0
 21 20  2  0  0  0  0
 22 19  2  0  0  0  0
 11 10  2  0  0  0  0
 21 22  1  0  0  0  0
 12  3  1  0  0  0  0
M  CHG  2   2   1  13  -1
M  END
> <IDNUMBER>
F1175-0222

> <Chemical_Name>
N-(1,3-benzothiazol-2-yl)-4-chloro-3-nitrobenzamide

> <CAS>
312631-96-2

> <PriceCoeff>
1.00

> <MW>
333.75

> <Description>
solid

> <FSP3>
0.00

> <clogP>
3.91

> <TPSA>
113.37

> <Acceptor>
4

> <Donor>
1

> <RotBonds>
3

> <HAC>
22

> <Collection>
General

$$$$
F2707-0314
  -ISIS-  06222321462D

 30 33  0  0  0  0  0  0  0  0999 V2000
   -2.4208    1.8958    0.0000 N   0  0  3  0  0  0  0  0  0  0  0  0
   -1.6625    1.5583    0.0000 C   0  0  0  0  0  0  0  0  0  0  0  0
   -2.4958    2.7208    0.0000 C   0  0  3  0  0  0  0  0  0  0  0  0
   -3.2458    3.0458    0.0000 C   0  0  0  0  0  0  0  0  0  0  0  0
   -3.9125    2.5708    0.0000 N   0  0  3  0  0  0  0  0  0  0  0  0
   -1.8333    3.1958    0.0000 C   0  0  0  0  0  0  0  0  0  0  0  0
   -1.5833    0.7375    0.0000 N   0  0  0  0  0  0  0  0  0  0  0  0
   -3.0833    1.4208    0.0000 C   0  0  0  0  0  0  0  0  0  0  0  0
   -1.0833    2.8583    0.0000 C   0  0  0  0  0  0  0  0  0  0  0  0
   -3.6708    0.1208    0.0000 C   0  0  0  0  0  0  0  0  0  0  0  0
   -3.0083    0.5958    0.0000 C   0  0  0  0  0  0  0  0  0  0  0  0
   -0.4208    3.3375    0.0000 C   0  0  0  0  0  0  0  0  0  0  0  0
   -3.5000    3.8333    0.0000 C   0  0  0  0  0  0  0  0  0  0  0  0
   -0.9958    2.0375    0.0000 O   0  0  0  0  0  0  0  0  0  0  0  0
   -4.5833    3.0458    0.0000 C   0  0  0  0  0  0  0  0  0  0  0  0
   -2.2500    0.2583    0.0000 C   0  0  0  0  0  0  0  0  0  0  0  0
   -3.8333    1.7583    0.0000 C   0  0  0  0  0  0  0  0  0  0  0  0
   -4.3333    3.8333    0.0000 C   0  0  0  0  0  0  0  0  0  0  0  0
   -3.5833   -0.7042    0.0000 C   0  0  0  0  0  0  0  0  0  0  0  0
   -1.9208    4.0042    0.0000 C   0  0  0  0  0  0  0  0  0  0  0  0
   -0.5000    4.1500    0.0000 C   0  0  0  0  0  0  0  0  0  0  0  0
   -1.2458    4.4917    0.0000 C   0  0  0  0  0  0  0  0  0  0  0  0
   -2.8458   -1.0417    0.0000 C   0  0  0  0  0  0  0  0  0  0  0  0
   -4.4208    0.4583    0.0000 Cl  0  0  0  0  0  0  0  0  0  0  0  0
   -2.1708   -0.5667    0.0000 C   0  0  0  0  0  0  0  0  0  0  0  0
   -4.2583   -1.1792    0.0000 Cl  0  0  0  0  0  0  0  0  0  0  0  0
    0.3250    3.0000    0.0000 O   0  0  0  0  0  0  0  0  0  0  0  0
    0.1667    4.6250    0.0000 O   0  0  0  0  0  0  0  0  0  0  0  0
    0.9917    3.4833    0.0000 C   0  0  0  0  0  0  0  0  0  0  0  0
    0.0792    5.4417    0.0000 C   0  0  0  0  0  0  0  0  0  0  0  0
  2  1  1  0  0  0  0
  3  1  1  0  0  0  0
  4  3  1  0  0  0  0
  5 17  1  0  0  0  0
  6  3  1  0  0  0  0
  7  2  1  0  0  0  0
  8  1  1  0  0  0  0
  9  6  2  0  0  0  0
 10 11  1  0  0  0  0
 11 16  2  0  0  0  0
 12  9  1  0  0  0  0
 13  4  2  0  0  0  0
 14  2  2  0  0  0  0
 15  5  1  0  0  0  0
 16  7  1  0  0  0  0
 17  8  1  0  0  0  0
 18 13  1  0  0  0  0
 19 23  1  0  0  0  0
 20  6  1  0  0  0  0
 21 22  1  0  0  0  0
 22 20  2  0  0  0  0
 23 25  2  0  0  0  0
 24 10  1  0  0  0  0
 25 16  1  0  0  0  0
 26 19  1  0  0  0  0
 27 12  1  0  0  0  0
 28 21  1  0  0  0  0
 29 27  1  0  0  0  0
 30 28  1  0  0  0  0
  5  4  1  0  0  0  0
 15 18  2  0  0  0  0
 21 12  2  0  0  0  0
 19 10  2  0  0  0  0
M  END
> <IDNUMBER>
F2707-0314

> <Chemical_Name>
N-(3,4-dichlorophenyl)-1-(3,4-dimethoxyphenyl)-1H,2H,3H,4H-pyrrolo[1,2-a]pyrazine-2-carboxamide

> <CAS>
899960-78-2

> <PriceCoeff>
1.00

> <MW>
446.33

> <Description>
solid

> <FSP3>
0.23

> <clogP>
4.44

> <TPSA>
55.73

> <Acceptor>
3

> <Donor>
1

> <RotBonds>
5

> <HAC>
30

> <Collection>
General

$$$$
F2102-0079
  -ISIS-  06222321142D

 16 17  0  0  0  0  0  0  0  0999 V2000
    1.5542   -5.9417    0.0000 C   0  0  0  0  0  0  0  0  0  0  0  0
    0.8417   -5.5292    0.0000 C   0  0  0  0  0  0  0  0  0  0  0  0
   -0.5875   -4.7000    0.0000 C   0  0  0  0  0  0  0  0  0  0  0  0
    1.5542   -6.7667    0.0000 O   0  0  0  0  0  0  0  0  0  0  0  0
    2.2667   -5.5250    0.0000 N   0  0  0  0  0  0  0  0  0  0  0  0
    0.8417   -4.7000    0.0000 C   0  0  0  0  0  0  0  0  0  0  0  0
    0.1250   -5.9417    0.0000 C   0  0  0  0  0  0  0  0  0  0  0  0
    0.1250   -4.2875    0.0000 C   0  0  0  0  0  0  0  0  0  0  0  0
   -0.5875   -5.5292    0.0000 C   0  0  0  0  0  0  0  0  0  0  0  0
   -1.3000   -4.2917    0.0000 C   0  0  0  0  0  0  0  0  0  0  0  0
    2.9875   -5.9375    0.0000 N   0  0  0  0  0  0  0  0  0  0  0  0
   -1.3000   -3.4625    0.0000 C   0  0  0  0  0  0  0  0  0  0  0  0
   -2.0083   -4.7000    0.0000 C   0  0  0  0  0  0  0  0  0  0  0  0
   -2.7250   -4.2917    0.0000 C   0  0  0  0  0  0  0  0  0  0  0  0
   -2.0125   -3.0500    0.0000 C   0  0  0  0  0  0  0  0  0  0  0  0
   -2.7333   -3.4625    0.0000 C   0  0  0  0  0  0  0  0  0  0  0  0
  2  1  1  0  0  0  0
  3  9  2  0  0  0  0
  4  1  2  0  0  0  0
  5  1  1  0  0  0  0
  6  2  1  0  0  0  0
  7  2  2  0  0  0  0
  8  6  2  0  0  0  0
  9  7  1  0  0  0  0
 10  3  1  0  0  0  0
 11  5  1  0  0  0  0
 12 10  2  0  0  0  0
 13 10  1  0  0  0  0
 14 13  2  0  0  0  0
 15 12  1  0  0  0  0
 16 14  1  0  0  0  0
  8  3  1  0  0  0  0
 15 16  2  0  0  0  0
M  END
> <IDNUMBER>
F2102-0079

> <Chemical_Name>
[1,1'-biphenyl]-4-carbohydrazide

> <CAS>
18622-23-6

> <PriceCoeff>
1.00

> <MW>
212.25

> <Description>
solid

> <FSP3>
0.00

> <clogP>
2.15

> <TPSA>
55.12

> <Acceptor>
1

> <Donor>
2

> <RotBonds>
2

> <HAC>
16

> <Collection>
General

> <Reference_compound>
CHEMBL153973

> <Similarity>
0.8120

$$$$
F3115-0051
  -ISIS-  06222321152D

 29 31  0  0  0  0  0  0  0  0999 V2000
   -0.8708   -0.6250    0.0000 N   0  0  3  0  0  0  0  0  0  0  0  0
   -2.0750    0.0833    0.0000 C   0  0  0  0  0  0  0  0  0  0  0  0
   -0.3833    0.0458    0.0000 C   0  0  0  0  0  0  0  0  0  0  0  0
   -1.6958   -0.6292    0.0000 C   0  0  0  0  0  0  0  0  0  0  0  0
   -0.3750   -1.2917    0.0000 C   0  0  0  0  0  0  0  0  0  0  0  0
   -1.7583    0.8083    0.0000 N   0  3  0  0  0  0  0  0  0  0  0  0
    0.4042   -1.0292    0.0000 C   0  0  3  0  0  0  0  0  0  0  0  0
    0.4042   -0.2042    0.0000 C   0  0  0  0  0  0  0  0  0  0  0  0
    2.4917   -1.6542    0.0000 C   0  0  0  0  0  0  0  0  0  0  0  0
    1.0750   -1.5125    0.0000 S   0  0  0  0  0  0  0  0  0  0  0  0
    1.8292   -1.1750    0.0000 C   0  0  0  0  0  0  0  0  0  0  0  0
    2.4125   -2.4792    0.0000 C   0  0  0  0  0  0  0  0  0  0  0  0
   -2.9333    0.0833    0.0000 C   0  0  0  0  0  0  0  0  0  0  0  0
   -2.0958   -1.3417    0.0000 C   0  0  0  0  0  0  0  0  0  0  0  0
   -1.2208    0.8083    0.0000 O   0  5  0  0  0  0  0  0  0  0  0  0
   -0.5250    0.7708    0.0000 O   0  0  0  0  0  0  0  0  0  0  0  0
   -2.0833    1.5208    0.0000 O   0  0  0  0  0  0  0  0  0  0  0  0
   -0.6333   -2.0750    0.0000 O   0  0  0  0  0  0  0  0  0  0  0  0
    3.0792   -2.9625    0.0000 O   0  0  0  0  0  0  0  0  0  0  0  0
   -3.3375   -0.6375    0.0000 C   0  0  0  0  0  0  0  0  0  0  0  0
   -2.9208   -1.3500    0.0000 C   0  0  0  0  0  0  0  0  0  0  0  0
    1.6542   -2.8167    0.0000 O   0  0  0  0  0  0  0  0  0  0  0  0
    3.2500   -1.3167    0.0000 C   0  0  0  0  0  0  0  0  0  0  0  0
   -4.1625   -0.6417    0.0000 O   0  0  0  0  0  0  0  0  0  0  0  0
    1.9042   -0.3542    0.0000 C   0  0  0  0  0  0  0  0  0  0  0  0
   -4.5833    0.0708    0.0000 C   0  0  0  0  0  0  0  0  0  0  0  0
    3.3292   -0.4917    0.0000 C   0  0  0  0  0  0  0  0  0  0  0  0
    2.6542   -0.0167    0.0000 C   0  0  0  0  0  0  0  0  0  0  0  0
   -5.4083    0.0625    0.0000 C   0  0  0  0  0  0  0  0  0  0  0  0
  2  4  2  0  0  0  0
  3  1  1  0  0  0  0
  4  1  1  0  0  0  0
  5  1  1  0  0  0  0
  6  2  1  0  0  0  0
  7  5  1  0  0  0  0
  8  3  1  0  0  0  0
  9 11  2  0  0  0  0
 10  7  1  0  0  0  0
 11 10  1  0  0  0  0
 12  9  1  0  0  0  0
 13  2  1  0  0  0  0
 14  4  1  0  0  0  0
 15  6  1  0  0  0  0
 16  3  2  0  0  0  0
 17  6  2  0  0  0  0
 18  5  2  0  0  0  0
 19 12  2  0  0  0  0
 20 21  1  0  0  0  0
 21 14  2  0  0  0  0
 22 12  1  0  0  0  0
 23  9  1  0  0  0  0
 24 20  1  0  0  0  0
 25 11  1  0  0  0  0
 26 24  1  0  0  0  0
 27 28  1  0  0  0  0
 28 25  2  0  0  0  0
 29 26  1  0  0  0  0
  7  8  1  0  0  0  0
 13 20  2  0  0  0  0
 23 27  2  0  0  0  0
M  CHG  2   6   1  15  -1
M  END
> <IDNUMBER>
F3115-0051

> <Chemical_Name>
2-{[1-(4-ethoxy-2-nitrophenyl)-2,5-dioxopyrrolidin-3-yl]sulfanyl}benzoic acid

> <CAS>
692276-58-7

> <PriceCoeff>
1.00

> <MW>
416.40

> <Description>
solid

> <FSP3>
0.21

> <clogP>
3.01

> <TPSA>
152.35

> <Acceptor>
7

> <Donor>
0

> <RotBonds>
7

> <HAC>
29

> <Collection>
General

$$$$
F2724-0679
  -ISIS-  06222321152D

 31 34  0  0  0  0  0  0  0  0999 V2000
   -5.0333    6.1875    0.0000 N   0  3  0  0  0  0  0  0  0  0  0  0
   -5.0333    5.4375    0.0000 C   0  0  0  0  0  0  0  0  0  0  0  0
   -3.7333    3.9375    0.0000 C   0  0  0  0  0  0  0  0  0  0  0  0
   -3.7333    8.4375    0.0000 N   0  0  0  0  0  0  0  0  0  0  0  0
   -4.3833    5.0625    0.0000 C   0  0  0  0  0  0  0  0  0  0  0  0
   -3.7333    7.6875    0.0000 N   0  0  0  0  0  0  0  0  0  0  0  0
   -3.0875    8.8125    0.0000 C   0  0  0  0  0  0  0  0  0  0  0  0
   -3.0875    9.5625    0.0000 N   0  0  3  0  0  0  0  0  0  0  0  0
   -4.3833    4.3125    0.0000 C   0  0  0  0  0  0  0  0  0  0  0  0
   -3.0875    4.3125    0.0000 N   0  0  0  0  0  0  0  0  0  0  0  0
   -5.6833    5.0625    0.0000 C   0  0  0  0  0  0  0  0  0  0  0  0
   -4.3833    6.5625    0.0000 O   0  5  0  0  0  0  0  0  0  0  0  0
   -3.0875    7.3125    0.0000 C   0  0  0  0  0  0  0  0  0  0  0  0
   -5.6833    6.5625    0.0000 O   0  0  0  0  0  0  0  0  0  0  0  0
   -3.0875    6.5625    0.0000 C   0  0  0  0  0  0  0  0  0  0  0  0
   -3.7333    3.1833    0.0000 O   0  0  0  0  0  0  0  0  0  0  0  0
   -2.4375    8.4375    0.0000 C   0  0  0  0  0  0  0  0  0  0  0  0
   -5.0333    3.9375    0.0000 C   0  0  0  0  0  0  0  0  0  0  0  0
   -5.6833    4.3125    0.0000 C   0  0  0  0  0  0  0  0  0  0  0  0
   -2.4375    7.6875    0.0000 C   0  0  0  0  0  0  0  0  0  0  0  0
   -3.0875   11.0625    0.0000 O   0  0  0  0  0  0  0  0  0  0  0  0
   -3.0875    5.0625    0.0000 C   0  0  0  0  0  0  0  0  0  0  0  0
   -3.7375    6.1875    0.0000 C   0  0  0  0  0  0  0  0  0  0  0  0
   -2.4458    6.1875    0.0000 C   0  0  0  0  0  0  0  0  0  0  0  0
   -6.3292    5.4417    0.0000 Cl  0  0  0  0  0  0  0  0  0  0  0  0
   -2.4458    5.4375    0.0000 C   0  0  0  0  0  0  0  0  0  0  0  0
   -3.7375    5.4375    0.0000 C   0  0  0  0  0  0  0  0  0  0  0  0
   -2.4458    9.9375    0.0000 C   0  0  0  0  0  0  0  0  0  0  0  0
   -3.7375    9.9375    0.0000 C   0  0  0  0  0  0  0  0  0  0  0  0
   -3.7375   10.6875    0.0000 C   0  0  0  0  0  0  0  0  0  0  0  0
   -2.4458   10.6875    0.0000 C   0  0  0  0  0  0  0  0  0  0  0  0
  2  1  1  0  0  0  0
  3  9  1  0  0  0  0
  4  6  2  0  0  0  0
  5  2  1  0  0  0  0
  6 13  1  0  0  0  0
  7 17  2  0  0  0  0
  8  7  1  0  0  0  0
  9  5  2  0  0  0  0
 10  3  1  0  0  0  0
 11  2  2  0  0  0  0
 12  1  1  0  0  0  0
 13 15  1  0  0  0  0
 14  1  2  0  0  0  0
 15 23  2  0  0  0  0
 16  3  2  0  0  0  0
 17 20  1  0  0  0  0
 18 19  2  0  0  0  0
 19 11  1  0  0  0  0
 20 13  2  0  0  0  0
 21 30  1  0  0  0  0
 22 10  1  0  0  0  0
 23 27  1  0  0  0  0
 24 26  2  0  0  0  0
 25 11  1  0  0  0  0
 26 22  1  0  0  0  0
 27 22  2  0  0  0  0
 28  8  1  0  0  0  0
 29  8  1  0  0  0  0
 30 29  1  0  0  0  0
 31 28  1  0  0  0  0
 18  9  1  0  0  0  0
 15 24  1  0  0  0  0
  7  4  1  0  0  0  0
 21 31  1  0  0  0  0
M  CHG  2   1   1  12  -1
M  END
> <IDNUMBER>
F2724-0679

> <Chemical_Name>
4-chloro-N-{4-[6-(morpholin-4-yl)pyridazin-3-yl]phenyl}-3-nitrobenzamide

> <CAS>
899745-97-2

> <PriceCoeff>
1.00

> <MW>
439.85

> <Description>
solid

> <FSP3>
0.19

> <clogP>
3.14

> <TPSA>
110.49

> <Acceptor>
6

> <Donor>
2

> <RotBonds>
5

> <HAC>
31

> <Collection>
General

$$$$
F3222-2641
  -ISIS-  06222321152D

 36 40  0  0  0  0  0  0  0  0999 V2000
    4.4542   -7.8167    0.0000 N   0  0  3  0  0  0  0  0  0  0  0  0
    5.1167   -9.0917    0.0000 C   0  0  0  0  0  0  0  0  0  0  0  0
    5.8500   -8.7042    0.0000 C   0  0  0  0  0  0  0  0  0  0  0  0
    5.1792   -7.4417    0.0000 C   0  0  0  0  0  0  0  0  0  0  0  0
    5.8792   -7.8792    0.0000 N   0  0  0  0  0  0  0  0  0  0  0  0
    4.4167   -8.6417    0.0000 C   0  0  0  0  0  0  0  0  0  0  0  0
    5.2625   -9.9042    0.0000 C   0  0  0  0  0  0  0  0  0  0  0  0
    6.0750  -10.0167    0.0000 C   0  0  0  0  0  0  0  0  0  0  0  0
    6.4417   -9.2917    0.0000 S   0  0  0  0  0  0  0  0  0  0  0  0
    5.8667  -11.4292    0.0000 N   0  0  3  0  0  0  0  0  0  0  0  0
    3.7542   -7.3792    0.0000 C   0  0  0  0  0  0  0  0  0  0  0  0
    6.3792  -10.7792    0.0000 C   0  0  0  0  0  0  0  0  0  0  0  0
    5.2167   -6.6167    0.0000 S   0  0  0  0  0  0  0  0  0  0  0  0
    6.1667  -12.2042    0.0000 C   0  0  0  0  0  0  0  0  0  0  0  0
    4.7542  -10.5500    0.0000 C   0  0  0  0  0  0  0  0  0  0  0  0
    3.6750   -9.0250    0.0000 O   0  0  0  0  0  0  0  0  0  0  0  0
    5.9792   -5.4042    0.0000 C   0  0  0  0  0  0  0  0  0  0  0  0
    5.0625  -11.3167    0.0000 C   0  0  0  0  0  0  0  0  0  0  0  0
    6.7042   -5.0167    0.0000 N   0  0  0  0  0  0  0  0  0  0  0  0
    3.0292   -7.7667    0.0000 C   0  0  0  0  0  0  0  0  0  0  0  0
    6.9875  -12.3292    0.0000 O   0  0  0  0  0  0  0  0  0  0  0  0
    5.2792   -4.9625    0.0000 O   0  0  0  0  0  0  0  0  0  0  0  0
    5.9417   -6.2292    0.0000 C   0  0  0  0  0  0  0  0  0  0  0  0
    6.7417   -4.1917    0.0000 C   0  0  0  0  0  0  0  0  0  0  0  0
    6.8042   -2.5417    0.0000 C   0  0  0  0  0  0  0  0  0  0  0  0
    6.0417   -3.7500    0.0000 C   0  0  0  0  0  0  0  0  0  0  0  0
    7.4667   -3.8042    0.0000 C   0  0  0  0  0  0  0  0  0  0  0  0
    6.0750   -2.9167    0.0000 C   0  0  0  0  0  0  0  0  0  0  0  0
    7.5042   -2.9792    0.0000 C   0  0  0  0  0  0  0  0  0  0  0  0
    3.7917   -6.5542    0.0000 C   0  0  0  0  0  0  0  0  0  0  0  0
    5.6542  -12.8417    0.0000 C   0  0  0  0  0  0  0  0  0  0  0  0
    2.9917   -8.5917    0.0000 C   0  0  0  0  0  0  0  0  0  0  0  0
    2.3292   -7.3292    0.0000 C   0  0  0  0  0  0  0  0  0  0  0  0
    6.8500   -1.7167    0.0000 C   0  0  0  0  0  0  0  0  0  0  0  0
    3.0917   -6.1167    0.0000 C   0  0  0  0  0  0  0  0  0  0  0  0
    2.3625   -6.5000    0.0000 C   0  0  0  0  0  0  0  0  0  0  0  0
  2  6  1  0  0  0  0
  3  2  2  0  0  0  0
  4  1  1  0  0  0  0
  5  4  2  0  0  0  0
  6  1  1  0  0  0  0
  7  2  1  0  0  0  0
  8  7  2  0  0  0  0
  9  3  1  0  0  0  0
 10 18  1  0  0  0  0
 11  1  1  0  0  0  0
 12  8  1  0  0  0  0
 13  4  1  0  0  0  0
 14 10  1  0  0  0  0
 15  7  1  0  0  0  0
 16  6  2  0  0  0  0
 17 23  1  0  0  0  0
 18 15  1  0  0  0  0
 19 17  1  0  0  0  0
 20 11  1  0  0  0  0
 21 14  2  0  0  0  0
 22 17  2  0  0  0  0
 23 13  1  0  0  0  0
 24 19  1  0  0  0  0
 25 29  1  0  0  0  0
 26 24  2  0  0  0  0
 27 24  1  0  0  0  0
 28 26  1  0  0  0  0
 29 27  2  0  0  0  0
 30 11  2  0  0  0  0
 31 14  1  0  0  0  0
 32 20  1  0  0  0  0
 33 20  2  0  0  0  0
 34 25  1  0  0  0  0
 35 30  1  0  0  0  0
 36 35  2  0  0  0  0
  3  5  1  0  0  0  0
 33 36  1  0  0  0  0
  8  9  1  0  0  0  0
 12 10  1  0  0  0  0
 25 28  2  0  0  0  0
M  END
> <IDNUMBER>
F3222-2641

> <Chemical_Name>
2-{[11-acetyl-4-(2-methylphenyl)-3-oxo-8-thia-4,6,11-triazatricyclo[7.4.0.0^{2,7}]trideca-1(9),2(7),5-trien-5-yl]sulfanyl}-N-(4-methylphenyl)acetamide

> <CAS>
1185101-31-8

> <PriceCoeff>
1.00

> <MW>
518.65

> <Description>
solid

> <FSP3>
0.26

> <clogP>
3.60

> <TPSA>
135.62

> <Acceptor>
4

> <Donor>
1

> <RotBonds>
6

> <HAC>
36

> <Collection>
General

> <Reference_compound>
CHEMBL577016

> <Similarity>
0.9130

$$$$
F3222-2455
  -ISIS-  06222321442D

 37 41  0  0  0  0  0  0  0  0999 V2000
    5.8917  -10.3167    0.0000 C   0  0  0  0  0  0  0  0  0  0  0  0
    6.6250   -9.9292    0.0000 C   0  0  0  0  0  0  0  0  0  0  0  0
    5.2292   -9.0417    0.0000 N   0  0  3  0  0  0  0  0  0  0  0  0
    5.9542   -8.6667    0.0000 C   0  0  0  0  0  0  0  0  0  0  0  0
    6.6542   -9.1042    0.0000 N   0  0  0  0  0  0  0  0  0  0  0  0
    5.1917   -9.8667    0.0000 C   0  0  0  0  0  0  0  0  0  0  0  0
    6.0375  -11.1292    0.0000 C   0  0  0  0  0  0  0  0  0  0  0  0
    6.8500  -11.2417    0.0000 C   0  0  0  0  0  0  0  0  0  0  0  0
    7.2167  -10.5167    0.0000 S   0  0  0  0  0  0  0  0  0  0  0  0
    6.6417  -12.6542    0.0000 N   0  0  3  0  0  0  0  0  0  0  0  0
    7.1542  -12.0042    0.0000 C   0  0  0  0  0  0  0  0  0  0  0  0
    5.9917   -7.8417    0.0000 S   0  0  0  0  0  0  0  0  0  0  0  0
    6.9417  -13.4292    0.0000 C   0  0  0  0  0  0  0  0  0  0  0  0
    4.5292   -8.6000    0.0000 C   0  0  0  0  0  0  0  0  0  0  0  0
    7.4792   -6.2417    0.0000 N   0  0  0  0  0  0  0  0  0  0  0  0
    5.5292  -11.7750    0.0000 C   0  0  0  0  0  0  0  0  0  0  0  0
    6.7542   -6.6292    0.0000 C   0  0  0  0  0  0  0  0  0  0  0  0
    4.4500  -10.2500    0.0000 O   0  0  0  0  0  0  0  0  0  0  0  0
    7.5167   -5.4167    0.0000 C   0  0  0  0  0  0  0  0  0  0  0  0
    5.8375  -12.5417    0.0000 C   0  0  0  0  0  0  0  0  0  0  0  0
    7.7625  -13.5542    0.0000 O   0  0  0  0  0  0  0  0  0  0  0  0
    6.0542   -6.1875    0.0000 O   0  0  0  0  0  0  0  0  0  0  0  0
    8.2417   -5.0292    0.0000 C   0  0  0  0  0  0  0  0  0  0  0  0
    6.7167   -7.4542    0.0000 C   0  0  0  0  0  0  0  0  0  0  0  0
    4.5750   -7.7750    0.0000 C   0  0  0  0  0  0  0  0  0  0  0  0
    3.7917   -8.9792    0.0000 C   0  0  0  0  0  0  0  0  0  0  0  0
    3.1042   -8.5292    0.0000 C   0  0  0  0  0  0  0  0  0  0  0  0
    3.8792   -7.3292    0.0000 C   0  0  0  0  0  0  0  0  0  0  0  0
    3.1500   -7.7042    0.0000 C   0  0  0  0  0  0  0  0  0  0  0  0
    6.4292  -14.0667    0.0000 C   0  0  0  0  0  0  0  0  0  0  0  0
    6.8167   -4.9750    0.0000 C   0  0  0  0  0  0  0  0  0  0  0  0
    8.9542   -5.4667    0.0000 C   0  0  0  0  0  0  0  0  0  0  0  0
    8.2792   -4.2042    0.0000 C   0  0  0  0  0  0  0  0  0  0  0  0
    2.4542   -7.2500    0.0000 C   0  0  0  0  0  0  0  0  0  0  0  0
    8.9375   -6.3000    0.0000 C   0  0  0  0  0  0  0  0  0  0  0  0
    6.8500   -4.1417    0.0000 C   0  0  0  0  0  0  0  0  0  0  0  0
    7.5792   -3.7667    0.0000 C   0  0  0  0  0  0  0  0  0  0  0  0
  2  1  2  0  0  0  0
  3  6  1  0  0  0  0
  4  3  1  0  0  0  0
  5  2  1  0  0  0  0
  6  1  1  0  0  0  0
  7  1  1  0  0  0  0
  8  7  2  0  0  0  0
  9  2  1  0  0  0  0
 10 20  1  0  0  0  0
 11  8  1  0  0  0  0
 12  4  1  0  0  0  0
 13 10  1  0  0  0  0
 14  3  1  0  0  0  0
 15 17  1  0  0  0  0
 16  7  1  0  0  0  0
 17 24  1  0  0  0  0
 18  6  2  0  0  0  0
 19 15  1  0  0  0  0
 20 16  1  0  0  0  0
 21 13  2  0  0  0  0
 22 17  2  0  0  0  0
 23 19  1  0  0  0  0
 24 12  1  0  0  0  0
 25 14  2  0  0  0  0
 26 14  1  0  0  0  0
 27 26  2  0  0  0  0
 28 25  1  0  0  0  0
 29 27  1  0  0  0  0
 30 13  1  0  0  0  0
 31 19  2  0  0  0  0
 32 23  1  0  0  0  0
 33 23  2  0  0  0  0
 34 29  1  0  0  0  0
 35 32  1  0  0  0  0
 36 31  1  0  0  0  0
 37 36  2  0  0  0  0
  8  9  1  0  0  0  0
  5  4  2  0  0  0  0
 11 10  1  0  0  0  0
 28 29  2  0  0  0  0
 33 37  1  0  0  0  0
M  END
> <IDNUMBER>
F3222-2455

> <Chemical_Name>
2-{[11-acetyl-4-(4-methylphenyl)-3-oxo-8-thia-4,6,11-triazatricyclo[7.4.0.0^{2,7}]trideca-1(9),2(7),5-trien-5-yl]sulfanyl}-N-(2-ethylphenyl)acetamide

> <CAS>
1189427-12-0

> <PriceCoeff>
1.00

> <MW>
532.68

> <Description>
solid

> <FSP3>
0.29

> <clogP>
3.26

> <TPSA>
135.62

> <Acceptor>
4

> <Donor>
1

> <RotBonds>
7

> <HAC>
37

> <Collection>
General

> <Reference_compound>
CHEMBL577016

> <Similarity>
0.9130

$$$$
F3222-1435
  -ISIS-  06222321152D

 37 41  0  0  0  0  0  0  0  0999 V2000
    6.4000  -10.0875    0.0000 N   0  0  3  0  0  0  0  0  0  0  0  0
    4.9667  -10.1250    0.0000 C   0  0  0  0  0  0  0  0  0  0  0  0
    4.9917  -10.9542    0.0000 C   0  0  0  0  0  0  0  0  0  0  0  0
    6.4250  -10.9167    0.0000 C   0  0  0  0  0  0  0  0  0  0  0  0
    5.7250  -11.3417    0.0000 N   0  0  0  0  0  0  0  0  0  0  0  0
    5.6750   -9.6917    0.0000 C   0  0  0  0  0  0  0  0  0  0  0  0
    4.1667   -9.8917    0.0000 C   0  0  0  0  0  0  0  0  0  0  0  0
    3.7042  -10.5750    0.0000 C   0  0  0  0  0  0  0  0  0  0  0  0
    4.2042  -11.2292    0.0000 S   0  0  0  0  0  0  0  0  0  0  0  0
    2.5167   -9.7667    0.0000 N   0  0  3  0  0  0  0  0  0  0  0  0
    7.1125   -9.6500    0.0000 C   0  0  0  0  0  0  0  0  0  0  0  0
    2.8750  -10.5167    0.0000 C   0  0  0  0  0  0  0  0  0  0  0  0
    7.1542  -11.3042    0.0000 S   0  0  0  0  0  0  0  0  0  0  0  0
    1.6875   -9.7000    0.0000 C   0  0  0  0  0  0  0  0  0  0  0  0
    9.2792  -10.8292    0.0000 N   0  0  0  0  0  0  0  0  0  0  0  0
    3.8042   -9.1417    0.0000 C   0  0  0  0  0  0  0  0  0  0  0  0
    8.5792  -11.2667    0.0000 C   0  0  0  0  0  0  0  0  0  0  0  0
    5.6417   -8.8542    0.0000 O   0  0  0  0  0  0  0  0  0  0  0  0
   10.0125  -11.2250    0.0000 C   0  0  0  0  0  0  0  0  0  0  0  0
    2.9792   -9.0917    0.0000 C   0  0  0  0  0  0  0  0  0  0  0  0
    7.0792   -8.8250    0.0000 C   0  0  0  0  0  0  0  0  0  0  0  0
    1.2042  -10.3792    0.0000 O   0  0  0  0  0  0  0  0  0  0  0  0
   10.7042  -10.7917    0.0000 C   0  0  0  0  0  0  0  0  0  0  0  0
    8.6042  -12.0792    0.0000 O   0  0  0  0  0  0  0  0  0  0  0  0
    7.8625  -10.8750    0.0000 C   0  0  0  0  0  0  0  0  0  0  0  0
   10.6917   -9.9542    0.0000 O   0  0  0  0  0  0  0  0  0  0  0  0
    7.8375  -10.0417    0.0000 C   0  0  0  0  0  0  0  0  0  0  0  0
    1.3250   -8.9417    0.0000 C   0  0  0  0  0  0  0  0  0  0  0  0
   10.0375  -12.0500    0.0000 C   0  0  0  0  0  0  0  0  0  0  0  0
    6.3542   -8.4292    0.0000 C   0  0  0  0  0  0  0  0  0  0  0  0
    7.7917   -8.3875    0.0000 C   0  0  0  0  0  0  0  0  0  0  0  0
   11.4417  -11.1792    0.0000 C   0  0  0  0  0  0  0  0  0  0  0  0
    9.9667   -9.5667    0.0000 C   0  0  0  0  0  0  0  0  0  0  0  0
    8.5417   -9.6125    0.0000 C   0  0  0  0  0  0  0  0  0  0  0  0
   10.7667  -12.4417    0.0000 C   0  0  0  0  0  0  0  0  0  0  0  0
    8.5167   -8.7792    0.0000 C   0  0  0  0  0  0  0  0  0  0  0  0
   11.4667  -12.0042    0.0000 C   0  0  0  0  0  0  0  0  0  0  0  0
  2  6  1  0  0  0  0
  3  2  2  0  0  0  0
  4  1  1  0  0  0  0
  5  4  2  0  0  0  0
  6  1  1  0  0  0  0
  7  2  1  0  0  0  0
  8  7  2  0  0  0  0
  9  3  1  0  0  0  0
 10 20  1  0  0  0  0
 11  1  1  0  0  0  0
 12  8  1  0  0  0  0
 13  4  1  0  0  0  0
 14 10  1  0  0  0  0
 15 17  1  0  0  0  0
 16  7  1  0  0  0  0
 17 25  1  0  0  0  0
 18  6  2  0  0  0  0
 19 15  1  0  0  0  0
 20 16  1  0  0  0  0
 21 11  1  0  0  0  0
 22 14  2  0  0  0  0
 23 19  1  0  0  0  0
 24 17  2  0  0  0  0
 25 13  1  0  0  0  0
 26 23  1  0  0  0  0
 27 11  2  0  0  0  0
 28 14  1  0  0  0  0
 29 19  2  0  0  0  0
 30 21  1  0  0  0  0
 31 21  2  0  0  0  0
 32 23  2  0  0  0  0
 33 26  1  0  0  0  0
 34 27  1  0  0  0  0
 35 29  1  0  0  0  0
 36 34  2  0  0  0  0
 37 35  2  0  0  0  0
  5  3  1  0  0  0  0
 31 36  1  0  0  0  0
  8  9  1  0  0  0  0
 12 10  1  0  0  0  0
 32 37  1  0  0  0  0
M  END
> <IDNUMBER>
F3222-1435

> <Chemical_Name>
2-{[11-acetyl-4-(2-methylphenyl)-3-oxo-8-thia-4,6,11-triazatricyclo[7.4.0.0^{2,7}]trideca-1(9),2(7),5-trien-5-yl]sulfanyl}-N-(2-methoxyphenyl)acetamide

> <CAS>
1216861-77-6

> <PriceCoeff>
1.00

> <MW>
534.65

> <Description>
solid

> <FSP3>
0.26

> <clogP>
2.59

> <TPSA>
144.85

> <Acceptor>
5

> <Donor>
1

> <RotBonds>
7

> <HAC>
37

> <Collection>
General

> <Reference_compound>
CHEMBL577016

> <Similarity>
0.8620

$$$$
F1740-0135
  -ISIS-  06222321442D

 29 31  0  0  0  0  0  0  0  0999 V2000
    6.7917    0.1375    0.0000 N   0  0  3  0  0  0  0  0  0  0  0  0
    7.0500   -0.6500    0.0000 C   0  0  0  0  0  0  0  0  0  0  0  0
   11.0292   -3.4667    0.0000 S   0  0  3  0  0  0  0  0  0  0  0  0
    7.4625    0.6208    0.0000 C   0  0  0  0  0  0  0  0  0  0  0  0
    7.8750   -0.6500    0.0000 C   0  0  0  0  0  0  0  0  0  0  0  0
    8.1292    0.1375    0.0000 C   0  0  3  0  0  0  0  0  0  0  0  0
    6.2042    0.1333    0.0000 C   0  0  0  0  0  0  0  0  0  0  0  0
   10.9875   -2.6417    0.0000 C   0  0  0  0  0  0  0  0  0  0  0  0
    8.9167    0.3958    0.0000 S   0  0  0  0  0  0  0  0  0  0  0  0
   11.0667   -4.2917    0.0000 O   0  0  0  0  0  0  0  0  0  0  0  0
   11.8542   -3.4292    0.0000 O   0  0  0  0  0  0  0  0  0  0  0  0
   10.3125    0.0958    0.0000 C   0  0  0  0  0  0  0  0  0  0  0  0
    6.5625   -1.3167    0.0000 O   0  0  0  0  0  0  0  0  0  0  0  0
    7.4542    1.4458    0.0000 O   0  0  0  0  0  0  0  0  0  0  0  0
   10.9250   -0.4625    0.0000 N   0  0  0  0  0  0  0  0  0  0  0  0
   10.2042   -3.5000    0.0000 N   0  0  0  0  0  0  0  0  0  0  0  0
   10.4792    0.8958    0.0000 O   0  0  0  0  0  0  0  0  0  0  0  0
   10.2542   -2.2625    0.0000 C   0  0  0  0  0  0  0  0  0  0  0  0
   11.6875   -2.1917    0.0000 C   0  0  0  0  0  0  0  0  0  0  0  0
    5.8042   -0.5917    0.0000 C   0  0  0  0  0  0  0  0  0  0  0  0
    5.7750    0.8375    0.0000 C   0  0  0  0  0  0  0  0  0  0  0  0
    9.5250   -0.1542    0.0000 C   0  0  0  0  0  0  0  0  0  0  0  0
   10.9167   -0.9917    0.0000 C   0  0  0  0  0  0  0  0  0  0  0  0
    4.5542    0.0958    0.0000 C   0  0  0  0  0  0  0  0  0  0  0  0
   10.2167   -1.4375    0.0000 C   0  0  0  0  0  0  0  0  0  0  0  0
   11.6417   -1.3667    0.0000 C   0  0  0  0  0  0  0  0  0  0  0  0
    4.9875   -0.6167    0.0000 C   0  0  0  0  0  0  0  0  0  0  0  0
    4.9500    0.8208    0.0000 C   0  0  0  0  0  0  0  0  0  0  0  0
    3.7292    0.0708    0.0000 Br  0  0  0  0  0  0  0  0  0  0  0  0
  2  1  1  0  0  0  0
  3  8  1  0  0  0  0
  4  1  1  0  0  0  0
  5  2  1  0  0  0  0
  6  4  1  0  0  0  0
  7  1  1  0  0  0  0
  8 19  1  0  0  0  0
  9  6  1  0  0  0  0
 10  3  2  0  0  0  0
 11  3  2  0  0  0  0
 12 22  1  0  0  0  0
 13  2  2  0  0  0  0
 14  4  2  0  0  0  0
 15 12  1  0  0  0  0
 16  3  1  0  0  0  0
 17 12  2  0  0  0  0
 18 25  1  0  0  0  0
 19 26  2  0  0  0  0
 20  7  1  0  0  0  0
 21  7  2  0  0  0  0
 22  9  1  0  0  0  0
 23 15  1  0  0  0  0
 24 28  2  0  0  0  0
 25 23  2  0  0  0  0
 26 23  1  0  0  0  0
 27 20  2  0  0  0  0
 28 21  1  0  0  0  0
 29 24  1  0  0  0  0
  5  6  1  0  0  0  0
 24 27  1  0  0  0  0
 18  8  2  0  0  0  0
M  END
> <IDNUMBER>
F1740-0135

> <Chemical_Name>
2-{[1-(4-bromophenyl)-2,5-dioxopyrrolidin-3-yl]sulfanyl}-N-(4-sulfamoylphenyl)acetamide

> <CAS>
831208-69-6

> <PriceCoeff>
1.00

> <MW>
498.37

> <Description>
solid

> <FSP3>
0.17

> <clogP>
1.86

> <TPSA>
160.32

> <Acceptor>
5

> <Donor>
2

> <RotBonds>
6

> <HAC>
29

> <Collection>
General

$$$$
F2510-0140
  -ISIS-  06222321462D

 29 31  0  0  0  0  0  0  0  0999 V2000
   -6.0042    5.5792    0.0000 N   0  3  0  0  0  0  0  0  0  0  0  0
   -5.8083    4.7917    0.0000 C   0  0  0  0  0  0  0  0  0  0  0  0
   -2.9833    2.5583    0.0000 C   0  0  0  0  0  0  0  0  0  0  0  0
   -2.2708    2.9833    0.0000 C   0  0  0  0  0  0  0  0  0  0  0  0
   -3.9958    3.5708    0.0000 C   0  0  0  0  0  0  0  0  0  0  0  0
   -1.5583    2.5583    0.0000 C   0  0  0  0  0  0  0  0  0  0  0  0
   -5.0083    4.5667    0.0000 C   0  0  0  0  0  0  0  0  0  0  0  0
   -3.7833    2.7750    0.0000 O   0  0  0  0  0  0  0  0  0  0  0  0
    0.5292    1.7000    0.0000 C   0  0  0  0  0  0  0  0  0  0  0  0
   -2.9833    1.7333    0.0000 C   0  0  0  0  0  0  0  0  0  0  0  0
   -4.7875    3.7833    0.0000 C   0  0  0  0  0  0  0  0  0  0  0  0
    0.7417    0.9125    0.0000 N   0  0  0  0  0  0  0  0  0  0  0  0
   -2.2708    1.3250    0.0000 O   0  0  0  0  0  0  0  0  0  0  0  0
   -1.5583    1.7333    0.0000 C   0  0  0  0  0  0  0  0  0  0  0  0
   -6.3792    4.1917    0.0000 C   0  0  0  0  0  0  0  0  0  0  0  0
   -5.4375    6.1667    0.0000 O   0  5  0  0  0  0  0  0  0  0  0  0
    1.1125    2.2875    0.0000 N   0  0  0  0  0  0  0  0  0  0  0  0
   -6.8042    5.7917    0.0000 O   0  0  0  0  0  0  0  0  0  0  0  0
   -0.2625    1.9083    0.0000 S   0  0  0  0  0  0  0  0  0  0  0  0
   -3.4083    4.1417    0.0000 O   0  0  0  0  0  0  0  0  0  0  0  0
   -2.2708    3.8000    0.0000 O   0  0  0  0  0  0  0  0  0  0  0  0
   -5.3708    3.2083    0.0000 C   0  0  0  0  0  0  0  0  0  0  0  0
   -6.1542    3.4083    0.0000 C   0  0  0  0  0  0  0  0  0  0  0  0
    1.5375    0.7000    0.0000 C   0  0  0  0  0  0  0  0  0  0  0  0
   -0.8458    1.3208    0.0000 C   0  0  0  0  0  0  0  0  0  0  0  0
    1.9000    2.0833    0.0000 C   0  0  0  0  0  0  0  0  0  0  0  0
   -7.1667    4.4042    0.0000 Cl  0  0  0  0  0  0  0  0  0  0  0  0
    2.1167    1.2833    0.0000 C   0  0  0  0  0  0  0  0  0  0  0  0
    1.7542   -0.0917    0.0000 C   0  0  0  0  0  0  0  0  0  0  0  0
  2  1  1  0  0  0  0
  3  8  1  0  0  0  0
  4  3  1  0  0  0  0
  5 11  1  0  0  0  0
  6  4  1  0  0  0  0
  7  2  2  0  0  0  0
  8  5  1  0  0  0  0
  9 19  1  0  0  0  0
 10  3  2  0  0  0  0
 11  7  1  0  0  0  0
 12  9  1  0  0  0  0
 13 10  1  0  0  0  0
 14 13  1  0  0  0  0
 15  2  1  0  0  0  0
 16  1  1  0  0  0  0
 17  9  2  0  0  0  0
 18  1  2  0  0  0  0
 19 25  1  0  0  0  0
 20  5  2  0  0  0  0
 21  4  2  0  0  0  0
 22 23  1  0  0  0  0
 23 15  2  0  0  0  0
 24 12  2  0  0  0  0
 25 14  1  0  0  0  0
 26 17  1  0  0  0  0
 27 15  1  0  0  0  0
 28 26  2  0  0  0  0
 29 24  1  0  0  0  0
 11 22  2  0  0  0  0
  6 14  2  0  0  0  0
 24 28  1  0  0  0  0
M  CHG  2   1   1  16  -1
M  END
> <IDNUMBER>
F2510-0140

> <Chemical_Name>
6-{[(4-methylpyrimidin-2-yl)sulfanyl]methyl}-4-oxo-4H-pyran-3-yl 4-chloro-3-nitrobenzoate

> <CAS>
877636-58-3

> <PriceCoeff>
1.00

> <MW>
433.82

> <Description>
solid

> <FSP3>
0.11

> <clogP>
2.64

> <TPSA>
146.82

> <Acceptor>
8

> <Donor>
0

> <RotBonds>
7

> <HAC>
29

> <Collection>
General

$$$$
F2047-0088
  -ISIS-  06222321142D

 31 33  0  0  0  0  0  0  0  0999 V2000
   -4.5208    4.9667    0.0000 S   0  0  3  0  0  0  0  0  0  0  0  0
   -3.8708    5.3542    0.0000 C   0  0  3  0  0  0  0  0  0  0  0  0
    0.6875    6.5000    0.0000 N   0  3  0  0  0  0  0  0  0  0  0  0
   -1.2625    5.3667    0.0000 C   0  0  0  0  0  0  0  0  0  0  0  0
   -1.9083    4.9917    0.0000 C   0  0  0  0  0  0  0  0  0  0  0  0
   -3.8750    6.1042    0.0000 C   0  0  0  0  0  0  0  0  0  0  0  0
   -1.2625    6.1167    0.0000 C   0  0  0  0  0  0  0  0  0  0  0  0
    0.0292    6.1167    0.0000 C   0  0  0  0  0  0  0  0  0  0  0  0
   -0.6208    6.4917    0.0000 C   0  0  0  0  0  0  0  0  0  0  0  0
   -3.2125    4.9792    0.0000 C   0  0  0  0  0  0  0  0  0  0  0  0
   -5.1750    4.5917    0.0000 C   0  0  0  0  0  0  0  0  0  0  0  0
   -2.5625    5.3667    0.0000 N   0  0  0  0  0  0  0  0  0  0  0  0
   -0.6208    4.9917    0.0000 C   0  0  0  0  0  0  0  0  0  0  0  0
   -4.4333    6.6167    0.0000 S   0  0  0  0  0  0  0  0  0  0  0  0
   -4.1458    4.3167    0.0000 O   0  0  0  0  0  0  0  0  0  0  0  0
   -4.9083    5.6292    0.0000 O   0  0  0  0  0  0  0  0  0  0  0  0
    1.3375    6.1250    0.0000 O   0  5  0  0  0  0  0  0  0  0  0  0
    0.6875    7.2500    0.0000 O   0  0  0  0  0  0  0  0  0  0  0  0
   -3.2333    6.4875    0.0000 C   0  0  0  0  0  0  0  0  0  0  0  0
    0.0292    5.3667    0.0000 C   0  0  0  0  0  0  0  0  0  0  0  0
   -4.1250    7.3000    0.0000 C   0  0  0  0  0  0  0  0  0  0  0  0
   -1.9083    4.2417    0.0000 O   0  0  0  0  0  0  0  0  0  0  0  0
   -3.3875    7.2167    0.0000 C   0  0  0  0  0  0  0  0  0  0  0  0
   -5.1750    3.8458    0.0000 C   0  0  0  0  0  0  0  0  0  0  0  0
   -5.8208    4.9667    0.0000 C   0  0  0  0  0  0  0  0  0  0  0  0
   -1.9208    6.5042    0.0000 Cl  0  0  0  0  0  0  0  0  0  0  0  0
   -6.4667    3.8458    0.0000 C   0  0  0  0  0  0  0  0  0  0  0  0
   -6.4667    4.5917    0.0000 C   0  0  0  0  0  0  0  0  0  0  0  0
   -5.8208    3.4708    0.0000 C   0  0  0  0  0  0  0  0  0  0  0  0
   -7.1250    3.4625    0.0000 O   0  0  0  0  0  0  0  0  0  0  0  0
   -7.7750    3.8375    0.0000 C   0  0  0  0  0  0  0  0  0  0  0  0
  2  1  1  0  0  0  0
  3  8  1  0  0  0  0
  4  5  1  0  0  0  0
  5 12  1  0  0  0  0
  6  2  1  0  0  0  0
  7  4  1  0  0  0  0
  8 20  2  0  0  0  0
  9  7  2  0  0  0  0
 10  2  1  0  0  0  0
 11  1  1  0  0  0  0
 12 10  1  0  0  0  0
 13  4  2  0  0  0  0
 14  6  1  0  0  0  0
 15  1  2  0  0  0  0
 16  1  2  0  0  0  0
 17  3  1  0  0  0  0
 18  3  2  0  0  0  0
 19  6  2  0  0  0  0
 20 13  1  0  0  0  0
 21 14  1  0  0  0  0
 22  5  2  0  0  0  0
 23 19  1  0  0  0  0
 24 11  1  0  0  0  0
 25 11  2  0  0  0  0
 26  7  1  0  0  0  0
 27 28  2  0  0  0  0
 28 25  1  0  0  0  0
 29 24  2  0  0  0  0
 30 27  1  0  0  0  0
 31 30  1  0  0  0  0
 29 27  1  0  0  0  0
 21 23  2  0  0  0  0
  9  8  1  0  0  0  0
M  CHG  2   3   1  17  -1
M  END
> <IDNUMBER>
F2047-0088

> <Chemical_Name>
2-chloro-N-[2-(4-methoxybenzenesulfonyl)-2-(thiophen-2-yl)ethyl]-4-nitrobenzamide

> <CAS>
941944-90-7

> <PriceCoeff>
1.00

> <MW>
480.94

> <Description>
solid

> <FSP3>
0.15

> <clogP>
3.17

> <TPSA>
152.23

> <Acceptor>
6

> <Donor>
1

> <RotBonds>
8

> <HAC>
31

> <Collection>
General

$$$$
F3222-2364
  -ISIS-  06222321442D

 37 41  0  0  0  0  0  0  0  0999 V2000
    4.8667   -9.4667    0.0000 N   0  0  3  0  0  0  0  0  0  0  0  0
    5.5375  -10.7375    0.0000 C   0  0  0  0  0  0  0  0  0  0  0  0
    6.2667  -10.3542    0.0000 C   0  0  0  0  0  0  0  0  0  0  0  0
    5.6000   -9.0875    0.0000 C   0  0  0  0  0  0  0  0  0  0  0  0
    6.3000   -9.5250    0.0000 N   0  0  0  0  0  0  0  0  0  0  0  0
    4.8375  -10.2917    0.0000 C   0  0  0  0  0  0  0  0  0  0  0  0
    5.6792  -11.5500    0.0000 C   0  0  0  0  0  0  0  0  0  0  0  0
    6.4917  -11.6667    0.0000 C   0  0  0  0  0  0  0  0  0  0  0  0
    6.8542  -10.9375    0.0000 S   0  0  0  0  0  0  0  0  0  0  0  0
    6.2875  -13.0792    0.0000 N   0  0  3  0  0  0  0  0  0  0  0  0
    4.1750   -9.0292    0.0000 C   0  0  0  0  0  0  0  0  0  0  0  0
    6.8000  -12.4292    0.0000 C   0  0  0  0  0  0  0  0  0  0  0  0
    5.6292   -8.2625    0.0000 S   0  0  0  0  0  0  0  0  0  0  0  0
    6.5875  -13.8500    0.0000 C   0  0  0  0  0  0  0  0  0  0  0  0
    5.1667  -12.1917    0.0000 C   0  0  0  0  0  0  0  0  0  0  0  0
    7.9167   -4.6250    0.0000 C   0  0  0  0  0  0  0  0  0  0  0  0
    4.0917  -10.6667    0.0000 O   0  0  0  0  0  0  0  0  0  0  0  0
    7.8875   -5.4500    0.0000 C   0  0  0  0  0  0  0  0  0  0  0  0
    6.3917   -7.0500    0.0000 C   0  0  0  0  0  0  0  0  0  0  0  0
    5.4792  -12.9542    0.0000 C   0  0  0  0  0  0  0  0  0  0  0  0
    7.1250   -6.6625    0.0000 N   0  0  0  0  0  0  0  0  0  0  0  0
    7.1542   -5.8375    0.0000 C   0  0  0  0  0  0  0  0  0  0  0  0
    7.2167   -4.1792    0.0000 C   0  0  0  0  0  0  0  0  0  0  0  0
    3.4417   -9.4167    0.0000 C   0  0  0  0  0  0  0  0  0  0  0  0
    7.4042  -13.9792    0.0000 O   0  0  0  0  0  0  0  0  0  0  0  0
    5.6917   -6.6042    0.0000 O   0  0  0  0  0  0  0  0  0  0  0  0
    6.3625   -7.8750    0.0000 C   0  0  0  0  0  0  0  0  0  0  0  0
    6.4917   -4.5667    0.0000 C   0  0  0  0  0  0  0  0  0  0  0  0
    8.6625   -4.2417    0.0000 F   0  0  0  0  0  0  0  0  0  0  0  0
    6.4625   -5.4000    0.0000 C   0  0  0  0  0  0  0  0  0  0  0  0
    4.2042   -8.2042    0.0000 C   0  0  0  0  0  0  0  0  0  0  0  0
    6.0667  -14.4917    0.0000 C   0  0  0  0  0  0  0  0  0  0  0  0
    7.2375   -3.3542    0.0000 C   0  0  0  0  0  0  0  0  0  0  0  0
    3.4125  -10.2417    0.0000 C   0  0  0  0  0  0  0  0  0  0  0  0
    2.7417   -8.9750    0.0000 C   0  0  0  0  0  0  0  0  0  0  0  0
    3.5125   -7.7667    0.0000 C   0  0  0  0  0  0  0  0  0  0  0  0
    2.7792   -8.1417    0.0000 C   0  0  0  0  0  0  0  0  0  0  0  0
  2  6  1  0  0  0  0
  3  2  2  0  0  0  0
  4  1  1  0  0  0  0
  5  4  2  0  0  0  0
  6  1  1  0  0  0  0
  7  2  1  0  0  0  0
  8  7  2  0  0  0  0
  9  3  1  0  0  0  0
 10 20  1  0  0  0  0
 11  1  1  0  0  0  0
 12  8  1  0  0  0  0
 13  4  1  0  0  0  0
 14 10  1  0  0  0  0
 15  7  1  0  0  0  0
 16 18  1  0  0  0  0
 17  6  2  0  0  0  0
 18 22  2  0  0  0  0
 19 27  1  0  0  0  0
 20 15  1  0  0  0  0
 21 19  1  0  0  0  0
 22 21  1  0  0  0  0
 23 28  1  0  0  0  0
 24 11  1  0  0  0  0
 25 14  2  0  0  0  0
 26 19  2  0  0  0  0
 27 13  1  0  0  0  0
 28 30  2  0  0  0  0
 29 16  1  0  0  0  0
 30 22  1  0  0  0  0
 31 11  2  0  0  0  0
 32 14  1  0  0  0  0
 33 23  1  0  0  0  0
 34 24  1  0  0  0  0
 35 24  2  0  0  0  0
 36 31  1  0  0  0  0
 37 36  2  0  0  0  0
  5  3  1  0  0  0  0
 35 37  1  0  0  0  0
  8  9  1  0  0  0  0
 12 10  1  0  0  0  0
 23 16  2  0  0  0  0
M  END
> <IDNUMBER>
F3222-2364

> <Chemical_Name>
2-{[11-acetyl-4-(2-methylphenyl)-3-oxo-8-thia-4,6,11-triazatricyclo[7.4.0.0^{2,7}]trideca-1(9),2(7),5-trien-5-yl]sulfanyl}-N-(3-fluoro-4-methylphenyl)acetamide

> <CAS>
1189866-67-8

> <PriceCoeff>
1.00

> <MW>
536.64

> <Description>
solid

> <FSP3>
0.26

> <clogP>
4.00

> <TPSA>
135.62

> <Acceptor>
4

> <Donor>
1

> <RotBonds>
6

> <HAC>
37

> <Collection>
General

> <Reference_compound>
CHEMBL577016

> <Similarity>
0.8720

$$$$
F3222-1456
  -ISIS-  06222321152D

 37 41  0  0  0  0  0  0  0  0999 V2000
    5.6417   -9.0500    0.0000 C   0  0  0  0  0  0  0  0  0  0  0  0
    7.0167   -8.7042    0.0000 N   0  0  3  0  0  0  0  0  0  0  0  0
    5.8292   -9.8542    0.0000 C   0  0  0  0  0  0  0  0  0  0  0  0
    6.2292   -8.4792    0.0000 C   0  0  0  0  0  0  0  0  0  0  0  0
    6.6167  -10.0792    0.0000 N   0  0  0  0  0  0  0  0  0  0  0  0
    7.2167   -9.5167    0.0000 C   0  0  0  0  0  0  0  0  0  0  0  0
    4.8000   -8.9875    0.0000 C   0  0  0  0  0  0  0  0  0  0  0  0
    4.4875   -9.7542    0.0000 C   0  0  0  0  0  0  0  0  0  0  0  0
    5.1167  -10.2875    0.0000 S   0  0  0  0  0  0  0  0  0  0  0  0
    3.1500   -9.2042    0.0000 N   0  0  3  0  0  0  0  0  0  0  0  0
    3.6625   -9.8667    0.0000 C   0  0  0  0  0  0  0  0  0  0  0  0
    2.3167   -9.3167    0.0000 C   0  0  0  0  0  0  0  0  0  0  0  0
    8.0042   -9.7417    0.0000 S   0  0  0  0  0  0  0  0  0  0  0  0
    7.6167   -8.1417    0.0000 C   0  0  0  0  0  0  0  0  0  0  0  0
    4.2917   -8.3292    0.0000 C   0  0  0  0  0  0  0  0  0  0  0  0
    6.0292   -7.6667    0.0000 O   0  0  0  0  0  0  0  0  0  0  0  0
    7.1917  -12.5000    0.0000 C   0  0  0  0  0  0  0  0  0  0  0  0
    7.6042  -11.1125    0.0000 C   0  0  0  0  0  0  0  0  0  0  0  0
    7.8042  -11.9250    0.0000 N   0  0  0  0  0  0  0  0  0  0  0  0
    3.4625   -8.4417    0.0000 C   0  0  0  0  0  0  0  0  0  0  0  0
    2.0250  -10.0792    0.0000 O   0  0  0  0  0  0  0  0  0  0  0  0
    6.8167  -10.8875    0.0000 O   0  0  0  0  0  0  0  0  0  0  0  0
    8.2042  -10.5542    0.0000 C   0  0  0  0  0  0  0  0  0  0  0  0
    5.8000  -12.8292    0.0000 C   0  0  0  0  0  0  0  0  0  0  0  0
    6.7917  -13.8667    0.0000 C   0  0  0  0  0  0  0  0  0  0  0  0
    6.4000  -12.2667    0.0000 C   0  0  0  0  0  0  0  0  0  0  0  0
    7.3917  -13.2917    0.0000 C   0  0  0  0  0  0  0  0  0  0  0  0
    6.0000  -13.6292    0.0000 C   0  0  0  0  0  0  0  0  0  0  0  0
    8.4167   -8.3750    0.0000 C   0  0  0  0  0  0  0  0  0  0  0  0
    1.8167   -8.6667    0.0000 C   0  0  0  0  0  0  0  0  0  0  0  0
    6.9792  -14.6667    0.0000 C   0  0  0  0  0  0  0  0  0  0  0  0
    5.0000  -12.6000    0.0000 C   0  0  0  0  0  0  0  0  0  0  0  0
    9.0125   -7.8042    0.0000 C   0  0  0  0  0  0  0  0  0  0  0  0
    8.6125   -9.1792    0.0000 C   0  0  0  0  0  0  0  0  0  0  0  0
    9.7917   -8.0292    0.0000 C   0  0  0  0  0  0  0  0  0  0  0  0
    9.3917   -9.4125    0.0000 C   0  0  0  0  0  0  0  0  0  0  0  0
    9.9917   -8.8417    0.0000 C   0  0  0  0  0  0  0  0  0  0  0  0
  2  4  1  0  0  0  0
  3  1  2  0  0  0  0
  4  1  1  0  0  0  0
  5  3  1  0  0  0  0
  6  2  1  0  0  0  0
  7  1  1  0  0  0  0
  8  7  2  0  0  0  0
  9  3  1  0  0  0  0
 10 20  1  0  0  0  0
 11  8  1  0  0  0  0
 12 10  1  0  0  0  0
 13  6  1  0  0  0  0
 14  2  1  0  0  0  0
 15  7  1  0  0  0  0
 16  4  2  0  0  0  0
 17 19  1  0  0  0  0
 18 23  1  0  0  0  0
 19 18  1  0  0  0  0
 20 15  1  0  0  0  0
 21 12  2  0  0  0  0
 22 18  2  0  0  0  0
 23 13  1  0  0  0  0
 24 26  2  0  0  0  0
 25 27  1  0  0  0  0
 26 17  1  0  0  0  0
 27 17  2  0  0  0  0
 28 25  2  0  0  0  0
 29 14  1  0  0  0  0
 30 12  1  0  0  0  0
 31 25  1  0  0  0  0
 32 24  1  0  0  0  0
 33 29  2  0  0  0  0
 34 29  1  0  0  0  0
 35 33  1  0  0  0  0
 36 34  2  0  0  0  0
 37 36  1  0  0  0  0
  9  8  1  0  0  0  0
 10 11  1  0  0  0  0
  6  5  2  0  0  0  0
 37 35  2  0  0  0  0
 24 28  1  0  0  0  0
M  END
> <IDNUMBER>
F3222-1456

> <Chemical_Name>
2-({11-acetyl-4-benzyl-3-oxo-8-thia-4,6,11-triazatricyclo[7.4.0.0^{2,7}]trideca-1(9),2(7),5-trien-5-yl}sulfanyl)-N-(3,5-dimethylphenyl)acetamide

> <CAS>
1185112-30-4

> <PriceCoeff>
1.00

> <MW>
532.68

> <Description>
solid

> <FSP3>
0.29

> <clogP>
3.38

> <TPSA>
135.62

> <Acceptor>
4

> <Donor>
1

> <RotBonds>
7

> <HAC>
37

> <Collection>
General

> <Reference_compound>
CHEMBL577016

> <Similarity>
0.8960

$$$$
F3139-0457
  -ISIS-  06222321462D

 27 30  0  0  0  0  0  0  0  0999 V2000
    4.4417   -2.1417    0.0000 C   0  0  0  0  0  0  0  0  0  0  0  0
    3.7292   -2.5542    0.0000 C   0  0  0  0  0  0  0  0  0  0  0  0
    3.0167   -2.1417    0.0000 C   0  0  0  0  0  0  0  0  0  0  0  0
    4.4417   -1.3167    0.0000 C   0  0  0  0  0  0  0  0  0  0  0  0
    3.0167   -1.3167    0.0000 C   0  0  0  0  0  0  0  0  0  0  0  0
    3.7292   -0.9042    0.0000 O   0  0  0  0  0  0  0  0  0  0  0  0
    5.1542   -2.5542    0.0000 C   0  0  0  0  0  0  0  0  0  0  0  0
    2.3042   -2.5542    0.0000 C   0  0  0  0  0  0  0  0  0  0  0  0
    2.3042   -0.9042    0.0000 C   0  0  0  0  0  0  0  0  0  0  0  0
    3.7292   -3.3792    0.0000 O   0  0  0  0  0  0  0  0  0  0  0  0
    5.1542   -3.3792    0.0000 C   0  0  0  0  0  0  0  0  0  0  0  0
    1.5875   -1.3167    0.0000 C   0  0  0  0  0  0  0  0  0  0  0  0
    0.8667   -0.9042    0.0000 O   0  0  0  0  0  0  0  0  0  0  0  0
    1.5875   -2.1417    0.0000 C   0  0  0  0  0  0  0  0  0  0  0  0
    0.1542   -1.3167    0.0000 C   0  0  0  0  0  0  0  0  0  0  0  0
    4.4500   -3.7917    0.0000 O   0  0  0  0  0  0  0  0  0  0  0  0
   -0.5708   -0.9125    0.0000 C   0  0  0  0  0  0  0  0  0  0  0  0
    5.8792   -2.1417    0.0000 C   0  0  0  0  0  0  0  0  0  0  0  0
    5.8667   -3.7917    0.0000 C   0  0  0  0  0  0  0  0  0  0  0  0
    4.4417   -4.6167    0.0000 C   0  0  0  0  0  0  0  0  0  0  0  0
   -0.5708   -0.0792    0.0000 C   0  0  0  0  0  0  0  0  0  0  0  0
   -1.2750   -1.3292    0.0000 C   0  0  0  0  0  0  0  0  0  0  0  0
    6.5917   -2.5542    0.0000 C   0  0  0  0  0  0  0  0  0  0  0  0
    6.5917   -3.3792    0.0000 C   0  0  0  0  0  0  0  0  0  0  0  0
   -1.9958   -0.9292    0.0000 C   0  0  0  0  0  0  0  0  0  0  0  0
   -1.2958    0.3250    0.0000 C   0  0  0  0  0  0  0  0  0  0  0  0
   -2.0083   -0.0917    0.0000 C   0  0  0  0  0  0  0  0  0  0  0  0
  2  1  1  0  0  0  0
  3  2  1  0  0  0  0
  4  1  2  0  0  0  0
  5  6  1  0  0  0  0
  6  4  1  0  0  0  0
  7  1  1  0  0  0  0
  8  3  2  0  0  0  0
  9  5  2  0  0  0  0
 10  2  2  0  0  0  0
 11  7  2  0  0  0  0
 12  9  1  0  0  0  0
 13 12  1  0  0  0  0
 14  8  1  0  0  0  0
 15 13  1  0  0  0  0
 16 11  1  0  0  0  0
 17 15  1  0  0  0  0
 18  7  1  0  0  0  0
 19 11  1  0  0  0  0
 20 16  1  0  0  0  0
 21 17  2  0  0  0  0
 22 17  1  0  0  0  0
 23 18  2  0  0  0  0
 24 23  1  0  0  0  0
 25 22  2  0  0  0  0
 26 21  1  0  0  0  0
 27 25  1  0  0  0  0
  5  3  1  0  0  0  0
 19 24  2  0  0  0  0
 12 14  2  0  0  0  0
 26 27  2  0  0  0  0
M  END
> <IDNUMBER>
F3139-0457

> <Chemical_Name>
7-(benzyloxy)-3-(2-methoxyphenyl)-4H-chromen-4-one

> <CAS>
303121-62-2

> <PriceCoeff>
1.00

> <MW>
358.39

> <Description>
solid

> <FSP3>
0.09

> <clogP>
4.23

> <TPSA>
44.76

> <Acceptor>
4

> <Donor>
0

> <RotBonds>
5

> <HAC>
27

> <Collection>
General

> <Reference_compound>
CHEMBL44

> <Similarity>
0.8520

$$$$
F3222-1434
  -ISIS-  06222321152D

 36 40  0  0  0  0  0  0  0  0999 V2000
    6.3375  -10.3542    0.0000 N   0  0  3  0  0  0  0  0  0  0  0  0
    4.9042  -10.4292    0.0000 C   0  0  0  0  0  0  0  0  0  0  0  0
    4.9542  -11.2542    0.0000 C   0  0  0  0  0  0  0  0  0  0  0  0
    6.3792  -11.1750    0.0000 C   0  0  0  0  0  0  0  0  0  0  0  0
    5.6875  -11.6292    0.0000 N   0  0  0  0  0  0  0  0  0  0  0  0
    5.6000   -9.9792    0.0000 C   0  0  0  0  0  0  0  0  0  0  0  0
    4.1125  -10.2167    0.0000 C   0  0  0  0  0  0  0  0  0  0  0  0
    3.6667  -10.9167    0.0000 C   0  0  0  0  0  0  0  0  0  0  0  0
    4.1792  -11.5500    0.0000 S   0  0  0  0  0  0  0  0  0  0  0  0
    2.4417  -10.1500    0.0000 N   0  0  3  0  0  0  0  0  0  0  0  0
    7.0292   -9.9042    0.0000 C   0  0  0  0  0  0  0  0  0  0  0  0
    2.8375  -10.8792    0.0000 C   0  0  0  0  0  0  0  0  0  0  0  0
    7.1292  -11.5417    0.0000 S   0  0  0  0  0  0  0  0  0  0  0  0
    1.6250  -10.1292    0.0000 C   0  0  0  0  0  0  0  0  0  0  0  0
    8.6042  -12.2792    0.0000 N   0  0  0  0  0  0  0  0  0  0  0  0
    3.7292   -9.4792    0.0000 C   0  0  0  0  0  0  0  0  0  0  0  0
    7.9167  -12.7417    0.0000 C   0  0  0  0  0  0  0  0  0  0  0  0
    5.5542   -9.1542    0.0000 O   0  0  0  0  0  0  0  0  0  0  0  0
    9.3500  -12.6542    0.0000 C   0  0  0  0  0  0  0  0  0  0  0  0
    2.9042   -9.4417    0.0000 C   0  0  0  0  0  0  0  0  0  0  0  0
    6.9792   -9.0750    0.0000 C   0  0  0  0  0  0  0  0  0  0  0  0
    1.1917  -10.8375    0.0000 O   0  0  0  0  0  0  0  0  0  0  0  0
    9.4042  -13.4750    0.0000 C   0  0  0  0  0  0  0  0  0  0  0  0
    7.9667  -13.5667    0.0000 O   0  0  0  0  0  0  0  0  0  0  0  0
    7.1792  -12.3667    0.0000 C   0  0  0  0  0  0  0  0  0  0  0  0
    8.8292  -14.0875    0.0000 Cl  0  0  0  0  0  0  0  0  0  0  0  0
    7.7625  -10.2792    0.0000 C   0  0  0  0  0  0  0  0  0  0  0  0
    1.2292   -9.4042    0.0000 C   0  0  0  0  0  0  0  0  0  0  0  0
   10.0375  -12.1917    0.0000 C   0  0  0  0  0  0  0  0  0  0  0  0
    6.2375   -8.6917    0.0000 C   0  0  0  0  0  0  0  0  0  0  0  0
    7.6667   -8.6250    0.0000 C   0  0  0  0  0  0  0  0  0  0  0  0
    9.9625  -13.7542    0.0000 C   0  0  0  0  0  0  0  0  0  0  0  0
    8.4542   -9.8250    0.0000 C   0  0  0  0  0  0  0  0  0  0  0  0
   10.7667  -12.5542    0.0000 C   0  0  0  0  0  0  0  0  0  0  0  0
   10.6417  -13.2917    0.0000 C   0  0  0  0  0  0  0  0  0  0  0  0
    8.4042   -9.0000    0.0000 C   0  0  0  0  0  0  0  0  0  0  0  0
  2  6  1  0  0  0  0
  3  2  2  0  0  0  0
  4  1  1  0  0  0  0
  5  4  2  0  0  0  0
  6  1  1  0  0  0  0
  7  2  1  0  0  0  0
  8  7  2  0  0  0  0
  9  3  1  0  0  0  0
 10 20  1  0  0  0  0
 11  1  1  0  0  0  0
 12  8  1  0  0  0  0
 13  4  1  0  0  0  0
 14 10  1  0  0  0  0
 15 17  1  0  0  0  0
 16  7  1  0  0  0  0
 17 25  1  0  0  0  0
 18  6  2  0  0  0  0
 19 15  1  0  0  0  0
 20 16  1  0  0  0  0
 21 11  1  0  0  0  0
 22 14  2  0  0  0  0
 23 19  1  0  0  0  0
 24 17  2  0  0  0  0
 25 13  1  0  0  0  0
 26 23  1  0  0  0  0
 27 11  2  0  0  0  0
 28 14  1  0  0  0  0
 29 19  2  0  0  0  0
 30 21  1  0  0  0  0
 31 21  2  0  0  0  0
 32 23  2  0  0  0  0
 33 27  1  0  0  0  0
 34 29  1  0  0  0  0
 35 34  2  0  0  0  0
 36 33  2  0  0  0  0
  3  5  1  0  0  0  0
 31 36  1  0  0  0  0
  8  9  1  0  0  0  0
 12 10  1  0  0  0  0
 35 32  1  0  0  0  0
M  END
> <IDNUMBER>
F3222-1434

> <Chemical_Name>
2-{[11-acetyl-4-(2-methylphenyl)-3-oxo-8-thia-4,6,11-triazatricyclo[7.4.0.0^{2,7}]trideca-1(9),2(7),5-trien-5-yl]sulfanyl}-N-(2-chlorophenyl)acetamide

> <CAS>
1189733-40-1

> <PriceCoeff>
1.00

> <MW>
539.07

> <Description>
solid

> <FSP3>
0.23

> <clogP>
3.22

> <TPSA>
135.62

> <Acceptor>
4

> <Donor>
1

> <RotBonds>
6

> <HAC>
36

> <Collection>
General

> <Reference_compound>
CHEMBL577016

> <Similarity>
0.8690

$$$$
F0561-0607
  -ISIS-  06222321142D

 29 32  0  0  0  0  0  0  0  0999 V2000
   -3.2708    2.5458    0.0000 C   0  0  0  0  0  0  0  0  0  0  0  0
   -3.0083    1.7583    0.0000 C   0  0  0  0  0  0  0  0  0  0  0  0
   -4.0958    2.5458    0.0000 N   0  0  3  0  0  0  0  0  0  0  0  0
   -4.3458    1.7583    0.0000 N   0  0  0  0  0  0  0  0  0  0  0  0
   -3.6750    1.2750    0.0000 C   0  0  0  0  0  0  0  0  0  0  0  0
   -2.7833    3.2125    0.0000 N   0  0  0  0  0  0  0  0  0  0  0  0
   -1.6750    5.9542    0.0000 N   0  3  0  0  0  0  0  0  0  0  0  0
   -1.3333    5.2042    0.0000 C   0  0  0  0  0  0  0  0  0  0  0  0
   -2.6000    0.4875    0.0000 S   0  0  3  0  0  0  0  0  0  0  0  0
   -1.9708    3.1333    0.0000 C   0  0  0  0  0  0  0  0  0  0  0  0
   -3.4250    0.4875    0.0000 C   0  0  0  0  0  0  0  0  0  0  0  0
   -4.5833    3.2083    0.0000 C   0  0  0  0  0  0  0  0  0  0  0  0
   -1.8208    4.5417    0.0000 C   0  0  0  0  0  0  0  0  0  0  0  0
   -2.3458    1.2750    0.0000 C   0  0  0  0  0  0  0  0  0  0  0  0
   -1.4833    3.7958    0.0000 C   0  0  0  0  0  0  0  0  0  0  0  0
   -0.5250    5.1250    0.0000 C   0  0  0  0  0  0  0  0  0  0  0  0
   -4.2458    3.9583    0.0000 C   0  0  0  0  0  0  0  0  0  0  0  0
   -1.2000    6.6250    0.0000 O   0  5  0  0  0  0  0  0  0  0  0  0
   -2.4958    6.0417    0.0000 O   0  0  0  0  0  0  0  0  0  0  0  0
   -2.1125   -0.1792    0.0000 O   0  0  0  0  0  0  0  0  0  0  0  0
   -1.6250    2.3750    0.0000 O   0  0  0  0  0  0  0  0  0  0  0  0
   -0.6625    3.7125    0.0000 C   0  0  0  0  0  0  0  0  0  0  0  0
   -0.1875    4.3667    0.0000 C   0  0  0  0  0  0  0  0  0  0  0  0
   -4.7333    4.6042    0.0000 C   0  0  0  0  0  0  0  0  0  0  0  0
   -0.0458    5.7792    0.0000 Cl  0  0  0  0  0  0  0  0  0  0  0  0
   -4.4083    5.3542    0.0000 Cl  0  0  0  0  0  0  0  0  0  0  0  0
   -5.3958    3.1125    0.0000 C   0  0  0  0  0  0  0  0  0  0  0  0
   -5.8833    3.7750    0.0000 C   0  0  0  0  0  0  0  0  0  0  0  0
   -5.5500    4.5167    0.0000 C   0  0  0  0  0  0  0  0  0  0  0  0
  2  1  2  0  0  0  0
  3  1  1  0  0  0  0
  4  3  1  0  0  0  0
  5  2  1  0  0  0  0
  6  1  1  0  0  0  0
  7  8  1  0  0  0  0
  8 13  2  0  0  0  0
  9 14  1  0  0  0  0
 10  6  1  0  0  0  0
 11  5  1  0  0  0  0
 12  3  1  0  0  0  0
 13 15  1  0  0  0  0
 14  2  1  0  0  0  0
 15 10  1  0  0  0  0
 16 23  2  0  0  0  0
 17 12  1  0  0  0  0
 18  7  1  0  0  0  0
 19  7  2  0  0  0  0
 20  9  2  0  0  0  0
 21 10  2  0  0  0  0
 22 15  2  0  0  0  0
 23 22  1  0  0  0  0
 24 17  2  0  0  0  0
 25 16  1  0  0  0  0
 26 24  1  0  0  0  0
 27 12  2  0  0  0  0
 28 27  1  0  0  0  0
 29 28  2  0  0  0  0
  4  5  2  0  0  0  0
 11  9  1  0  0  0  0
 24 29  1  0  0  0  0
  8 16  1  0  0  0  0
M  CHG  2   7   1  18  -1
M  END
> <IDNUMBER>
F0561-0607

> <Chemical_Name>
4-chloro-N-[2-(3-chlorophenyl)-5-oxo-2H,4H,6H-5lambda4-thieno[3,4-c]pyrazol-3-yl]-3-nitrobenzamide

> <CAS>
1007192-51-9

> <PriceCoeff>
1.00

> <MW>
451.28

> <Description>
solid

> <FSP3>
0.11

> <clogP>
2.34

> <TPSA>
126.34

> <Acceptor>
5

> <Donor>
1

> <RotBonds>
4

> <HAC>
29

> <Collection>
General

$$$$
F1015-0042
  -ISIS-  06222321142D

 33 36  0  0  0  0  0  0  0  0999 V2000
    1.2292    0.1125    0.0000 C   0  0  0  0  0  0  0  0  0  0  0  0
    0.5875    0.4958    0.0000 S   0  0  3  0  0  0  0  0  0  0  0  0
    2.0625    0.2833    0.0000 S   0  0  0  0  0  0  0  0  0  0  0  0
    2.4167   -0.4667    0.0000 C   0  0  0  0  0  0  0  0  0  0  0  0
    6.9667    0.3458    0.0000 N   0  0  3  0  0  0  0  0  0  0  0  0
   -2.6958    1.2458    0.0000 N   0  3  0  0  0  0  0  0  0  0  0  0
    3.2292   -0.4667    0.0000 N   0  0  0  0  0  0  0  0  0  0  0  0
    1.8792   -1.0542    0.0000 N   0  0  0  0  0  0  0  0  0  0  0  0
    1.1625   -0.6792    0.0000 C   0  0  0  0  0  0  0  0  0  0  0  0
    3.6875    0.2750    0.0000 C   0  0  0  0  0  0  0  0  0  0  0  0
    7.4667   -0.2875    0.0000 C   0  0  0  0  0  0  0  0  0  0  0  0
    7.4542    1.0083    0.0000 C   0  0  0  0  0  0  0  0  0  0  0  0
   -0.2500    0.6708    0.0000 C   0  0  0  0  0  0  0  0  0  0  0  0
    6.1500    0.3333    0.0000 C   0  0  0  0  0  0  0  0  0  0  0  0
   -1.8500    1.0708    0.0000 C   0  0  0  0  0  0  0  0  0  0  0  0
    0.7417    1.3208    0.0000 O   0  0  0  0  0  0  0  0  0  0  0  0
    0.3792   -0.3125    0.0000 O   0  0  0  0  0  0  0  0  0  0  0  0
   -2.9750    2.0208    0.0000 O   0  5  0  0  0  0  0  0  0  0  0  0
    4.5042    0.2833    0.0000 C   0  0  0  0  0  0  0  0  0  0  0  0
   -3.2583    0.5833    0.0000 O   0  0  0  0  0  0  0  0  0  0  0  0
    3.3167    0.9958    0.0000 O   0  0  0  0  0  0  0  0  0  0  0  0
    8.2292    0.7625    0.0000 C   0  0  0  0  0  0  0  0  0  0  0  0
    8.2375   -0.0167    0.0000 C   0  0  0  0  0  0  0  0  0  0  0  0
    7.1875    1.8333    0.0000 O   0  0  0  0  0  0  0  0  0  0  0  0
    7.2417   -1.1417    0.0000 O   0  0  0  0  0  0  0  0  0  0  0  0
   -0.5125    1.4875    0.0000 C   0  0  0  0  0  0  0  0  0  0  0  0
   -0.8375    0.0833    0.0000 C   0  0  0  0  0  0  0  0  0  0  0  0
    5.7292    1.0333    0.0000 C   0  0  0  0  0  0  0  0  0  0  0  0
    5.7542   -0.3917    0.0000 C   0  0  0  0  0  0  0  0  0  0  0  0
   -1.6333    0.2708    0.0000 C   0  0  0  0  0  0  0  0  0  0  0  0
   -1.3083    1.6750    0.0000 C   0  0  0  0  0  0  0  0  0  0  0  0
    4.9292   -0.4167    0.0000 C   0  0  0  0  0  0  0  0  0  0  0  0
    4.8917    0.9958    0.0000 C   0  0  0  0  0  0  0  0  0  0  0  0
  2  1  1  0  0  0  0
  3  1  1  0  0  0  0
  4  3  1  0  0  0  0
  5 14  1  0  0  0  0
  6 15  1  0  0  0  0
  7  4  1  0  0  0  0
  8  9  1  0  0  0  0
  9  1  2  0  0  0  0
 10  7  1  0  0  0  0
 11  5  1  0  0  0  0
 12  5  1  0  0  0  0
 13  2  1  0  0  0  0
 14 28  1  0  0  0  0
 15 30  1  0  0  0  0
 16  2  2  0  0  0  0
 17  2  2  0  0  0  0
 18  6  1  0  0  0  0
 19 10  1  0  0  0  0
 20  6  2  0  0  0  0
 21 10  2  0  0  0  0
 22 12  1  0  0  0  0
 23 11  1  0  0  0  0
 24 12  2  0  0  0  0
 25 11  2  0  0  0  0
 26 13  2  0  0  0  0
 27 13  1  0  0  0  0
 28 33  2  0  0  0  0
 29 32  1  0  0  0  0
 30 27  2  0  0  0  0
 31 26  1  0  0  0  0
 32 19  2  0  0  0  0
 33 19  1  0  0  0  0
  8  4  2  0  0  0  0
 15 31  2  0  0  0  0
 14 29  2  0  0  0  0
 23 22  1  0  0  0  0
M  CHG  2   6   1  18  -1
M  END
> <IDNUMBER>
F1015-0042

> <Chemical_Name>
4-(2,5-dioxopyrrolidin-1-yl)-N-[5-(4-nitrobenzenesulfonyl)-1,3-thiazol-2-yl]benzamide

> <CAS>
438034-85-6

> <PriceCoeff>
1.00

> <MW>
486.48

> <Description>
solid

> <FSP3>
0.10

> <clogP>
0.78

> <TPSA>
193.27

> <Acceptor>
8

> <Donor>
1

> <RotBonds>
6

> <HAC>
33

> <Collection>
General

$$$$
F0541-0156
  -ISIS-  06222321442D

 29 32  0  0  0  0  0  0  0  0999 V2000
   -3.1750    2.0833    0.0000 C   0  0  0  0  0  0  0  0  0  0  0  0
   -3.4333    1.2958    0.0000 C   0  0  0  0  0  0  0  0  0  0  0  0
   -3.8458    2.5708    0.0000 N   0  0  3  0  0  0  0  0  0  0  0  0
   -4.2708    1.2958    0.0000 C   0  0  0  0  0  0  0  0  0  0  0  0
   -4.5208    2.0833    0.0000 N   0  0  0  0  0  0  0  0  0  0  0  0
   -3.8458    0.0208    0.0000 S   0  0  3  0  0  0  0  0  0  0  0  0
   -2.4458    1.8958    0.0000 N   0  0  0  0  0  0  0  0  0  0  0  0
   -0.0500   -0.2625    0.0000 N   0  3  0  0  0  0  0  0  0  0  0  0
   -0.0208    0.6208    0.0000 C   0  0  0  0  0  0  0  0  0  0  0  0
   -4.5208    0.5083    0.0000 C   0  0  0  0  0  0  0  0  0  0  0  0
   -1.5125    2.4250    0.0000 C   0  0  0  0  0  0  0  0  0  0  0  0
   -3.1750    0.5083    0.0000 C   0  0  0  0  0  0  0  0  0  0  0  0
   -0.7833    1.0750    0.0000 C   0  0  0  0  0  0  0  0  0  0  0  0
   -0.7625    1.9708    0.0000 C   0  0  0  0  0  0  0  0  0  0  0  0
   -4.5625   -0.3917    0.0000 O   0  0  0  0  0  0  0  0  0  0  0  0
   -3.2333   -0.3542    0.0000 O   0  0  0  0  0  0  0  0  0  0  0  0
    0.7542    1.0500    0.0000 C   0  0  0  0  0  0  0  0  0  0  0  0
   -0.8208   -0.6917    0.0000 O   0  5  0  0  0  0  0  0  0  0  0  0
   -3.8458    3.4583    0.0000 C   0  0  0  0  0  0  0  0  0  0  0  0
    0.7167   -0.7167    0.0000 O   0  0  0  0  0  0  0  0  0  0  0  0
   -1.4833    3.2375    0.0000 O   0  0  0  0  0  0  0  0  0  0  0  0
    0.0167    2.3958    0.0000 C   0  0  0  0  0  0  0  0  0  0  0  0
    0.7667    1.9333    0.0000 C   0  0  0  0  0  0  0  0  0  0  0  0
    1.5125    0.5958    0.0000 Cl  0  0  0  0  0  0  0  0  0  0  0  0
   -3.0750    3.8958    0.0000 C   0  0  0  0  0  0  0  0  0  0  0  0
   -4.6083    3.8958    0.0000 C   0  0  0  0  0  0  0  0  0  0  0  0
   -4.6083    4.7750    0.0000 C   0  0  0  0  0  0  0  0  0  0  0  0
   -3.0708    4.7667    0.0000 C   0  0  0  0  0  0  0  0  0  0  0  0
   -3.8375    5.2167    0.0000 C   0  0  0  0  0  0  0  0  0  0  0  0
  2  1  2  0  0  0  0
  3  1  1  0  0  0  0
  4  2  1  0  0  0  0
  5  3  1  0  0  0  0
  6 12  1  0  0  0  0
  7  1  1  0  0  0  0
  8  9  1  0  0  0  0
  9 13  1  0  0  0  0
 10  4  1  0  0  0  0
 11  7  1  0  0  0  0
 12  2  1  0  0  0  0
 13 14  2  0  0  0  0
 14 11  1  0  0  0  0
 15  6  2  0  0  0  0
 16  6  2  0  0  0  0
 17 23  1  0  0  0  0
 18  8  1  0  0  0  0
 19  3  1  0  0  0  0
 20  8  2  0  0  0  0
 21 11  2  0  0  0  0
 22 14  1  0  0  0  0
 23 22  2  0  0  0  0
 24 17  1  0  0  0  0
 25 19  2  0  0  0  0
 26 19  1  0  0  0  0
 27 26  2  0  0  0  0
 28 25  1  0  0  0  0
 29 27  1  0  0  0  0
  4  5  2  0  0  0  0
  6 10  1  0  0  0  0
 29 28  2  0  0  0  0
 17  9  2  0  0  0  0
M  CHG  2   8   1  18  -1
M  END
> <IDNUMBER>
F0541-0156

> <Chemical_Name>
4-chloro-N-{5,5-dioxo-2-phenyl-2H,4H,6H-5lambda6-thieno[3,4-c]pyrazol-3-yl}-3-nitrobenzamide

> <CAS>
681265-99-6

> <PriceCoeff>
1.00

> <MW>
432.84

> <Description>
solid

> <FSP3>
0.11

> <clogP>
1.42

> <TPSA>
132.58

> <Acceptor>
6

> <Donor>
1

> <RotBonds>
4

> <HAC>
29

> <Collection>
General

$$$$
F2724-1089
  -ISIS-  06222321462D

 27 29  0  0  0  0  0  0  0  0999 V2000
   -5.0333    6.4042    0.0000 N   0  3  0  0  0  0  0  0  0  0  0  0
   -5.0333    5.6542    0.0000 C   0  0  0  0  0  0  0  0  0  0  0  0
   -3.7333    4.1542    0.0000 C   0  0  0  0  0  0  0  0  0  0  0  0
   -4.3833    5.2792    0.0000 C   0  0  0  0  0  0  0  0  0  0  0  0
   -3.7333    7.9042    0.0000 N   0  0  0  0  0  0  0  0  0  0  0  0
   -3.7333    8.6542    0.0000 N   0  0  0  0  0  0  0  0  0  0  0  0
   -4.3833    4.5292    0.0000 C   0  0  0  0  0  0  0  0  0  0  0  0
   -3.0833    4.5292    0.0000 N   0  0  0  0  0  0  0  0  0  0  0  0
   -5.6750    5.2792    0.0000 C   0  0  0  0  0  0  0  0  0  0  0  0
   -4.3833    6.7792    0.0000 O   0  5  0  0  0  0  0  0  0  0  0  0
   -3.0833    7.5292    0.0000 C   0  0  0  0  0  0  0  0  0  0  0  0
   -5.6750    6.7792    0.0000 O   0  0  0  0  0  0  0  0  0  0  0  0
   -3.0833    9.0292    0.0000 C   0  0  0  0  0  0  0  0  0  0  0  0
   -3.0833    6.7792    0.0000 C   0  0  0  0  0  0  0  0  0  0  0  0
   -3.7333    3.4000    0.0000 O   0  0  0  0  0  0  0  0  0  0  0  0
   -5.0333    4.1542    0.0000 C   0  0  0  0  0  0  0  0  0  0  0  0
   -5.6750    4.5292    0.0000 C   0  0  0  0  0  0  0  0  0  0  0  0
   -2.4375    7.9042    0.0000 C   0  0  0  0  0  0  0  0  0  0  0  0
   -3.0833    5.2792    0.0000 C   0  0  0  0  0  0  0  0  0  0  0  0
   -3.7333    6.4042    0.0000 C   0  0  0  0  0  0  0  0  0  0  0  0
   -2.4375    6.4042    0.0000 C   0  0  0  0  0  0  0  0  0  0  0  0
   -2.4375    8.6542    0.0000 C   0  0  0  0  0  0  0  0  0  0  0  0
   -6.3292    5.6542    0.0000 Cl  0  0  0  0  0  0  0  0  0  0  0  0
   -3.7333    5.6542    0.0000 C   0  0  0  0  0  0  0  0  0  0  0  0
   -2.4375    5.6542    0.0000 C   0  0  0  0  0  0  0  0  0  0  0  0
   -3.0833    9.7792    0.0000 O   0  0  0  0  0  0  0  0  0  0  0  0
   -3.7333   10.1542    0.0000 C   0  0  0  0  0  0  0  0  0  0  0  0
  2  1  1  0  0  0  0
  3  7  1  0  0  0  0
  4  2  1  0  0  0  0
  5 11  2  0  0  0  0
  6  5  1  0  0  0  0
  7  4  2  0  0  0  0
  8  3  1  0  0  0  0
  9  2  2  0  0  0  0
 10  1  1  0  0  0  0
 11 14  1  0  0  0  0
 12  1  2  0  0  0  0
 13 22  1  0  0  0  0
 14 21  1  0  0  0  0
 15  3  2  0  0  0  0
 16 17  2  0  0  0  0
 17  9  1  0  0  0  0
 18 11  1  0  0  0  0
 19  8  1  0  0  0  0
 20 24  1  0  0  0  0
 21 25  2  0  0  0  0
 22 18  2  0  0  0  0
 23  9  1  0  0  0  0
 24 19  2  0  0  0  0
 25 19  1  0  0  0  0
 26 13  1  0  0  0  0
 27 26  1  0  0  0  0
 16  7  1  0  0  0  0
 20 14  2  0  0  0  0
  6 13  2  0  0  0  0
M  CHG  2   1   1  10  -1
M  END
> <IDNUMBER>
F2724-1089

> <Chemical_Name>
4-chloro-N-[4-(6-methoxypyridazin-3-yl)phenyl]-3-nitrobenzamide

> <CAS>
941941-08-8

> <PriceCoeff>
1.00

> <MW>
384.77

> <Description>
solid

> <FSP3>
0.06

> <clogP>
3.55

> <TPSA>
107.25

> <Acceptor>
6

> <Donor>
1

> <RotBonds>
5

> <HAC>
27

> <Collection>
General

$$$$
F3222-2365
  -ISIS-  06222321152D

 38 42  0  0  0  0  0  0  0  0999 V2000
    4.0875   -7.8167    0.0000 N   0  0  3  0  0  0  0  0  0  0  0  0
    4.7542   -9.0917    0.0000 C   0  0  0  0  0  0  0  0  0  0  0  0
    5.4792   -8.7042    0.0000 C   0  0  0  0  0  0  0  0  0  0  0  0
    4.8167   -7.4417    0.0000 C   0  0  0  0  0  0  0  0  0  0  0  0
    5.5167   -7.8792    0.0000 N   0  0  0  0  0  0  0  0  0  0  0  0
    4.0542   -8.6417    0.0000 C   0  0  0  0  0  0  0  0  0  0  0  0
    4.8917   -9.9042    0.0000 C   0  0  0  0  0  0  0  0  0  0  0  0
    5.7042  -10.0167    0.0000 C   0  0  0  0  0  0  0  0  0  0  0  0
    6.0750   -9.2917    0.0000 S   0  0  0  0  0  0  0  0  0  0  0  0
    5.5042  -11.4292    0.0000 N   0  0  3  0  0  0  0  0  0  0  0  0
    3.3917   -7.3792    0.0000 C   0  0  0  0  0  0  0  0  0  0  0  0
    6.0167  -10.7792    0.0000 C   0  0  0  0  0  0  0  0  0  0  0  0
    4.8500   -6.6167    0.0000 S   0  0  0  0  0  0  0  0  0  0  0  0
    5.8042  -12.2042    0.0000 C   0  0  0  0  0  0  0  0  0  0  0  0
    4.3875  -10.5500    0.0000 C   0  0  0  0  0  0  0  0  0  0  0  0
    3.3042   -9.0250    0.0000 O   0  0  0  0  0  0  0  0  0  0  0  0
    5.6125   -5.4042    0.0000 C   0  0  0  0  0  0  0  0  0  0  0  0
    4.6917  -11.3167    0.0000 C   0  0  0  0  0  0  0  0  0  0  0  0
    6.3417   -5.0167    0.0000 N   0  0  0  0  0  0  0  0  0  0  0  0
    6.4542   -1.7042    0.0000 C   0  0  0  0  0  0  0  0  0  0  0  0
    6.4292   -2.5292    0.0000 C   0  0  0  0  0  0  0  0  0  0  0  0
    2.6625   -7.7667    0.0000 C   0  0  0  0  0  0  0  0  0  0  0  0
    6.6167  -12.3292    0.0000 O   0  0  0  0  0  0  0  0  0  0  0  0
    4.9125   -4.9625    0.0000 O   0  0  0  0  0  0  0  0  0  0  0  0
    5.7417   -1.2792    0.0000 O   0  0  0  0  0  0  0  0  0  0  0  0
    5.5792   -6.2292    0.0000 C   0  0  0  0  0  0  0  0  0  0  0  0
    7.1375   -2.9792    0.0000 C   0  0  0  0  0  0  0  0  0  0  0  0
    5.7042   -2.9250    0.0000 C   0  0  0  0  0  0  0  0  0  0  0  0
    6.3750   -4.1917    0.0000 C   0  0  0  0  0  0  0  0  0  0  0  0
    7.1042   -3.8042    0.0000 C   0  0  0  0  0  0  0  0  0  0  0  0
    5.6792   -3.7542    0.0000 C   0  0  0  0  0  0  0  0  0  0  0  0
    3.4250   -6.5542    0.0000 C   0  0  0  0  0  0  0  0  0  0  0  0
    5.2875  -12.8417    0.0000 C   0  0  0  0  0  0  0  0  0  0  0  0
    7.1750   -1.3125    0.0000 C   0  0  0  0  0  0  0  0  0  0  0  0
    2.6292   -8.5917    0.0000 C   0  0  0  0  0  0  0  0  0  0  0  0
    1.9625   -7.3292    0.0000 C   0  0  0  0  0  0  0  0  0  0  0  0
    2.7292   -6.1167    0.0000 C   0  0  0  0  0  0  0  0  0  0  0  0
    1.9917   -6.5000    0.0000 C   0  0  0  0  0  0  0  0  0  0  0  0
  2  6  1  0  0  0  0
  3  2  2  0  0  0  0
  4  1  1  0  0  0  0
  5  4  2  0  0  0  0
  6  1  1  0  0  0  0
  7  2  1  0  0  0  0
  8  7  2  0  0  0  0
  9  3  1  0  0  0  0
 10 18  1  0  0  0  0
 11  1  1  0  0  0  0
 12  8  1  0  0  0  0
 13  4  1  0  0  0  0
 14 10  1  0  0  0  0
 15  7  1  0  0  0  0
 16  6  2  0  0  0  0
 17 26  1  0  0  0  0
 18 15  1  0  0  0  0
 19 17  1  0  0  0  0
 20 21  1  0  0  0  0
 21 28  2  0  0  0  0
 22 11  1  0  0  0  0
 23 14  2  0  0  0  0
 24 17  2  0  0  0  0
 25 20  2  0  0  0  0
 26 13  1  0  0  0  0
 27 30  2  0  0  0  0
 28 31  1  0  0  0  0
 29 19  1  0  0  0  0
 30 29  1  0  0  0  0
 31 29  2  0  0  0  0
 32 11  2  0  0  0  0
 33 14  1  0  0  0  0
 34 20  1  0  0  0  0
 35 22  1  0  0  0  0
 36 22  2  0  0  0  0
 37 32  1  0  0  0  0
 38 37  2  0  0  0  0
  5  3  1  0  0  0  0
 36 38  1  0  0  0  0
  8  9  1  0  0  0  0
 12 10  1  0  0  0  0
 27 21  1  0  0  0  0
M  END
> <IDNUMBER>
F3222-2365

> <Chemical_Name>
2-{[11-acetyl-4-(2-methylphenyl)-3-oxo-8-thia-4,6,11-triazatricyclo[7.4.0.0^{2,7}]trideca-1(9),2(7),5-trien-5-yl]sulfanyl}-N-(4-acetylphenyl)acetamide

> <CAS>
1185090-27-0

> <PriceCoeff>
1.00

> <MW>
546.66

> <Description>
solid

> <FSP3>
0.25

> <clogP>
3.01

> <TPSA>
152.69

> <Acceptor>
5

> <Donor>
1

> <RotBonds>
7

> <HAC>
38

> <Collection>
General

> <Reference_compound>
CHEMBL577016

> <Similarity>
0.8940

$$$$
F3222-2466
  -ISIS-  06222321152D

 38 42  0  0  0  0  0  0  0  0999 V2000
    5.1292   -9.0917    0.0000 C   0  0  0  0  0  0  0  0  0  0  0  0
    4.4167   -8.6750    0.0000 C   0  0  0  0  0  0  0  0  0  0  0  0
    5.8417   -7.8417    0.0000 N   0  0  3  0  0  0  0  0  0  0  0  0
    5.1250   -7.4292    0.0000 C   0  0  0  0  0  0  0  0  0  0  0  0
    4.4167   -7.8417    0.0000 N   0  0  0  0  0  0  0  0  0  0  0  0
    5.8542   -8.6750    0.0000 C   0  0  0  0  0  0  0  0  0  0  0  0
    4.9542   -9.9042    0.0000 C   0  0  0  0  0  0  0  0  0  0  0  0
    4.1375   -9.9917    0.0000 C   0  0  0  0  0  0  0  0  0  0  0  0
    3.7917   -9.2292    0.0000 S   0  0  0  0  0  0  0  0  0  0  0  0
    4.2792  -11.4167    0.0000 N   0  0  3  0  0  0  0  0  0  0  0  0
    3.7917  -10.7417    0.0000 C   0  0  0  0  0  0  0  0  0  0  0  0
    5.1292   -6.6042    0.0000 S   0  0  0  0  0  0  0  0  0  0  0  0
    3.9500  -12.1875    0.0000 C   0  0  0  0  0  0  0  0  0  0  0  0
    6.5667   -7.4292    0.0000 C   0  0  0  0  0  0  0  0  0  0  0  0
    5.4417  -10.5792    0.0000 C   0  0  0  0  0  0  0  0  0  0  0  0
    6.5667   -9.1000    0.0000 O   0  0  0  0  0  0  0  0  0  0  0  0
    5.8417   -5.3750    0.0000 C   0  0  0  0  0  0  0  0  0  0  0  0
    5.1000  -11.3375    0.0000 C   0  0  0  0  0  0  0  0  0  0  0  0
    5.1292   -4.9625    0.0000 N   0  0  0  0  0  0  0  0  0  0  0  0
    2.2542   -6.6125    0.0000 C   0  0  0  0  0  0  0  0  0  0  0  0
    2.9792   -6.1917    0.0000 C   0  0  0  0  0  0  0  0  0  0  0  0
    3.1167  -12.2792    0.0000 O   0  0  0  0  0  0  0  0  0  0  0  0
    6.5542   -4.9625    0.0000 O   0  0  0  0  0  0  0  0  0  0  0  0
    1.5417   -6.1917    0.0000 O   0  0  0  0  0  0  0  0  0  0  0  0
    5.8417   -6.1917    0.0000 C   0  0  0  0  0  0  0  0  0  0  0  0
    7.2875   -7.8417    0.0000 C   0  0  0  0  0  0  0  0  0  0  0  0
    6.5667   -6.6042    0.0000 C   0  0  0  0  0  0  0  0  0  0  0  0
    3.7000   -6.6042    0.0000 C   0  0  0  0  0  0  0  0  0  0  0  0
    2.9792   -5.3750    0.0000 C   0  0  0  0  0  0  0  0  0  0  0  0
    4.4167   -5.3750    0.0000 C   0  0  0  0  0  0  0  0  0  0  0  0
    4.4167   -6.1917    0.0000 C   0  0  0  0  0  0  0  0  0  0  0  0
    3.7000   -4.9625    0.0000 C   0  0  0  0  0  0  0  0  0  0  0  0
    8.0042   -7.4292    0.0000 C   0  0  0  0  0  0  0  0  0  0  0  0
    7.2792   -6.1917    0.0000 C   0  0  0  0  0  0  0  0  0  0  0  0
    8.0042   -6.6042    0.0000 C   0  0  0  0  0  0  0  0  0  0  0  0
    4.4417  -12.8542    0.0000 C   0  0  0  0  0  0  0  0  0  0  0  0
    2.2542   -7.4417    0.0000 C   0  0  0  0  0  0  0  0  0  0  0  0
    8.7292   -6.1917    0.0000 C   0  0  0  0  0  0  0  0  0  0  0  0
  2  1  2  0  0  0  0
  3  6  1  0  0  0  0
  4  3  1  0  0  0  0
  5  2  1  0  0  0  0
  6  1  1  0  0  0  0
  7  1  1  0  0  0  0
  8  7  2  0  0  0  0
  9  2  1  0  0  0  0
 10 18  1  0  0  0  0
 11  8  1  0  0  0  0
 12  4  1  0  0  0  0
 13 10  1  0  0  0  0
 14  3  1  0  0  0  0
 15  7  1  0  0  0  0
 16  6  2  0  0  0  0
 17 25  1  0  0  0  0
 18 15  1  0  0  0  0
 19 17  1  0  0  0  0
 20 21  1  0  0  0  0
 21 29  2  0  0  0  0
 22 13  2  0  0  0  0
 23 17  2  0  0  0  0
 24 20  2  0  0  0  0
 25 12  1  0  0  0  0
 26 14  1  0  0  0  0
 27 14  2  0  0  0  0
 28 31  2  0  0  0  0
 29 32  1  0  0  0  0
 30 19  1  0  0  0  0
 31 30  1  0  0  0  0
 32 30  2  0  0  0  0
 33 26  2  0  0  0  0
 34 27  1  0  0  0  0
 35 34  2  0  0  0  0
 36 13  1  0  0  0  0
 37 20  1  0  0  0  0
 38 35  1  0  0  0  0
  8  9  1  0  0  0  0
  5  4  2  0  0  0  0
 11 10  1  0  0  0  0
 33 35  1  0  0  0  0
 28 21  1  0  0  0  0
M  END
> <IDNUMBER>
F3222-2466

> <Chemical_Name>
2-{[11-acetyl-4-(4-methylphenyl)-3-oxo-8-thia-4,6,11-triazatricyclo[7.4.0.0^{2,7}]trideca-1(9),2(7),5-trien-5-yl]sulfanyl}-N-(4-acetylphenyl)acetamide

> <CAS>
1189986-87-5

> <PriceCoeff>
1.00

> <MW>
546.66

> <Description>
solid

> <FSP3>
0.25

> <clogP>
3.01

> <TPSA>
152.69

> <Acceptor>
5

> <Donor>
1

> <RotBonds>
7

> <HAC>
38

> <Collection>
General

> <Reference_compound>
CHEMBL577016

> <Similarity>
0.9150

$$$$
F1589-0518
  -ISIS-  06222321142D

 30 32  0  0  0  0  0  0  0  0999 V2000
   -2.8875   -6.9125    0.0000 N   0  3  0  0  0  0  0  0  0  0  0  0
    2.2417   -3.9292    0.0000 C   0  0  0  0  0  0  0  0  0  0  0  0
    3.5917   -4.5375    0.0000 O   0  0  0  0  0  0  0  0  0  0  0  0
    4.5792   -3.4375    0.0000 C   0  0  0  0  0  0  0  0  0  0  0  0
    0.9667   -4.6875    0.0000 C   0  0  0  0  0  0  0  0  0  0  0  0
   -0.3208   -3.9417    0.0000 C   0  0  0  0  0  0  0  0  0  0  0  0
   -1.5958   -6.1750    0.0000 C   0  0  0  0  0  0  0  0  0  0  0  0
    2.3792   -2.4667    0.0000 C   0  0  0  0  0  0  0  0  0  0  0  0
    6.0542   -3.5875    0.0000 C   0  0  0  0  0  0  0  0  0  0  0  0
   -1.5958   -4.6875    0.0000 C   0  0  0  0  0  0  0  0  0  0  0  0
    3.8417   -2.1500    0.0000 C   0  0  0  0  0  0  0  0  0  0  0  0
    0.9667   -6.1750    0.0000 C   0  0  0  0  0  0  0  0  0  0  0  0
   -4.1708   -6.1750    0.0000 O   0  5  0  0  0  0  0  0  0  0  0  0
   13.0542   -0.4250    0.0000 C   0  0  0  0  0  0  0  0  0  0  0  0
   -2.8875   -8.3917    0.0000 O   0  0  0  0  0  0  0  0  0  0  0  0
   13.6667   -1.7792    0.0000 C   0  0  0  0  0  0  0  0  0  0  0  0
   -0.3208   -6.9125    0.0000 C   0  0  0  0  0  0  0  0  0  0  0  0
    6.6667   -4.9292    0.0000 O   0  0  0  0  0  0  0  0  0  0  0  0
   11.5792   -0.2750    0.0000 C   0  0  0  0  0  0  0  0  0  0  0  0
    6.9125   -2.3792    0.0000 N   0  0  0  0  0  0  0  0  0  0  0  0
   12.8042   -2.9792    0.0000 C   0  0  0  0  0  0  0  0  0  0  0  0
   -0.3333   -2.4667    0.0000 Cl  0  0  0  0  0  0  0  0  0  0  0  0
   10.7250   -1.4792    0.0000 C   0  0  0  0  0  0  0  0  0  0  0  0
   11.3292   -2.8292    0.0000 C   0  0  0  0  0  0  0  0  0  0  0  0
   13.9250    0.7833    0.0000 O   0  0  0  0  0  0  0  0  0  0  0  0
   15.1375   -1.9250    0.0000 O   0  0  0  0  0  0  0  0  0  0  0  0
    8.3917   -2.5292    0.0000 C   0  0  0  0  0  0  0  0  0  0  0  0
    9.2625   -1.3292    0.0000 C   0  0  0  0  0  0  0  0  0  0  0  0
   13.3042    2.1333    0.0000 C   0  0  0  0  0  0  0  0  0  0  0  0
   16.0000   -0.7250    0.0000 C   0  0  0  0  0  0  0  0  0  0  0  0
  2  5  1  0  0  0  0
  3  2  1  0  0  0  0
  4  3  1  0  0  0  0
  5 12  1  0  0  0  0
  6 10  1  0  0  0  0
  7  1  1  0  0  0  0
  8  2  2  0  0  0  0
  9  4  1  0  0  0  0
 10  7  2  0  0  0  0
 11  8  1  0  0  0  0
 12 17  2  0  0  0  0
 13  1  1  0  0  0  0
 14 19  2  0  0  0  0
 15  1  2  0  0  0  0
 16 21  2  0  0  0  0
 17  7  1  0  0  0  0
 18  9  2  0  0  0  0
 19 23  1  0  0  0  0
 20  9  1  0  0  0  0
 21 24  1  0  0  0  0
 22  6  1  0  0  0  0
 23 28  1  0  0  0  0
 24 23  2  0  0  0  0
 25 14  1  0  0  0  0
 26 16  1  0  0  0  0
 27 20  1  0  0  0  0
 28 27  1  0  0  0  0
 29 25  1  0  0  0  0
 30 26  1  0  0  0  0
  5  6  2  0  0  0  0
  4 11  2  0  0  0  0
 14 16  1  0  0  0  0
M  CHG  2   1   1  13  -1
M  END
> <IDNUMBER>
F1589-0518

> <Chemical_Name>
5-(2-chloro-4-nitrophenyl)-N-[2-(3,4-dimethoxyphenyl)ethyl]furan-2-carboxamide

> <CAS>
618397-09-4

> <PriceCoeff>
1.00

> <MW>
430.84

> <Description>
solid

> <FSP3>
0.19

> <clogP>
4.20

> <TPSA>
103.84

> <Acceptor>
6

> <Donor>
1

> <RotBonds>
8

> <HAC>
30

> <Collection>
General

$$$$
F3222-2362
  -ISIS-  06222321152D

 37 41  0  0  0  0  0  0  0  0999 V2000
    4.7667   -9.0917    0.0000 C   0  0  0  0  0  0  0  0  0  0  0  0
    5.4917   -8.7042    0.0000 C   0  0  0  0  0  0  0  0  0  0  0  0
    4.1000   -7.8167    0.0000 N   0  0  3  0  0  0  0  0  0  0  0  0
    4.8292   -7.4417    0.0000 C   0  0  0  0  0  0  0  0  0  0  0  0
    5.5292   -7.8792    0.0000 N   0  0  0  0  0  0  0  0  0  0  0  0
    4.0667   -8.6417    0.0000 C   0  0  0  0  0  0  0  0  0  0  0  0
    4.9042   -9.9042    0.0000 C   0  0  0  0  0  0  0  0  0  0  0  0
    5.7167  -10.0167    0.0000 C   0  0  0  0  0  0  0  0  0  0  0  0
    6.0875   -9.2917    0.0000 S   0  0  0  0  0  0  0  0  0  0  0  0
    5.5167  -11.4292    0.0000 N   0  0  3  0  0  0  0  0  0  0  0  0
    6.0292  -10.7792    0.0000 C   0  0  0  0  0  0  0  0  0  0  0  0
    4.8625   -6.6167    0.0000 S   0  0  0  0  0  0  0  0  0  0  0  0
    5.8167  -12.2042    0.0000 C   0  0  0  0  0  0  0  0  0  0  0  0
    4.4000  -10.5500    0.0000 C   0  0  0  0  0  0  0  0  0  0  0  0
    3.4042   -7.3750    0.0000 C   0  0  0  0  0  0  0  0  0  0  0  0
    3.3167   -9.0250    0.0000 O   0  0  0  0  0  0  0  0  0  0  0  0
    5.6250   -5.4042    0.0000 C   0  0  0  0  0  0  0  0  0  0  0  0
    4.7042  -11.3167    0.0000 C   0  0  0  0  0  0  0  0  0  0  0  0
    6.3542   -5.0167    0.0000 N   0  0  0  0  0  0  0  0  0  0  0  0
    6.6292  -12.3292    0.0000 O   0  0  0  0  0  0  0  0  0  0  0  0
    6.4417   -2.5292    0.0000 C   0  0  0  0  0  0  0  0  0  0  0  0
    4.9250   -4.9625    0.0000 O   0  0  0  0  0  0  0  0  0  0  0  0
    5.5917   -6.2292    0.0000 C   0  0  0  0  0  0  0  0  0  0  0  0
    5.7167   -2.9250    0.0000 C   0  0  0  0  0  0  0  0  0  0  0  0
    7.1500   -2.9792    0.0000 C   0  0  0  0  0  0  0  0  0  0  0  0
    6.3875   -4.1917    0.0000 C   0  0  0  0  0  0  0  0  0  0  0  0
    6.4667   -1.7042    0.0000 C   0  0  3  0  0  0  0  0  0  0  0  0
    7.1167   -3.8042    0.0000 C   0  0  0  0  0  0  0  0  0  0  0  0
    5.6917   -3.7542    0.0000 C   0  0  0  0  0  0  0  0  0  0  0  0
    5.3000  -12.8417    0.0000 C   0  0  0  0  0  0  0  0  0  0  0  0
    2.6750   -7.7625    0.0000 C   0  0  0  0  0  0  0  0  0  0  0  0
    3.4417   -6.5417    0.0000 C   0  0  0  0  0  0  0  0  0  0  0  0
    7.1875   -1.3125    0.0000 C   0  0  0  0  0  0  0  0  0  0  0  0
    5.7542   -1.2792    0.0000 C   0  0  0  0  0  0  0  0  0  0  0  0
    2.7417   -6.1042    0.0000 C   0  0  0  0  0  0  0  0  0  0  0  0
    1.9750   -7.3167    0.0000 C   0  0  0  0  0  0  0  0  0  0  0  0
    2.0167   -6.4917    0.0000 C   0  0  0  0  0  0  0  0  0  0  0  0
  2  1  2  0  0  0  0
  3  6  1  0  0  0  0
  4  3  1  0  0  0  0
  5  2  1  0  0  0  0
  6  1  1  0  0  0  0
  7  1  1  0  0  0  0
  8  7  2  0  0  0  0
  9  2  1  0  0  0  0
 10 18  1  0  0  0  0
 11  8  1  0  0  0  0
 12  4  1  0  0  0  0
 13 10  1  0  0  0  0
 14  7  1  0  0  0  0
 15  3  1  0  0  0  0
 16  6  2  0  0  0  0
 17 23  1  0  0  0  0
 18 14  1  0  0  0  0
 19 17  1  0  0  0  0
 20 13  2  0  0  0  0
 21 24  1  0  0  0  0
 22 17  2  0  0  0  0
 23 12  1  0  0  0  0
 24 29  2  0  0  0  0
 25 28  1  0  0  0  0
 26 19  1  0  0  0  0
 27 21  1  0  0  0  0
 28 26  2  0  0  0  0
 29 26  1  0  0  0  0
 30 13  1  0  0  0  0
 31 15  1  0  0  0  0
 32 15  2  0  0  0  0
 33 27  1  0  0  0  0
 34 27  1  0  0  0  0
 35 32  1  0  0  0  0
 36 31  2  0  0  0  0
 37 35  2  0  0  0  0
  8  9  1  0  0  0  0
  5  4  2  0  0  0  0
 11 10  1  0  0  0  0
 36 37  1  0  0  0  0
 25 21  2  0  0  0  0
M  END
> <IDNUMBER>
F3222-2362

> <Chemical_Name>
2-({11-acetyl-3-oxo-4-phenyl-8-thia-4,6,11-triazatricyclo[7.4.0.0^{2,7}]trideca-1(9),2(7),5-trien-5-yl}sulfanyl)-N-[4-(propan-2-yl)phenyl]acetamide

> <CAS>
1215611-82-7

> <PriceCoeff>
1.00

> <MW>
532.68

> <Description>
solid

> <FSP3>
0.29

> <clogP>
4.03

> <TPSA>
135.62

> <Acceptor>
4

> <Donor>
1

> <RotBonds>
7

> <HAC>
37

> <Collection>
General

> <Reference_compound>
CHEMBL577016

> <Similarity>
0.9210

$$$$
F3222-1444
  -ISIS-  06222321462D

 37 41  0  0  0  0  0  0  0  0999 V2000
    1.7417   -8.7250    0.0000 C   0  0  0  0  0  0  0  0  0  0  0  0
    3.1667   -8.6500    0.0000 N   0  0  3  0  0  0  0  0  0  0  0  0
    1.7875   -9.5417    0.0000 C   0  0  0  0  0  0  0  0  0  0  0  0
    2.4292   -8.2750    0.0000 C   0  0  0  0  0  0  0  0  0  0  0  0
    2.5167   -9.9167    0.0000 N   0  0  0  0  0  0  0  0  0  0  0  0
    3.2167   -9.4667    0.0000 C   0  0  0  0  0  0  0  0  0  0  0  0
    0.9417   -8.5125    0.0000 C   0  0  0  0  0  0  0  0  0  0  0  0
    0.5000   -9.2042    0.0000 C   0  0  0  0  0  0  0  0  0  0  0  0
    1.0167   -9.8417    0.0000 S   0  0  0  0  0  0  0  0  0  0  0  0
   -0.7208   -8.4417    0.0000 N   0  0  3  0  0  0  0  0  0  0  0  0
   -0.3333   -9.1667    0.0000 C   0  0  0  0  0  0  0  0  0  0  0  0
   -1.5458   -8.4167    0.0000 C   0  0  0  0  0  0  0  0  0  0  0  0
    3.9625   -9.8292    0.0000 S   0  0  0  0  0  0  0  0  0  0  0  0
    3.8750   -8.2000    0.0000 C   0  0  0  0  0  0  0  0  0  0  0  0
    0.5667   -7.7750    0.0000 C   0  0  0  0  0  0  0  0  0  0  0  0
    2.3917   -7.4500    0.0000 O   0  0  0  0  0  0  0  0  0  0  0  0
    4.7542  -11.0292    0.0000 C   0  0  0  0  0  0  0  0  0  0  0  0
   -0.2583   -7.7292    0.0000 C   0  0  0  0  0  0  0  0  0  0  0  0
    5.4375  -10.5750    0.0000 N   0  0  0  0  0  0  0  0  0  0  0  0
    6.1792  -10.9500    0.0000 C   0  0  0  0  0  0  0  0  0  0  0  0
   -1.9708   -9.1292    0.0000 O   0  0  0  0  0  0  0  0  0  0  0  0
    6.2375  -11.7667    0.0000 C   0  0  0  0  0  0  0  0  0  0  0  0
    4.8042  -11.8542    0.0000 O   0  0  0  0  0  0  0  0  0  0  0  0
    4.0167  -10.6625    0.0000 C   0  0  0  0  0  0  0  0  0  0  0  0
    6.9792  -12.1417    0.0000 C   0  0  0  0  0  0  0  0  0  0  0  0
    3.8375   -7.3667    0.0000 C   0  0  0  0  0  0  0  0  0  0  0  0
    7.0375  -12.9750    0.0000 O   0  0  0  0  0  0  0  0  0  0  0  0
   -1.9375   -7.7000    0.0000 C   0  0  0  0  0  0  0  0  0  0  0  0
    7.6042  -10.8542    0.0000 C   0  0  0  0  0  0  0  0  0  0  0  0
    6.8667  -10.4875    0.0000 C   0  0  0  0  0  0  0  0  0  0  0  0
    7.6667  -11.6750    0.0000 C   0  0  0  0  0  0  0  0  0  0  0  0
    4.5375   -6.9250    0.0000 C   0  0  0  0  0  0  0  0  0  0  0  0
    3.1042   -6.9792    0.0000 C   0  0  0  0  0  0  0  0  0  0  0  0
    6.5042  -13.3542    0.0000 C   0  0  0  0  0  0  0  0  0  0  0  0
    3.0750   -6.1542    0.0000 C   0  0  0  0  0  0  0  0  0  0  0  0
    4.5042   -6.0917    0.0000 C   0  0  0  0  0  0  0  0  0  0  0  0
    3.7667   -5.7167    0.0000 C   0  0  0  0  0  0  0  0  0  0  0  0
  2  4  1  0  0  0  0
  3  1  2  0  0  0  0
  4  1  1  0  0  0  0
  5  3  1  0  0  0  0
  6  2  1  0  0  0  0
  7  1  1  0  0  0  0
  8  7  2  0  0  0  0
  9  3  1  0  0  0  0
 10 18  1  0  0  0  0
 11  8  1  0  0  0  0
 12 10  1  0  0  0  0
 13  6  1  0  0  0  0
 14  2  1  0  0  0  0
 15  7  1  0  0  0  0
 16  4  2  0  0  0  0
 17 24  1  0  0  0  0
 18 15  1  0  0  0  0
 19 17  1  0  0  0  0
 20 19  1  0  0  0  0
 21 12  2  0  0  0  0
 22 20  1  0  0  0  0
 23 17  2  0  0  0  0
 24 13  1  0  0  0  0
 25 22  2  0  0  0  0
 26 14  1  0  0  0  0
 27 25  1  0  0  0  0
 28 12  1  0  0  0  0
 29 30  1  0  0  0  0
 30 20  2  0  0  0  0
 31 29  2  0  0  0  0
 32 26  1  0  0  0  0
 33 26  2  0  0  0  0
 34 27  1  0  0  0  0
 35 33  1  0  0  0  0
 36 32  2  0  0  0  0
 37 35  2  0  0  0  0
  9  8  1  0  0  0  0
 10 11  1  0  0  0  0
  6  5  2  0  0  0  0
 36 37  1  0  0  0  0
 31 25  1  0  0  0  0
M  END
> <IDNUMBER>
F3222-1444

> <Chemical_Name>
2-({11-acetyl-4-benzyl-3-oxo-8-thia-4,6,11-triazatricyclo[7.4.0.0^{2,7}]trideca-1(9),2(7),5-trien-5-yl}sulfanyl)-N-(3-methoxyphenyl)acetamide

> <CAS>
1215822-05-1

> <PriceCoeff>
1.00

> <MW>
534.65

> <Description>
solid

> <FSP3>
0.26

> <clogP>
2.46

> <TPSA>
144.85

> <Acceptor>
5

> <Donor>
1

> <RotBonds>
8

> <HAC>
37

> <Collection>
General

> <Reference_compound>
CHEMBL577016

> <Similarity>
0.8620

$$$$
F3019-0012
  -ISIS-  06222321442D

 30 32  0  0  0  0  0  0  0  0999 V2000
    1.4125    0.2625    0.0000 N   0  0  3  0  0  0  0  0  0  0  0  0
    2.1625   -0.0667    0.0000 C   0  0  0  0  0  0  0  0  0  0  0  0
    1.4917    1.0833    0.0000 C   0  0  0  0  0  0  0  0  0  0  0  0
    2.7125    0.5458    0.0000 C   0  0  3  0  0  0  0  0  0  0  0  0
    7.1542   -0.6167    0.0000 N   0  3  0  0  0  0  0  0  0  0  0  0
    2.3000    1.2583    0.0000 C   0  0  0  0  0  0  0  0  0  0  0  0
    3.5292    0.4583    0.0000 N   0  0  0  0  0  0  0  0  0  0  0  0
    0.7000   -0.1500    0.0000 C   0  0  0  0  0  0  0  0  0  0  0  0
    6.3292   -0.5417    0.0000 C   0  0  0  0  0  0  0  0  0  0  0  0
    7.4917   -1.3750    0.0000 O   0  5  0  0  0  0  0  0  0  0  0  0
   -2.1583   -0.1542    0.0000 C   0  0  0  0  0  0  0  0  0  0  0  0
    7.6375    0.0458    0.0000 O   0  0  0  0  0  0  0  0  0  0  0  0
    2.3375   -0.8792    0.0000 O   0  0  0  0  0  0  0  0  0  0  0  0
    0.8750    1.6333    0.0000 O   0  0  0  0  0  0  0  0  0  0  0  0
    3.8667   -0.2917    0.0000 N   0  0  0  0  0  0  0  0  0  0  0  0
   -2.1583   -0.9875    0.0000 C   0  0  0  0  0  0  0  0  0  0  0  0
   -1.4458    0.2583    0.0000 C   0  0  0  0  0  0  0  0  0  0  0  0
    5.9917    0.2125    0.0000 C   0  0  0  0  0  0  0  0  0  0  0  0
    5.8500   -1.2125    0.0000 C   0  0  0  0  0  0  0  0  0  0  0  0
   -1.4458   -1.4000    0.0000 C   0  0  0  0  0  0  0  0  0  0  0  0
    4.6917   -0.3750    0.0000 C   0  0  0  0  0  0  0  0  0  0  0  0
   -0.7333   -0.1542    0.0000 C   0  0  0  0  0  0  0  0  0  0  0  0
   -0.0208    0.2583    0.0000 C   0  0  0  0  0  0  0  0  0  0  0  0
    5.1667    0.2958    0.0000 C   0  0  0  0  0  0  0  0  0  0  0  0
    5.0292   -1.1292    0.0000 C   0  0  0  0  0  0  0  0  0  0  0  0
   -0.7333   -0.9875    0.0000 C   0  0  0  0  0  0  0  0  0  0  0  0
   -2.8833    0.2583    0.0000 O   0  0  0  0  0  0  0  0  0  0  0  0
   -2.8708   -1.4000    0.0000 O   0  0  0  0  0  0  0  0  0  0  0  0
   -3.5958   -0.1542    0.0000 C   0  0  0  0  0  0  0  0  0  0  0  0
   -2.8708   -2.2250    0.0000 C   0  0  0  0  0  0  0  0  0  0  0  0
  2  1  1  0  0  0  0
  3  1  1  0  0  0  0
  4  2  1  0  0  0  0
  5  9  1  0  0  0  0
  6  3  1  0  0  0  0
  7  4  1  0  0  0  0
  8  1  1  0  0  0  0
  9 19  2  0  0  0  0
 10  5  1  0  0  0  0
 11 17  1  0  0  0  0
 12  5  2  0  0  0  0
 13  2  2  0  0  0  0
 14  3  2  0  0  0  0
 15  7  1  0  0  0  0
 16 20  1  0  0  0  0
 17 22  2  0  0  0  0
 18 24  2  0  0  0  0
 19 25  1  0  0  0  0
 20 26  2  0  0  0  0
 21 15  1  0  0  0  0
 22 23  1  0  0  0  0
 23  8  1  0  0  0  0
 24 21  1  0  0  0  0
 25 21  2  0  0  0  0
 26 22  1  0  0  0  0
 27 11  1  0  0  0  0
 28 16  1  0  0  0  0
 29 27  1  0  0  0  0
 30 28  1  0  0  0  0
  6  4  1  0  0  0  0
 16 11  2  0  0  0  0
  9 18  1  0  0  0  0
M  CHG  2   5   1  10  -1
M  END
> <IDNUMBER>
F3019-0012

> <Chemical_Name>
1-[2-(3,4-dimethoxyphenyl)ethyl]-3-[2-(4-nitrophenyl)hydrazin-1-yl]pyrrolidine-2,5-dione

> <CAS>
957006-83-6

> <PriceCoeff>
1.00

> <MW>
414.41

> <Description>
solid

> <FSP3>
0.30

> <clogP>
3.36

> <TPSA>
123.04

> <Acceptor>
7

> <Donor>
2

> <RotBonds>
9

> <HAC>
30

> <Collection>
General

$$$$
F3139-2843
  -ISIS-  06222321442D

 27 30  0  0  0  0  0  0  0  0999 V2000
    6.7292   -2.3667    0.0000 C   0  0  0  0  0  0  0  0  0  0  0  0
    6.0042   -2.7875    0.0000 C   0  0  0  0  0  0  0  0  0  0  0  0
    5.2917   -2.3792    0.0000 C   0  0  0  0  0  0  0  0  0  0  0  0
    6.7250   -1.5375    0.0000 C   0  0  0  0  0  0  0  0  0  0  0  0
    5.2875   -1.5417    0.0000 C   0  0  0  0  0  0  0  0  0  0  0  0
    6.0000   -1.1167    0.0000 O   0  0  0  0  0  0  0  0  0  0  0  0
    4.5667   -1.1292    0.0000 C   0  0  0  0  0  0  0  0  0  0  0  0
    7.4417   -2.7792    0.0000 C   0  0  0  0  0  0  0  0  0  0  0  0
    4.5667   -2.7875    0.0000 C   0  0  0  0  0  0  0  0  0  0  0  0
    6.0125   -3.6125    0.0000 O   0  0  0  0  0  0  0  0  0  0  0  0
    3.8542   -1.5500    0.0000 C   0  0  0  0  0  0  0  0  0  0  0  0
    3.1417   -1.1375    0.0000 N   0  0  0  0  0  0  0  0  0  0  0  0
    7.4417   -3.6042    0.0000 C   0  0  0  0  0  0  0  0  0  0  0  0
    8.1542   -2.3667    0.0000 C   0  0  0  0  0  0  0  0  0  0  0  0
    3.8542   -2.3750    0.0000 C   0  0  0  0  0  0  0  0  0  0  0  0
    2.4292   -1.5500    0.0000 C   0  0  0  0  0  0  0  0  0  0  0  0
    8.8667   -3.6042    0.0000 C   0  0  0  0  0  0  0  0  0  0  0  0
    8.1542   -4.0167    0.0000 C   0  0  0  0  0  0  0  0  0  0  0  0
    8.8667   -2.7750    0.0000 C   0  0  0  0  0  0  0  0  0  0  0  0
    1.0042   -2.3792    0.0000 C   0  0  0  0  0  0  0  0  0  0  0  0
    1.7167   -1.1375    0.0000 C   0  0  0  0  0  0  0  0  0  0  0  0
    2.4292   -2.3750    0.0000 C   0  0  0  0  0  0  0  0  0  0  0  0
    1.0042   -1.5500    0.0000 C   0  0  0  0  0  0  0  0  0  0  0  0
    1.7167   -2.7875    0.0000 C   0  0  0  0  0  0  0  0  0  0  0  0
    9.5792   -4.0042    0.0000 O   0  0  0  0  0  0  0  0  0  0  0  0
    0.2917   -2.7917    0.0000 C   0  0  0  0  0  0  0  0  0  0  0  0
   10.2917   -3.5917    0.0000 C   0  0  0  0  0  0  0  0  0  0  0  0
  2  1  1  0  0  0  0
  3  2  1  0  0  0  0
  4  1  2  0  0  0  0
  5  6  1  0  0  0  0
  6  4  1  0  0  0  0
  7  5  2  0  0  0  0
  8  1  1  0  0  0  0
  9  3  2  0  0  0  0
 10  2  2  0  0  0  0
 11  7  1  0  0  0  0
 12 11  1  0  0  0  0
 13  8  2  0  0  0  0
 14  8  1  0  0  0  0
 15  9  1  0  0  0  0
 16 12  1  0  0  0  0
 17 19  1  0  0  0  0
 18 13  1  0  0  0  0
 19 14  2  0  0  0  0
 20 24  2  0  0  0  0
 21 16  1  0  0  0  0
 22 16  2  0  0  0  0
 23 21  2  0  0  0  0
 24 22  1  0  0  0  0
 25 17  1  0  0  0  0
 26 20  1  0  0  0  0
 27 25  1  0  0  0  0
 17 18  2  0  0  0  0
  3  5  1  0  0  0  0
 15 11  2  0  0  0  0
 20 23  1  0  0  0  0
M  END
> <IDNUMBER>
F3139-2843

> <Chemical_Name>
3-(4-methoxyphenyl)-7-[(4-methylphenyl)amino]-4H-chromen-4-one

> <CAS>
879926-82-6

> <PriceCoeff>
1.00

> <MW>
357.40

> <Description>
solid

> <FSP3>
0.09

> <clogP>
5.30

> <TPSA>
47.56

> <Acceptor>
4

> <Donor>
1

> <RotBonds>
4

> <HAC>
27

> <Collection>
General

> <Reference_compound>
CHEMBL44

> <Similarity>
0.8180

$$$$
F3222-1448
  -ISIS-  06222321442D

 37 41  0  0  0  0  0  0  0  0999 V2000
    6.7542   -9.0292    0.0000 C   0  0  0  0  0  0  0  0  0  0  0  0
    8.1542   -8.7667    0.0000 N   0  0  3  0  0  0  0  0  0  0  0  0
    6.9042   -9.8417    0.0000 C   0  0  0  0  0  0  0  0  0  0  0  0
    7.3750   -8.4875    0.0000 C   0  0  0  0  0  0  0  0  0  0  0  0
    7.6792  -10.1125    0.0000 N   0  0  0  0  0  0  0  0  0  0  0  0
    8.3042   -9.5792    0.0000 C   0  0  0  0  0  0  0  0  0  0  0  0
    5.9250   -8.9167    0.0000 C   0  0  0  0  0  0  0  0  0  0  0  0
    5.5750   -9.6750    0.0000 C   0  0  0  0  0  0  0  0  0  0  0  0
    6.1750  -10.2417    0.0000 S   0  0  0  0  0  0  0  0  0  0  0  0
    4.2625   -9.0625    0.0000 N   0  0  3  0  0  0  0  0  0  0  0  0
    4.7417   -9.7417    0.0000 C   0  0  0  0  0  0  0  0  0  0  0  0
    3.4375   -9.1375    0.0000 C   0  0  0  0  0  0  0  0  0  0  0  0
    9.0875   -9.8417    0.0000 S   0  0  0  0  0  0  0  0  0  0  0  0
    8.7792   -8.2292    0.0000 C   0  0  0  0  0  0  0  0  0  0  0  0
    5.4542   -8.2417    0.0000 C   0  0  0  0  0  0  0  0  0  0  0  0
    7.2167   -7.6667    0.0000 O   0  0  0  0  0  0  0  0  0  0  0  0
    8.6125  -11.2042    0.0000 C   0  0  0  0  0  0  0  0  0  0  0  0
    4.6167   -8.3042    0.0000 C   0  0  0  0  0  0  0  0  0  0  0  0
    8.7667  -12.0167    0.0000 N   0  0  0  0  0  0  0  0  0  0  0  0
    3.0917   -9.8792    0.0000 O   0  0  0  0  0  0  0  0  0  0  0  0
    7.8417  -10.9167    0.0000 O   0  0  0  0  0  0  0  0  0  0  0  0
    9.2417  -10.6542    0.0000 C   0  0  0  0  0  0  0  0  0  0  0  0
    8.1375  -12.5667    0.0000 C   0  0  0  0  0  0  0  0  0  0  0  0
    9.5625   -8.4917    0.0000 C   0  0  0  0  0  0  0  0  0  0  0  0
    6.8875  -13.6417    0.0000 C   0  0  0  0  0  0  0  0  0  0  0  0
    8.3000  -13.3667    0.0000 C   0  0  0  0  0  0  0  0  0  0  0  0
    7.3500  -12.3000    0.0000 C   0  0  0  0  0  0  0  0  0  0  0  0
    7.6667  -13.9125    0.0000 C   0  0  0  0  0  0  0  0  0  0  0  0
    6.7250  -12.8292    0.0000 C   0  0  0  0  0  0  0  0  0  0  0  0
    6.2542  -14.1875    0.0000 O   0  0  0  0  0  0  0  0  0  0  0  0
    2.9625   -8.4542    0.0000 C   0  0  0  0  0  0  0  0  0  0  0  0
    9.7167   -9.3125    0.0000 C   0  0  0  0  0  0  0  0  0  0  0  0
   10.1875   -7.9625    0.0000 C   0  0  0  0  0  0  0  0  0  0  0  0
    5.4792  -13.9292    0.0000 C   0  0  0  0  0  0  0  0  0  0  0  0
   10.9542   -8.2167    0.0000 C   0  0  0  0  0  0  0  0  0  0  0  0
   10.4875   -9.5792    0.0000 C   0  0  0  0  0  0  0  0  0  0  0  0
   11.1125   -9.0375    0.0000 C   0  0  0  0  0  0  0  0  0  0  0  0
  2  4  1  0  0  0  0
  3  1  2  0  0  0  0
  4  1  1  0  0  0  0
  5  3  1  0  0  0  0
  6  2  1  0  0  0  0
  7  1  1  0  0  0  0
  8  7  2  0  0  0  0
  9  3  1  0  0  0  0
 10 18  1  0  0  0  0
 11  8  1  0  0  0  0
 12 10  1  0  0  0  0
 13  6  1  0  0  0  0
 14  2  1  0  0  0  0
 15  7  1  0  0  0  0
 16  4  2  0  0  0  0
 17 22  1  0  0  0  0
 18 15  1  0  0  0  0
 19 17  1  0  0  0  0
 20 12  2  0  0  0  0
 21 17  2  0  0  0  0
 22 13  1  0  0  0  0
 23 19  1  0  0  0  0
 24 14  1  0  0  0  0
 25 29  2  0  0  0  0
 26 23  1  0  0  0  0
 27 23  2  0  0  0  0
 28 26  2  0  0  0  0
 29 27  1  0  0  0  0
 30 25  1  0  0  0  0
 31 12  1  0  0  0  0
 32 24  1  0  0  0  0
 33 24  2  0  0  0  0
 34 30  1  0  0  0  0
 35 33  1  0  0  0  0
 36 32  2  0  0  0  0
 37 35  2  0  0  0  0
  9  8  1  0  0  0  0
 10 11  1  0  0  0  0
  6  5  2  0  0  0  0
 36 37  1  0  0  0  0
 25 28  1  0  0  0  0
M  END
> <IDNUMBER>
F3222-1448

> <Chemical_Name>
2-({11-acetyl-4-benzyl-3-oxo-8-thia-4,6,11-triazatricyclo[7.4.0.0^{2,7}]trideca-1(9),2(7),5-trien-5-yl}sulfanyl)-N-(4-methoxyphenyl)acetamide

> <CAS>
1189858-02-3

> <PriceCoeff>
1.00

> <MW>
534.65

> <Description>
solid

> <FSP3>
0.26

> <clogP>
2.46

> <TPSA>
144.85

> <Acceptor>
5

> <Donor>
1

> <RotBonds>
8

> <HAC>
37

> <Collection>
General

> <Reference_compound>
CHEMBL577016

> <Similarity>
0.8650

$$$$
F2047-0205
  -ISIS-  06222321452D

 31 33  0  0  0  0  0  0  0  0999 V2000
   -4.5333    4.9667    0.0000 S   0  0  3  0  0  0  0  0  0  0  0  0
   -3.8708    5.3417    0.0000 C   0  0  3  0  0  0  0  0  0  0  0  0
    0.6792    6.4917    0.0000 N   0  3  0  0  0  0  0  0  0  0  0  0
   -1.2708    5.3542    0.0000 C   0  0  0  0  0  0  0  0  0  0  0  0
   -5.1833    4.5792    0.0000 C   0  0  0  0  0  0  0  0  0  0  0  0
   -1.9083    4.9792    0.0000 C   0  0  0  0  0  0  0  0  0  0  0  0
   -3.8833    6.1042    0.0000 C   0  0  0  0  0  0  0  0  0  0  0  0
   -1.2708    6.1042    0.0000 C   0  0  0  0  0  0  0  0  0  0  0  0
    0.0292    6.1042    0.0000 C   0  0  0  0  0  0  0  0  0  0  0  0
   -0.6208    6.4875    0.0000 C   0  0  0  0  0  0  0  0  0  0  0  0
   -3.2208    4.9792    0.0000 C   0  0  0  0  0  0  0  0  0  0  0  0
   -2.5708    5.3542    0.0000 N   0  0  0  0  0  0  0  0  0  0  0  0
   -0.6208    4.9792    0.0000 C   0  0  0  0  0  0  0  0  0  0  0  0
   -5.8333    4.9542    0.0000 C   0  0  0  0  0  0  0  0  0  0  0  0
   -4.4375    6.6042    0.0000 S   0  0  0  0  0  0  0  0  0  0  0  0
   -4.9083    5.6167    0.0000 O   0  0  0  0  0  0  0  0  0  0  0  0
   -4.1458    4.3125    0.0000 O   0  0  0  0  0  0  0  0  0  0  0  0
    1.3292    6.1167    0.0000 O   0  5  0  0  0  0  0  0  0  0  0  0
   -6.4667    4.5792    0.0000 C   0  0  0  0  0  0  0  0  0  0  0  0
    0.6792    7.2417    0.0000 O   0  0  0  0  0  0  0  0  0  0  0  0
   -6.4667    3.8333    0.0000 C   0  0  0  0  0  0  0  0  0  0  0  0
   -3.2333    6.4792    0.0000 C   0  0  0  0  0  0  0  0  0  0  0  0
    0.0292    5.3542    0.0000 C   0  0  0  0  0  0  0  0  0  0  0  0
   -5.1833    3.8333    0.0000 C   0  0  0  0  0  0  0  0  0  0  0  0
   -4.1333    7.2917    0.0000 C   0  0  0  0  0  0  0  0  0  0  0  0
   -1.9083    4.2292    0.0000 O   0  0  0  0  0  0  0  0  0  0  0  0
   -3.3958    7.2167    0.0000 C   0  0  0  0  0  0  0  0  0  0  0  0
   -5.8333    3.4583    0.0000 C   0  0  0  0  0  0  0  0  0  0  0  0
   -1.9208    6.4917    0.0000 Cl  0  0  0  0  0  0  0  0  0  0  0  0
   -7.1292    3.4583    0.0000 F   0  0  0  0  0  0  0  0  0  0  0  0
   -7.1292    4.9625    0.0000 C   0  0  0  0  0  0  0  0  0  0  0  0
  2  1  1  0  0  0  0
  3  9  1  0  0  0  0
  4  6  1  0  0  0  0
  5  1  1  0  0  0  0
  6 12  1  0  0  0  0
  7  2  1  0  0  0  0
  8  4  1  0  0  0  0
  9 23  2  0  0  0  0
 10  8  2  0  0  0  0
 11  2  1  0  0  0  0
 12 11  1  0  0  0  0
 13  4  2  0  0  0  0
 14  5  2  0  0  0  0
 15  7  1  0  0  0  0
 16  1  2  0  0  0  0
 17  1  2  0  0  0  0
 18  3  1  0  0  0  0
 19 14  1  0  0  0  0
 20  3  2  0  0  0  0
 21 28  1  0  0  0  0
 22  7  2  0  0  0  0
 23 13  1  0  0  0  0
 24  5  1  0  0  0  0
 25 15  1  0  0  0  0
 26  6  2  0  0  0  0
 27 22  1  0  0  0  0
 28 24  2  0  0  0  0
 29  8  1  0  0  0  0
 30 21  1  0  0  0  0
 31 19  1  0  0  0  0
 19 21  2  0  0  0  0
 27 25  2  0  0  0  0
 10  9  1  0  0  0  0
M  CHG  2   3   1  18  -1
M  END
> <IDNUMBER>
F2047-0205

> <Chemical_Name>
2-chloro-N-[2-(4-fluoro-3-methylbenzenesulfonyl)-2-(thiophen-2-yl)ethyl]-4-nitrobenzamide

> <CAS>
896379-24-1

> <PriceCoeff>
1.00

> <MW>
482.93

> <Description>
solid

> <FSP3>
0.15

> <clogP>
3.59

> <TPSA>
143.00

> <Acceptor>
5

> <Donor>
1

> <RotBonds>
7

> <HAC>
31

> <Collection>
General

$$$$
F3222-2461
  -ISIS-  06222321462D

 37 41  0  0  0  0  0  0  0  0999 V2000
    5.4792   -9.0917    0.0000 C   0  0  0  0  0  0  0  0  0  0  0  0
    6.2125   -8.7042    0.0000 C   0  0  0  0  0  0  0  0  0  0  0  0
    4.8167   -7.8167    0.0000 N   0  0  3  0  0  0  0  0  0  0  0  0
    5.5417   -7.4417    0.0000 C   0  0  0  0  0  0  0  0  0  0  0  0
    6.2417   -7.8792    0.0000 N   0  0  0  0  0  0  0  0  0  0  0  0
    4.7792   -8.6417    0.0000 C   0  0  0  0  0  0  0  0  0  0  0  0
    5.6250   -9.9042    0.0000 C   0  0  0  0  0  0  0  0  0  0  0  0
    6.4375  -10.0167    0.0000 C   0  0  0  0  0  0  0  0  0  0  0  0
    6.8042   -9.2917    0.0000 S   0  0  0  0  0  0  0  0  0  0  0  0
    6.2292  -11.4292    0.0000 N   0  0  3  0  0  0  0  0  0  0  0  0
    6.7417  -10.7792    0.0000 C   0  0  0  0  0  0  0  0  0  0  0  0
    5.5792   -6.6167    0.0000 S   0  0  0  0  0  0  0  0  0  0  0  0
    6.5292  -12.2042    0.0000 C   0  0  0  0  0  0  0  0  0  0  0  0
    4.1167   -7.3750    0.0000 C   0  0  0  0  0  0  0  0  0  0  0  0
    5.1167  -10.5500    0.0000 C   0  0  0  0  0  0  0  0  0  0  0  0
    4.0375   -9.0250    0.0000 O   0  0  0  0  0  0  0  0  0  0  0  0
    7.1042   -4.1917    0.0000 C   0  0  0  0  0  0  0  0  0  0  0  0
    6.3417   -5.4042    0.0000 C   0  0  0  0  0  0  0  0  0  0  0  0
    7.0667   -5.0167    0.0000 N   0  0  0  0  0  0  0  0  0  0  0  0
    5.4250  -11.3167    0.0000 C   0  0  0  0  0  0  0  0  0  0  0  0
    7.3500  -12.3292    0.0000 O   0  0  0  0  0  0  0  0  0  0  0  0
    5.6417   -4.9625    0.0000 O   0  0  0  0  0  0  0  0  0  0  0  0
    6.3042   -6.2292    0.0000 C   0  0  0  0  0  0  0  0  0  0  0  0
    3.3917   -7.7625    0.0000 C   0  0  0  0  0  0  0  0  0  0  0  0
    4.1542   -6.5417    0.0000 C   0  0  0  0  0  0  0  0  0  0  0  0
    6.4375   -2.9167    0.0000 C   0  0  0  0  0  0  0  0  0  0  0  0
    7.8667   -2.9792    0.0000 C   0  0  0  0  0  0  0  0  0  0  0  0
    6.4042   -3.7500    0.0000 C   0  0  0  0  0  0  0  0  0  0  0  0
    7.8292   -3.8042    0.0000 C   0  0  0  0  0  0  0  0  0  0  0  0
    7.1667   -2.5417    0.0000 C   0  0  0  0  0  0  0  0  0  0  0  0
    2.6917   -7.3167    0.0000 C   0  0  0  0  0  0  0  0  0  0  0  0
    3.4625   -6.1042    0.0000 C   0  0  0  0  0  0  0  0  0  0  0  0
    2.7292   -6.4917    0.0000 C   0  0  0  0  0  0  0  0  0  0  0  0
    6.0167  -12.8417    0.0000 C   0  0  0  0  0  0  0  0  0  0  0  0
    8.6042   -2.5875    0.0000 C   0  0  0  0  0  0  0  0  0  0  0  0
    5.7292   -2.4667    0.0000 C   0  0  0  0  0  0  0  0  0  0  0  0
    2.0292   -6.0417    0.0000 C   0  0  0  0  0  0  0  0  0  0  0  0
  2  1  2  0  0  0  0
  3  6  1  0  0  0  0
  4  3  1  0  0  0  0
  5  2  1  0  0  0  0
  6  1  1  0  0  0  0
  7  1  1  0  0  0  0
  8  7  2  0  0  0  0
  9  2  1  0  0  0  0
 10 20  1  0  0  0  0
 11  8  1  0  0  0  0
 12  4  1  0  0  0  0
 13 10  1  0  0  0  0
 14  3  1  0  0  0  0
 15  7  1  0  0  0  0
 16  6  2  0  0  0  0
 17 19  1  0  0  0  0
 18 23  1  0  0  0  0
 19 18  1  0  0  0  0
 20 15  1  0  0  0  0
 21 13  2  0  0  0  0
 22 18  2  0  0  0  0
 23 12  1  0  0  0  0
 24 14  1  0  0  0  0
 25 14  2  0  0  0  0
 26 28  2  0  0  0  0
 27 29  1  0  0  0  0
 28 17  1  0  0  0  0
 29 17  2  0  0  0  0
 30 27  2  0  0  0  0
 31 24  2  0  0  0  0
 32 25  1  0  0  0  0
 33 32  2  0  0  0  0
 34 13  1  0  0  0  0
 35 27  1  0  0  0  0
 36 26  1  0  0  0  0
 37 33  1  0  0  0  0
  8  9  1  0  0  0  0
  5  4  2  0  0  0  0
 11 10  1  0  0  0  0
 31 33  1  0  0  0  0
 30 26  1  0  0  0  0
M  END
> <IDNUMBER>
F3222-2461

> <Chemical_Name>
2-{[11-acetyl-4-(4-methylphenyl)-3-oxo-8-thia-4,6,11-triazatricyclo[7.4.0.0^{2,7}]trideca-1(9),2(7),5-trien-5-yl]sulfanyl}-N-(3,5-dimethylphenyl)acetamide

> <CAS>
1184972-49-3

> <PriceCoeff>
1.00

> <MW>
532.68

> <Description>
solid

> <FSP3>
0.29

> <clogP>
4.10

> <TPSA>
135.62

> <Acceptor>
4

> <Donor>
1

> <RotBonds>
6

> <HAC>
37

> <Collection>
General

> <Reference_compound>
CHEMBL577016

> <Similarity>
0.9340

$$$$
F3222-1442
  -ISIS-  06222321442D

 37 41  0  0  0  0  0  0  0  0999 V2000
    7.4375   -9.6167    0.0000 N   0  0  3  0  0  0  0  0  0  0  0  0
    6.2292  -10.3917    0.0000 C   0  0  0  0  0  0  0  0  0  0  0  0
    6.6792  -11.0917    0.0000 C   0  0  0  0  0  0  0  0  0  0  0  0
    7.8917  -10.3250    0.0000 C   0  0  0  0  0  0  0  0  0  0  0  0
    7.5042  -11.0542    0.0000 N   0  0  0  0  0  0  0  0  0  0  0  0
    6.6125   -9.6542    0.0000 C   0  0  0  0  0  0  0  0  0  0  0  0
    5.4375  -10.6042    0.0000 C   0  0  0  0  0  0  0  0  0  0  0  0
    5.3917  -11.4292    0.0000 C   0  0  0  0  0  0  0  0  0  0  0  0
    6.1542  -11.7292    0.0000 S   0  0  0  0  0  0  0  0  0  0  0  0
    3.9625  -11.3500    0.0000 N   0  0  3  0  0  0  0  0  0  0  0  0
    7.8167   -8.8792    0.0000 C   0  0  0  0  0  0  0  0  0  0  0  0
    4.6542  -11.8042    0.0000 C   0  0  0  0  0  0  0  0  0  0  0  0
    8.7167  -10.3042    0.0000 S   0  0  0  0  0  0  0  0  0  0  0  0
    3.2167  -11.7167    0.0000 C   0  0  0  0  0  0  0  0  0  0  0  0
    4.7417  -10.1542    0.0000 C   0  0  0  0  0  0  0  0  0  0  0  0
    6.1667   -8.9542    0.0000 O   0  0  0  0  0  0  0  0  0  0  0  0
   11.2375  -11.6750    0.0000 C   0  0  0  0  0  0  0  0  0  0  0  0
    9.9792  -10.9875    0.0000 C   0  0  0  0  0  0  0  0  0  0  0  0
   10.4042  -11.6917    0.0000 N   0  0  0  0  0  0  0  0  0  0  0  0
    4.0042  -10.5292    0.0000 C   0  0  0  0  0  0  0  0  0  0  0  0
    7.3667   -8.1917    0.0000 C   0  0  0  0  0  0  0  0  0  0  0  0
    3.1542  -12.5375    0.0000 O   0  0  0  0  0  0  0  0  0  0  0  0
   10.3875  -10.2625    0.0000 O   0  0  0  0  0  0  0  0  0  0  0  0
    9.1500  -11.0042    0.0000 C   0  0  0  0  0  0  0  0  0  0  0  0
   12.4667  -10.9375    0.0000 C   0  0  0  0  0  0  0  0  0  0  0  0
   12.4875  -12.3750    0.0000 C   0  0  0  0  0  0  0  0  0  0  0  0
   11.6417  -10.9500    0.0000 C   0  0  0  0  0  0  0  0  0  0  0  0
   11.6542  -12.3792    0.0000 C   0  0  0  0  0  0  0  0  0  0  0  0
   12.9000  -11.6625    0.0000 C   0  0  0  0  0  0  0  0  0  0  0  0
    8.6417   -8.8375    0.0000 C   0  0  0  0  0  0  0  0  0  0  0  0
    2.5292  -11.2542    0.0000 C   0  0  0  0  0  0  0  0  0  0  0  0
    6.5417   -8.2292    0.0000 C   0  0  0  0  0  0  0  0  0  0  0  0
    7.7417   -7.4542    0.0000 C   0  0  0  0  0  0  0  0  0  0  0  0
   12.9125  -13.0917    0.0000 C   0  0  0  0  0  0  0  0  0  0  0  0
   12.8542  -10.2000    0.0000 C   0  0  0  0  0  0  0  0  0  0  0  0
    9.0167   -8.1042    0.0000 C   0  0  0  0  0  0  0  0  0  0  0  0
    8.5667   -7.4042    0.0000 C   0  0  0  0  0  0  0  0  0  0  0  0
  2  6  1  0  0  0  0
  3  2  2  0  0  0  0
  4  1  1  0  0  0  0
  5  4  2  0  0  0  0
  6  1  1  0  0  0  0
  7  2  1  0  0  0  0
  8  7  2  0  0  0  0
  9  3  1  0  0  0  0
 10 20  1  0  0  0  0
 11  1  1  0  0  0  0
 12  8  1  0  0  0  0
 13  4  1  0  0  0  0
 14 10  1  0  0  0  0
 15  7  1  0  0  0  0
 16  6  2  0  0  0  0
 17 19  1  0  0  0  0
 18 24  1  0  0  0  0
 19 18  1  0  0  0  0
 20 15  1  0  0  0  0
 21 11  1  0  0  0  0
 22 14  2  0  0  0  0
 23 18  2  0  0  0  0
 24 13  1  0  0  0  0
 25 27  2  0  0  0  0
 26 28  1  0  0  0  0
 27 17  1  0  0  0  0
 28 17  2  0  0  0  0
 29 26  2  0  0  0  0
 30 11  2  0  0  0  0
 31 14  1  0  0  0  0
 32 21  1  0  0  0  0
 33 21  2  0  0  0  0
 34 26  1  0  0  0  0
 35 25  1  0  0  0  0
 36 30  1  0  0  0  0
 37 36  2  0  0  0  0
  5  3  1  0  0  0  0
 33 37  1  0  0  0  0
  8  9  1  0  0  0  0
 12 10  1  0  0  0  0
 29 25  1  0  0  0  0
M  END
> <IDNUMBER>
F3222-1442

> <Chemical_Name>
2-{[11-acetyl-4-(2-methylphenyl)-3-oxo-8-thia-4,6,11-triazatricyclo[7.4.0.0^{2,7}]trideca-1(9),2(7),5-trien-5-yl]sulfanyl}-N-(3,5-dimethylphenyl)acetamide

> <CAS>
1216843-86-5

> <PriceCoeff>
1.00

> <MW>
532.68

> <Description>
solid

> <FSP3>
0.29

> <clogP>
4.10

> <TPSA>
135.62

> <Acceptor>
4

> <Donor>
1

> <RotBonds>
6

> <HAC>
37

> <Collection>
General

> <Reference_compound>
CHEMBL577016

> <Similarity>
0.9130

$$$$
F3222-2453
  -ISIS-  06222321462D

 37 41  0  0  0  0  0  0  0  0999 V2000
    5.1167   -9.0917    0.0000 C   0  0  0  0  0  0  0  0  0  0  0  0
    4.4000   -8.6750    0.0000 C   0  0  0  0  0  0  0  0  0  0  0  0
    5.8292   -7.8417    0.0000 N   0  0  3  0  0  0  0  0  0  0  0  0
    5.1042   -7.4292    0.0000 C   0  0  0  0  0  0  0  0  0  0  0  0
    4.4000   -7.8417    0.0000 N   0  0  0  0  0  0  0  0  0  0  0  0
    5.8375   -8.6750    0.0000 C   0  0  0  0  0  0  0  0  0  0  0  0
    4.9375   -9.9042    0.0000 C   0  0  0  0  0  0  0  0  0  0  0  0
    4.1250   -9.9917    0.0000 C   0  0  0  0  0  0  0  0  0  0  0  0
    3.7792   -9.2292    0.0000 S   0  0  0  0  0  0  0  0  0  0  0  0
    4.2667  -11.4167    0.0000 N   0  0  3  0  0  0  0  0  0  0  0  0
    3.7792  -10.7417    0.0000 C   0  0  0  0  0  0  0  0  0  0  0  0
    5.1167   -6.6042    0.0000 S   0  0  0  0  0  0  0  0  0  0  0  0
    3.9292  -12.1875    0.0000 C   0  0  0  0  0  0  0  0  0  0  0  0
    6.5542   -7.4292    0.0000 C   0  0  0  0  0  0  0  0  0  0  0  0
    5.4250  -10.5792    0.0000 C   0  0  0  0  0  0  0  0  0  0  0  0
    6.5542   -9.1000    0.0000 O   0  0  0  0  0  0  0  0  0  0  0  0
    5.8292   -5.3750    0.0000 C   0  0  0  0  0  0  0  0  0  0  0  0
    5.0792  -11.3375    0.0000 C   0  0  0  0  0  0  0  0  0  0  0  0
    5.1167   -4.9625    0.0000 N   0  0  0  0  0  0  0  0  0  0  0  0
    3.1042  -12.2792    0.0000 O   0  0  0  0  0  0  0  0  0  0  0  0
    6.5417   -4.9625    0.0000 O   0  0  0  0  0  0  0  0  0  0  0  0
    5.8292   -6.1917    0.0000 C   0  0  0  0  0  0  0  0  0  0  0  0
    6.5542   -6.6042    0.0000 C   0  0  0  0  0  0  0  0  0  0  0  0
    7.2667   -7.8417    0.0000 C   0  0  0  0  0  0  0  0  0  0  0  0
    4.4000   -5.3750    0.0000 C   0  0  0  0  0  0  0  0  0  0  0  0
    7.2667   -6.1917    0.0000 C   0  0  0  0  0  0  0  0  0  0  0  0
    7.9917   -7.4292    0.0000 C   0  0  0  0  0  0  0  0  0  0  0  0
    7.9917   -6.6042    0.0000 C   0  0  0  0  0  0  0  0  0  0  0  0
    2.9625   -6.1917    0.0000 C   0  0  0  0  0  0  0  0  0  0  0  0
    4.4000   -6.1917    0.0000 C   0  0  0  0  0  0  0  0  0  0  0  0
    3.6875   -4.9625    0.0000 C   0  0  0  0  0  0  0  0  0  0  0  0
    3.6875   -6.6042    0.0000 C   0  0  0  0  0  0  0  0  0  0  0  0
    2.9625   -5.3750    0.0000 C   0  0  0  0  0  0  0  0  0  0  0  0
    4.4292  -12.8542    0.0000 C   0  0  0  0  0  0  0  0  0  0  0  0
    2.2417   -6.6125    0.0000 C   0  0  0  0  0  0  0  0  0  0  0  0
    8.7167   -6.1917    0.0000 C   0  0  0  0  0  0  0  0  0  0  0  0
    1.5292   -6.1917    0.0000 C   0  0  0  0  0  0  0  0  0  0  0  0
  2  1  2  0  0  0  0
  3  6  1  0  0  0  0
  4  3  1  0  0  0  0
  5  2  1  0  0  0  0
  6  1  1  0  0  0  0
  7  1  1  0  0  0  0
  8  7  2  0  0  0  0
  9  2  1  0  0  0  0
 10 18  1  0  0  0  0
 11  8  1  0  0  0  0
 12  4  1  0  0  0  0
 13 10  1  0  0  0  0
 14  3  1  0  0  0  0
 15  7  1  0  0  0  0
 16  6  2  0  0  0  0
 17 22  1  0  0  0  0
 18 15  1  0  0  0  0
 19 17  1  0  0  0  0
 20 13  2  0  0  0  0
 21 17  2  0  0  0  0
 22 12  1  0  0  0  0
 23 14  2  0  0  0  0
 24 14  1  0  0  0  0
 25 19  1  0  0  0  0
 26 23  1  0  0  0  0
 27 24  2  0  0  0  0
 28 27  1  0  0  0  0
 29 33  2  0  0  0  0
 30 25  1  0  0  0  0
 31 25  2  0  0  0  0
 32 30  2  0  0  0  0
 33 31  1  0  0  0  0
 34 13  1  0  0  0  0
 35 29  1  0  0  0  0
 36 28  1  0  0  0  0
 37 35  1  0  0  0  0
  8  9  1  0  0  0  0
  5  4  2  0  0  0  0
 11 10  1  0  0  0  0
 26 28  2  0  0  0  0
 32 29  1  0  0  0  0
M  END
> <IDNUMBER>
F3222-2453

> <Chemical_Name>
2-{[11-acetyl-4-(4-methylphenyl)-3-oxo-8-thia-4,6,11-triazatricyclo[7.4.0.0^{2,7}]trideca-1(9),2(7),5-trien-5-yl]sulfanyl}-N-(4-ethylphenyl)acetamide

> <CAS>
1219148-50-1

> <PriceCoeff>
1.00

> <MW>
532.68

> <Description>
solid

> <FSP3>
0.29

> <clogP>
4.13

> <TPSA>
135.62

> <Acceptor>
4

> <Donor>
1

> <RotBonds>
7

> <HAC>
37

> <Collection>
General

> <Reference_compound>
CHEMBL577016

> <Similarity>
0.9340

$$$$
F2707-0552
  -ISIS-  06222321462D

 32 35  0  0  0  0  0  0  0  0999 V2000
   -2.4208    1.8958    0.0000 N   0  0  3  0  0  0  0  0  0  0  0  0
   -1.6625    1.5583    0.0000 C   0  0  0  0  0  0  0  0  0  0  0  0
   -2.4958    2.7208    0.0000 C   0  0  3  0  0  0  0  0  0  0  0  0
   -3.2458    3.0458    0.0000 C   0  0  0  0  0  0  0  0  0  0  0  0
   -1.8333    3.1958    0.0000 C   0  0  0  0  0  0  0  0  0  0  0  0
   -3.9125    2.5708    0.0000 N   0  0  3  0  0  0  0  0  0  0  0  0
   -0.5000    4.1500    0.0000 C   0  0  0  0  0  0  0  0  0  0  0  0
   -1.5833    0.7375    0.0000 N   0  0  0  0  0  0  0  0  0  0  0  0
   -1.2458    4.4917    0.0000 C   0  0  0  0  0  0  0  0  0  0  0  0
   -0.4208    3.3375    0.0000 C   0  0  0  0  0  0  0  0  0  0  0  0
   -3.0833    1.4208    0.0000 C   0  0  0  0  0  0  0  0  0  0  0  0
   -1.9208    4.0042    0.0000 C   0  0  0  0  0  0  0  0  0  0  0  0
   -1.0833    2.8583    0.0000 C   0  0  0  0  0  0  0  0  0  0  0  0
   -3.6708    0.1208    0.0000 C   0  0  0  0  0  0  0  0  0  0  0  0
   -3.0083    0.5958    0.0000 C   0  0  0  0  0  0  0  0  0  0  0  0
   -3.5000    3.8333    0.0000 C   0  0  0  0  0  0  0  0  0  0  0  0
   -0.9958    2.0375    0.0000 O   0  0  0  0  0  0  0  0  0  0  0  0
   -4.5833    3.0458    0.0000 C   0  0  0  0  0  0  0  0  0  0  0  0
   -2.2500    0.2583    0.0000 C   0  0  0  0  0  0  0  0  0  0  0  0
   -3.8333    1.7583    0.0000 C   0  0  0  0  0  0  0  0  0  0  0  0
   -4.3333    3.8333    0.0000 C   0  0  0  0  0  0  0  0  0  0  0  0
   -3.5833   -0.7042    0.0000 C   0  0  0  0  0  0  0  0  0  0  0  0
   -2.8458   -1.0417    0.0000 C   0  0  0  0  0  0  0  0  0  0  0  0
   -4.4208    0.4583    0.0000 Cl  0  0  0  0  0  0  0  0  0  0  0  0
    0.1667    4.6250    0.0000 O   0  0  0  0  0  0  0  0  0  0  0  0
   -2.1708   -0.5667    0.0000 C   0  0  0  0  0  0  0  0  0  0  0  0
   -1.3208    5.3042    0.0000 O   0  0  0  0  0  0  0  0  0  0  0  0
    0.3292    2.9958    0.0000 O   0  0  0  0  0  0  0  0  0  0  0  0
   -4.2583   -1.1792    0.0000 Cl  0  0  0  0  0  0  0  0  0  0  0  0
    0.0792    5.4417    0.0000 C   0  0  0  0  0  0  0  0  0  0  0  0
    0.9917    3.4833    0.0000 C   0  0  0  0  0  0  0  0  0  0  0  0
   -2.0750    5.6417    0.0000 C   0  0  0  0  0  0  0  0  0  0  0  0
  2  1  1  0  0  0  0
  3  1  1  0  0  0  0
  4  3  1  0  0  0  0
  5  3  1  0  0  0  0
  6 20  1  0  0  0  0
  7 10  2  0  0  0  0
  8  2  1  0  0  0  0
  9 12  2  0  0  0  0
 10 13  1  0  0  0  0
 11  1  1  0  0  0  0
 12  5  1  0  0  0  0
 13  5  2  0  0  0  0
 14 15  1  0  0  0  0
 15 19  2  0  0  0  0
 16  4  2  0  0  0  0
 17  2  2  0  0  0  0
 18  6  1  0  0  0  0
 19  8  1  0  0  0  0
 20 11  1  0  0  0  0
 21 16  1  0  0  0  0
 22 23  1  0  0  0  0
 23 26  2  0  0  0  0
 24 14  1  0  0  0  0
 25  7  1  0  0  0  0
 26 19  1  0  0  0  0
 27  9  1  0  0  0  0
 28 10  1  0  0  0  0
 29 22  1  0  0  0  0
 30 25  1  0  0  0  0
 31 28  1  0  0  0  0
 32 27  1  0  0  0  0
  6  4  1  0  0  0  0
  9  7  1  0  0  0  0
 18 21  2  0  0  0  0
 22 14  2  0  0  0  0
M  END
> <IDNUMBER>
F2707-0552

> <Chemical_Name>
N-(3,4-dichlorophenyl)-1-(3,4,5-trimethoxyphenyl)-1H,2H,3H,4H-pyrrolo[1,2-a]pyrazine-2-carboxamide

> <CAS>
899942-66-6

> <PriceCoeff>
1.00

> <MW>
476.35

> <Description>
solid

> <FSP3>
0.26

> <clogP>
4.08

> <TPSA>
64.96

> <Acceptor>
4

> <Donor>
1

> <RotBonds>
6

> <HAC>
32

> <Collection>
General

$$$$
F3222-1437
  -ISIS-  06222321462D

 37 41  0  0  0  0  0  0  0  0999 V2000
    7.2375   -9.5917    0.0000 N   0  0  3  0  0  0  0  0  0  0  0  0
    5.8167   -9.7792    0.0000 C   0  0  0  0  0  0  0  0  0  0  0  0
    5.9292  -10.6042    0.0000 C   0  0  0  0  0  0  0  0  0  0  0  0
    7.3542  -10.4125    0.0000 C   0  0  0  0  0  0  0  0  0  0  0  0
    6.7042  -10.9125    0.0000 N   0  0  0  0  0  0  0  0  0  0  0  0
    6.4667   -9.2792    0.0000 C   0  0  0  0  0  0  0  0  0  0  0  0
    4.9917   -9.6500    0.0000 C   0  0  0  0  0  0  0  0  0  0  0  0
    4.6167  -10.3667    0.0000 C   0  0  0  0  0  0  0  0  0  0  0  0
    5.1792  -10.9667    0.0000 S   0  0  0  0  0  0  0  0  0  0  0  0
    3.3417   -9.7042    0.0000 N   0  0  3  0  0  0  0  0  0  0  0  0
    7.8917   -9.0750    0.0000 C   0  0  0  0  0  0  0  0  0  0  0  0
    3.7792  -10.4042    0.0000 C   0  0  0  0  0  0  0  0  0  0  0  0
    8.1167  -10.7125    0.0000 S   0  0  0  0  0  0  0  0  0  0  0  0
    2.5042   -9.7292    0.0000 C   0  0  0  0  0  0  0  0  0  0  0  0
    4.5500   -8.9500    0.0000 C   0  0  0  0  0  0  0  0  0  0  0  0
    6.3417   -8.4500    0.0000 O   0  0  0  0  0  0  0  0  0  0  0  0
    9.5292  -10.5167    0.0000 C   0  0  0  0  0  0  0  0  0  0  0  0
    3.7167   -8.9792    0.0000 C   0  0  0  0  0  0  0  0  0  0  0  0
    9.6500  -11.3292    0.0000 N   0  0  0  0  0  0  0  0  0  0  0  0
    7.7750   -8.2500    0.0000 C   0  0  0  0  0  0  0  0  0  0  0  0
    2.1042  -10.4625    0.0000 O   0  0  0  0  0  0  0  0  0  0  0  0
   10.1792  -10.0042    0.0000 O   0  0  0  0  0  0  0  0  0  0  0  0
    8.7750  -10.2125    0.0000 C   0  0  0  0  0  0  0  0  0  0  0  0
    9.0000  -11.8375    0.0000 C   0  0  0  0  0  0  0  0  0  0  0  0
    9.1125  -12.6625    0.0000 C   0  0  0  0  0  0  0  0  0  0  0  0
    9.3417  -14.2917    0.0000 C   0  0  0  0  0  0  0  0  0  0  0  0
    9.8792  -12.9667    0.0000 C   0  0  0  0  0  0  0  0  0  0  0  0
    8.4625  -13.1667    0.0000 C   0  0  0  0  0  0  0  0  0  0  0  0
    8.5792  -13.9875    0.0000 C   0  0  0  0  0  0  0  0  0  0  0  0
    9.9917  -13.7917    0.0000 C   0  0  0  0  0  0  0  0  0  0  0  0
    8.6542   -9.3792    0.0000 C   0  0  0  0  0  0  0  0  0  0  0  0
    2.0625   -9.0167    0.0000 C   0  0  0  0  0  0  0  0  0  0  0  0
    7.0042   -7.9417    0.0000 C   0  0  0  0  0  0  0  0  0  0  0  0
    8.4292   -7.7417    0.0000 C   0  0  0  0  0  0  0  0  0  0  0  0
    9.4542  -15.1292    0.0000 C   0  0  0  0  0  0  0  0  0  0  0  0
    9.3125   -8.8792    0.0000 C   0  0  0  0  0  0  0  0  0  0  0  0
    9.1917   -8.0542    0.0000 C   0  0  0  0  0  0  0  0  0  0  0  0
  2  6  1  0  0  0  0
  3  2  2  0  0  0  0
  4  1  1  0  0  0  0
  5  4  2  0  0  0  0
  6  1  1  0  0  0  0
  7  2  1  0  0  0  0
  8  7  2  0  0  0  0
  9  3  1  0  0  0  0
 10 18  1  0  0  0  0
 11  1  1  0  0  0  0
 12  8  1  0  0  0  0
 13  4  1  0  0  0  0
 14 10  1  0  0  0  0
 15  7  1  0  0  0  0
 16  6  2  0  0  0  0
 17 23  1  0  0  0  0
 18 15  1  0  0  0  0
 19 17  1  0  0  0  0
 20 11  1  0  0  0  0
 21 14  2  0  0  0  0
 22 17  2  0  0  0  0
 23 13  1  0  0  0  0
 24 19  1  0  0  0  0
 25 24  1  0  0  0  0
 26 29  1  0  0  0  0
 27 25  2  0  0  0  0
 28 25  1  0  0  0  0
 29 28  2  0  0  0  0
 30 27  1  0  0  0  0
 31 11  2  0  0  0  0
 32 14  1  0  0  0  0
 33 20  1  0  0  0  0
 34 20  2  0  0  0  0
 35 26  1  0  0  0  0
 36 31  1  0  0  0  0
 37 36  2  0  0  0  0
  5  3  1  0  0  0  0
 34 37  1  0  0  0  0
  8  9  1  0  0  0  0
 12 10  1  0  0  0  0
 30 26  2  0  0  0  0
M  END
> <IDNUMBER>
F3222-1437

> <Chemical_Name>
2-{[11-acetyl-4-(2-methylphenyl)-3-oxo-8-thia-4,6,11-triazatricyclo[7.4.0.0^{2,7}]trideca-1(9),2(7),5-trien-5-yl]sulfanyl}-N-[(4-methylphenyl)methyl]acetamide

> <CAS>
1216754-49-2

> <PriceCoeff>
1.00

> <MW>
532.68

> <Description>
solid

> <FSP3>
0.29

> <clogP>
3.50

> <TPSA>
135.62

> <Acceptor>
4

> <Donor>
1

> <RotBonds>
7

> <HAC>
37

> <Collection>
General

> <Reference_compound>
CHEMBL577016

> <Similarity>
0.9130

$$$$
F3222-2468
  -ISIS-  06222321462D

 37 41  0  0  0  0  0  0  0  0999 V2000
    5.4792   -9.0917    0.0000 C   0  0  0  0  0  0  0  0  0  0  0  0
    6.2125   -8.7042    0.0000 C   0  0  0  0  0  0  0  0  0  0  0  0
    4.8167   -7.8167    0.0000 N   0  0  3  0  0  0  0  0  0  0  0  0
    5.5417   -7.4417    0.0000 C   0  0  0  0  0  0  0  0  0  0  0  0
    6.2417   -7.8792    0.0000 N   0  0  0  0  0  0  0  0  0  0  0  0
    4.7792   -8.6417    0.0000 C   0  0  0  0  0  0  0  0  0  0  0  0
    5.6250   -9.9042    0.0000 C   0  0  0  0  0  0  0  0  0  0  0  0
    6.4375  -10.0167    0.0000 C   0  0  0  0  0  0  0  0  0  0  0  0
    6.8042   -9.2917    0.0000 S   0  0  0  0  0  0  0  0  0  0  0  0
    6.2292  -11.4292    0.0000 N   0  0  3  0  0  0  0  0  0  0  0  0
    6.7417  -10.7792    0.0000 C   0  0  0  0  0  0  0  0  0  0  0  0
    5.5792   -6.6167    0.0000 S   0  0  0  0  0  0  0  0  0  0  0  0
    6.5292  -12.2042    0.0000 C   0  0  0  0  0  0  0  0  0  0  0  0
    4.1167   -7.3750    0.0000 C   0  0  0  0  0  0  0  0  0  0  0  0
    5.1167  -10.5500    0.0000 C   0  0  0  0  0  0  0  0  0  0  0  0
    7.8667   -2.9792    0.0000 C   0  0  0  0  0  0  0  0  0  0  0  0
    4.0375   -9.0250    0.0000 O   0  0  0  0  0  0  0  0  0  0  0  0
    7.8292   -3.8042    0.0000 C   0  0  0  0  0  0  0  0  0  0  0  0
    6.3417   -5.4042    0.0000 C   0  0  0  0  0  0  0  0  0  0  0  0
    5.4250  -11.3167    0.0000 C   0  0  0  0  0  0  0  0  0  0  0  0
    7.0667   -5.0167    0.0000 N   0  0  0  0  0  0  0  0  0  0  0  0
    7.1042   -4.1917    0.0000 C   0  0  0  0  0  0  0  0  0  0  0  0
    7.1625   -2.5292    0.0000 C   0  0  0  0  0  0  0  0  0  0  0  0
    7.3500  -12.3292    0.0000 O   0  0  0  0  0  0  0  0  0  0  0  0
    5.6417   -4.9625    0.0000 O   0  0  0  0  0  0  0  0  0  0  0  0
    6.3042   -6.2292    0.0000 C   0  0  0  0  0  0  0  0  0  0  0  0
    4.1625   -6.5500    0.0000 C   0  0  0  0  0  0  0  0  0  0  0  0
    3.3792   -7.7542    0.0000 C   0  0  0  0  0  0  0  0  0  0  0  0
    6.4375   -2.9250    0.0000 C   0  0  0  0  0  0  0  0  0  0  0  0
    8.6042   -2.5917    0.0000 F   0  0  0  0  0  0  0  0  0  0  0  0
    6.4042   -3.7542    0.0000 C   0  0  0  0  0  0  0  0  0  0  0  0
    7.1792   -1.7042    0.0000 F   0  0  0  0  0  0  0  0  0  0  0  0
    2.6917   -7.3042    0.0000 C   0  0  0  0  0  0  0  0  0  0  0  0
    3.4667   -6.1042    0.0000 C   0  0  0  0  0  0  0  0  0  0  0  0
    2.7375   -6.4792    0.0000 C   0  0  0  0  0  0  0  0  0  0  0  0
    6.0167  -12.8417    0.0000 C   0  0  0  0  0  0  0  0  0  0  0  0
    2.0417   -6.0250    0.0000 C   0  0  0  0  0  0  0  0  0  0  0  0
  2  1  2  0  0  0  0
  3  6  1  0  0  0  0
  4  3  1  0  0  0  0
  5  2  1  0  0  0  0
  6  1  1  0  0  0  0
  7  1  1  0  0  0  0
  8  7  2  0  0  0  0
  9  2  1  0  0  0  0
 10 20  1  0  0  0  0
 11  8  1  0  0  0  0
 12  4  1  0  0  0  0
 13 10  1  0  0  0  0
 14  3  1  0  0  0  0
 15  7  1  0  0  0  0
 16 18  2  0  0  0  0
 17  6  2  0  0  0  0
 18 22  1  0  0  0  0
 19 26  1  0  0  0  0
 20 15  1  0  0  0  0
 21 19  1  0  0  0  0
 22 21  1  0  0  0  0
 23 29  2  0  0  0  0
 24 13  2  0  0  0  0
 25 19  2  0  0  0  0
 26 12  1  0  0  0  0
 27 14  2  0  0  0  0
 28 14  1  0  0  0  0
 29 31  1  0  0  0  0
 30 16  1  0  0  0  0
 31 22  2  0  0  0  0
 32 23  1  0  0  0  0
 33 28  2  0  0  0  0
 34 27  1  0  0  0  0
 35 33  1  0  0  0  0
 36 13  1  0  0  0  0
 37 35  1  0  0  0  0
  8  9  1  0  0  0  0
  5  4  2  0  0  0  0
 11 10  1  0  0  0  0
 34 35  2  0  0  0  0
 16 23  1  0  0  0  0
M  END
> <IDNUMBER>
F3222-2468

> <Chemical_Name>
2-{[11-acetyl-4-(4-methylphenyl)-3-oxo-8-thia-4,6,11-triazatricyclo[7.4.0.0^{2,7}]trideca-1(9),2(7),5-trien-5-yl]sulfanyl}-N-(3,4-difluorophenyl)acetamide

> <CAS>
1216750-64-9

> <PriceCoeff>
1.00

> <MW>
540.60

> <Description>
solid

> <FSP3>
0.23

> <clogP>
3.67

> <TPSA>
135.62

> <Acceptor>
4

> <Donor>
1

> <RotBonds>
6

> <HAC>
37

> <Collection>
General

> <Reference_compound>
CHEMBL577016

> <Similarity>
0.8820

$$$$
F2663-0042
  -ISIS-  06222321152D

 32 35  0  0  0  0  0  0  0  0999 V2000
   -2.9500    6.4042    0.0000 S   0  0  3  0  0  0  0  0  0  0  0  0
   -2.3375    5.8542    0.0000 N   0  0  3  0  0  0  0  0  0  0  0  0
   -2.4250    5.0292    0.0000 C   0  0  3  0  0  0  0  0  0  0  0  0
   -5.9708    1.2958    0.0000 N   0  3  0  0  0  0  0  0  0  0  0  0
   -5.2708    1.7333    0.0000 C   0  0  0  0  0  0  0  0  0  0  0  0
   -4.5708    3.8000    0.0000 C   0  0  0  0  0  0  0  0  0  0  0  0
   -3.8583    4.2125    0.0000 N   0  0  3  0  0  0  0  0  0  0  0  0
   -5.2708    2.5458    0.0000 C   0  0  0  0  0  0  0  0  0  0  0  0
   -4.5833    2.9833    0.0000 C   0  0  0  0  0  0  0  0  0  0  0  0
   -3.1458    5.4417    0.0000 C   0  0  0  0  0  0  0  0  0  0  0  0
   -2.4333    4.2125    0.0000 C   0  0  0  0  0  0  0  0  0  0  0  0
   -3.5333    7.0042    0.0000 C   0  0  0  0  0  0  0  0  0  0  0  0
   -2.3833    7.0042    0.0000 O   0  0  0  0  0  0  0  0  0  0  0  0
   -3.5250    5.8042    0.0000 O   0  0  0  0  0  0  0  0  0  0  0  0
   -4.5375    1.3333    0.0000 C   0  0  0  0  0  0  0  0  0  0  0  0
   -5.9583    0.4708    0.0000 O   0  5  0  0  0  0  0  0  0  0  0  0
   -1.6708    4.7042    0.0000 O   0  0  0  0  0  0  0  0  0  0  0  0
   -3.8583    5.0292    0.0000 C   0  0  0  0  0  0  0  0  0  0  0  0
   -3.1458    3.8083    0.0000 C   0  0  0  0  0  0  0  0  0  0  0  0
   -6.6875    1.7125    0.0000 O   0  0  0  0  0  0  0  0  0  0  0  0
   -1.5333    6.0292    0.0000 C   0  0  0  0  0  0  0  0  0  0  0  0
   -5.3083    4.2042    0.0000 O   0  0  0  0  0  0  0  0  0  0  0  0
   -3.8458    2.5833    0.0000 C   0  0  0  0  0  0  0  0  0  0  0  0
   -3.8250    1.7708    0.0000 C   0  0  0  0  0  0  0  0  0  0  0  0
   -4.3458    6.7917    0.0000 C   0  0  0  0  0  0  0  0  0  0  0  0
   -3.3208    7.8042    0.0000 C   0  0  0  0  0  0  0  0  0  0  0  0
   -1.1208    5.3167    0.0000 C   0  0  0  0  0  0  0  0  0  0  0  0
   -4.5333    0.4958    0.0000 Cl  0  0  0  0  0  0  0  0  0  0  0  0
   -4.9250    7.3750    0.0000 C   0  0  0  0  0  0  0  0  0  0  0  0
   -3.9083    8.3917    0.0000 C   0  0  0  0  0  0  0  0  0  0  0  0
   -4.7208    8.1792    0.0000 C   0  0  0  0  0  0  0  0  0  0  0  0
   -5.2958    8.7667    0.0000 C   0  0  0  0  0  0  0  0  0  0  0  0
  2  1  1  0  0  0  0
  3  2  1  0  0  0  0
  4  5  1  0  0  0  0
  5  8  1  0  0  0  0
  6  7  1  0  0  0  0
  7 19  1  0  0  0  0
  8  9  2  0  0  0  0
  9  6  1  0  0  0  0
 10  3  1  0  0  0  0
 11  3  1  0  0  0  0
 12  1  1  0  0  0  0
 13  1  2  0  0  0  0
 14  1  2  0  0  0  0
 15 24  1  0  0  0  0
 16  4  1  0  0  0  0
 17  3  1  0  0  0  0
 18 10  1  0  0  0  0
 19 11  1  0  0  0  0
 20  4  2  0  0  0  0
 21  2  1  0  0  0  0
 22  6  2  0  0  0  0
 23  9  1  0  0  0  0
 24 23  2  0  0  0  0
 25 12  1  0  0  0  0
 26 12  2  0  0  0  0
 27 21  1  0  0  0  0
 28 15  1  0  0  0  0
 29 25  2  0  0  0  0
 30 26  1  0  0  0  0
 31 30  2  0  0  0  0
 32 31  1  0  0  0  0
 17 27  1  0  0  0  0
 29 31  1  0  0  0  0
  7 18  1  0  0  0  0
  5 15  2  0  0  0  0
M  CHG  2   4   1  16  -1
M  END
> <IDNUMBER>
F2663-0042

> <Chemical_Name>
8-(4-chloro-3-nitrobenzoyl)-4-(4-methylbenzenesulfonyl)-1-oxa-4,8-diazaspiro[4.5]decane

> <CAS>
896379-41-2

> <PriceCoeff>
1.00

> <MW>
479.93

> <Description>
solid

> <FSP3>
0.38

> <clogP>
2.94

> <TPSA>
118.44

> <Acceptor>
6

> <Donor>
0

> <RotBonds>
5

> <HAC>
32

> <Collection>
General

$$$$
F2070-1681
  -ISIS-  06222321442D

 26 28  0  0  0  0  0  0  0  0999 V2000
   -3.7833    2.4250    0.0000 N   0  0  3  0  0  0  0  0  0  0  0  0
   -3.1208    2.9083    0.0000 C   0  0  0  0  0  0  0  0  0  0  0  0
    1.8667    3.5333    0.0000 N   0  3  0  0  0  0  0  0  0  0  0  0
    1.0875    3.7958    0.0000 C   0  0  0  0  0  0  0  0  0  0  0  0
   -4.1958    3.6958    0.0000 N   0  0  0  0  0  0  0  0  0  0  0  0
   -4.4583    2.9083    0.0000 N   0  0  0  0  0  0  0  0  0  0  0  0
   -3.3708    3.6958    0.0000 N   0  0  0  0  0  0  0  0  0  0  0  0
    0.4625    3.2458    0.0000 C   0  0  0  0  0  0  0  0  0  0  0  0
   -0.9333    2.9458    0.0000 C   0  0  0  0  0  0  0  0  0  0  0  0
   -0.3208    3.4958    0.0000 C   0  0  0  0  0  0  0  0  0  0  0  0
   -3.7833    1.6000    0.0000 C   0  0  0  0  0  0  0  0  0  0  0  0
   -1.7208    3.2083    0.0000 N   0  0  0  0  0  0  0  0  0  0  0  0
    0.9042    4.6042    0.0000 C   0  0  0  0  0  0  0  0  0  0  0  0
   -2.3333    2.6500    0.0000 C   0  0  0  0  0  0  0  0  0  0  0  0
    2.0417    2.7333    0.0000 O   0  5  0  0  0  0  0  0  0  0  0  0
    2.4875    4.0792    0.0000 O   0  0  0  0  0  0  0  0  0  0  0  0
   -0.7625    2.1458    0.0000 O   0  0  0  0  0  0  0  0  0  0  0  0
   -0.4958    4.3042    0.0000 C   0  0  0  0  0  0  0  0  0  0  0  0
    0.1167    4.8542    0.0000 C   0  0  0  0  0  0  0  0  0  0  0  0
   -4.5000    1.1875    0.0000 C   0  0  0  0  0  0  0  0  0  0  0  0
   -3.0708    1.1833    0.0000 C   0  0  0  0  0  0  0  0  0  0  0  0
   -3.7875   -0.0542    0.0000 C   0  0  0  0  0  0  0  0  0  0  0  0
    1.5250    5.1542    0.0000 Cl  0  0  0  0  0  0  0  0  0  0  0  0
   -3.0708    0.3583    0.0000 C   0  0  0  0  0  0  0  0  0  0  0  0
   -4.5000    0.3625    0.0000 C   0  0  0  0  0  0  0  0  0  0  0  0
   -3.7958   -0.8792    0.0000 F   0  0  0  0  0  0  0  0  0  0  0  0
  2  1  1  0  0  0  0
  3  4  1  0  0  0  0
  4  8  2  0  0  0  0
  5  6  2  0  0  0  0
  6  1  1  0  0  0  0
  7  2  2  0  0  0  0
  8 10  1  0  0  0  0
  9 12  1  0  0  0  0
 10  9  1  0  0  0  0
 11  1  1  0  0  0  0
 12 14  1  0  0  0  0
 13 19  2  0  0  0  0
 14  2  1  0  0  0  0
 15  3  1  0  0  0  0
 16  3  2  0  0  0  0
 17  9  2  0  0  0  0
 18 10  2  0  0  0  0
 19 18  1  0  0  0  0
 20 11  2  0  0  0  0
 21 11  1  0  0  0  0
 22 24  1  0  0  0  0
 23 13  1  0  0  0  0
 24 21  2  0  0  0  0
 25 20  1  0  0  0  0
 26 22  1  0  0  0  0
  5  7  1  0  0  0  0
 22 25  2  0  0  0  0
  4 13  1  0  0  0  0
M  CHG  2   3   1  15  -1
M  END
> <IDNUMBER>
F2070-1681

> <Chemical_Name>
4-chloro-N-{[1-(4-fluorophenyl)-1H-1,2,3,4-tetrazol-5-yl]methyl}-3-nitrobenzamide

> <CAS>
897623-49-3

> <PriceCoeff>
1.00

> <MW>
376.73

> <Description>
solid

> <FSP3>
0.07

> <clogP>
2.51

> <TPSA>
115.84

> <Acceptor>
6

> <Donor>
1

> <RotBonds>
5

> <HAC>
26

> <Collection>
General

$$$$
F0541-0940
  -ISIS-  06222321452D

 31 34  0  0  0  0  0  0  0  0999 V2000
   -3.1750    2.0833    0.0000 C   0  0  0  0  0  0  0  0  0  0  0  0
   -3.8458    2.5708    0.0000 N   0  0  3  0  0  0  0  0  0  0  0  0
   -3.4333    1.2958    0.0000 C   0  0  0  0  0  0  0  0  0  0  0  0
   -4.5208    2.0833    0.0000 N   0  0  0  0  0  0  0  0  0  0  0  0
   -4.2708    1.2958    0.0000 C   0  0  0  0  0  0  0  0  0  0  0  0
   -3.8458    0.0208    0.0000 S   0  0  3  0  0  0  0  0  0  0  0  0
   -2.4458    1.8958    0.0000 N   0  0  0  0  0  0  0  0  0  0  0  0
   -0.0500   -0.2625    0.0000 N   0  3  0  0  0  0  0  0  0  0  0  0
   -0.0208    0.6208    0.0000 C   0  0  0  0  0  0  0  0  0  0  0  0
   -4.5208    0.5083    0.0000 C   0  0  0  0  0  0  0  0  0  0  0  0
   -3.8458    3.4583    0.0000 C   0  0  0  0  0  0  0  0  0  0  0  0
   -1.5125    2.4250    0.0000 C   0  0  0  0  0  0  0  0  0  0  0  0
   -3.1750    0.5083    0.0000 C   0  0  0  0  0  0  0  0  0  0  0  0
   -0.7833    1.0750    0.0000 C   0  0  0  0  0  0  0  0  0  0  0  0
   -3.0708    3.8958    0.0000 C   0  0  0  0  0  0  0  0  0  0  0  0
   -0.7625    1.9708    0.0000 C   0  0  0  0  0  0  0  0  0  0  0  0
   -4.5625   -0.3917    0.0000 O   0  0  0  0  0  0  0  0  0  0  0  0
   -3.2333   -0.3542    0.0000 O   0  0  0  0  0  0  0  0  0  0  0  0
    0.7542    1.0500    0.0000 C   0  0  0  0  0  0  0  0  0  0  0  0
   -0.8208   -0.6917    0.0000 O   0  5  0  0  0  0  0  0  0  0  0  0
    0.7167   -0.7167    0.0000 O   0  0  0  0  0  0  0  0  0  0  0  0
   -1.4833    3.2375    0.0000 O   0  0  0  0  0  0  0  0  0  0  0  0
   -3.0750    4.7750    0.0000 C   0  0  0  0  0  0  0  0  0  0  0  0
    0.0167    2.3958    0.0000 C   0  0  0  0  0  0  0  0  0  0  0  0
    0.7667    1.9333    0.0000 C   0  0  0  0  0  0  0  0  0  0  0  0
    1.5125    0.5958    0.0000 Cl  0  0  0  0  0  0  0  0  0  0  0  0
   -4.6000    3.8958    0.0000 C   0  0  0  0  0  0  0  0  0  0  0  0
   -2.3125    3.4583    0.0000 C   0  0  0  0  0  0  0  0  0  0  0  0
   -4.6083    4.7667    0.0000 C   0  0  0  0  0  0  0  0  0  0  0  0
   -3.8458    5.2167    0.0000 C   0  0  0  0  0  0  0  0  0  0  0  0
   -2.3083    5.2167    0.0000 C   0  0  0  0  0  0  0  0  0  0  0  0
  2  1  1  0  0  0  0
  3  1  2  0  0  0  0
  4  2  1  0  0  0  0
  5  3  1  0  0  0  0
  6 13  1  0  0  0  0
  7  1  1  0  0  0  0
  8  9  1  0  0  0  0
  9 14  1  0  0  0  0
 10  5  1  0  0  0  0
 11  2  1  0  0  0  0
 12  7  1  0  0  0  0
 13  3  1  0  0  0  0
 14 16  2  0  0  0  0
 15 11  2  0  0  0  0
 16 12  1  0  0  0  0
 17  6  2  0  0  0  0
 18  6  2  0  0  0  0
 19 25  1  0  0  0  0
 20  8  1  0  0  0  0
 21  8  2  0  0  0  0
 22 12  2  0  0  0  0
 23 15  1  0  0  0  0
 24 16  1  0  0  0  0
 25 24  2  0  0  0  0
 26 19  1  0  0  0  0
 27 11  1  0  0  0  0
 28 15  1  0  0  0  0
 29 27  2  0  0  0  0
 30 29  1  0  0  0  0
 31 23  1  0  0  0  0
  5  4  2  0  0  0  0
  6 10  1  0  0  0  0
 30 23  2  0  0  0  0
 19  9  2  0  0  0  0
M  CHG  2   8   1  20  -1
M  END
> <IDNUMBER>
F0541-0940

> <Chemical_Name>
4-chloro-N-[2-(2,3-dimethylphenyl)-5,5-dioxo-2H,4H,6H-5lambda6-thieno[3,4-c]pyrazol-3-yl]-3-nitrobenzamide

> <CAS>
450338-95-1

> <PriceCoeff>
1.00

> <MW>
460.89

> <Description>
solid

> <FSP3>
0.20

> <clogP>
2.37

> <TPSA>
132.58

> <Acceptor>
6

> <Donor>
1

> <RotBonds>
4

> <HAC>
31

> <Collection>
General

$$$$
F2510-0141
  -ISIS-  06222321142D

 30 32  0  0  0  0  0  0  0  0999 V2000
   -6.0042    5.5792    0.0000 N   0  3  0  0  0  0  0  0  0  0  0  0
   -5.8083    4.7917    0.0000 C   0  0  0  0  0  0  0  0  0  0  0  0
   -2.9833    2.5583    0.0000 C   0  0  0  0  0  0  0  0  0  0  0  0
    0.5292    1.7000    0.0000 C   0  0  0  0  0  0  0  0  0  0  0  0
   -2.2708    2.9833    0.0000 C   0  0  0  0  0  0  0  0  0  0  0  0
   -3.9958    3.5708    0.0000 C   0  0  0  0  0  0  0  0  0  0  0  0
   -1.5583    2.5583    0.0000 C   0  0  0  0  0  0  0  0  0  0  0  0
   -5.0083    4.5667    0.0000 C   0  0  0  0  0  0  0  0  0  0  0  0
   -3.7833    2.7750    0.0000 O   0  0  0  0  0  0  0  0  0  0  0  0
   -2.9833    1.7333    0.0000 C   0  0  0  0  0  0  0  0  0  0  0  0
    1.1042    2.2875    0.0000 N   0  0  0  0  0  0  0  0  0  0  0  0
    0.7417    0.9208    0.0000 N   0  0  0  0  0  0  0  0  0  0  0  0
   -4.7875    3.7833    0.0000 C   0  0  0  0  0  0  0  0  0  0  0  0
   -1.5583    1.7333    0.0000 C   0  0  0  0  0  0  0  0  0  0  0  0
   -2.2708    1.3250    0.0000 O   0  0  0  0  0  0  0  0  0  0  0  0
   -6.3792    4.1917    0.0000 C   0  0  0  0  0  0  0  0  0  0  0  0
   -5.4375    6.1667    0.0000 O   0  5  0  0  0  0  0  0  0  0  0  0
   -6.8042    5.7917    0.0000 O   0  0  0  0  0  0  0  0  0  0  0  0
   -0.2625    1.9083    0.0000 S   0  0  0  0  0  0  0  0  0  0  0  0
    1.5292    0.7083    0.0000 C   0  0  0  0  0  0  0  0  0  0  0  0
    1.8917    2.0833    0.0000 C   0  0  0  0  0  0  0  0  0  0  0  0
   -3.4083    4.1417    0.0000 O   0  0  0  0  0  0  0  0  0  0  0  0
    2.1167    1.2875    0.0000 C   0  0  0  0  0  0  0  0  0  0  0  0
   -2.2708    3.8000    0.0000 O   0  0  0  0  0  0  0  0  0  0  0  0
   -5.3708    3.2083    0.0000 C   0  0  0  0  0  0  0  0  0  0  0  0
   -6.1542    3.4083    0.0000 C   0  0  0  0  0  0  0  0  0  0  0  0
   -0.8458    1.3208    0.0000 C   0  0  0  0  0  0  0  0  0  0  0  0
   -7.1667    4.4042    0.0000 Cl  0  0  0  0  0  0  0  0  0  0  0  0
    2.4667    2.6708    0.0000 C   0  0  0  0  0  0  0  0  0  0  0  0
    1.7542   -0.0875    0.0000 C   0  0  0  0  0  0  0  0  0  0  0  0
  2  1  1  0  0  0  0
  3  9  1  0  0  0  0
  4 19  1  0  0  0  0
  5  3  1  0  0  0  0
  6 13  1  0  0  0  0
  7  5  1  0  0  0  0
  8  2  2  0  0  0  0
  9  6  1  0  0  0  0
 10  3  2  0  0  0  0
 11  4  2  0  0  0  0
 12  4  1  0  0  0  0
 13  8  1  0  0  0  0
 14 15  1  0  0  0  0
 15 10  1  0  0  0  0
 16  2  1  0  0  0  0
 17  1  1  0  0  0  0
 18  1  2  0  0  0  0
 19 27  1  0  0  0  0
 20 12  2  0  0  0  0
 21 11  1  0  0  0  0
 22  6  2  0  0  0  0
 23 20  1  0  0  0  0
 24  5  2  0  0  0  0
 25 26  1  0  0  0  0
 26 16  2  0  0  0  0
 27 14  1  0  0  0  0
 28 16  1  0  0  0  0
 29 21  1  0  0  0  0
 30 20  1  0  0  0  0
 13 25  2  0  0  0  0
  7 14  2  0  0  0  0
 21 23  2  0  0  0  0
M  CHG  2   1   1  17  -1
M  END
> <IDNUMBER>
F2510-0141

> <Chemical_Name>
6-{[(4,6-dimethylpyrimidin-2-yl)sulfanyl]methyl}-4-oxo-4H-pyran-3-yl 4-chloro-3-nitrobenzoate

> <CAS>
877636-59-4

> <PriceCoeff>
1.00

> <MW>
447.85

> <Description>
solid

> <FSP3>
0.16

> <clogP>
3.14

> <TPSA>
146.82

> <Acceptor>
8

> <Donor>
0

> <RotBonds>
7

> <HAC>
30

> <Collection>
General

$$$$
F0561-0609
  -ISIS-  06222321442D

 30 33  0  0  0  0  0  0  0  0999 V2000
   -3.2708    2.5458    0.0000 C   0  0  0  0  0  0  0  0  0  0  0  0
   -3.0083    1.7583    0.0000 C   0  0  0  0  0  0  0  0  0  0  0  0
   -4.0958    2.5458    0.0000 N   0  0  3  0  0  0  0  0  0  0  0  0
   -4.3458    1.7583    0.0000 N   0  0  0  0  0  0  0  0  0  0  0  0
   -3.6750    1.2750    0.0000 C   0  0  0  0  0  0  0  0  0  0  0  0
   -2.7833    3.2125    0.0000 N   0  0  0  0  0  0  0  0  0  0  0  0
   -1.6750    5.9542    0.0000 N   0  3  0  0  0  0  0  0  0  0  0  0
   -1.3333    5.2042    0.0000 C   0  0  0  0  0  0  0  0  0  0  0  0
   -2.6000    0.4875    0.0000 S   0  0  3  0  0  0  0  0  0  0  0  0
   -1.9708    3.1333    0.0000 C   0  0  0  0  0  0  0  0  0  0  0  0
   -3.4250    0.4875    0.0000 C   0  0  0  0  0  0  0  0  0  0  0  0
   -1.8208    4.5417    0.0000 C   0  0  0  0  0  0  0  0  0  0  0  0
   -2.3458    1.2750    0.0000 C   0  0  0  0  0  0  0  0  0  0  0  0
   -1.4833    3.7958    0.0000 C   0  0  0  0  0  0  0  0  0  0  0  0
   -4.5833    3.2083    0.0000 C   0  0  0  0  0  0  0  0  0  0  0  0
   -0.5250    5.1250    0.0000 C   0  0  0  0  0  0  0  0  0  0  0  0
   -1.2000    6.6250    0.0000 O   0  5  0  0  0  0  0  0  0  0  0  0
   -2.4958    6.0417    0.0000 O   0  0  0  0  0  0  0  0  0  0  0  0
   -2.1125   -0.1792    0.0000 O   0  0  0  0  0  0  0  0  0  0  0  0
   -1.6250    2.3750    0.0000 O   0  0  0  0  0  0  0  0  0  0  0  0
   -0.6625    3.7125    0.0000 C   0  0  0  0  0  0  0  0  0  0  0  0
   -0.1875    4.3667    0.0000 C   0  0  0  0  0  0  0  0  0  0  0  0
   -5.3958    3.1125    0.0000 C   0  0  0  0  0  0  0  0  0  0  0  0
   -4.2458    3.9583    0.0000 C   0  0  0  0  0  0  0  0  0  0  0  0
   -0.0458    5.7792    0.0000 Cl  0  0  0  0  0  0  0  0  0  0  0  0
   -5.5458    4.5250    0.0000 C   0  0  0  0  0  0  0  0  0  0  0  0
   -4.7333    4.6042    0.0000 C   0  0  0  0  0  0  0  0  0  0  0  0
   -5.8833    3.7750    0.0000 C   0  0  0  0  0  0  0  0  0  0  0  0
   -6.0292    5.1792    0.0000 O   0  0  0  0  0  0  0  0  0  0  0  0
   -5.7083    5.9292    0.0000 C   0  0  0  0  0  0  0  0  0  0  0  0
  2  1  2  0  0  0  0
  3  1  1  0  0  0  0
  4  3  1  0  0  0  0
  5  2  1  0  0  0  0
  6  1  1  0  0  0  0
  7  8  1  0  0  0  0
  8 12  2  0  0  0  0
  9 13  1  0  0  0  0
 10  6  1  0  0  0  0
 11  5  1  0  0  0  0
 12 14  1  0  0  0  0
 13  2  1  0  0  0  0
 14 10  1  0  0  0  0
 15  3  1  0  0  0  0
 16 22  2  0  0  0  0
 17  7  1  0  0  0  0
 18  7  2  0  0  0  0
 19  9  2  0  0  0  0
 20 10  2  0  0  0  0
 21 14  2  0  0  0  0
 22 21  1  0  0  0  0
 23 15  2  0  0  0  0
 24 15  1  0  0  0  0
 25 16  1  0  0  0  0
 26 27  1  0  0  0  0
 27 24  2  0  0  0  0
 28 23  1  0  0  0  0
 29 26  1  0  0  0  0
 30 29  1  0  0  0  0
  4  5  2  0  0  0  0
 11  9  1  0  0  0  0
 28 26  2  0  0  0  0
  8 16  1  0  0  0  0
M  CHG  2   7   1  17  -1
M  END
> <IDNUMBER>
F0561-0609

> <Chemical_Name>
4-chloro-N-[2-(4-methoxyphenyl)-5-oxo-2H,4H,6H-5lambda4-thieno[3,4-c]pyrazol-3-yl]-3-nitrobenzamide

> <CAS>
1007192-46-2

> <PriceCoeff>
1.00

> <MW>
446.86

> <Description>
solid

> <FSP3>
0.16

> <clogP>
1.54

> <TPSA>
135.57

> <Acceptor>
6

> <Donor>
1

> <RotBonds>
5

> <HAC>
30

> <Collection>
General

$$$$
F3222-1436
  -ISIS-  06222321462D

 37 41  0  0  0  0  0  0  0  0999 V2000
    7.6750  -10.2792    0.0000 N   0  0  3  0  0  0  0  0  0  0  0  0
    6.2417  -10.3542    0.0000 C   0  0  0  0  0  0  0  0  0  0  0  0
    6.2917  -11.1750    0.0000 C   0  0  0  0  0  0  0  0  0  0  0  0
    7.7167  -11.0917    0.0000 C   0  0  0  0  0  0  0  0  0  0  0  0
    7.0250  -11.5500    0.0000 N   0  0  0  0  0  0  0  0  0  0  0  0
    6.9375   -9.9042    0.0000 C   0  0  0  0  0  0  0  0  0  0  0  0
    5.4500  -10.1417    0.0000 C   0  0  0  0  0  0  0  0  0  0  0  0
    5.0042  -10.8375    0.0000 C   0  0  0  0  0  0  0  0  0  0  0  0
    5.5167  -11.4667    0.0000 S   0  0  0  0  0  0  0  0  0  0  0  0
    3.7875  -10.0667    0.0000 N   0  0  3  0  0  0  0  0  0  0  0  0
    8.3667   -9.8250    0.0000 C   0  0  0  0  0  0  0  0  0  0  0  0
    4.1750  -10.8000    0.0000 C   0  0  0  0  0  0  0  0  0  0  0  0
    8.4667  -11.4625    0.0000 S   0  0  0  0  0  0  0  0  0  0  0  0
    2.9625  -10.0500    0.0000 C   0  0  0  0  0  0  0  0  0  0  0  0
    5.0667   -9.4042    0.0000 C   0  0  0  0  0  0  0  0  0  0  0  0
    6.8917   -9.0792    0.0000 O   0  0  0  0  0  0  0  0  0  0  0  0
    9.2542  -12.6625    0.0000 C   0  0  0  0  0  0  0  0  0  0  0  0
    4.2417   -9.3625    0.0000 C   0  0  0  0  0  0  0  0  0  0  0  0
    9.3042  -13.4875    0.0000 N   0  0  0  0  0  0  0  0  0  0  0  0
   10.8292  -15.0542    0.0000 C   0  0  0  0  0  0  0  0  0  0  0  0
   10.0417  -13.8542    0.0000 C   0  0  0  0  0  0  0  0  0  0  0  0
   10.0917  -14.6792    0.0000 C   0  0  0  0  0  0  0  0  0  0  0  0
   11.5292  -14.5917    0.0000 C   0  0  0  0  0  0  0  0  0  0  0  0
    8.3167   -8.9917    0.0000 C   0  0  0  0  0  0  0  0  0  0  0  0
    2.5292  -10.7542    0.0000 O   0  0  0  0  0  0  0  0  0  0  0  0
    9.9417  -12.2042    0.0000 O   0  0  0  0  0  0  0  0  0  0  0  0
    8.5167  -12.2917    0.0000 C   0  0  0  0  0  0  0  0  0  0  0  0
   11.4792  -13.7667    0.0000 C   0  0  0  0  0  0  0  0  0  0  0  0
   10.7375  -13.4000    0.0000 C   0  0  0  0  0  0  0  0  0  0  0  0
    9.1000  -10.2000    0.0000 C   0  0  0  0  0  0  0  0  0  0  0  0
    2.5667   -9.3292    0.0000 C   0  0  0  0  0  0  0  0  0  0  0  0
   10.8667  -15.8792    0.0000 C   0  0  0  0  0  0  0  0  0  0  0  0
   12.2792  -14.9667    0.0000 C   0  0  0  0  0  0  0  0  0  0  0  0
    7.5750   -8.6125    0.0000 C   0  0  0  0  0  0  0  0  0  0  0  0
    9.0042   -8.5417    0.0000 C   0  0  0  0  0  0  0  0  0  0  0  0
    9.7917   -9.7417    0.0000 C   0  0  0  0  0  0  0  0  0  0  0  0
    9.7417   -8.9167    0.0000 C   0  0  0  0  0  0  0  0  0  0  0  0
  2  6  1  0  0  0  0
  3  2  2  0  0  0  0
  4  1  1  0  0  0  0
  5  4  2  0  0  0  0
  6  1  1  0  0  0  0
  7  2  1  0  0  0  0
  8  7  2  0  0  0  0
  9  3  1  0  0  0  0
 10 18  1  0  0  0  0
 11  1  1  0  0  0  0
 12  8  1  0  0  0  0
 13  4  1  0  0  0  0
 14 10  1  0  0  0  0
 15  7  1  0  0  0  0
 16  6  2  0  0  0  0
 17 27  1  0  0  0  0
 18 15  1  0  0  0  0
 19 17  1  0  0  0  0
 20 22  2  0  0  0  0
 21 19  1  0  0  0  0
 22 21  1  0  0  0  0
 23 28  2  0  0  0  0
 24 11  1  0  0  0  0
 25 14  2  0  0  0  0
 26 17  2  0  0  0  0
 27 13  1  0  0  0  0
 28 29  1  0  0  0  0
 29 21  2  0  0  0  0
 30 11  2  0  0  0  0
 31 14  1  0  0  0  0
 32 20  1  0  0  0  0
 33 23  1  0  0  0  0
 34 24  1  0  0  0  0
 35 24  2  0  0  0  0
 36 30  1  0  0  0  0
 37 36  2  0  0  0  0
  5  3  1  0  0  0  0
 35 37  1  0  0  0  0
  8  9  1  0  0  0  0
 12 10  1  0  0  0  0
 20 23  1  0  0  0  0
M  END
> <IDNUMBER>
F3222-1436

> <Chemical_Name>
2-{[11-acetyl-4-(2-methylphenyl)-3-oxo-8-thia-4,6,11-triazatricyclo[7.4.0.0^{2,7}]trideca-1(9),2(7),5-trien-5-yl]sulfanyl}-N-(3,4-dimethylphenyl)acetamide

> <CAS>
1189691-40-4

> <PriceCoeff>
1.00

> <MW>
532.68

> <Description>
solid

> <FSP3>
0.29

> <clogP>
4.05

> <TPSA>
135.62

> <Acceptor>
4

> <Donor>
1

> <RotBonds>
6

> <HAC>
37

> <Collection>
General

> <Reference_compound>
CHEMBL577016

> <Similarity>
0.9130

$$$$
F3385-1046
  -ISIS-  06222321152D

 30 33  0  0  0  0  0  0  0  0999 V2000
    3.0792   -1.8917    0.0000 C   0  0  0  0  0  0  0  0  0  0  0  0
    1.6417   -1.0667    0.0000 C   0  0  0  0  0  0  0  0  0  0  0  0
    1.6417   -1.9000    0.0000 C   0  0  0  0  0  0  0  0  0  0  0  0
    2.3625   -2.3042    0.0000 C   0  0  0  0  0  0  0  0  0  0  0  0
    0.9250   -0.6542    0.0000 C   0  0  0  0  0  0  0  0  0  0  0  0
    2.3542   -0.6417    0.0000 O   0  0  0  0  0  0  0  0  0  0  0  0
    3.0792   -1.0542    0.0000 C   0  0  0  0  0  0  0  0  0  0  0  0
    0.9250   -2.3042    0.0000 C   0  0  0  0  0  0  0  0  0  0  0  0
    3.7917   -2.3000    0.0000 C   0  0  0  0  0  0  0  0  0  0  0  0
    0.9167    0.1708    0.0000 C   0  0  0  0  0  0  0  0  0  0  0  0
    0.2125   -1.0667    0.0000 C   0  0  0  0  0  0  0  0  0  0  0  0
    2.3667   -3.1292    0.0000 O   0  0  0  0  0  0  0  0  0  0  0  0
    0.2042    0.5833    0.0000 N   0  0  3  0  0  0  0  0  0  0  0  0
    0.2125   -1.8917    0.0000 C   0  0  0  0  0  0  0  0  0  0  0  0
    3.7917   -3.1292    0.0000 C   0  0  0  0  0  0  0  0  0  0  0  0
    4.5042   -1.8875    0.0000 C   0  0  0  0  0  0  0  0  0  0  0  0
   -0.5083    0.1708    0.0000 C   0  0  0  0  0  0  0  0  0  0  0  0
    5.2250   -3.1250    0.0000 C   0  0  0  0  0  0  0  0  0  0  0  0
    4.5125   -3.5375    0.0000 C   0  0  0  0  0  0  0  0  0  0  0  0
    5.2167   -2.2917    0.0000 C   0  0  0  0  0  0  0  0  0  0  0  0
   -0.5000   -0.6542    0.0000 O   0  0  0  0  0  0  0  0  0  0  0  0
   -1.2208    0.5750    0.0000 C   0  0  0  0  0  0  0  0  0  0  0  0
    5.9375   -3.5292    0.0000 O   0  0  0  0  0  0  0  0  0  0  0  0
    0.2042    1.4083    0.0000 C   0  0  0  0  0  0  0  0  0  0  0  0
   -1.9333    0.1583    0.0000 C   0  0  0  0  0  0  0  0  0  0  0  0
   -1.2208    1.4000    0.0000 C   0  0  0  0  0  0  0  0  0  0  0  0
    6.6500   -3.1167    0.0000 C   0  0  0  0  0  0  0  0  0  0  0  0
   -2.6458    0.5708    0.0000 C   0  0  0  0  0  0  0  0  0  0  0  0
   -1.9375    1.8083    0.0000 C   0  0  0  0  0  0  0  0  0  0  0  0
   -2.6500    1.3958    0.0000 C   0  0  0  0  0  0  0  0  0  0  0  0
  2  6  1  0  0  0  0
  3  4  1  0  0  0  0
  4  1  1  0  0  0  0
  5  2  2  0  0  0  0
  6  7  1  0  0  0  0
  7  1  2  0  0  0  0
  8  3  2  0  0  0  0
  9  1  1  0  0  0  0
 10  5  1  0  0  0  0
 11  5  1  0  0  0  0
 12  4  2  0  0  0  0
 13 10  1  0  0  0  0
 14  8  1  0  0  0  0
 15  9  2  0  0  0  0
 16  9  1  0  0  0  0
 17 13  1  0  0  0  0
 18 20  1  0  0  0  0
 19 15  1  0  0  0  0
 20 16  2  0  0  0  0
 21 11  1  0  0  0  0
 22 17  1  0  0  0  0
 23 18  1  0  0  0  0
 24 13  1  0  0  0  0
 25 22  1  0  0  0  0
 26 22  2  0  0  0  0
 27 23  1  0  0  0  0
 28 25  2  0  0  0  0
 29 26  1  0  0  0  0
 30 29  2  0  0  0  0
  2  3  1  0  0  0  0
 19 18  2  0  0  0  0
 11 14  2  0  0  0  0
 28 30  1  0  0  0  0
M  END
> <IDNUMBER>
F3385-1046

> <Chemical_Name>
8-{[benzyl(methyl)amino]methyl}-7-hydroxy-3-(4-methoxyphenyl)-4H-chromen-4-one

> <CAS>
845663-71-0

> <PriceCoeff>
1.00

> <MW>
401.45

> <Description>
solid

> <FSP3>
0.16

> <clogP>
4.20

> <TPSA>
59.00

> <Acceptor>
4

> <Donor>
2

> <RotBonds>
6

> <HAC>
30

> <Collection>
General

> <Reference_compound>
CHEMBL44

> <Similarity>
0.8240

$$$$
F3139-0818
  -ISIS-  06222321462D

 26 29  0  0  0  0  0  0  0  0999 V2000
    2.5750   -1.7875    0.0000 C   0  0  0  0  0  0  0  0  0  0  0  0
    1.8542   -2.2042    0.0000 C   0  0  0  0  0  0  0  0  0  0  0  0
    1.1375   -1.7917    0.0000 C   0  0  0  0  0  0  0  0  0  0  0  0
    2.5667   -0.9542    0.0000 C   0  0  0  0  0  0  0  0  0  0  0  0
    1.1292   -0.9625    0.0000 C   0  0  0  0  0  0  0  0  0  0  0  0
    1.8500   -0.5417    0.0000 O   0  0  0  0  0  0  0  0  0  0  0  0
    0.4167   -2.2000    0.0000 C   0  0  0  0  0  0  0  0  0  0  0  0
    0.4250   -0.5542    0.0000 C   0  0  0  0  0  0  0  0  0  0  0  0
    3.2875   -2.1917    0.0000 C   0  0  0  0  0  0  0  0  0  0  0  0
    1.8625   -3.0292    0.0000 O   0  0  0  0  0  0  0  0  0  0  0  0
   -0.2875   -0.9667    0.0000 C   0  0  0  0  0  0  0  0  0  0  0  0
   -1.0000   -0.5542    0.0000 O   0  0  0  0  0  0  0  0  0  0  0  0
   -0.2875   -1.7875    0.0000 C   0  0  0  0  0  0  0  0  0  0  0  0
   -2.4333   -0.5417    0.0000 C   0  0  0  0  0  0  0  0  0  0  0  0
   -1.7208   -0.9625    0.0000 C   0  0  0  0  0  0  0  0  0  0  0  0
   -3.8583    0.2958    0.0000 C   0  0  0  0  0  0  0  0  0  0  0  0
   -3.1583   -0.9417    0.0000 C   0  0  0  0  0  0  0  0  0  0  0  0
   -2.4333    0.2958    0.0000 C   0  0  0  0  0  0  0  0  0  0  0  0
   -3.8708   -0.5292    0.0000 C   0  0  0  0  0  0  0  0  0  0  0  0
   -3.1458    0.7083    0.0000 C   0  0  0  0  0  0  0  0  0  0  0  0
    3.9917   -1.7792    0.0000 C   0  0  0  0  0  0  0  0  0  0  0  0
    3.2875   -3.0167    0.0000 C   0  0  0  0  0  0  0  0  0  0  0  0
   -4.5708    0.7083    0.0000 C   0  0  0  0  0  0  0  0  0  0  0  0
    4.7125   -2.1792    0.0000 C   0  0  0  0  0  0  0  0  0  0  0  0
    4.0000   -3.4292    0.0000 C   0  0  0  0  0  0  0  0  0  0  0  0
    4.7167   -3.0125    0.0000 C   0  0  0  0  0  0  0  0  0  0  0  0
  2  1  1  0  0  0  0
  3  2  1  0  0  0  0
  4  1  2  0  0  0  0
  5  6  1  0  0  0  0
  6  4  1  0  0  0  0
  7  3  2  0  0  0  0
  8  5  2  0  0  0  0
  9  1  1  0  0  0  0
 10  2  2  0  0  0  0
 11  8  1  0  0  0  0
 12 11  1  0  0  0  0
 13  7  1  0  0  0  0
 14 15  1  0  0  0  0
 15 12  1  0  0  0  0
 16 20  1  0  0  0  0
 17 14  2  0  0  0  0
 18 14  1  0  0  0  0
 19 17  1  0  0  0  0
 20 18  2  0  0  0  0
 21  9  1  0  0  0  0
 22  9  2  0  0  0  0
 23 16  1  0  0  0  0
 24 21  2  0  0  0  0
 25 22  1  0  0  0  0
 26 25  2  0  0  0  0
  5  3  1  0  0  0  0
 24 26  1  0  0  0  0
 11 13  2  0  0  0  0
 19 16  2  0  0  0  0
M  END
> <IDNUMBER>
F3139-0818

> <Chemical_Name>
7-[(4-methylphenyl)methoxy]-3-phenyl-4H-chromen-4-one

> <CAS>
449738-91-4

> <PriceCoeff>
1.00

> <MW>
342.39

> <Description>
solid

> <FSP3>
0.09

> <clogP>
5.35

> <TPSA>
35.53

> <Acceptor>
3

> <Donor>
0

> <RotBonds>
4

> <HAC>
26

> <Collection>
General

> <Reference_compound>
CHEMBL44

> <Similarity>
0.8640

$$$$
F3385-0012
  -ISIS-  06222321152D

 27 30  0  0  0  0  0  0  0  0999 V2000
    2.9792   -2.2875    0.0000 C   0  0  0  0  0  0  0  0  0  0  0  0
    2.2667   -2.7000    0.0000 C   0  0  0  0  0  0  0  0  0  0  0  0
    1.5542   -2.2875    0.0000 C   0  0  0  0  0  0  0  0  0  0  0  0
    2.9792   -1.4625    0.0000 C   0  0  0  0  0  0  0  0  0  0  0  0
    1.5542   -1.4625    0.0000 C   0  0  0  0  0  0  0  0  0  0  0  0
    2.2667   -1.0500    0.0000 O   0  0  0  0  0  0  0  0  0  0  0  0
    0.8417   -2.7000    0.0000 C   0  0  0  0  0  0  0  0  0  0  0  0
    0.8417   -1.0500    0.0000 C   0  0  0  0  0  0  0  0  0  0  0  0
   -2.0250   -1.0375    0.0000 C   0  0  0  0  0  0  0  0  0  0  0  0
    3.6917   -2.7000    0.0000 C   0  0  0  0  0  0  0  0  0  0  0  0
    2.2667   -3.5250    0.0000 O   0  0  0  0  0  0  0  0  0  0  0  0
   -1.3125   -1.4542    0.0000 C   0  0  0  0  0  0  0  0  0  0  0  0
   -2.0208   -0.2167    0.0000 O   0  0  0  0  0  0  0  0  0  0  0  0
   -2.7375   -1.4500    0.0000 C   0  0  0  0  0  0  0  0  0  0  0  0
    0.1250   -1.4625    0.0000 C   0  0  0  0  0  0  0  0  0  0  0  0
   -0.5958   -1.0500    0.0000 O   0  0  0  0  0  0  0  0  0  0  0  0
    0.1250   -2.2875    0.0000 C   0  0  0  0  0  0  0  0  0  0  0  0
    4.4167   -2.2875    0.0000 C   0  0  0  0  0  0  0  0  0  0  0  0
    3.6917   -3.5292    0.0000 C   0  0  0  0  0  0  0  0  0  0  0  0
   -3.4458   -1.0375    0.0000 C   0  0  0  0  0  0  0  0  0  0  0  0
   -2.7333   -2.2667    0.0000 C   0  0  0  0  0  0  0  0  0  0  0  0
    4.4042   -3.9417    0.0000 C   0  0  0  0  0  0  0  0  0  0  0  0
   -4.1583   -1.4500    0.0000 C   0  0  0  0  0  0  0  0  0  0  0  0
   -3.4458   -2.6792    0.0000 C   0  0  0  0  0  0  0  0  0  0  0  0
    5.1292   -2.7000    0.0000 C   0  0  0  0  0  0  0  0  0  0  0  0
    5.1250   -3.5250    0.0000 C   0  0  0  0  0  0  0  0  0  0  0  0
   -4.1583   -2.2667    0.0000 C   0  0  0  0  0  0  0  0  0  0  0  0
  2  1  1  0  0  0  0
  3  2  1  0  0  0  0
  4  1  2  0  0  0  0
  5  6  1  0  0  0  0
  6  4  1  0  0  0  0
  7  3  2  0  0  0  0
  8  5  2  0  0  0  0
  9 12  1  0  0  0  0
 10  1  1  0  0  0  0
 11  2  2  0  0  0  0
 12 16  1  0  0  0  0
 13  9  2  0  0  0  0
 14  9  1  0  0  0  0
 15  8  1  0  0  0  0
 16 15  1  0  0  0  0
 17  7  1  0  0  0  0
 18 10  1  0  0  0  0
 19 10  2  0  0  0  0
 20 14  2  0  0  0  0
 21 14  1  0  0  0  0
 22 19  1  0  0  0  0
 23 20  1  0  0  0  0
 24 21  2  0  0  0  0
 25 18  2  0  0  0  0
 26 22  2  0  0  0  0
 27 24  1  0  0  0  0
  5  3  1  0  0  0  0
 25 26  1  0  0  0  0
 15 17  2  0  0  0  0
 23 27  2  0  0  0  0
M  END
> <IDNUMBER>
F3385-0012

> <Chemical_Name>
7-(2-oxo-2-phenylethoxy)-3-phenyl-4H-chromen-4-one

> <CAS>
618390-20-8

> <PriceCoeff>
1.00

> <MW>
356.37

> <Description>
solid

> <FSP3>
0.04

> <clogP>
4.04

> <TPSA>
52.60

> <Acceptor>
4

> <Donor>
0

> <RotBonds>
5

> <HAC>
27

> <Collection>
General

> <Reference_compound>
CHEMBL44

> <Similarity>
0.8470

$$$$
F3222-2465
  -ISIS-  06222321152D

 38 42  0  0  0  0  0  0  0  0999 V2000
    5.3167  -10.6917    0.0000 C   0  0  0  0  0  0  0  0  0  0  0  0
    4.5875  -10.3125    0.0000 C   0  0  0  0  0  0  0  0  0  0  0  0
    5.9792   -9.4250    0.0000 N   0  0  3  0  0  0  0  0  0  0  0  0
    5.2542   -9.0417    0.0000 C   0  0  0  0  0  0  0  0  0  0  0  0
    4.5542   -9.4792    0.0000 N   0  0  0  0  0  0  0  0  0  0  0  0
    6.0167  -10.2500    0.0000 C   0  0  0  0  0  0  0  0  0  0  0  0
    5.1750  -11.5042    0.0000 C   0  0  0  0  0  0  0  0  0  0  0  0
    4.3625  -11.6250    0.0000 C   0  0  0  0  0  0  0  0  0  0  0  0
    3.9917  -10.8917    0.0000 S   0  0  0  0  0  0  0  0  0  0  0  0
    4.5667  -13.0375    0.0000 N   0  0  3  0  0  0  0  0  0  0  0  0
    4.0542  -12.3875    0.0000 C   0  0  0  0  0  0  0  0  0  0  0  0
    5.2167   -8.2167    0.0000 S   0  0  0  0  0  0  0  0  0  0  0  0
    4.2667  -13.8042    0.0000 C   0  0  0  0  0  0  0  0  0  0  0  0
    6.6792   -8.9792    0.0000 C   0  0  0  0  0  0  0  0  0  0  0  0
    5.6792  -12.1542    0.0000 C   0  0  0  0  0  0  0  0  0  0  0  0
    6.7625  -10.6292    0.0000 O   0  0  0  0  0  0  0  0  0  0  0  0
    4.4542   -7.0042    0.0000 C   0  0  0  0  0  0  0  0  0  0  0  0
    5.3750  -12.9167    0.0000 C   0  0  0  0  0  0  0  0  0  0  0  0
    2.9292   -4.5792    0.0000 C   0  0  0  0  0  0  0  0  0  0  0  0
    3.7292   -6.6167    0.0000 N   0  0  0  0  0  0  0  0  0  0  0  0
    2.1917   -4.1917    0.0000 C   0  0  0  0  0  0  0  0  0  0  0  0
    2.9667   -5.4042    0.0000 C   0  0  0  0  0  0  0  0  0  0  0  0
    3.6917   -5.7917    0.0000 C   0  0  0  0  0  0  0  0  0  0  0  0
    3.4500  -13.9375    0.0000 O   0  0  0  0  0  0  0  0  0  0  0  0
    5.1542   -6.5667    0.0000 O   0  0  0  0  0  0  0  0  0  0  0  0
    2.1542   -3.3667    0.0000 O   0  0  0  0  0  0  0  0  0  0  0  0
    4.4917   -7.8292    0.0000 C   0  0  0  0  0  0  0  0  0  0  0  0
    7.4042   -9.3667    0.0000 C   0  0  0  0  0  0  0  0  0  0  0  0
    6.6417   -8.1500    0.0000 C   0  0  0  0  0  0  0  0  0  0  0  0
    7.3375   -7.7125    0.0000 C   0  0  0  0  0  0  0  0  0  0  0  0
    8.1042   -8.9250    0.0000 C   0  0  0  0  0  0  0  0  0  0  0  0
    8.0667   -8.1000    0.0000 C   0  0  0  0  0  0  0  0  0  0  0  0
    4.7792  -14.4500    0.0000 C   0  0  0  0  0  0  0  0  0  0  0  0
    3.6375   -4.1292    0.0000 C   0  0  0  0  0  0  0  0  0  0  0  0
    4.3625   -4.5292    0.0000 C   0  0  0  0  0  0  0  0  0  0  0  0
    4.3917   -5.3542    0.0000 C   0  0  0  0  0  0  0  0  0  0  0  0
    1.4917   -4.6500    0.0000 C   0  0  0  0  0  0  0  0  0  0  0  0
    8.7667   -7.6500    0.0000 C   0  0  0  0  0  0  0  0  0  0  0  0
  2  1  2  0  0  0  0
  3  6  1  0  0  0  0
  4  3  1  0  0  0  0
  5  2  1  0  0  0  0
  6  1  1  0  0  0  0
  7  1  1  0  0  0  0
  8  7  2  0  0  0  0
  9  2  1  0  0  0  0
 10 18  1  0  0  0  0
 11  8  1  0  0  0  0
 12  4  1  0  0  0  0
 13 10  1  0  0  0  0
 14  3  1  0  0  0  0
 15  7  1  0  0  0  0
 16  6  2  0  0  0  0
 17 27  1  0  0  0  0
 18 15  1  0  0  0  0
 19 22  1  0  0  0  0
 20 17  1  0  0  0  0
 21 19  1  0  0  0  0
 22 23  2  0  0  0  0
 23 20  1  0  0  0  0
 24 13  2  0  0  0  0
 25 17  2  0  0  0  0
 26 21  2  0  0  0  0
 27 12  1  0  0  0  0
 28 14  1  0  0  0  0
 29 14  2  0  0  0  0
 30 29  1  0  0  0  0
 31 28  2  0  0  0  0
 32 30  2  0  0  0  0
 33 13  1  0  0  0  0
 34 35  1  0  0  0  0
 35 36  2  0  0  0  0
 36 23  1  0  0  0  0
 37 21  1  0  0  0  0
 38 32  1  0  0  0  0
  9  8  1  0  0  0  0
  4  5  2  0  0  0  0
 10 11  1  0  0  0  0
 32 31  1  0  0  0  0
 34 19  2  0  0  0  0
M  END
> <IDNUMBER>
F3222-2465

> <Chemical_Name>
2-{[11-acetyl-4-(4-methylphenyl)-3-oxo-8-thia-4,6,11-triazatricyclo[7.4.0.0^{2,7}]trideca-1(9),2(7),5-trien-5-yl]sulfanyl}-N-(3-acetylphenyl)acetamide

> <CAS>
1189470-35-6

> <PriceCoeff>
1.00

> <MW>
546.66

> <Description>
solid

> <FSP3>
0.25

> <clogP>
3.01

> <TPSA>
152.69

> <Acceptor>
5

> <Donor>
1

> <RotBonds>
7

> <HAC>
38

> <Collection>
General

> <Reference_compound>
CHEMBL577016

> <Similarity>
0.9150

$$$$
F3222-1451
  -ISIS-  06222321462D

 36 40  0  0  0  0  0  0  0  0999 V2000
    5.8292   -9.7042    0.0000 C   0  0  0  0  0  0  0  0  0  0  0  0
    7.2167   -9.3917    0.0000 N   0  0  3  0  0  0  0  0  0  0  0  0
    6.0042  -10.5167    0.0000 C   0  0  0  0  0  0  0  0  0  0  0  0
    6.4250   -9.1500    0.0000 C   0  0  0  0  0  0  0  0  0  0  0  0
    6.7917  -10.7542    0.0000 N   0  0  0  0  0  0  0  0  0  0  0  0
    7.4000  -10.2000    0.0000 C   0  0  0  0  0  0  0  0  0  0  0  0
    4.9917   -9.6292    0.0000 C   0  0  0  0  0  0  0  0  0  0  0  0
    4.6667  -10.4000    0.0000 C   0  0  0  0  0  0  0  0  0  0  0  0
    5.2917  -10.9500    0.0000 S   0  0  0  0  0  0  0  0  0  0  0  0
    3.3375   -9.8417    0.0000 N   0  0  3  0  0  0  0  0  0  0  0  0
    3.8375  -10.5042    0.0000 C   0  0  0  0  0  0  0  0  0  0  0  0
    2.5042   -9.9417    0.0000 C   0  0  0  0  0  0  0  0  0  0  0  0
    8.1917  -10.4417    0.0000 S   0  0  0  0  0  0  0  0  0  0  0  0
    7.8167   -8.8292    0.0000 C   0  0  0  0  0  0  0  0  0  0  0  0
    4.4917   -8.9667    0.0000 C   0  0  0  0  0  0  0  0  0  0  0  0
    6.2292   -8.3375    0.0000 O   0  0  0  0  0  0  0  0  0  0  0  0
    7.7750  -11.8125    0.0000 C   0  0  0  0  0  0  0  0  0  0  0  0
    3.6542   -9.0792    0.0000 C   0  0  0  0  0  0  0  0  0  0  0  0
    6.9792  -11.5667    0.0000 N   0  0  0  0  0  0  0  0  0  0  0  0
    6.3542  -12.1417    0.0000 C   0  0  0  0  0  0  0  0  0  0  0  0
    2.1917  -10.7042    0.0000 O   0  0  0  0  0  0  0  0  0  0  0  0
    5.5750  -11.9125    0.0000 C   0  0  0  0  0  0  0  0  0  0  0  0
    7.9542  -12.6167    0.0000 O   0  0  0  0  0  0  0  0  0  0  0  0
    8.3750  -11.2500    0.0000 C   0  0  0  0  0  0  0  0  0  0  0  0
    4.9625  -12.4667    0.0000 C   0  0  0  0  0  0  0  0  0  0  0  0
    8.6125   -9.0667    0.0000 C   0  0  0  0  0  0  0  0  0  0  0  0
    4.1667  -12.2292    0.0000 Cl  0  0  0  0  0  0  0  0  0  0  0  0
    2.0042   -9.2875    0.0000 C   0  0  0  0  0  0  0  0  0  0  0  0
    5.9417  -13.5042    0.0000 C   0  0  0  0  0  0  0  0  0  0  0  0
    6.5500  -12.9417    0.0000 C   0  0  0  0  0  0  0  0  0  0  0  0
    5.1417  -13.2625    0.0000 C   0  0  0  0  0  0  0  0  0  0  0  0
    8.7917   -9.8792    0.0000 C   0  0  0  0  0  0  0  0  0  0  0  0
    9.2167   -8.5125    0.0000 C   0  0  0  0  0  0  0  0  0  0  0  0
    9.5792  -10.1250    0.0000 C   0  0  0  0  0  0  0  0  0  0  0  0
    9.9917   -8.7417    0.0000 C   0  0  0  0  0  0  0  0  0  0  0  0
   10.1792   -9.5542    0.0000 C   0  0  0  0  0  0  0  0  0  0  0  0
  2  4  1  0  0  0  0
  3  1  2  0  0  0  0
  4  1  1  0  0  0  0
  5  3  1  0  0  0  0
  6  2  1  0  0  0  0
  7  1  1  0  0  0  0
  8  7  2  0  0  0  0
  9  3  1  0  0  0  0
 10 18  1  0  0  0  0
 11  8  1  0  0  0  0
 12 10  1  0  0  0  0
 13  6  1  0  0  0  0
 14  2  1  0  0  0  0
 15  7  1  0  0  0  0
 16  4  2  0  0  0  0
 17 24  1  0  0  0  0
 18 15  1  0  0  0  0
 19 17  1  0  0  0  0
 20 19  1  0  0  0  0
 21 12  2  0  0  0  0
 22 20  2  0  0  0  0
 23 17  2  0  0  0  0
 24 13  1  0  0  0  0
 25 22  1  0  0  0  0
 26 14  1  0  0  0  0
 27 25  1  0  0  0  0
 28 12  1  0  0  0  0
 29 30  2  0  0  0  0
 30 20  1  0  0  0  0
 31 29  1  0  0  0  0
 32 26  1  0  0  0  0
 33 26  2  0  0  0  0
 34 32  2  0  0  0  0
 35 33  1  0  0  0  0
 36 35  2  0  0  0  0
  9  8  1  0  0  0  0
 10 11  1  0  0  0  0
  6  5  2  0  0  0  0
 34 36  1  0  0  0  0
 25 31  2  0  0  0  0
M  END
> <IDNUMBER>
F3222-1451

> <Chemical_Name>
2-({11-acetyl-4-benzyl-3-oxo-8-thia-4,6,11-triazatricyclo[7.4.0.0^{2,7}]trideca-1(9),2(7),5-trien-5-yl}sulfanyl)-N-(3-chlorophenyl)acetamide

> <CAS>
1189449-19-1

> <PriceCoeff>
1.00

> <MW>
539.07

> <Description>
solid

> <FSP3>
0.23

> <clogP>
3.35

> <TPSA>
135.62

> <Acceptor>
4

> <Donor>
1

> <RotBonds>
7

> <HAC>
36

> <Collection>
General

> <Reference_compound>
CHEMBL577016

> <Similarity>
0.8620

$$$$
F2066-0136
  -ISIS-  06222321452D

 29 31  0  0  0  0  0  0  0  0999 V2000
   -2.7000    0.8625    0.0000 N   0  0  3  0  0  0  0  0  0  0  0  0
   -3.3458    1.9875    0.0000 C   0  0  0  0  0  0  0  0  0  0  0  0
   -2.7000   -0.0292    0.0000 S   0  0  3  0  0  0  0  0  0  0  0  0
   -3.8750    2.7708    0.0000 S   0  0  3  0  0  0  0  0  0  0  0  0
   -3.3458    1.2375    0.0000 C   0  0  0  0  0  0  0  0  0  0  0  0
   -2.0500    1.2375    0.0000 N   0  0  0  0  0  0  0  0  0  0  0  0
   -2.0500    1.9875    0.0000 C   0  0  0  0  0  0  0  0  0  0  0  0
   -3.4833   -2.3042    0.0000 C   0  0  0  0  0  0  0  0  0  0  0  0
   -4.2583   -2.7542    0.0000 N   0  3  0  0  0  0  0  0  0  0  0  0
   -2.6958   -0.9500    0.0000 C   0  0  0  0  0  0  0  0  0  0  0  0
   -4.4083    3.4958    0.0000 N   0  0  3  0  0  0  0  0  0  0  0  0
   -3.4875   -1.4000    0.0000 C   0  0  0  0  0  0  0  0  0  0  0  0
   -3.6083   -0.0500    0.0000 O   0  0  0  0  0  0  0  0  0  0  0  0
   -1.8000   -0.0417    0.0000 O   0  0  0  0  0  0  0  0  0  0  0  0
   -3.0958    3.1125    0.0000 O   0  0  0  0  0  0  0  0  0  0  0  0
   -4.5625    2.3625    0.0000 O   0  0  0  0  0  0  0  0  0  0  0  0
   -2.6958   -2.7542    0.0000 C   0  0  0  0  0  0  0  0  0  0  0  0
   -5.0458   -2.3125    0.0000 O   0  5  0  0  0  0  0  0  0  0  0  0
   -4.2500   -3.6542    0.0000 O   0  0  0  0  0  0  0  0  0  0  0  0
   -1.9208   -1.3917    0.0000 C   0  0  0  0  0  0  0  0  0  0  0  0
   -4.0958    1.2083    0.0000 C   0  0  0  0  0  0  0  0  0  0  0  0
   -1.9083   -2.2917    0.0000 C   0  0  0  0  0  0  0  0  0  0  0  0
   -5.4708    4.9417    0.0000 O   0  0  0  0  0  0  0  0  0  0  0  0
   -5.2958    3.4083    0.0000 C   0  0  0  0  0  0  0  0  0  0  0  0
   -4.0375    4.3167    0.0000 C   0  0  0  0  0  0  0  0  0  0  0  0
   -1.4708    2.5833    0.0000 C   0  0  0  0  0  0  0  0  0  0  0  0
   -2.6958   -3.6542    0.0000 Cl  0  0  0  0  0  0  0  0  0  0  0  0
   -4.5833    5.0417    0.0000 C   0  0  0  0  0  0  0  0  0  0  0  0
   -5.8333    4.1292    0.0000 C   0  0  0  0  0  0  0  0  0  0  0  0
  2  5  2  0  0  0  0
  3  1  1  0  0  0  0
  4  2  1  0  0  0  0
  5  1  1  0  0  0  0
  6  1  1  0  0  0  0
  7  6  2  0  0  0  0
  8 12  1  0  0  0  0
  9  8  1  0  0  0  0
 10  3  1  0  0  0  0
 11  4  1  0  0  0  0
 12 10  2  0  0  0  0
 13  3  2  0  0  0  0
 14  3  2  0  0  0  0
 15  4  2  0  0  0  0
 16  4  2  0  0  0  0
 17 22  1  0  0  0  0
 18  9  1  0  0  0  0
 19  9  2  0  0  0  0
 20 10  1  0  0  0  0
 21  5  1  0  0  0  0
 22 20  2  0  0  0  0
 23 28  1  0  0  0  0
 24 11  1  0  0  0  0
 25 11  1  0  0  0  0
 26  7  1  0  0  0  0
 27 17  1  0  0  0  0
 28 25  1  0  0  0  0
 29 24  1  0  0  0  0
  2  7  1  0  0  0  0
  8 17  2  0  0  0  0
 29 23  1  0  0  0  0
M  CHG  2   9   1  18  -1
M  END
> <IDNUMBER>
F2066-0136

> <Chemical_Name>
4-{[1-(4-chloro-3-nitrobenzenesulfonyl)-3,5-dimethyl-1H-pyrazol-4-yl]sulfonyl}morpholine

> <CAS>
956270-83-0

> <PriceCoeff>
1.00

> <MW>
464.90

> <Description>
solid

> <FSP3>
0.40

> <clogP>
0.49

> <TPSA>
158.47

> <Acceptor>
8

> <Donor>
0

> <RotBonds>
5

> <HAC>
29

> <Collection>
General

$$$$
F3222-1438
  -ISIS-  06222321462D

 37 41  0  0  0  0  0  0  0  0999 V2000
    7.8000   -9.9500    0.0000 N   0  0  3  0  0  0  0  0  0  0  0  0
    6.3667  -10.0250    0.0000 C   0  0  0  0  0  0  0  0  0  0  0  0
    6.4167  -10.8417    0.0000 C   0  0  0  0  0  0  0  0  0  0  0  0
    7.8417  -10.7667    0.0000 C   0  0  0  0  0  0  0  0  0  0  0  0
    7.1500  -11.2167    0.0000 N   0  0  0  0  0  0  0  0  0  0  0  0
    7.0625   -9.5750    0.0000 C   0  0  0  0  0  0  0  0  0  0  0  0
    5.5750   -9.8125    0.0000 C   0  0  0  0  0  0  0  0  0  0  0  0
    5.1292  -10.5042    0.0000 C   0  0  0  0  0  0  0  0  0  0  0  0
    5.6417  -11.1417    0.0000 S   0  0  0  0  0  0  0  0  0  0  0  0
    3.9125   -9.7417    0.0000 N   0  0  3  0  0  0  0  0  0  0  0  0
    8.4917   -9.4917    0.0000 C   0  0  0  0  0  0  0  0  0  0  0  0
    4.3000  -10.4667    0.0000 C   0  0  0  0  0  0  0  0  0  0  0  0
    8.5917  -11.1292    0.0000 S   0  0  0  0  0  0  0  0  0  0  0  0
    3.0875   -9.7167    0.0000 C   0  0  0  0  0  0  0  0  0  0  0  0
    5.1917   -9.0750    0.0000 C   0  0  0  0  0  0  0  0  0  0  0  0
    7.0167   -8.7500    0.0000 O   0  0  0  0  0  0  0  0  0  0  0  0
    9.3792  -12.3292    0.0000 C   0  0  0  0  0  0  0  0  0  0  0  0
    4.3667   -9.0292    0.0000 C   0  0  0  0  0  0  0  0  0  0  0  0
    9.4292  -13.1542    0.0000 N   0  0  0  0  0  0  0  0  0  0  0  0
    8.4417   -8.6667    0.0000 C   0  0  0  0  0  0  0  0  0  0  0  0
    2.6542  -10.4292    0.0000 O   0  0  0  0  0  0  0  0  0  0  0  0
   10.0667  -11.8792    0.0000 O   0  0  0  0  0  0  0  0  0  0  0  0
    8.6417  -11.9625    0.0000 C   0  0  0  0  0  0  0  0  0  0  0  0
   10.1667  -13.5292    0.0000 C   0  0  0  0  0  0  0  0  0  0  0  0
   11.6542  -14.2667    0.0000 C   0  0  0  0  0  0  0  0  0  0  0  0
   10.2167  -14.3542    0.0000 C   0  0  0  0  0  0  0  0  0  0  0  0
   10.8625  -13.0667    0.0000 C   0  0  0  0  0  0  0  0  0  0  0  0
   10.9542  -14.7250    0.0000 C   0  0  0  0  0  0  0  0  0  0  0  0
   11.6042  -13.4375    0.0000 C   0  0  0  0  0  0  0  0  0  0  0  0
    9.2250   -9.8667    0.0000 C   0  0  0  0  0  0  0  0  0  0  0  0
   12.4042  -14.6375    0.0000 O   0  0  0  0  0  0  0  0  0  0  0  0
    2.6917   -9.0000    0.0000 C   0  0  0  0  0  0  0  0  0  0  0  0
    7.7000   -8.2792    0.0000 C   0  0  0  0  0  0  0  0  0  0  0  0
    9.1292   -8.2167    0.0000 C   0  0  0  0  0  0  0  0  0  0  0  0
   12.4625  -15.4667    0.0000 C   0  0  0  0  0  0  0  0  0  0  0  0
    9.9167   -9.4167    0.0000 C   0  0  0  0  0  0  0  0  0  0  0  0
    9.8667   -8.5917    0.0000 C   0  0  0  0  0  0  0  0  0  0  0  0
  2  6  1  0  0  0  0
  3  2  2  0  0  0  0
  4  1  1  0  0  0  0
  5  4  2  0  0  0  0
  6  1  1  0  0  0  0
  7  2  1  0  0  0  0
  8  7  2  0  0  0  0
  9  3  1  0  0  0  0
 10 18  1  0  0  0  0
 11  1  1  0  0  0  0
 12  8  1  0  0  0  0
 13  4  1  0  0  0  0
 14 10  1  0  0  0  0
 15  7  1  0  0  0  0
 16  6  2  0  0  0  0
 17 23  1  0  0  0  0
 18 15  1  0  0  0  0
 19 17  1  0  0  0  0
 20 11  1  0  0  0  0
 21 14  2  0  0  0  0
 22 17  2  0  0  0  0
 23 13  1  0  0  0  0
 24 19  1  0  0  0  0
 25 29  2  0  0  0  0
 26 24  1  0  0  0  0
 27 24  2  0  0  0  0
 28 26  2  0  0  0  0
 29 27  1  0  0  0  0
 30 11  2  0  0  0  0
 31 25  1  0  0  0  0
 32 14  1  0  0  0  0
 33 20  1  0  0  0  0
 34 20  2  0  0  0  0
 35 31  1  0  0  0  0
 36 30  1  0  0  0  0
 37 36  2  0  0  0  0
  5  3  1  0  0  0  0
 34 37  1  0  0  0  0
  8  9  1  0  0  0  0
 12 10  1  0  0  0  0
 28 25  1  0  0  0  0
M  END
> <IDNUMBER>
F3222-1438

> <Chemical_Name>
2-{[11-acetyl-4-(2-methylphenyl)-3-oxo-8-thia-4,6,11-triazatricyclo[7.4.0.0^{2,7}]trideca-1(9),2(7),5-trien-5-yl]sulfanyl}-N-(4-methoxyphenyl)acetamide

> <CAS>
1216560-68-7

> <PriceCoeff>
1.00

> <MW>
534.65

> <Description>
solid

> <FSP3>
0.26

> <clogP>
3.18

> <TPSA>
144.85

> <Acceptor>
5

> <Donor>
1

> <RotBonds>
7

> <HAC>
37

> <Collection>
General

> <Reference_compound>
CHEMBL577016

> <Similarity>
0.8790

$$$$
F0541-1419
  -ISIS-  06222321142D

 28 31  0  0  0  0  0  0  0  0999 V2000
   -3.2375    2.3333    0.0000 C   0  0  0  0  0  0  0  0  0  0  0  0
   -3.9083    2.8208    0.0000 N   0  0  3  0  0  0  0  0  0  0  0  0
   -4.5833    2.3333    0.0000 N   0  0  0  0  0  0  0  0  0  0  0  0
   -3.4958    1.5458    0.0000 C   0  0  0  0  0  0  0  0  0  0  0  0
   -2.3833    2.3625    0.0000 N   0  0  0  0  0  0  0  0  0  0  0  0
   -4.3333    1.5458    0.0000 C   0  0  0  0  0  0  0  0  0  0  0  0
    0.0375    0.6000    0.0000 N   0  3  0  0  0  0  0  0  0  0  0  0
   -0.0583    1.4333    0.0000 C   0  0  0  0  0  0  0  0  0  0  0  0
   -1.7000    2.9250    0.0000 C   0  0  0  0  0  0  0  0  0  0  0  0
   -0.8333    1.7500    0.0000 C   0  0  0  0  0  0  0  0  0  0  0  0
   -0.9333    2.5958    0.0000 C   0  0  0  0  0  0  0  0  0  0  0  0
   -3.9083    3.6583    0.0000 C   0  0  0  0  0  0  0  0  0  0  0  0
    0.6167    1.9458    0.0000 C   0  0  0  0  0  0  0  0  0  0  0  0
   -0.6250    0.0958    0.0000 O   0  5  0  0  0  0  0  0  0  0  0  0
   -3.9083    0.2708    0.0000 S   0  0  0  0  0  0  0  0  0  0  0  0
    0.8167    0.2833    0.0000 O   0  0  0  0  0  0  0  0  0  0  0  0
   -1.7625    3.8000    0.0000 O   0  0  0  0  0  0  0  0  0  0  0  0
   -3.2375    0.7583    0.0000 C   0  0  0  0  0  0  0  0  0  0  0  0
   -0.2583    3.1083    0.0000 C   0  0  0  0  0  0  0  0  0  0  0  0
    0.5042    2.7833    0.0000 C   0  0  0  0  0  0  0  0  0  0  0  0
   -4.5833    0.7583    0.0000 C   0  0  0  0  0  0  0  0  0  0  0  0
   -4.6250    4.0667    0.0000 C   0  0  0  0  0  0  0  0  0  0  0  0
   -3.1708    4.0750    0.0000 C   0  0  0  0  0  0  0  0  0  0  0  0
   -3.9083    5.3292    0.0000 C   0  0  0  0  0  0  0  0  0  0  0  0
    1.3917    1.6208    0.0000 Cl  0  0  0  0  0  0  0  0  0  0  0  0
   -4.6250    4.9042    0.0000 C   0  0  0  0  0  0  0  0  0  0  0  0
   -3.1708    4.9042    0.0000 C   0  0  0  0  0  0  0  0  0  0  0  0
   -3.9000    6.1542    0.0000 F   0  0  0  0  0  0  0  0  0  0  0  0
  2  1  1  0  0  0  0
  3  2  1  0  0  0  0
  4  1  2  0  0  0  0
  5  1  1  0  0  0  0
  6  4  1  0  0  0  0
  7  8  1  0  0  0  0
  8 10  1  0  0  0  0
  9  5  1  0  0  0  0
 10 11  2  0  0  0  0
 11  9  1  0  0  0  0
 12  2  1  0  0  0  0
 13 20  1  0  0  0  0
 14  7  1  0  0  0  0
 15 18  1  0  0  0  0
 16  7  2  0  0  0  0
 17  9  2  0  0  0  0
 18  4  1  0  0  0  0
 19 11  1  0  0  0  0
 20 19  2  0  0  0  0
 21  6  1  0  0  0  0
 22 12  1  0  0  0  0
 23 12  2  0  0  0  0
 24 27  2  0  0  0  0
 25 13  1  0  0  0  0
 26 22  2  0  0  0  0
 27 23  1  0  0  0  0
 28 24  1  0  0  0  0
  6  3  2  0  0  0  0
 15 21  1  0  0  0  0
 24 26  1  0  0  0  0
 13  8  2  0  0  0  0
M  CHG  2   7   1  14  -1
M  END
> <IDNUMBER>
F0541-1419

> <Chemical_Name>
4-chloro-N-[2-(4-fluorophenyl)-2H,4H,6H-thieno[3,4-c]pyrazol-3-yl]-3-nitrobenzamide

> <CAS>
450343-18-7

> <PriceCoeff>
1.00

> <MW>
418.83

> <Description>
solid

> <FSP3>
0.11

> <clogP>
3.78

> <TPSA>
115.36

> <Acceptor>
4

> <Donor>
1

> <RotBonds>
4

> <HAC>
28

> <Collection>
General

$$$$
F3222-1433
  -ISIS-  06222321462D

 37 41  0  0  0  0  0  0  0  0999 V2000
    7.7417   -9.7125    0.0000 N   0  0  3  0  0  0  0  0  0  0  0  0
    6.3417  -10.0292    0.0000 C   0  0  0  0  0  0  0  0  0  0  0  0
    6.5292  -10.8375    0.0000 C   0  0  0  0  0  0  0  0  0  0  0  0
    7.9292  -10.5167    0.0000 C   0  0  0  0  0  0  0  0  0  0  0  0
    7.3250  -11.0792    0.0000 N   0  0  0  0  0  0  0  0  0  0  0  0
    6.9542   -9.4667    0.0000 C   0  0  0  0  0  0  0  0  0  0  0  0
    5.5125   -9.9542    0.0000 C   0  0  0  0  0  0  0  0  0  0  0  0
    5.1917  -10.7125    0.0000 C   0  0  0  0  0  0  0  0  0  0  0  0
    5.8042  -11.2542    0.0000 S   0  0  0  0  0  0  0  0  0  0  0  0
    3.8667  -10.1542    0.0000 N   0  0  3  0  0  0  0  0  0  0  0  0
    8.3500   -9.1417    0.0000 C   0  0  0  0  0  0  0  0  0  0  0  0
    4.3667  -10.8167    0.0000 C   0  0  0  0  0  0  0  0  0  0  0  0
    8.7167  -10.7542    0.0000 S   0  0  0  0  0  0  0  0  0  0  0  0
    3.0375  -10.2500    0.0000 C   0  0  0  0  0  0  0  0  0  0  0  0
    5.0125   -9.3042    0.0000 C   0  0  0  0  0  0  0  0  0  0  0  0
    6.7542   -8.6500    0.0000 O   0  0  0  0  0  0  0  0  0  0  0  0
   10.1042  -10.4375    0.0000 C   0  0  0  0  0  0  0  0  0  0  0  0
    4.1875   -9.4000    0.0000 C   0  0  0  0  0  0  0  0  0  0  0  0
   10.2917  -11.2417    0.0000 N   0  0  0  0  0  0  0  0  0  0  0  0
    8.1667   -8.3375    0.0000 C   0  0  0  0  0  0  0  0  0  0  0  0
    2.7042  -11.0167    0.0000 O   0  0  0  0  0  0  0  0  0  0  0  0
   10.7042   -9.8792    0.0000 O   0  0  0  0  0  0  0  0  0  0  0  0
    9.3250  -10.2000    0.0000 C   0  0  0  0  0  0  0  0  0  0  0  0
    9.6875  -11.8042    0.0000 C   0  0  0  0  0  0  0  0  0  0  0  0
    8.4792  -12.9375    0.0000 C   0  0  0  0  0  0  0  0  0  0  0  0
    8.9042  -11.5625    0.0000 C   0  0  0  0  0  0  0  0  0  0  0  0
    9.8750  -12.6042    0.0000 C   0  0  0  0  0  0  0  0  0  0  0  0
    8.3042  -12.1250    0.0000 C   0  0  0  0  0  0  0  0  0  0  0  0
    9.2667  -13.1792    0.0000 C   0  0  0  0  0  0  0  0  0  0  0  0
    9.1417   -9.3792    0.0000 C   0  0  0  0  0  0  0  0  0  0  0  0
    2.5417   -9.5792    0.0000 C   0  0  0  0  0  0  0  0  0  0  0  0
    7.3750   -8.0917    0.0000 C   0  0  0  0  0  0  0  0  0  0  0  0
    8.7667   -7.7667    0.0000 C   0  0  0  0  0  0  0  0  0  0  0  0
    7.8667  -13.5000    0.0000 C   0  0  0  0  0  0  0  0  0  0  0  0
    9.7500   -8.8250    0.0000 C   0  0  0  0  0  0  0  0  0  0  0  0
    8.0625  -14.3042    0.0000 C   0  0  0  0  0  0  0  0  0  0  0  0
    9.5667   -8.0125    0.0000 C   0  0  0  0  0  0  0  0  0  0  0  0
  2  6  1  0  0  0  0
  3  2  2  0  0  0  0
  4  1  1  0  0  0  0
  5  4  2  0  0  0  0
  6  1  1  0  0  0  0
  7  2  1  0  0  0  0
  8  7  2  0  0  0  0
  9  3  1  0  0  0  0
 10 18  1  0  0  0  0
 11  1  1  0  0  0  0
 12  8  1  0  0  0  0
 13  4  1  0  0  0  0
 14 10  1  0  0  0  0
 15  7  1  0  0  0  0
 16  6  2  0  0  0  0
 17 23  1  0  0  0  0
 18 15  1  0  0  0  0
 19 17  1  0  0  0  0
 20 11  1  0  0  0  0
 21 14  2  0  0  0  0
 22 17  2  0  0  0  0
 23 13  1  0  0  0  0
 24 19  1  0  0  0  0
 25 29  2  0  0  0  0
 26 24  1  0  0  0  0
 27 24  2  0  0  0  0
 28 26  2  0  0  0  0
 29 27  1  0  0  0  0
 30 11  2  0  0  0  0
 31 14  1  0  0  0  0
 32 20  1  0  0  0  0
 33 20  2  0  0  0  0
 34 25  1  0  0  0  0
 35 30  1  0  0  0  0
 36 34  1  0  0  0  0
 37 35  2  0  0  0  0
  5  3  1  0  0  0  0
 33 37  1  0  0  0  0
  8  9  1  0  0  0  0
 12 10  1  0  0  0  0
 28 25  1  0  0  0  0
M  END
> <IDNUMBER>
F3222-1433

> <Chemical_Name>
2-{[11-acetyl-4-(2-methylphenyl)-3-oxo-8-thia-4,6,11-triazatricyclo[7.4.0.0^{2,7}]trideca-1(9),2(7),5-trien-5-yl]sulfanyl}-N-(4-ethylphenyl)acetamide

> <CAS>
1189883-35-9

> <PriceCoeff>
1.00

> <MW>
532.68

> <Description>
solid

> <FSP3>
0.29

> <clogP>
4.13

> <TPSA>
135.62

> <Acceptor>
4

> <Donor>
1

> <RotBonds>
7

> <HAC>
37

> <Collection>
General

> <Reference_compound>
CHEMBL577016

> <Similarity>
0.9130

$$$$
F3222-2460
  -ISIS-  06222321152D

 37 41  0  0  0  0  0  0  0  0999 V2000
    5.1292   -9.0917    0.0000 C   0  0  0  0  0  0  0  0  0  0  0  0
    5.8625   -8.7042    0.0000 C   0  0  0  0  0  0  0  0  0  0  0  0
    4.4667   -7.8167    0.0000 N   0  0  3  0  0  0  0  0  0  0  0  0
    5.1917   -7.4417    0.0000 C   0  0  0  0  0  0  0  0  0  0  0  0
    5.8917   -7.8792    0.0000 N   0  0  0  0  0  0  0  0  0  0  0  0
    4.4292   -8.6417    0.0000 C   0  0  0  0  0  0  0  0  0  0  0  0
    5.2750   -9.9042    0.0000 C   0  0  0  0  0  0  0  0  0  0  0  0
    6.0875  -10.0167    0.0000 C   0  0  0  0  0  0  0  0  0  0  0  0
    6.4542   -9.2917    0.0000 S   0  0  0  0  0  0  0  0  0  0  0  0
    5.8792  -11.4292    0.0000 N   0  0  3  0  0  0  0  0  0  0  0  0
    6.3917  -10.7792    0.0000 C   0  0  0  0  0  0  0  0  0  0  0  0
    5.2292   -6.6167    0.0000 S   0  0  0  0  0  0  0  0  0  0  0  0
    6.1792  -12.2042    0.0000 C   0  0  0  0  0  0  0  0  0  0  0  0
    3.7667   -7.3750    0.0000 C   0  0  0  0  0  0  0  0  0  0  0  0
    4.7667  -10.5500    0.0000 C   0  0  0  0  0  0  0  0  0  0  0  0
    3.6875   -9.0250    0.0000 O   0  0  0  0  0  0  0  0  0  0  0  0
    5.9917   -5.4042    0.0000 C   0  0  0  0  0  0  0  0  0  0  0  0
    5.0750  -11.3167    0.0000 C   0  0  0  0  0  0  0  0  0  0  0  0
    6.7167   -5.0167    0.0000 N   0  0  0  0  0  0  0  0  0  0  0  0
    7.0000  -12.3292    0.0000 O   0  0  0  0  0  0  0  0  0  0  0  0
    6.7542   -4.1917    0.0000 C   0  0  0  0  0  0  0  0  0  0  0  0
    5.2917   -4.9625    0.0000 O   0  0  0  0  0  0  0  0  0  0  0  0
    5.9542   -6.2292    0.0000 C   0  0  0  0  0  0  0  0  0  0  0  0
    3.0417   -7.7625    0.0000 C   0  0  0  0  0  0  0  0  0  0  0  0
    3.8042   -6.5417    0.0000 C   0  0  0  0  0  0  0  0  0  0  0  0
    6.0542   -3.7500    0.0000 C   0  0  0  0  0  0  0  0  0  0  0  0
    2.3417   -7.3167    0.0000 C   0  0  0  0  0  0  0  0  0  0  0  0
    3.1125   -6.1042    0.0000 C   0  0  0  0  0  0  0  0  0  0  0  0
    2.3792   -6.4917    0.0000 C   0  0  0  0  0  0  0  0  0  0  0  0
    6.0875   -2.9167    0.0000 C   0  0  0  0  0  0  0  0  0  0  0  0
    5.6667  -12.8417    0.0000 C   0  0  0  0  0  0  0  0  0  0  0  0
    7.5167   -2.9792    0.0000 C   0  0  0  0  0  0  0  0  0  0  0  0
    7.4792   -3.8042    0.0000 C   0  0  0  0  0  0  0  0  0  0  0  0
    6.8167   -2.5417    0.0000 C   0  0  0  0  0  0  0  0  0  0  0  0
    5.3792   -2.4667    0.0000 C   0  0  0  0  0  0  0  0  0  0  0  0
    1.6792   -6.0417    0.0000 C   0  0  0  0  0  0  0  0  0  0  0  0
    4.6417   -2.8417    0.0000 C   0  0  0  0  0  0  0  0  0  0  0  0
  2  1  2  0  0  0  0
  3  6  1  0  0  0  0
  4  3  1  0  0  0  0
  5  2  1  0  0  0  0
  6  1  1  0  0  0  0
  7  1  1  0  0  0  0
  8  7  2  0  0  0  0
  9  2  1  0  0  0  0
 10 18  1  0  0  0  0
 11  8  1  0  0  0  0
 12  4  1  0  0  0  0
 13 10  1  0  0  0  0
 14  3  1  0  0  0  0
 15  7  1  0  0  0  0
 16  6  2  0  0  0  0
 17 23  1  0  0  0  0
 18 15  1  0  0  0  0
 19 17  1  0  0  0  0
 20 13  2  0  0  0  0
 21 19  1  0  0  0  0
 22 17  2  0  0  0  0
 23 12  1  0  0  0  0
 24 14  1  0  0  0  0
 25 14  2  0  0  0  0
 26 21  1  0  0  0  0
 27 24  2  0  0  0  0
 28 25  1  0  0  0  0
 29 28  2  0  0  0  0
 30 26  2  0  0  0  0
 31 13  1  0  0  0  0
 32 33  1  0  0  0  0
 33 21  2  0  0  0  0
 34 32  2  0  0  0  0
 35 30  1  0  0  0  0
 36 29  1  0  0  0  0
 37 35  1  0  0  0  0
  8  9  1  0  0  0  0
  5  4  2  0  0  0  0
 11 10  1  0  0  0  0
 27 29  1  0  0  0  0
 34 30  1  0  0  0  0
M  END
> <IDNUMBER>
F3222-2460

> <Chemical_Name>
2-{[11-acetyl-4-(4-methylphenyl)-3-oxo-8-thia-4,6,11-triazatricyclo[7.4.0.0^{2,7}]trideca-1(9),2(7),5-trien-5-yl]sulfanyl}-N-(3-ethylphenyl)acetamide

> <CAS>
1189728-13-9

> <PriceCoeff>
1.00

> <MW>
532.68

> <Description>
solid

> <FSP3>
0.29

> <clogP>
4.13

> <TPSA>
135.62

> <Acceptor>
4

> <Donor>
1

> <RotBonds>
7

> <HAC>
37

> <Collection>
General

> <Reference_compound>
CHEMBL577016

> <Similarity>
0.9340

$$$$
F2070-1198
  -ISIS-  06222321462D

 27 29  0  0  0  0  0  0  0  0999 V2000
   -3.7833    2.4250    0.0000 N   0  0  3  0  0  0  0  0  0  0  0  0
   -3.1208    2.9083    0.0000 C   0  0  0  0  0  0  0  0  0  0  0  0
    1.8667    3.5333    0.0000 N   0  3  0  0  0  0  0  0  0  0  0  0
    1.0875    3.7958    0.0000 C   0  0  0  0  0  0  0  0  0  0  0  0
   -4.1958    3.6958    0.0000 N   0  0  0  0  0  0  0  0  0  0  0  0
   -4.4583    2.9083    0.0000 N   0  0  0  0  0  0  0  0  0  0  0  0
   -3.3708    3.6958    0.0000 N   0  0  0  0  0  0  0  0  0  0  0  0
   -3.7833    1.6000    0.0000 C   0  0  0  0  0  0  0  0  0  0  0  0
    0.4625    3.2458    0.0000 C   0  0  0  0  0  0  0  0  0  0  0  0
   -0.9333    2.9458    0.0000 C   0  0  0  0  0  0  0  0  0  0  0  0
   -4.5000    1.1875    0.0000 C   0  0  0  0  0  0  0  0  0  0  0  0
   -0.3208    3.4958    0.0000 C   0  0  0  0  0  0  0  0  0  0  0  0
   -4.5000    0.3625    0.0000 C   0  0  0  0  0  0  0  0  0  0  0  0
   -1.7208    3.2083    0.0000 N   0  0  0  0  0  0  0  0  0  0  0  0
    0.9042    4.6042    0.0000 C   0  0  0  0  0  0  0  0  0  0  0  0
   -2.3333    2.6500    0.0000 C   0  0  0  0  0  0  0  0  0  0  0  0
    2.0417    2.7333    0.0000 O   0  5  0  0  0  0  0  0  0  0  0  0
    2.4875    4.0792    0.0000 O   0  0  0  0  0  0  0  0  0  0  0  0
   -3.7875   -0.0542    0.0000 C   0  0  0  0  0  0  0  0  0  0  0  0
   -3.0708    1.1833    0.0000 C   0  0  0  0  0  0  0  0  0  0  0  0
   -0.7625    2.1458    0.0000 O   0  0  0  0  0  0  0  0  0  0  0  0
   -0.4958    4.3042    0.0000 C   0  0  0  0  0  0  0  0  0  0  0  0
    0.1167    4.8542    0.0000 C   0  0  0  0  0  0  0  0  0  0  0  0
   -3.0708    0.3583    0.0000 C   0  0  0  0  0  0  0  0  0  0  0  0
   -5.2208   -0.0417    0.0000 F   0  0  0  0  0  0  0  0  0  0  0  0
    1.5250    5.1542    0.0000 Cl  0  0  0  0  0  0  0  0  0  0  0  0
   -3.7958   -0.8792    0.0000 F   0  0  0  0  0  0  0  0  0  0  0  0
  2  1  1  0  0  0  0
  3  4  1  0  0  0  0
  4  9  2  0  0  0  0
  5  6  2  0  0  0  0
  6  1  1  0  0  0  0
  7  2  2  0  0  0  0
  8  1  1  0  0  0  0
  9 12  1  0  0  0  0
 10 14  1  0  0  0  0
 11  8  2  0  0  0  0
 12 10  1  0  0  0  0
 13 11  1  0  0  0  0
 14 16  1  0  0  0  0
 15 23  2  0  0  0  0
 16  2  1  0  0  0  0
 17  3  1  0  0  0  0
 18  3  2  0  0  0  0
 19 24  1  0  0  0  0
 20  8  1  0  0  0  0
 21 10  2  0  0  0  0
 22 12  2  0  0  0  0
 23 22  1  0  0  0  0
 24 20  2  0  0  0  0
 25 13  1  0  0  0  0
 26 15  1  0  0  0  0
 27 19  1  0  0  0  0
  5  7  1  0  0  0  0
 19 13  2  0  0  0  0
  4 15  1  0  0  0  0
M  CHG  2   3   1  17  -1
M  END
> <IDNUMBER>
F2070-1198

> <Chemical_Name>
4-chloro-N-{[1-(3,4-difluorophenyl)-1H-1,2,3,4-tetrazol-5-yl]methyl}-3-nitrobenzamide

> <CAS>
921502-64-9

> <PriceCoeff>
1.00

> <MW>
394.72

> <Description>
solid

> <FSP3>
0.07

> <clogP>
2.61

> <TPSA>
115.84

> <Acceptor>
6

> <Donor>
1

> <RotBonds>
5

> <HAC>
27

> <Collection>
General

$$$$
F3098-5261
  -ISIS-  06222321442D

 26 29  0  0  0  0  0  0  0  0999 V2000
    6.4875   -3.4167    0.0000 C   0  0  0  0  0  0  0  0  0  0  0  0
    5.7667   -3.8292    0.0000 C   0  0  0  0  0  0  0  0  0  0  0  0
    5.0500   -3.4042    0.0000 C   0  0  0  0  0  0  0  0  0  0  0  0
    6.4875   -2.5792    0.0000 C   0  0  0  0  0  0  0  0  0  0  0  0
    5.0542   -2.5792    0.0000 C   0  0  0  0  0  0  0  0  0  0  0  0
    5.7667   -2.1667    0.0000 O   0  0  0  0  0  0  0  0  0  0  0  0
    4.3375   -3.8292    0.0000 C   0  0  0  0  0  0  0  0  0  0  0  0
    4.3375   -2.1667    0.0000 C   0  0  0  0  0  0  0  0  0  0  0  0
    7.2000   -3.8292    0.0000 C   0  0  0  0  0  0  0  0  0  0  0  0
    5.7625   -4.6542    0.0000 O   0  0  0  0  0  0  0  0  0  0  0  0
    1.3292   -2.0542    0.0000 C   0  0  0  0  0  0  0  0  0  0  0  0
    2.0250   -1.6625    0.0000 C   0  0  0  0  0  0  0  0  0  0  0  0
    3.6250   -2.5917    0.0000 C   0  0  0  0  0  0  0  0  0  0  0  0
    0.6417   -1.6500    0.0000 C   0  0  0  0  0  0  0  0  0  0  0  0
    2.9125   -2.1792    0.0000 O   0  0  0  0  0  0  0  0  0  0  0  0
    3.6250   -3.4167    0.0000 C   0  0  0  0  0  0  0  0  0  0  0  0
    7.9125   -3.4167    0.0000 C   0  0  0  0  0  0  0  0  0  0  0  0
    7.1917   -4.6542    0.0000 C   0  0  0  0  0  0  0  0  0  0  0  0
    1.3250   -2.8500    0.0000 C   0  0  0  0  0  0  0  0  0  0  0  0
    0.6500   -0.8500    0.0000 C   0  0  0  0  0  0  0  0  0  0  0  0
   -0.0500   -2.0417    0.0000 C   0  0  0  0  0  0  0  0  0  0  0  0
   -0.0583   -2.8417    0.0000 C   0  0  0  0  0  0  0  0  0  0  0  0
    8.6250   -3.8292    0.0000 C   0  0  0  0  0  0  0  0  0  0  0  0
    0.6292   -3.2417    0.0000 C   0  0  0  0  0  0  0  0  0  0  0  0
    7.9042   -5.0667    0.0000 C   0  0  0  0  0  0  0  0  0  0  0  0
    8.6250   -4.6542    0.0000 C   0  0  0  0  0  0  0  0  0  0  0  0
  2  1  1  0  0  0  0
  3  2  1  0  0  0  0
  4  1  2  0  0  0  0
  5  6  1  0  0  0  0
  6  4  1  0  0  0  0
  7  3  2  0  0  0  0
  8  5  2  0  0  0  0
  9  1  1  0  0  0  0
 10  2  2  0  0  0  0
 11 12  1  0  0  0  0
 12 15  1  0  0  0  0
 13  8  1  0  0  0  0
 14 11  2  0  0  0  0
 15 13  1  0  0  0  0
 16  7  1  0  0  0  0
 17  9  1  0  0  0  0
 18  9  2  0  0  0  0
 19 11  1  0  0  0  0
 20 14  1  0  0  0  0
 21 14  1  0  0  0  0
 22 24  1  0  0  0  0
 23 17  2  0  0  0  0
 24 19  2  0  0  0  0
 25 18  1  0  0  0  0
 26 25  2  0  0  0  0
  5  3  1  0  0  0  0
 26 23  1  0  0  0  0
 13 16  2  0  0  0  0
 22 21  2  0  0  0  0
M  END
> <IDNUMBER>
F3098-5261

> <Chemical_Name>
7-[(2-methylphenyl)methoxy]-3-phenyl-4H-chromen-4-one

> <CAS>
773150-67-7

> <PriceCoeff>
1.00

> <MW>
342.39

> <Description>
solid

> <FSP3>
0.09

> <clogP>
5.30

> <TPSA>
35.53

> <Acceptor>
3

> <Donor>
0

> <RotBonds>
4

> <HAC>
26

> <Collection>
General

> <Reference_compound>
CHEMBL44

> <Similarity>
0.8460

$$$$
F3386-1187
  -ISIS-  06222321442D

 21 22  0  0  0  0  0  0  0  0999 V2000
    4.7125   -1.9792    0.0000 S   0  0  3  0  0  0  0  0  0  0  0  0
    5.5375   -1.9667    0.0000 O   0  0  0  0  0  0  0  0  0  0  0  0
    3.8875   -1.9792    0.0000 C   0  0  0  0  0  0  0  0  0  0  0  0
    4.7167   -2.8042    0.0000 O   0  0  0  0  0  0  0  0  0  0  0  0
    4.7042   -1.1542    0.0000 O   0  0  0  0  0  0  0  0  0  0  0  0
    1.4167   -2.0042    0.0000 C   0  0  3  0  0  0  0  0  0  0  0  0
    2.2417   -2.0000    0.0000 C   0  0  0  0  0  0  0  0  0  0  0  0
    3.5042   -2.6792    0.0000 C   0  0  0  0  0  0  0  0  0  0  0  0
    3.4667   -1.2750    0.0000 C   0  0  0  0  0  0  0  0  0  0  0  0
    2.6542   -2.7042    0.0000 C   0  0  0  0  0  0  0  0  0  0  0  0
    2.6417   -1.2792    0.0000 C   0  0  0  0  0  0  0  0  0  0  0  0
    6.3625   -1.9667    0.0000 C   0  0  0  0  0  0  0  0  0  0  0  0
    8.0042   -1.9625    0.0000 C   0  0  0  0  0  0  0  0  0  0  0  0
    8.8292   -1.9625    0.0000 Cl  0  0  0  0  0  0  0  0  0  0  0  0
    6.7667   -2.6792    0.0000 C   0  0  0  0  0  0  0  0  0  0  0  0
    6.7667   -1.2542    0.0000 C   0  0  0  0  0  0  0  0  0  0  0  0
    7.5875   -1.2500    0.0000 C   0  0  0  0  0  0  0  0  0  0  0  0
    7.5917   -2.6750    0.0000 C   0  0  0  0  0  0  0  0  0  0  0  0
    0.5917   -2.0000    0.0000 C   0  0  0  0  0  0  0  0  0  0  0  0
    1.4125   -2.8292    0.0000 C   0  0  0  0  0  0  0  0  0  0  0  0
    1.4167   -1.1792    0.0000 C   0  0  0  0  0  0  0  0  0  0  0  0
  2  1  1  0  0  0  0
  3  1  1  0  0  0  0
  4  1  2  0  0  0  0
  5  1  2  0  0  0  0
  6  7  1  0  0  0  0
  7 11  2  0  0  0  0
  8  3  1  0  0  0  0
  9  3  2  0  0  0  0
 10  8  2  0  0  0  0
 11  9  1  0  0  0  0
 12  2  1  0  0  0  0
 13 17  1  0  0  0  0
 14 13  1  0  0  0  0
 15 12  2  0  0  0  0
 16 12  1  0  0  0  0
 17 16  2  0  0  0  0
 18 15  1  0  0  0  0
 19  6  1  0  0  0  0
 20  6  1  0  0  0  0
 21  6  1  0  0  0  0
  7 10  1  0  0  0  0
 13 18  2  0  0  0  0
M  END
> <IDNUMBER>
F3386-1187

> <Chemical_Name>
4-chlorophenyl 4-tert-butylbenzene-1-sulfonate

> <CAS>
791796-72-0

> <PriceCoeff>
1.00

> <MW>
324.82

> <Description>
solid

> <FSP3>
0.25

> <clogP>
5.77

> <TPSA>
51.75

> <Acceptor>
3

> <Donor>
0

> <RotBonds>
3

> <HAC>
21

> <Collection>
General

> <Reference_compound>
PRI3215

> <Similarity>
0.8160

$$$$
F3222-2447
  -ISIS-  06222321152D

 36 40  0  0  0  0  0  0  0  0999 V2000
    4.7667   -9.7000    0.0000 C   0  0  0  0  0  0  0  0  0  0  0  0
    4.0500   -9.2875    0.0000 C   0  0  0  0  0  0  0  0  0  0  0  0
    5.4792   -8.4542    0.0000 N   0  0  3  0  0  0  0  0  0  0  0  0
    4.7542   -8.0417    0.0000 C   0  0  0  0  0  0  0  0  0  0  0  0
    4.0500   -8.4542    0.0000 N   0  0  0  0  0  0  0  0  0  0  0  0
    5.4917   -9.2875    0.0000 C   0  0  0  0  0  0  0  0  0  0  0  0
    4.5917  -10.5167    0.0000 C   0  0  0  0  0  0  0  0  0  0  0  0
    3.7750  -10.6000    0.0000 C   0  0  0  0  0  0  0  0  0  0  0  0
    3.4292   -9.8542    0.0000 S   0  0  0  0  0  0  0  0  0  0  0  0
    3.9167  -12.0292    0.0000 N   0  0  3  0  0  0  0  0  0  0  0  0
    3.4292  -11.3542    0.0000 C   0  0  0  0  0  0  0  0  0  0  0  0
    4.7667   -7.2167    0.0000 S   0  0  0  0  0  0  0  0  0  0  0  0
    3.5875  -12.7917    0.0000 C   0  0  0  0  0  0  0  0  0  0  0  0
    5.4792   -5.9792    0.0000 C   0  0  0  0  0  0  0  0  0  0  0  0
    4.7667   -5.5667    0.0000 N   0  0  3  0  0  0  0  0  0  0  0  0
    5.0750  -11.1917    0.0000 C   0  0  0  0  0  0  0  0  0  0  0  0
    6.1917   -8.0417    0.0000 C   0  0  0  0  0  0  0  0  0  0  0  0
    6.2042   -9.7125    0.0000 O   0  0  0  0  0  0  0  0  0  0  0  0
    4.7292  -11.9500    0.0000 C   0  0  0  0  0  0  0  0  0  0  0  0
    5.4792   -6.8000    0.0000 C   0  0  0  0  0  0  0  0  0  0  0  0
    2.7542  -12.8917    0.0000 O   0  0  0  0  0  0  0  0  0  0  0  0
    6.1917   -5.5667    0.0000 O   0  0  0  0  0  0  0  0  0  0  0  0
    4.0500   -5.9792    0.0000 C   0  0  0  0  0  0  0  0  0  0  0  0
    4.7667   -4.7417    0.0000 C   0  0  0  0  0  0  0  0  0  0  0  0
    4.0792  -13.4667    0.0000 C   0  0  0  0  0  0  0  0  0  0  0  0
    6.1917   -7.2167    0.0000 C   0  0  0  0  0  0  0  0  0  0  0  0
    6.9167   -8.4542    0.0000 C   0  0  0  0  0  0  0  0  0  0  0  0
    3.3375   -5.5667    0.0000 C   0  0  0  0  0  0  0  0  0  0  0  0
    4.0500   -6.8000    0.0000 C   0  0  0  0  0  0  0  0  0  0  0  0
    5.4792   -4.3292    0.0000 C   0  0  0  0  0  0  0  0  0  0  0  0
    6.9042   -6.8000    0.0000 C   0  0  0  0  0  0  0  0  0  0  0  0
    2.6167   -5.9792    0.0000 C   0  0  0  0  0  0  0  0  0  0  0  0
    3.3375   -7.2167    0.0000 C   0  0  0  0  0  0  0  0  0  0  0  0
    7.6292   -8.0417    0.0000 C   0  0  0  0  0  0  0  0  0  0  0  0
    7.6292   -7.2167    0.0000 C   0  0  0  0  0  0  0  0  0  0  0  0
    2.6167   -6.8000    0.0000 C   0  0  0  0  0  0  0  0  0  0  0  0
  2  1  2  0  0  0  0
  3  6  1  0  0  0  0
  4  3  1  0  0  0  0
  5  2  1  0  0  0  0
  6  1  1  0  0  0  0
  7  1  1  0  0  0  0
  8  7  2  0  0  0  0
  9  2  1  0  0  0  0
 10 19  1  0  0  0  0
 11  8  1  0  0  0  0
 12  4  1  0  0  0  0
 13 10  1  0  0  0  0
 14 20  1  0  0  0  0
 15 14  1  0  0  0  0
 16  7  1  0  0  0  0
 17  3  1  0  0  0  0
 18  6  2  0  0  0  0
 19 16  1  0  0  0  0
 20 12  1  0  0  0  0
 21 13  2  0  0  0  0
 22 14  2  0  0  0  0
 23 15  1  0  0  0  0
 24 15  1  0  0  0  0
 25 13  1  0  0  0  0
 26 17  2  0  0  0  0
 27 17  1  0  0  0  0
 28 23  2  0  0  0  0
 29 23  1  0  0  0  0
 30 24  1  0  0  0  0
 31 26  1  0  0  0  0
 32 28  1  0  0  0  0
 33 29  2  0  0  0  0
 34 27  2  0  0  0  0
 35 34  1  0  0  0  0
 36 33  1  0  0  0  0
  8  9  1  0  0  0  0
  5  4  2  0  0  0  0
 11 10  1  0  0  0  0
 31 35  2  0  0  0  0
 32 36  2  0  0  0  0
M  END
> <IDNUMBER>
F3222-2447

> <Chemical_Name>
2-({11-acetyl-3-oxo-4-phenyl-8-thia-4,6,11-triazatricyclo[7.4.0.0^{2,7}]trideca-1(9),2(7),5-trien-5-yl}sulfanyl)-N-ethyl-N-phenylacetamide

> <CAS>
1216625-54-5

> <PriceCoeff>
1.00

> <MW>
518.65

> <Description>
solid

> <FSP3>
0.26

> <clogP>
3.21

> <TPSA>
126.83

> <Acceptor>
4

> <Donor>
0

> <RotBonds>
8

> <HAC>
36

> <Collection>
General

> <Reference_compound>
CHEMBL577016

> <Similarity>
0.9250

$$$$
F3385-3711
  -ISIS-  06222321442D

 28 31  0  0  0  0  0  0  0  0999 V2000
    7.0500    0.0750    0.0000 C   0  0  0  0  0  0  0  0  0  0  0  0
    6.3250   -0.3375    0.0000 C   0  0  0  0  0  0  0  0  0  0  0  0
    5.6042    0.0750    0.0000 C   0  0  0  0  0  0  0  0  0  0  0  0
    7.0500    0.9083    0.0000 C   0  0  0  0  0  0  0  0  0  0  0  0
    5.6125    0.9083    0.0000 C   0  0  0  0  0  0  0  0  0  0  0  0
    6.3292    1.3333    0.0000 O   0  0  0  0  0  0  0  0  0  0  0  0
    4.8917    1.3208    0.0000 C   0  0  0  0  0  0  0  0  0  0  0  0
    7.7542   -0.3375    0.0000 C   0  0  0  0  0  0  0  0  0  0  0  0
    4.8917   -0.3292    0.0000 C   0  0  0  0  0  0  0  0  0  0  0  0
    6.3250   -1.1625    0.0000 O   0  0  0  0  0  0  0  0  0  0  0  0
    4.1792    0.9083    0.0000 C   0  0  0  0  0  0  0  0  0  0  0  0
    3.4667    1.3208    0.0000 N   0  0  0  0  0  0  0  0  0  0  0  0
    7.7542   -1.1667    0.0000 C   0  0  0  0  0  0  0  0  0  0  0  0
    8.4667    0.0708    0.0000 C   0  0  0  0  0  0  0  0  0  0  0  0
    4.1792    0.0833    0.0000 C   0  0  0  0  0  0  0  0  0  0  0  0
    2.7542    0.9083    0.0000 C   0  0  0  0  0  0  0  0  0  0  0  0
    9.1792   -1.1667    0.0000 C   0  0  0  0  0  0  0  0  0  0  0  0
    1.3250    0.0833    0.0000 C   0  0  0  0  0  0  0  0  0  0  0  0
    9.1792   -0.3417    0.0000 C   0  0  0  0  0  0  0  0  0  0  0  0
    8.4667   -1.5792    0.0000 C   0  0  0  0  0  0  0  0  0  0  0  0
    2.0417    1.3208    0.0000 C   0  0  0  0  0  0  0  0  0  0  0  0
    2.7542    0.0833    0.0000 C   0  0  0  0  0  0  0  0  0  0  0  0
    2.0417   -0.3292    0.0000 C   0  0  0  0  0  0  0  0  0  0  0  0
    1.3250    0.9083    0.0000 C   0  0  0  0  0  0  0  0  0  0  0  0
    0.6042   -0.3292    0.0000 O   0  0  0  0  0  0  0  0  0  0  0  0
    9.8917   -1.5792    0.0000 O   0  0  0  0  0  0  0  0  0  0  0  0
    0.6042   -1.1542    0.0000 C   0  0  0  0  0  0  0  0  0  0  0  0
   10.6125   -1.1667    0.0000 C   0  0  0  0  0  0  0  0  0  0  0  0
  2  1  1  0  0  0  0
  3  2  1  0  0  0  0
  4  1  2  0  0  0  0
  5  6  1  0  0  0  0
  6  4  1  0  0  0  0
  7  5  2  0  0  0  0
  8  1  1  0  0  0  0
  9  3  2  0  0  0  0
 10  2  2  0  0  0  0
 11  7  1  0  0  0  0
 12 11  1  0  0  0  0
 13  8  2  0  0  0  0
 14  8  1  0  0  0  0
 15  9  1  0  0  0  0
 16 12  1  0  0  0  0
 17 19  1  0  0  0  0
 18 23  1  0  0  0  0
 19 14  2  0  0  0  0
 20 13  1  0  0  0  0
 21 16  2  0  0  0  0
 22 16  1  0  0  0  0
 23 22  2  0  0  0  0
 24 21  1  0  0  0  0
 25 18  1  0  0  0  0
 26 17  1  0  0  0  0
 27 25  1  0  0  0  0
 28 26  1  0  0  0  0
 20 17  2  0  0  0  0
  5  3  1  0  0  0  0
 11 15  2  0  0  0  0
 24 18  2  0  0  0  0
M  END
> <IDNUMBER>
F3385-3711

> <Chemical_Name>
3-(4-methoxyphenyl)-7-[(4-methoxyphenyl)amino]-4H-chromen-4-one

> <CAS>
864760-93-0

> <PriceCoeff>
1.00

> <MW>
373.40

> <Description>
solid

> <FSP3>
0.09

> <clogP>
4.78

> <TPSA>
56.79

> <Acceptor>
5

> <Donor>
1

> <RotBonds>
5

> <HAC>
28

> <Collection>
General

> <Reference_compound>
CHEMBL44

> <Similarity>
0.8370

$$$$
F3222-2363
  -ISIS-  06222321462D

 34 38  0  0  0  0  0  0  0  0999 V2000
    5.5417  -10.2500    0.0000 C   0  0  0  0  0  0  0  0  0  0  0  0
    6.2667   -9.8667    0.0000 C   0  0  0  0  0  0  0  0  0  0  0  0
    4.8750   -8.9792    0.0000 N   0  0  3  0  0  0  0  0  0  0  0  0
    5.6042   -8.6000    0.0000 C   0  0  0  0  0  0  0  0  0  0  0  0
    6.3042   -9.0375    0.0000 N   0  0  0  0  0  0  0  0  0  0  0  0
    4.8417   -9.8042    0.0000 C   0  0  0  0  0  0  0  0  0  0  0  0
    5.6792  -11.0625    0.0000 C   0  0  0  0  0  0  0  0  0  0  0  0
    6.4917  -11.1792    0.0000 C   0  0  0  0  0  0  0  0  0  0  0  0
    6.8625  -10.4500    0.0000 S   0  0  0  0  0  0  0  0  0  0  0  0
    5.0292   -4.8375    0.0000 N   0  3  0  0  0  0  0  0  0  0  0  0
    6.2917  -12.5917    0.0000 N   0  0  3  0  0  0  0  0  0  0  0  0
    6.8042  -11.9417    0.0000 C   0  0  0  0  0  0  0  0  0  0  0  0
    5.6375   -7.7750    0.0000 S   0  0  0  0  0  0  0  0  0  0  0  0
    6.5917  -13.3625    0.0000 C   0  0  0  0  0  0  0  0  0  0  0  0
    5.7292   -5.2917    0.0000 C   0  0  0  0  0  0  0  0  0  0  0  0
    5.1750  -11.7042    0.0000 C   0  0  0  0  0  0  0  0  0  0  0  0
    4.1792   -8.5292    0.0000 C   0  0  0  0  0  0  0  0  0  0  0  0
    4.0917  -10.1792    0.0000 O   0  0  0  0  0  0  0  0  0  0  0  0
    5.0667   -4.0042    0.0000 O   0  5  0  0  0  0  0  0  0  0  0  0
    5.4792  -12.4750    0.0000 C   0  0  0  0  0  0  0  0  0  0  0  0
    4.3000   -5.2250    0.0000 O   0  0  0  0  0  0  0  0  0  0  0  0
    5.7000   -6.1167    0.0000 C   0  0  0  0  0  0  0  0  0  0  0  0
    7.4042  -13.4917    0.0000 O   0  0  0  0  0  0  0  0  0  0  0  0
    6.3667   -7.3875    0.0000 C   0  0  0  0  0  0  0  0  0  0  0  0
    6.4000   -6.5625    0.0000 C   0  0  0  0  0  0  0  0  0  0  0  0
    6.0750  -14.0042    0.0000 C   0  0  0  0  0  0  0  0  0  0  0  0
    6.4667   -4.9125    0.0000 C   0  0  0  0  0  0  0  0  0  0  0  0
    7.1625   -5.3500    0.0000 C   0  0  0  0  0  0  0  0  0  0  0  0
    3.4500   -8.9167    0.0000 C   0  0  0  0  0  0  0  0  0  0  0  0
    4.2167   -7.7042    0.0000 C   0  0  0  0  0  0  0  0  0  0  0  0
    7.1292   -6.1750    0.0000 C   0  0  0  0  0  0  0  0  0  0  0  0
    2.7500   -8.4792    0.0000 C   0  0  0  0  0  0  0  0  0  0  0  0
    3.5167   -7.2667    0.0000 C   0  0  0  0  0  0  0  0  0  0  0  0
    2.7917   -7.6542    0.0000 C   0  0  0  0  0  0  0  0  0  0  0  0
  2  1  2  0  0  0  0
  3  6  1  0  0  0  0
  4  3  1  0  0  0  0
  5  2  1  0  0  0  0
  6  1  1  0  0  0  0
  7  1  1  0  0  0  0
  8  7  2  0  0  0  0
  9  2  1  0  0  0  0
 10 15  1  0  0  0  0
 11 20  1  0  0  0  0
 12  8  1  0  0  0  0
 13  4  1  0  0  0  0
 14 11  1  0  0  0  0
 15 22  1  0  0  0  0
 16  7  1  0  0  0  0
 17  3  1  0  0  0  0
 18  6  2  0  0  0  0
 19 10  1  0  0  0  0
 20 16  1  0  0  0  0
 21 10  2  0  0  0  0
 22 25  2  0  0  0  0
 23 14  2  0  0  0  0
 24 13  1  0  0  0  0
 25 24  1  0  0  0  0
 26 14  1  0  0  0  0
 27 28  1  0  0  0  0
 28 31  2  0  0  0  0
 29 17  1  0  0  0  0
 30 17  2  0  0  0  0
 31 25  1  0  0  0  0
 32 29  2  0  0  0  0
 33 30  1  0  0  0  0
 34 33  2  0  0  0  0
  8  9  1  0  0  0  0
  5  4  2  0  0  0  0
 12 11  1  0  0  0  0
 32 34  1  0  0  0  0
 27 15  2  0  0  0  0
M  CHG  2  10   1  19  -1
M  END
> <IDNUMBER>
F3222-2363

> <Chemical_Name>
11-acetyl-5-{[(3-nitrophenyl)methyl]sulfanyl}-4-phenyl-8-thia-4,6,11-triazatricyclo[7.4.0.0^{2,7}]trideca-1(9),2(7),5-trien-3-one

> <CAS>
946236-34-6

> <PriceCoeff>
1.00

> <MW>
492.57

> <Description>
solid

> <FSP3>
0.21

> <clogP>
3.38

> <TPSA>
149.66

> <Acceptor>
5

> <Donor>
0

> <RotBonds>
6

> <HAC>
34

> <Collection>
General

> <Reference_compound>
CHEMBL577016

> <Similarity>
0.8970

$$$$
F0916-2583
  -ISIS-  06222321452D

 28 31  0  0  0  0  0  0  0  0999 V2000
   10.2417    2.6625    0.0000 C   0  0  0  0  0  0  0  0  0  0  0  0
    8.2542    1.5458    0.0000 C   0  0  0  0  0  0  0  0  0  0  0  0
    6.3542    2.6625    0.0000 C   0  0  0  0  0  0  0  0  0  0  0  0
   10.2417    4.9167    0.0000 C   0  0  0  0  0  0  0  0  0  0  0  0
    6.3542    4.9167    0.0000 C   0  0  0  0  0  0  0  0  0  0  0  0
    8.2542    6.0292    0.0000 O   0  0  0  0  0  0  0  0  0  0  0  0
   12.1667    1.5458    0.0000 C   0  0  0  0  0  0  0  0  0  0  0  0
    4.4042    1.5458    0.0000 C   0  0  0  0  0  0  0  0  0  0  0  0
    4.4042    6.0292    0.0000 C   0  0  0  0  0  0  0  0  0  0  0  0
    8.2542   -0.6750    0.0000 O   0  0  0  0  0  0  0  0  0  0  0  0
   12.1292   -0.6750    0.0000 C   0  0  0  0  0  0  0  0  0  0  0  0
    2.4750    4.9000    0.0000 C   0  0  0  0  0  0  0  0  0  0  0  0
    0.5500    6.0042    0.0000 O   0  0  0  0  0  0  0  0  0  0  0  0
    2.4750    2.6625    0.0000 C   0  0  0  0  0  0  0  0  0  0  0  0
   -3.3083    6.0042    0.0000 C   0  0  0  0  0  0  0  0  0  0  0  0
   -1.3583    4.9000    0.0000 C   0  0  0  0  0  0  0  0  0  0  0  0
   -7.1542    8.2417    0.0000 C   0  0  0  0  0  0  0  0  0  0  0  0
   -3.2833    8.2417    0.0000 C   0  0  0  0  0  0  0  0  0  0  0  0
   -5.1958    4.9000    0.0000 C   0  0  0  0  0  0  0  0  0  0  0  0
   10.1792   -1.7667    0.0000 O   0  0  0  0  0  0  0  0  0  0  0  0
   -5.2333    9.3625    0.0000 C   0  0  0  0  0  0  0  0  0  0  0  0
   -7.1542    6.0042    0.0000 C   0  0  0  0  0  0  0  0  0  0  0  0
   14.0667    2.6625    0.0000 C   0  0  0  0  0  0  0  0  0  0  0  0
   14.0542   -1.7667    0.0000 C   0  0  0  0  0  0  0  0  0  0  0  0
   -9.0542    9.3625    0.0000 C   0  0  0  0  0  0  0  0  0  0  0  0
   10.1792   -4.0167    0.0000 C   0  0  0  0  0  0  0  0  0  0  0  0
   16.0000    1.5458    0.0000 C   0  0  0  0  0  0  0  0  0  0  0  0
   16.0000   -0.6875    0.0000 C   0  0  0  0  0  0  0  0  0  0  0  0
  2  1  1  0  0  0  0
  3  2  1  0  0  0  0
  4  1  2  0  0  0  0
  5  6  1  0  0  0  0
  6  4  1  0  0  0  0
  7  1  1  0  0  0  0
  8  3  2  0  0  0  0
  9  5  2  0  0  0  0
 10  2  2  0  0  0  0
 11  7  2  0  0  0  0
 12  9  1  0  0  0  0
 13 12  1  0  0  0  0
 14  8  1  0  0  0  0
 15 16  1  0  0  0  0
 16 13  1  0  0  0  0
 17 22  1  0  0  0  0
 18 15  2  0  0  0  0
 19 15  1  0  0  0  0
 20 11  1  0  0  0  0
 21 18  1  0  0  0  0
 22 19  2  0  0  0  0
 23  7  1  0  0  0  0
 24 11  1  0  0  0  0
 25 17  1  0  0  0  0
 26 20  1  0  0  0  0
 27 23  2  0  0  0  0
 28 27  1  0  0  0  0
  5  3  1  0  0  0  0
 24 28  2  0  0  0  0
 12 14  2  0  0  0  0
 21 17  2  0  0  0  0
M  END
> <IDNUMBER>
F0916-2583

> <Chemical_Name>
3-(2-methoxyphenyl)-7-[(4-methylphenyl)methoxy]-4H-chromen-4-one

> <CAS>
329224-97-7

> <PriceCoeff>
1.00

> <MW>
372.41

> <Description>
solid

> <FSP3>
0.12

> <clogP>
4.73

> <TPSA>
44.76

> <Acceptor>
4

> <Donor>
0

> <RotBonds>
5

> <HAC>
28

> <Collection>
General

> <Reference_compound>
CHEMBL44

> <Similarity>
0.8470

$$$$
F3222-2462
  -ISIS-  06222321442D

 36 40  0  0  0  0  0  0  0  0999 V2000
    5.4167   -9.0917    0.0000 C   0  0  0  0  0  0  0  0  0  0  0  0
    6.1500   -8.7042    0.0000 C   0  0  0  0  0  0  0  0  0  0  0  0
    4.7542   -7.8167    0.0000 N   0  0  3  0  0  0  0  0  0  0  0  0
    5.4792   -7.4417    0.0000 C   0  0  0  0  0  0  0  0  0  0  0  0
    6.1792   -7.8792    0.0000 N   0  0  0  0  0  0  0  0  0  0  0  0
    4.7167   -8.6417    0.0000 C   0  0  0  0  0  0  0  0  0  0  0  0
    5.5625   -9.9042    0.0000 C   0  0  0  0  0  0  0  0  0  0  0  0
    6.3750  -10.0167    0.0000 C   0  0  0  0  0  0  0  0  0  0  0  0
    6.7417   -9.2917    0.0000 S   0  0  0  0  0  0  0  0  0  0  0  0
    6.1667  -11.4292    0.0000 N   0  0  3  0  0  0  0  0  0  0  0  0
    6.6792  -10.7792    0.0000 C   0  0  0  0  0  0  0  0  0  0  0  0
    5.5167   -6.6167    0.0000 S   0  0  0  0  0  0  0  0  0  0  0  0
    6.4667  -12.2042    0.0000 C   0  0  0  0  0  0  0  0  0  0  0  0
    4.0542   -7.3750    0.0000 C   0  0  0  0  0  0  0  0  0  0  0  0
    5.0542  -10.5500    0.0000 C   0  0  0  0  0  0  0  0  0  0  0  0
    3.9750   -9.0250    0.0000 O   0  0  0  0  0  0  0  0  0  0  0  0
    6.2792   -5.4042    0.0000 C   0  0  0  0  0  0  0  0  0  0  0  0
    5.3625  -11.3167    0.0000 C   0  0  0  0  0  0  0  0  0  0  0  0
    7.0042   -5.0167    0.0000 N   0  0  0  0  0  0  0  0  0  0  0  0
    7.2875  -12.3292    0.0000 O   0  0  0  0  0  0  0  0  0  0  0  0
    5.5792   -4.9625    0.0000 O   0  0  0  0  0  0  0  0  0  0  0  0
    6.2417   -6.2292    0.0000 C   0  0  0  0  0  0  0  0  0  0  0  0
    4.1000   -6.5500    0.0000 C   0  0  0  0  0  0  0  0  0  0  0  0
    3.3167   -7.7542    0.0000 C   0  0  0  0  0  0  0  0  0  0  0  0
    7.0417   -4.1917    0.0000 C   0  0  0  0  0  0  0  0  0  0  0  0
    7.1000   -2.5292    0.0000 C   0  0  0  0  0  0  0  0  0  0  0  0
    2.6292   -7.3042    0.0000 C   0  0  0  0  0  0  0  0  0  0  0  0
    3.4042   -6.1042    0.0000 C   0  0  0  0  0  0  0  0  0  0  0  0
    2.6750   -6.4792    0.0000 C   0  0  0  0  0  0  0  0  0  0  0  0
    7.1167   -1.7042    0.0000 Cl  0  0  0  0  0  0  0  0  0  0  0  0
    7.7667   -3.8042    0.0000 C   0  0  0  0  0  0  0  0  0  0  0  0
    6.3417   -3.7542    0.0000 C   0  0  0  0  0  0  0  0  0  0  0  0
    7.8042   -2.9792    0.0000 C   0  0  0  0  0  0  0  0  0  0  0  0
    6.3750   -2.9250    0.0000 C   0  0  0  0  0  0  0  0  0  0  0  0
    5.9542  -12.8417    0.0000 C   0  0  0  0  0  0  0  0  0  0  0  0
    1.9792   -6.0250    0.0000 C   0  0  0  0  0  0  0  0  0  0  0  0
  2  1  2  0  0  0  0
  3  6  1  0  0  0  0
  4  3  1  0  0  0  0
  5  2  1  0  0  0  0
  6  1  1  0  0  0  0
  7  1  1  0  0  0  0
  8  7  2  0  0  0  0
  9  2  1  0  0  0  0
 10 18  1  0  0  0  0
 11  8  1  0  0  0  0
 12  4  1  0  0  0  0
 13 10  1  0  0  0  0
 14  3  1  0  0  0  0
 15  7  1  0  0  0  0
 16  6  2  0  0  0  0
 17 22  1  0  0  0  0
 18 15  1  0  0  0  0
 19 17  1  0  0  0  0
 20 13  2  0  0  0  0
 21 17  2  0  0  0  0
 22 12  1  0  0  0  0
 23 14  2  0  0  0  0
 24 14  1  0  0  0  0
 25 19  1  0  0  0  0
 26 34  1  0  0  0  0
 27 24  2  0  0  0  0
 28 23  1  0  0  0  0
 29 27  1  0  0  0  0
 30 26  1  0  0  0  0
 31 25  2  0  0  0  0
 32 25  1  0  0  0  0
 33 31  1  0  0  0  0
 34 32  2  0  0  0  0
 35 13  1  0  0  0  0
 36 29  1  0  0  0  0
  8  9  1  0  0  0  0
  5  4  2  0  0  0  0
 11 10  1  0  0  0  0
 28 29  2  0  0  0  0
 33 26  2  0  0  0  0
M  END
> <IDNUMBER>
F3222-2462

> <Chemical_Name>
2-{[11-acetyl-4-(4-methylphenyl)-3-oxo-8-thia-4,6,11-triazatricyclo[7.4.0.0^{2,7}]trideca-1(9),2(7),5-trien-5-yl]sulfanyl}-N-(4-chlorophenyl)acetamide

> <CAS>
1185080-84-5

> <PriceCoeff>
1.00

> <MW>
539.07

> <Description>
solid

> <FSP3>
0.23

> <clogP>
4.07

> <TPSA>
135.62

> <Acceptor>
4

> <Donor>
1

> <RotBonds>
6

> <HAC>
36

> <Collection>
General

> <Reference_compound>
CHEMBL577016

> <Similarity>
0.9100

$$$$
F3168-0278
  -ISIS-  06222321462D

 38 42  0  0  0  0  0  0  0  0999 V2000
    6.1542   -3.8792    0.0000 C   0  0  0  0  0  0  0  0  0  0  0  0
    6.1542   -4.7125    0.0000 C   0  0  0  0  0  0  0  0  0  0  0  0
    7.5875   -3.8792    0.0000 N   0  0  3  0  0  0  0  0  0  0  0  0
    7.5875   -4.7125    0.0000 C   0  0  0  0  0  0  0  0  0  0  0  0
    6.8750   -5.1292    0.0000 N   0  0  0  0  0  0  0  0  0  0  0  0
    6.8750   -3.4667    0.0000 C   0  0  0  0  0  0  0  0  0  0  0  0
    5.3667   -3.6250    0.0000 C   0  0  0  0  0  0  0  0  0  0  0  0
    4.8792   -4.2917    0.0000 C   0  0  0  0  0  0  0  0  0  0  0  0
    5.3667   -4.9667    0.0000 S   0  0  0  0  0  0  0  0  0  0  0  0
    3.7167   -3.4500    0.0000 N   0  0  3  0  0  0  0  0  0  0  0  0
    4.0542   -4.2042    0.0000 C   0  0  0  0  0  0  0  0  0  0  0  0
    8.3042   -5.1292    0.0000 S   0  0  0  0  0  0  0  0  0  0  0  0
    2.8917   -3.3542    0.0000 C   0  0  0  0  0  0  0  0  0  0  0  0
    8.3042   -3.4667    0.0000 C   0  0  0  0  0  0  0  0  0  0  0  0
    9.0542   -7.1875    0.0000 N   0  0  0  0  0  0  0  0  0  0  0  0
    5.0250   -2.8667    0.0000 C   0  0  0  0  0  0  0  0  0  0  0  0
    9.7750   -7.5875    0.0000 C   0  0  0  0  0  0  0  0  0  0  0  0
    9.7917   -8.4167    0.0000 C   0  0  0  0  0  0  0  0  0  0  0  0
    9.0375   -6.3542    0.0000 C   0  0  0  0  0  0  0  0  0  0  0  0
    6.8750   -2.6417    0.0000 O   0  0  0  0  0  0  0  0  0  0  0  0
   10.5167   -8.8167    0.0000 C   0  0  0  0  0  0  0  0  0  0  0  0
    4.2042   -2.7792    0.0000 C   0  0  0  0  0  0  0  0  0  0  0  0
    2.3917   -4.0292    0.0000 O   0  0  0  0  0  0  0  0  0  0  0  0
    9.7417   -5.9167    0.0000 O   0  0  0  0  0  0  0  0  0  0  0  0
   10.4792   -7.1542    0.0000 C   0  0  0  0  0  0  0  0  0  0  0  0
    8.3125   -5.9500    0.0000 C   0  0  0  0  0  0  0  0  0  0  0  0
    8.3042   -2.6292    0.0000 C   0  0  0  0  0  0  0  0  0  0  0  0
    9.0167   -3.8750    0.0000 C   0  0  0  0  0  0  0  0  0  0  0  0
   11.2292   -8.3875    0.0000 C   0  0  0  0  0  0  0  0  0  0  0  0
    9.0875   -8.8417    0.0000 F   0  0  0  0  0  0  0  0  0  0  0  0
    9.7417   -2.6292    0.0000 C   0  0  0  0  0  0  0  0  0  0  0  0
   11.2042   -7.5542    0.0000 C   0  0  0  0  0  0  0  0  0  0  0  0
    9.0167   -2.2167    0.0000 C   0  0  0  0  0  0  0  0  0  0  0  0
    9.7375   -3.4667    0.0000 C   0  0  0  0  0  0  0  0  0  0  0  0
   11.9542   -8.7875    0.0000 F   0  0  0  0  0  0  0  0  0  0  0  0
   10.4542   -2.2250    0.0000 O   0  0  0  0  0  0  0  0  0  0  0  0
    2.5500   -2.6042    0.0000 C   0  0  0  0  0  0  0  0  0  0  0  0
   10.4542   -1.3917    0.0000 C   0  0  0  0  0  0  0  0  0  0  0  0
  2  1  2  0  0  0  0
  3  6  1  0  0  0  0
  4  3  1  0  0  0  0
  5  2  1  0  0  0  0
  6  1  1  0  0  0  0
  7  1  1  0  0  0  0
  8  7  2  0  0  0  0
  9  2  1  0  0  0  0
 10 22  1  0  0  0  0
 11  8  1  0  0  0  0
 12  4  1  0  0  0  0
 13 10  1  0  0  0  0
 14  3  1  0  0  0  0
 15 19  1  0  0  0  0
 16  7  1  0  0  0  0
 17 15  1  0  0  0  0
 18 17  1  0  0  0  0
 19 26  1  0  0  0  0
 20  6  2  0  0  0  0
 21 18  2  0  0  0  0
 22 16  1  0  0  0  0
 23 13  2  0  0  0  0
 24 19  2  0  0  0  0
 25 17  2  0  0  0  0
 26 12  1  0  0  0  0
 27 14  1  0  0  0  0
 28 14  2  0  0  0  0
 29 32  2  0  0  0  0
 30 18  1  0  0  0  0
 31 34  2  0  0  0  0
 32 25  1  0  0  0  0
 33 27  2  0  0  0  0
 34 28  1  0  0  0  0
 35 29  1  0  0  0  0
 36 31  1  0  0  0  0
 37 13  1  0  0  0  0
 38 36  1  0  0  0  0
  9  8  1  0  0  0  0
  4  5  2  0  0  0  0
 11 10  1  0  0  0  0
 33 31  1  0  0  0  0
 29 21  1  0  0  0  0
M  END
> <IDNUMBER>
F3168-0278

> <Chemical_Name>
2-{[11-acetyl-4-(4-methoxyphenyl)-3-oxo-8-thia-4,6,11-triazatricyclo[7.4.0.0^{2,7}]trideca-1(9),2(7),5-trien-5-yl]sulfanyl}-N-(2,4-difluorophenyl)acetamide

> <CAS>
892282-39-2

> <PriceCoeff>
1.00

> <MW>
556.60

> <Description>
solid

> <FSP3>
0.23

> <clogP>
2.72

> <TPSA>
144.85

> <Acceptor>
5

> <Donor>
1

> <RotBonds>
7

> <HAC>
38

> <Collection>
General

> <Reference_compound>
CHEMBL577016

> <Similarity>
0.8310

$$$$
F2018-4365
  -ISIS-  06222304352D

 36 39  0  0  0  0  0  0  0  0999 V2000
   -3.1583    2.9833    0.0000 C   0  0  0  0  0  0  0  0  0  0  0  0
   -2.4375    2.5625    0.0000 N   0  0  3  0  0  0  0  0  0  0  0  0
   -3.9125    2.6458    0.0000 N   0  0  0  0  0  0  0  0  0  0  0  0
    1.1292    1.3083    0.0000 N   0  0  3  0  0  0  0  0  0  0  0  0
   -3.2458    3.8083    0.0000 S   0  0  0  0  0  0  0  0  0  0  0  0
   -1.7250    2.9833    0.0000 C   0  0  0  0  0  0  0  0  0  0  0  0
   -4.4708    3.2583    0.0000 C   0  0  0  0  0  0  0  0  0  0  0  0
   -4.0583    3.9708    0.0000 C   0  0  0  0  0  0  0  0  0  0  0  0
    1.8792    1.6750    0.0000 C   0  0  0  0  0  0  0  0  0  0  0  0
    1.2500    0.5000    0.0000 C   0  0  0  0  0  0  0  0  0  0  0  0
   -5.2833    3.2500    0.0000 C   0  0  0  0  0  0  0  0  0  0  0  0
   -4.4708    4.6792    0.0000 C   0  0  0  0  0  0  0  0  0  0  0  0
   -5.2958    4.6667    0.0000 C   0  0  0  0  0  0  0  0  0  0  0  0
   -5.7083    3.9583    0.0000 C   0  0  0  0  0  0  0  0  0  0  0  0
   -2.4375    1.7375    0.0000 C   0  0  0  0  0  0  0  0  0  0  0  0
    0.4167    1.7333    0.0000 C   0  0  0  0  0  0  0  0  0  0  0  0
   -1.0125    2.5625    0.0000 C   0  0  0  0  0  0  0  0  0  0  0  0
   -6.5042    4.1250    0.0000 O   0  0  0  0  0  0  0  0  0  0  0  0
   -5.8500    5.2792    0.0000 O   0  0  0  0  0  0  0  0  0  0  0  0
   -1.7250    3.8000    0.0000 O   0  0  0  0  0  0  0  0  0  0  0  0
   -6.5917    4.9417    0.0000 C   0  0  0  0  0  0  0  0  0  0  0  0
    2.4542    1.0750    0.0000 C   0  0  0  0  0  0  0  0  0  0  0  0
    2.0625    0.3583    0.0000 C   0  0  0  0  0  0  0  0  0  0  0  0
    2.0292    2.5083    0.0000 O   0  0  0  0  0  0  0  0  0  0  0  0
    0.6542   -0.0792    0.0000 O   0  0  0  0  0  0  0  0  0  0  0  0
    0.4250    2.5625    0.0000 C   0  0  0  0  0  0  0  0  0  0  0  0
   -0.3000    1.3333    0.0000 C   0  0  0  0  0  0  0  0  0  0  0  0
   -1.0083    1.7458    0.0000 C   0  0  0  0  0  0  0  0  0  0  0  0
   -0.2833    2.9833    0.0000 C   0  0  0  0  0  0  0  0  0  0  0  0
   -3.1583    1.3250    0.0000 C   0  0  0  0  0  0  0  0  0  0  0  0
   -3.1583    0.5000    0.0000 N   0  0  3  0  0  0  0  0  0  0  0  0
   -2.4375    0.0875    0.0000 C   0  0  0  0  0  0  0  0  0  0  0  0
   -3.8708    0.0875    0.0000 C   0  0  0  0  0  0  0  0  0  0  0  0
   -2.4375   -0.7375    0.0000 C   0  0  0  0  0  0  0  0  0  0  0  0
   -4.5833    0.5000    0.0000 C   0  0  0  0  0  0  0  0  0  0  0  0
    3.8417    2.4208    0.0000 Cl  0  0  0  0  0  0  0  0  0  0  0  0
  3  1  2  0  0  0  0
  4 16  1  0  0  0  0
  5  1  1  0  0  0  0
  6  2  1  0  0  0  0
  7  3  1  0  0  0  0
  8  5  1  0  0  0  0
  9  4  1  0  0  0  0
 10  4  1  0  0  0  0
 11  7  1  0  0  0  0
 12  8  1  0  0  0  0
 13 12  2  0  0  0  0
 14 11  2  0  0  0  0
 15  2  1  0  0  0  0
 16 26  1  0  0  0  0
 17  6  1  0  0  0  0
 18 14  1  0  0  0  0
 19 13  1  0  0  0  0
 20  6  2  0  0  0  0
 21 19  1  0  0  0  0
 22  9  1  0  0  0  0
 23 10  1  0  0  0  0
 24  9  2  0  0  0  0
 25 10  2  0  0  0  0
 26 29  2  0  0  0  0
 27 28  1  0  0  0  0
 28 17  2  0  0  0  0
 29 17  1  0  0  0  0
 30 15  1  0  0  0  0
 31 30  1  0  0  0  0
 32 31  1  0  0  0  0
 33 31  1  0  0  0  0
 34 32  1  0  0  0  0
 35 33  1  0  0  0  0
  8  7  2  0  0  0  0
 13 14  1  0  0  0  0
 16 27  2  0  0  0  0
 18 21  1  0  0  0  0
 23 22  1  0  0  0  0
  2  1  1  0  0  0  0
M  END
> <IDNUMBER>
F2018-4365

> <Chemical_Name>
N-[2-(diethylamino)ethyl]-N-{4,6-dioxa-10-thia-12-azatricyclo[7.3.0.0^{3,7}]dodeca-1(9),2,7,11-tetraen-11-yl}-4-(2,5-dioxopyrrolidin-1-yl)benzamide hydrochloride

> <CAS>
1052537-76-4

> <PriceCoeff>
1.00

> <MW>
494.56

> <Description>
solid

> <FSP3>
0.36

> <clogP>
2.74

> <TPSA>
120.52

> <Acceptor>
6

> <Donor>
1

> <RotBonds>
9

> <HAC>
35

> <Collection>
General

$$$$
F2018-4382
  -ISIS-  06222304352D

 36 39  0  0  0  0  0  0  0  0999 V2000
   -3.1583    2.9833    0.0000 C   0  0  0  0  0  0  0  0  0  0  0  0
   -2.4375    2.5625    0.0000 N   0  0  3  0  0  0  0  0  0  0  0  0
   -3.9125    2.6458    0.0000 N   0  0  0  0  0  0  0  0  0  0  0  0
   -0.2958    0.4958    0.0000 N   0  0  3  0  0  0  0  0  0  0  0  0
   -3.2458    3.8083    0.0000 S   0  0  0  0  0  0  0  0  0  0  0  0
   -1.7250    2.9833    0.0000 C   0  0  0  0  0  0  0  0  0  0  0  0
   -4.4708    3.2583    0.0000 C   0  0  0  0  0  0  0  0  0  0  0  0
   -4.0583    3.9708    0.0000 C   0  0  0  0  0  0  0  0  0  0  0  0
   -0.2958    1.3333    0.0000 C   0  0  0  0  0  0  0  0  0  0  0  0
    0.3500   -0.0167    0.0000 C   0  0  0  0  0  0  0  0  0  0  0  0
   -0.9958    0.0458    0.0000 C   0  0  0  0  0  0  0  0  0  0  0  0
   -1.0125    2.5625    0.0000 C   0  0  0  0  0  0  0  0  0  0  0  0
   -5.2833    3.2500    0.0000 C   0  0  0  0  0  0  0  0  0  0  0  0
   -4.4708    4.6792    0.0000 C   0  0  0  0  0  0  0  0  0  0  0  0
   -5.2958    4.6667    0.0000 C   0  0  0  0  0  0  0  0  0  0  0  0
   -5.7083    3.9583    0.0000 C   0  0  0  0  0  0  0  0  0  0  0  0
   -1.0083    1.7458    0.0000 C   0  0  0  0  0  0  0  0  0  0  0  0
   -2.4375    1.7375    0.0000 C   0  0  0  0  0  0  0  0  0  0  0  0
   -5.8500    5.2792    0.0000 O   0  0  0  0  0  0  0  0  0  0  0  0
   -6.5042    4.1250    0.0000 O   0  0  0  0  0  0  0  0  0  0  0  0
   -1.7250    3.8000    0.0000 O   0  0  0  0  0  0  0  0  0  0  0  0
   -6.5917    4.9417    0.0000 C   0  0  0  0  0  0  0  0  0  0  0  0
    0.0667   -0.7917    0.0000 C   0  0  0  0  0  0  0  0  0  0  0  0
   -0.7583   -0.7667    0.0000 C   0  0  0  0  0  0  0  0  0  0  0  0
    1.1417    0.1958    0.0000 O   0  0  0  0  0  0  0  0  0  0  0  0
   -1.7583    0.3333    0.0000 O   0  0  0  0  0  0  0  0  0  0  0  0
   -3.1583    1.3250    0.0000 C   0  0  0  0  0  0  0  0  0  0  0  0
   -3.1583    0.5000    0.0000 N   0  0  3  0  0  0  0  0  0  0  0  0
    0.4167    1.7333    0.0000 C   0  0  0  0  0  0  0  0  0  0  0  0
   -0.2875    2.9833    0.0000 C   0  0  0  0  0  0  0  0  0  0  0  0
    0.4250    2.5625    0.0000 C   0  0  0  0  0  0  0  0  0  0  0  0
   -2.4375    0.0875    0.0000 C   0  0  0  0  0  0  0  0  0  0  0  0
   -3.8708    0.0875    0.0000 C   0  0  0  0  0  0  0  0  0  0  0  0
   -2.4375   -0.7375    0.0000 C   0  0  0  0  0  0  0  0  0  0  0  0
   -4.5833    0.5000    0.0000 C   0  0  0  0  0  0  0  0  0  0  0  0
    2.6584    2.3958    0.0000 Cl  0  0  0  0  0  0  0  0  0  0  0  0
  3  1  2  0  0  0  0
  4  9  1  0  0  0  0
  5  1  1  0  0  0  0
  6  2  1  0  0  0  0
  7  3  1  0  0  0  0
  8  5  1  0  0  0  0
  9 17  1  0  0  0  0
 10  4  1  0  0  0  0
 11  4  1  0  0  0  0
 12  6  1  0  0  0  0
 13  7  1  0  0  0  0
 14  8  1  0  0  0  0
 15 14  2  0  0  0  0
 16 13  2  0  0  0  0
 17 12  2  0  0  0  0
 18  2  1  0  0  0  0
 19 15  1  0  0  0  0
 20 16  1  0  0  0  0
 21  6  2  0  0  0  0
 22 19  1  0  0  0  0
 23 10  1  0  0  0  0
 24 11  1  0  0  0  0
 25 10  2  0  0  0  0
 26 11  2  0  0  0  0
 27 18  1  0  0  0  0
 28 27  1  0  0  0  0
 29 31  1  0  0  0  0
 30 12  1  0  0  0  0
 31 30  2  0  0  0  0
 32 28  1  0  0  0  0
 33 28  1  0  0  0  0
 34 32  1  0  0  0  0
 35 33  1  0  0  0  0
  8  7  2  0  0  0  0
 15 16  1  0  0  0  0
 20 22  1  0  0  0  0
  9 29  2  0  0  0  0
 24 23  1  0  0  0  0
  2  1  1  0  0  0  0
M  END
> <IDNUMBER>
F2018-4382

> <Chemical_Name>
N-[2-(diethylamino)ethyl]-N-{4,6-dioxa-10-thia-12-azatricyclo[7.3.0.0^{3,7}]dodeca-1(9),2,7,11-tetraen-11-yl}-3-(2,5-dioxopyrrolidin-1-yl)benzamide hydrochloride

> <CAS>
1052530-19-4

> <PriceCoeff>
1.00

> <MW>
494.56

> <Description>
solid

> <FSP3>
0.36

> <clogP>
2.74

> <TPSA>
120.52

> <Acceptor>
6

> <Donor>
1

> <RotBonds>
9

> <HAC>
35

> <Collection>
General

$$$$
F3222-2467
  -ISIS-  06222321462D

 38 42  0  0  0  0  0  0  0  0999 V2000
    4.7667   -9.0917    0.0000 C   0  0  0  0  0  0  0  0  0  0  0  0
    5.4917   -8.7042    0.0000 C   0  0  0  0  0  0  0  0  0  0  0  0
    4.1000   -7.8167    0.0000 N   0  0  3  0  0  0  0  0  0  0  0  0
    4.8292   -7.4417    0.0000 C   0  0  0  0  0  0  0  0  0  0  0  0
    5.5292   -7.8792    0.0000 N   0  0  0  0  0  0  0  0  0  0  0  0
    4.0667   -8.6417    0.0000 C   0  0  0  0  0  0  0  0  0  0  0  0
    4.9042   -9.9042    0.0000 C   0  0  0  0  0  0  0  0  0  0  0  0
    5.7167  -10.0167    0.0000 C   0  0  0  0  0  0  0  0  0  0  0  0
    6.0875   -9.2917    0.0000 S   0  0  0  0  0  0  0  0  0  0  0  0
    5.5167  -11.4292    0.0000 N   0  0  3  0  0  0  0  0  0  0  0  0
    6.0292  -10.7792    0.0000 C   0  0  0  0  0  0  0  0  0  0  0  0
    4.8625   -6.6167    0.0000 S   0  0  0  0  0  0  0  0  0  0  0  0
    5.8167  -12.2042    0.0000 C   0  0  0  0  0  0  0  0  0  0  0  0
    3.4042   -7.3750    0.0000 C   0  0  0  0  0  0  0  0  0  0  0  0
    4.4000  -10.5500    0.0000 C   0  0  0  0  0  0  0  0  0  0  0  0
    3.3167   -9.0250    0.0000 O   0  0  0  0  0  0  0  0  0  0  0  0
    5.6250   -5.4042    0.0000 C   0  0  0  0  0  0  0  0  0  0  0  0
    4.7042  -11.3167    0.0000 C   0  0  0  0  0  0  0  0  0  0  0  0
    6.3542   -5.0167    0.0000 N   0  0  0  0  0  0  0  0  0  0  0  0
    6.6292  -12.3292    0.0000 O   0  0  0  0  0  0  0  0  0  0  0  0
    4.9250   -4.9625    0.0000 O   0  0  0  0  0  0  0  0  0  0  0  0
    5.5917   -6.2292    0.0000 C   0  0  0  0  0  0  0  0  0  0  0  0
    3.4417   -6.5500    0.0000 C   0  0  0  0  0  0  0  0  0  0  0  0
    2.6667   -7.7542    0.0000 C   0  0  0  0  0  0  0  0  0  0  0  0
    6.3875   -4.1917    0.0000 C   0  0  0  0  0  0  0  0  0  0  0  0
    6.4542   -2.5417    0.0000 C   0  0  0  0  0  0  0  0  0  0  0  0
    1.9750   -7.3042    0.0000 C   0  0  0  0  0  0  0  0  0  0  0  0
    2.7542   -6.1042    0.0000 C   0  0  0  0  0  0  0  0  0  0  0  0
    2.0167   -6.4792    0.0000 C   0  0  0  0  0  0  0  0  0  0  0  0
    5.6875   -3.7500    0.0000 C   0  0  0  0  0  0  0  0  0  0  0  0
    7.1167   -3.8042    0.0000 C   0  0  0  0  0  0  0  0  0  0  0  0
    5.7167   -2.9167    0.0000 C   0  0  0  0  0  0  0  0  0  0  0  0
    7.1500   -2.9792    0.0000 C   0  0  0  0  0  0  0  0  0  0  0  0
    6.4917   -1.7167    0.0000 O   0  0  0  0  0  0  0  0  0  0  0  0
    5.3000  -12.8417    0.0000 C   0  0  0  0  0  0  0  0  0  0  0  0
    7.2292   -1.3375    0.0000 C   0  0  0  0  0  0  0  0  0  0  0  0
    1.3250   -6.0250    0.0000 C   0  0  0  0  0  0  0  0  0  0  0  0
    7.2667   -0.5125    0.0000 C   0  0  0  0  0  0  0  0  0  0  0  0
  2  1  2  0  0  0  0
  3  6  1  0  0  0  0
  4  3  1  0  0  0  0
  5  2  1  0  0  0  0
  6  1  1  0  0  0  0
  7  1  1  0  0  0  0
  8  7  2  0  0  0  0
  9  2  1  0  0  0  0
 10 18  1  0  0  0  0
 11  8  1  0  0  0  0
 12  4  1  0  0  0  0
 13 10  1  0  0  0  0
 14  3  1  0  0  0  0
 15  7  1  0  0  0  0
 16  6  2  0  0  0  0
 17 22  1  0  0  0  0
 18 15  1  0  0  0  0
 19 17  1  0  0  0  0
 20 13  2  0  0  0  0
 21 17  2  0  0  0  0
 22 12  1  0  0  0  0
 23 14  2  0  0  0  0
 24 14  1  0  0  0  0
 25 19  1  0  0  0  0
 26 33  1  0  0  0  0
 27 24  2  0  0  0  0
 28 23  1  0  0  0  0
 29 27  1  0  0  0  0
 30 25  2  0  0  0  0
 31 25  1  0  0  0  0
 32 30  1  0  0  0  0
 33 31  2  0  0  0  0
 34 26  1  0  0  0  0
 35 13  1  0  0  0  0
 36 34  1  0  0  0  0
 37 29  1  0  0  0  0
 38 36  1  0  0  0  0
  8  9  1  0  0  0  0
  5  4  2  0  0  0  0
 11 10  1  0  0  0  0
 28 29  2  0  0  0  0
 26 32  2  0  0  0  0
M  END
> <IDNUMBER>
F3222-2467

> <Chemical_Name>
2-{[11-acetyl-4-(4-methylphenyl)-3-oxo-8-thia-4,6,11-triazatricyclo[7.4.0.0^{2,7}]trideca-1(9),2(7),5-trien-5-yl]sulfanyl}-N-(4-ethoxyphenyl)acetamide

> <CAS>
1215477-25-0

> <PriceCoeff>
1.00

> <MW>
548.68

> <Description>
solid

> <FSP3>
0.29

> <clogP>
3.71

> <TPSA>
144.85

> <Acceptor>
5

> <Donor>
1

> <RotBonds>
8

> <HAC>
38

> <Collection>
General

> <Reference_compound>
CHEMBL577016

> <Similarity>
0.8840

$$$$
F3222-1432
  -ISIS-  06222321152D

 37 41  0  0  0  0  0  0  0  0999 V2000
    6.5417   -9.6917    0.0000 C   0  0  0  0  0  0  0  0  0  0  0  0
    6.6250  -10.5250    0.0000 C   0  0  0  0  0  0  0  0  0  0  0  0
    7.9667   -9.5625    0.0000 N   0  0  3  0  0  0  0  0  0  0  0  0
    8.0500  -10.3875    0.0000 C   0  0  0  0  0  0  0  0  0  0  0  0
    7.3792  -10.8667    0.0000 N   0  0  0  0  0  0  0  0  0  0  0  0
    7.2167   -9.2125    0.0000 C   0  0  0  0  0  0  0  0  0  0  0  0
    5.7250   -9.5167    0.0000 C   0  0  0  0  0  0  0  0  0  0  0  0
    5.3167  -10.2250    0.0000 C   0  0  0  0  0  0  0  0  0  0  0  0
    5.8542  -10.8417    0.0000 S   0  0  0  0  0  0  0  0  0  0  0  0
    4.0667   -9.5167    0.0000 N   0  0  3  0  0  0  0  0  0  0  0  0
    4.4875  -10.2250    0.0000 C   0  0  0  0  0  0  0  0  0  0  0  0
    8.8042  -10.7167    0.0000 S   0  0  0  0  0  0  0  0  0  0  0  0
    3.2375   -9.4917    0.0000 C   0  0  0  0  0  0  0  0  0  0  0  0
    5.3167   -8.8042    0.0000 C   0  0  0  0  0  0  0  0  0  0  0  0
    8.6417   -9.0750    0.0000 C   0  0  0  0  0  0  0  0  0  0  0  0
    7.1292   -8.3875    0.0000 O   0  0  0  0  0  0  0  0  0  0  0  0
   10.2167  -10.5792    0.0000 C   0  0  0  0  0  0  0  0  0  0  0  0
    4.4792   -8.8042    0.0000 C   0  0  0  0  0  0  0  0  0  0  0  0
   10.3042  -11.4000    0.0000 N   0  0  0  0  0  0  0  0  0  0  0  0
    2.8042  -10.2125    0.0000 O   0  0  0  0  0  0  0  0  0  0  0  0
   10.8917  -10.0917    0.0000 O   0  0  0  0  0  0  0  0  0  0  0  0
    9.4792  -10.2417    0.0000 C   0  0  0  0  0  0  0  0  0  0  0  0
    9.6292  -11.8875    0.0000 C   0  0  0  0  0  0  0  0  0  0  0  0
    8.3000  -12.8500    0.0000 C   0  0  0  0  0  0  0  0  0  0  0  0
    9.7125  -12.7042    0.0000 C   0  0  0  0  0  0  0  0  0  0  0  0
    8.8875  -11.5500    0.0000 C   0  0  0  0  0  0  0  0  0  0  0  0
    9.0417  -13.1875    0.0000 C   0  0  0  0  0  0  0  0  0  0  0  0
    8.2167  -12.0292    0.0000 C   0  0  0  0  0  0  0  0  0  0  0  0
    7.6167  -13.3292    0.0000 O   0  0  0  0  0  0  0  0  0  0  0  0
    2.8292   -8.7667    0.0000 C   0  0  0  0  0  0  0  0  0  0  0  0
    8.5667   -8.2417    0.0000 C   0  0  0  0  0  0  0  0  0  0  0  0
    9.4000   -9.4167    0.0000 C   0  0  0  0  0  0  0  0  0  0  0  0
    7.7000  -14.1542    0.0000 C   0  0  0  0  0  0  0  0  0  0  0  0
    7.0250  -14.6375    0.0000 C   0  0  0  0  0  0  0  0  0  0  0  0
   10.0750   -8.9292    0.0000 C   0  0  0  0  0  0  0  0  0  0  0  0
    9.2375   -7.7667    0.0000 C   0  0  0  0  0  0  0  0  0  0  0  0
    9.9917   -8.1042    0.0000 C   0  0  0  0  0  0  0  0  0  0  0  0
  2  1  2  0  0  0  0
  3  6  1  0  0  0  0
  4  3  1  0  0  0  0
  5  2  1  0  0  0  0
  6  1  1  0  0  0  0
  7  1  1  0  0  0  0
  8  7  2  0  0  0  0
  9  2  1  0  0  0  0
 10 18  1  0  0  0  0
 11  8  1  0  0  0  0
 12  4  1  0  0  0  0
 13 10  1  0  0  0  0
 14  7  1  0  0  0  0
 15  3  1  0  0  0  0
 16  6  2  0  0  0  0
 17 22  1  0  0  0  0
 18 14  1  0  0  0  0
 19 17  1  0  0  0  0
 20 13  2  0  0  0  0
 21 17  2  0  0  0  0
 22 12  1  0  0  0  0
 23 19  1  0  0  0  0
 24 28  1  0  0  0  0
 25 23  2  0  0  0  0
 26 23  1  0  0  0  0
 27 25  1  0  0  0  0
 28 26  2  0  0  0  0
 29 24  1  0  0  0  0
 30 13  1  0  0  0  0
 31 15  1  0  0  0  0
 32 15  2  0  0  0  0
 33 29  1  0  0  0  0
 34 33  1  0  0  0  0
 35 32  1  0  0  0  0
 36 31  2  0  0  0  0
 37 35  2  0  0  0  0
  8  9  1  0  0  0  0
  5  4  2  0  0  0  0
 11 10  1  0  0  0  0
 36 37  1  0  0  0  0
 24 27  2  0  0  0  0
M  END
> <IDNUMBER>
F3222-1432

> <Chemical_Name>
2-({11-acetyl-3-oxo-4-phenyl-8-thia-4,6,11-triazatricyclo[7.4.0.0^{2,7}]trideca-1(9),2(7),5-trien-5-yl}sulfanyl)-N-(4-ethoxyphenyl)acetamide

> <CAS>
1215753-68-6

> <PriceCoeff>
1.00

> <MW>
534.65

> <Description>
solid

> <FSP3>
0.26

> <clogP>
3.21

> <TPSA>
144.85

> <Acceptor>
5

> <Donor>
1

> <RotBonds>
8

> <HAC>
37

> <Collection>
General

> <Reference_compound>
CHEMBL577016

> <Similarity>
0.8760

$$$$
F0817-0139
  -ISIS-  06222321452D

 30 34  0  0  0  0  0  0  0  0999 V2000
   -2.6208    1.6833    0.0000 C   0  0  0  0  0  0  0  0  0  0  0  0
   -3.9625    2.1125    0.0000 C   0  0  0  0  0  0  0  0  0  0  0  0
   -4.7208    2.5000    0.0000 C   0  0  0  0  0  0  0  0  0  0  0  0
    2.1292    0.9958    0.0000 N   0  0  3  0  0  0  0  0  0  0  0  0
   -3.1000    0.9625    0.0000 N   0  0  0  0  0  0  0  0  0  0  0  0
   -6.1292    2.6333    0.0000 N   0  0  0  0  0  0  0  0  0  0  0  0
   -5.8000    3.4208    0.0000 C   0  0  0  0  0  0  0  0  0  0  0  0
   -1.7625    1.6958    0.0000 N   0  0  0  0  0  0  0  0  0  0  0  0
   -3.1208    2.3833    0.0000 S   0  0  0  0  0  0  0  0  0  0  0  0
   -4.9458    3.3625    0.0000 S   0  0  0  0  0  0  0  0  0  0  0  0
   -3.9458    1.2125    0.0000 C   0  0  0  0  0  0  0  0  0  0  0  0
   -5.4708    2.0333    0.0000 C   0  0  0  0  0  0  0  0  0  0  0  0
   -1.3208    0.9500    0.0000 C   0  0  0  0  0  0  0  0  0  0  0  0
    2.6167    1.6833    0.0000 C   0  0  0  0  0  0  0  0  0  0  0  0
    2.7000    0.3458    0.0000 C   0  0  0  0  0  0  0  0  0  0  0  0
    1.2792    0.9500    0.0000 C   0  0  0  0  0  0  0  0  0  0  0  0
   -0.4625    0.9500    0.0000 C   0  0  0  0  0  0  0  0  0  0  0  0
   -1.7625    0.1958    0.0000 O   0  0  0  0  0  0  0  0  0  0  0  0
    3.4792    0.6500    0.0000 C   0  0  0  0  0  0  0  0  0  0  0  0
    3.4375    1.4833    0.0000 C   0  0  0  0  0  0  0  0  0  0  0  0
   -5.4708    1.1958    0.0000 C   0  0  0  0  0  0  0  0  0  0  0  0
   -4.6958    0.7625    0.0000 C   0  0  0  0  0  0  0  0  0  0  0  0
    2.3042    2.5500    0.0000 O   0  0  0  0  0  0  0  0  0  0  0  0
    2.4875   -0.5500    0.0000 O   0  0  0  0  0  0  0  0  0  0  0  0
   -6.2792    4.1542    0.0000 S   0  0  0  0  0  0  0  0  0  0  0  0
    0.8375    0.1708    0.0000 C   0  0  0  0  0  0  0  0  0  0  0  0
    0.8542    1.6958    0.0000 C   0  0  0  0  0  0  0  0  0  0  0  0
   -0.0208    0.1958    0.0000 C   0  0  0  0  0  0  0  0  0  0  0  0
   -0.0208    1.6958    0.0000 C   0  0  0  0  0  0  0  0  0  0  0  0
   -5.8958    4.9375    0.0000 C   0  0  0  0  0  0  0  0  0  0  0  0
  2  9  1  0  0  0  0
  3  2  1  0  0  0  0
  4 16  1  0  0  0  0
  5  1  2  0  0  0  0
  6 12  1  0  0  0  0
  7 10  1  0  0  0  0
  8  1  1  0  0  0  0
  9  1  1  0  0  0  0
 10  3  1  0  0  0  0
 11  5  1  0  0  0  0
 12  3  2  0  0  0  0
 13  8  1  0  0  0  0
 14  4  1  0  0  0  0
 15  4  1  0  0  0  0
 16 27  1  0  0  0  0
 17 13  1  0  0  0  0
 18 13  2  0  0  0  0
 19 15  1  0  0  0  0
 20 14  1  0  0  0  0
 21 22  2  0  0  0  0
 22 11  1  0  0  0  0
 23 14  2  0  0  0  0
 24 15  2  0  0  0  0
 25  7  1  0  0  0  0
 26 28  1  0  0  0  0
 27 29  2  0  0  0  0
 28 17  2  0  0  0  0
 29 17  1  0  0  0  0
 30 25  1  0  0  0  0
  2 11  2  0  0  0  0
 21 12  1  0  0  0  0
  7  6  2  0  0  0  0
 16 26  2  0  0  0  0
 20 19  1  0  0  0  0
M  END
> <IDNUMBER>
F0817-0139

> <Chemical_Name>
4-(2,5-dioxopyrrolidin-1-yl)-N-[11-(methylsulfanyl)-3,12-dithia-5,10-diazatricyclo[7.3.0.0^{2,6}]dodeca-1(9),2(6),4,7,10-pentaen-4-yl]benzamide

> <CAS>
477503-54-1

> <PriceCoeff>
1.00

> <MW>
454.55

> <Description>
solid

> <FSP3>
0.15

> <clogP>
2.84

> <TPSA>
174.04

> <Acceptor>
5

> <Donor>
1

> <RotBonds>
4

> <HAC>
30

> <Collection>
General

$$$$
F0915-6513
  -ISIS-  06222321452D

 32 36  0  0  0  0  0  0  0  0999 V2000
   -4.1708    7.7917    0.0000 C   0  0  0  0  0  0  0  0  0  0  0  0
   -3.3583    5.1542    0.0000 C   0  0  0  0  0  0  0  0  0  0  0  0
    0.2375    9.2292    0.0000 N   0  0  3  0  0  0  0  0  0  0  0  0
    1.1167    6.5792    0.0000 C   0  0  0  0  0  0  0  0  0  0  0  0
   -0.6458    4.5417    0.0000 N   0  0  0  0  0  0  0  0  0  0  0  0
   -2.2958    9.8292    0.0000 C   0  0  0  0  0  0  0  0  0  0  0  0
   -5.6583    3.5833    0.0000 S   0  0  0  0  0  0  0  0  0  0  0  0
   -6.9667    7.7917    0.0000 C   0  0  0  0  0  0  0  0  0  0  0  0
   -7.7542    5.1542    0.0000 C   0  0  0  0  0  0  0  0  0  0  0  0
    4.0292    5.9417    0.0000 S   0  0  0  0  0  0  0  0  0  0  0  0
    2.1917   11.3167    0.0000 C   0  0  0  0  0  0  0  0  0  0  0  0
   -3.0125   12.6417    0.0000 O   0  0  0  0  0  0  0  0  0  0  0  0
    8.6042    7.5292    0.0000 C   0  0  0  0  0  0  0  0  0  0  0  0
   10.5667    9.7417    0.0000 O   0  0  0  0  0  0  0  0  0  0  0  0
    5.9417    8.0667    0.0000 C   0  0  0  0  0  0  0  0  0  0  0  0
    9.4792    4.8917    0.0000 N   0  0  0  0  0  0  0  0  0  0  0  0
   -9.2417    9.3917    0.0000 C   0  0  0  0  0  0  0  0  0  0  0  0
  -10.5667    5.1542    0.0000 C   0  0  0  0  0  0  0  0  0  0  0  0
    7.7250    2.7958    0.0000 C   0  0  0  0  0  0  0  0  0  0  0  0
    6.8417   -1.9792    0.0000 C   0  0  0  0  0  0  0  0  0  0  0  0
  -11.4417    7.7042    0.0000 C   0  0  0  0  0  0  0  0  0  0  0  0
    4.8417   10.7125    0.0000 C   0  0  0  0  0  0  0  0  0  0  0  0
    1.3167   13.8667    0.0000 C   0  0  0  0  0  0  0  0  0  0  0  0
    8.6042    0.1500    0.0000 C   0  0  0  0  0  0  0  0  0  0  0  0
    4.1792   -1.3375    0.0000 C   0  0  0  0  0  0  0  0  0  0  0  0
    7.7250   -4.4167    0.0000 C   0  0  0  0  0  0  0  0  0  0  0  0
    3.0792   16.0000    0.0000 C   0  0  0  0  0  0  0  0  0  0  0  0
    6.6750   12.8250    0.0000 C   0  0  0  0  0  0  0  0  0  0  0  0
    2.2750   -3.3750    0.0000 C   0  0  0  0  0  0  0  0  0  0  0  0
    5.9625   -6.6042    0.0000 C   0  0  0  0  0  0  0  0  0  0  0  0
    3.3000   -6.1625    0.0000 C   0  0  0  0  0  0  0  0  0  0  0  0
    5.9417   15.3917    0.0000 C   0  0  0  0  0  0  0  0  0  0  0  0
  2  1  2  0  0  0  0
  3  6  1  0  0  0  0
  4  3  1  0  0  0  0
  5  2  1  0  0  0  0
  6  1  1  0  0  0  0
  7  2  1  0  0  0  0
  8  1  1  0  0  0  0
  9  8  2  0  0  0  0
 10  4  1  0  0  0  0
 11  3  1  0  0  0  0
 12  6  2  0  0  0  0
 13 15  1  0  0  0  0
 14 13  2  0  0  0  0
 15 10  1  0  0  0  0
 16 13  1  0  0  0  0
 17  8  1  0  0  0  0
 18  9  1  0  0  0  0
 19 16  1  0  0  0  0
 20 24  1  0  0  0  0
 21 17  1  0  0  0  0
 22 11  1  0  0  0  0
 23 11  2  0  0  0  0
 24 19  1  0  0  0  0
 25 20  1  0  0  0  0
 26 20  2  0  0  0  0
 27 23  1  0  0  0  0
 28 22  2  0  0  0  0
 29 25  2  0  0  0  0
 30 26  1  0  0  0  0
 31 30  2  0  0  0  0
 32 27  2  0  0  0  0
  7  9  1  0  0  0  0
  4  5  2  0  0  0  0
 21 18  1  0  0  0  0
 32 28  1  0  0  0  0
 29 31  1  0  0  0  0
M  END
> <IDNUMBER>
F0915-6513

> <Chemical_Name>
2-({12-oxo-11-phenyl-7-thia-9,11-diazatricyclo[6.4.0.0^{2,6}]dodeca-1(8),2(6),9-trien-10-yl}sulfanyl)-N-(2-phenylethyl)acetamide

> <CAS>
315710-97-5

> <PriceCoeff>
1.00

> <MW>
461.60

> <Description>
solid

> <FSP3>
0.24

> <clogP>
5.23

> <TPSA>
115.31

> <Acceptor>
3

> <Donor>
1

> <RotBonds>
7

> <HAC>
32

> <Collection>
General

> <Reference_compound>
CHEMBL577016

> <Similarity>
0.8520

$$$$
F1608-0694
  -ISIS-  06222321452D

 32 36  0  0  0  0  0  0  0  0999 V2000
    3.6875   -2.3542    0.0000 C   0  0  0  0  0  0  0  0  0  0  0  0
    3.6875   -3.1917    0.0000 C   0  0  0  0  0  0  0  0  0  0  0  0
    5.1250   -2.3542    0.0000 N   0  0  3  0  0  0  0  0  0  0  0  0
    5.1250   -3.1917    0.0000 C   0  0  0  0  0  0  0  0  0  0  0  0
    4.4000   -3.6042    0.0000 N   0  0  0  0  0  0  0  0  0  0  0  0
    4.4000   -1.9375    0.0000 C   0  0  0  0  0  0  0  0  0  0  0  0
    2.8875   -2.1042    0.0000 C   0  0  0  0  0  0  0  0  0  0  0  0
    2.4042   -2.7750    0.0000 C   0  0  0  0  0  0  0  0  0  0  0  0
    2.8875   -3.4375    0.0000 S   0  0  0  0  0  0  0  0  0  0  0  0
    1.2500   -1.9417    0.0000 N   0  0  3  0  0  0  0  0  0  0  0  0
    1.5875   -2.6917    0.0000 C   0  0  0  0  0  0  0  0  0  0  0  0
    5.8375   -3.6042    0.0000 S   0  0  0  0  0  0  0  0  0  0  0  0
    0.4250   -1.8542    0.0000 C   0  0  0  0  0  0  0  0  0  0  0  0
    2.5417   -1.3542    0.0000 C   0  0  0  0  0  0  0  0  0  0  0  0
    5.8375   -1.9417    0.0000 C   0  0  0  0  0  0  0  0  0  0  0  0
    4.4125   -1.1042    0.0000 O   0  0  0  0  0  0  0  0  0  0  0  0
    1.7292   -1.2750    0.0000 C   0  0  0  0  0  0  0  0  0  0  0  0
   -0.0583   -2.5250    0.0000 O   0  0  0  0  0  0  0  0  0  0  0  0
    5.8375   -4.4167    0.0000 C   0  0  0  0  0  0  0  0  0  0  0  0
    4.4042   -4.4167    0.0000 C   0  0  0  0  0  0  0  0  0  0  0  0
    3.6917   -4.8375    0.0000 C   0  0  0  0  0  0  0  0  0  0  0  0
    5.1250   -4.8292    0.0000 C   0  0  0  0  0  0  0  0  0  0  0  0
    2.9792   -4.4250    0.0000 Cl  0  0  0  0  0  0  0  0  0  0  0  0
    0.0750   -1.1000    0.0000 C   0  0  0  0  0  0  0  0  0  0  0  0
    4.4167   -6.0667    0.0000 C   0  0  0  0  0  0  0  0  0  0  0  0
    6.5542   -2.3500    0.0000 C   0  0  0  0  0  0  0  0  0  0  0  0
    5.8375   -1.1167    0.0000 C   0  0  0  0  0  0  0  0  0  0  0  0
    3.7000   -5.6625    0.0000 C   0  0  0  0  0  0  0  0  0  0  0  0
    5.1292   -5.6542    0.0000 C   0  0  0  0  0  0  0  0  0  0  0  0
    6.5417   -0.7042    0.0000 C   0  0  0  0  0  0  0  0  0  0  0  0
    7.2667   -1.9375    0.0000 C   0  0  0  0  0  0  0  0  0  0  0  0
    7.2542   -1.1042    0.0000 C   0  0  0  0  0  0  0  0  0  0  0  0
  2  1  2  0  0  0  0
  3  6  1  0  0  0  0
  4  3  1  0  0  0  0
  5  2  1  0  0  0  0
  6  1  1  0  0  0  0
  7  1  1  0  0  0  0
  8  7  2  0  0  0  0
  9  2  1  0  0  0  0
 10 17  1  0  0  0  0
 11  8  1  0  0  0  0
 12  4  1  0  0  0  0
 13 10  1  0  0  0  0
 14  7  1  0  0  0  0
 15  3  1  0  0  0  0
 16  6  2  0  0  0  0
 17 14  1  0  0  0  0
 18 13  2  0  0  0  0
 19 12  1  0  0  0  0
 20 22  2  0  0  0  0
 21 20  1  0  0  0  0
 22 19  1  0  0  0  0
 23 21  1  0  0  0  0
 24 13  1  0  0  0  0
 25 29  2  0  0  0  0
 26 15  1  0  0  0  0
 27 15  2  0  0  0  0
 28 25  1  0  0  0  0
 29 22  1  0  0  0  0
 30 27  1  0  0  0  0
 31 26  2  0  0  0  0
 32 30  2  0  0  0  0
  8  9  1  0  0  0  0
  4  5  2  0  0  0  0
 11 10  1  0  0  0  0
 32 31  1  0  0  0  0
 28 21  2  0  0  0  0
M  END
> <IDNUMBER>
F1608-0694

> <Chemical_Name>
11-acetyl-5-{[(3-chlorophenyl)methyl]sulfanyl}-4-phenyl-8-thia-4,6,11-triazatricyclo[7.4.0.0^{2,7}]trideca-1(9),2(7),5-trien-3-one

> <CAS>
887224-42-2

> <PriceCoeff>
1.00

> <MW>
482.02

> <Description>
solid

> <FSP3>
0.21

> <clogP>
4.35

> <TPSA>
106.52

> <Acceptor>
3

> <Donor>
0

> <RotBonds>
5

> <HAC>
32

> <Collection>
General

> <Reference_compound>
CHEMBL577016

> <Similarity>
0.9230

$$$$
F2532-0077
  -ISIS-  06222321442D

 31 33  0  0  0  0  0  0  0  0999 V2000
    2.0875    1.7208    0.0000 C   0  0  0  0  0  0  0  0  0  0  0  0
   -5.2208    6.2792    0.0000 N   0  3  0  0  0  0  0  0  0  0  0  0
   -5.2208    5.4625    0.0000 C   0  0  0  0  0  0  0  0  0  0  0  0
    1.4167    1.2375    0.0000 S   0  0  0  0  0  0  0  0  0  0  0  0
   -3.0375    2.5583    0.0000 C   0  0  0  0  0  0  0  0  0  0  0  0
    0.7500    1.7208    0.0000 C   0  0  0  0  0  0  0  0  0  0  0  0
    1.8292    2.5083    0.0000 N   0  0  0  0  0  0  0  0  0  0  0  0
    1.0042    2.5083    0.0000 N   0  0  0  0  0  0  0  0  0  0  0  0
    2.9125    1.7208    0.0000 N   0  0  0  0  0  0  0  0  0  0  0  0
   -2.3333    2.9833    0.0000 C   0  0  0  0  0  0  0  0  0  0  0  0
   -3.7583    3.8000    0.0000 C   0  0  0  0  0  0  0  0  0  0  0  0
   -1.6208    2.5583    0.0000 C   0  0  0  0  0  0  0  0  0  0  0  0
   -4.4875    5.0292    0.0000 C   0  0  0  0  0  0  0  0  0  0  0  0
   -3.7583    2.9708    0.0000 O   0  0  0  0  0  0  0  0  0  0  0  0
   -3.0375    1.7333    0.0000 C   0  0  0  0  0  0  0  0  0  0  0  0
   -4.4833    4.2125    0.0000 C   0  0  0  0  0  0  0  0  0  0  0  0
   -2.3333    1.3250    0.0000 O   0  0  0  0  0  0  0  0  0  0  0  0
   -1.6208    1.7333    0.0000 C   0  0  0  0  0  0  0  0  0  0  0  0
    3.7375    1.7208    0.0000 C   0  0  0  0  0  0  0  0  0  0  0  0
   -5.9333    5.0250    0.0000 C   0  0  0  0  0  0  0  0  0  0  0  0
   -4.5000    6.7125    0.0000 O   0  5  0  0  0  0  0  0  0  0  0  0
   -5.9375    6.6917    0.0000 O   0  0  0  0  0  0  0  0  0  0  0  0
   -0.1958    1.7375    0.0000 S   0  0  0  0  0  0  0  0  0  0  0  0
   -3.0375    4.2125    0.0000 O   0  0  0  0  0  0  0  0  0  0  0  0
   -2.3333    3.8000    0.0000 O   0  0  0  0  0  0  0  0  0  0  0  0
   -5.1958    3.7958    0.0000 C   0  0  0  0  0  0  0  0  0  0  0  0
    3.7292    2.5458    0.0000 O   0  0  0  0  0  0  0  0  0  0  0  0
   -5.9250    4.1917    0.0000 C   0  0  0  0  0  0  0  0  0  0  0  0
   -0.9083    1.3208    0.0000 C   0  0  0  0  0  0  0  0  0  0  0  0
   -6.6417    5.4375    0.0000 Cl  0  0  0  0  0  0  0  0  0  0  0  0
    4.3250    1.1375    0.0000 C   0  0  0  0  0  0  0  0  0  0  0  0
  2  3  1  0  0  0  0
  3 13  2  0  0  0  0
  4  1  1  0  0  0  0
  5 15  2  0  0  0  0
  6  4  1  0  0  0  0
  7  1  2  0  0  0  0
  8  7  1  0  0  0  0
  9  1  1  0  0  0  0
 10 12  1  0  0  0  0
 11 14  1  0  0  0  0
 12 18  2  0  0  0  0
 13 16  1  0  0  0  0
 14  5  1  0  0  0  0
 15 17  1  0  0  0  0
 16 11  1  0  0  0  0
 17 18  1  0  0  0  0
 18 29  1  0  0  0  0
 19  9  1  0  0  0  0
 20 28  2  0  0  0  0
 21  2  1  0  0  0  0
 22  2  2  0  0  0  0
 23  6  1  0  0  0  0
 24 11  2  0  0  0  0
 25 10  2  0  0  0  0
 26 16  2  0  0  0  0
 27 19  2  0  0  0  0
 28 26  1  0  0  0  0
 29 23  1  0  0  0  0
 30 20  1  0  0  0  0
 31 19  1  0  0  0  0
  6  8  2  0  0  0  0
  5 10  1  0  0  0  0
  3 20  1  0  0  0  0
M  CHG  2   2   1  21  -1
M  END
> <IDNUMBER>
F2532-0077

> <Chemical_Name>
6-{[(5-acetamido-1,3,4-thiadiazol-2-yl)sulfanyl]methyl}-4-oxo-4H-pyran-3-yl 4-chloro-3-nitrobenzoate

> <CAS>
896016-49-2

> <PriceCoeff>
1.00

> <MW>
482.87

> <Description>
solid

> <FSP3>
0.12

> <clogP>
1.76

> <TPSA>
204.16

> <Acceptor>
9

> <Donor>
1

> <RotBonds>
8

> <HAC>
31

> <Collection>
General

$$$$
F3139-0443
  -ISIS-  06222321152D

 29 32  0  0  0  0  0  0  0  0999 V2000
    4.4417   -2.1417    0.0000 C   0  0  0  0  0  0  0  0  0  0  0  0
    3.7292   -2.5542    0.0000 C   0  0  0  0  0  0  0  0  0  0  0  0
    3.0167   -2.1417    0.0000 C   0  0  0  0  0  0  0  0  0  0  0  0
    4.4417   -1.3167    0.0000 C   0  0  0  0  0  0  0  0  0  0  0  0
    3.0167   -1.3167    0.0000 C   0  0  0  0  0  0  0  0  0  0  0  0
    3.7292   -0.9042    0.0000 O   0  0  0  0  0  0  0  0  0  0  0  0
    5.1542   -2.5542    0.0000 C   0  0  0  0  0  0  0  0  0  0  0  0
    2.3042   -2.5542    0.0000 C   0  0  0  0  0  0  0  0  0  0  0  0
    2.3042   -0.9042    0.0000 C   0  0  0  0  0  0  0  0  0  0  0  0
    3.7292   -3.3792    0.0000 O   0  0  0  0  0  0  0  0  0  0  0  0
    5.1542   -3.3792    0.0000 C   0  0  0  0  0  0  0  0  0  0  0  0
    1.5875   -1.3167    0.0000 C   0  0  0  0  0  0  0  0  0  0  0  0
    0.8667   -0.9042    0.0000 O   0  0  0  0  0  0  0  0  0  0  0  0
    1.5875   -2.1417    0.0000 C   0  0  0  0  0  0  0  0  0  0  0  0
   -1.2708   -1.3292    0.0000 C   0  0  0  0  0  0  0  0  0  0  0  0
    0.1542   -1.3167    0.0000 C   0  0  0  0  0  0  0  0  0  0  0  0
   -0.5625   -0.9125    0.0000 C   0  0  0  0  0  0  0  0  0  0  0  0
   -1.9875   -0.9292    0.0000 C   0  0  0  0  0  0  0  0  0  0  0  0
    4.4500   -3.7917    0.0000 O   0  0  0  0  0  0  0  0  0  0  0  0
    5.8792   -2.1417    0.0000 C   0  0  0  0  0  0  0  0  0  0  0  0
   -2.6958   -1.3500    0.0000 O   0  0  0  0  0  0  0  0  0  0  0  0
   -1.2833    0.3208    0.0000 C   0  0  0  0  0  0  0  0  0  0  0  0
    5.8667   -3.7917    0.0000 C   0  0  0  0  0  0  0  0  0  0  0  0
   -0.5708   -0.0875    0.0000 C   0  0  0  0  0  0  0  0  0  0  0  0
   -1.9958   -0.0917    0.0000 C   0  0  0  0  0  0  0  0  0  0  0  0
    4.4417   -4.6167    0.0000 C   0  0  0  0  0  0  0  0  0  0  0  0
   -2.6875   -2.1750    0.0000 C   0  0  0  0  0  0  0  0  0  0  0  0
    6.5917   -2.5542    0.0000 C   0  0  0  0  0  0  0  0  0  0  0  0
    6.5917   -3.3792    0.0000 C   0  0  0  0  0  0  0  0  0  0  0  0
  2  1  1  0  0  0  0
  3  2  1  0  0  0  0
  4  1  2  0  0  0  0
  5  6  1  0  0  0  0
  6  4  1  0  0  0  0
  7  1  1  0  0  0  0
  8  3  2  0  0  0  0
  9  5  2  0  0  0  0
 10  2  2  0  0  0  0
 11  7  2  0  0  0  0
 12  9  1  0  0  0  0
 13 12  1  0  0  0  0
 14  8  1  0  0  0  0
 15 17  1  0  0  0  0
 16 13  1  0  0  0  0
 17 16  1  0  0  0  0
 18 15  2  0  0  0  0
 19 11  1  0  0  0  0
 20  7  1  0  0  0  0
 21 18  1  0  0  0  0
 22 24  1  0  0  0  0
 23 11  1  0  0  0  0
 24 17  2  0  0  0  0
 25 22  2  0  0  0  0
 26 19  1  0  0  0  0
 27 21  1  0  0  0  0
 28 20  2  0  0  0  0
 29 28  1  0  0  0  0
  5  3  1  0  0  0  0
 23 29  2  0  0  0  0
 12 14  2  0  0  0  0
 18 25  1  0  0  0  0
M  END
> <IDNUMBER>
F3139-0443

> <Chemical_Name>
3-(2-methoxyphenyl)-7-[(3-methoxyphenyl)methoxy]-4H-chromen-4-one

> <CAS>
610751-59-2

> <PriceCoeff>
1.00

> <MW>
388.41

> <Description>
solid

> <FSP3>
0.12

> <clogP>
4.15

> <TPSA>
53.99

> <Acceptor>
5

> <Donor>
0

> <RotBonds>
6

> <HAC>
29

> <Collection>
General

> <Reference_compound>
CHEMBL44

> <Similarity>
0.8400

$$$$
F0541-1467
  -ISIS-  06222321452D

 29 32  0  0  0  0  0  0  0  0999 V2000
   -3.2375    2.3333    0.0000 C   0  0  0  0  0  0  0  0  0  0  0  0
   -3.9083    2.8208    0.0000 N   0  0  3  0  0  0  0  0  0  0  0  0
   -4.5833    2.3333    0.0000 N   0  0  0  0  0  0  0  0  0  0  0  0
   -3.4958    1.5458    0.0000 C   0  0  0  0  0  0  0  0  0  0  0  0
   -2.3833    2.3625    0.0000 N   0  0  0  0  0  0  0  0  0  0  0  0
   -4.3333    1.5458    0.0000 C   0  0  0  0  0  0  0  0  0  0  0  0
    0.0375    0.6000    0.0000 N   0  3  0  0  0  0  0  0  0  0  0  0
   -0.0583    1.4333    0.0000 C   0  0  0  0  0  0  0  0  0  0  0  0
   -1.7000    2.9250    0.0000 C   0  0  0  0  0  0  0  0  0  0  0  0
   -0.8333    1.7500    0.0000 C   0  0  0  0  0  0  0  0  0  0  0  0
   -0.9333    2.5958    0.0000 C   0  0  0  0  0  0  0  0  0  0  0  0
   -3.9083    3.6583    0.0000 C   0  0  0  0  0  0  0  0  0  0  0  0
    0.6167    1.9458    0.0000 C   0  0  0  0  0  0  0  0  0  0  0  0
   -0.6250    0.0958    0.0000 O   0  5  0  0  0  0  0  0  0  0  0  0
   -3.9083    0.2708    0.0000 S   0  0  0  0  0  0  0  0  0  0  0  0
    0.8167    0.2833    0.0000 O   0  0  0  0  0  0  0  0  0  0  0  0
   -1.7625    3.8000    0.0000 O   0  0  0  0  0  0  0  0  0  0  0  0
   -3.2375    0.7583    0.0000 C   0  0  0  0  0  0  0  0  0  0  0  0
   -0.2583    3.1083    0.0000 C   0  0  0  0  0  0  0  0  0  0  0  0
    0.5042    2.7833    0.0000 C   0  0  0  0  0  0  0  0  0  0  0  0
   -4.5833    0.7583    0.0000 C   0  0  0  0  0  0  0  0  0  0  0  0
   -4.6208    4.0625    0.0000 C   0  0  0  0  0  0  0  0  0  0  0  0
   -3.1708    4.0750    0.0000 C   0  0  0  0  0  0  0  0  0  0  0  0
    1.3917    1.6208    0.0000 Cl  0  0  0  0  0  0  0  0  0  0  0  0
   -3.9000    5.3250    0.0000 C   0  0  0  0  0  0  0  0  0  0  0  0
   -4.6250    4.9042    0.0000 C   0  0  0  0  0  0  0  0  0  0  0  0
   -3.1708    4.9042    0.0000 C   0  0  0  0  0  0  0  0  0  0  0  0
   -3.9000    6.1542    0.0000 O   0  0  0  0  0  0  0  0  0  0  0  0
   -3.1833    6.5792    0.0000 C   0  0  0  0  0  0  0  0  0  0  0  0
  2  1  1  0  0  0  0
  3  2  1  0  0  0  0
  4  1  2  0  0  0  0
  5  1  1  0  0  0  0
  6  4  1  0  0  0  0
  7  8  1  0  0  0  0
  8 10  1  0  0  0  0
  9  5  1  0  0  0  0
 10 11  2  0  0  0  0
 11  9  1  0  0  0  0
 12  2  1  0  0  0  0
 13 20  1  0  0  0  0
 14  7  1  0  0  0  0
 15 18  1  0  0  0  0
 16  7  2  0  0  0  0
 17  9  2  0  0  0  0
 18  4  1  0  0  0  0
 19 11  1  0  0  0  0
 20 19  2  0  0  0  0
 21  6  1  0  0  0  0
 22 12  1  0  0  0  0
 23 12  2  0  0  0  0
 24 13  1  0  0  0  0
 25 27  2  0  0  0  0
 26 22  2  0  0  0  0
 27 23  1  0  0  0  0
 28 25  1  0  0  0  0
 29 28  1  0  0  0  0
  6  3  2  0  0  0  0
 15 21  1  0  0  0  0
 25 26  1  0  0  0  0
 13  8  2  0  0  0  0
M  CHG  2   7   1  14  -1
M  END
> <IDNUMBER>
F0541-1467

> <Chemical_Name>
4-chloro-N-[2-(4-methoxyphenyl)-2H,4H,6H-thieno[3,4-c]pyrazol-3-yl]-3-nitrobenzamide

> <CAS>
450343-60-9

> <PriceCoeff>
1.00

> <MW>
430.86

> <Description>
solid

> <FSP3>
0.16

> <clogP>
3.55

> <TPSA>
124.59

> <Acceptor>
5

> <Donor>
1

> <RotBonds>
5

> <HAC>
29

> <Collection>
General

$$$$
F3139-1132
  -ISIS-  06222321462D

 26 29  0  0  0  0  0  0  0  0999 V2000
    3.4292   -4.3750    0.0000 C   0  0  0  0  0  0  0  0  0  0  0  0
    2.7167   -4.7875    0.0000 C   0  0  0  0  0  0  0  0  0  0  0  0
    2.0042   -4.3750    0.0000 C   0  0  0  0  0  0  0  0  0  0  0  0
    3.4292   -3.5500    0.0000 C   0  0  0  0  0  0  0  0  0  0  0  0
    2.0042   -3.5500    0.0000 C   0  0  0  0  0  0  0  0  0  0  0  0
    2.7167   -3.1375    0.0000 O   0  0  0  0  0  0  0  0  0  0  0  0
   -0.1500   -2.3125    0.0000 C   0  0  0  0  0  0  0  0  0  0  0  0
    1.2917   -3.1375    0.0000 C   0  0  0  0  0  0  0  0  0  0  0  0
   -0.1458   -3.1375    0.0000 O   0  0  0  0  0  0  0  0  0  0  0  0
    1.2917   -4.7875    0.0000 C   0  0  0  0  0  0  0  0  0  0  0  0
    4.1417   -4.7875    0.0000 C   0  0  0  0  0  0  0  0  0  0  0  0
    0.5750   -3.5500    0.0000 C   0  0  0  0  0  0  0  0  0  0  0  0
    2.7167   -5.6125    0.0000 O   0  0  0  0  0  0  0  0  0  0  0  0
    0.5667   -1.8917    0.0000 O   0  0  0  0  0  0  0  0  0  0  0  0
   -0.8583   -1.9000    0.0000 C   0  0  0  0  0  0  0  0  0  0  0  0
    0.5750   -4.3750    0.0000 C   0  0  0  0  0  0  0  0  0  0  0  0
    4.1417   -5.6167    0.0000 C   0  0  0  0  0  0  0  0  0  0  0  0
    4.8667   -4.3750    0.0000 C   0  0  0  0  0  0  0  0  0  0  0  0
   -0.8583   -1.0750    0.0000 C   0  0  0  0  0  0  0  0  0  0  0  0
   -1.5708   -2.3125    0.0000 C   0  0  0  0  0  0  0  0  0  0  0  0
    5.5792   -4.7875    0.0000 C   0  0  0  0  0  0  0  0  0  0  0  0
   -1.5750   -0.6625    0.0000 C   0  0  0  0  0  0  0  0  0  0  0  0
   -2.2833   -1.9042    0.0000 C   0  0  0  0  0  0  0  0  0  0  0  0
    4.8542   -6.0292    0.0000 C   0  0  0  0  0  0  0  0  0  0  0  0
    5.5792   -5.6167    0.0000 C   0  0  0  0  0  0  0  0  0  0  0  0
   -2.2875   -1.0750    0.0000 C   0  0  0  0  0  0  0  0  0  0  0  0
  2  1  1  0  0  0  0
  3  2  1  0  0  0  0
  4  1  2  0  0  0  0
  5  6  1  0  0  0  0
  6  4  1  0  0  0  0
  7  9  1  0  0  0  0
  8  5  2  0  0  0  0
  9 12  1  0  0  0  0
 10  3  2  0  0  0  0
 11  1  1  0  0  0  0
 12  8  1  0  0  0  0
 13  2  2  0  0  0  0
 14  7  2  0  0  0  0
 15  7  1  0  0  0  0
 16 10  1  0  0  0  0
 17 11  2  0  0  0  0
 18 11  1  0  0  0  0
 19 15  2  0  0  0  0
 20 15  1  0  0  0  0
 21 18  2  0  0  0  0
 22 19  1  0  0  0  0
 23 20  2  0  0  0  0
 24 17  1  0  0  0  0
 25 21  1  0  0  0  0
 26 23  1  0  0  0  0
  3  5  1  0  0  0  0
 25 24  2  0  0  0  0
 16 12  2  0  0  0  0
 26 22  2  0  0  0  0
M  END
> <IDNUMBER>
F3139-1132

> <Chemical_Name>
4-oxo-3-phenyl-4H-chromen-7-yl benzoate

> <CAS>
301691-66-7

> <PriceCoeff>
1.00

> <MW>
342.34

> <Description>
solid

> <FSP3>
0.00

> <clogP>
4.65

> <TPSA>
52.60

> <Acceptor>
4

> <Donor>
0

> <RotBonds>
4

> <HAC>
26

> <Collection>
General

> <Reference_compound>
CHEMBL44

> <Similarity>
0.8430

$$$$
F1740-0137
  -ISIS-  06222321452D

 33 35  0  0  0  0  0  0  0  0999 V2000
    6.7917    0.1375    0.0000 N   0  0  3  0  0  0  0  0  0  0  0  0
    7.0500   -0.6500    0.0000 C   0  0  0  0  0  0  0  0  0  0  0  0
   11.0292   -3.4667    0.0000 S   0  0  3  0  0  0  0  0  0  0  0  0
    7.4625    0.6208    0.0000 C   0  0  0  0  0  0  0  0  0  0  0  0
    7.8750   -0.6500    0.0000 C   0  0  0  0  0  0  0  0  0  0  0  0
    8.1292    0.1375    0.0000 C   0  0  3  0  0  0  0  0  0  0  0  0
    6.2042    0.1333    0.0000 C   0  0  0  0  0  0  0  0  0  0  0  0
   10.9875   -2.6417    0.0000 C   0  0  0  0  0  0  0  0  0  0  0  0
    3.7292    0.0708    0.0000 C   0  0  0  0  0  0  0  0  0  0  0  0
    8.9167    0.3958    0.0000 S   0  0  0  0  0  0  0  0  0  0  0  0
   11.0667   -4.2917    0.0000 O   0  0  0  0  0  0  0  0  0  0  0  0
   11.8542   -3.4292    0.0000 O   0  0  0  0  0  0  0  0  0  0  0  0
   10.3125    0.0958    0.0000 C   0  0  0  0  0  0  0  0  0  0  0  0
    6.5625   -1.3167    0.0000 O   0  0  0  0  0  0  0  0  0  0  0  0
    7.4542    1.4458    0.0000 O   0  0  0  0  0  0  0  0  0  0  0  0
    4.5542    0.0958    0.0000 C   0  0  0  0  0  0  0  0  0  0  0  0
   10.9250   -0.4625    0.0000 N   0  0  0  0  0  0  0  0  0  0  0  0
   10.2042   -3.5000    0.0000 N   0  0  0  0  0  0  0  0  0  0  0  0
    3.2917    0.7750    0.0000 O   0  0  0  0  0  0  0  0  0  0  0  0
   10.4792    0.8958    0.0000 O   0  0  0  0  0  0  0  0  0  0  0  0
    5.8042   -0.5917    0.0000 C   0  0  0  0  0  0  0  0  0  0  0  0
    5.7750    0.8375    0.0000 C   0  0  0  0  0  0  0  0  0  0  0  0
    4.9500    0.8208    0.0000 C   0  0  0  0  0  0  0  0  0  0  0  0
    4.9875   -0.6167    0.0000 C   0  0  0  0  0  0  0  0  0  0  0  0
   10.2542   -2.2625    0.0000 C   0  0  0  0  0  0  0  0  0  0  0  0
   11.6875   -2.1917    0.0000 C   0  0  0  0  0  0  0  0  0  0  0  0
    9.5250   -0.1542    0.0000 C   0  0  0  0  0  0  0  0  0  0  0  0
   10.9167   -0.9917    0.0000 C   0  0  0  0  0  0  0  0  0  0  0  0
    3.3292   -0.6542    0.0000 O   0  0  0  0  0  0  0  0  0  0  0  0
   10.2167   -1.4375    0.0000 C   0  0  0  0  0  0  0  0  0  0  0  0
   11.6417   -1.3667    0.0000 C   0  0  0  0  0  0  0  0  0  0  0  0
    2.5042   -0.6750    0.0000 C   0  0  0  0  0  0  0  0  0  0  0  0
    2.1125   -1.4000    0.0000 C   0  0  0  0  0  0  0  0  0  0  0  0
  2  1  1  0  0  0  0
  3  8  1  0  0  0  0
  4  1  1  0  0  0  0
  5  2  1  0  0  0  0
  6  4  1  0  0  0  0
  7  1  1  0  0  0  0
  8 26  1  0  0  0  0
  9 16  1  0  0  0  0
 10  6  1  0  0  0  0
 11  3  2  0  0  0  0
 12  3  2  0  0  0  0
 13 27  1  0  0  0  0
 14  2  2  0  0  0  0
 15  4  2  0  0  0  0
 16 23  2  0  0  0  0
 17 13  1  0  0  0  0
 18  3  1  0  0  0  0
 19  9  2  0  0  0  0
 20 13  2  0  0  0  0
 21  7  1  0  0  0  0
 22  7  2  0  0  0  0
 23 22  1  0  0  0  0
 24 21  2  0  0  0  0
 25 30  1  0  0  0  0
 26 31  2  0  0  0  0
 27 10  1  0  0  0  0
 28 17  1  0  0  0  0
 29  9  1  0  0  0  0
 30 28  2  0  0  0  0
 31 28  1  0  0  0  0
 32 29  1  0  0  0  0
 33 32  1  0  0  0  0
  5  6  1  0  0  0  0
 16 24  1  0  0  0  0
 25  8  2  0  0  0  0
M  END
> <IDNUMBER>
F1740-0137

> <Chemical_Name>
ethyl 4-[2,5-dioxo-3-({[(4-sulfamoylphenyl)carbamoyl]methyl}sulfanyl)pyrrolidin-1-yl]benzoate

> <CAS>
868154-99-8

> <PriceCoeff>
1.00

> <MW>
491.54

> <Description>
solid

> <FSP3>
0.24

> <clogP>
1.72

> <TPSA>
186.62

> <Acceptor>
7

> <Donor>
2

> <RotBonds>
9

> <HAC>
33

> <Collection>
General

$$$$
F3048-0088
  -ISIS-  06222321152D

 31 33  0  0  0  0  0  0  0  0999 V2000
    4.3292    0.9958    0.0000 N   0  0  3  0  0  0  0  0  0  0  0  0
    4.4042    0.2500    0.0000 C   0  0  0  0  0  0  0  0  0  0  0  0
    5.0125    1.3083    0.0000 C   0  0  0  0  0  0  0  0  0  0  0  0
    5.1417    0.0958    0.0000 C   0  0  0  0  0  0  0  0  0  0  0  0
    5.5167    0.7458    0.0000 C   0  0  3  0  0  0  0  0  0  0  0  0
    3.6792    1.3708    0.0000 C   0  0  0  0  0  0  0  0  0  0  0  0
    1.7292    2.4958    0.0000 C   0  0  0  0  0  0  0  0  0  0  0  0
    6.2625    0.8250    0.0000 S   0  0  0  0  0  0  0  0  0  0  0  0
    7.4500    0.2958    0.0000 C   0  0  0  0  0  0  0  0  0  0  0  0
    3.8500   -0.2500    0.0000 O   0  0  0  0  0  0  0  0  0  0  0  0
    5.1667    2.0375    0.0000 O   0  0  0  0  0  0  0  0  0  0  0  0
    2.3792    2.1208    0.0000 C   0  0  0  0  0  0  0  0  0  0  0  0
    7.8917   -0.3125    0.0000 N   0  0  0  0  0  0  0  0  0  0  0  0
    1.0792    2.1208    0.0000 O   0  0  0  0  0  0  0  0  0  0  0  0
    7.7542    0.9833    0.0000 O   0  0  0  0  0  0  0  0  0  0  0  0
    3.0292    0.9958    0.0000 C   0  0  0  0  0  0  0  0  0  0  0  0
    3.6792    2.1208    0.0000 C   0  0  0  0  0  0  0  0  0  0  0  0
    2.3792    1.3708    0.0000 C   0  0  0  0  0  0  0  0  0  0  0  0
    3.0292    2.4958    0.0000 C   0  0  0  0  0  0  0  0  0  0  0  0
    6.7042    0.2208    0.0000 C   0  0  0  0  0  0  0  0  0  0  0  0
    8.6375   -0.2292    0.0000 C   0  0  0  0  0  0  0  0  0  0  0  0
    1.7292    3.2458    0.0000 O   0  0  0  0  0  0  0  0  0  0  0  0
   10.1292   -0.0750    0.0000 C   0  0  0  0  0  0  0  0  0  0  0  0
    8.9417    0.4500    0.0000 C   0  0  0  0  0  0  0  0  0  0  0  0
    9.0750   -0.8417    0.0000 C   0  0  0  0  0  0  0  0  0  0  0  0
    9.8167   -0.7625    0.0000 C   0  0  0  0  0  0  0  0  0  0  0  0
    9.6875    0.5333    0.0000 C   0  0  0  0  0  0  0  0  0  0  0  0
   10.8750    0.0083    0.0000 O   0  0  0  0  0  0  0  0  0  0  0  0
   11.1792    0.6875    0.0000 C   0  0  0  0  0  0  0  0  0  0  0  0
    1.0792    3.6208    0.0000 C   0  0  0  0  0  0  0  0  0  0  0  0
   11.9250    0.7708    0.0000 C   0  0  0  0  0  0  0  0  0  0  0  0
  2  1  1  0  0  0  0
  3  1  1  0  0  0  0
  4  2  1  0  0  0  0
  5  3  1  0  0  0  0
  6  1  1  0  0  0  0
  7 12  1  0  0  0  0
  8  5  1  0  0  0  0
  9 20  1  0  0  0  0
 10  2  2  0  0  0  0
 11  3  2  0  0  0  0
 12 19  1  0  0  0  0
 13  9  1  0  0  0  0
 14  7  2  0  0  0  0
 15  9  2  0  0  0  0
 16  6  2  0  0  0  0
 17  6  1  0  0  0  0
 18 16  1  0  0  0  0
 19 17  2  0  0  0  0
 20  8  1  0  0  0  0
 21 13  1  0  0  0  0
 22  7  1  0  0  0  0
 23 26  2  0  0  0  0
 24 21  1  0  0  0  0
 25 21  2  0  0  0  0
 26 25  1  0  0  0  0
 27 24  2  0  0  0  0
 28 23  1  0  0  0  0
 29 28  1  0  0  0  0
 30 22  1  0  0  0  0
 31 29  1  0  0  0  0
  4  5  1  0  0  0  0
 12 18  2  0  0  0  0
 27 23  1  0  0  0  0
M  END
> <IDNUMBER>
F3048-0088

> <Chemical_Name>
methyl 4-[3-({[(4-ethoxyphenyl)carbamoyl]methyl}sulfanyl)-2,5-dioxopyrrolidin-1-yl]benzoate

> <CAS>
714262-72-3

> <PriceCoeff>
1.00

> <MW>
442.48

> <Description>
solid

> <FSP3>
0.27

> <clogP>
3.31

> <TPSA>
127.31

> <Acceptor>
6

> <Donor>
1

> <RotBonds>
9

> <HAC>
31

> <Collection>
General

$$$$
F1315-0050
  -ISIS-  06222321452D

 25 27  0  0  0  0  0  0  0  0999 V2000
    2.4000   -0.4792    0.0000 C   0  0  0  0  0  0  0  0  0  0  0  0
    4.5375   -0.9042    0.0000 S   0  0  3  0  0  0  0  0  0  0  0  0
    1.6792   -0.8917    0.0000 C   0  0  0  0  0  0  0  0  0  0  0  0
    2.4000    0.3458    0.0000 C   0  0  0  0  0  0  0  0  0  0  0  0
    3.1042   -0.9000    0.0000 C   0  0  0  0  0  0  0  0  0  0  0  0
    3.8292   -0.4917    0.0000 N   0  0  0  0  0  0  0  0  0  0  0  0
    1.6875    0.7583    0.0000 O   0  0  0  0  0  0  0  0  0  0  0  0
    0.9667   -0.4792    0.0000 C   0  0  0  0  0  0  0  0  0  0  0  0
    0.9750    0.3458    0.0000 C   0  0  0  0  0  0  0  0  0  0  0  0
    5.2542   -1.3167    0.0000 C   0  0  0  0  0  0  0  0  0  0  0  0
    4.9417   -0.1917    0.0000 O   0  0  0  0  0  0  0  0  0  0  0  0
    4.1167   -1.6167    0.0000 O   0  0  0  0  0  0  0  0  0  0  0  0
    3.1167    0.7500    0.0000 O   0  0  0  0  0  0  0  0  0  0  0  0
    3.1042   -1.7250    0.0000 O   0  0  0  0  0  0  0  0  0  0  0  0
    1.6750   -1.7167    0.0000 O   0  0  0  0  0  0  0  0  0  0  0  0
    5.2417   -2.1417    0.0000 C   0  0  0  0  0  0  0  0  0  0  0  0
    5.9625   -0.9042    0.0000 C   0  0  0  0  0  0  0  0  0  0  0  0
    6.6750   -1.3167    0.0000 C   0  0  0  0  0  0  0  0  0  0  0  0
    5.9542   -2.5542    0.0000 C   0  0  0  0  0  0  0  0  0  0  0  0
    6.6750   -2.1500    0.0000 C   0  0  0  0  0  0  0  0  0  0  0  0
    0.2625   -0.8875    0.0000 C   0  0  0  0  0  0  0  0  0  0  0  0
    0.2625    0.7625    0.0000 C   0  0  0  0  0  0  0  0  0  0  0  0
    7.3875   -2.5625    0.0000 C   0  0  0  0  0  0  0  0  0  0  0  0
   -0.4458   -0.4792    0.0000 C   0  0  0  0  0  0  0  0  0  0  0  0
   -0.4458    0.3458    0.0000 C   0  0  0  0  0  0  0  0  0  0  0  0
  2  6  1  0  0  0  0
  3  1  2  0  0  0  0
  4  1  1  0  0  0  0
  5  1  1  0  0  0  0
  6  5  1  0  0  0  0
  7  4  1  0  0  0  0
  8  3  1  0  0  0  0
  9  7  1  0  0  0  0
 10  2  1  0  0  0  0
 11  2  2  0  0  0  0
 12  2  2  0  0  0  0
 13  4  2  0  0  0  0
 14  5  2  0  0  0  0
 15  3  1  0  0  0  0
 16 10  2  0  0  0  0
 17 10  1  0  0  0  0
 18 17  2  0  0  0  0
 19 16  1  0  0  0  0
 20 18  1  0  0  0  0
 21  8  1  0  0  0  0
 22  9  1  0  0  0  0
 23 20  1  0  0  0  0
 24 21  2  0  0  0  0
 25 22  2  0  0  0  0
  8  9  2  0  0  0  0
 24 25  1  0  0  0  0
 20 19  2  0  0  0  0
M  END
> <IDNUMBER>
F1315-0050

> <Chemical_Name>
4-hydroxy-N-(4-methylbenzenesulfonyl)-2-oxo-2H-chromene-3-carboxamide

> <CAS>
325821-90-7

> <PriceCoeff>
1.00

> <MW>
359.35

> <Description>
solid

> <FSP3>
0.06

> <clogP>
4.06

> <TPSA>
118.15

> <Acceptor>
6

> <Donor>
2

> <RotBonds>
3

> <HAC>
25

> <Collection>
General

$$$$
F1143-0416
  -ISIS-  06222321142D

 32 36  0  0  0  0  0  0  0  0999 V2000
   -3.4500    0.1958    0.0000 C   0  0  0  0  0  0  0  0  0  0  0  0
   -3.2708   -0.3667    0.0000 C   0  0  0  0  0  0  0  0  0  0  0  0
   -2.4958    0.4708    0.0000 N   0  0  3  0  0  0  0  0  0  0  0  0
   -2.3333   -0.0875    0.0000 C   0  0  0  0  0  0  0  0  0  0  0  0
   -2.7333   -0.5042    0.0000 N   0  0  0  0  0  0  0  0  0  0  0  0
   -3.0500    0.5958    0.0000 C   0  0  0  0  0  0  0  0  0  0  0  0
   -3.7500   -0.6875    0.0000 S   0  0  0  0  0  0  0  0  0  0  0  0
   -4.0208    0.1958    0.0000 C   0  0  0  0  0  0  0  0  0  0  0  0
   -4.1958   -0.3667    0.0000 C   0  0  0  0  0  0  0  0  0  0  0  0
   -1.7500   -0.2042    0.0000 S   0  0  0  0  0  0  0  0  0  0  0  0
   -2.1125    0.8708    0.0000 C   0  0  0  0  0  0  0  0  0  0  0  0
   -3.2125    1.1500    0.0000 O   0  0  0  0  0  0  0  0  0  0  0  0
   -0.8333    0.1333    0.0000 C   0  0  0  0  0  0  0  0  0  0  0  0
   -0.4500    0.5958    0.0000 N   0  0  0  0  0  0  0  0  0  0  0  0
   -0.6125   -0.4042    0.0000 O   0  0  0  0  0  0  0  0  0  0  0  0
   -1.3958    0.2500    0.0000 C   0  0  0  0  0  0  0  0  0  0  0  0
    0.1042    0.4958    0.0000 C   0  0  0  0  0  0  0  0  0  0  0  0
   -4.3500    0.6500    0.0000 C   0  0  0  0  0  0  0  0  0  0  0  0
   -4.7208   -0.5875    0.0000 C   0  0  0  0  0  0  0  0  0  0  0  0
   -2.2708    1.4125    0.0000 C   0  0  0  0  0  0  0  0  0  0  0  0
   -1.5500    0.7333    0.0000 C   0  0  0  0  0  0  0  0  0  0  0  0
    0.3042   -0.0500    0.0000 C   0  0  0  0  0  0  0  0  0  0  0  0
    0.4875    0.9500    0.0000 C   0  0  0  0  0  0  0  0  0  0  0  0
   -4.9333    0.6958    0.0000 C   0  0  0  0  0  0  0  0  0  0  0  0
   -5.2208   -0.2875    0.0000 C   0  0  0  0  0  0  0  0  0  0  0  0
   -1.1500    1.1333    0.0000 C   0  0  0  0  0  0  0  0  0  0  0  0
   -1.8708    1.8125    0.0000 C   0  0  0  0  0  0  0  0  0  0  0  0
    1.0500    0.8500    0.0000 C   0  0  0  0  0  0  0  0  0  0  0  0
    0.8667   -0.1500    0.0000 C   0  0  0  0  0  0  0  0  0  0  0  0
    1.2500    0.2958    0.0000 C   0  0  0  0  0  0  0  0  0  0  0  0
   -1.3125    1.6708    0.0000 C   0  0  0  0  0  0  0  0  0  0  0  0
   -5.3125    0.2500    0.0000 C   0  0  0  0  0  0  0  0  0  0  0  0
  2  1  2  0  0  0  0
  3  6  1  0  0  0  0
  4  3  1  0  0  0  0
  5  2  1  0  0  0  0
  6  1  1  0  0  0  0
  7  2  1  0  0  0  0
  8  1  1  0  0  0  0
  9  8  2  0  0  0  0
 10  4  1  0  0  0  0
 11  3  1  0  0  0  0
 12  6  2  0  0  0  0
 13 16  1  0  0  0  0
 14 13  1  0  0  0  0
 15 13  2  0  0  0  0
 16 10  1  0  0  0  0
 17 14  1  0  0  0  0
 18  8  1  0  0  0  0
 19  9  1  0  0  0  0
 20 11  2  0  0  0  0
 21 11  1  0  0  0  0
 22 17  2  0  0  0  0
 23 17  1  0  0  0  0
 24 18  1  0  0  0  0
 25 19  1  0  0  0  0
 26 21  2  0  0  0  0
 27 20  1  0  0  0  0
 28 23  2  0  0  0  0
 29 22  1  0  0  0  0
 30 28  1  0  0  0  0
 31 26  1  0  0  0  0
 32 24  1  0  0  0  0
  7  9  1  0  0  0  0
  4  5  2  0  0  0  0
 25 32  1  0  0  0  0
 31 27  2  0  0  0  0
 30 29  2  0  0  0  0
M  END
> <IDNUMBER>
F1143-0416

> <Chemical_Name>
2-({3-oxo-4-phenyl-8-thia-4,6-diazatricyclo[7.5.0.0^{2,7}]tetradeca-1(9),2(7),5-trien-5-yl}sulfanyl)-N-phenylacetamide

> <CAS>
379236-90-5

> <PriceCoeff>
1.00

> <MW>
461.60

> <Description>
solid

> <FSP3>
0.24

> <clogP>
6.24

> <TPSA>
115.31

> <Acceptor>
3

> <Donor>
1

> <RotBonds>
5

> <HAC>
32

> <Collection>
General

> <Reference_compound>
CHEMBL577016

> <Similarity>
0.8360

$$$$
F0850-4775
  -ISIS-  06222321442D

 28 31  0  0  0  0  0  0  0  0999 V2000
    3.7500   -2.7042    0.0000 C   0  0  0  0  0  0  0  0  0  0  0  0
    2.7875   -3.2375    0.0000 C   0  0  0  0  0  0  0  0  0  0  0  0
    1.8875   -2.7042    0.0000 C   0  0  0  0  0  0  0  0  0  0  0  0
    3.7500   -1.6792    0.0000 C   0  0  0  0  0  0  0  0  0  0  0  0
    1.8875   -1.6792    0.0000 C   0  0  0  0  0  0  0  0  0  0  0  0
    2.7875   -1.1500    0.0000 O   0  0  0  0  0  0  0  0  0  0  0  0
    4.4542   -3.1167    0.0000 C   0  0  0  0  0  0  0  0  0  0  0  0
   -1.8833   -1.6792    0.0000 C   0  0  0  0  0  0  0  0  0  0  0  0
    0.9500   -1.1500    0.0000 C   0  0  0  0  0  0  0  0  0  0  0  0
   -0.9333   -1.1500    0.0000 O   0  0  0  0  0  0  0  0  0  0  0  0
    0.9500   -3.2375    0.0000 C   0  0  0  0  0  0  0  0  0  0  0  0
    0.0000   -1.6792    0.0000 C   0  0  0  0  0  0  0  0  0  0  0  0
    2.7875   -4.3000    0.0000 O   0  0  0  0  0  0  0  0  0  0  0  0
   -1.8833   -2.7375    0.0000 O   0  0  0  0  0  0  0  0  0  0  0  0
    4.4542   -3.9500    0.0000 C   0  0  0  0  0  0  0  0  0  0  0  0
   -2.8208   -1.1500    0.0000 C   0  0  0  0  0  0  0  0  0  0  0  0
    0.0000   -2.7042    0.0000 C   0  0  0  0  0  0  0  0  0  0  0  0
    3.7375   -4.3542    0.0000 O   0  0  0  0  0  0  0  0  0  0  0  0
    5.1667   -2.7000    0.0000 C   0  0  0  0  0  0  0  0  0  0  0  0
    5.1667   -4.3542    0.0000 C   0  0  0  0  0  0  0  0  0  0  0  0
   -2.8208   -0.0875    0.0000 C   0  0  0  0  0  0  0  0  0  0  0  0
   -3.7708   -1.6667    0.0000 C   0  0  0  0  0  0  0  0  0  0  0  0
    3.7375   -5.1792    0.0000 C   0  0  0  0  0  0  0  0  0  0  0  0
    5.8875   -3.1042    0.0000 C   0  0  0  0  0  0  0  0  0  0  0  0
    5.8875   -3.9500    0.0000 C   0  0  0  0  0  0  0  0  0  0  0  0
   -4.7208   -1.1500    0.0000 C   0  0  0  0  0  0  0  0  0  0  0  0
   -3.7708    0.4458    0.0000 C   0  0  0  0  0  0  0  0  0  0  0  0
   -4.7208   -0.0792    0.0000 C   0  0  0  0  0  0  0  0  0  0  0  0
  2  1  1  0  0  0  0
  3  2  1  0  0  0  0
  4  1  2  0  0  0  0
  5  6  1  0  0  0  0
  6  4  1  0  0  0  0
  7  1  1  0  0  0  0
  8 10  1  0  0  0  0
  9  5  2  0  0  0  0
 10 12  1  0  0  0  0
 11  3  2  0  0  0  0
 12  9  1  0  0  0  0
 13  2  2  0  0  0  0
 14  8  2  0  0  0  0
 15  7  2  0  0  0  0
 16  8  1  0  0  0  0
 17 11  1  0  0  0  0
 18 15  1  0  0  0  0
 19  7  1  0  0  0  0
 20 15  1  0  0  0  0
 21 16  2  0  0  0  0
 22 16  1  0  0  0  0
 23 18  1  0  0  0  0
 24 19  2  0  0  0  0
 25 24  1  0  0  0  0
 26 22  2  0  0  0  0
 27 21  1  0  0  0  0
 28 26  1  0  0  0  0
  5  3  1  0  0  0  0
 25 20  2  0  0  0  0
 12 17  2  0  0  0  0
 27 28  2  0  0  0  0
M  END
> <IDNUMBER>
F0850-4775

> <Chemical_Name>
3-(2-methoxyphenyl)-4-oxo-4H-chromen-7-yl benzoate

> <CAS>
303121-48-4

> <PriceCoeff>
1.00

> <MW>
372.37

> <Description>
solid

> <FSP3>
0.04

> <clogP>
4.02

> <TPSA>
61.83

> <Acceptor>
5

> <Donor>
0

> <RotBonds>
5

> <HAC>
28

> <Collection>
General

> <Reference_compound>
CHEMBL44

> <Similarity>
0.8230

$$$$
F3385-1239
  -ISIS-  06222321152D

 28 31  0  0  0  0  0  0  0  0999 V2000
    8.5667   -2.5917    0.0000 C   0  0  0  0  0  0  0  0  0  0  0  0
    7.3917   -3.2542    0.0000 C   0  0  0  0  0  0  0  0  0  0  0  0
    6.2542   -2.5917    0.0000 C   0  0  0  0  0  0  0  0  0  0  0  0
    8.5667   -1.2667    0.0000 C   0  0  0  0  0  0  0  0  0  0  0  0
    6.2542   -1.2667    0.0000 C   0  0  0  0  0  0  0  0  0  0  0  0
    7.3917   -0.5917    0.0000 O   0  0  0  0  0  0  0  0  0  0  0  0
    9.7042   -3.2667    0.0000 C   0  0  0  0  0  0  0  0  0  0  0  0
    5.1000   -3.2542    0.0000 C   0  0  0  0  0  0  0  0  0  0  0  0
    5.1000   -0.5917    0.0000 C   0  0  0  0  0  0  0  0  0  0  0  0
    7.3917   -4.5792    0.0000 O   0  0  0  0  0  0  0  0  0  0  0  0
    3.9542   -1.2875    0.0000 C   0  0  0  0  0  0  0  0  0  0  0  0
   10.8625   -2.5917    0.0000 C   0  0  0  0  0  0  0  0  0  0  0  0
    9.7042   -4.6000    0.0000 C   0  0  0  0  0  0  0  0  0  0  0  0
    2.7875   -0.5917    0.0000 O   0  0  0  0  0  0  0  0  0  0  0  0
    3.9542   -2.5917    0.0000 C   0  0  0  0  0  0  0  0  0  0  0  0
    0.4917   -0.5792    0.0000 C   0  0  0  0  0  0  0  0  0  0  0  0
   12.0000   -4.6000    0.0000 C   0  0  0  0  0  0  0  0  0  0  0  0
    1.6417   -1.2667    0.0000 C   0  0  0  0  0  0  0  0  0  0  0  0
   12.0000   -3.2542    0.0000 C   0  0  0  0  0  0  0  0  0  0  0  0
   10.8417   -5.2667    0.0000 C   0  0  0  0  0  0  0  0  0  0  0  0
   -1.8083    0.7500    0.0000 C   0  0  0  0  0  0  0  0  0  0  0  0
    0.5042    0.7333    0.0000 C   0  0  0  0  0  0  0  0  0  0  0  0
   -0.6500   -1.2500    0.0000 C   0  0  0  0  0  0  0  0  0  0  0  0
   -0.6333    1.4083    0.0000 C   0  0  0  0  0  0  0  0  0  0  0  0
   -1.8083   -0.5792    0.0000 C   0  0  0  0  0  0  0  0  0  0  0  0
   13.1542   -5.2667    0.0000 O   0  0  0  0  0  0  0  0  0  0  0  0
   -2.9458    1.4083    0.0000 C   0  0  0  0  0  0  0  0  0  0  0  0
   14.3167   -4.6167    0.0000 C   0  0  0  0  0  0  0  0  0  0  0  0
  2  1  1  0  0  0  0
  3  2  1  0  0  0  0
  4  1  2  0  0  0  0
  5  6  1  0  0  0  0
  6  4  1  0  0  0  0
  7  1  1  0  0  0  0
  8  3  2  0  0  0  0
  9  5  2  0  0  0  0
 10  2  2  0  0  0  0
 11  9  1  0  0  0  0
 12  7  1  0  0  0  0
 13  7  2  0  0  0  0
 14 11  1  0  0  0  0
 15  8  1  0  0  0  0
 16 18  1  0  0  0  0
 17 20  2  0  0  0  0
 18 14  1  0  0  0  0
 19 12  2  0  0  0  0
 20 13  1  0  0  0  0
 21 25  1  0  0  0  0
 22 16  2  0  0  0  0
 23 16  1  0  0  0  0
 24 22  1  0  0  0  0
 25 23  2  0  0  0  0
 26 17  1  0  0  0  0
 27 21  1  0  0  0  0
 28 26  1  0  0  0  0
 17 19  1  0  0  0  0
  5  3  1  0  0  0  0
 11 15  2  0  0  0  0
 21 24  2  0  0  0  0
M  END
> <IDNUMBER>
F3385-1239

> <Chemical_Name>
3-(4-methoxyphenyl)-7-[(4-methylphenyl)methoxy]-4H-chromen-4-one

> <CAS>
858767-08-5

> <PriceCoeff>
1.00

> <MW>
372.41

> <Description>
solid

> <FSP3>
0.12

> <clogP>
5.29

> <TPSA>
44.76

> <Acceptor>
4

> <Donor>
0

> <RotBonds>
5

> <HAC>
28

> <Collection>
General

> <Reference_compound>
CHEMBL44

> <Similarity>
0.8750

$$$$
F3385-1210
  -ISIS-  06222321152D

 28 31  0  0  0  0  0  0  0  0999 V2000
    2.5792   -0.8792    0.0000 C   0  0  0  0  0  0  0  0  0  0  0  0
    1.8542   -1.2917    0.0000 C   0  0  0  0  0  0  0  0  0  0  0  0
    1.1375   -0.8792    0.0000 C   0  0  0  0  0  0  0  0  0  0  0  0
    2.5792   -0.0417    0.0000 C   0  0  0  0  0  0  0  0  0  0  0  0
    1.1417   -0.0417    0.0000 C   0  0  0  0  0  0  0  0  0  0  0  0
    1.8542    0.3750    0.0000 O   0  0  0  0  0  0  0  0  0  0  0  0
    3.2875   -1.2917    0.0000 C   0  0  0  0  0  0  0  0  0  0  0  0
    0.4250   -1.2875    0.0000 C   0  0  0  0  0  0  0  0  0  0  0  0
    0.4250    0.3708    0.0000 C   0  0  0  0  0  0  0  0  0  0  0  0
    1.8542   -2.1167    0.0000 O   0  0  0  0  0  0  0  0  0  0  0  0
   -2.4333    0.3625    0.0000 C   0  0  0  0  0  0  0  0  0  0  0  0
   -1.7208   -0.0500    0.0000 C   0  0  0  0  0  0  0  0  0  0  0  0
   -0.2875   -0.0500    0.0000 C   0  0  0  0  0  0  0  0  0  0  0  0
    3.2792   -2.1167    0.0000 C   0  0  0  0  0  0  0  0  0  0  0  0
    4.0000   -0.8792    0.0000 C   0  0  0  0  0  0  0  0  0  0  0  0
   -3.1375   -0.0500    0.0000 C   0  0  0  0  0  0  0  0  0  0  0  0
   -1.0000    0.3625    0.0000 O   0  0  0  0  0  0  0  0  0  0  0  0
   -0.2875   -0.8750    0.0000 C   0  0  0  0  0  0  0  0  0  0  0  0
    4.7125   -2.1250    0.0000 C   0  0  0  0  0  0  0  0  0  0  0  0
    4.7125   -1.2917    0.0000 C   0  0  0  0  0  0  0  0  0  0  0  0
    3.9917   -2.5292    0.0000 C   0  0  0  0  0  0  0  0  0  0  0  0
    5.4250   -2.5375    0.0000 O   0  0  0  0  0  0  0  0  0  0  0  0
   -2.4250    1.1958    0.0000 C   0  0  0  0  0  0  0  0  0  0  0  0
   -3.1375   -0.8750    0.0000 C   0  0  0  0  0  0  0  0  0  0  0  0
   -3.8583    0.3583    0.0000 C   0  0  0  0  0  0  0  0  0  0  0  0
    6.1417   -2.1250    0.0000 C   0  0  0  0  0  0  0  0  0  0  0  0
   -3.8583    1.1875    0.0000 C   0  0  0  0  0  0  0  0  0  0  0  0
   -3.1458    1.6000    0.0000 C   0  0  0  0  0  0  0  0  0  0  0  0
  2  1  1  0  0  0  0
  3  2  1  0  0  0  0
  4  1  2  0  0  0  0
  5  6  1  0  0  0  0
  6  4  1  0  0  0  0
  7  1  1  0  0  0  0
  8  3  2  0  0  0  0
  9  5  2  0  0  0  0
 10  2  2  0  0  0  0
 11 12  1  0  0  0  0
 12 17  1  0  0  0  0
 13  9  1  0  0  0  0
 14  7  2  0  0  0  0
 15  7  1  0  0  0  0
 16 11  1  0  0  0  0
 17 13  1  0  0  0  0
 18  8  1  0  0  0  0
 19 20  1  0  0  0  0
 20 15  2  0  0  0  0
 21 14  1  0  0  0  0
 22 19  1  0  0  0  0
 23 11  2  0  0  0  0
 24 16  1  0  0  0  0
 25 16  2  0  0  0  0
 26 22  1  0  0  0  0
 27 28  2  0  0  0  0
 28 23  1  0  0  0  0
 21 19  2  0  0  0  0
  5  3  1  0  0  0  0
 13 18  2  0  0  0  0
 25 27  1  0  0  0  0
M  END
> <IDNUMBER>
F3385-1210

> <Chemical_Name>
3-(4-methoxyphenyl)-7-[(2-methylphenyl)methoxy]-4H-chromen-4-one

> <CAS>
858766-83-3

> <PriceCoeff>
1.00

> <MW>
372.41

> <Description>
solid

> <FSP3>
0.12

> <clogP>
5.24

> <TPSA>
44.76

> <Acceptor>
4

> <Donor>
0

> <RotBonds>
5

> <HAC>
28

> <Collection>
General

> <Reference_compound>
CHEMBL44

> <Similarity>
0.8560

$$$$
F3342-0157
  -ISIS-  06222304352D

 38 40  0  0  0  0  0  0  0  0999 V2000
    4.8875   -4.9375    0.0000 S   0  0  3  0  0  0  0  0  0  0  0  0
    5.6042   -5.3417    0.0000 N   0  0  3  0  0  0  0  0  0  0  0  0
    4.1750   -5.3542    0.0000 C   0  0  0  0  0  0  0  0  0  0  0  0
    6.3167   -4.9292    0.0000 C   0  0  0  0  0  0  0  0  0  0  0  0
    5.1042   -5.7292    0.0000 O   0  0  0  0  0  0  0  0  0  0  0  0
    4.8792   -4.1125    0.0000 O   0  0  0  0  0  0  0  0  0  0  0  0
    5.6042   -6.1667    0.0000 C   0  0  0  0  0  0  0  0  0  0  0  0
    9.8875   -5.3292    0.0000 C   0  0  0  0  0  0  0  0  0  0  0  0
    9.9750   -6.1542    0.0000 O   0  0  0  0  0  0  0  0  0  0  0  0
   10.6417   -4.9917    0.0000 C   0  0  0  0  0  0  0  0  0  0  0  0
   10.7792   -6.3250    0.0000 C   0  0  0  0  0  0  0  0  0  0  0  0
   11.2000   -5.6042    0.0000 C   0  0  0  0  0  0  0  0  0  0  0  0
    3.4542   -4.9417    0.0000 C   0  0  0  0  0  0  0  0  0  0  0  0
    4.1750   -6.1792    0.0000 C   0  0  0  0  0  0  0  0  0  0  0  0
    6.3167   -6.5750    0.0000 C   0  0  0  0  0  0  0  0  0  0  0  0
    4.8917   -6.5792    0.0000 C   0  0  0  0  0  0  0  0  0  0  0  0
    7.0292   -5.3417    0.0000 C   0  0  3  0  0  0  0  0  0  0  0  0
    8.4625   -5.3375    0.0000 N   0  0  0  0  0  0  0  0  0  0  0  0
    5.6125   -7.8167    0.0000 C   0  0  0  0  0  0  0  0  0  0  0  0
    4.8917   -7.4042    0.0000 C   0  0  0  0  0  0  0  0  0  0  0  0
    6.3292   -7.4000    0.0000 C   0  0  0  0  0  0  0  0  0  0  0  0
    3.4542   -6.5917    0.0000 C   0  0  0  0  0  0  0  0  0  0  0  0
    2.7417   -5.3542    0.0000 C   0  0  0  0  0  0  0  0  0  0  0  0
    2.7417   -6.1792    0.0000 C   0  0  0  0  0  0  0  0  0  0  0  0
    5.6167   -8.6417    0.0000 F   0  0  0  0  0  0  0  0  0  0  0  0
    9.1667   -4.9167    0.0000 C   0  0  0  0  0  0  0  0  0  0  0  0
    7.0292   -6.1667    0.0000 O   0  0  0  0  0  0  0  0  0  0  0  0
    7.7417   -4.9250    0.0000 C   0  0  0  0  0  0  0  0  0  0  0  0
    2.0292   -6.5917    0.0000 C   0  0  0  0  0  0  0  0  0  0  0  0
   14.3537   -5.8824    0.0000 C   0  0  0  0  0  0  0  0  0  0  0  0
   14.0519   -5.1101    0.0000 O   0  0  0  0  0  0  0  0  0  0  0  0
   13.8345   -6.5287    0.0000 C   0  0  0  0  0  0  0  0  0  0  0  0
   15.1677   -6.0022    0.0000 O   0  0  0  0  0  0  0  0  0  0  0  0
   13.0136   -6.4026    0.0000 C   0  0  0  0  0  0  0  0  0  0  0  0
   14.1323   -7.3025    0.0000 C   0  0  0  0  0  0  0  0  0  0  0  0
   12.4929   -7.0450    0.0000 C   0  0  0  0  0  0  0  0  0  0  0  0
   13.6093   -7.9503    0.0000 C   0  0  0  0  0  0  0  0  0  0  0  0
   12.7908   -7.8189    0.0000 C   0  0  0  0  0  0  0  0  0  0  0  0
 11  9  1  0  0  0  0
 12 10  1  0  0  0  0
 13  3  2  0  0  0  0
 14  3  1  0  0  0  0
 15  7  1  0  0  0  0
 16  7  2  0  0  0  0
 17  4  1  0  0  0  0
 18 28  1  0  0  0  0
 19 20  2  0  0  0  0
 20 16  1  0  0  0  0
 21 15  2  0  0  0  0
 22 14  2  0  0  0  0
 23 13  1  0  0  0  0
 24 22  1  0  0  0  0
 25 19  1  0  0  0  0
 26 18  1  0  0  0  0
 27 17  1  0  0  0  0
 28 17  1  0  0  0  0
 29 24  1  0  0  0  0
 24 23  2  0  0  0  0
 19 21  1  0  0  0  0
 12 11  2  0  0  0  0
  2  1  1  0  0  0  0
  3  1  1  0  0  0  0
  4  2  1  0  0  0  0
  5  1  2  0  0  0  0
  6  1  2  0  0  0  0
  7  2  1  0  0  0  0
  8 26  1  0  0  0  0
  9  8  1  0  0  0  0
 10  8  2  0  0  0  0
 31 30  2  0  0  0  0
 32 30  1  0  0  0  0
 33 30  1  0  0  0  0
 34 32  2  0  0  0  0
 35 32  1  0  0  0  0
 36 34  1  0  0  0  0
 37 35  2  0  0  0  0
 38 37  1  0  0  0  0
 38 36  2  0  0  0  0
M  END
> <IDNUMBER>
F3342-0157

> <Chemical_Name>
benzoic acid; {3-[N-(4-fluorophenyl)4-methylbenzenesulfonamido]-2-hydroxypropyl}[(furan-2-yl)methyl]amine

> <CAS>
1327617-11-7

> <PriceCoeff>
1.00

> <MW>
418.48

> <Description>
solid

> <FSP3>
0.24

> <clogP>
3.65

> <TPSA>
91.16

> <Acceptor>
5

> <Donor>
2

> <RotBonds>
9

> <HAC>
29

> <Collection>
General

> <Reference_compound>
PRI1826

> <Similarity>
0.8570

$$$$
F0614-0079
  -ISIS-  06222321452D

 29 32  0  0  0  0  0  0  0  0999 V2000
   -1.7458    0.1000    0.0000 C   0  0  0  0  0  0  0  0  0  0  0  0
   -1.7375   -0.7167    0.0000 C   0  0  0  0  0  0  0  0  0  0  0  0
   -2.4500    0.5208    0.0000 C   0  0  0  0  0  0  0  0  0  0  0  0
    0.4750    5.4042    0.0000 N   0  3  0  0  0  0  0  0  0  0  0  0
   -0.2458    5.0042    0.0000 C   0  0  0  0  0  0  0  0  0  0  0  0
   -2.4583   -1.1292    0.0000 O   0  0  0  0  0  0  0  0  0  0  0  0
   -2.4458    1.3458    0.0000 N   0  0  0  0  0  0  0  0  0  0  0  0
   -3.1625    0.1083    0.0000 C   0  0  0  0  0  0  0  0  0  0  0  0
   -1.7208    1.7500    0.0000 C   0  0  0  0  0  0  0  0  0  0  0  0
   -1.0250    0.5083    0.0000 C   0  0  0  0  0  0  0  0  0  0  0  0
   -0.9958    2.9833    0.0000 C   0  0  0  0  0  0  0  0  0  0  0  0
   -1.7125    2.5833    0.0000 N   0  0  0  0  0  0  0  0  0  0  0  0
   -3.1708   -0.7167    0.0000 C   0  0  0  0  0  0  0  0  0  0  0  0
   -0.2750    4.2000    0.0000 C   0  0  0  0  0  0  0  0  0  0  0  0
   -0.9833    3.7958    0.0000 C   0  0  0  0  0  0  0  0  0  0  0  0
   -1.0125    1.3333    0.0000 C   0  0  0  0  0  0  0  0  0  0  0  0
   -0.9458    5.4417    0.0000 C   0  0  0  0  0  0  0  0  0  0  0  0
    0.4917    6.2292    0.0000 O   0  5  0  0  0  0  0  0  0  0  0  0
   -1.0250   -1.1375    0.0000 O   0  0  0  0  0  0  0  0  0  0  0  0
    1.1750    4.9667    0.0000 O   0  0  0  0  0  0  0  0  0  0  0  0
   -0.2833    2.5583    0.0000 O   0  0  0  0  0  0  0  0  0  0  0  0
   -1.6958    4.2167    0.0000 C   0  0  0  0  0  0  0  0  0  0  0  0
   -1.6750    5.0417    0.0000 C   0  0  0  0  0  0  0  0  0  0  0  0
   -0.9250    6.2667    0.0000 Cl  0  0  0  0  0  0  0  0  0  0  0  0
   -3.8750    0.5250    0.0000 C   0  0  0  0  0  0  0  0  0  0  0  0
   -0.3208    0.0833    0.0000 C   0  0  0  0  0  0  0  0  0  0  0  0
   -3.8750   -1.1250    0.0000 C   0  0  0  0  0  0  0  0  0  0  0  0
   -4.5833    0.1083    0.0000 C   0  0  0  0  0  0  0  0  0  0  0  0
   -4.5833   -0.7167    0.0000 C   0  0  0  0  0  0  0  0  0  0  0  0
  2  1  1  0  0  0  0
  3  1  2  0  0  0  0
  4  5  1  0  0  0  0
  5 14  1  0  0  0  0
  6  2  1  0  0  0  0
  7  3  1  0  0  0  0
  8  3  1  0  0  0  0
  9 16  1  0  0  0  0
 10  1  1  0  0  0  0
 11 12  1  0  0  0  0
 12  9  1  0  0  0  0
 13  8  2  0  0  0  0
 14 15  2  0  0  0  0
 15 11  1  0  0  0  0
 16 10  2  0  0  0  0
 17 23  1  0  0  0  0
 18  4  1  0  0  0  0
 19  2  2  0  0  0  0
 20  4  2  0  0  0  0
 21 11  2  0  0  0  0
 22 15  1  0  0  0  0
 23 22  2  0  0  0  0
 24 17  1  0  0  0  0
 25  8  1  0  0  0  0
 26 10  1  0  0  0  0
 27 13  1  0  0  0  0
 28 25  2  0  0  0  0
 29 28  1  0  0  0  0
  9  7  2  0  0  0  0
 13  6  1  0  0  0  0
 27 29  2  0  0  0  0
 17  5  2  0  0  0  0
M  CHG  2   4   1  18  -1
M  END
> <IDNUMBER>
F0614-0079

> <Chemical_Name>
4-chloro-N-{4-methyl-5-oxo-5H-chromeno[4,3-b]pyridin-2-yl}-3-nitrobenzamide

> <CAS>
851411-56-8

> <PriceCoeff>
1.00

> <MW>
409.78

> <Description>
solid

> <FSP3>
0.05

> <clogP>
3.96

> <TPSA>
111.43

> <Acceptor>
6

> <Donor>
2

> <RotBonds>
3

> <HAC>
29

> <Collection>
General

$$$$
F3168-0276
  -ISIS-  06222321462D

 38 42  0  0  0  0  0  0  0  0999 V2000
    7.6000   -3.9000    0.0000 N   0  0  3  0  0  0  0  0  0  0  0  0
    6.1625   -3.9000    0.0000 C   0  0  0  0  0  0  0  0  0  0  0  0
    6.1625   -4.7292    0.0000 C   0  0  0  0  0  0  0  0  0  0  0  0
    7.6000   -4.7292    0.0000 C   0  0  0  0  0  0  0  0  0  0  0  0
    6.8792   -5.1375    0.0000 N   0  0  0  0  0  0  0  0  0  0  0  0
    6.8792   -3.4875    0.0000 C   0  0  0  0  0  0  0  0  0  0  0  0
    5.3792   -3.6417    0.0000 C   0  0  0  0  0  0  0  0  0  0  0  0
    4.8917   -4.3042    0.0000 C   0  0  0  0  0  0  0  0  0  0  0  0
    5.3792   -4.9875    0.0000 S   0  0  0  0  0  0  0  0  0  0  0  0
    8.3167   -3.4875    0.0000 C   0  0  0  0  0  0  0  0  0  0  0  0
    3.7250   -3.4667    0.0000 N   0  0  3  0  0  0  0  0  0  0  0  0
    4.0625   -4.2167    0.0000 C   0  0  0  0  0  0  0  0  0  0  0  0
    8.3167   -2.6500    0.0000 C   0  0  0  0  0  0  0  0  0  0  0  0
    8.3167   -5.1375    0.0000 S   0  0  0  0  0  0  0  0  0  0  0  0
    2.8917   -3.3750    0.0000 C   0  0  0  0  0  0  0  0  0  0  0  0
   10.4667   -4.6917    0.0000 N   0  0  0  0  0  0  0  0  0  0  0  0
    5.0375   -2.8875    0.0000 C   0  0  0  0  0  0  0  0  0  0  0  0
   11.1917   -5.1000    0.0000 C   0  0  0  0  0  0  0  0  0  0  0  0
    9.0250   -2.2292    0.0000 C   0  0  0  0  0  0  0  0  0  0  0  0
   11.9042   -4.6792    0.0000 C   0  0  0  0  0  0  0  0  0  0  0  0
    9.7500   -5.1167    0.0000 C   0  0  0  0  0  0  0  0  0  0  0  0
    6.8792   -2.6542    0.0000 O   0  0  0  0  0  0  0  0  0  0  0  0
   12.6250   -5.0875    0.0000 C   0  0  0  0  0  0  0  0  0  0  0  0
    4.2125   -2.8000    0.0000 C   0  0  0  0  0  0  0  0  0  0  0  0
    9.0250   -3.8917    0.0000 C   0  0  0  0  0  0  0  0  0  0  0  0
    9.7542   -2.6500    0.0000 C   0  0  0  0  0  0  0  0  0  0  0  0
    2.4042   -4.0417    0.0000 O   0  0  0  0  0  0  0  0  0  0  0  0
    9.7625   -5.9417    0.0000 O   0  0  0  0  0  0  0  0  0  0  0  0
    9.7500   -3.4875    0.0000 C   0  0  0  0  0  0  0  0  0  0  0  0
   11.2000   -5.9292    0.0000 C   0  0  0  0  0  0  0  0  0  0  0  0
    9.0292   -4.7042    0.0000 C   0  0  0  0  0  0  0  0  0  0  0  0
   12.6375   -5.9167    0.0000 C   0  0  0  0  0  0  0  0  0  0  0  0
   11.9000   -3.8542    0.0000 F   0  0  0  0  0  0  0  0  0  0  0  0
    9.0292   -1.4042    0.0000 Cl  0  0  0  0  0  0  0  0  0  0  0  0
   10.4667   -2.2417    0.0000 F   0  0  0  0  0  0  0  0  0  0  0  0
   11.9167   -6.3375    0.0000 C   0  0  0  0  0  0  0  0  0  0  0  0
   13.3542   -6.3375    0.0000 F   0  0  0  0  0  0  0  0  0  0  0  0
    2.5625   -2.6167    0.0000 C   0  0  0  0  0  0  0  0  0  0  0  0
  2  6  1  0  0  0  0
  3  2  2  0  0  0  0
  4  1  1  0  0  0  0
  5  4  2  0  0  0  0
  6  1  1  0  0  0  0
  7  2  1  0  0  0  0
  8  7  2  0  0  0  0
  9  3  1  0  0  0  0
 10  1  1  0  0  0  0
 11 24  1  0  0  0  0
 12  8  1  0  0  0  0
 13 10  1  0  0  0  0
 14  4  1  0  0  0  0
 15 11  1  0  0  0  0
 16 21  1  0  0  0  0
 17  7  1  0  0  0  0
 18 16  1  0  0  0  0
 19 13  2  0  0  0  0
 20 18  1  0  0  0  0
 21 31  1  0  0  0  0
 22  6  2  0  0  0  0
 23 20  2  0  0  0  0
 24 17  1  0  0  0  0
 25 10  2  0  0  0  0
 26 29  2  0  0  0  0
 27 15  2  0  0  0  0
 28 21  2  0  0  0  0
 29 25  1  0  0  0  0
 30 18  2  0  0  0  0
 31 14  1  0  0  0  0
 32 36  2  0  0  0  0
 33 20  1  0  0  0  0
 34 19  1  0  0  0  0
 35 26  1  0  0  0  0
 36 30  1  0  0  0  0
 37 32  1  0  0  0  0
 38 15  1  0  0  0  0
  3  5  1  0  0  0  0
 26 19  1  0  0  0  0
  9  8  1  0  0  0  0
 11 12  1  0  0  0  0
 32 23  1  0  0  0  0
M  END
> <IDNUMBER>
F3168-0276

> <Chemical_Name>
2-{[11-acetyl-4-(3-chloro-4-fluorophenyl)-3-oxo-8-thia-4,6,11-triazatricyclo[7.4.0.0^{2,7}]trideca-1(9),2(7),5-trien-5-yl]sulfanyl}-N-(2,4-difluorophenyl)acetamide

> <CAS>
892281-86-6

> <PriceCoeff>
1.00

> <MW>
579.01

> <Description>
solid

> <FSP3>
0.20

> <clogP>
3.50

> <TPSA>
135.62

> <Acceptor>
4

> <Donor>
1

> <RotBonds>
6

> <HAC>
38

> <Collection>
General

> <Reference_compound>
CHEMBL577016

> <Similarity>
0.8160

$$$$
F1142-4026
  -ISIS-  06222321142D

 31 35  0  0  0  0  0  0  0  0999 V2000
   -2.0208    1.6000    0.0000 C   0  0  0  0  0  0  0  0  0  0  0  0
   -1.7833    0.8208    0.0000 C   0  0  0  0  0  0  0  0  0  0  0  0
   -0.6833    2.0208    0.0000 N   0  0  3  0  0  0  0  0  0  0  0  0
   -0.4208    1.2458    0.0000 C   0  0  0  0  0  0  0  0  0  0  0  0
   -0.9833    0.6458    0.0000 N   0  0  0  0  0  0  0  0  0  0  0  0
   -1.4625    2.2083    0.0000 C   0  0  0  0  0  0  0  0  0  0  0  0
   -2.4625    0.3458    0.0000 S   0  0  0  0  0  0  0  0  0  0  0  0
   -2.8458    1.6000    0.0000 C   0  0  0  0  0  0  0  0  0  0  0  0
   -3.1000    0.8208    0.0000 C   0  0  0  0  0  0  0  0  0  0  0  0
    0.4167    1.0833    0.0000 S   0  0  0  0  0  0  0  0  0  0  0  0
    2.0542    0.8208    0.0000 C   0  0  0  0  0  0  0  0  0  0  0  0
   -0.1500    2.6458    0.0000 C   0  0  0  0  0  0  0  0  0  0  0  0
   -1.6833    3.0000    0.0000 O   0  0  0  0  0  0  0  0  0  0  0  0
    1.5375    0.1833    0.0000 C   0  0  0  0  0  0  0  0  0  0  0  0
    1.7542    1.6000    0.0000 C   0  0  0  0  0  0  0  0  0  0  0  0
    1.8375   -0.6000    0.0000 C   0  0  0  0  0  0  0  0  0  0  0  0
    0.9375    1.7208    0.0000 C   0  0  0  0  0  0  0  0  0  0  0  0
    2.6542   -0.7167    0.0000 C   0  0  0  0  0  0  0  0  0  0  0  0
    2.8542    0.7000    0.0000 C   0  0  0  0  0  0  0  0  0  0  0  0
    2.2792    2.2458    0.0000 O   0  0  0  0  0  0  0  0  0  0  0  0
    3.1542   -0.0792    0.0000 C   0  0  0  0  0  0  0  0  0  0  0  0
   -3.5208    2.0833    0.0000 C   0  0  0  0  0  0  0  0  0  0  0  0
   -3.9208    0.8208    0.0000 C   0  0  0  0  0  0  0  0  0  0  0  0
   -4.1833    1.5625    0.0000 C   0  0  0  0  0  0  0  0  0  0  0  0
    1.3167   -1.2542    0.0000 C   0  0  0  0  0  0  0  0  0  0  0  0
   -0.4208    3.4208    0.0000 C   0  0  0  0  0  0  0  0  0  0  0  0
    0.6667    2.5000    0.0000 C   0  0  0  0  0  0  0  0  0  0  0  0
    3.0000   -1.5000    0.0000 C   0  0  0  0  0  0  0  0  0  0  0  0
    1.2000    3.1208    0.0000 C   0  0  0  0  0  0  0  0  0  0  0  0
    0.1042    4.0417    0.0000 C   0  0  0  0  0  0  0  0  0  0  0  0
    0.9167    3.9208    0.0000 C   0  0  0  0  0  0  0  0  0  0  0  0
  2  1  2  0  0  0  0
  3  6  1  0  0  0  0
  4  3  1  0  0  0  0
  5  2  1  0  0  0  0
  6  1  1  0  0  0  0
  7  2  1  0  0  0  0
  8  1  1  0  0  0  0
  9  8  2  0  0  0  0
 10  4  1  0  0  0  0
 11 15  1  0  0  0  0
 12  3  1  0  0  0  0
 13  6  2  0  0  0  0
 14 11  1  0  0  0  0
 15 17  1  0  0  0  0
 16 14  2  0  0  0  0
 17 10  1  0  0  0  0
 18 21  2  0  0  0  0
 19 11  2  0  0  0  0
 20 15  2  0  0  0  0
 21 19  1  0  0  0  0
 22  8  1  0  0  0  0
 23  9  1  0  0  0  0
 24 22  1  0  0  0  0
 25 16  1  0  0  0  0
 26 12  2  0  0  0  0
 27 12  1  0  0  0  0
 28 18  1  0  0  0  0
 29 27  2  0  0  0  0
 30 26  1  0  0  0  0
 31 29  1  0  0  0  0
  7  9  1  0  0  0  0
  4  5  2  0  0  0  0
 24 23  1  0  0  0  0
 30 31  2  0  0  0  0
 16 18  1  0  0  0  0
M  END
> <IDNUMBER>
F1142-4026

> <Chemical_Name>
10-{[2-(3,4-dimethylphenyl)-2-oxoethyl]sulfanyl}-11-phenyl-7-thia-9,11-diazatricyclo[6.4.0.0^{2,6}]dodeca-1(8),2(6),9-trien-12-one

> <CAS>
709000-78-2

> <PriceCoeff>
1.00

> <MW>
446.58

> <Description>
solid

> <FSP3>
0.24

> <clogP>
6.49

> <TPSA>
103.28

> <Acceptor>
3

> <Donor>
0

> <RotBonds>
5

> <HAC>
31

> <Collection>
General

> <Reference_compound>
CHEMBL577016

> <Similarity>
0.8320

$$$$
F0239-0325
  -ISIS-  06222321442D

 26 29  0  0  0  0  0  0  0  0999 V2000
    1.4667   -0.5292    0.0000 C   0  0  0  0  0  0  0  0  0  0  0  0
    1.6500   -1.1042    0.0000 C   0  0  0  0  0  0  0  0  0  0  0  0
    1.8875   -0.0875    0.0000 C   0  0  0  0  0  0  0  0  0  0  0  0
    2.8042    2.9958    0.0000 N   0  3  0  0  0  0  0  0  0  0  0  0
    2.3292    2.5708    0.0000 C   0  0  0  0  0  0  0  0  0  0  0  0
    1.1500   -1.4667    0.0000 S   0  0  0  0  0  0  0  0  0  0  0  0
    0.8500   -0.5292    0.0000 C   0  0  0  0  0  0  0  0  0  0  0  0
    0.6500   -1.1042    0.0000 C   0  0  0  0  0  0  0  0  0  0  0  0
    1.7292    0.5500    0.0000 N   0  0  0  0  0  0  0  0  0  0  0  0
    2.1667    0.9708    0.0000 C   0  0  0  0  0  0  0  0  0  0  0  0
    2.4667    1.9708    0.0000 C   0  0  0  0  0  0  0  0  0  0  0  0
    2.2500   -1.2500    0.0000 N   0  0  0  0  0  0  0  0  0  0  0  0
    2.4667   -0.2292    0.0000 N   0  0  0  0  0  0  0  0  0  0  0  0
    2.0292    1.5500    0.0000 C   0  0  0  0  0  0  0  0  0  0  0  0
    1.7500    2.7500    0.0000 C   0  0  0  0  0  0  0  0  0  0  0  0
    2.6667   -0.7875    0.0000 C   0  0  0  0  0  0  0  0  0  0  0  0
    3.3667    2.7958    0.0000 O   0  5  0  0  0  0  0  0  0  0  0  0
    2.6875    3.5708    0.0000 O   0  0  0  0  0  0  0  0  0  0  0  0
    2.7500    0.7958    0.0000 O   0  0  0  0  0  0  0  0  0  0  0  0
    1.4500    1.7333    0.0000 C   0  0  0  0  0  0  0  0  0  0  0  0
    1.3042    2.3333    0.0000 C   0  0  0  0  0  0  0  0  0  0  0  0
    1.6042    3.3708    0.0000 Cl  0  0  0  0  0  0  0  0  0  0  0  0
    0.4500   -0.0667    0.0000 C   0  0  0  0  0  0  0  0  0  0  0  0
    0.0500   -1.2292    0.0000 C   0  0  0  0  0  0  0  0  0  0  0  0
   -0.1500   -0.1875    0.0000 C   0  0  0  0  0  0  0  0  0  0  0  0
   -0.3500   -0.7667    0.0000 C   0  0  0  0  0  0  0  0  0  0  0  0
  2  1  2  0  0  0  0
  3  1  1  0  0  0  0
  4  5  1  0  0  0  0
  5 11  1  0  0  0  0
  6  2  1  0  0  0  0
  7  1  1  0  0  0  0
  8  7  2  0  0  0  0
  9  3  1  0  0  0  0
 10  9  1  0  0  0  0
 11 14  2  0  0  0  0
 12  2  1  0  0  0  0
 13  3  2  0  0  0  0
 14 10  1  0  0  0  0
 15 21  1  0  0  0  0
 16 13  1  0  0  0  0
 17  4  1  0  0  0  0
 18  4  2  0  0  0  0
 19 10  2  0  0  0  0
 20 14  1  0  0  0  0
 21 20  2  0  0  0  0
 22 15  1  0  0  0  0
 23  7  1  0  0  0  0
 24  8  1  0  0  0  0
 25 23  1  0  0  0  0
 26 25  1  0  0  0  0
  6  8  1  0  0  0  0
 12 16  2  0  0  0  0
 26 24  1  0  0  0  0
  5 15  2  0  0  0  0
M  CHG  2   4   1  17  -1
M  END
> <IDNUMBER>
F0239-0325

> <Chemical_Name>
4-chloro-3-nitro-N-{8-thia-4,6-diazatricyclo[7.4.0.0^{2,7}]trideca-1(9),2(7),3,5-tetraen-3-yl}benzamide

> <CAS>
303017-78-9

> <PriceCoeff>
1.00

> <MW>
388.83

> <Description>
solid

> <FSP3>
0.24

> <clogP>
4.45

> <TPSA>
126.26

> <Acceptor>
5

> <Donor>
1

> <RotBonds>
3

> <HAC>
26

> <Collection>
General

$$$$
F1529-0100
  -ISIS-  06222321442D

 30 33  0  0  0  0  0  0  0  0999 V2000
    4.2250   -3.3792    0.0000 C   0  0  0  0  0  0  0  0  0  0  0  0
    4.2250   -2.5500    0.0000 N   0  0  0  0  0  0  0  0  0  0  0  0
    3.5042   -3.7917    0.0000 N   0  0  0  0  0  0  0  0  0  0  0  0
    4.9375   -3.7917    0.0000 C   0  0  0  0  0  0  0  0  0  0  0  0
    3.5042   -2.1292    0.0000 C   0  0  0  0  0  0  0  0  0  0  0  0
   10.9500   -3.7250    0.0000 N   0  3  0  0  0  0  0  0  0  0  0  0
    7.6667   -4.0667    0.0000 C   0  0  0  0  0  0  0  0  0  0  0  0
    2.7917   -2.5500    0.0000 C   0  0  0  0  0  0  0  0  0  0  0  0
    8.4917   -3.9875    0.0000 C   0  0  0  0  0  0  0  0  0  0  0  0
    2.7875   -3.3750    0.0000 C   0  0  0  0  0  0  0  0  0  0  0  0
    7.1167   -3.4542    0.0000 O   0  0  0  0  0  0  0  0  0  0  0  0
    5.6500   -3.3792    0.0000 C   0  0  0  0  0  0  0  0  0  0  0  0
    6.3625   -3.7917    0.0000 C   0  0  0  0  0  0  0  0  0  0  0  0
    8.8250   -3.2292    0.0000 C   0  0  0  0  0  0  0  0  0  0  0  0
   10.1292   -3.8167    0.0000 C   0  0  0  0  0  0  0  0  0  0  0  0
    9.6417   -3.1417    0.0000 C   0  0  0  0  0  0  0  0  0  0  0  0
    7.2542   -4.7792    0.0000 C   0  0  0  0  0  0  0  0  0  0  0  0
    4.9375   -4.6167    0.0000 C   0  0  0  0  0  0  0  0  0  0  0  0
    4.9250   -5.4417    0.0000 N   0  0  0  0  0  0  0  0  0  0  0  0
    6.4542   -4.6125    0.0000 C   0  0  0  0  0  0  0  0  0  0  0  0
    8.9750   -4.6542    0.0000 C   0  0  0  0  0  0  0  0  0  0  0  0
   11.4375   -4.3917    0.0000 O   0  5  0  0  0  0  0  0  0  0  0  0
   11.2875   -2.9667    0.0000 O   0  0  0  0  0  0  0  0  0  0  0  0
    3.5042   -1.3042    0.0000 O   0  0  0  0  0  0  0  0  0  0  0  0
    9.7917   -4.5667    0.0000 C   0  0  0  0  0  0  0  0  0  0  0  0
    8.2375   -2.6417    0.0000 Cl  0  0  0  0  0  0  0  0  0  0  0  0
    2.0667   -2.1375    0.0000 C   0  0  0  0  0  0  0  0  0  0  0  0
    2.0667   -3.7917    0.0000 C   0  0  0  0  0  0  0  0  0  0  0  0
    1.3625   -2.5542    0.0000 C   0  0  0  0  0  0  0  0  0  0  0  0
    1.3625   -3.3792    0.0000 C   0  0  0  0  0  0  0  0  0  0  0  0
  2  1  1  0  0  0  0
  3  1  2  0  0  0  0
  4  1  1  0  0  0  0
  5  2  1  0  0  0  0
  6 15  1  0  0  0  0
  7 11  1  0  0  0  0
  8 10  1  0  0  0  0
  9  7  1  0  0  0  0
 10  3  1  0  0  0  0
 11 13  1  0  0  0  0
 12  4  2  0  0  0  0
 13 12  1  0  0  0  0
 14  9  1  0  0  0  0
 15 25  2  0  0  0  0
 16 14  2  0  0  0  0
 17 20  1  0  0  0  0
 18  4  1  0  0  0  0
 19 18  3  0  0  0  0
 20 13  2  0  0  0  0
 21  9  2  0  0  0  0
 22  6  1  0  0  0  0
 23  6  2  0  0  0  0
 24  5  2  0  0  0  0
 25 21  1  0  0  0  0
 26 14  1  0  0  0  0
 27  8  2  0  0  0  0
 28 10  2  0  0  0  0
 29 30  2  0  0  0  0
 30 28  1  0  0  0  0
  8  5  1  0  0  0  0
 17  7  2  0  0  0  0
 27 29  1  0  0  0  0
 15 16  1  0  0  0  0
M  CHG  2   6   1  22  -1
M  END
> <IDNUMBER>
F1529-0100

> <Chemical_Name>
(2E)-3-[5-(2-chloro-4-nitrophenyl)furan-2-yl]-2-(4-oxo-3,4-dihydroquinazolin-2-yl)prop-2-enenitrile

> <CAS>
627890-83-9

> <PriceCoeff>
1.00

> <MW>
418.79

> <Description>
solid

> <FSP3>
0.00

> <clogP>
3.10

> <TPSA>
121.53

> <Acceptor>
7

> <Donor>
2

> <RotBonds>
4

> <HAC>
30

> <Collection>
General

$$$$
F0509-3783
  -ISIS-  06222321142D

 33 36  0  0  0  0  0  0  0  0999 V2000
    3.0125   -1.7625    0.0000 C   0  0  0  0  0  0  0  0  0  0  0  0
   -0.6583    1.0333    0.0000 N   0  0  3  0  0  0  0  0  0  0  0  0
    3.7792   -1.4875    0.0000 S   0  0  0  0  0  0  0  0  0  0  0  0
    2.2792   -1.3667    0.0000 N   0  0  0  0  0  0  0  0  0  0  0  0
    4.2917   -2.1292    0.0000 C   0  0  0  0  0  0  0  0  0  0  0  0
    3.0500   -2.5875    0.0000 N   0  0  0  0  0  0  0  0  0  0  0  0
    3.8417   -2.8042    0.0000 N   0  0  0  0  0  0  0  0  0  0  0  0
    2.2500   -0.5417    0.0000 C   0  0  0  0  0  0  0  0  0  0  0  0
   -1.4208    0.7000    0.0000 C   0  0  0  0  0  0  0  0  0  0  0  0
   -0.7458    1.8583    0.0000 C   0  0  0  0  0  0  0  0  0  0  0  0
    6.7917   -2.1125    0.0000 N   0  0  0  0  0  0  0  0  0  0  0  0
    0.0542    0.6458    0.0000 C   0  0  0  0  0  0  0  0  0  0  0  0
    6.3792   -1.4042    0.0000 C   0  0  0  0  0  0  0  0  0  0  0  0
    6.4000   -2.8167    0.0000 C   0  0  0  0  0  0  0  0  0  0  0  0
    1.5042   -0.1542    0.0000 C   0  0  0  0  0  0  0  0  0  0  0  0
    5.1292   -2.1167    0.0000 S   0  0  0  0  0  0  0  0  0  0  0  0
    2.9542   -0.1042    0.0000 O   0  0  0  0  0  0  0  0  0  0  0  0
   -1.5583    2.0250    0.0000 C   0  0  0  0  0  0  0  0  0  0  0  0
   -1.9708    1.3333    0.0000 C   0  0  0  0  0  0  0  0  0  0  0  0
   -1.6083   -0.1042    0.0000 O   0  0  0  0  0  0  0  0  0  0  0  0
   -0.1208    2.4208    0.0000 O   0  0  0  0  0  0  0  0  0  0  0  0
    6.8167   -3.5292    0.0000 C   0  0  0  0  0  0  0  0  0  0  0  0
    6.7750   -0.6792    0.0000 O   0  0  0  0  0  0  0  0  0  0  0  0
    0.0875   -0.1792    0.0000 C   0  0  0  0  0  0  0  0  0  0  0  0
    0.7542    1.0750    0.0000 C   0  0  0  0  0  0  0  0  0  0  0  0
    0.7917   -0.5750    0.0000 C   0  0  0  0  0  0  0  0  0  0  0  0
    1.4792    0.6750    0.0000 C   0  0  0  0  0  0  0  0  0  0  0  0
    5.5417   -1.4042    0.0000 C   0  0  0  0  0  0  0  0  0  0  0  0
    7.6417   -3.5167    0.0000 F   0  0  0  0  0  0  0  0  0  0  0  0
    5.5667   -2.8292    0.0000 C   0  0  0  0  0  0  0  0  0  0  0  0
    6.4125   -4.2542    0.0000 C   0  0  0  0  0  0  0  0  0  0  0  0
    5.1625   -3.5542    0.0000 C   0  0  0  0  0  0  0  0  0  0  0  0
    5.5792   -4.2542    0.0000 C   0  0  0  0  0  0  0  0  0  0  0  0
  2 12  1  0  0  0  0
  3  1  1  0  0  0  0
  4  1  1  0  0  0  0
  5  3  1  0  0  0  0
  6  1  2  0  0  0  0
  7  6  1  0  0  0  0
  8  4  1  0  0  0  0
  9  2  1  0  0  0  0
 10  2  1  0  0  0  0
 11 13  1  0  0  0  0
 12 25  1  0  0  0  0
 13 28  1  0  0  0  0
 14 11  1  0  0  0  0
 15  8  1  0  0  0  0
 16  5  1  0  0  0  0
 17  8  2  0  0  0  0
 18 10  1  0  0  0  0
 19  9  1  0  0  0  0
 20  9  2  0  0  0  0
 21 10  2  0  0  0  0
 22 14  2  0  0  0  0
 23 13  2  0  0  0  0
 24 26  1  0  0  0  0
 25 27  2  0  0  0  0
 26 15  2  0  0  0  0
 27 15  1  0  0  0  0
 28 16  1  0  0  0  0
 29 22  1  0  0  0  0
 30 14  1  0  0  0  0
 31 22  1  0  0  0  0
 32 30  2  0  0  0  0
 33 32  1  0  0  0  0
  5  7  2  0  0  0  0
 12 24  2  0  0  0  0
 19 18  1  0  0  0  0
 33 31  2  0  0  0  0
M  END
> <IDNUMBER>
F0509-3783

> <Chemical_Name>
4-(2,5-dioxopyrrolidin-1-yl)-N-[5-({[(2-fluorophenyl)carbamoyl]methyl}sulfanyl)-1,3,4-thiadiazol-2-yl]benzamide

> <CAS>
389073-32-9

> <PriceCoeff>
1.00

> <MW>
485.51

> <Description>
solid

> <FSP3>
0.14

> <clogP>
0.48

> <TPSA>
174.90

> <Acceptor>
6

> <Donor>
2

> <RotBonds>
7

> <HAC>
33

> <Collection>
General

$$$$
F0507-4313
  -ISIS-  06222321452D

 28 30  0  0  0  0  0  0  0  0999 V2000
   -1.7208    2.9833    0.0000 N   0  0  3  0  0  0  0  0  0  0  0  0
   -7.3542    1.8625    0.0000 N   0  3  0  0  0  0  0  0  0  0  0  0
   -6.5875    1.6000    0.0000 C   0  0  0  0  0  0  0  0  0  0  0  0
   -1.0500    2.4958    0.0000 C   0  0  0  0  0  0  0  0  0  0  0  0
   -2.3958    2.4958    0.0000 C   0  0  0  0  0  0  0  0  0  0  0  0
   -1.3083    1.7000    0.0000 N   0  0  0  0  0  0  0  0  0  0  0  0
   -2.1375    1.7000    0.0000 N   0  0  0  0  0  0  0  0  0  0  0  0
   -5.9750    2.1500    0.0000 C   0  0  0  0  0  0  0  0  0  0  0  0
   -4.5833    2.4583    0.0000 C   0  0  0  0  0  0  0  0  0  0  0  0
   -5.1958    1.8958    0.0000 C   0  0  0  0  0  0  0  0  0  0  0  0
   -1.7208    3.8000    0.0000 C   0  0  0  0  0  0  0  0  0  0  0  0
   -3.7958    2.1958    0.0000 N   0  0  0  0  0  0  0  0  0  0  0  0
   -6.4167    0.7958    0.0000 C   0  0  0  0  0  0  0  0  0  0  0  0
   -7.5292    2.6750    0.0000 O   0  5  0  0  0  0  0  0  0  0  0  0
   -3.1750    2.7458    0.0000 C   0  0  0  0  0  0  0  0  0  0  0  0
   -7.9792    1.3125    0.0000 O   0  0  0  0  0  0  0  0  0  0  0  0
   -4.7458    3.2708    0.0000 O   0  0  0  0  0  0  0  0  0  0  0  0
   -0.2708    2.7458    0.0000 S   0  0  0  0  0  0  0  0  0  0  0  0
   -5.0208    1.0833    0.0000 C   0  0  0  0  0  0  0  0  0  0  0  0
   -5.6458    0.5250    0.0000 C   0  0  0  0  0  0  0  0  0  0  0  0
   -2.4375    4.2167    0.0000 C   0  0  0  0  0  0  0  0  0  0  0  0
   -0.9958    4.2125    0.0000 C   0  0  0  0  0  0  0  0  0  0  0  0
   -1.7208    5.4542    0.0000 C   0  0  0  0  0  0  0  0  0  0  0  0
   -7.0292    0.2333    0.0000 Cl  0  0  0  0  0  0  0  0  0  0  0  0
   -2.4333    5.0417    0.0000 C   0  0  0  0  0  0  0  0  0  0  0  0
   -1.0000    5.0292    0.0000 C   0  0  0  0  0  0  0  0  0  0  0  0
   -1.7208    6.2792    0.0000 F   0  0  0  0  0  0  0  0  0  0  0  0
    0.3500    2.1958    0.0000 C   0  0  0  0  0  0  0  0  0  0  0  0
  2  3  1  0  0  0  0
  3  8  1  0  0  0  0
  4  1  1  0  0  0  0
  5  1  1  0  0  0  0
  6  4  2  0  0  0  0
  7  5  2  0  0  0  0
  8 10  2  0  0  0  0
  9 12  1  0  0  0  0
 10  9  1  0  0  0  0
 11  1  1  0  0  0  0
 12 15  1  0  0  0  0
 13 20  1  0  0  0  0
 14  2  1  0  0  0  0
 15  5  1  0  0  0  0
 16  2  2  0  0  0  0
 17  9  2  0  0  0  0
 18  4  1  0  0  0  0
 19 10  1  0  0  0  0
 20 19  2  0  0  0  0
 21 11  1  0  0  0  0
 22 11  2  0  0  0  0
 23 26  2  0  0  0  0
 24 13  1  0  0  0  0
 25 21  2  0  0  0  0
 26 22  1  0  0  0  0
 27 23  1  0  0  0  0
 28 18  1  0  0  0  0
  6  7  1  0  0  0  0
 23 25  1  0  0  0  0
 13  3  2  0  0  0  0
M  CHG  2   2   1  14  -1
M  END
> <IDNUMBER>
F0507-4313

> <Chemical_Name>
4-chloro-N-{[4-(4-fluorophenyl)-5-(methylsulfanyl)-4H-1,2,4-triazol-3-yl]methyl}-3-nitrobenzamide

> <CAS>
391939-06-3

> <PriceCoeff>
1.00

> <MW>
421.83

> <Description>
solid

> <FSP3>
0.12

> <clogP>
3.48

> <TPSA>
128.25

> <Acceptor>
5

> <Donor>
1

> <RotBonds>
6

> <HAC>
28

> <Collection>
General

$$$$
F3385-0968
  -ISIS-  06222321152D

 29 32  0  0  0  0  0  0  0  0999 V2000
    7.4667   -0.5417    0.0000 C   0  0  0  0  0  0  0  0  0  0  0  0
    6.7417   -0.9542    0.0000 C   0  0  0  0  0  0  0  0  0  0  0  0
    6.0250   -0.5417    0.0000 C   0  0  0  0  0  0  0  0  0  0  0  0
    7.4667    0.2875    0.0000 C   0  0  0  0  0  0  0  0  0  0  0  0
    6.0292    0.2875    0.0000 C   0  0  0  0  0  0  0  0  0  0  0  0
    8.1750   -0.9625    0.0000 C   0  0  0  0  0  0  0  0  0  0  0  0
    6.7417    0.7083    0.0000 O   0  0  0  0  0  0  0  0  0  0  0  0
    8.8875   -0.5500    0.0000 C   0  0  0  0  0  0  0  0  0  0  0  0
    5.3125   -0.9542    0.0000 C   0  0  0  0  0  0  0  0  0  0  0  0
    5.3125    0.7000    0.0000 C   0  0  0  0  0  0  0  0  0  0  0  0
    9.6000   -0.9625    0.0000 C   0  0  0  0  0  0  0  0  0  0  0  0
    6.7417   -1.7792    0.0000 O   0  0  0  0  0  0  0  0  0  0  0  0
    9.6000   -1.7917    0.0000 C   0  0  0  0  0  0  0  0  0  0  0  0
    8.1667   -1.7875    0.0000 C   0  0  0  0  0  0  0  0  0  0  0  0
    8.8792   -2.2000    0.0000 C   0  0  0  0  0  0  0  0  0  0  0  0
    4.6000    0.2875    0.0000 C   0  0  0  0  0  0  0  0  0  0  0  0
    3.8875    0.6958    0.0000 O   0  0  0  0  0  0  0  0  0  0  0  0
    4.6000   -0.5417    0.0000 C   0  0  0  0  0  0  0  0  0  0  0  0
    3.1667    0.2833    0.0000 C   0  0  0  0  0  0  0  0  0  0  0  0
   10.3167   -0.5500    0.0000 O   0  0  0  0  0  0  0  0  0  0  0  0
   10.3125   -2.2042    0.0000 O   0  0  0  0  0  0  0  0  0  0  0  0
    2.4542    0.6958    0.0000 C   0  0  0  0  0  0  0  0  0  0  0  0
   10.3125    0.2750    0.0000 C   0  0  0  0  0  0  0  0  0  0  0  0
   11.0292   -1.7917    0.0000 C   0  0  0  0  0  0  0  0  0  0  0  0
    2.4625    1.5250    0.0000 C   0  0  0  0  0  0  0  0  0  0  0  0
    1.7500    0.2833    0.0000 C   0  0  0  0  0  0  0  0  0  0  0  0
    1.0292    0.6958    0.0000 C   0  0  0  0  0  0  0  0  0  0  0  0
    1.7417    1.9333    0.0000 C   0  0  0  0  0  0  0  0  0  0  0  0
    1.0292    1.5208    0.0000 C   0  0  0  0  0  0  0  0  0  0  0  0
  2  1  1  0  0  0  0
  3  2  1  0  0  0  0
  4  1  2  0  0  0  0
  5  7  1  0  0  0  0
  6  1  1  0  0  0  0
  7  4  1  0  0  0  0
  8  6  1  0  0  0  0
  9  3  2  0  0  0  0
 10  5  2  0  0  0  0
 11  8  2  0  0  0  0
 12  2  2  0  0  0  0
 13 15  2  0  0  0  0
 14  6  2  0  0  0  0
 15 14  1  0  0  0  0
 16 10  1  0  0  0  0
 17 16  1  0  0  0  0
 18  9  1  0  0  0  0
 19 17  1  0  0  0  0
 20 11  1  0  0  0  0
 21 13  1  0  0  0  0
 22 19  1  0  0  0  0
 23 20  1  0  0  0  0
 24 21  1  0  0  0  0
 25 22  2  0  0  0  0
 26 22  1  0  0  0  0
 27 26  2  0  0  0  0
 28 25  1  0  0  0  0
 29 27  1  0  0  0  0
  3  5  1  0  0  0  0
 13 11  1  0  0  0  0
 18 16  2  0  0  0  0
 29 28  2  0  0  0  0
M  END
> <IDNUMBER>
F3385-0968

> <Chemical_Name>
7-(benzyloxy)-3-(3,4-dimethoxyphenyl)-4H-chromen-4-one

> <CAS>
54528-40-4

> <PriceCoeff>
1.00

> <MW>
388.41

> <Description>
solid

> <FSP3>
0.12

> <clogP>
4.52

> <TPSA>
53.99

> <Acceptor>
5

> <Donor>
0

> <RotBonds>
6

> <HAC>
29

> <Collection>
General

> <Reference_compound>
CHEMBL44

> <Similarity>
0.8270

$$$$
F3139-1525
  -ISIS-  06222321152D

 28 31  0  0  0  0  0  0  0  0999 V2000
    7.8417   -5.1792    0.0000 C   0  0  0  0  0  0  0  0  0  0  0  0
    7.1292   -5.5917    0.0000 C   0  0  0  0  0  0  0  0  0  0  0  0
    6.4167   -5.1792    0.0000 C   0  0  0  0  0  0  0  0  0  0  0  0
    7.8417   -4.3542    0.0000 C   0  0  0  0  0  0  0  0  0  0  0  0
    6.4167   -4.3542    0.0000 C   0  0  0  0  0  0  0  0  0  0  0  0
    7.1292   -3.9417    0.0000 O   0  0  0  0  0  0  0  0  0  0  0  0
    3.5542   -4.3542    0.0000 C   0  0  0  0  0  0  0  0  0  0  0  0
    5.7042   -3.9417    0.0000 C   0  0  0  0  0  0  0  0  0  0  0  0
    4.2667   -3.9417    0.0000 O   0  0  0  0  0  0  0  0  0  0  0  0
    5.7042   -5.5917    0.0000 C   0  0  0  0  0  0  0  0  0  0  0  0
    2.8292   -3.9500    0.0000 C   0  0  0  0  0  0  0  0  0  0  0  0
    8.5542   -5.5875    0.0000 C   0  0  0  0  0  0  0  0  0  0  0  0
    4.9875   -4.3542    0.0000 C   0  0  0  0  0  0  0  0  0  0  0  0
    7.1292   -6.4167    0.0000 O   0  0  0  0  0  0  0  0  0  0  0  0
    3.5625   -5.1875    0.0000 O   0  0  0  0  0  0  0  0  0  0  0  0
    2.1167   -4.3667    0.0000 C   0  0  0  0  0  0  0  0  0  0  0  0
    2.8292   -3.1250    0.0000 C   0  0  0  0  0  0  0  0  0  0  0  0
    4.9875   -5.1792    0.0000 C   0  0  0  0  0  0  0  0  0  0  0  0
    1.3875   -3.1292    0.0000 C   0  0  0  0  0  0  0  0  0  0  0  0
    2.1167   -2.7125    0.0000 C   0  0  0  0  0  0  0  0  0  0  0  0
    1.3917   -3.9625    0.0000 C   0  0  0  0  0  0  0  0  0  0  0  0
    0.6542   -2.7292    0.0000 O   0  0  0  0  0  0  0  0  0  0  0  0
    8.5542   -6.4167    0.0000 C   0  0  0  0  0  0  0  0  0  0  0  0
    9.2667   -5.1792    0.0000 C   0  0  0  0  0  0  0  0  0  0  0  0
   -0.0625   -3.1625    0.0000 C   0  0  0  0  0  0  0  0  0  0  0  0
    9.9792   -5.5875    0.0000 C   0  0  0  0  0  0  0  0  0  0  0  0
    9.2667   -6.8292    0.0000 C   0  0  0  0  0  0  0  0  0  0  0  0
    9.9875   -6.4167    0.0000 C   0  0  0  0  0  0  0  0  0  0  0  0
  2  1  1  0  0  0  0
  3  2  1  0  0  0  0
  4  1  2  0  0  0  0
  5  6  1  0  0  0  0
  6  4  1  0  0  0  0
  7  9  1  0  0  0  0
  8  5  2  0  0  0  0
  9 13  1  0  0  0  0
 10  3  2  0  0  0  0
 11  7  1  0  0  0  0
 12  1  1  0  0  0  0
 13  8  1  0  0  0  0
 14  2  2  0  0  0  0
 15  7  2  0  0  0  0
 16 11  1  0  0  0  0
 17 11  2  0  0  0  0
 18 10  1  0  0  0  0
 19 20  2  0  0  0  0
 20 17  1  0  0  0  0
 21 16  2  0  0  0  0
 22 19  1  0  0  0  0
 23 12  2  0  0  0  0
 24 12  1  0  0  0  0
 25 22  1  0  0  0  0
 26 24  2  0  0  0  0
 27 23  1  0  0  0  0
 28 26  1  0  0  0  0
  3  5  1  0  0  0  0
 28 27  2  0  0  0  0
 18 13  2  0  0  0  0
 19 21  1  0  0  0  0
M  END
> <IDNUMBER>
F3139-1525

> <Chemical_Name>
4-oxo-3-phenyl-4H-chromen-7-yl 4-methoxybenzoate

> <CAS>
136053-88-8

> <PriceCoeff>
1.00

> <MW>
372.37

> <Description>
solid

> <FSP3>
0.04

> <clogP>
4.82

> <TPSA>
61.83

> <Acceptor>
5

> <Donor>
0

> <RotBonds>
5

> <HAC>
28

> <Collection>
General

> <Reference_compound>
CHEMBL44

> <Similarity>
0.8490

$$$$
F3385-3714
  -ISIS-  06222321152D

 30 33  0  0  0  0  0  0  0  0999 V2000
    7.0500    0.0750    0.0000 C   0  0  0  0  0  0  0  0  0  0  0  0
    6.3250   -0.3375    0.0000 C   0  0  0  0  0  0  0  0  0  0  0  0
    5.6042    0.0750    0.0000 C   0  0  0  0  0  0  0  0  0  0  0  0
    7.0500    0.9083    0.0000 C   0  0  0  0  0  0  0  0  0  0  0  0
    5.6125    0.9083    0.0000 C   0  0  0  0  0  0  0  0  0  0  0  0
    7.7542   -0.3375    0.0000 C   0  0  0  0  0  0  0  0  0  0  0  0
    6.3292    1.3333    0.0000 O   0  0  0  0  0  0  0  0  0  0  0  0
    4.8917    1.3208    0.0000 C   0  0  0  0  0  0  0  0  0  0  0  0
    8.4667    0.0708    0.0000 C   0  0  0  0  0  0  0  0  0  0  0  0
    4.8917   -0.3292    0.0000 C   0  0  0  0  0  0  0  0  0  0  0  0
    9.1792   -0.3417    0.0000 C   0  0  0  0  0  0  0  0  0  0  0  0
    6.3250   -1.1625    0.0000 O   0  0  0  0  0  0  0  0  0  0  0  0
    4.1792    0.9083    0.0000 C   0  0  0  0  0  0  0  0  0  0  0  0
    3.4667    1.3208    0.0000 N   0  0  0  0  0  0  0  0  0  0  0  0
    9.1792   -1.1667    0.0000 C   0  0  0  0  0  0  0  0  0  0  0  0
    7.7542   -1.1667    0.0000 C   0  0  0  0  0  0  0  0  0  0  0  0
    8.4667   -1.5792    0.0000 C   0  0  0  0  0  0  0  0  0  0  0  0
    4.1792    0.0875    0.0000 C   0  0  0  0  0  0  0  0  0  0  0  0
    2.7542    0.9083    0.0000 C   0  0  0  0  0  0  0  0  0  0  0  0
    1.3250    0.0833    0.0000 C   0  0  0  0  0  0  0  0  0  0  0  0
    9.9042    0.0708    0.0000 O   0  0  0  0  0  0  0  0  0  0  0  0
    2.0417    1.3208    0.0000 C   0  0  0  0  0  0  0  0  0  0  0  0
    2.7542    0.0833    0.0000 C   0  0  0  0  0  0  0  0  0  0  0  0
    9.8917   -1.5792    0.0000 O   0  0  0  0  0  0  0  0  0  0  0  0
    1.3250    0.9083    0.0000 C   0  0  0  0  0  0  0  0  0  0  0  0
    2.0417   -0.3292    0.0000 C   0  0  0  0  0  0  0  0  0  0  0  0
    0.6042   -0.3292    0.0000 O   0  0  0  0  0  0  0  0  0  0  0  0
    9.9000    0.8958    0.0000 C   0  0  0  0  0  0  0  0  0  0  0  0
   10.6125   -1.1667    0.0000 C   0  0  0  0  0  0  0  0  0  0  0  0
    0.6042   -1.1542    0.0000 C   0  0  0  0  0  0  0  0  0  0  0  0
  2  1  1  0  0  0  0
  3  2  1  0  0  0  0
  4  1  2  0  0  0  0
  5  7  1  0  0  0  0
  6  1  1  0  0  0  0
  7  4  1  0  0  0  0
  8  5  2  0  0  0  0
  9  6  1  0  0  0  0
 10  3  2  0  0  0  0
 11  9  2  0  0  0  0
 12  2  2  0  0  0  0
 13  8  1  0  0  0  0
 14 13  1  0  0  0  0
 15 17  2  0  0  0  0
 16  6  2  0  0  0  0
 17 16  1  0  0  0  0
 18 10  1  0  0  0  0
 19 14  1  0  0  0  0
 20 26  1  0  0  0  0
 21 11  1  0  0  0  0
 22 19  2  0  0  0  0
 23 19  1  0  0  0  0
 24 15  1  0  0  0  0
 25 22  1  0  0  0  0
 26 23  2  0  0  0  0
 27 20  1  0  0  0  0
 28 21  1  0  0  0  0
 29 24  1  0  0  0  0
 30 27  1  0  0  0  0
  5  3  1  0  0  0  0
 15 11  1  0  0  0  0
 13 18  2  0  0  0  0
 25 20  2  0  0  0  0
M  END
> <IDNUMBER>
F3385-3714

> <Chemical_Name>
3-(3,4-dimethoxyphenyl)-7-[(4-methoxyphenyl)amino]-4H-chromen-4-one

> <CAS>
859672-25-6

> <PriceCoeff>
1.00

> <MW>
403.43

> <Description>
solid

> <FSP3>
0.12

> <clogP>
4.51

> <TPSA>
66.02

> <Acceptor>
6

> <Donor>
1

> <RotBonds>
6

> <HAC>
30

> <Collection>
General

> <Reference_compound>
CHEMBL455048

> <Similarity>
0.8340

$$$$
F2784-0548
  -ISIS-  06222321462D

 27 29  0  0  0  0  0  0  0  0999 V2000
   -5.1583    1.2958    0.0000 N   0  3  0  0  0  0  0  0  0  0  0  0
   -4.4583    1.7333    0.0000 C   0  0  0  0  0  0  0  0  0  0  0  0
   -1.6125    6.6792    0.0000 N   0  0  3  0  0  0  0  0  0  0  0  0
   -2.3250    6.2667    0.0000 C   0  0  0  0  0  0  0  0  0  0  0  0
   -3.7583    3.8000    0.0000 C   0  0  0  0  0  0  0  0  0  0  0  0
   -4.4583    2.5458    0.0000 C   0  0  0  0  0  0  0  0  0  0  0  0
   -1.6125    7.5167    0.0000 C   0  0  0  0  0  0  0  0  0  0  0  0
   -3.7625    2.9833    0.0000 C   0  0  0  0  0  0  0  0  0  0  0  0
   -3.0458    4.2125    0.0000 N   0  0  0  0  0  0  0  0  0  0  0  0
   -2.3250    5.4417    0.0000 C   0  0  0  0  0  0  0  0  0  0  0  0
   -3.7250    1.3333    0.0000 C   0  0  0  0  0  0  0  0  0  0  0  0
   -5.1458    0.4708    0.0000 O   0  5  0  0  0  0  0  0  0  0  0  0
   -5.8833    1.7125    0.0000 O   0  0  0  0  0  0  0  0  0  0  0  0
   -3.0458    5.0292    0.0000 C   0  0  0  0  0  0  0  0  0  0  0  0
   -3.0458    6.6792    0.0000 C   0  0  0  0  0  0  0  0  0  0  0  0
   -4.4833    4.2042    0.0000 O   0  0  0  0  0  0  0  0  0  0  0  0
   -2.3250    7.9292    0.0000 O   0  0  0  0  0  0  0  0  0  0  0  0
   -3.0333    2.5708    0.0000 C   0  0  0  0  0  0  0  0  0  0  0  0
   -3.0125    1.7583    0.0000 C   0  0  0  0  0  0  0  0  0  0  0  0
   -3.7583    6.2750    0.0000 C   0  0  0  0  0  0  0  0  0  0  0  0
   -0.8958    6.2792    0.0000 C   0  0  0  0  0  0  0  0  0  0  0  0
   -3.7583    5.4500    0.0000 C   0  0  0  0  0  0  0  0  0  0  0  0
   -3.7208    0.4875    0.0000 Cl  0  0  0  0  0  0  0  0  0  0  0  0
   -0.8958    7.9250    0.0000 C   0  0  0  0  0  0  0  0  0  0  0  0
   -3.0375    7.5125    0.0000 C   0  0  0  0  0  0  0  0  0  0  0  0
   -0.1833    6.6917    0.0000 C   0  0  0  0  0  0  0  0  0  0  0  0
   -0.1833    7.5042    0.0000 C   0  0  0  0  0  0  0  0  0  0  0  0
  2  1  1  0  0  0  0
  3  4  1  0  0  0  0
  4 10  2  0  0  0  0
  5  8  1  0  0  0  0
  6  2  1  0  0  0  0
  7  3  1  0  0  0  0
  8  6  2  0  0  0  0
  9  5  1  0  0  0  0
 10 14  1  0  0  0  0
 11  2  2  0  0  0  0
 12  1  1  0  0  0  0
 13  1  2  0  0  0  0
 14  9  1  0  0  0  0
 15 20  2  0  0  0  0
 16  5  2  0  0  0  0
 17  7  2  0  0  0  0
 18 19  2  0  0  0  0
 19 11  1  0  0  0  0
 20 22  1  0  0  0  0
 21  3  1  0  0  0  0
 22 14  2  0  0  0  0
 23 11  1  0  0  0  0
 24  7  1  0  0  0  0
 25 15  1  0  0  0  0
 26 21  1  0  0  0  0
 27 26  1  0  0  0  0
 18  8  1  0  0  0  0
 15  4  1  0  0  0  0
 27 24  1  0  0  0  0
M  CHG  2   1   1  12  -1
M  END
> <IDNUMBER>
F2784-0548

> <Chemical_Name>
4-chloro-N-[4-methyl-3-(2-oxopiperidin-1-yl)phenyl]-3-nitrobenzamide

> <CAS>
922931-97-3

> <PriceCoeff>
1.00

> <MW>
387.82

> <Description>
solid

> <FSP3>
0.26

> <clogP>
4.08

> <TPSA>
92.55

> <Acceptor>
4

> <Donor>
1

> <RotBonds>
4

> <HAC>
27

> <Collection>
General

$$$$
F0779-0458
  -ISIS-  06222321142D

 31 36  0  0  0  0  0  0  0  0999 V2000
    0.6875   -0.0500    0.0000 C   0  0  0  0  0  0  0  0  0  0  0  0
    4.3542    0.5833    0.0000 N   0  0  3  0  0  0  0  0  0  0  0  0
    0.3042    0.4625    0.0000 N   0  0  0  0  0  0  0  0  0  0  0  0
   -0.3458    0.2500    0.0000 C   0  0  0  0  0  0  0  0  0  0  0  0
    1.3542   -0.0500    0.0000 N   0  0  0  0  0  0  0  0  0  0  0  0
   -0.3000   -0.4292    0.0000 C   0  0  0  0  0  0  0  0  0  0  0  0
    0.3542   -0.6000    0.0000 S   0  0  0  0  0  0  0  0  0  0  0  0
   -0.9458    0.5458    0.0000 C   0  0  0  0  0  0  0  0  0  0  0  0
   -1.4625   -0.4875    0.0000 C   0  0  0  0  0  0  0  0  0  0  0  0
    1.6542    0.5333    0.0000 C   0  0  0  0  0  0  0  0  0  0  0  0
    4.7667    0.0708    0.0000 C   0  0  0  0  0  0  0  0  0  0  0  0
    4.7667    1.1125    0.0000 C   0  0  0  0  0  0  0  0  0  0  0  0
   -1.5208    0.1958    0.0000 C   0  0  0  0  0  0  0  0  0  0  0  0
   -0.8708   -0.7875    0.0000 C   0  0  0  0  0  0  0  0  0  0  0  0
    3.6875    0.5958    0.0000 C   0  0  0  0  0  0  0  0  0  0  0  0
    2.3500    0.5708    0.0000 C   0  0  0  0  0  0  0  0  0  0  0  0
   -2.1125    0.4958    0.0000 C   0  0  0  0  0  0  0  0  0  0  0  0
   -2.1208   -0.7167    0.0000 C   0  0  0  0  0  0  0  0  0  0  0  0
    1.3167    1.1208    0.0000 O   0  0  0  0  0  0  0  0  0  0  0  0
    5.3667    0.2625    0.0000 C   0  0  0  0  0  0  0  0  0  0  0  0
    5.4000    0.9000    0.0000 C   0  0  0  0  0  0  0  0  0  0  0  0
    4.5542   -0.6292    0.0000 O   0  0  0  0  0  0  0  0  0  0  0  0
    4.5667    1.7958    0.0000 O   0  0  0  0  0  0  0  0  0  0  0  0
    3.3667    0.0333    0.0000 C   0  0  0  0  0  0  0  0  0  0  0  0
    3.3292    1.1833    0.0000 C   0  0  0  0  0  0  0  0  0  0  0  0
   -2.5958    0.0208    0.0000 C   0  0  0  0  0  0  0  0  0  0  0  0
    2.7000   -0.0000    0.0000 C   0  0  0  0  0  0  0  0  0  0  0  0
    2.6542    1.1625    0.0000 C   0  0  0  0  0  0  0  0  0  0  0  0
   -0.9833    1.1958    0.0000 C   0  0  0  0  0  0  0  0  0  0  0  0
   -1.5708    1.5125    0.0000 C   0  0  0  0  0  0  0  0  0  0  0  0
   -2.1708    1.1625    0.0000 C   0  0  0  0  0  0  0  0  0  0  0  0
  2 15  1  0  0  0  0
  3  1  2  0  0  0  0
  4  3  1  0  0  0  0
  5  1  1  0  0  0  0
  6  7  1  0  0  0  0
  7  1  1  0  0  0  0
  8  4  1  0  0  0  0
  9 14  2  0  0  0  0
 10  5  1  0  0  0  0
 11  2  1  0  0  0  0
 12  2  1  0  0  0  0
 13  8  2  0  0  0  0
 14  6  1  0  0  0  0
 15 25  2  0  0  0  0
 16 10  1  0  0  0  0
 17 13  1  0  0  0  0
 18  9  1  0  0  0  0
 19 10  2  0  0  0  0
 20 11  1  0  0  0  0
 21 12  1  0  0  0  0
 22 11  2  0  0  0  0
 23 12  2  0  0  0  0
 24 27  2  0  0  0  0
 25 28  1  0  0  0  0
 26 18  1  0  0  0  0
 27 16  1  0  0  0  0
 28 16  2  0  0  0  0
 29  8  1  0  0  0  0
 30 29  2  0  0  0  0
 31 30  1  0  0  0  0
  6  4  2  0  0  0  0
  9 13  1  0  0  0  0
 24 15  1  0  0  0  0
 26 17  1  0  0  0  0
 17 31  2  0  0  0  0
 20 21  1  0  0  0  0
M  END
> <IDNUMBER>
F0779-0458

> <Chemical_Name>
4-(2,5-dioxopyrrolidin-1-yl)-N-{5-thia-3-azatetracyclo[6.6.1.0^{2,6}.0^{11,15}]pentadeca-1(15),2(6),3,7,11,13-hexaen-4-yl}benzamide

> <CAS>
477325-96-5

> <PriceCoeff>
1.00

> <MW>
427.48

> <Description>
solid

> <FSP3>
0.17

> <clogP>
3.25

> <TPSA>
107.61

> <Acceptor>
4

> <Donor>
1

> <RotBonds>
3

> <HAC>
31

> <Collection>
General

$$$$
F3139-1241
  -ISIS-  06222321462D

 28 31  0  0  0  0  0  0  0  0999 V2000
    4.8500   -2.3000    0.0000 C   0  0  0  0  0  0  0  0  0  0  0  0
    4.1250   -2.7125    0.0000 C   0  0  0  0  0  0  0  0  0  0  0  0
    3.4042   -2.3000    0.0000 C   0  0  0  0  0  0  0  0  0  0  0  0
    0.5500   -1.4625    0.0000 C   0  0  0  0  0  0  0  0  0  0  0  0
    4.8500   -1.4667    0.0000 C   0  0  0  0  0  0  0  0  0  0  0  0
   -0.1625   -1.0500    0.0000 C   0  0  0  0  0  0  0  0  0  0  0  0
    3.4125   -1.4667    0.0000 C   0  0  0  0  0  0  0  0  0  0  0  0
    4.1292   -1.0417    0.0000 O   0  0  0  0  0  0  0  0  0  0  0  0
    1.2667   -1.0542    0.0000 O   0  0  0  0  0  0  0  0  0  0  0  0
    2.6917   -1.0542    0.0000 C   0  0  0  0  0  0  0  0  0  0  0  0
    2.6917   -2.7042    0.0000 C   0  0  0  0  0  0  0  0  0  0  0  0
    5.5625   -2.7167    0.0000 C   0  0  0  0  0  0  0  0  0  0  0  0
    1.9792   -1.4667    0.0000 C   0  0  0  0  0  0  0  0  0  0  0  0
    4.1250   -3.5375    0.0000 O   0  0  0  0  0  0  0  0  0  0  0  0
   -0.1583   -0.2167    0.0000 C   0  0  0  0  0  0  0  0  0  0  0  0
    0.5500   -2.2875    0.0000 O   0  0  0  0  0  0  0  0  0  0  0  0
    1.9792   -2.2917    0.0000 C   0  0  0  0  0  0  0  0  0  0  0  0
   -0.8708   -1.4625    0.0000 C   0  0  0  0  0  0  0  0  0  0  0  0
    0.5625    0.1833    0.0000 O   0  0  0  0  0  0  0  0  0  0  0  0
    5.5542   -3.5417    0.0000 C   0  0  0  0  0  0  0  0  0  0  0  0
    6.2667   -2.3042    0.0000 C   0  0  0  0  0  0  0  0  0  0  0  0
   -0.8708    0.1875    0.0000 C   0  0  0  0  0  0  0  0  0  0  0  0
    0.5625    1.0083    0.0000 C   0  0  0  0  0  0  0  0  0  0  0  0
   -1.5875   -1.0542    0.0000 C   0  0  0  0  0  0  0  0  0  0  0  0
    6.9792   -2.7167    0.0000 C   0  0  0  0  0  0  0  0  0  0  0  0
   -1.5875   -0.2167    0.0000 C   0  0  0  0  0  0  0  0  0  0  0  0
    6.2667   -3.9542    0.0000 C   0  0  0  0  0  0  0  0  0  0  0  0
    6.9792   -3.5417    0.0000 C   0  0  0  0  0  0  0  0  0  0  0  0
  2  1  1  0  0  0  0
  3  2  1  0  0  0  0
  4  9  1  0  0  0  0
  5  1  2  0  0  0  0
  6  4  1  0  0  0  0
  7  8  1  0  0  0  0
  8  5  1  0  0  0  0
  9 13  1  0  0  0  0
 10  7  2  0  0  0  0
 11  3  2  0  0  0  0
 12  1  1  0  0  0  0
 13 10  1  0  0  0  0
 14  2  2  0  0  0  0
 15  6  2  0  0  0  0
 16  4  2  0  0  0  0
 17 11  1  0  0  0  0
 18  6  1  0  0  0  0
 19 15  1  0  0  0  0
 20 12  2  0  0  0  0
 21 12  1  0  0  0  0
 22 15  1  0  0  0  0
 23 19  1  0  0  0  0
 24 18  2  0  0  0  0
 25 21  2  0  0  0  0
 26 24  1  0  0  0  0
 27 20  1  0  0  0  0
 28 25  1  0  0  0  0
  3  7  1  0  0  0  0
 28 27  2  0  0  0  0
 17 13  2  0  0  0  0
 26 22  2  0  0  0  0
M  END
> <IDNUMBER>
F3139-1241

> <Chemical_Name>
4-oxo-3-phenyl-4H-chromen-7-yl 2-methoxybenzoate

> <CAS>
449740-15-2

> <PriceCoeff>
1.00

> <MW>
372.37

> <Description>
solid

> <FSP3>
0.04

> <clogP>
4.58

> <TPSA>
61.83

> <Acceptor>
5

> <Donor>
0

> <RotBonds>
5

> <HAC>
28

> <Collection>
General

> <Reference_compound>
CHEMBL44

> <Similarity>
0.8230

$$$$
F1750-0122
  -ISIS-  06222321442D

 34 37  0  0  0  0  0  0  0  0999 V2000
   -1.0083    3.0833    0.0000 S   0  0  3  0  0  0  0  0  0  0  0  0
    3.2625   -1.8792    0.0000 N   0  0  3  0  0  0  0  0  0  0  0  0
   -1.7250    3.4958    0.0000 N   0  0  0  0  0  0  0  0  0  0  0  0
   -2.4375    3.0833    0.0000 C   0  0  0  0  0  0  0  0  0  0  0  0
    3.2667   -1.0500    0.0000 C   0  0  0  0  0  0  0  0  0  0  0  0
    3.9042   -2.3917    0.0000 C   0  0  0  0  0  0  0  0  0  0  0  0
    2.5625   -2.3292    0.0000 C   0  0  0  0  0  0  0  0  0  0  0  0
    1.8417    0.6000    0.0000 C   0  0  0  0  0  0  0  0  0  0  0  0
   -2.4375    2.2458    0.0000 N   0  0  0  0  0  0  0  0  0  0  0  0
   -3.1583    3.4875    0.0000 N   0  0  0  0  0  0  0  0  0  0  0  0
   -0.2958    2.6708    0.0000 C   0  0  0  0  0  0  0  0  0  0  0  0
    1.8417    1.4250    0.0000 N   0  0  0  0  0  0  0  0  0  0  0  0
    2.5542   -0.6292    0.0000 C   0  0  0  0  0  0  0  0  0  0  0  0
    2.5542    0.1875    0.0000 C   0  0  0  0  0  0  0  0  0  0  0  0
   -0.6083    3.8000    0.0000 O   0  0  0  0  0  0  0  0  0  0  0  0
   -1.4333    2.3708    0.0000 O   0  0  0  0  0  0  0  0  0  0  0  0
   -3.1583    1.8333    0.0000 C   0  0  0  0  0  0  0  0  0  0  0  0
   -3.8708    3.0833    0.0000 C   0  0  0  0  0  0  0  0  0  0  0  0
    1.1250    0.1958    0.0000 O   0  0  0  0  0  0  0  0  0  0  0  0
    3.6167   -3.1667    0.0000 C   0  0  0  0  0  0  0  0  0  0  0  0
    2.7917   -3.1417    0.0000 C   0  0  0  0  0  0  0  0  0  0  0  0
   -3.8708    2.2458    0.0000 C   0  0  0  0  0  0  0  0  0  0  0  0
    4.7000   -2.1917    0.0000 O   0  0  0  0  0  0  0  0  0  0  0  0
    1.7917   -2.0417    0.0000 O   0  0  0  0  0  0  0  0  0  0  0  0
   -0.3083    1.8458    0.0000 C   0  0  0  0  0  0  0  0  0  0  0  0
    0.4125    3.0833    0.0000 C   0  0  0  0  0  0  0  0  0  0  0  0
    1.1250    1.8458    0.0000 C   0  0  0  0  0  0  0  0  0  0  0  0
    1.1250    2.6708    0.0000 C   0  0  0  0  0  0  0  0  0  0  0  0
    0.4042    1.4333    0.0000 C   0  0  0  0  0  0  0  0  0  0  0  0
    3.9792   -0.6500    0.0000 C   0  0  0  0  0  0  0  0  0  0  0  0
    3.2750    0.6000    0.0000 C   0  0  0  0  0  0  0  0  0  0  0  0
    3.9875    0.1833    0.0000 C   0  0  0  0  0  0  0  0  0  0  0  0
   -4.5833    3.4875    0.0000 C   0  0  0  0  0  0  0  0  0  0  0  0
   -3.1583    1.0083    0.0000 C   0  0  0  0  0  0  0  0  0  0  0  0
  2  5  1  0  0  0  0
  3  1  1  0  0  0  0
  4  3  1  0  0  0  0
  5 13  1  0  0  0  0
  6  2  1  0  0  0  0
  7  2  1  0  0  0  0
  8 12  1  0  0  0  0
  9  4  1  0  0  0  0
 10  4  2  0  0  0  0
 11  1  1  0  0  0  0
 12 27  1  0  0  0  0
 13 14  2  0  0  0  0
 14  8  1  0  0  0  0
 15  1  2  0  0  0  0
 16  1  2  0  0  0  0
 17  9  2  0  0  0  0
 18 10  1  0  0  0  0
 19  8  2  0  0  0  0
 20  6  1  0  0  0  0
 21  7  1  0  0  0  0
 22 18  2  0  0  0  0
 23  6  2  0  0  0  0
 24  7  2  0  0  0  0
 25 11  2  0  0  0  0
 26 11  1  0  0  0  0
 27 28  1  0  0  0  0
 28 26  2  0  0  0  0
 29 25  1  0  0  0  0
 30 32  1  0  0  0  0
 31 14  1  0  0  0  0
 32 31  2  0  0  0  0
 33 18  1  0  0  0  0
 34 17  1  0  0  0  0
 27 29  2  0  0  0  0
 22 17  1  0  0  0  0
  5 30  2  0  0  0  0
 21 20  1  0  0  0  0
M  END
> <IDNUMBER>
F1750-0122

> <Chemical_Name>
N-{4-[(4,6-dimethylpyrimidin-2-yl)sulfamoyl]phenyl}-3-(2,5-dioxopyrrolidin-1-yl)benzamide

> <CAS>
457651-00-2

> <PriceCoeff>
1.00

> <MW>
479.51

> <Description>
solid

> <FSP3>
0.17

> <clogP>
0.95

> <TPSA>
146.81

> <Acceptor>
7

> <Donor>
2

> <RotBonds>
6

> <HAC>
34

> <Collection>
General

$$$$
F1008-0085
  -ISIS-  06222321452D

 31 35  0  0  0  0  0  0  0  0999 V2000
   -3.2833   -1.1042    0.0000 C   0  0  0  0  0  0  0  0  0  0  0  0
   -2.8833   -1.5875    0.0000 C   0  0  0  0  0  0  0  0  0  0  0  0
   -2.4833   -0.4292    0.0000 N   0  0  3  0  0  0  0  0  0  0  0  0
   -2.0625   -0.8875    0.0000 C   0  0  0  0  0  0  0  0  0  0  0  0
   -2.2833   -1.4667    0.0000 N   0  0  0  0  0  0  0  0  0  0  0  0
   -3.0833   -0.5500    0.0000 C   0  0  0  0  0  0  0  0  0  0  0  0
   -3.2000   -2.1042    0.0000 S   0  0  0  0  0  0  0  0  0  0  0  0
   -3.8458   -1.3667    0.0000 C   0  0  0  0  0  0  0  0  0  0  0  0
   -3.7833   -1.9667    0.0000 C   0  0  0  0  0  0  0  0  0  0  0  0
   -1.4458   -0.7875    0.0000 S   0  0  0  0  0  0  0  0  0  0  0  0
   -2.2833    0.1708    0.0000 C   0  0  0  0  0  0  0  0  0  0  0  0
   -3.4833   -0.0667    0.0000 O   0  0  0  0  0  0  0  0  0  0  0  0
   -0.6000   -0.1042    0.0000 C   0  0  0  0  0  0  0  0  0  0  0  0
   -1.2208   -0.2042    0.0000 C   0  0  0  0  0  0  0  0  0  0  0  0
   -0.2208   -0.5875    0.0000 O   0  0  0  0  0  0  0  0  0  0  0  0
   -0.3833    0.4958    0.0000 C   0  0  0  0  0  0  0  0  0  0  0  0
   -2.7000    0.6125    0.0000 C   0  0  0  0  0  0  0  0  0  0  0  0
   -1.6833    0.2958    0.0000 C   0  0  0  0  0  0  0  0  0  0  0  0
   -4.4083   -1.1042    0.0000 C   0  0  0  0  0  0  0  0  0  0  0  0
   -1.5000    0.8708    0.0000 C   0  0  0  0  0  0  0  0  0  0  0  0
   -2.5208    1.1958    0.0000 C   0  0  0  0  0  0  0  0  0  0  0  0
   -1.9208    1.3125    0.0000 C   0  0  0  0  0  0  0  0  0  0  0  0
   -4.2833   -2.3292    0.0000 C   0  0  0  0  0  0  0  0  0  0  0  0
    0.2375    0.5958    0.0000 C   0  0  0  0  0  0  0  0  0  0  0  0
   -0.7625    0.9708    0.0000 C   0  0  0  0  0  0  0  0  0  0  0  0
   -1.7458    1.9125    0.0000 C   0  0  0  0  0  0  0  0  0  0  0  0
   -4.9083   -1.4500    0.0000 C   0  0  0  0  0  0  0  0  0  0  0  0
   -4.8458   -2.0875    0.0000 C   0  0  0  0  0  0  0  0  0  0  0  0
   -0.5458    1.5333    0.0000 C   0  0  0  0  0  0  0  0  0  0  0  0
    0.4792    1.1708    0.0000 C   0  0  0  0  0  0  0  0  0  0  0  0
    0.0792    1.6500    0.0000 C   0  0  0  0  0  0  0  0  0  0  0  0
  2  1  2  0  0  0  0
  3  6  1  0  0  0  0
  4  3  1  0  0  0  0
  5  2  1  0  0  0  0
  6  1  1  0  0  0  0
  7  2  1  0  0  0  0
  8  1  1  0  0  0  0
  9  8  2  0  0  0  0
 10  4  1  0  0  0  0
 11  3  1  0  0  0  0
 12  6  2  0  0  0  0
 13 14  1  0  0  0  0
 14 10  1  0  0  0  0
 15 13  2  0  0  0  0
 16 13  1  0  0  0  0
 17 11  2  0  0  0  0
 18 11  1  0  0  0  0
 19  8  1  0  0  0  0
 20 18  2  0  0  0  0
 21 17  1  0  0  0  0
 22 20  1  0  0  0  0
 23  9  1  0  0  0  0
 24 16  1  0  0  0  0
 25 16  2  0  0  0  0
 26 22  1  0  0  0  0
 27 19  1  0  0  0  0
 28 27  1  0  0  0  0
 29 25  1  0  0  0  0
 30 24  2  0  0  0  0
 31 29  2  0  0  0  0
  7  9  1  0  0  0  0
  4  5  2  0  0  0  0
 28 23  1  0  0  0  0
 21 22  2  0  0  0  0
 30 31  1  0  0  0  0
M  END
> <IDNUMBER>
F1008-0085

> <Chemical_Name>
4-(4-methylphenyl)-5-[(2-oxo-2-phenylethyl)sulfanyl]-8-thia-4,6-diazatricyclo[7.4.0.0^{2,7}]trideca-1(9),2(7),5-trien-3-one

> <CAS>
332393-05-2

> <PriceCoeff>
1.00

> <MW>
446.58

> <Description>
solid

> <FSP3>
0.24

> <clogP>
6.60

> <TPSA>
103.28

> <Acceptor>
3

> <Donor>
0

> <RotBonds>
5

> <HAC>
31

> <Collection>
General

> <Reference_compound>
CHEMBL577016

> <Similarity>
0.8380

$$$$
F2224-0100
  -ISIS-  06222321142D

 32 35  0  0  0  0  0  0  0  0999 V2000
   -7.4167    2.1500    0.0000 N   0  0  3  0  0  0  0  0  0  0  0  0
   -8.1292    2.5625    0.0000 C   0  0  0  0  0  0  0  0  0  0  0  0
   -8.1292    0.9125    0.0000 N   0  0  0  0  0  0  0  0  0  0  0  0
   -7.4167    1.3250    0.0000 C   0  0  0  0  0  0  0  0  0  0  0  0
   -8.8417    2.1458    0.0000 C   0  0  0  0  0  0  0  0  0  0  0  0
   -1.0208    3.3833    0.0000 N   0  3  0  0  0  0  0  0  0  0  0  0
   -8.8417    1.3208    0.0000 C   0  0  0  0  0  0  0  0  0  0  0  0
   -1.7333    3.7958    0.0000 C   0  0  0  0  0  0  0  0  0  0  0  0
   -6.7042    2.5625    0.0000 C   0  0  0  0  0  0  0  0  0  0  0  0
   -3.8625    3.3958    0.0000 C   0  0  0  0  0  0  0  0  0  0  0  0
   -2.4500    3.3958    0.0000 C   0  0  0  0  0  0  0  0  0  0  0  0
   -4.5833    3.8000    0.0000 N   0  0  0  0  0  0  0  0  0  0  0  0
   -3.1583    3.8000    0.0000 C   0  0  0  0  0  0  0  0  0  0  0  0
   -5.2958    3.3958    0.0000 C   0  0  0  0  0  0  0  0  0  0  0  0
   -6.7125    3.3833    0.0000 C   0  0  0  0  0  0  0  0  0  0  0  0
   -1.7333    4.6167    0.0000 C   0  0  0  0  0  0  0  0  0  0  0  0
   -9.5542    0.9125    0.0000 N   0  0  0  0  0  0  0  0  0  0  0  0
   -6.0000    3.8000    0.0000 C   0  0  0  0  0  0  0  0  0  0  0  0
   -8.1417    3.3958    0.0000 O   0  0  0  0  0  0  0  0  0  0  0  0
   -1.0208    2.5583    0.0000 O   0  5  0  0  0  0  0  0  0  0  0  0
   -0.3083    3.7958    0.0000 O   0  0  0  0  0  0  0  0  0  0  0  0
   -6.0000    2.1500    0.0000 C   0  0  0  0  0  0  0  0  0  0  0  0
   -3.8625    2.5625    0.0000 O   0  0  0  0  0  0  0  0  0  0  0  0
   -5.2875    2.5625    0.0000 C   0  0  0  0  0  0  0  0  0  0  0  0
   -3.1625    4.6042    0.0000 C   0  0  0  0  0  0  0  0  0  0  0  0
   -2.4500    5.0250    0.0000 C   0  0  0  0  0  0  0  0  0  0  0  0
   -6.7042    0.9125    0.0000 C   0  0  0  0  0  0  0  0  0  0  0  0
   -1.0208    5.0292    0.0000 Cl  0  0  0  0  0  0  0  0  0  0  0  0
   -9.5625    2.5625    0.0000 C   0  0  0  0  0  0  0  0  0  0  0  0
  -10.2667    1.3125    0.0000 C   0  0  0  0  0  0  0  0  0  0  0  0
   -6.0000    4.6167    0.0000 C   0  0  0  0  0  0  0  0  0  0  0  0
  -10.2667    2.1458    0.0000 C   0  0  0  0  0  0  0  0  0  0  0  0
  2  1  1  0  0  0  0
  3  4  2  0  0  0  0
  4  1  1  0  0  0  0
  5  2  1  0  0  0  0
  6  8  1  0  0  0  0
  7  3  1  0  0  0  0
  8 11  1  0  0  0  0
  9  1  1  0  0  0  0
 10 12  1  0  0  0  0
 11 13  2  0  0  0  0
 12 14  1  0  0  0  0
 13 10  1  0  0  0  0
 14 24  2  0  0  0  0
 15  9  1  0  0  0  0
 16 26  1  0  0  0  0
 17  7  1  0  0  0  0
 18 15  2  0  0  0  0
 19  2  2  0  0  0  0
 20  6  1  0  0  0  0
 21  6  2  0  0  0  0
 22  9  2  0  0  0  0
 23 10  2  0  0  0  0
 24 22  1  0  0  0  0
 25 13  1  0  0  0  0
 26 25  2  0  0  0  0
 27  4  1  0  0  0  0
 28 16  1  0  0  0  0
 29  5  1  0  0  0  0
 30 17  2  0  0  0  0
 31 18  1  0  0  0  0
 32 29  2  0  0  0  0
 14 18  1  0  0  0  0
  5  7  2  0  0  0  0
 32 30  1  0  0  0  0
  8 16  2  0  0  0  0
M  CHG  2   6   1  20  -1
M  END
> <IDNUMBER>
F2224-0100

> <Chemical_Name>
4-chloro-N-(2-methyl-4-{2-methyl-4-oxo-3H,4H-pyrido[2,3-d]pyrimidin-3-yl}phenyl)-3-nitrobenzamide

> <CAS>
1005298-05-4

> <PriceCoeff>
1.00

> <MW>
449.85

> <Description>
solid

> <FSP3>
0.09

> <clogP>
3.26

> <TPSA>
117.80

> <Acceptor>
6

> <Donor>
2

> <RotBonds>
4

> <HAC>
32

> <Collection>
General

$$$$
F3222-2361
  -ISIS-  06222321152D

 38 43  0  0  0  0  0  0  0  0999 V2000
    6.4542   -7.7875    0.0000 C   0  0  0  0  0  0  0  0  0  0  0  0
    6.4542   -8.6167    0.0000 C   0  0  0  0  0  0  0  0  0  0  0  0
    5.0292   -7.7875    0.0000 N   0  0  3  0  0  0  0  0  0  0  0  0
    5.0292   -8.6167    0.0000 C   0  0  0  0  0  0  0  0  0  0  0  0
    5.7417   -9.0292    0.0000 N   0  0  0  0  0  0  0  0  0  0  0  0
    5.7417   -7.3750    0.0000 C   0  0  0  0  0  0  0  0  0  0  0  0
    7.2417   -7.5292    0.0000 C   0  0  0  0  0  0  0  0  0  0  0  0
    7.7250   -8.2000    0.0000 C   0  0  0  0  0  0  0  0  0  0  0  0
    7.2417   -8.8667    0.0000 S   0  0  0  0  0  0  0  0  0  0  0  0
    2.8792   -9.8542    0.0000 N   0  0  3  0  0  0  0  0  0  0  0  0
    8.8792   -7.3542    0.0000 N   0  0  3  0  0  0  0  0  0  0  0  0
    2.1667  -10.2667    0.0000 C   0  0  0  0  0  0  0  0  0  0  0  0
    2.8792   -9.0292    0.0000 C   0  0  0  0  0  0  0  0  0  0  0  0
    8.5417   -8.1125    0.0000 C   0  0  0  0  0  0  0  0  0  0  0  0
    4.3125   -9.0292    0.0000 S   0  0  0  0  0  0  0  0  0  0  0  0
    9.7042   -7.2667    0.0000 C   0  0  0  0  0  0  0  0  0  0  0  0
    7.5792   -6.7792    0.0000 C   0  0  0  0  0  0  0  0  0  0  0  0
    2.1667  -11.0917    0.0000 C   0  0  0  0  0  0  0  0  0  0  0  0
    4.3167   -7.3750    0.0000 C   0  0  0  0  0  0  0  0  0  0  0  0
    5.7417   -6.5500    0.0000 O   0  0  0  0  0  0  0  0  0  0  0  0
    8.4000   -6.6917    0.0000 C   0  0  0  0  0  0  0  0  0  0  0  0
    1.4542   -9.8542    0.0000 C   0  0  0  0  0  0  0  0  0  0  0  0
    3.5917   -8.6167    0.0000 C   0  0  0  0  0  0  0  0  0  0  0  0
    2.8792  -11.5042    0.0000 O   0  0  0  0  0  0  0  0  0  0  0  0
    2.1667   -8.6167    0.0000 O   0  0  0  0  0  0  0  0  0  0  0  0
   10.1917   -7.9375    0.0000 O   0  0  0  0  0  0  0  0  0  0  0  0
    1.4542  -11.5042    0.0000 C   0  0  0  0  0  0  0  0  0  0  0  0
    3.5917  -10.2667    0.0000 C   0  0  0  0  0  0  0  0  0  0  0  0
    0.7375  -10.2667    0.0000 C   0  0  0  0  0  0  0  0  0  0  0  0
    0.7375  -11.0917    0.0000 C   0  0  0  0  0  0  0  0  0  0  0  0
    3.5917  -11.0917    0.0000 C   0  0  0  0  0  0  0  0  0  0  0  0
   10.0417   -6.5167    0.0000 C   0  0  0  0  0  0  0  0  0  0  0  0
    4.3167   -6.5417    0.0000 C   0  0  0  0  0  0  0  0  0  0  0  0
    3.6000   -7.7875    0.0000 C   0  0  0  0  0  0  0  0  0  0  0  0
    0.0167   -9.8542    0.0000 C   0  0  0  0  0  0  0  0  0  0  0  0
    3.6042   -6.1292    0.0000 C   0  0  0  0  0  0  0  0  0  0  0  0
    2.8792   -7.3750    0.0000 C   0  0  0  0  0  0  0  0  0  0  0  0
    2.8792   -6.5417    0.0000 C   0  0  0  0  0  0  0  0  0  0  0  0
  2  1  2  0  0  0  0
  3  6  1  0  0  0  0
  4  3  1  0  0  0  0
  5  2  1  0  0  0  0
  6  1  1  0  0  0  0
  7  1  1  0  0  0  0
  8  7  2  0  0  0  0
  9  2  1  0  0  0  0
 10 13  1  0  0  0  0
 11 21  1  0  0  0  0
 12 10  1  0  0  0  0
 13 23  1  0  0  0  0
 14  8  1  0  0  0  0
 15  4  1  0  0  0  0
 16 11  1  0  0  0  0
 17  7  1  0  0  0  0
 18 12  1  0  0  0  0
 19  3  1  0  0  0  0
 20  6  2  0  0  0  0
 21 17  1  0  0  0  0
 22 12  2  0  0  0  0
 23 15  1  0  0  0  0
 24 31  1  0  0  0  0
 25 13  2  0  0  0  0
 26 16  2  0  0  0  0
 27 18  2  0  0  0  0
 28 10  1  0  0  0  0
 29 22  1  0  0  0  0
 30 29  2  0  0  0  0
 31 28  1  0  0  0  0
 32 16  1  0  0  0  0
 33 19  1  0  0  0  0
 34 19  2  0  0  0  0
 35 29  1  0  0  0  0
 36 33  2  0  0  0  0
 37 34  1  0  0  0  0
 38 37  2  0  0  0  0
  8  9  1  0  0  0  0
  5  4  2  0  0  0  0
 14 11  1  0  0  0  0
 36 38  1  0  0  0  0
 24 18  1  0  0  0  0
 30 27  1  0  0  0  0
M  END
> <IDNUMBER>
F3222-2361

> <Chemical_Name>
11-acetyl-5-{[2-(6-methyl-3,4-dihydro-2H-1,4-benzoxazin-4-yl)-2-oxoethyl]sulfanyl}-4-phenyl-8-thia-4,6,11-triazatricyclo[7.4.0.0^{2,7}]trideca-1(9),2(7),5-trien-3-one

> <CAS>
1189680-72-5

> <PriceCoeff>
1.00

> <MW>
546.66

> <Description>
solid

> <FSP3>
0.29

> <clogP>
3.18

> <TPSA>
136.06

> <Acceptor>
5

> <Donor>
0

> <RotBonds>
6

> <HAC>
38

> <Collection>
General

> <Reference_compound>
CHEMBL577016

> <Similarity>
0.8440

$$$$
F2532-0231
  -ISIS-  06222321142D

 32 34  0  0  0  0  0  0  0  0999 V2000
    2.0875    1.7208    0.0000 C   0  0  0  0  0  0  0  0  0  0  0  0
   -5.2208    6.2792    0.0000 N   0  3  0  0  0  0  0  0  0  0  0  0
   -5.2208    5.4625    0.0000 C   0  0  0  0  0  0  0  0  0  0  0  0
    1.4167    1.2375    0.0000 S   0  0  0  0  0  0  0  0  0  0  0  0
   -3.0375    2.5583    0.0000 C   0  0  0  0  0  0  0  0  0  0  0  0
    0.7500    1.7208    0.0000 C   0  0  0  0  0  0  0  0  0  0  0  0
    1.8292    2.5083    0.0000 N   0  0  0  0  0  0  0  0  0  0  0  0
    1.0042    2.5083    0.0000 N   0  0  0  0  0  0  0  0  0  0  0  0
    2.9125    1.7208    0.0000 N   0  0  0  0  0  0  0  0  0  0  0  0
   -2.3333    2.9833    0.0000 C   0  0  0  0  0  0  0  0  0  0  0  0
   -3.7583    3.8000    0.0000 C   0  0  0  0  0  0  0  0  0  0  0  0
   -1.6208    2.5583    0.0000 C   0  0  0  0  0  0  0  0  0  0  0  0
   -4.4875    5.0292    0.0000 C   0  0  0  0  0  0  0  0  0  0  0  0
   -3.7583    2.9708    0.0000 O   0  0  0  0  0  0  0  0  0  0  0  0
   -3.0375    1.7333    0.0000 C   0  0  0  0  0  0  0  0  0  0  0  0
   -4.4833    4.2125    0.0000 C   0  0  0  0  0  0  0  0  0  0  0  0
   -2.3333    1.3250    0.0000 O   0  0  0  0  0  0  0  0  0  0  0  0
   -1.6208    1.7333    0.0000 C   0  0  0  0  0  0  0  0  0  0  0  0
    3.7375    1.7208    0.0000 C   0  0  0  0  0  0  0  0  0  0  0  0
   -5.9333    5.0250    0.0000 C   0  0  0  0  0  0  0  0  0  0  0  0
   -4.5000    6.7125    0.0000 O   0  5  0  0  0  0  0  0  0  0  0  0
   -5.9375    6.6917    0.0000 O   0  0  0  0  0  0  0  0  0  0  0  0
   -0.1958    1.7375    0.0000 S   0  0  0  0  0  0  0  0  0  0  0  0
   -3.0375    4.2125    0.0000 O   0  0  0  0  0  0  0  0  0  0  0  0
   -2.3333    3.8000    0.0000 O   0  0  0  0  0  0  0  0  0  0  0  0
   -5.1958    3.7958    0.0000 C   0  0  0  0  0  0  0  0  0  0  0  0
    3.7292    2.5458    0.0000 O   0  0  0  0  0  0  0  0  0  0  0  0
   -5.9250    4.1917    0.0000 C   0  0  0  0  0  0  0  0  0  0  0  0
   -0.9083    1.3208    0.0000 C   0  0  0  0  0  0  0  0  0  0  0  0
   -6.6417    5.4375    0.0000 Cl  0  0  0  0  0  0  0  0  0  0  0  0
    4.3250    1.1375    0.0000 C   0  0  0  0  0  0  0  0  0  0  0  0
    5.1250    1.3583    0.0000 C   0  0  0  0  0  0  0  0  0  0  0  0
  2  3  1  0  0  0  0
  3 13  2  0  0  0  0
  4  1  1  0  0  0  0
  5 15  2  0  0  0  0
  6  4  1  0  0  0  0
  7  1  2  0  0  0  0
  8  7  1  0  0  0  0
  9  1  1  0  0  0  0
 10 12  1  0  0  0  0
 11 14  1  0  0  0  0
 12 18  2  0  0  0  0
 13 16  1  0  0  0  0
 14  5  1  0  0  0  0
 15 17  1  0  0  0  0
 16 11  1  0  0  0  0
 17 18  1  0  0  0  0
 18 29  1  0  0  0  0
 19  9  1  0  0  0  0
 20 28  2  0  0  0  0
 21  2  1  0  0  0  0
 22  2  2  0  0  0  0
 23  6  1  0  0  0  0
 24 11  2  0  0  0  0
 25 10  2  0  0  0  0
 26 16  2  0  0  0  0
 27 19  2  0  0  0  0
 28 26  1  0  0  0  0
 29 23  1  0  0  0  0
 30 20  1  0  0  0  0
 31 19  1  0  0  0  0
 32 31  1  0  0  0  0
  6  8  2  0  0  0  0
  5 10  1  0  0  0  0
  3 20  1  0  0  0  0
M  CHG  2   2   1  21  -1
M  END
> <IDNUMBER>
F2532-0231

> <Chemical_Name>
4-oxo-6-{[(5-propanamido-1,3,4-thiadiazol-2-yl)sulfanyl]methyl}-4H-pyran-3-yl 4-chloro-3-nitrobenzoate

> <CAS>
896006-39-6

> <PriceCoeff>
1.00

> <MW>
496.90

> <Description>
solid

> <FSP3>
0.17

> <clogP>
2.29

> <TPSA>
204.16

> <Acceptor>
9

> <Donor>
1

> <RotBonds>
9

> <HAC>
32

> <Collection>
General

$$$$
F0466-0044
  -ISIS-  06222321142D

 32 35  0  0  0  0  0  0  0  0999 V2000
   -2.1458    2.2125    0.0000 N   0  0  3  0  0  0  0  0  0  0  0  0
    1.0000    1.9125    0.0000 C   0  0  0  0  0  0  0  0  0  0  0  0
    1.4000    2.3125    0.0000 C   0  0  0  0  0  0  0  0  0  0  0  0
   -1.5833    2.0708    0.0000 C   0  0  0  0  0  0  0  0  0  0  0  0
   -2.2833    2.7500    0.0000 C   0  0  0  0  0  0  0  0  0  0  0  0
   -2.6208    1.9125    0.0000 C   0  0  0  0  0  0  0  0  0  0  0  0
    1.9292    2.1500    0.0000 C   0  0  0  0  0  0  0  0  0  0  0  0
   -0.2625    2.7333    0.0000 C   0  0  0  0  0  0  0  0  0  0  0  0
    0.4292    2.0500    0.0000 C   0  0  0  0  0  0  0  0  0  0  0  0
    0.2667    2.5958    0.0000 N   0  0  0  0  0  0  0  0  0  0  0  0
   -1.2000    2.4708    0.0000 C   0  0  0  0  0  0  0  0  0  0  0  0
   -0.6625    2.3333    0.0000 C   0  0  0  0  0  0  0  0  0  0  0  0
    1.1292    1.3708    0.0000 C   0  0  0  0  0  0  0  0  0  0  0  0
    2.3042    2.5500    0.0000 C   0  0  0  0  0  0  0  0  0  0  0  0
    1.2500    2.8500    0.0000 O   0  0  0  0  0  0  0  0  0  0  0  0
   -0.4208    3.2500    0.0000 O   0  0  0  0  0  0  0  0  0  0  0  0
   -2.8458    2.7708    0.0000 C   0  0  0  0  0  0  0  0  0  0  0  0
   -3.0458    2.2708    0.0000 C   0  0  0  0  0  0  0  0  0  0  0  0
   -2.6625    1.3500    0.0000 O   0  0  0  0  0  0  0  0  0  0  0  0
   -1.9458    3.2125    0.0000 O   0  0  0  0  0  0  0  0  0  0  0  0
    0.0500    1.6500    0.0000 C   0  0  0  0  0  0  0  0  0  0  0  0
    0.7292    0.9708    0.0000 C   0  0  0  0  0  0  0  0  0  0  0  0
    2.1667    3.1333    0.0000 Cl  0  0  0  0  0  0  0  0  0  0  0  0
    0.2000    1.1125    0.0000 C   0  0  0  0  0  0  0  0  0  0  0  0
   -1.4458    1.5500    0.0000 C   0  0  0  0  0  0  0  0  0  0  0  0
    0.8667    0.4125    0.0000 Cl  0  0  0  0  0  0  0  0  0  0  0  0
    2.0667    1.6333    0.0000 C   0  0  0  0  0  0  0  0  0  0  0  0
   -0.5000    1.7958    0.0000 C   0  0  0  0  0  0  0  0  0  0  0  0
   -0.9000    1.4125    0.0000 C   0  0  0  0  0  0  0  0  0  0  0  0
    2.8500    2.4333    0.0000 C   0  0  0  0  0  0  0  0  0  0  0  0
    2.6042    1.4708    0.0000 C   0  0  0  0  0  0  0  0  0  0  0  0
    3.0042    1.8958    0.0000 C   0  0  0  0  0  0  0  0  0  0  0  0
  2  9  1  0  0  0  0
  3  2  1  0  0  0  0
  4  1  1  0  0  0  0
  5  1  1  0  0  0  0
  6  1  1  0  0  0  0
  7  3  1  0  0  0  0
  8 12  1  0  0  0  0
  9 10  1  0  0  0  0
 10  8  1  0  0  0  0
 11  4  2  0  0  0  0
 12 11  1  0  0  0  0
 13  2  2  0  0  0  0
 14  7  1  0  0  0  0
 15  3  2  0  0  0  0
 16  8  2  0  0  0  0
 17  5  1  0  0  0  0
 18  6  1  0  0  0  0
 19  6  2  0  0  0  0
 20  5  2  0  0  0  0
 21  9  2  0  0  0  0
 22 24  2  0  0  0  0
 23 14  1  0  0  0  0
 24 21  1  0  0  0  0
 25  4  1  0  0  0  0
 26 22  1  0  0  0  0
 27  7  2  0  0  0  0
 28 29  1  0  0  0  0
 29 25  2  0  0  0  0
 30 14  2  0  0  0  0
 31 27  1  0  0  0  0
 32 31  2  0  0  0  0
 17 18  1  0  0  0  0
 12 28  2  0  0  0  0
 22 13  1  0  0  0  0
 32 30  1  0  0  0  0
M  END
> <IDNUMBER>
F0466-0044

> <Chemical_Name>
N-[4-chloro-2-(2-chlorobenzoyl)phenyl]-3-(2,5-dioxopyrrolidin-1-yl)benzamide

> <CAS>
391867-76-8

> <PriceCoeff>
1.00

> <MW>
467.30

> <Description>
solid

> <FSP3>
0.08

> <clogP>
4.07

> <TPSA>
83.55

> <Acceptor>
4

> <Donor>
1

> <RotBonds>
5

> <HAC>
32

> <Collection>
General

$$$$
F0327-0374
  -ISIS-  06222321442D

 32 35  0  0  0  0  0  0  0  0999 V2000
    4.5500   -2.3375    0.0000 N   0  0  3  0  0  0  0  0  0  0  0  0
    0.6167    0.0833    0.0000 C   0  0  0  0  0  0  0  0  0  0  0  0
    1.1292    0.6000    0.0000 C   0  0  0  0  0  0  0  0  0  0  0  0
    0.8542    1.2833    0.0000 C   0  0  0  0  0  0  0  0  0  0  0  0
    5.1875   -1.9375    0.0000 C   0  0  0  0  0  0  0  0  0  0  0  0
    4.7292   -3.0375    0.0000 C   0  0  0  0  0  0  0  0  0  0  0  0
    0.8167   -0.6292    0.0000 C   0  0  0  0  0  0  0  0  0  0  0  0
    1.7292   -1.5167    0.0000 C   0  0  0  0  0  0  0  0  0  0  0  0
    1.5292   -0.8000    0.0000 N   0  0  0  0  0  0  0  0  0  0  0  0
    3.8500   -2.1375    0.0000 C   0  0  0  0  0  0  0  0  0  0  0  0
    2.4292   -1.7167    0.0000 C   0  0  0  0  0  0  0  0  0  0  0  0
   -0.1000    0.2625    0.0000 C   0  0  0  0  0  0  0  0  0  0  0  0
    1.3042    1.8708    0.0000 C   0  0  0  0  0  0  0  0  0  0  0  0
    1.8792    0.5208    0.0000 O   0  0  0  0  0  0  0  0  0  0  0  0
    1.2042   -2.0375    0.0000 O   0  0  0  0  0  0  0  0  0  0  0  0
    5.7500   -2.4167    0.0000 C   0  0  0  0  0  0  0  0  0  0  0  0
    5.4667   -3.1000    0.0000 C   0  0  0  0  0  0  0  0  0  0  0  0
    5.2500   -1.2000    0.0000 O   0  0  0  0  0  0  0  0  0  0  0  0
    4.2667   -3.6167    0.0000 O   0  0  0  0  0  0  0  0  0  0  0  0
    0.3167   -1.1542    0.0000 C   0  0  0  0  0  0  0  0  0  0  0  0
    3.6667   -1.4167    0.0000 C   0  0  0  0  0  0  0  0  0  0  0  0
    3.3292   -2.6375    0.0000 C   0  0  0  0  0  0  0  0  0  0  0  0
    2.6042   -2.4375    0.0000 C   0  0  0  0  0  0  0  0  0  0  0  0
    2.9667   -1.2167    0.0000 C   0  0  0  0  0  0  0  0  0  0  0  0
   -0.6125   -0.2792    0.0000 C   0  0  0  0  0  0  0  0  0  0  0  0
    2.0375    1.7833    0.0000 Cl  0  0  0  0  0  0  0  0  0  0  0  0
   -0.4000   -0.9792    0.0000 C   0  0  0  0  0  0  0  0  0  0  0  0
   -1.3333   -0.1167    0.0000 Cl  0  0  0  0  0  0  0  0  0  0  0  0
    0.1292    1.3708    0.0000 C   0  0  0  0  0  0  0  0  0  0  0  0
    1.0375    2.5500    0.0000 C   0  0  0  0  0  0  0  0  0  0  0  0
   -0.1500    2.0625    0.0000 C   0  0  0  0  0  0  0  0  0  0  0  0
    0.3042    2.6500    0.0000 C   0  0  0  0  0  0  0  0  0  0  0  0
  2  7  2  0  0  0  0
  3  2  1  0  0  0  0
  4  3  1  0  0  0  0
  5  1  1  0  0  0  0
  6  1  1  0  0  0  0
  7  9  1  0  0  0  0
  8 11  1  0  0  0  0
  9  8  1  0  0  0  0
 10  1  1  0  0  0  0
 11 23  2  0  0  0  0
 12  2  1  0  0  0  0
 13  4  2  0  0  0  0
 14  3  2  0  0  0  0
 15  8  2  0  0  0  0
 16  5  1  0  0  0  0
 17  6  1  0  0  0  0
 18  5  2  0  0  0  0
 19  6  2  0  0  0  0
 20  7  1  0  0  0  0
 21 10  1  0  0  0  0
 22 10  2  0  0  0  0
 23 22  1  0  0  0  0
 24 21  2  0  0  0  0
 25 27  1  0  0  0  0
 26 13  1  0  0  0  0
 27 20  2  0  0  0  0
 28 25  1  0  0  0  0
 29  4  1  0  0  0  0
 30 13  1  0  0  0  0
 31 29  2  0  0  0  0
 32 31  1  0  0  0  0
 17 16  1  0  0  0  0
 24 11  1  0  0  0  0
 25 12  2  0  0  0  0
 32 30  2  0  0  0  0
M  END
> <IDNUMBER>
F0327-0374

> <Chemical_Name>
N-[4-chloro-2-(2-chlorobenzoyl)phenyl]-4-(2,5-dioxopyrrolidin-1-yl)benzamide

> <CAS>
313405-93-5

> <PriceCoeff>
1.00

> <MW>
467.30

> <Description>
solid

> <FSP3>
0.08

> <clogP>
4.07

> <TPSA>
83.55

> <Acceptor>
4

> <Donor>
1

> <RotBonds>
5

> <HAC>
32

> <Collection>
General

$$$$
F3222-2788
  -ISIS-  06222321442D

 38 42  0  0  0  0  0  0  0  0999 V2000
    6.5167   -9.1000    0.0000 C   0  0  0  0  0  0  0  0  0  0  0  0
    7.1875   -7.8292    0.0000 N   0  0  3  0  0  0  0  0  0  0  0  0
    5.7917   -8.7167    0.0000 C   0  0  0  0  0  0  0  0  0  0  0  0
    7.2167   -8.6542    0.0000 C   0  0  0  0  0  0  0  0  0  0  0  0
    5.7542   -7.8875    0.0000 N   0  0  0  0  0  0  0  0  0  0  0  0
    6.4542   -7.4500    0.0000 C   0  0  0  0  0  0  0  0  0  0  0  0
    6.3792   -9.9125    0.0000 C   0  0  0  0  0  0  0  0  0  0  0  0
    5.5667  -10.0292    0.0000 C   0  0  0  0  0  0  0  0  0  0  0  0
    5.2000   -9.3000    0.0000 S   0  0  0  0  0  0  0  0  0  0  0  0
    5.7667  -11.4417    0.0000 N   0  0  3  0  0  0  0  0  0  0  0  0
    5.2542  -10.7917    0.0000 C   0  0  0  0  0  0  0  0  0  0  0  0
    7.7917   -4.9250    0.0000 N   0  0  3  0  0  0  0  0  0  0  0  0
    5.4667  -12.2042    0.0000 C   0  0  0  0  0  0  0  0  0  0  0  0
    6.4250   -6.6250    0.0000 S   0  0  0  0  0  0  0  0  0  0  0  0
    7.0917   -5.3542    0.0000 C   0  0  0  0  0  0  0  0  0  0  0  0
    7.7417   -4.0917    0.0000 C   0  0  0  0  0  0  0  0  0  0  0  0
    7.8917   -7.3750    0.0000 C   0  0  0  0  0  0  0  0  0  0  0  0
    6.8875  -10.5542    0.0000 C   0  0  0  0  0  0  0  0  0  0  0  0
    7.9667   -9.0292    0.0000 O   0  0  0  0  0  0  0  0  0  0  0  0
    6.5792  -11.3250    0.0000 C   0  0  0  0  0  0  0  0  0  0  0  0
    7.1167   -6.1875    0.0000 C   0  0  0  0  0  0  0  0  0  0  0  0
    8.4375   -3.6417    0.0000 C   0  0  0  0  0  0  0  0  0  0  0  0
    4.6542  -12.3292    0.0000 O   0  0  0  0  0  0  0  0  0  0  0  0
    6.3625   -4.9625    0.0000 O   0  0  0  0  0  0  0  0  0  0  0  0
    8.6292   -7.7500    0.0000 C   0  0  0  0  0  0  0  0  0  0  0  0
    8.3917   -2.8167    0.0000 C   0  0  0  0  0  0  0  0  0  0  0  0
    7.0125   -3.7167    0.0000 C   0  0  0  0  0  0  0  0  0  0  0  0
    8.3750   -5.2250    0.0000 C   0  0  0  0  0  0  0  0  0  0  0  0
    5.9792  -12.8542    0.0000 C   0  0  0  0  0  0  0  0  0  0  0  0
    6.9667   -2.8917    0.0000 C   0  0  0  0  0  0  0  0  0  0  0  0
    7.6625   -2.4417    0.0000 C   0  0  0  0  0  0  0  0  0  0  0  0
    9.0875   -2.3625    0.0000 C   0  0  0  0  0  0  0  0  0  0  0  0
    9.3167   -7.2917    0.0000 C   0  0  0  0  0  0  0  0  0  0  0  0
    8.6792   -8.5750    0.0000 C   0  0  0  0  0  0  0  0  0  0  0  0
    8.4167   -6.0542    0.0000 C   0  0  0  0  0  0  0  0  0  0  0  0
    9.4167   -8.9417    0.0000 C   0  0  0  0  0  0  0  0  0  0  0  0
   10.0625   -7.6667    0.0000 C   0  0  0  0  0  0  0  0  0  0  0  0
   10.1042   -8.4917    0.0000 C   0  0  0  0  0  0  0  0  0  0  0  0
  2  4  1  0  0  0  0
  3  1  2  0  0  0  0
  4  1  1  0  0  0  0
  5  3  1  0  0  0  0
  6  2  1  0  0  0  0
  7  1  1  0  0  0  0
  8  7  2  0  0  0  0
  9  3  1  0  0  0  0
 10 20  1  0  0  0  0
 11  8  1  0  0  0  0
 12 15  1  0  0  0  0
 13 10  1  0  0  0  0
 14  6  1  0  0  0  0
 15 21  1  0  0  0  0
 16 12  1  0  0  0  0
 17  2  1  0  0  0  0
 18  7  1  0  0  0  0
 19  4  2  0  0  0  0
 20 18  1  0  0  0  0
 21 14  1  0  0  0  0
 22 16  1  0  0  0  0
 23 13  2  0  0  0  0
 24 15  2  0  0  0  0
 25 17  1  0  0  0  0
 26 22  2  0  0  0  0
 27 16  2  0  0  0  0
 28 12  1  0  0  0  0
 29 13  1  0  0  0  0
 30 27  1  0  0  0  0
 31 30  2  0  0  0  0
 32 26  1  0  0  0  0
 33 25  2  0  0  0  0
 34 25  1  0  0  0  0
 35 28  1  0  0  0  0
 36 34  2  0  0  0  0
 37 33  1  0  0  0  0
 38 36  1  0  0  0  0
  9  8  1  0  0  0  0
 10 11  1  0  0  0  0
  6  5  2  0  0  0  0
 38 37  2  0  0  0  0
 31 26  1  0  0  0  0
M  END
> <IDNUMBER>
F3222-2788

> <Chemical_Name>
2-({11-acetyl-4-benzyl-3-oxo-8-thia-4,6,11-triazatricyclo[7.4.0.0^{2,7}]trideca-1(9),2(7),5-trien-5-yl}sulfanyl)-N-ethyl-N-(3-methylphenyl)acetamide

> <CAS>
1189456-55-0

> <PriceCoeff>
1.00

> <MW>
546.70

> <Description>
solid

> <FSP3>
0.31

> <clogP>
3.49

> <TPSA>
126.83

> <Acceptor>
4

> <Donor>
0

> <RotBonds>
9

> <HAC>
38

> <Collection>
General

> <Reference_compound>
CHEMBL577016

> <Similarity>
0.9040

$$$$
F3139-1603
  -ISIS-  06222321152D

 30 33  0  0  0  0  0  0  0  0999 V2000
    3.9500   -1.5417    0.0000 C   0  0  0  0  0  0  0  0  0  0  0  0
    3.2292   -1.9542    0.0000 C   0  0  0  0  0  0  0  0  0  0  0  0
    2.5167   -1.5417    0.0000 C   0  0  0  0  0  0  0  0  0  0  0  0
    3.9500   -0.7167    0.0000 C   0  0  0  0  0  0  0  0  0  0  0  0
    2.5167   -0.7167    0.0000 C   0  0  0  0  0  0  0  0  0  0  0  0
    4.6625   -1.9542    0.0000 C   0  0  0  0  0  0  0  0  0  0  0  0
    3.2292   -0.3042    0.0000 O   0  0  0  0  0  0  0  0  0  0  0  0
    5.3792   -1.5417    0.0000 C   0  0  0  0  0  0  0  0  0  0  0  0
    1.8042   -1.9542    0.0000 C   0  0  0  0  0  0  0  0  0  0  0  0
    1.8042   -0.3042    0.0000 C   0  0  0  0  0  0  0  0  0  0  0  0
    6.0917   -1.9542    0.0000 C   0  0  0  0  0  0  0  0  0  0  0  0
    3.2292   -2.7792    0.0000 O   0  0  0  0  0  0  0  0  0  0  0  0
    6.0917   -2.7792    0.0000 C   0  0  0  0  0  0  0  0  0  0  0  0
    4.6625   -2.7792    0.0000 C   0  0  0  0  0  0  0  0  0  0  0  0
    5.3750   -3.1917    0.0000 C   0  0  0  0  0  0  0  0  0  0  0  0
    1.0917   -0.7167    0.0000 C   0  0  0  0  0  0  0  0  0  0  0  0
    0.3667   -0.3042    0.0000 O   0  0  0  0  0  0  0  0  0  0  0  0
    1.0917   -1.5417    0.0000 C   0  0  0  0  0  0  0  0  0  0  0  0
   -1.0583   -0.2917    0.0000 C   0  0  0  0  0  0  0  0  0  0  0  0
   -0.3458   -0.7125    0.0000 C   0  0  0  0  0  0  0  0  0  0  0  0
    6.8042   -1.5417    0.0000 O   0  0  0  0  0  0  0  0  0  0  0  0
   -2.4833    0.5083    0.0000 C   0  0  0  0  0  0  0  0  0  0  0  0
    6.8042   -3.2000    0.0000 O   0  0  0  0  0  0  0  0  0  0  0  0
   -1.0500    0.5333    0.0000 C   0  0  0  0  0  0  0  0  0  0  0  0
   -1.7708   -0.7042    0.0000 C   0  0  0  0  0  0  0  0  0  0  0  0
   -2.4833   -0.2917    0.0000 C   0  0  0  0  0  0  0  0  0  0  0  0
   -1.7625    0.9458    0.0000 C   0  0  0  0  0  0  0  0  0  0  0  0
   -3.1958    0.9208    0.0000 C   0  0  0  0  0  0  0  0  0  0  0  0
    6.8042   -0.7167    0.0000 C   0  0  0  0  0  0  0  0  0  0  0  0
    7.5250   -2.7875    0.0000 C   0  0  0  0  0  0  0  0  0  0  0  0
  2  1  1  0  0  0  0
  3  2  1  0  0  0  0
  4  1  2  0  0  0  0
  5  7  1  0  0  0  0
  6  1  1  0  0  0  0
  7  4  1  0  0  0  0
  8  6  1  0  0  0  0
  9  3  2  0  0  0  0
 10  5  2  0  0  0  0
 11  8  2  0  0  0  0
 12  2  2  0  0  0  0
 13 15  2  0  0  0  0
 14  6  2  0  0  0  0
 15 14  1  0  0  0  0
 16 10  1  0  0  0  0
 17 16  1  0  0  0  0
 18  9  1  0  0  0  0
 19 20  1  0  0  0  0
 20 17  1  0  0  0  0
 21 11  1  0  0  0  0
 22 26  1  0  0  0  0
 23 13  1  0  0  0  0
 24 19  2  0  0  0  0
 25 19  1  0  0  0  0
 26 25  2  0  0  0  0
 27 24  1  0  0  0  0
 28 22  1  0  0  0  0
 29 21  1  0  0  0  0
 30 23  1  0  0  0  0
  3  5  1  0  0  0  0
 13 11  1  0  0  0  0
 18 16  2  0  0  0  0
 22 27  2  0  0  0  0
M  END
> <IDNUMBER>
F3139-1603

> <Chemical_Name>
3-(3,4-dimethoxyphenyl)-7-[(4-methylphenyl)methoxy]-4H-chromen-4-one

> <CAS>
637750-18-6

> <PriceCoeff>
1.00

> <MW>
402.44

> <Description>
solid

> <FSP3>
0.16

> <clogP>
5.02

> <TPSA>
53.99

> <Acceptor>
5

> <Donor>
0

> <RotBonds>
6

> <HAC>
30

> <Collection>
General

> <Reference_compound>
CHEMBL44

> <Similarity>
0.8230

$$$$
F3139-1606
  -ISIS-  06222321152D

 30 33  0  0  0  0  0  0  0  0999 V2000
    3.9500   -1.5417    0.0000 C   0  0  0  0  0  0  0  0  0  0  0  0
    3.2292   -1.9542    0.0000 C   0  0  0  0  0  0  0  0  0  0  0  0
    2.5167   -1.5417    0.0000 C   0  0  0  0  0  0  0  0  0  0  0  0
    3.9500   -0.7167    0.0000 C   0  0  0  0  0  0  0  0  0  0  0  0
    2.5167   -0.7167    0.0000 C   0  0  0  0  0  0  0  0  0  0  0  0
    4.6625   -1.9542    0.0000 C   0  0  0  0  0  0  0  0  0  0  0  0
    3.2292   -0.3042    0.0000 O   0  0  0  0  0  0  0  0  0  0  0  0
    5.3792   -1.5417    0.0000 C   0  0  0  0  0  0  0  0  0  0  0  0
    1.8042   -1.9542    0.0000 C   0  0  0  0  0  0  0  0  0  0  0  0
    1.8042   -0.3042    0.0000 C   0  0  0  0  0  0  0  0  0  0  0  0
    6.0917   -1.9542    0.0000 C   0  0  0  0  0  0  0  0  0  0  0  0
    3.2292   -2.7792    0.0000 O   0  0  0  0  0  0  0  0  0  0  0  0
    6.0917   -2.7792    0.0000 C   0  0  0  0  0  0  0  0  0  0  0  0
    4.6625   -2.7792    0.0000 C   0  0  0  0  0  0  0  0  0  0  0  0
    5.3750   -3.1917    0.0000 C   0  0  0  0  0  0  0  0  0  0  0  0
    1.0917   -0.7167    0.0000 C   0  0  0  0  0  0  0  0  0  0  0  0
    0.3667   -0.3042    0.0000 O   0  0  0  0  0  0  0  0  0  0  0  0
    1.0917   -1.5417    0.0000 C   0  0  0  0  0  0  0  0  0  0  0  0
   -2.4833    0.5083    0.0000 C   0  0  0  0  0  0  0  0  0  0  0  0
   -1.0583   -0.2917    0.0000 C   0  0  0  0  0  0  0  0  0  0  0  0
   -0.3458   -0.7125    0.0000 C   0  0  0  0  0  0  0  0  0  0  0  0
    6.8042   -1.5417    0.0000 O   0  0  0  0  0  0  0  0  0  0  0  0
   -3.2000    0.9125    0.0000 F   0  0  0  0  0  0  0  0  0  0  0  0
    6.8042   -3.2000    0.0000 O   0  0  0  0  0  0  0  0  0  0  0  0
   -1.7625    0.9458    0.0000 C   0  0  0  0  0  0  0  0  0  0  0  0
   -2.4833   -0.2917    0.0000 C   0  0  0  0  0  0  0  0  0  0  0  0
   -1.7708   -0.7042    0.0000 C   0  0  0  0  0  0  0  0  0  0  0  0
   -1.0500    0.5333    0.0000 C   0  0  0  0  0  0  0  0  0  0  0  0
    6.8042   -0.7167    0.0000 C   0  0  0  0  0  0  0  0  0  0  0  0
    7.5250   -2.7875    0.0000 C   0  0  0  0  0  0  0  0  0  0  0  0
  2  1  1  0  0  0  0
  3  2  1  0  0  0  0
  4  1  2  0  0  0  0
  5  7  1  0  0  0  0
  6  1  1  0  0  0  0
  7  4  1  0  0  0  0
  8  6  1  0  0  0  0
  9  3  2  0  0  0  0
 10  5  2  0  0  0  0
 11  8  2  0  0  0  0
 12  2  2  0  0  0  0
 13 15  2  0  0  0  0
 14  6  2  0  0  0  0
 15 14  1  0  0  0  0
 16 10  1  0  0  0  0
 17 16  1  0  0  0  0
 18  9  1  0  0  0  0
 19 25  2  0  0  0  0
 20 21  1  0  0  0  0
 21 17  1  0  0  0  0
 22 11  1  0  0  0  0
 23 19  1  0  0  0  0
 24 13  1  0  0  0  0
 25 28  1  0  0  0  0
 26 27  2  0  0  0  0
 27 20  1  0  0  0  0
 28 20  2  0  0  0  0
 29 22  1  0  0  0  0
 30 24  1  0  0  0  0
  3  5  1  0  0  0  0
 13 11  1  0  0  0  0
 18 16  2  0  0  0  0
 19 26  1  0  0  0  0
M  END
> <IDNUMBER>
F3139-1606

> <Chemical_Name>
3-(3,4-dimethoxyphenyl)-7-[(4-fluorophenyl)methoxy]-4H-chromen-4-one

> <CAS>
637750-22-2

> <PriceCoeff>
1.00

> <MW>
406.40

> <Description>
solid

> <FSP3>
0.12

> <clogP>
4.66

> <TPSA>
53.99

> <Acceptor>
5

> <Donor>
0

> <RotBonds>
6

> <HAC>
30

> <Collection>
General

> <Reference_compound>
CHEMBL455048

> <Similarity>
0.8170

$$$$
F2224-0181
  -ISIS-  06222321462D

 31 34  0  0  0  0  0  0  0  0999 V2000
   -7.4167    3.8083    0.0000 N   0  0  3  0  0  0  0  0  0  0  0  0
   -7.4167    4.6292    0.0000 C   0  0  0  0  0  0  0  0  0  0  0  0
   -8.8417    3.8125    0.0000 N   0  0  0  0  0  0  0  0  0  0  0  0
   -8.1292    3.3958    0.0000 C   0  0  0  0  0  0  0  0  0  0  0  0
   -8.1292    5.0417    0.0000 C   0  0  0  0  0  0  0  0  0  0  0  0
   -1.0208    3.3833    0.0000 N   0  3  0  0  0  0  0  0  0  0  0  0
   -8.8417    4.6292    0.0000 C   0  0  0  0  0  0  0  0  0  0  0  0
   -1.7333    3.7958    0.0000 C   0  0  0  0  0  0  0  0  0  0  0  0
   -6.7125    3.3958    0.0000 C   0  0  0  0  0  0  0  0  0  0  0  0
   -3.8625    3.3958    0.0000 C   0  0  0  0  0  0  0  0  0  0  0  0
   -2.4500    3.3958    0.0000 C   0  0  0  0  0  0  0  0  0  0  0  0
   -3.1583    3.8000    0.0000 C   0  0  0  0  0  0  0  0  0  0  0  0
   -4.5833    3.8000    0.0000 N   0  0  0  0  0  0  0  0  0  0  0  0
   -6.0000    3.8000    0.0000 C   0  0  0  0  0  0  0  0  0  0  0  0
   -1.7333    4.6167    0.0000 C   0  0  0  0  0  0  0  0  0  0  0  0
   -9.5542    5.0417    0.0000 N   0  0  0  0  0  0  0  0  0  0  0  0
   -6.7042    5.0292    0.0000 O   0  0  0  0  0  0  0  0  0  0  0  0
   -1.0208    2.5583    0.0000 O   0  5  0  0  0  0  0  0  0  0  0  0
   -0.3083    3.7958    0.0000 O   0  0  0  0  0  0  0  0  0  0  0  0
   -5.2958    3.3958    0.0000 C   0  0  0  0  0  0  0  0  0  0  0  0
   -3.8625    2.5625    0.0000 O   0  0  0  0  0  0  0  0  0  0  0  0
   -3.1625    4.6042    0.0000 C   0  0  0  0  0  0  0  0  0  0  0  0
   -2.4500    5.0250    0.0000 C   0  0  0  0  0  0  0  0  0  0  0  0
   -8.1417    2.5833    0.0000 C   0  0  0  0  0  0  0  0  0  0  0  0
   -1.0208    5.0292    0.0000 Cl  0  0  0  0  0  0  0  0  0  0  0  0
   -8.1250    5.8667    0.0000 C   0  0  0  0  0  0  0  0  0  0  0  0
   -6.7167    2.5708    0.0000 C   0  0  0  0  0  0  0  0  0  0  0  0
   -6.0042    2.1500    0.0000 C   0  0  0  0  0  0  0  0  0  0  0  0
   -9.5542    5.8542    0.0000 C   0  0  0  0  0  0  0  0  0  0  0  0
   -5.2958    2.5583    0.0000 C   0  0  0  0  0  0  0  0  0  0  0  0
   -8.8417    6.2667    0.0000 C   0  0  0  0  0  0  0  0  0  0  0  0
  2  1  1  0  0  0  0
  3  4  2  0  0  0  0
  4  1  1  0  0  0  0
  5  2  1  0  0  0  0
  6  8  1  0  0  0  0
  7  3  1  0  0  0  0
  8 11  1  0  0  0  0
  9  1  1  0  0  0  0
 10 13  1  0  0  0  0
 11 12  2  0  0  0  0
 12 10  1  0  0  0  0
 13 20  1  0  0  0  0
 14  9  1  0  0  0  0
 15 23  1  0  0  0  0
 16  7  1  0  0  0  0
 17  2  2  0  0  0  0
 18  6  1  0  0  0  0
 19  6  2  0  0  0  0
 20 14  2  0  0  0  0
 21 10  2  0  0  0  0
 22 12  1  0  0  0  0
 23 22  2  0  0  0  0
 24  4  1  0  0  0  0
 25 15  1  0  0  0  0
 26  5  1  0  0  0  0
 27  9  2  0  0  0  0
 28 27  1  0  0  0  0
 29 16  2  0  0  0  0
 30 28  2  0  0  0  0
 31 26  2  0  0  0  0
  5  7  2  0  0  0  0
 30 20  1  0  0  0  0
 31 29  1  0  0  0  0
  8 15  2  0  0  0  0
M  CHG  2   6   1  18  -1
M  END
> <IDNUMBER>
F2224-0181

> <Chemical_Name>
4-chloro-N-(3-{2-methyl-4-oxo-3H,4H-pyrido[2,3-d]pyrimidin-3-yl}phenyl)-3-nitrobenzamide

> <CAS>
1005298-21-4

> <PriceCoeff>
1.00

> <MW>
435.82

> <Description>
solid

> <FSP3>
0.05

> <clogP>
3.42

> <TPSA>
117.80

> <Acceptor>
6

> <Donor>
2

> <RotBonds>
4

> <HAC>
31

> <Collection>
General

$$$$
F0779-0473
  -ISIS-  06222321142D

 31 36  0  0  0  0  0  0  0  0999 V2000
   -0.0708    1.1333    0.0000 C   0  0  0  0  0  0  0  0  0  0  0  0
    3.3500    0.5625    0.0000 N   0  0  3  0  0  0  0  0  0  0  0  0
   -0.5000    1.7208    0.0000 N   0  0  0  0  0  0  0  0  0  0  0  0
   -1.2125    1.4833    0.0000 C   0  0  0  0  0  0  0  0  0  0  0  0
    0.6542    1.1333    0.0000 N   0  0  0  0  0  0  0  0  0  0  0  0
   -1.1833    0.7458    0.0000 C   0  0  0  0  0  0  0  0  0  0  0  0
   -0.4500    0.5333    0.0000 S   0  0  0  0  0  0  0  0  0  0  0  0
   -1.8833    1.8333    0.0000 C   0  0  0  0  0  0  0  0  0  0  0  0
    2.9500    1.1833    0.0000 C   0  0  0  0  0  0  0  0  0  0  0  0
    1.0542    1.8000    0.0000 C   0  0  0  0  0  0  0  0  0  0  0  0
   -2.4958    0.7125    0.0000 C   0  0  0  0  0  0  0  0  0  0  0  0
    3.1000   -0.1292    0.0000 C   0  0  0  0  0  0  0  0  0  0  0  0
    4.0792    0.4958    0.0000 C   0  0  0  0  0  0  0  0  0  0  0  0
   -2.5208    1.4458    0.0000 C   0  0  0  0  0  0  0  0  0  0  0  0
   -1.8333    0.3500    0.0000 C   0  0  0  0  0  0  0  0  0  0  0  0
    2.1875    1.1708    0.0000 C   0  0  0  0  0  0  0  0  0  0  0  0
    1.7875    1.8125    0.0000 C   0  0  0  0  0  0  0  0  0  0  0  0
   -3.1958    1.7833    0.0000 C   0  0  0  0  0  0  0  0  0  0  0  0
   -3.2000    0.4500    0.0000 C   0  0  0  0  0  0  0  0  0  0  0  0
    0.6375    2.4625    0.0000 O   0  0  0  0  0  0  0  0  0  0  0  0
    3.6500   -0.5875    0.0000 C   0  0  0  0  0  0  0  0  0  0  0  0
    4.2875   -0.2167    0.0000 C   0  0  0  0  0  0  0  0  0  0  0  0
    2.3167   -0.3792    0.0000 O   0  0  0  0  0  0  0  0  0  0  0  0
    4.6167    1.0833    0.0000 O   0  0  0  0  0  0  0  0  0  0  0  0
   -3.7333    1.2625    0.0000 C   0  0  0  0  0  0  0  0  0  0  0  0
   -1.9125    2.5625    0.0000 C   0  0  0  0  0  0  0  0  0  0  0  0
    3.3167    1.8500    0.0000 C   0  0  0  0  0  0  0  0  0  0  0  0
    2.1500    2.4625    0.0000 C   0  0  0  0  0  0  0  0  0  0  0  0
   -2.5708    2.9208    0.0000 C   0  0  0  0  0  0  0  0  0  0  0  0
    2.9042    2.5000    0.0000 C   0  0  0  0  0  0  0  0  0  0  0  0
   -3.2333    2.5500    0.0000 C   0  0  0  0  0  0  0  0  0  0  0  0
  2  9  1  0  0  0  0
  3  1  2  0  0  0  0
  4  3  1  0  0  0  0
  5  1  1  0  0  0  0
  6  7  1  0  0  0  0
  7  1  1  0  0  0  0
  8  4  1  0  0  0  0
  9 16  1  0  0  0  0
 10  5  1  0  0  0  0
 11 15  2  0  0  0  0
 12  2  1  0  0  0  0
 13  2  1  0  0  0  0
 14  8  2  0  0  0  0
 15  6  1  0  0  0  0
 16 17  2  0  0  0  0
 17 10  1  0  0  0  0
 18 14  1  0  0  0  0
 19 11  1  0  0  0  0
 20 10  2  0  0  0  0
 21 12  1  0  0  0  0
 22 13  1  0  0  0  0
 23 12  2  0  0  0  0
 24 13  2  0  0  0  0
 25 19  1  0  0  0  0
 26  8  1  0  0  0  0
 27 30  1  0  0  0  0
 28 17  1  0  0  0  0
 29 26  2  0  0  0  0
 30 28  2  0  0  0  0
 31 29  1  0  0  0  0
  6  4  2  0  0  0  0
 11 14  1  0  0  0  0
 25 18  1  0  0  0  0
 27  9  2  0  0  0  0
 18 31  2  0  0  0  0
 21 22  1  0  0  0  0
M  END
> <IDNUMBER>
F0779-0473

> <Chemical_Name>
3-(2,5-dioxopyrrolidin-1-yl)-N-{5-thia-3-azatetracyclo[6.6.1.0^{2,6}.0^{11,15}]pentadeca-1(15),2(6),3,7,11,13-hexaen-4-yl}benzamide

> <CAS>
477326-10-6

> <PriceCoeff>
1.00

> <MW>
427.48

> <Description>
solid

> <FSP3>
0.17

> <clogP>
3.25

> <TPSA>
107.61

> <Acceptor>
4

> <Donor>
1

> <RotBonds>
3

> <HAC>
31

> <Collection>
General

$$$$
F0817-0157
  -ISIS-  06222321142D

 30 34  0  0  0  0  0  0  0  0999 V2000
   -1.8708    1.0458    0.0000 C   0  0  0  0  0  0  0  0  0  0  0  0
    2.3542    0.0333    0.0000 N   0  0  3  0  0  0  0  0  0  0  0  0
   -3.2208    1.0958    0.0000 C   0  0  0  0  0  0  0  0  0  0  0  0
   -4.0333    1.2458    0.0000 C   0  0  0  0  0  0  0  0  0  0  0  0
   -2.1125    0.2625    0.0000 N   0  0  0  0  0  0  0  0  0  0  0  0
   -5.3833    1.0000    0.0000 N   0  0  0  0  0  0  0  0  0  0  0  0
   -5.2833    1.8125    0.0000 C   0  0  0  0  0  0  0  0  0  0  0  0
   -1.0708    1.2708    0.0000 N   0  0  0  0  0  0  0  0  0  0  0  0
   -2.5208    1.5625    0.0000 S   0  0  0  0  0  0  0  0  0  0  0  0
   -4.4708    1.9958    0.0000 S   0  0  0  0  0  0  0  0  0  0  0  0
   -2.9708    0.2625    0.0000 C   0  0  0  0  0  0  0  0  0  0  0  0
   -4.6000    0.6208    0.0000 C   0  0  0  0  0  0  0  0  0  0  0  0
    1.7500    0.6125    0.0000 C   0  0  0  0  0  0  0  0  0  0  0  0
   -0.4708    0.7000    0.0000 C   0  0  0  0  0  0  0  0  0  0  0  0
    3.1792    0.1625    0.0000 C   0  0  0  0  0  0  0  0  0  0  0  0
    2.2792   -0.8000    0.0000 C   0  0  0  0  0  0  0  0  0  0  0  0
    0.9375    0.3625    0.0000 C   0  0  0  0  0  0  0  0  0  0  0  0
    0.3292    0.9458    0.0000 C   0  0  0  0  0  0  0  0  0  0  0  0
   -0.6708   -0.1042    0.0000 O   0  0  0  0  0  0  0  0  0  0  0  0
    3.5792   -0.5542    0.0000 C   0  0  0  0  0  0  0  0  0  0  0  0
    3.0042   -1.1500    0.0000 C   0  0  0  0  0  0  0  0  0  0  0  0
   -4.3833   -0.1500    0.0000 C   0  0  0  0  0  0  0  0  0  0  0  0
   -3.5458   -0.3542    0.0000 C   0  0  0  0  0  0  0  0  0  0  0  0
    3.5792    0.9458    0.0000 O   0  0  0  0  0  0  0  0  0  0  0  0
    1.5167   -1.2500    0.0000 O   0  0  0  0  0  0  0  0  0  0  0  0
   -5.9333    2.3833    0.0000 S   0  0  0  0  0  0  0  0  0  0  0  0
    1.9500    1.4208    0.0000 C   0  0  0  0  0  0  0  0  0  0  0  0
    0.5167    1.7458    0.0000 C   0  0  0  0  0  0  0  0  0  0  0  0
    1.3292    1.9833    0.0000 C   0  0  0  0  0  0  0  0  0  0  0  0
   -5.7708    3.2083    0.0000 C   0  0  0  0  0  0  0  0  0  0  0  0
  2 13  1  0  0  0  0
  3  9  1  0  0  0  0
  4  3  1  0  0  0  0
  5  1  2  0  0  0  0
  6 12  1  0  0  0  0
  7 10  1  0  0  0  0
  8  1  1  0  0  0  0
  9  1  1  0  0  0  0
 10  4  1  0  0  0  0
 11  5  1  0  0  0  0
 12  4  2  0  0  0  0
 13 17  1  0  0  0  0
 14  8  1  0  0  0  0
 15  2  1  0  0  0  0
 16  2  1  0  0  0  0
 17 18  2  0  0  0  0
 18 14  1  0  0  0  0
 19 14  2  0  0  0  0
 20 15  1  0  0  0  0
 21 16  1  0  0  0  0
 22 23  2  0  0  0  0
 23 11  1  0  0  0  0
 24 15  2  0  0  0  0
 25 16  2  0  0  0  0
 26  7  1  0  0  0  0
 27 29  1  0  0  0  0
 28 18  1  0  0  0  0
 29 28  2  0  0  0  0
 30 26  1  0  0  0  0
  3 11  2  0  0  0  0
 22 12  1  0  0  0  0
  7  6  2  0  0  0  0
 13 27  2  0  0  0  0
 20 21  1  0  0  0  0
M  END
> <IDNUMBER>
F0817-0157

> <Chemical_Name>
3-(2,5-dioxopyrrolidin-1-yl)-N-[11-(methylsulfanyl)-3,12-dithia-5,10-diazatricyclo[7.3.0.0^{2,6}]dodeca-1(9),2(6),4,7,10-pentaen-4-yl]benzamide

> <CAS>
477503-69-8

> <PriceCoeff>
1.00

> <MW>
454.55

> <Description>
solid

> <FSP3>
0.15

> <clogP>
2.84

> <TPSA>
174.04

> <Acceptor>
5

> <Donor>
1

> <RotBonds>
4

> <HAC>
30

> <Collection>
General

$$$$
F2224-0019
  -ISIS-  06222321442D

 31 34  0  0  0  0  0  0  0  0999 V2000
   -7.4292    2.1500    0.0000 N   0  0  3  0  0  0  0  0  0  0  0  0
   -8.1417    2.5625    0.0000 C   0  0  0  0  0  0  0  0  0  0  0  0
   -8.1292    0.9125    0.0000 N   0  0  0  0  0  0  0  0  0  0  0  0
   -7.4167    1.3250    0.0000 C   0  0  0  0  0  0  0  0  0  0  0  0
   -8.8542    2.1458    0.0000 C   0  0  0  0  0  0  0  0  0  0  0  0
   -1.0208    3.3833    0.0000 N   0  3  0  0  0  0  0  0  0  0  0  0
   -8.8542    1.3208    0.0000 C   0  0  0  0  0  0  0  0  0  0  0  0
   -1.7333    3.7958    0.0000 C   0  0  0  0  0  0  0  0  0  0  0  0
   -3.8625    3.3958    0.0000 C   0  0  0  0  0  0  0  0  0  0  0  0
   -2.4500    3.3958    0.0000 C   0  0  0  0  0  0  0  0  0  0  0  0
   -3.1583    3.8000    0.0000 C   0  0  0  0  0  0  0  0  0  0  0  0
   -4.5833    3.8000    0.0000 N   0  0  0  0  0  0  0  0  0  0  0  0
   -6.7125    2.5625    0.0000 C   0  0  0  0  0  0  0  0  0  0  0  0
   -1.7333    4.6167    0.0000 C   0  0  0  0  0  0  0  0  0  0  0  0
   -9.5542    0.9125    0.0000 N   0  0  0  0  0  0  0  0  0  0  0  0
   -8.1417    3.3958    0.0000 O   0  0  0  0  0  0  0  0  0  0  0  0
   -1.0208    2.5583    0.0000 O   0  5  0  0  0  0  0  0  0  0  0  0
   -0.3083    3.7958    0.0000 O   0  0  0  0  0  0  0  0  0  0  0  0
   -3.8625    2.5625    0.0000 O   0  0  0  0  0  0  0  0  0  0  0  0
   -3.1625    4.6042    0.0000 C   0  0  0  0  0  0  0  0  0  0  0  0
   -2.4500    5.0250    0.0000 C   0  0  0  0  0  0  0  0  0  0  0  0
   -6.7167    3.3833    0.0000 C   0  0  0  0  0  0  0  0  0  0  0  0
   -6.0000    2.1500    0.0000 C   0  0  0  0  0  0  0  0  0  0  0  0
   -5.2958    3.3958    0.0000 C   0  0  0  0  0  0  0  0  0  0  0  0
   -6.7125    0.9125    0.0000 C   0  0  0  0  0  0  0  0  0  0  0  0
   -1.0208    5.0292    0.0000 Cl  0  0  0  0  0  0  0  0  0  0  0  0
   -9.5667    2.5625    0.0000 C   0  0  0  0  0  0  0  0  0  0  0  0
   -5.2875    2.5625    0.0000 C   0  0  0  0  0  0  0  0  0  0  0  0
   -6.0042    3.8000    0.0000 C   0  0  0  0  0  0  0  0  0  0  0  0
  -10.2667    1.3125    0.0000 C   0  0  0  0  0  0  0  0  0  0  0  0
  -10.2750    2.1458    0.0000 C   0  0  0  0  0  0  0  0  0  0  0  0
  2  1  1  0  0  0  0
  3  4  2  0  0  0  0
  4  1  1  0  0  0  0
  5  2  1  0  0  0  0
  6  8  1  0  0  0  0
  7  3  1  0  0  0  0
  8 10  1  0  0  0  0
  9 12  1  0  0  0  0
 10 11  2  0  0  0  0
 11  9  1  0  0  0  0
 12 24  1  0  0  0  0
 13  1  1  0  0  0  0
 14 21  1  0  0  0  0
 15  7  1  0  0  0  0
 16  2  2  0  0  0  0
 17  6  1  0  0  0  0
 18  6  2  0  0  0  0
 19  9  2  0  0  0  0
 20 11  1  0  0  0  0
 21 20  2  0  0  0  0
 22 13  1  0  0  0  0
 23 13  2  0  0  0  0
 24 28  2  0  0  0  0
 25  4  1  0  0  0  0
 26 14  1  0  0  0  0
 27  5  1  0  0  0  0
 28 23  1  0  0  0  0
 29 22  2  0  0  0  0
 30 15  2  0  0  0  0
 31 27  2  0  0  0  0
 24 29  1  0  0  0  0
  5  7  2  0  0  0  0
 31 30  1  0  0  0  0
  8 14  2  0  0  0  0
M  CHG  2   6   1  17  -1
M  END
> <IDNUMBER>
F2224-0019

> <Chemical_Name>
4-chloro-N-(4-{2-methyl-4-oxo-3H,4H-pyrido[2,3-d]pyrimidin-3-yl}phenyl)-3-nitrobenzamide

> <CAS>
1005304-34-6

> <PriceCoeff>
1.00

> <MW>
435.82

> <Description>
solid

> <FSP3>
0.05

> <clogP>
3.42

> <TPSA>
117.80

> <Acceptor>
6

> <Donor>
2

> <RotBonds>
4

> <HAC>
31

> <Collection>
General

$$$$
F6782-0676
  -ISIS-  06222321442D

 19 21  0  0  0  0  0  0  0  0999 V2000
    5.8875   -5.4792    0.0000 C   0  0  0  0  0  0  0  0  0  0  0  0
    5.8875   -4.6500    0.0000 N   0  0  3  0  0  0  0  0  0  0  0  0
    6.6750   -5.7375    0.0000 C   0  0  0  0  0  0  0  0  0  0  0  0
    6.6750   -4.3917    0.0000 N   0  0  0  0  0  0  0  0  0  0  0  0
    7.1625   -5.0667    0.0000 N   0  0  0  0  0  0  0  0  0  0  0  0
    6.8917   -6.5375    0.0000 C   0  0  0  0  0  0  0  0  0  0  0  0
    5.1667   -4.2292    0.0000 C   0  0  0  0  0  0  0  0  0  0  0  0
    5.2125   -5.9750    0.0000 N   0  0  0  0  0  0  0  0  0  0  0  0
    6.3125   -7.1292    0.0000 C   0  0  0  0  0  0  0  0  0  0  0  0
    6.5292   -7.9167    0.0000 C   0  0  0  0  0  0  0  0  0  0  0  0
    5.9417   -8.4917    0.0000 Cl  0  0  0  0  0  0  0  0  0  0  0  0
    7.6917   -6.7417    0.0000 C   0  0  0  0  0  0  0  0  0  0  0  0
    7.9167   -7.5417    0.0000 C   0  0  0  0  0  0  0  0  0  0  0  0
    4.4500   -4.6500    0.0000 C   0  0  0  0  0  0  0  0  0  0  0  0
    5.1667   -3.4000    0.0000 C   0  0  0  0  0  0  0  0  0  0  0  0
    7.3292   -8.1292    0.0000 C   0  0  0  0  0  0  0  0  0  0  0  0
    4.4500   -2.9875    0.0000 C   0  0  0  0  0  0  0  0  0  0  0  0
    3.7292   -4.2375    0.0000 C   0  0  0  0  0  0  0  0  0  0  0  0
    3.7292   -3.4000    0.0000 C   0  0  0  0  0  0  0  0  0  0  0  0
  2  1  1  0  0  0  0
  3  1  2  0  0  0  0
  4  2  1  0  0  0  0
  5  3  1  0  0  0  0
  6  3  1  0  0  0  0
  7  2  1  0  0  0  0
  8  1  1  0  0  0  0
  9  6  2  0  0  0  0
 10  9  1  0  0  0  0
 11 10  1  0  0  0  0
 12  6  1  0  0  0  0
 13 12  2  0  0  0  0
 14  7  2  0  0  0  0
 15  7  1  0  0  0  0
 16 13  1  0  0  0  0
 17 15  2  0  0  0  0
 18 14  1  0  0  0  0
 19 17  1  0  0  0  0
  5  4  2  0  0  0  0
 10 16  2  0  0  0  0
 19 18  2  0  0  0  0
M  END
> <IDNUMBER>
F6782-0676

> <Chemical_Name>
4-(3-chlorophenyl)-1-phenyl-1H-1,2,3-triazol-5-amine

> <CAS>
126158-50-7

> <PriceCoeff>
1.00

> <MW>
270.72

> <Description>
solid

> <FSP3>
0.00

> <clogP>
3.73

> <TPSA>
56.73

> <Acceptor>
2

> <Donor>
1

> <RotBonds>
2

> <HAC>
19

> <Collection>
General

> <Reference_compound>
CHEMBL235787

> <Similarity>
0.8160

$$$$
F1360-0674
  -ISIS-  06222321142D

 31 35  0  0  0  0  0  0  0  0999 V2000
   -1.4833    1.1000    0.0000 C   0  0  0  0  0  0  0  0  0  0  0  0
   -1.3708    0.6958    0.0000 C   0  0  0  0  0  0  0  0  0  0  0  0
   -0.7333    1.2958    0.0000 N   0  0  3  0  0  0  0  0  0  0  0  0
   -0.6208    0.8833    0.0000 C   0  0  0  0  0  0  0  0  0  0  0  0
   -0.9458    0.5708    0.0000 N   0  0  0  0  0  0  0  0  0  0  0  0
   -1.1625    1.4125    0.0000 C   0  0  0  0  0  0  0  0  0  0  0  0
   -1.7333    0.4625    0.0000 S   0  0  0  0  0  0  0  0  0  0  0  0
   -1.9208    1.1000    0.0000 C   0  0  0  0  0  0  0  0  0  0  0  0
   -2.0625    0.7000    0.0000 C   0  0  0  0  0  0  0  0  0  0  0  0
   -0.1958    0.7708    0.0000 S   0  0  0  0  0  0  0  0  0  0  0  0
   -0.4333    1.6000    0.0000 C   0  0  0  0  0  0  0  0  0  0  0  0
   -1.2958    1.8458    0.0000 O   0  0  0  0  0  0  0  0  0  0  0  0
    0.5500    0.9958    0.0000 C   0  0  0  0  0  0  0  0  0  0  0  0
    0.8667    1.3000    0.0000 C   0  0  0  0  0  0  0  0  0  0  0  0
    0.1042    1.0958    0.0000 C   0  0  0  0  0  0  0  0  0  0  0  0
    0.6542    0.5500    0.0000 O   0  0  0  0  0  0  0  0  0  0  0  0
    0.7542    1.7208    0.0000 C   0  0  0  0  0  0  0  0  0  0  0  0
    1.3000    1.1708    0.0000 C   0  0  0  0  0  0  0  0  0  0  0  0
    1.5042    1.9125    0.0000 C   0  0  0  0  0  0  0  0  0  0  0  0
   -2.2125    1.4458    0.0000 C   0  0  0  0  0  0  0  0  0  0  0  0
    1.6167    1.4708    0.0000 C   0  0  0  0  0  0  0  0  0  0  0  0
    1.0792    2.0333    0.0000 C   0  0  0  0  0  0  0  0  0  0  0  0
   -2.4958    0.6125    0.0000 C   0  0  0  0  0  0  0  0  0  0  0  0
    1.8500    2.2125    0.0000 Cl  0  0  0  0  0  0  0  0  0  0  0  0
   -0.0625    1.3708    0.0000 C   0  0  0  0  0  0  0  0  0  0  0  0
   -0.4333    2.0458    0.0000 C   0  0  0  0  0  0  0  0  0  0  0  0
   -2.6458    1.3333    0.0000 C   0  0  0  0  0  0  0  0  0  0  0  0
   -2.8000    0.9333    0.0000 C   0  0  0  0  0  0  0  0  0  0  0  0
    0.3167    1.5958    0.0000 C   0  0  0  0  0  0  0  0  0  0  0  0
   -0.0625    2.2500    0.0000 C   0  0  0  0  0  0  0  0  0  0  0  0
    0.3167    2.0333    0.0000 C   0  0  0  0  0  0  0  0  0  0  0  0
  2  1  2  0  0  0  0
  3  6  1  0  0  0  0
  4  3  1  0  0  0  0
  5  2  1  0  0  0  0
  6  1  1  0  0  0  0
  7  2  1  0  0  0  0
  8  1  1  0  0  0  0
  9  8  2  0  0  0  0
 10  4  1  0  0  0  0
 11  3  1  0  0  0  0
 12  6  2  0  0  0  0
 13 15  1  0  0  0  0
 14 13  1  0  0  0  0
 15 10  1  0  0  0  0
 16 13  2  0  0  0  0
 17 14  2  0  0  0  0
 18 14  1  0  0  0  0
 19 21  1  0  0  0  0
 20  8  1  0  0  0  0
 21 18  2  0  0  0  0
 22 17  1  0  0  0  0
 23  9  1  0  0  0  0
 24 19  1  0  0  0  0
 25 11  1  0  0  0  0
 26 11  2  0  0  0  0
 27 20  1  0  0  0  0
 28 27  1  0  0  0  0
 29 25  2  0  0  0  0
 30 26  1  0  0  0  0
 31 30  2  0  0  0  0
  7  9  1  0  0  0  0
  4  5  2  0  0  0  0
 28 23  1  0  0  0  0
 29 31  1  0  0  0  0
 22 19  2  0  0  0  0
M  END
> <IDNUMBER>
F1360-0674

> <Chemical_Name>
5-{[2-(4-chlorophenyl)-2-oxoethyl]sulfanyl}-4-phenyl-8-thia-4,6-diazatricyclo[7.4.0.0^{2,7}]trideca-1(9),2(7),5-trien-3-one

> <CAS>
330449-42-8

> <PriceCoeff>
1.00

> <MW>
467.00

> <Description>
solid

> <FSP3>
0.21

> <clogP>
6.88

> <TPSA>
103.28

> <Acceptor>
3

> <Donor>
0

> <RotBonds>
5

> <HAC>
31

> <Collection>
General

> <Reference_compound>
CHEMBL577016

> <Similarity>
0.8140

$$$$
F3386-4508
  -ISIS-  06222321152D

 18 19  0  0  0  0  0  0  0  0999 V2000
    5.2625   -2.0167    0.0000 S   0  0  3  0  0  0  0  0  0  0  0  0
    6.0875   -2.0167    0.0000 O   0  0  0  0  0  0  0  0  0  0  0  0
    6.9125   -2.0167    0.0000 C   0  0  0  0  0  0  0  0  0  0  0  0
    4.4375   -2.0125    0.0000 C   0  0  0  0  0  0  0  0  0  0  0  0
    5.2625   -1.1917    0.0000 O   0  0  0  0  0  0  0  0  0  0  0  0
    5.2542   -2.8417    0.0000 O   0  0  0  0  0  0  0  0  0  0  0  0
    7.3167   -2.7292    0.0000 C   0  0  0  0  0  0  0  0  0  0  0  0
    4.0292   -1.2917    0.0000 C   0  0  0  0  0  0  0  0  0  0  0  0
    4.0250   -2.7167    0.0000 C   0  0  0  0  0  0  0  0  0  0  0  0
    2.7875   -2.0000    0.0000 C   0  0  0  0  0  0  0  0  0  0  0  0
    6.9042   -3.4417    0.0000 Cl  0  0  0  0  0  0  0  0  0  0  0  0
    3.2042   -1.2875    0.0000 C   0  0  0  0  0  0  0  0  0  0  0  0
    3.2000   -2.7167    0.0000 C   0  0  0  0  0  0  0  0  0  0  0  0
    1.9625   -1.9917    0.0000 Br  0  0  0  0  0  0  0  0  0  0  0  0
    7.3167   -1.3042    0.0000 C   0  0  0  0  0  0  0  0  0  0  0  0
    8.1417   -2.7292    0.0000 C   0  0  0  0  0  0  0  0  0  0  0  0
    8.1417   -1.3000    0.0000 C   0  0  0  0  0  0  0  0  0  0  0  0
    8.5542   -2.0167    0.0000 C   0  0  0  0  0  0  0  0  0  0  0  0
  2  1  1  0  0  0  0
  3  2  1  0  0  0  0
  4  1  1  0  0  0  0
  5  1  2  0  0  0  0
  6  1  2  0  0  0  0
  7  3  2  0  0  0  0
  8  4  2  0  0  0  0
  9  4  1  0  0  0  0
 10 13  1  0  0  0  0
 11  7  1  0  0  0  0
 12  8  1  0  0  0  0
 13  9  2  0  0  0  0
 14 10  1  0  0  0  0
 15  3  1  0  0  0  0
 16  7  1  0  0  0  0
 17 15  2  0  0  0  0
 18 17  1  0  0  0  0
 12 10  2  0  0  0  0
 16 18  2  0  0  0  0
M  END
> <IDNUMBER>
F3386-4508

> <Chemical_Name>
2-chlorophenyl 4-bromobenzene-1-sulfonate

> <CAS>
7463-27-6

> <PriceCoeff>
1.00

> <MW>
347.61

> <Description>
solid

> <FSP3>
0.00

> <clogP>
4.58

> <TPSA>
51.75

> <Acceptor>
3

> <Donor>
0

> <RotBonds>
3

> <HAC>
18

> <Collection>
General

> <Reference_compound>
PRI3215

> <Similarity>
0.8320

$$$$
F3139-1513
  -ISIS-  06222321462D

 30 33  0  0  0  0  0  0  0  0999 V2000
    2.2792    0.3458    0.0000 C   0  0  0  0  0  0  0  0  0  0  0  0
    1.5625   -0.0667    0.0000 C   0  0  0  0  0  0  0  0  0  0  0  0
    0.8500    0.3458    0.0000 C   0  0  0  0  0  0  0  0  0  0  0  0
    2.2792    1.1708    0.0000 C   0  0  0  0  0  0  0  0  0  0  0  0
    0.8500    1.1708    0.0000 C   0  0  0  0  0  0  0  0  0  0  0  0
    2.9917   -0.0667    0.0000 C   0  0  0  0  0  0  0  0  0  0  0  0
    1.5625    1.5833    0.0000 O   0  0  0  0  0  0  0  0  0  0  0  0
   -2.0125    1.1625    0.0000 C   0  0  0  0  0  0  0  0  0  0  0  0
    0.1375    1.5833    0.0000 C   0  0  0  0  0  0  0  0  0  0  0  0
    3.7042    0.3458    0.0000 C   0  0  0  0  0  0  0  0  0  0  0  0
   -1.3000    1.5833    0.0000 O   0  0  0  0  0  0  0  0  0  0  0  0
    0.1375   -0.0667    0.0000 C   0  0  0  0  0  0  0  0  0  0  0  0
    4.4167   -0.0667    0.0000 C   0  0  0  0  0  0  0  0  0  0  0  0
   -0.5833    1.1625    0.0000 C   0  0  0  0  0  0  0  0  0  0  0  0
    1.5625   -0.8917    0.0000 O   0  0  0  0  0  0  0  0  0  0  0  0
    4.4167   -0.8917    0.0000 C   0  0  0  0  0  0  0  0  0  0  0  0
   -2.0083    0.3333    0.0000 O   0  0  0  0  0  0  0  0  0  0  0  0
    2.9917   -0.8917    0.0000 C   0  0  0  0  0  0  0  0  0  0  0  0
   -2.7250    1.5708    0.0000 C   0  0  0  0  0  0  0  0  0  0  0  0
    3.7042   -1.3042    0.0000 C   0  0  0  0  0  0  0  0  0  0  0  0
   -0.5833    0.3458    0.0000 C   0  0  0  0  0  0  0  0  0  0  0  0
    5.1292    0.3458    0.0000 O   0  0  0  0  0  0  0  0  0  0  0  0
    5.1292   -1.3042    0.0000 O   0  0  0  0  0  0  0  0  0  0  0  0
   -2.7333    2.3958    0.0000 C   0  0  0  0  0  0  0  0  0  0  0  0
   -3.4333    1.1583    0.0000 C   0  0  0  0  0  0  0  0  0  0  0  0
    5.1292    1.1708    0.0000 C   0  0  0  0  0  0  0  0  0  0  0  0
    5.8417   -0.8917    0.0000 C   0  0  0  0  0  0  0  0  0  0  0  0
   -4.1583    1.5583    0.0000 C   0  0  0  0  0  0  0  0  0  0  0  0
   -3.4458    2.8083    0.0000 C   0  0  0  0  0  0  0  0  0  0  0  0
   -4.1583    2.3958    0.0000 C   0  0  0  0  0  0  0  0  0  0  0  0
  2  1  1  0  0  0  0
  3  2  1  0  0  0  0
  4  1  2  0  0  0  0
  5  7  1  0  0  0  0
  6  1  1  0  0  0  0
  7  4  1  0  0  0  0
  8 11  1  0  0  0  0
  9  5  2  0  0  0  0
 10  6  1  0  0  0  0
 11 14  1  0  0  0  0
 12  3  2  0  0  0  0
 13 10  2  0  0  0  0
 14  9  1  0  0  0  0
 15  2  2  0  0  0  0
 16 20  2  0  0  0  0
 17  8  2  0  0  0  0
 18  6  2  0  0  0  0
 19  8  1  0  0  0  0
 20 18  1  0  0  0  0
 21 12  1  0  0  0  0
 22 13  1  0  0  0  0
 23 16  1  0  0  0  0
 24 19  2  0  0  0  0
 25 19  1  0  0  0  0
 26 22  1  0  0  0  0
 27 23  1  0  0  0  0
 28 25  2  0  0  0  0
 29 24  1  0  0  0  0
 30 28  1  0  0  0  0
  3  5  1  0  0  0  0
 16 13  1  0  0  0  0
 21 14  2  0  0  0  0
 30 29  2  0  0  0  0
M  END
> <IDNUMBER>
F3139-1513

> <Chemical_Name>
3-(3,4-dimethoxyphenyl)-4-oxo-4H-chromen-7-yl benzoate

> <CAS>
637749-68-9

> <PriceCoeff>
1.00

> <MW>
402.40

> <Description>
solid

> <FSP3>
0.08

> <clogP>
4.31

> <TPSA>
71.06

> <Acceptor>
6

> <Donor>
0

> <RotBonds>
6

> <HAC>
30

> <Collection>
General

> <Reference_compound>
CHEMBL455048

> <Similarity>
0.8450

$$$$
F0808-1896
  -ISIS-  06222321452D

 23 25  0  0  0  0  0  0  0  0999 V2000
   -1.0208    0.3958    0.0000 S   0  0  3  0  0  0  0  0  0  0  0  0
   -1.0208    0.0125    0.0000 N   0  0  0  0  0  0  0  0  0  0  0  0
   -0.6833   -0.1875    0.0000 C   0  0  0  0  0  0  0  0  0  0  0  0
    0.0000   -0.5875    0.0000 C   0  0  0  0  0  0  0  0  0  0  0  0
   -0.3458   -0.7875    0.0000 C   0  0  0  0  0  0  0  0  0  0  0  0
   -0.3458   -0.0042    0.0000 C   0  0  0  0  0  0  0  0  0  0  0  0
    0.0000   -0.2042    0.0000 C   0  0  0  0  0  0  0  0  0  0  0  0
   -0.6833   -0.5875    0.0000 C   0  0  0  0  0  0  0  0  0  0  0  0
   -1.0208    0.7958    0.0000 C   0  0  0  0  0  0  0  0  0  0  0  0
   -1.4208    0.3958    0.0000 O   0  0  0  0  0  0  0  0  0  0  0  0
   -0.6208    0.3958    0.0000 O   0  0  0  0  0  0  0  0  0  0  0  0
   -1.3625    0.9708    0.0000 C   0  0  0  0  0  0  0  0  0  0  0  0
   -0.6833    0.9708    0.0000 C   0  0  0  0  0  0  0  0  0  0  0  0
    0.3542   -0.0292    0.0000 Cl  0  0  0  0  0  0  0  0  0  0  0  0
    0.3375   -0.7667    0.0000 O   0  0  0  0  0  0  0  0  0  0  0  0
   -1.0208    1.5500    0.0000 C   0  0  0  0  0  0  0  0  0  0  0  0
   -0.6833    1.3500    0.0000 C   0  0  0  0  0  0  0  0  0  0  0  0
   -1.3625    1.3708    0.0000 C   0  0  0  0  0  0  0  0  0  0  0  0
   -0.9958    1.9958    0.0000 F   0  0  0  0  0  0  0  0  0  0  0  0
   -0.3458   -1.1667    0.0000 C   0  0  0  0  0  0  0  0  0  0  0  0
   -1.0208   -0.7875    0.0000 C   0  0  0  0  0  0  0  0  0  0  0  0
   -0.6833   -1.3667    0.0000 C   0  0  0  0  0  0  0  0  0  0  0  0
   -1.0458   -1.1667    0.0000 C   0  0  0  0  0  0  0  0  0  0  0  0
  2  1  1  0  0  0  0
  3  2  1  0  0  0  0
  4  5  1  0  0  0  0
  5  8  2  0  0  0  0
  6  3  2  0  0  0  0
  7  6  1  0  0  0  0
  8  3  1  0  0  0  0
  9  1  1  0  0  0  0
 10  1  2  0  0  0  0
 11  1  2  0  0  0  0
 12  9  1  0  0  0  0
 13  9  2  0  0  0  0
 14  7  1  0  0  0  0
 15  4  1  0  0  0  0
 16 17  2  0  0  0  0
 17 13  1  0  0  0  0
 18 12  2  0  0  0  0
 19 16  1  0  0  0  0
 20  5  1  0  0  0  0
 21  8  1  0  0  0  0
 22 23  1  0  0  0  0
 23 21  2  0  0  0  0
 16 18  1  0  0  0  0
  4  7  2  0  0  0  0
 22 20  2  0  0  0  0
M  END
> <IDNUMBER>
F0808-1896

> <Chemical_Name>
N-(3-chloro-4-hydroxynaphthalen-1-yl)-4-fluorobenzene-1-sulfonamide

> <CAS>
425410-79-3

> <PriceCoeff>
1.00

> <MW>
351.78

> <Description>
solid

> <FSP3>
0.00

> <clogP>
4.23

> <TPSA>
74.78

> <Acceptor>
4

> <Donor>
2

> <RotBonds>
3

> <HAC>
23

> <Collection>
General

$$$$
F3139-1236
  -ISIS-  06222321462D

 28 31  0  0  0  0  0  0  0  0999 V2000
    4.8500   -2.3000    0.0000 C   0  0  0  0  0  0  0  0  0  0  0  0
    4.1250   -2.7125    0.0000 C   0  0  0  0  0  0  0  0  0  0  0  0
    3.4042   -2.3000    0.0000 C   0  0  0  0  0  0  0  0  0  0  0  0
    4.8500   -1.4667    0.0000 C   0  0  0  0  0  0  0  0  0  0  0  0
    3.4125   -1.4667    0.0000 C   0  0  0  0  0  0  0  0  0  0  0  0
    4.1292   -1.0417    0.0000 O   0  0  0  0  0  0  0  0  0  0  0  0
    0.5500   -1.4625    0.0000 C   0  0  0  0  0  0  0  0  0  0  0  0
    2.6917   -1.0542    0.0000 C   0  0  0  0  0  0  0  0  0  0  0  0
    1.2667   -1.0542    0.0000 O   0  0  0  0  0  0  0  0  0  0  0  0
   -0.1625   -1.0500    0.0000 C   0  0  0  0  0  0  0  0  0  0  0  0
    2.6917   -2.7042    0.0000 C   0  0  0  0  0  0  0  0  0  0  0  0
    5.5625   -2.7167    0.0000 C   0  0  0  0  0  0  0  0  0  0  0  0
    1.9792   -1.4667    0.0000 C   0  0  0  0  0  0  0  0  0  0  0  0
    4.1250   -3.5375    0.0000 O   0  0  0  0  0  0  0  0  0  0  0  0
    0.5500   -2.2875    0.0000 O   0  0  0  0  0  0  0  0  0  0  0  0
   -0.8708   -1.4625    0.0000 C   0  0  0  0  0  0  0  0  0  0  0  0
    1.9792   -2.2917    0.0000 C   0  0  0  0  0  0  0  0  0  0  0  0
   -1.5875   -1.0542    0.0000 C   0  0  0  0  0  0  0  0  0  0  0  0
   -2.2958   -1.4667    0.0000 O   0  0  0  0  0  0  0  0  0  0  0  0
   -0.1583   -0.2167    0.0000 C   0  0  0  0  0  0  0  0  0  0  0  0
   -0.8708    0.1875    0.0000 C   0  0  0  0  0  0  0  0  0  0  0  0
    5.5542   -3.5417    0.0000 C   0  0  0  0  0  0  0  0  0  0  0  0
    6.2667   -2.3042    0.0000 C   0  0  0  0  0  0  0  0  0  0  0  0
   -1.5875   -0.2167    0.0000 C   0  0  0  0  0  0  0  0  0  0  0  0
   -2.2958   -2.2917    0.0000 C   0  0  0  0  0  0  0  0  0  0  0  0
    6.9792   -2.7167    0.0000 C   0  0  0  0  0  0  0  0  0  0  0  0
    6.2667   -3.9542    0.0000 C   0  0  0  0  0  0  0  0  0  0  0  0
    6.9792   -3.5417    0.0000 C   0  0  0  0  0  0  0  0  0  0  0  0
  2  1  1  0  0  0  0
  3  2  1  0  0  0  0
  4  1  2  0  0  0  0
  5  6  1  0  0  0  0
  6  4  1  0  0  0  0
  7  9  1  0  0  0  0
  8  5  2  0  0  0  0
  9 13  1  0  0  0  0
 10  7  1  0  0  0  0
 11  3  2  0  0  0  0
 12  1  1  0  0  0  0
 13  8  1  0  0  0  0
 14  2  2  0  0  0  0
 15  7  2  0  0  0  0
 16 10  1  0  0  0  0
 17 11  1  0  0  0  0
 18 16  2  0  0  0  0
 19 18  1  0  0  0  0
 20 10  2  0  0  0  0
 21 20  1  0  0  0  0
 22 12  2  0  0  0  0
 23 12  1  0  0  0  0
 24 21  2  0  0  0  0
 25 19  1  0  0  0  0
 26 23  2  0  0  0  0
 27 22  1  0  0  0  0
 28 26  1  0  0  0  0
  3  5  1  0  0  0  0
 28 27  2  0  0  0  0
 17 13  2  0  0  0  0
 24 18  1  0  0  0  0
M  END
> <IDNUMBER>
F3139-1236

> <Chemical_Name>
4-oxo-3-phenyl-4H-chromen-7-yl 3-methoxybenzoate

> <CAS>
451451-42-6

> <PriceCoeff>
1.00

> <MW>
372.37

> <Description>
solid

> <FSP3>
0.04

> <clogP>
4.82

> <TPSA>
61.83

> <Acceptor>
5

> <Donor>
0

> <RotBonds>
5

> <HAC>
28

> <Collection>
General

> <Reference_compound>
CHEMBL44

> <Similarity>
0.8230

$$$$
F1441-0672
  -ISIS-  06222321142D

 35 39  0  0  0  0  0  0  0  0999 V2000
    3.8542    3.4333    0.0000 C   0  0  0  0  0  0  0  0  0  0  0  0
    3.1000    3.0958    0.0000 C   0  0  0  0  0  0  0  0  0  0  0  0
    4.4417    2.1208    0.0000 N   0  0  3  0  0  0  0  0  0  0  0  0
    3.6875    1.7833    0.0000 C   0  0  0  0  0  0  0  0  0  0  0  0
    3.0167    2.2708    0.0000 N   0  0  0  0  0  0  0  0  0  0  0  0
    4.5292    2.9458    0.0000 C   0  0  0  0  0  0  0  0  0  0  0  0
    3.7667    4.2417    0.0000 C   0  0  0  0  0  0  0  0  0  0  0  0
    2.9625    4.4167    0.0000 C   0  0  0  0  0  0  0  0  0  0  0  0
    2.5500    3.7083    0.0000 S   0  0  0  0  0  0  0  0  0  0  0  0
    3.6792    0.9583    0.0000 S   0  0  0  0  0  0  0  0  0  0  0  0
    4.3167    4.8542    0.0000 C   0  0  0  0  0  0  0  0  0  0  0  0
    5.1042    1.6375    0.0000 C   0  0  0  0  0  0  0  0  0  0  0  0
    5.2875    3.2833    0.0000 O   0  0  0  0  0  0  0  0  0  0  0  0
    2.2500    0.9750    0.0000 C   0  0  0  0  0  0  0  0  0  0  0  0
    2.7042    5.1917    0.0000 C   0  0  0  0  0  0  0  0  0  0  0  0
    0.0917    2.2333    0.0000 C   0  0  0  0  0  0  0  0  0  0  0  0
    1.5250    0.5708    0.0000 N   0  0  0  0  0  0  0  0  0  0  0  0
    0.0917    3.0583    0.0000 C   0  0  0  0  0  0  0  0  0  0  0  0
    0.8042    1.8208    0.0000 C   0  0  0  0  0  0  0  0  0  0  0  0
    0.8042    0.9958    0.0000 C   0  0  0  0  0  0  0  0  0  0  0  0
    2.2542    1.8083    0.0000 O   0  0  0  0  0  0  0  0  0  0  0  0
   -0.6250    3.4708    0.0000 O   0  0  0  0  0  0  0  0  0  0  0  0
    2.9625    0.5583    0.0000 C   0  0  0  0  0  0  0  0  0  0  0  0
    4.0667    5.6375    0.0000 C   0  0  0  0  0  0  0  0  0  0  0  0
    3.2542    5.8125    0.0000 C   0  0  3  0  0  0  0  0  0  0  0  0
   -0.6250    1.8208    0.0000 C   0  0  0  0  0  0  0  0  0  0  0  0
   -0.6250    0.9958    0.0000 C   0  0  0  0  0  0  0  0  0  0  0  0
    0.0917    0.5833    0.0000 C   0  0  0  0  0  0  0  0  0  0  0  0
    0.8042    3.4708    0.0000 C   0  0  0  0  0  0  0  0  0  0  0  0
    5.8625    1.9750    0.0000 C   0  0  0  0  0  0  0  0  0  0  0  0
    5.0167    0.8208    0.0000 C   0  0  0  0  0  0  0  0  0  0  0  0
    3.0042    6.5917    0.0000 C   0  0  0  0  0  0  0  0  0  0  0  0
    6.5292    1.4958    0.0000 C   0  0  0  0  0  0  0  0  0  0  0  0
    5.6917    0.3333    0.0000 C   0  0  0  0  0  0  0  0  0  0  0  0
    6.4417    0.6708    0.0000 C   0  0  0  0  0  0  0  0  0  0  0  0
  2  1  2  0  0  0  0
  3  6  1  0  0  0  0
  4  3  1  0  0  0  0
  5  2  1  0  0  0  0
  6  1  1  0  0  0  0
  7  1  1  0  0  0  0
  8  7  2  0  0  0  0
  9  2  1  0  0  0  0
 10  4  1  0  0  0  0
 11  7  1  0  0  0  0
 12  3  1  0  0  0  0
 13  6  2  0  0  0  0
 14 23  1  0  0  0  0
 15  8  1  0  0  0  0
 16 19  1  0  0  0  0
 17 14  1  0  0  0  0
 18 16  1  0  0  0  0
 19 20  2  0  0  0  0
 20 17  1  0  0  0  0
 21 14  2  0  0  0  0
 22 18  2  0  0  0  0
 23 10  1  0  0  0  0
 24 11  1  0  0  0  0
 25 24  1  0  0  0  0
 26 27  1  0  0  0  0
 27 28  2  0  0  0  0
 28 20  1  0  0  0  0
 29 18  1  0  0  0  0
 30 12  1  0  0  0  0
 31 12  2  0  0  0  0
 32 25  1  0  0  0  0
 33 30  2  0  0  0  0
 34 31  1  0  0  0  0
 35 34  2  0  0  0  0
  9  8  1  0  0  0  0
  4  5  2  0  0  0  0
 15 25  1  0  0  0  0
 33 35  1  0  0  0  0
 26 16  2  0  0  0  0
M  END
> <IDNUMBER>
F1441-0672

> <Chemical_Name>
N-(3-acetylphenyl)-2-({11-methyl-3-oxo-4-phenyl-8-thia-4,6-diazatricyclo[7.4.0.0^{2,7}]trideca-1(9),2(7),5-trien-5-yl}sulfanyl)acetamide

> <CAS>
667913-08-8

> <PriceCoeff>
1.00

> <MW>
503.64

> <Description>
solid

> <FSP3>
0.26

> <clogP>
6.10

> <TPSA>
132.38

> <Acceptor>
4

> <Donor>
1

> <RotBonds>
6

> <HAC>
35

> <Collection>
General

> <Reference_compound>
CHEMBL577016

> <Similarity>
0.8170

$$$$
F1750-0030
  -ISIS-  06222321142D

 33 36  0  0  0  0  0  0  0  0999 V2000
   -1.7250    3.0833    0.0000 S   0  0  3  0  0  0  0  0  0  0  0  0
    3.9792   -1.0667    0.0000 N   0  0  3  0  0  0  0  0  0  0  0  0
   -2.4458    3.4958    0.0000 N   0  0  0  0  0  0  0  0  0  0  0  0
   -3.1583    3.0833    0.0000 C   0  0  0  0  0  0  0  0  0  0  0  0
    4.7250   -0.7042    0.0000 C   0  0  0  0  0  0  0  0  0  0  0  0
    4.1000   -1.8792    0.0000 C   0  0  0  0  0  0  0  0  0  0  0  0
    1.1250    0.6000    0.0000 C   0  0  0  0  0  0  0  0  0  0  0  0
   -3.1583    2.2458    0.0000 N   0  0  0  0  0  0  0  0  0  0  0  0
   -1.0125    2.6708    0.0000 C   0  0  0  0  0  0  0  0  0  0  0  0
    1.1250    1.4250    0.0000 N   0  0  0  0  0  0  0  0  0  0  0  0
    3.2625   -0.6500    0.0000 C   0  0  0  0  0  0  0  0  0  0  0  0
   -1.3208    3.8000    0.0000 O   0  0  0  0  0  0  0  0  0  0  0  0
   -2.1458    2.3708    0.0000 O   0  0  0  0  0  0  0  0  0  0  0  0
   -3.8708    3.4875    0.0000 N   0  0  0  0  0  0  0  0  0  0  0  0
    1.8375    0.1875    0.0000 C   0  0  0  0  0  0  0  0  0  0  0  0
    5.3000   -1.3042    0.0000 C   0  0  0  0  0  0  0  0  0  0  0  0
    4.9042   -2.0167    0.0000 C   0  0  0  0  0  0  0  0  0  0  0  0
    0.4042    0.1958    0.0000 O   0  0  0  0  0  0  0  0  0  0  0  0
    4.8792    0.1250    0.0000 O   0  0  0  0  0  0  0  0  0  0  0  0
    3.5042   -2.4542    0.0000 O   0  0  0  0  0  0  0  0  0  0  0  0
    3.2667    0.1875    0.0000 C   0  0  0  0  0  0  0  0  0  0  0  0
    2.5500   -1.0417    0.0000 C   0  0  0  0  0  0  0  0  0  0  0  0
    1.8417   -0.6292    0.0000 C   0  0  0  0  0  0  0  0  0  0  0  0
    2.5625    0.6083    0.0000 C   0  0  0  0  0  0  0  0  0  0  0  0
   -1.0208    1.8458    0.0000 C   0  0  0  0  0  0  0  0  0  0  0  0
   -0.3083    3.0833    0.0000 C   0  0  0  0  0  0  0  0  0  0  0  0
    0.4042    1.8458    0.0000 C   0  0  0  0  0  0  0  0  0  0  0  0
   -3.8708    1.8333    0.0000 C   0  0  0  0  0  0  0  0  0  0  0  0
   -4.5833    3.0833    0.0000 C   0  0  0  0  0  0  0  0  0  0  0  0
    0.4042    2.6708    0.0000 C   0  0  0  0  0  0  0  0  0  0  0  0
   -0.3083    1.4333    0.0000 C   0  0  0  0  0  0  0  0  0  0  0  0
   -4.5833    2.2458    0.0000 C   0  0  0  0  0  0  0  0  0  0  0  0
   -3.8708    1.0083    0.0000 C   0  0  0  0  0  0  0  0  0  0  0  0
  2 11  1  0  0  0  0
  3  1  1  0  0  0  0
  4  3  1  0  0  0  0
  5  2  1  0  0  0  0
  6  2  1  0  0  0  0
  7 10  1  0  0  0  0
  8  4  1  0  0  0  0
  9  1  1  0  0  0  0
 10 27  1  0  0  0  0
 11 21  1  0  0  0  0
 12  1  2  0  0  0  0
 13  1  2  0  0  0  0
 14  4  2  0  0  0  0
 15  7  1  0  0  0  0
 16  5  1  0  0  0  0
 17  6  1  0  0  0  0
 18  7  2  0  0  0  0
 19  5  2  0  0  0  0
 20  6  2  0  0  0  0
 21 24  2  0  0  0  0
 22 23  1  0  0  0  0
 23 15  2  0  0  0  0
 24 15  1  0  0  0  0
 25  9  2  0  0  0  0
 26  9  1  0  0  0  0
 27 30  1  0  0  0  0
 28  8  2  0  0  0  0
 29 14  1  0  0  0  0
 30 26  2  0  0  0  0
 31 25  1  0  0  0  0
 32 29  2  0  0  0  0
 33 28  1  0  0  0  0
 27 31  2  0  0  0  0
 28 32  1  0  0  0  0
 11 22  2  0  0  0  0
 17 16  1  0  0  0  0
M  END
> <IDNUMBER>
F1750-0030

> <Chemical_Name>
4-(2,5-dioxopyrrolidin-1-yl)-N-{4-[(4-methylpyrimidin-2-yl)sulfamoyl]phenyl}benzamide

> <CAS>
448240-56-0

> <PriceCoeff>
1.00

> <MW>
465.48

> <Description>
solid

> <FSP3>
0.14

> <clogP>
0.45

> <TPSA>
146.81

> <Acceptor>
7

> <Donor>
2

> <RotBonds>
6

> <HAC>
33

> <Collection>
General

$$$$
F0327-0364
  -ISIS-  06222321452D

 32 35  0  0  0  0  0  0  0  0999 V2000
   -1.6833   -0.3875    0.0000 C   0  0  0  0  0  0  0  0  0  0  0  0
   -1.7833   -1.1875    0.0000 C   0  0  0  0  0  0  0  0  0  0  0  0
   -0.4833   -0.9292    0.0000 C   0  0  0  0  0  0  0  0  0  0  0  0
   -2.3208    0.1708    0.0000 C   0  0  0  0  0  0  0  0  0  0  0  0
   -1.0458   -1.5292    0.0000 N   0  0  0  0  0  0  0  0  0  0  0  0
    4.0792   -0.2292    0.0000 N   0  0  3  0  0  0  0  0  0  0  0  0
   -0.8833   -0.2042    0.0000 S   0  0  0  0  0  0  0  0  0  0  0  0
    0.3542   -0.9292    0.0000 N   0  0  0  0  0  0  0  0  0  0  0  0
   -2.1625    0.9708    0.0000 C   0  0  3  0  0  0  0  0  0  0  0  0
    0.7667   -0.2292    0.0000 C   0  0  0  0  0  0  0  0  0  0  0  0
   -2.5458   -1.5042    0.0000 C   0  0  0  0  0  0  0  0  0  0  0  0
    4.5000   -0.9292    0.0000 C   0  0  0  0  0  0  0  0  0  0  0  0
    4.6375    0.3958    0.0000 C   0  0  0  0  0  0  0  0  0  0  0  0
    3.2542   -0.2292    0.0000 C   0  0  0  0  0  0  0  0  0  0  0  0
   -2.8208   -2.2875    0.0000 S   0  0  0  0  0  0  0  0  0  0  0  0
    1.6000   -0.2292    0.0000 C   0  0  0  0  0  0  0  0  0  0  0  0
   -3.1000   -0.1042    0.0000 O   0  0  0  0  0  0  0  0  0  0  0  0
   -3.2000   -1.0292    0.0000 C   0  0  0  0  0  0  0  0  0  0  0  0
    0.3542    0.5125    0.0000 O   0  0  0  0  0  0  0  0  0  0  0  0
    5.4000    0.0500    0.0000 C   0  0  0  0  0  0  0  0  0  0  0  0
    5.3000   -0.7667    0.0000 C   0  0  0  0  0  0  0  0  0  0  0  0
    4.5000    1.2333    0.0000 O   0  0  0  0  0  0  0  0  0  0  0  0
    4.1542   -1.7042    0.0000 O   0  0  0  0  0  0  0  0  0  0  0  0
   -3.6458   -2.2875    0.0000 C   0  0  0  0  0  0  0  0  0  0  0  0
   -3.8833   -1.5042    0.0000 C   0  0  0  0  0  0  0  0  0  0  0  0
   -2.0000    1.7958    0.0000 F   0  0  0  0  0  0  0  0  0  0  0  0
   -1.3458    0.8125    0.0000 F   0  0  0  0  0  0  0  0  0  0  0  0
   -2.9625    1.1333    0.0000 F   0  0  0  0  0  0  0  0  0  0  0  0
    2.8375   -0.9500    0.0000 C   0  0  0  0  0  0  0  0  0  0  0  0
    2.8375    0.4958    0.0000 C   0  0  0  0  0  0  0  0  0  0  0  0
    2.0167   -0.9500    0.0000 C   0  0  0  0  0  0  0  0  0  0  0  0
    2.0167    0.4958    0.0000 C   0  0  0  0  0  0  0  0  0  0  0  0
  2  1  2  0  0  0  0
  3  7  1  0  0  0  0
  4  1  1  0  0  0  0
  5  2  1  0  0  0  0
  6 14  1  0  0  0  0
  7  1  1  0  0  0  0
  8  3  1  0  0  0  0
  9  4  1  0  0  0  0
 10  8  1  0  0  0  0
 11  2  1  0  0  0  0
 12  6  1  0  0  0  0
 13  6  1  0  0  0  0
 14 30  1  0  0  0  0
 15 11  1  0  0  0  0
 16 10  1  0  0  0  0
 17  4  2  0  0  0  0
 18 11  2  0  0  0  0
 19 10  2  0  0  0  0
 20 13  1  0  0  0  0
 21 12  1  0  0  0  0
 22 13  2  0  0  0  0
 23 12  2  0  0  0  0
 24 15  1  0  0  0  0
 25 18  1  0  0  0  0
 26  9  1  0  0  0  0
 27  9  1  0  0  0  0
 28  9  1  0  0  0  0
 29 31  1  0  0  0  0
 30 32  2  0  0  0  0
 31 16  2  0  0  0  0
 32 16  1  0  0  0  0
  5  3  2  0  0  0  0
 24 25  2  0  0  0  0
 29 14  2  0  0  0  0
 21 20  1  0  0  0  0
M  END
> <IDNUMBER>
F0327-0364

> <Chemical_Name>
4-(2,5-dioxopyrrolidin-1-yl)-N-[4-(thiophen-2-yl)-5-(2,2,2-trifluoroacetyl)-1,3-thiazol-2-yl]benzamide

> <CAS>
329905-74-0

> <PriceCoeff>
1.00

> <MW>
479.45

> <Description>
solid

> <FSP3>
0.15

> <clogP>
2.41

> <TPSA>
152.92

> <Acceptor>
5

> <Donor>
1

> <RotBonds>
5

> <HAC>
32

> <Collection>
General

$$$$
F0700-0163
  -ISIS-  06222321452D

 32 35  0  0  0  0  0  0  0  0999 V2000
    1.4042   -0.0542    0.0000 C   0  0  0  0  0  0  0  0  0  0  0  0
    1.0042    0.6458    0.0000 C   0  0  0  0  0  0  0  0  0  0  0  0
    2.3167    0.9208    0.0000 C   0  0  0  0  0  0  0  0  0  0  0  0
    1.0625   -0.8375    0.0000 C   0  0  0  0  0  0  0  0  0  0  0  0
    4.8667   -1.8750    0.0000 N   0  0  3  0  0  0  0  0  0  0  0  0
    1.5292    1.2708    0.0000 N   0  0  0  0  0  0  0  0  0  0  0  0
    2.2292    0.1083    0.0000 S   0  0  0  0  0  0  0  0  0  0  0  0
    3.0792    1.2708    0.0000 N   0  0  0  0  0  0  0  0  0  0  0  0
    0.2375   -0.9167    0.0000 C   0  0  3  0  0  0  0  0  0  0  0  0
    4.2042   -1.3667    0.0000 C   0  0  0  0  0  0  0  0  0  0  0  0
    3.7292    0.7708    0.0000 C   0  0  0  0  0  0  0  0  0  0  0  0
    4.8667   -2.6917    0.0000 C   0  0  0  0  0  0  0  0  0  0  0  0
    5.6500   -1.6250    0.0000 C   0  0  0  0  0  0  0  0  0  0  0  0
    0.1792    0.6875    0.0000 C   0  0  0  0  0  0  0  0  0  0  0  0
    4.3042   -0.5500    0.0000 C   0  0  0  0  0  0  0  0  0  0  0  0
    3.6417   -0.0542    0.0000 C   0  0  0  0  0  0  0  0  0  0  0  0
   -0.2208    1.3958    0.0000 S   0  0  0  0  0  0  0  0  0  0  0  0
    1.5292   -1.4917    0.0000 O   0  0  0  0  0  0  0  0  0  0  0  0
   -0.3583    0.0458    0.0000 C   0  0  0  0  0  0  0  0  0  0  0  0
    4.4917    1.1125    0.0000 O   0  0  0  0  0  0  0  0  0  0  0  0
    5.6500   -2.9417    0.0000 C   0  0  0  0  0  0  0  0  0  0  0  0
    6.1250   -2.2792    0.0000 C   0  0  0  0  0  0  0  0  0  0  0  0
    4.2042   -3.1917    0.0000 O   0  0  0  0  0  0  0  0  0  0  0  0
    5.9042   -0.8042    0.0000 O   0  0  0  0  0  0  0  0  0  0  0  0
   -1.0583    1.1833    0.0000 C   0  0  0  0  0  0  0  0  0  0  0  0
   -1.1375    0.3958    0.0000 C   0  0  0  0  0  0  0  0  0  0  0  0
   -0.5125   -0.9917    0.0000 F   0  0  0  0  0  0  0  0  0  0  0  0
   -0.3708   -0.3042    0.0000 F   0  0  0  0  0  0  0  0  0  0  0  0
   -0.2333   -1.6375    0.0000 F   0  0  0  0  0  0  0  0  0  0  0  0
    3.4500   -1.6792    0.0000 C   0  0  0  0  0  0  0  0  0  0  0  0
    2.8875   -0.3667    0.0000 C   0  0  0  0  0  0  0  0  0  0  0  0
    2.7917   -1.1792    0.0000 C   0  0  0  0  0  0  0  0  0  0  0  0
  2  1  2  0  0  0  0
  3  7  1  0  0  0  0
  4  1  1  0  0  0  0
  5 10  1  0  0  0  0
  6  2  1  0  0  0  0
  7  1  1  0  0  0  0
  8  3  1  0  0  0  0
  9  4  1  0  0  0  0
 10 15  2  0  0  0  0
 11  8  1  0  0  0  0
 12  5  1  0  0  0  0
 13  5  1  0  0  0  0
 14  2  1  0  0  0  0
 15 16  1  0  0  0  0
 16 11  1  0  0  0  0
 17 14  1  0  0  0  0
 18  4  2  0  0  0  0
 19 14  2  0  0  0  0
 20 11  2  0  0  0  0
 21 12  1  0  0  0  0
 22 13  1  0  0  0  0
 23 12  2  0  0  0  0
 24 13  2  0  0  0  0
 25 17  1  0  0  0  0
 26 19  1  0  0  0  0
 27  9  1  0  0  0  0
 28  9  1  0  0  0  0
 29  9  1  0  0  0  0
 30 32  2  0  0  0  0
 31 16  2  0  0  0  0
 32 31  1  0  0  0  0
  3  6  2  0  0  0  0
 25 26  2  0  0  0  0
 10 30  1  0  0  0  0
 22 21  1  0  0  0  0
M  END
> <IDNUMBER>
F0700-0163

> <Chemical_Name>
3-(2,5-dioxopyrrolidin-1-yl)-N-[4-(thiophen-2-yl)-5-(2,2,2-trifluoroacetyl)-1,3-thiazol-2-yl]benzamide

> <CAS>
393837-57-5

> <PriceCoeff>
1.00

> <MW>
479.45

> <Description>
solid

> <FSP3>
0.15

> <clogP>
2.41

> <TPSA>
152.92

> <Acceptor>
5

> <Donor>
1

> <RotBonds>
5

> <HAC>
32

> <Collection>
General

$$$$
F1750-0116
  -ISIS-  06222321142D

 34 37  0  0  0  0  0  0  0  0999 V2000
   -1.0083    3.0833    0.0000 S   0  0  3  0  0  0  0  0  0  0  0  0
    4.6917   -1.0750    0.0000 N   0  0  3  0  0  0  0  0  0  0  0  0
   -1.7250    3.4958    0.0000 N   0  0  0  0  0  0  0  0  0  0  0  0
   -2.4375    3.0833    0.0000 C   0  0  0  0  0  0  0  0  0  0  0  0
    5.4375   -0.7125    0.0000 C   0  0  0  0  0  0  0  0  0  0  0  0
    4.8042   -1.8792    0.0000 C   0  0  0  0  0  0  0  0  0  0  0  0
    1.8417    0.6000    0.0000 C   0  0  0  0  0  0  0  0  0  0  0  0
   -3.1583    3.4875    0.0000 N   0  0  0  0  0  0  0  0  0  0  0  0
   -2.4375    2.2458    0.0000 N   0  0  0  0  0  0  0  0  0  0  0  0
   -0.2958    2.6708    0.0000 C   0  0  0  0  0  0  0  0  0  0  0  0
    1.8417    1.4250    0.0000 N   0  0  0  0  0  0  0  0  0  0  0  0
    3.9792   -0.6542    0.0000 C   0  0  0  0  0  0  0  0  0  0  0  0
   -0.6083    3.8000    0.0000 O   0  0  0  0  0  0  0  0  0  0  0  0
   -1.4333    2.3708    0.0000 O   0  0  0  0  0  0  0  0  0  0  0  0
    2.5542    0.1875    0.0000 C   0  0  0  0  0  0  0  0  0  0  0  0
   -3.8708    3.0833    0.0000 C   0  0  0  0  0  0  0  0  0  0  0  0
   -3.1583    1.8333    0.0000 C   0  0  0  0  0  0  0  0  0  0  0  0
    6.0125   -1.3125    0.0000 C   0  0  0  0  0  0  0  0  0  0  0  0
    5.6167   -2.0292    0.0000 C   0  0  0  0  0  0  0  0  0  0  0  0
    1.1250    0.1958    0.0000 O   0  0  0  0  0  0  0  0  0  0  0  0
   -3.8708    2.2458    0.0000 C   0  0  0  0  0  0  0  0  0  0  0  0
    5.5917    0.1208    0.0000 O   0  0  0  0  0  0  0  0  0  0  0  0
    4.2125   -2.4542    0.0000 O   0  0  0  0  0  0  0  0  0  0  0  0
    3.9875    0.1833    0.0000 C   0  0  0  0  0  0  0  0  0  0  0  0
    3.2625   -1.0417    0.0000 C   0  0  0  0  0  0  0  0  0  0  0  0
    2.5542   -0.6292    0.0000 C   0  0  0  0  0  0  0  0  0  0  0  0
    3.2792    0.6000    0.0000 C   0  0  0  0  0  0  0  0  0  0  0  0
    0.4125    3.0833    0.0000 C   0  0  0  0  0  0  0  0  0  0  0  0
   -0.3083    1.8458    0.0000 C   0  0  0  0  0  0  0  0  0  0  0  0
    1.1250    1.8458    0.0000 C   0  0  0  0  0  0  0  0  0  0  0  0
    0.4042    1.4333    0.0000 C   0  0  0  0  0  0  0  0  0  0  0  0
    1.1250    2.6708    0.0000 C   0  0  0  0  0  0  0  0  0  0  0  0
   -4.5833    3.4875    0.0000 C   0  0  0  0  0  0  0  0  0  0  0  0
   -3.1583    1.0083    0.0000 C   0  0  0  0  0  0  0  0  0  0  0  0
  2 12  1  0  0  0  0
  3  1  1  0  0  0  0
  4  3  1  0  0  0  0
  5  2  1  0  0  0  0
  6  2  1  0  0  0  0
  7 11  1  0  0  0  0
  8  4  2  0  0  0  0
  9  4  1  0  0  0  0
 10  1  1  0  0  0  0
 11 30  1  0  0  0  0
 12 24  1  0  0  0  0
 13  1  2  0  0  0  0
 14  1  2  0  0  0  0
 15  7  1  0  0  0  0
 16  8  1  0  0  0  0
 17  9  2  0  0  0  0
 18  5  1  0  0  0  0
 19  6  1  0  0  0  0
 20  7  2  0  0  0  0
 21 17  1  0  0  0  0
 22  5  2  0  0  0  0
 23  6  2  0  0  0  0
 24 27  2  0  0  0  0
 25 26  1  0  0  0  0
 26 15  2  0  0  0  0
 27 15  1  0  0  0  0
 28 10  1  0  0  0  0
 29 10  2  0  0  0  0
 30 31  2  0  0  0  0
 31 29  1  0  0  0  0
 32 28  2  0  0  0  0
 33 16  1  0  0  0  0
 34 17  1  0  0  0  0
 30 32  1  0  0  0  0
 21 16  2  0  0  0  0
 12 25  2  0  0  0  0
 19 18  1  0  0  0  0
M  END
> <IDNUMBER>
F1750-0116

> <Chemical_Name>
N-{4-[(4,6-dimethylpyrimidin-2-yl)sulfamoyl]phenyl}-4-(2,5-dioxopyrrolidin-1-yl)benzamide

> <CAS>
314246-38-3

> <PriceCoeff>
1.00

> <MW>
479.51

> <Description>
solid

> <FSP3>
0.17

> <clogP>
0.95

> <TPSA>
146.81

> <Acceptor>
7

> <Donor>
2

> <RotBonds>
6

> <HAC>
34

> <Collection>
General

$$$$
F3139-0282
  -ISIS-  06222321152D

 30 33  0  0  0  0  0  0  0  0999 V2000
    6.2667   -2.1750    0.0000 C   0  0  0  0  0  0  0  0  0  0  0  0
    5.5500   -2.5875    0.0000 C   0  0  0  0  0  0  0  0  0  0  0  0
    4.8375   -2.1750    0.0000 C   0  0  0  0  0  0  0  0  0  0  0  0
    6.2667   -1.3500    0.0000 C   0  0  0  0  0  0  0  0  0  0  0  0
    4.8375   -1.3500    0.0000 C   0  0  0  0  0  0  0  0  0  0  0  0
    5.5500   -0.9375    0.0000 O   0  0  0  0  0  0  0  0  0  0  0  0
    6.9792   -2.5875    0.0000 C   0  0  0  0  0  0  0  0  0  0  0  0
    1.9792   -1.3417    0.0000 C   0  0  0  0  0  0  0  0  0  0  0  0
    4.1250   -0.9375    0.0000 C   0  0  0  0  0  0  0  0  0  0  0  0
    2.6917   -0.9375    0.0000 O   0  0  0  0  0  0  0  0  0  0  0  0
    4.1250   -2.5875    0.0000 C   0  0  0  0  0  0  0  0  0  0  0  0
    1.2667   -0.9250    0.0000 C   0  0  0  0  0  0  0  0  0  0  0  0
    3.4042   -1.3500    0.0000 C   0  0  0  0  0  0  0  0  0  0  0  0
    5.5500   -3.4125    0.0000 O   0  0  0  0  0  0  0  0  0  0  0  0
    1.9667   -2.1667    0.0000 O   0  0  0  0  0  0  0  0  0  0  0  0
    6.9792   -3.4167    0.0000 C   0  0  0  0  0  0  0  0  0  0  0  0
    1.2792   -0.0917    0.0000 C   0  0  0  0  0  0  0  0  0  0  0  0
    0.5542   -1.3292    0.0000 C   0  0  0  0  0  0  0  0  0  0  0  0
    3.4042   -2.1750    0.0000 C   0  0  0  0  0  0  0  0  0  0  0  0
   -0.1500   -0.0792    0.0000 C   0  0  0  0  0  0  0  0  0  0  0  0
   -0.1583   -0.9125    0.0000 C   0  0  0  0  0  0  0  0  0  0  0  0
    0.5667    0.3208    0.0000 C   0  0  0  0  0  0  0  0  0  0  0  0
    6.2667   -3.8250    0.0000 O   0  0  0  0  0  0  0  0  0  0  0  0
    7.6917   -2.1750    0.0000 C   0  0  0  0  0  0  0  0  0  0  0  0
   -0.8625    0.3375    0.0000 O   0  0  0  0  0  0  0  0  0  0  0  0
    7.6917   -3.8292    0.0000 C   0  0  0  0  0  0  0  0  0  0  0  0
    6.2667   -4.6500    0.0000 C   0  0  0  0  0  0  0  0  0  0  0  0
   -1.5833   -0.0667    0.0000 C   0  0  0  0  0  0  0  0  0  0  0  0
    8.4042   -2.5875    0.0000 C   0  0  0  0  0  0  0  0  0  0  0  0
    8.4042   -3.4167    0.0000 C   0  0  0  0  0  0  0  0  0  0  0  0
  2  1  1  0  0  0  0
  3  2  1  0  0  0  0
  4  1  2  0  0  0  0
  5  6  1  0  0  0  0
  6  4  1  0  0  0  0
  7  1  1  0  0  0  0
  8 10  1  0  0  0  0
  9  5  2  0  0  0  0
 10 13  1  0  0  0  0
 11  3  2  0  0  0  0
 12  8  1  0  0  0  0
 13  9  1  0  0  0  0
 14  2  2  0  0  0  0
 15  8  2  0  0  0  0
 16  7  2  0  0  0  0
 17 12  2  0  0  0  0
 18 12  1  0  0  0  0
 19 11  1  0  0  0  0
 20 21  1  0  0  0  0
 21 18  2  0  0  0  0
 22 17  1  0  0  0  0
 23 16  1  0  0  0  0
 24  7  1  0  0  0  0
 25 20  1  0  0  0  0
 26 16  1  0  0  0  0
 27 23  1  0  0  0  0
 28 25  1  0  0  0  0
 29 24  2  0  0  0  0
 30 29  1  0  0  0  0
  5  3  1  0  0  0  0
 26 30  2  0  0  0  0
 13 19  2  0  0  0  0
 22 20  2  0  0  0  0
M  END
> <IDNUMBER>
F3139-0282

> <Chemical_Name>
3-(2-methoxyphenyl)-4-oxo-4H-chromen-7-yl 4-methoxybenzoate

> <CAS>
315715-14-1

> <PriceCoeff>
1.00

> <MW>
402.40

> <Description>
solid

> <FSP3>
0.08

> <clogP>
4.19

> <TPSA>
71.06

> <Acceptor>
6

> <Donor>
0

> <RotBonds>
6

> <HAC>
30

> <Collection>
General

> <Reference_compound>
CHEMBL44

> <Similarity>
0.8150

$$$$
F3139-0289
  -ISIS-  06222321152D

 30 33  0  0  0  0  0  0  0  0999 V2000
    7.0667   -1.5500    0.0000 C   0  0  0  0  0  0  0  0  0  0  0  0
    6.3500   -1.9625    0.0000 C   0  0  0  0  0  0  0  0  0  0  0  0
    5.6375   -1.5500    0.0000 C   0  0  0  0  0  0  0  0  0  0  0  0
    7.0667   -0.7250    0.0000 C   0  0  0  0  0  0  0  0  0  0  0  0
    5.6375   -0.7250    0.0000 C   0  0  0  0  0  0  0  0  0  0  0  0
    6.3500   -0.3125    0.0000 O   0  0  0  0  0  0  0  0  0  0  0  0
    7.7792   -1.9625    0.0000 C   0  0  0  0  0  0  0  0  0  0  0  0
    3.4917    0.5125    0.0000 C   0  0  0  0  0  0  0  0  0  0  0  0
    4.9250   -0.3125    0.0000 C   0  0  0  0  0  0  0  0  0  0  0  0
    3.4917   -0.3125    0.0000 O   0  0  0  0  0  0  0  0  0  0  0  0
    2.7792    0.9250    0.0000 C   0  0  0  0  0  0  0  0  0  0  0  0
    4.9250   -1.9625    0.0000 C   0  0  0  0  0  0  0  0  0  0  0  0
    4.2042   -0.7250    0.0000 C   0  0  0  0  0  0  0  0  0  0  0  0
    6.3500   -2.7875    0.0000 O   0  0  0  0  0  0  0  0  0  0  0  0
    4.2125    0.9250    0.0000 O   0  0  0  0  0  0  0  0  0  0  0  0
    7.7792   -2.7875    0.0000 C   0  0  0  0  0  0  0  0  0  0  0  0
    2.0667    0.5125    0.0000 C   0  0  0  0  0  0  0  0  0  0  0  0
    4.2042   -1.5500    0.0000 C   0  0  0  0  0  0  0  0  0  0  0  0
    1.3542    0.9208    0.0000 C   0  0  0  0  0  0  0  0  0  0  0  0
    7.0667   -3.1917    0.0000 O   0  0  0  0  0  0  0  0  0  0  0  0
    8.4917   -1.5500    0.0000 C   0  0  0  0  0  0  0  0  0  0  0  0
    0.6417    0.5083    0.0000 O   0  0  0  0  0  0  0  0  0  0  0  0
    2.7875    1.7458    0.0000 C   0  0  0  0  0  0  0  0  0  0  0  0
    2.0667    2.1625    0.0000 C   0  0  0  0  0  0  0  0  0  0  0  0
    8.4917   -3.2000    0.0000 C   0  0  0  0  0  0  0  0  0  0  0  0
    1.3542    1.7500    0.0000 C   0  0  0  0  0  0  0  0  0  0  0  0
    7.0667   -4.0167    0.0000 C   0  0  0  0  0  0  0  0  0  0  0  0
    0.6417   -0.3167    0.0000 C   0  0  0  0  0  0  0  0  0  0  0  0
    9.2042   -1.9542    0.0000 C   0  0  0  0  0  0  0  0  0  0  0  0
    9.2042   -2.7875    0.0000 C   0  0  0  0  0  0  0  0  0  0  0  0
  2  1  1  0  0  0  0
  3  2  1  0  0  0  0
  4  1  2  0  0  0  0
  5  6  1  0  0  0  0
  6  4  1  0  0  0  0
  7  1  1  0  0  0  0
  8 10  1  0  0  0  0
  9  5  2  0  0  0  0
 10 13  1  0  0  0  0
 11  8  1  0  0  0  0
 12  3  2  0  0  0  0
 13  9  1  0  0  0  0
 14  2  2  0  0  0  0
 15  8  2  0  0  0  0
 16  7  2  0  0  0  0
 17 11  1  0  0  0  0
 18 12  1  0  0  0  0
 19 17  2  0  0  0  0
 20 16  1  0  0  0  0
 21  7  1  0  0  0  0
 22 19  1  0  0  0  0
 23 11  2  0  0  0  0
 24 23  1  0  0  0  0
 25 16  1  0  0  0  0
 26 24  2  0  0  0  0
 27 20  1  0  0  0  0
 28 22  1  0  0  0  0
 29 21  2  0  0  0  0
 30 29  1  0  0  0  0
  5  3  1  0  0  0  0
 25 30  2  0  0  0  0
 13 18  2  0  0  0  0
 19 26  1  0  0  0  0
M  END
> <IDNUMBER>
F3139-0289

> <Chemical_Name>
3-(2-methoxyphenyl)-4-oxo-4H-chromen-7-yl 3-methoxybenzoate

> <CAS>
451452-17-8

> <PriceCoeff>
1.00

> <MW>
402.40

> <Description>
solid

> <FSP3>
0.08

> <clogP>
4.19

> <TPSA>
71.06

> <Acceptor>
6

> <Donor>
0

> <RotBonds>
6

> <HAC>
30

> <Collection>
General

> <Reference_compound>
CHEMBL455048

> <Similarity>
0.8190

$$$$
F3394-0589
  -ISIS-  06222321152D

 36 40  0  0  0  0  0  0  0  0999 V2000
    2.8167    2.5625    0.0000 C   0  0  0  0  0  0  0  0  0  0  0  0
    2.5167    1.8000    0.0000 C   0  0  0  0  0  0  0  0  0  0  0  0
    4.1375    2.0500    0.0000 N   0  0  3  0  0  0  0  0  0  0  0  0
    3.8375    1.2958    0.0000 C   0  0  0  0  0  0  0  0  0  0  0  0
    3.0375    1.1625    0.0000 N   0  0  0  0  0  0  0  0  0  0  0  0
    3.6292    2.6958    0.0000 C   0  0  0  0  0  0  0  0  0  0  0  0
    1.7000    1.8500    0.0000 S   0  0  0  0  0  0  0  0  0  0  0  0
    2.1792    3.0958    0.0000 C   0  0  0  0  0  0  0  0  0  0  0  0
    1.4792    2.6458    0.0000 C   0  0  0  0  0  0  0  0  0  0  0  0
    2.9167   -0.1542    0.0000 N   0  0  3  0  0  0  0  0  0  0  0  0
    3.6375   -0.5792    0.0000 C   0  0  0  0  0  0  0  0  0  0  0  0
    1.4875   -0.1542    0.0000 C   0  0  0  0  0  0  0  0  0  0  0  0
    4.3500    0.6458    0.0000 S   0  0  0  0  0  0  0  0  0  0  0  0
    2.1917   -0.5667    0.0000 C   0  0  0  0  0  0  0  0  0  0  0  0
    1.4875    0.6500    0.0000 C   0  0  0  0  0  0  0  0  0  0  0  0
    0.7667   -0.5667    0.0000 C   0  0  0  0  0  0  0  0  0  0  0  0
    0.0542   -0.1542    0.0000 C   0  0  0  0  0  0  0  0  0  0  0  0
    0.0542    0.6500    0.0000 C   0  0  0  0  0  0  0  0  0  0  0  0
    4.9500    2.1833    0.0000 C   0  0  0  0  0  0  0  0  0  0  0  0
    0.7667    1.0708    0.0000 C   0  0  0  0  0  0  0  0  0  0  0  0
    3.9167    3.4625    0.0000 O   0  0  0  0  0  0  0  0  0  0  0  0
    2.9167    0.6500    0.0000 C   0  0  0  0  0  0  0  0  0  0  0  0
    4.3500   -0.1667    0.0000 C   0  0  0  0  0  0  0  0  0  0  0  0
    3.6292   -1.4042    0.0000 O   0  0  0  0  0  0  0  0  0  0  0  0
    2.1917    1.0708    0.0000 C   0  0  0  0  0  0  0  0  0  0  0  0
    2.2292    3.9208    0.0000 C   0  0  0  0  0  0  0  0  0  0  0  0
   -0.6500    1.0708    0.0000 O   0  0  0  0  0  0  0  0  0  0  0  0
   -0.6500   -0.5792    0.0000 O   0  0  0  0  0  0  0  0  0  0  0  0
    0.7000    2.9208    0.0000 C   0  0  0  0  0  0  0  0  0  0  0  0
    5.2542    2.9458    0.0000 C   0  0  0  0  0  0  0  0  0  0  0  0
    5.4667    1.5458    0.0000 C   0  0  0  0  0  0  0  0  0  0  0  0
   -1.3708    0.6500    0.0000 C   0  0  0  0  0  0  0  0  0  0  0  0
   -1.3708   -0.1667    0.0000 C   0  0  0  0  0  0  0  0  0  0  0  0
    6.2792    1.6625    0.0000 C   0  0  0  0  0  0  0  0  0  0  0  0
    6.0667    3.0708    0.0000 C   0  0  0  0  0  0  0  0  0  0  0  0
    6.5792    2.4333    0.0000 C   0  0  0  0  0  0  0  0  0  0  0  0
  2  1  2  0  0  0  0
  3  6  1  0  0  0  0
  4  3  1  0  0  0  0
  5  2  1  0  0  0  0
  6  1  1  0  0  0  0
  7  2  1  0  0  0  0
  8  1  1  0  0  0  0
  9  8  2  0  0  0  0
 10 11  1  0  0  0  0
 11 23  1  0  0  0  0
 12 14  1  0  0  0  0
 13  4  1  0  0  0  0
 14 10  1  0  0  0  0
 15 25  1  0  0  0  0
 16 12  2  0  0  0  0
 17 16  1  0  0  0  0
 18 20  1  0  0  0  0
 19  3  1  0  0  0  0
 20 15  2  0  0  0  0
 21  6  2  0  0  0  0
 22 10  1  0  0  0  0
 23 13  1  0  0  0  0
 24 11  2  0  0  0  0
 25 22  1  0  0  0  0
 26  8  1  0  0  0  0
 27 18  1  0  0  0  0
 28 17  1  0  0  0  0
 29  9  1  0  0  0  0
 30 19  1  0  0  0  0
 31 19  2  0  0  0  0
 32 27  1  0  0  0  0
 33 28  1  0  0  0  0
 34 31  1  0  0  0  0
 35 30  2  0  0  0  0
 36 34  2  0  0  0  0
  7  9  1  0  0  0  0
  4  5  2  0  0  0  0
 36 35  1  0  0  0  0
 15 12  1  0  0  0  0
 18 17  2  0  0  0  0
M  END
> <IDNUMBER>
F3394-0589

> <Chemical_Name>
2-{[2-(6,7-dimethoxy-1,2,3,4-tetrahydroisoquinolin-2-yl)-2-oxoethyl]sulfanyl}-5,6-dimethyl-3-phenyl-3H,4H-thieno[2,3-d]pyrimidin-4-one

> <CAS>
690645-35-3

> <PriceCoeff>
1.00

> <MW>
521.65

> <Description>
solid

> <FSP3>
0.30

> <clogP>
4.73

> <TPSA>
124.98

> <Acceptor>
5

> <Donor>
0

> <RotBonds>
7

> <HAC>
36

> <Collection>
General

> <Reference_compound>
CHEMBL577016

> <Similarity>
0.8600

$$$$
F0509-3776
  -ISIS-  06222321142D

 34 38  0  0  0  0  0  0  0  0999 V2000
    0.7125    4.5667    0.0000 C   0  0  0  0  0  0  0  0  0  0  0  0
    4.8042    5.4292    0.0000 N   0  0  3  0  0  0  0  0  0  0  0  0
   -1.2583    1.7875    0.0000 N   0  0  3  0  0  0  0  0  0  0  0  0
    0.5167    3.8458    0.0000 S   0  0  0  0  0  0  0  0  0  0  0  0
    1.4167    4.8375    0.0000 N   0  0  0  0  0  0  0  0  0  0  0  0
   -0.2375    3.8083    0.0000 C   0  0  0  0  0  0  0  0  0  0  0  0
    0.0875    4.9667    0.0000 N   0  0  0  0  0  0  0  0  0  0  0  0
   -0.5000    4.5042    0.0000 N   0  0  0  0  0  0  0  0  0  0  0  0
    2.0000    4.3542    0.0000 C   0  0  0  0  0  0  0  0  0  0  0  0
    5.4167    4.9917    0.0000 C   0  0  0  0  0  0  0  0  0  0  0  0
    5.0292    6.1417    0.0000 C   0  0  0  0  0  0  0  0  0  0  0  0
   -1.6583    1.1583    0.0000 C   0  0  0  0  0  0  0  0  0  0  0  0
   -0.5083    1.8333    0.0000 C   0  0  0  0  0  0  0  0  0  0  0  0
   -1.7458    2.3708    0.0000 C   0  0  0  0  0  0  0  0  0  0  0  0
    4.1042    5.1667    0.0000 C   0  0  0  0  0  0  0  0  0  0  0  0
   -0.5833    3.1333    0.0000 S   0  0  0  0  0  0  0  0  0  0  0  0
    2.7000    4.6292    0.0000 C   0  0  0  0  0  0  0  0  0  0  0  0
   -2.3833    1.3500    0.0000 C   0  0  0  0  0  0  0  0  0  0  0  0
   -0.1708    2.5000    0.0000 C   0  0  0  0  0  0  0  0  0  0  0  0
    1.8792    3.6208    0.0000 O   0  0  0  0  0  0  0  0  0  0  0  0
    5.7792    6.1500    0.0000 C   0  0  0  0  0  0  0  0  0  0  0  0
    6.0167    5.4417    0.0000 C   0  0  0  0  0  0  0  0  0  0  0  0
    5.4292    4.2417    0.0000 O   0  0  0  0  0  0  0  0  0  0  0  0
    4.5875    6.7542    0.0000 O   0  0  0  0  0  0  0  0  0  0  0  0
   -0.1000    1.2083    0.0000 O   0  0  0  0  0  0  0  0  0  0  0  0
   -2.4208    2.0958    0.0000 C   0  0  0  0  0  0  0  0  0  0  0  0
    3.5167    5.6417    0.0000 C   0  0  0  0  0  0  0  0  0  0  0  0
    3.9792    4.4167    0.0000 C   0  0  0  0  0  0  0  0  0  0  0  0
    2.8167    5.3750    0.0000 C   0  0  0  0  0  0  0  0  0  0  0  0
    3.2792    4.1542    0.0000 C   0  0  0  0  0  0  0  0  0  0  0  0
   -1.4583    0.4375    0.0000 C   0  0  0  0  0  0  0  0  0  0  0  0
   -2.9083    0.8208    0.0000 C   0  0  0  0  0  0  0  0  0  0  0  0
   -1.9833   -0.0917    0.0000 C   0  0  0  0  0  0  0  0  0  0  0  0
   -2.7125    0.1083    0.0000 C   0  0  0  0  0  0  0  0  0  0  0  0
  2 15  1  0  0  0  0
  3 13  1  0  0  0  0
  4  1  1  0  0  0  0
  5  1  1  0  0  0  0
  6  4  1  0  0  0  0
  7  1  2  0  0  0  0
  8  7  1  0  0  0  0
  9  5  1  0  0  0  0
 10  2  1  0  0  0  0
 11  2  1  0  0  0  0
 12  3  1  0  0  0  0
 13 19  1  0  0  0  0
 14  3  1  0  0  0  0
 15 28  1  0  0  0  0
 16  6  1  0  0  0  0
 17  9  1  0  0  0  0
 18 12  2  0  0  0  0
 19 16  1  0  0  0  0
 20  9  2  0  0  0  0
 21 11  1  0  0  0  0
 22 10  1  0  0  0  0
 23 10  2  0  0  0  0
 24 11  2  0  0  0  0
 25 13  2  0  0  0  0
 26 14  1  0  0  0  0
 27 29  1  0  0  0  0
 28 30  2  0  0  0  0
 29 17  2  0  0  0  0
 30 17  1  0  0  0  0
 31 12  1  0  0  0  0
 32 18  1  0  0  0  0
 33 31  2  0  0  0  0
 34 33  1  0  0  0  0
  8  6  2  0  0  0  0
 27 15  2  0  0  0  0
 26 18  1  0  0  0  0
 22 21  1  0  0  0  0
 34 32  2  0  0  0  0
M  END
> <IDNUMBER>
F0509-3776

> <Chemical_Name>
N-(5-{[2-(2,3-dihydro-1H-indol-1-yl)-2-oxoethyl]sulfanyl}-1,3,4-thiadiazol-2-yl)-4-(2,5-dioxopyrrolidin-1-yl)benzamide

> <CAS>
389073-30-7

> <PriceCoeff>
1.00

> <MW>
493.56

> <Description>
solid

> <FSP3>
0.22

> <clogP>
1.02

> <TPSA>
166.11

> <Acceptor>
6

> <Donor>
1

> <RotBonds>
7

> <HAC>
34

> <Collection>
General

$$$$
F1243-0037
  -ISIS-  06222321452D

 25 27  0  0  0  0  0  0  0  0999 V2000
    3.6125   -1.2917    0.0000 C   0  0  0  0  0  0  0  0  0  0  0  0
    2.3542   -3.4292    0.0000 N   0  3  0  0  0  0  0  0  0  0  0  0
    1.9500   -2.7167    0.0000 C   0  0  0  0  0  0  0  0  0  0  0  0
    4.4375   -1.2917    0.0000 N   0  0  3  0  0  0  0  0  0  0  0  0
    3.1875   -1.9917    0.0000 O   0  0  0  0  0  0  0  0  0  0  0  0
    2.3667   -1.9917    0.0000 C   0  0  0  0  0  0  0  0  0  0  0  0
    1.9417   -4.1417    0.0000 O   0  5  0  0  0  0  0  0  0  0  0  0
    3.1875   -0.5667    0.0000 O   0  0  0  0  0  0  0  0  0  0  0  0
    3.1792   -3.4375    0.0000 O   0  0  0  0  0  0  0  0  0  0  0  0
    4.8500   -0.5667    0.0000 C   0  0  0  0  0  0  0  0  0  0  0  0
    4.8625   -2.0042    0.0000 C   0  0  0  0  0  0  0  0  0  0  0  0
    1.1292   -2.7167    0.0000 C   0  0  0  0  0  0  0  0  0  0  0  0
    1.9500   -1.2667    0.0000 C   0  0  0  0  0  0  0  0  0  0  0  0
    5.6875   -1.9917    0.0000 C   0  0  0  0  0  0  0  0  0  0  0  0
    5.6792   -0.5625    0.0000 C   0  0  0  0  0  0  0  0  0  0  0  0
    4.4250    0.1500    0.0000 C   0  0  0  0  0  0  0  0  0  0  0  0
    4.4500   -2.7292    0.0000 C   0  0  0  0  0  0  0  0  0  0  0  0
    0.7167   -1.9917    0.0000 C   0  0  0  0  0  0  0  0  0  0  0  0
    1.1292   -1.2667    0.0000 C   0  0  0  0  0  0  0  0  0  0  0  0
    6.0917    0.1625    0.0000 C   0  0  0  0  0  0  0  0  0  0  0  0
    4.8375    0.8750    0.0000 C   0  0  0  0  0  0  0  0  0  0  0  0
    4.8750   -3.4500    0.0000 C   0  0  0  0  0  0  0  0  0  0  0  0
    6.1167   -2.7042    0.0000 C   0  0  0  0  0  0  0  0  0  0  0  0
    5.7042   -3.4375    0.0000 C   0  0  0  0  0  0  0  0  0  0  0  0
    5.6750    0.8833    0.0000 C   0  0  0  0  0  0  0  0  0  0  0  0
  2  3  1  0  0  0  0
  3  6  1  0  0  0  0
  4  1  1  0  0  0  0
  5  1  1  0  0  0  0
  6  5  1  0  0  0  0
  7  2  1  0  0  0  0
  8  1  2  0  0  0  0
  9  2  2  0  0  0  0
 10  4  1  0  0  0  0
 11  4  1  0  0  0  0
 12  3  2  0  0  0  0
 13  6  2  0  0  0  0
 14 11  1  0  0  0  0
 15 10  2  0  0  0  0
 16 10  1  0  0  0  0
 17 11  2  0  0  0  0
 18 19  2  0  0  0  0
 19 13  1  0  0  0  0
 20 15  1  0  0  0  0
 21 16  2  0  0  0  0
 22 17  1  0  0  0  0
 23 14  2  0  0  0  0
 24 22  2  0  0  0  0
 25 21  1  0  0  0  0
 12 18  1  0  0  0  0
 23 24  1  0  0  0  0
 20 25  2  0  0  0  0
M  CHG  2   2   1   7  -1
M  END
> <IDNUMBER>
F1243-0037

> <Chemical_Name>
2-nitrophenyl N,N-diphenylcarbamate

> <CAS>
354552-03-7

> <PriceCoeff>
1.00

> <MW>
334.33

> <Description>
solid

> <FSP3>
0.00

> <clogP>
4.85

> <TPSA>
72.68

> <Acceptor>
4

> <Donor>
0

> <RotBonds>
6

> <HAC>
25

> <Collection>
General

> <Reference_compound>
CHEMBL2288703

> <Similarity>
0.8280

$$$$
F0739-0005
  -ISIS-  06222321142D

 32 36  0  0  0  0  0  0  0  0999 V2000
   -1.9208    0.0625    0.0000 C   0  0  0  0  0  0  0  0  0  0  0  0
   -1.4625   -0.7375    0.0000 C   0  0  0  0  0  0  0  0  0  0  0  0
   -0.5208    0.8625    0.0000 N   0  0  3  0  0  0  0  0  0  0  0  0
   -0.0833    0.0625    0.0000 C   0  0  0  0  0  0  0  0  0  0  0  0
   -0.5458   -0.7375    0.0000 N   0  0  0  0  0  0  0  0  0  0  0  0
   -1.4625    0.8625    0.0000 C   0  0  0  0  0  0  0  0  0  0  0  0
   -2.1000   -1.4375    0.0000 S   0  0  0  0  0  0  0  0  0  0  0  0
   -2.8458   -0.1375    0.0000 C   0  0  0  0  0  0  0  0  0  0  0  0
   -2.9458   -1.0542    0.0000 C   0  0  0  0  0  0  0  0  0  0  0  0
    0.8542    0.0833    0.0000 S   0  0  0  0  0  0  0  0  0  0  0  0
    5.0375   -0.7000    0.0000 C   0  0  0  0  0  0  0  0  0  0  0  0
   -0.0208    1.6458    0.0000 C   0  0  0  0  0  0  0  0  0  0  0  0
   -1.9208    1.6833    0.0000 O   0  0  0  0  0  0  0  0  0  0  0  0
    4.1167   -0.7000    0.0000 C   0  0  0  0  0  0  0  0  0  0  0  0
    5.5167   -1.5000    0.0000 O   0  0  0  0  0  0  0  0  0  0  0  0
    3.6792   -1.5000    0.0000 C   0  0  0  0  0  0  0  0  0  0  0  0
    3.6542    0.1000    0.0000 C   0  0  0  0  0  0  0  0  0  0  0  0
    1.3375   -0.7167    0.0000 C   0  0  0  0  0  0  0  0  0  0  0  0
    2.2542   -0.7000    0.0000 C   0  0  0  0  0  0  0  0  0  0  0  0
    5.5000    0.1000    0.0000 O   0  0  0  0  0  0  0  0  0  0  0  0
   -3.5833    0.4208    0.0000 C   0  0  0  0  0  0  0  0  0  0  0  0
    2.7167    0.1000    0.0000 C   0  0  0  0  0  0  0  0  0  0  0  0
    2.7375   -1.5000    0.0000 C   0  0  0  0  0  0  0  0  0  0  0  0
   -3.7833   -1.4375    0.0000 C   0  0  0  0  0  0  0  0  0  0  0  0
   -0.4625    2.4625    0.0000 C   0  0  0  0  0  0  0  0  0  0  0  0
    0.9000    1.6208    0.0000 C   0  0  0  0  0  0  0  0  0  0  0  0
    5.0375    0.9000    0.0000 C   0  0  0  0  0  0  0  0  0  0  0  0
   -4.4458    0.0208    0.0000 C   0  0  0  0  0  0  0  0  0  0  0  0
   -4.5208   -0.9000    0.0000 C   0  0  0  0  0  0  0  0  0  0  0  0
    0.0375    3.2458    0.0000 C   0  0  0  0  0  0  0  0  0  0  0  0
    1.3792    2.4000    0.0000 C   0  0  0  0  0  0  0  0  0  0  0  0
    0.9375    3.2208    0.0000 C   0  0  0  0  0  0  0  0  0  0  0  0
  2  1  2  0  0  0  0
  3  6  1  0  0  0  0
  4  3  1  0  0  0  0
  5  2  1  0  0  0  0
  6  1  1  0  0  0  0
  7  2  1  0  0  0  0
  8  1  1  0  0  0  0
  9  8  2  0  0  0  0
 10  4  1  0  0  0  0
 11 14  1  0  0  0  0
 12  3  1  0  0  0  0
 13  6  2  0  0  0  0
 14 16  2  0  0  0  0
 15 11  2  0  0  0  0
 16 23  1  0  0  0  0
 17 22  2  0  0  0  0
 18 10  1  0  0  0  0
 19 18  1  0  0  0  0
 20 11  1  0  0  0  0
 21  8  1  0  0  0  0
 22 19  1  0  0  0  0
 23 19  2  0  0  0  0
 24  9  1  0  0  0  0
 25 12  1  0  0  0  0
 26 12  2  0  0  0  0
 27 20  1  0  0  0  0
 28 21  1  0  0  0  0
 29 28  1  0  0  0  0
 30 25  2  0  0  0  0
 31 26  1  0  0  0  0
 32 31  2  0  0  0  0
  9  7  1  0  0  0  0
  4  5  2  0  0  0  0
 24 29  1  0  0  0  0
 32 30  1  0  0  0  0
 17 14  1  0  0  0  0
M  END
> <IDNUMBER>
F0739-0005

> <Chemical_Name>
methyl 4-[({3-oxo-4-phenyl-8-thia-4,6-diazatricyclo[7.4.0.0^{2,7}]trideca-1(9),2(7),5-trien-5-yl}sulfanyl)methyl]benzoate

> <CAS>
325693-61-6

> <PriceCoeff>
1.00

> <MW>
462.58

> <Description>
solid

> <FSP3>
0.24

> <clogP>
6.68

> <TPSA>
112.51

> <Acceptor>
4

> <Donor>
0

> <RotBonds>
6

> <HAC>
32

> <Collection>
General

> <Reference_compound>
CHEMBL577016

> <Similarity>
0.8140

$$$$
F1065-0260
  -ISIS-  06222321142D

 27 30  0  0  0  0  0  0  0  0999 V2000
   -0.6750    0.4958    0.0000 N   0  0  3  0  0  0  0  0  0  0  0  0
   -0.0208    0.9458    0.0000 C   0  0  0  0  0  0  0  0  0  0  0  0
    1.6292   -1.1042    0.0000 C   0  0  0  0  0  0  0  0  0  0  0  0
   -0.4375   -0.3000    0.0000 C   0  0  0  0  0  0  0  0  0  0  0  0
    2.1125   -0.4417    0.0000 N   0  0  0  0  0  0  0  0  0  0  0  0
    0.4000   -0.3417    0.0000 C   0  0  3  0  0  0  0  0  0  0  0  0
    0.6792    0.4500    0.0000 C   0  0  0  0  0  0  0  0  0  0  0  0
   -1.4333    0.8000    0.0000 C   0  0  0  0  0  0  0  0  0  0  0  0
   -3.5458    0.1500    0.0000 C   0  0  3  0  0  0  0  0  0  0  0  0
    2.1125   -1.7792    0.0000 O   0  0  0  0  0  0  0  0  0  0  0  0
    0.8000   -1.0625    0.0000 S   0  0  0  0  0  0  0  0  0  0  0  0
    2.8917   -0.7000    0.0000 C   0  0  0  0  0  0  0  0  0  0  0  0
   -2.8708    0.6458    0.0000 C   0  0  0  0  0  0  0  0  0  0  0  0
    2.8917   -1.5292    0.0000 C   0  0  0  0  0  0  0  0  0  0  0  0
   -2.0958    0.3083    0.0000 C   0  0  0  0  0  0  0  0  0  0  0  0
   -0.0208    1.7833    0.0000 O   0  0  0  0  0  0  0  0  0  0  0  0
   -0.9750   -0.9625    0.0000 O   0  0  0  0  0  0  0  0  0  0  0  0
   -4.0458    0.8458    0.0000 F   0  0  0  0  0  0  0  0  0  0  0  0
   -3.0625   -0.5375    0.0000 F   0  0  0  0  0  0  0  0  0  0  0  0
   -4.2458   -0.3417    0.0000 F   0  0  0  0  0  0  0  0  0  0  0  0
   -1.5583    1.6500    0.0000 C   0  0  0  0  0  0  0  0  0  0  0  0
   -2.9625    1.4625    0.0000 C   0  0  0  0  0  0  0  0  0  0  0  0
   -2.3000    1.9625    0.0000 C   0  0  0  0  0  0  0  0  0  0  0  0
    3.6042   -0.2875    0.0000 C   0  0  0  0  0  0  0  0  0  0  0  0
    3.6042   -1.9542    0.0000 C   0  0  0  0  0  0  0  0  0  0  0  0
    4.3417   -0.7000    0.0000 C   0  0  0  0  0  0  0  0  0  0  0  0
    4.3417   -1.5292    0.0000 C   0  0  0  0  0  0  0  0  0  0  0  0
  2  1  1  0  0  0  0
  3 11  1  0  0  0  0
  4  1  1  0  0  0  0
  5  3  2  0  0  0  0
  6  4  1  0  0  0  0
  7  2  1  0  0  0  0
  8  1  1  0  0  0  0
  9 13  1  0  0  0  0
 10  3  1  0  0  0  0
 11  6  1  0  0  0  0
 12  5  1  0  0  0  0
 13 15  2  0  0  0  0
 14 10  1  0  0  0  0
 15  8  1  0  0  0  0
 16  2  2  0  0  0  0
 17  4  2  0  0  0  0
 18  9  1  0  0  0  0
 19  9  1  0  0  0  0
 20  9  1  0  0  0  0
 21  8  2  0  0  0  0
 22 23  2  0  0  0  0
 23 21  1  0  0  0  0
 24 12  2  0  0  0  0
 25 14  2  0  0  0  0
 26 24  1  0  0  0  0
 27 25  1  0  0  0  0
  7  6  1  0  0  0  0
 22 13  1  0  0  0  0
 14 12  1  0  0  0  0
 27 26  2  0  0  0  0
M  END
> <IDNUMBER>
F1065-0260

> <Chemical_Name>
3-(1,3-benzoxazol-2-ylsulfanyl)-1-[3-(trifluoromethyl)phenyl]pyrrolidine-2,5-dione

> <CAS>
301683-32-9

> <PriceCoeff>
1.00

> <MW>
392.35

> <Description>
solid

> <FSP3>
0.17

> <clogP>
4.19

> <TPSA>
88.71

> <Acceptor>
4

> <Donor>
0

> <RotBonds>
3

> <HAC>
27

> <Collection>
General

$$$$
F2496-1556
  -ISIS-  06222321462D

 28 31  0  0  0  0  0  0  0  0999 V2000
   -4.5833   -0.0917    0.0000 C   0  0  0  0  0  0  0  0  0  0  0  0
   -3.7958    0.1500    0.0000 C   0  0  0  0  0  0  0  0  0  0  0  0
   -4.8458   -0.8792    0.0000 O   0  0  0  0  0  0  0  0  0  0  0  0
   -3.5333    0.9375    0.0000 C   0  0  0  0  0  0  0  0  0  0  0  0
   -2.4583    0.1583    0.0000 N   0  0  0  0  0  0  0  0  0  0  0  0
   -3.1250   -0.3375    0.0000 O   0  0  0  0  0  0  0  0  0  0  0  0
   -5.2458    0.3875    0.0000 C   0  0  0  0  0  0  0  0  0  0  0  0
   -1.3083    3.0000    0.0000 C   0  0  0  0  0  0  0  0  0  0  0  0
   -0.8458    3.6875    0.0000 C   0  0  0  0  0  0  0  0  0  0  0  0
   -2.7208    0.9458    0.0000 C   0  0  0  0  0  0  0  0  0  0  0  0
   -2.1333    3.0583    0.0000 C   0  0  0  0  0  0  0  0  0  0  0  0
   -1.2083    4.4292    0.0000 C   0  0  0  0  0  0  0  0  0  0  0  0
   -5.6625   -0.8875    0.0000 C   0  0  0  0  0  0  0  0  0  0  0  0
   -5.9125   -0.0917    0.0000 C   0  0  0  0  0  0  0  0  0  0  0  0
   -2.6000    2.3833    0.0000 O   0  0  0  0  0  0  0  0  0  0  0  0
   -2.4958    3.8000    0.0000 O   0  0  0  0  0  0  0  0  0  0  0  0
   -2.0333    4.4792    0.0000 O   0  0  0  0  0  0  0  0  0  0  0  0
   -2.2458    1.6333    0.0000 C   0  0  0  0  0  0  0  0  0  0  0  0
   -0.7458    5.1042    0.0000 O   0  0  0  0  0  0  0  0  0  0  0  0
   -0.0208    3.6250    0.0000 C   0  0  0  0  0  0  0  0  0  0  0  0
   -0.9500    2.2583    0.0000 C   0  0  0  0  0  0  0  0  0  0  0  0
   -6.2042   -1.4917    0.0000 C   0  0  0  0  0  0  0  0  0  0  0  0
   -6.7125    0.0750    0.0000 C   0  0  0  0  0  0  0  0  0  0  0  0
    0.0750    5.0542    0.0000 C   0  0  0  0  0  0  0  0  0  0  0  0
    0.3375    2.8833    0.0000 C   0  0  0  0  0  0  0  0  0  0  0  0
   -0.1333    2.2083    0.0000 C   0  0  0  0  0  0  0  0  0  0  0  0
   -7.0125   -1.3250    0.0000 C   0  0  0  0  0  0  0  0  0  0  0  0
   -7.2667   -0.5375    0.0000 C   0  0  0  0  0  0  0  0  0  0  0  0
  2  1  1  0  0  0  0
  3  1  1  0  0  0  0
  4  2  2  0  0  0  0
  5  6  1  0  0  0  0
  6  2  1  0  0  0  0
  7  1  2  0  0  0  0
  8 11  1  0  0  0  0
  9  8  1  0  0  0  0
 10  4  1  0  0  0  0
 11 15  1  0  0  0  0
 12  9  1  0  0  0  0
 13  3  1  0  0  0  0
 14  7  1  0  0  0  0
 15 18  1  0  0  0  0
 16 11  2  0  0  0  0
 17 12  2  0  0  0  0
 18 10  1  0  0  0  0
 19 12  1  0  0  0  0
 20  9  2  0  0  0  0
 21  8  2  0  0  0  0
 22 13  1  0  0  0  0
 23 14  1  0  0  0  0
 24 19  1  0  0  0  0
 25 26  2  0  0  0  0
 26 21  1  0  0  0  0
 27 22  2  0  0  0  0
 28 23  2  0  0  0  0
 14 13  2  0  0  0  0
  5 10  2  0  0  0  0
 27 28  1  0  0  0  0
 25 20  1  0  0  0  0
M  END
> <IDNUMBER>
F2496-1556

> <Chemical_Name>
1-[5-(1-benzofuran-2-yl)-1,2-oxazol-3-yl]methyl 2-methyl benzene-1,2-dicarboxylate

> <CAS>
1105203-44-8

> <PriceCoeff>
1.00

> <MW>
377.35

> <Description>
solid

> <FSP3>
0.10

> <clogP>
4.24

> <TPSA>
91.77

> <Acceptor>
7

> <Donor>
0

> <RotBonds>
7

> <HAC>
28

> <Collection>
General

$$$$
F0808-0260
  -ISIS-  06222321142D

 24 26  0  0  0  0  0  0  0  0999 V2000
    0.2500    0.4000    0.0000 S   0  0  3  0  0  0  0  0  0  0  0  0
    1.7500    0.4000    0.0000 C   0  0  0  0  0  0  0  0  0  0  0  0
    1.0000    0.4000    0.0000 N   0  0  0  0  0  0  0  0  0  0  0  0
    2.1167    1.0500    0.0000 C   0  0  0  0  0  0  0  0  0  0  0  0
    2.8667    1.0500    0.0000 C   0  0  0  0  0  0  0  0  0  0  0  0
    3.2500    0.4000    0.0000 C   0  0  0  0  0  0  0  0  0  0  0  0
    2.1167   -0.2375    0.0000 C   0  0  0  0  0  0  0  0  0  0  0  0
    2.8667   -0.2375    0.0000 C   0  0  0  0  0  0  0  0  0  0  0  0
   -0.4958    0.4000    0.0000 C   0  0  0  0  0  0  0  0  0  0  0  0
    0.2500   -0.3375    0.0000 O   0  0  0  0  0  0  0  0  0  0  0  0
    0.2542    1.1500    0.0000 O   0  0  0  0  0  0  0  0  0  0  0  0
    1.7500    1.7000    0.0000 Cl  0  0  0  0  0  0  0  0  0  0  0  0
    3.2500    1.7000    0.0000 Cl  0  0  0  0  0  0  0  0  0  0  0  0
   -0.8708   -0.2375    0.0000 C   0  0  0  0  0  0  0  0  0  0  0  0
   -0.8625    1.0625    0.0000 C   0  0  0  0  0  0  0  0  0  0  0  0
    4.0000    0.4000    0.0000 O   0  0  0  0  0  0  0  0  0  0  0  0
   -1.6208    1.0625    0.0000 C   0  0  0  0  0  0  0  0  0  0  0  0
   -1.6208   -0.2375    0.0000 C   0  0  0  0  0  0  0  0  0  0  0  0
   -1.9958    0.4125    0.0000 C   0  0  0  0  0  0  0  0  0  0  0  0
    1.7500   -0.8875    0.0000 C   0  0  0  0  0  0  0  0  0  0  0  0
    3.2500   -0.8875    0.0000 C   0  0  0  0  0  0  0  0  0  0  0  0
   -2.7500    0.3958    0.0000 C   0  0  0  0  0  0  0  0  0  0  0  0
    2.8667   -1.5375    0.0000 C   0  0  0  0  0  0  0  0  0  0  0  0
    2.1167   -1.5375    0.0000 C   0  0  0  0  0  0  0  0  0  0  0  0
  2  3  1  0  0  0  0
  3  1  1  0  0  0  0
  4  2  2  0  0  0  0
  5  4  1  0  0  0  0
  6  8  1  0  0  0  0
  7  2  1  0  0  0  0
  8  7  1  0  0  0  0
  9  1  1  0  0  0  0
 10  1  2  0  0  0  0
 11  1  2  0  0  0  0
 12  4  1  0  0  0  0
 13  5  1  0  0  0  0
 14  9  2  0  0  0  0
 15  9  1  0  0  0  0
 16  6  1  0  0  0  0
 17 15  2  0  0  0  0
 18 14  1  0  0  0  0
 19 17  1  0  0  0  0
 20  7  2  0  0  0  0
 21  8  2  0  0  0  0
 22 19  1  0  0  0  0
 23 24  2  0  0  0  0
 24 20  1  0  0  0  0
 18 19  2  0  0  0  0
  5  6  2  0  0  0  0
 21 23  1  0  0  0  0
M  END
> <IDNUMBER>
F0808-0260

> <Chemical_Name>
N-(2,3-dichloro-4-hydroxynaphthalen-1-yl)-4-methylbenzene-1-sulfonamide

> <CAS>
178970-84-8

> <PriceCoeff>
1.00

> <MW>
382.26

> <Description>
solid

> <FSP3>
0.06

> <clogP>
4.48

> <TPSA>
74.78

> <Acceptor>
4

> <Donor>
2

> <RotBonds>
3

> <HAC>
24

> <Collection>
General

$$$$
F3139-1607
  -ISIS-  06222321152D

 30 33  0  0  0  0  0  0  0  0999 V2000
    1.8625   -1.3542    0.0000 C   0  0  0  0  0  0  0  0  0  0  0  0
    1.1417   -1.7667    0.0000 C   0  0  0  0  0  0  0  0  0  0  0  0
    0.4292   -1.3542    0.0000 C   0  0  0  0  0  0  0  0  0  0  0  0
    1.8625   -0.5292    0.0000 C   0  0  0  0  0  0  0  0  0  0  0  0
    0.4292   -0.5292    0.0000 C   0  0  0  0  0  0  0  0  0  0  0  0
    2.5750   -1.7750    0.0000 C   0  0  0  0  0  0  0  0  0  0  0  0
    1.1417   -0.1167    0.0000 O   0  0  0  0  0  0  0  0  0  0  0  0
    3.2917   -1.3542    0.0000 C   0  0  0  0  0  0  0  0  0  0  0  0
   -0.2833   -1.7667    0.0000 C   0  0  0  0  0  0  0  0  0  0  0  0
   -0.2833   -0.1167    0.0000 C   0  0  0  0  0  0  0  0  0  0  0  0
    4.0042   -1.7667    0.0000 C   0  0  0  0  0  0  0  0  0  0  0  0
    1.1417   -2.5917    0.0000 O   0  0  0  0  0  0  0  0  0  0  0  0
    4.0042   -2.6000    0.0000 C   0  0  0  0  0  0  0  0  0  0  0  0
    2.5750   -2.6000    0.0000 C   0  0  0  0  0  0  0  0  0  0  0  0
    3.2875   -3.0125    0.0000 C   0  0  0  0  0  0  0  0  0  0  0  0
   -1.0000   -0.5292    0.0000 C   0  0  0  0  0  0  0  0  0  0  0  0
   -1.7208   -0.1167    0.0000 O   0  0  0  0  0  0  0  0  0  0  0  0
   -0.9958   -1.3542    0.0000 C   0  0  0  0  0  0  0  0  0  0  0  0
   -4.5708    0.7333    0.0000 C   0  0  0  0  0  0  0  0  0  0  0  0
   -3.1500   -0.1042    0.0000 C   0  0  0  0  0  0  0  0  0  0  0  0
   -2.4333   -0.5250    0.0000 C   0  0  0  0  0  0  0  0  0  0  0  0
    4.7250   -1.3542    0.0000 O   0  0  0  0  0  0  0  0  0  0  0  0
   -5.2833    1.1458    0.0000 Cl  0  0  0  0  0  0  0  0  0  0  0  0
    4.7292   -3.0167    0.0000 O   0  0  0  0  0  0  0  0  0  0  0  0
   -4.5833   -0.0917    0.0000 C   0  0  0  0  0  0  0  0  0  0  0  0
   -3.8583    1.1375    0.0000 C   0  0  0  0  0  0  0  0  0  0  0  0
   -3.8625   -0.5125    0.0000 C   0  0  0  0  0  0  0  0  0  0  0  0
   -3.1458    0.7208    0.0000 C   0  0  0  0  0  0  0  0  0  0  0  0
    5.4375   -1.7750    0.0000 C   0  0  0  0  0  0  0  0  0  0  0  0
    4.7375   -3.8500    0.0000 C   0  0  0  0  0  0  0  0  0  0  0  0
  2  1  1  0  0  0  0
  3  2  1  0  0  0  0
  4  1  2  0  0  0  0
  5  7  1  0  0  0  0
  6  1  1  0  0  0  0
  7  4  1  0  0  0  0
  8  6  1  0  0  0  0
  9  3  2  0  0  0  0
 10  5  2  0  0  0  0
 11  8  2  0  0  0  0
 12  2  2  0  0  0  0
 13 15  2  0  0  0  0
 14  6  2  0  0  0  0
 15 14  1  0  0  0  0
 16 10  1  0  0  0  0
 17 16  1  0  0  0  0
 18  9  1  0  0  0  0
 19 26  2  0  0  0  0
 20 21  1  0  0  0  0
 21 17  1  0  0  0  0
 22 11  1  0  0  0  0
 23 19  1  0  0  0  0
 24 13  1  0  0  0  0
 25 27  2  0  0  0  0
 26 28  1  0  0  0  0
 27 20  1  0  0  0  0
 28 20  2  0  0  0  0
 29 22  1  0  0  0  0
 30 24  1  0  0  0  0
  5  3  1  0  0  0  0
 13 11  1  0  0  0  0
 16 18  2  0  0  0  0
 19 25  1  0  0  0  0
M  END
> <IDNUMBER>
F3139-1607

> <Chemical_Name>
7-[(4-chlorophenyl)methoxy]-3-(3,4-dimethoxyphenyl)-4H-chromen-4-one

> <CAS>
637750-23-3

> <PriceCoeff>
1.00

> <MW>
422.86

> <Description>
solid

> <FSP3>
0.12

> <clogP>
5.23

> <TPSA>
53.99

> <Acceptor>
5

> <Donor>
0

> <RotBonds>
6

> <HAC>
30

> <Collection>
General

> <Reference_compound>
CHEMBL455048

> <Similarity>
0.8240

$$$$
F1065-0356
  -ISIS-  06222321452D

 26 29  0  0  0  0  0  0  0  0999 V2000
   -2.4000   -0.1167    0.0000 N   0  0  3  0  0  0  0  0  0  0  0  0
   -1.8625    0.6708    0.0000 C   0  0  0  0  0  0  0  0  0  0  0  0
    0.7500   -0.6500    0.0000 C   0  0  0  0  0  0  0  0  0  0  0  0
   -1.8125   -0.8542    0.0000 C   0  0  0  0  0  0  0  0  0  0  0  0
    0.9167    0.3125    0.0000 N   0  0  0  0  0  0  0  0  0  0  0  0
   -0.9000   -0.5292    0.0000 C   0  0  3  0  0  0  0  0  0  0  0  0
   -0.9500    0.4208    0.0000 C   0  0  0  0  0  0  0  0  0  0  0  0
    1.5792   -1.1000    0.0000 S   0  0  0  0  0  0  0  0  0  0  0  0
    2.2792   -0.4167    0.0000 C   0  0  0  0  0  0  0  0  0  0  0  0
   -0.1000   -1.0542    0.0000 S   0  0  0  0  0  0  0  0  0  0  0  0
    1.8542    0.4333    0.0000 C   0  0  0  0  0  0  0  0  0  0  0  0
    3.2667   -0.4542    0.0000 C   0  0  0  0  0  0  0  0  0  0  0  0
   -3.3625   -0.1167    0.0000 C   0  0  0  0  0  0  0  0  0  0  0  0
   -2.2125    1.5708    0.0000 O   0  0  0  0  0  0  0  0  0  0  0  0
   -2.0625   -1.8000    0.0000 O   0  0  0  0  0  0  0  0  0  0  0  0
    2.3667    1.2458    0.0000 C   0  0  0  0  0  0  0  0  0  0  0  0
    3.7667    0.3500    0.0000 C   0  0  0  0  0  0  0  0  0  0  0  0
    3.3500    1.2000    0.0000 C   0  0  0  0  0  0  0  0  0  0  0  0
    4.7292    0.3208    0.0000 O   0  0  0  0  0  0  0  0  0  0  0  0
   -3.8333    0.7000    0.0000 C   0  0  0  0  0  0  0  0  0  0  0  0
   -3.8333   -0.9500    0.0000 C   0  0  0  0  0  0  0  0  0  0  0  0
    5.2292    1.1333    0.0000 C   0  0  0  0  0  0  0  0  0  0  0  0
    4.7792    1.9625    0.0000 C   0  0  0  0  0  0  0  0  0  0  0  0
   -4.7833    0.6833    0.0000 C   0  0  0  0  0  0  0  0  0  0  0  0
   -4.7833   -0.9500    0.0000 C   0  0  0  0  0  0  0  0  0  0  0  0
   -5.2708   -0.1167    0.0000 C   0  0  0  0  0  0  0  0  0  0  0  0
  2  1  1  0  0  0  0
  3 10  1  0  0  0  0
  4  1  1  0  0  0  0
  5  3  2  0  0  0  0
  6  4  1  0  0  0  0
  7  2  1  0  0  0  0
  8  3  1  0  0  0  0
  9  8  1  0  0  0  0
 10  6  1  0  0  0  0
 11  5  1  0  0  0  0
 12  9  2  0  0  0  0
 13  1  1  0  0  0  0
 14  2  2  0  0  0  0
 15  4  2  0  0  0  0
 16 11  2  0  0  0  0
 17 12  1  0  0  0  0
 18 16  1  0  0  0  0
 19 17  1  0  0  0  0
 20 13  2  0  0  0  0
 21 13  1  0  0  0  0
 22 19  1  0  0  0  0
 23 22  1  0  0  0  0
 24 20  1  0  0  0  0
 25 21  2  0  0  0  0
 26 25  1  0  0  0  0
  7  6  1  0  0  0  0
 26 24  2  0  0  0  0
  9 11  1  0  0  0  0
 18 17  2  0  0  0  0
M  END
> <IDNUMBER>
F1065-0356

> <Chemical_Name>
3-[(6-ethoxy-1,3-benzothiazol-2-yl)sulfanyl]-1-phenylpyrrolidine-2,5-dione

> <CAS>
302552-58-5

> <PriceCoeff>
1.00

> <MW>
384.47

> <Description>
solid

> <FSP3>
0.21

> <clogP>
4.32

> <TPSA>
113.04

> <Acceptor>
4

> <Donor>
0

> <RotBonds>
5

> <HAC>
26

> <Collection>
General

$$$$
F2671-0114
  -ISIS-  06222321152D

 31 34  0  0  0  0  0  0  0  0999 V2000
   -6.0125    6.2792    0.0000 S   0  0  3  0  0  0  0  0  0  0  0  0
   -5.2958    6.7000    0.0000 N   0  0  3  0  0  0  0  0  0  0  0  0
   -6.7292    5.8750    0.0000 C   0  0  0  0  0  0  0  0  0  0  0  0
   -4.5833    0.4958    0.0000 N   0  3  0  0  0  0  0  0  0  0  0  0
   -4.5833    2.9833    0.0000 C   0  0  0  0  0  0  0  0  0  0  0  0
   -4.5833    6.2792    0.0000 C   0  0  0  0  0  0  0  0  0  0  0  0
   -4.5708    3.8000    0.0000 C   0  0  0  0  0  0  0  0  0  0  0  0
   -3.8500    2.5625    0.0000 C   0  0  0  0  0  0  0  0  0  0  0  0
   -4.5833    1.3208    0.0000 C   0  0  0  0  0  0  0  0  0  0  0  0
   -3.8500    1.7333    0.0000 C   0  0  0  0  0  0  0  0  0  0  0  0
   -3.8583    4.2125    0.0000 N   0  0  0  0  0  0  0  0  0  0  0  0
   -6.8250    5.0542    0.0000 S   0  0  0  0  0  0  0  0  0  0  0  0
   -4.5833    5.4542    0.0000 C   0  0  0  0  0  0  0  0  0  0  0  0
   -6.4167    7.0042    0.0000 O   0  0  0  0  0  0  0  0  0  0  0  0
   -5.6083    5.5667    0.0000 O   0  0  0  0  0  0  0  0  0  0  0  0
   -5.2958    2.5708    0.0000 C   0  0  0  0  0  0  0  0  0  0  0  0
   -5.2958    0.0875    0.0000 O   0  5  0  0  0  0  0  0  0  0  0  0
   -3.8583    5.0417    0.0000 C   0  0  0  0  0  0  0  0  0  0  0  0
   -3.8583    6.6917    0.0000 C   0  0  0  0  0  0  0  0  0  0  0  0
   -3.8625    0.0833    0.0000 O   0  0  0  0  0  0  0  0  0  0  0  0
   -7.4792    6.2167    0.0000 C   0  0  0  0  0  0  0  0  0  0  0  0
   -5.2958    4.2042    0.0000 O   0  0  0  0  0  0  0  0  0  0  0  0
   -5.2958    1.7375    0.0000 C   0  0  0  0  0  0  0  0  0  0  0  0
   -7.6292    4.8875    0.0000 C   0  0  0  0  0  0  0  0  0  0  0  0
   -8.0417    5.6042    0.0000 C   0  0  0  0  0  0  0  0  0  0  0  0
   -3.1375    6.2792    0.0000 C   0  0  0  0  0  0  0  0  0  0  0  0
   -5.2875    7.5292    0.0000 C   0  0  0  0  0  0  0  0  0  0  0  0
   -3.1333    2.9708    0.0000 Cl  0  0  0  0  0  0  0  0  0  0  0  0
   -3.1458    5.4542    0.0000 C   0  0  0  0  0  0  0  0  0  0  0  0
   -4.5708    7.9417    0.0000 C   0  0  0  0  0  0  0  0  0  0  0  0
   -3.8583    7.5250    0.0000 C   0  0  0  0  0  0  0  0  0  0  0  0
  2  1  1  0  0  0  0
  3  1  1  0  0  0  0
  4  9  1  0  0  0  0
  5  7  1  0  0  0  0
  6  2  1  0  0  0  0
  7 11  1  0  0  0  0
  8  5  1  0  0  0  0
  9 23  2  0  0  0  0
 10  8  2  0  0  0  0
 11 18  1  0  0  0  0
 12  3  1  0  0  0  0
 13  6  1  0  0  0  0
 14  1  2  0  0  0  0
 15  1  2  0  0  0  0
 16  5  2  0  0  0  0
 17  4  1  0  0  0  0
 18 13  2  0  0  0  0
 19  6  2  0  0  0  0
 20  4  2  0  0  0  0
 21  3  2  0  0  0  0
 22  7  2  0  0  0  0
 23 16  1  0  0  0  0
 24 12  1  0  0  0  0
 25 21  1  0  0  0  0
 26 19  1  0  0  0  0
 27  2  1  0  0  0  0
 28  8  1  0  0  0  0
 29 26  2  0  0  0  0
 30 27  1  0  0  0  0
 31 30  1  0  0  0  0
 25 24  2  0  0  0  0
 19 31  1  0  0  0  0
 18 29  1  0  0  0  0
 10  9  1  0  0  0  0
M  CHG  2   4   1  17  -1
M  END
> <IDNUMBER>
F2671-0114

> <Chemical_Name>
2-chloro-4-nitro-N-[1-(thiophene-2-sulfonyl)-1,2,3,4-tetrahydroquinolin-7-yl]benzamide

> <CAS>
898429-85-1

> <PriceCoeff>
1.00

> <MW>
477.94

> <Description>
solid

> <FSP3>
0.15

> <clogP>
3.82

> <TPSA>
146.24

> <Acceptor>
6

> <Donor>
1

> <RotBonds>
5

> <HAC>
31

> <Collection>
General

$$$$
F3385-1336
  -ISIS-  06222321152D

 30 33  0  0  0  0  0  0  0  0999 V2000
    6.0292   -4.2292    0.0000 C   0  0  0  0  0  0  0  0  0  0  0  0
    5.3125   -4.6417    0.0000 C   0  0  0  0  0  0  0  0  0  0  0  0
    4.6000   -4.2292    0.0000 C   0  0  0  0  0  0  0  0  0  0  0  0
    1.7292   -3.4042    0.0000 C   0  0  0  0  0  0  0  0  0  0  0  0
    6.0292   -3.4042    0.0000 C   0  0  0  0  0  0  0  0  0  0  0  0
    1.0167   -3.0000    0.0000 C   0  0  0  0  0  0  0  0  0  0  0  0
    4.6000   -3.4042    0.0000 C   0  0  0  0  0  0  0  0  0  0  0  0
    5.3125   -2.9917    0.0000 O   0  0  0  0  0  0  0  0  0  0  0  0
    2.4417   -2.9917    0.0000 O   0  0  0  0  0  0  0  0  0  0  0  0
    3.8875   -2.9917    0.0000 C   0  0  0  0  0  0  0  0  0  0  0  0
    6.7417   -4.6417    0.0000 C   0  0  0  0  0  0  0  0  0  0  0  0
    3.8875   -4.6417    0.0000 C   0  0  0  0  0  0  0  0  0  0  0  0
    3.1667   -3.4042    0.0000 C   0  0  0  0  0  0  0  0  0  0  0  0
    5.3125   -5.4667    0.0000 O   0  0  0  0  0  0  0  0  0  0  0  0
    1.0167   -2.1750    0.0000 C   0  0  0  0  0  0  0  0  0  0  0  0
    1.7292   -4.2292    0.0000 O   0  0  0  0  0  0  0  0  0  0  0  0
    6.7417   -5.4750    0.0000 C   0  0  0  0  0  0  0  0  0  0  0  0
    7.4542   -4.2292    0.0000 C   0  0  0  0  0  0  0  0  0  0  0  0
    3.1667   -4.2292    0.0000 C   0  0  0  0  0  0  0  0  0  0  0  0
    8.1750   -5.4750    0.0000 C   0  0  0  0  0  0  0  0  0  0  0  0
    7.4542   -5.8875    0.0000 C   0  0  0  0  0  0  0  0  0  0  0  0
    8.1750   -4.6417    0.0000 C   0  0  0  0  0  0  0  0  0  0  0  0
    0.3042   -3.4125    0.0000 C   0  0  0  0  0  0  0  0  0  0  0  0
    1.7292   -1.7625    0.0000 O   0  0  0  0  0  0  0  0  0  0  0  0
    8.9000   -5.8917    0.0000 O   0  0  0  0  0  0  0  0  0  0  0  0
    0.3042   -1.7625    0.0000 C   0  0  0  0  0  0  0  0  0  0  0  0
    1.7292   -0.9375    0.0000 C   0  0  0  0  0  0  0  0  0  0  0  0
    8.9042   -6.7250    0.0000 C   0  0  0  0  0  0  0  0  0  0  0  0
   -0.4083   -3.0042    0.0000 C   0  0  0  0  0  0  0  0  0  0  0  0
   -0.4083   -2.1750    0.0000 C   0  0  0  0  0  0  0  0  0  0  0  0
  2  1  1  0  0  0  0
  3  2  1  0  0  0  0
  4  9  1  0  0  0  0
  5  1  2  0  0  0  0
  6  4  1  0  0  0  0
  7  8  1  0  0  0  0
  8  5  1  0  0  0  0
  9 13  1  0  0  0  0
 10  7  2  0  0  0  0
 11  1  1  0  0  0  0
 12  3  2  0  0  0  0
 13 10  1  0  0  0  0
 14  2  2  0  0  0  0
 15  6  2  0  0  0  0
 16  4  2  0  0  0  0
 17 11  2  0  0  0  0
 18 11  1  0  0  0  0
 19 12  1  0  0  0  0
 20 22  1  0  0  0  0
 21 17  1  0  0  0  0
 22 18  2  0  0  0  0
 23  6  1  0  0  0  0
 24 15  1  0  0  0  0
 25 20  1  0  0  0  0
 26 15  1  0  0  0  0
 27 24  1  0  0  0  0
 28 25  1  0  0  0  0
 29 23  2  0  0  0  0
 30 29  1  0  0  0  0
 21 20  2  0  0  0  0
  7  3  1  0  0  0  0
 13 19  2  0  0  0  0
 30 26  2  0  0  0  0
M  END
> <IDNUMBER>
F3385-1336

> <Chemical_Name>
3-(4-methoxyphenyl)-4-oxo-4H-chromen-7-yl 2-methoxybenzoate

> <CAS>
858758-57-3

> <PriceCoeff>
1.00

> <MW>
402.40

> <Description>
solid

> <FSP3>
0.08

> <clogP>
4.51

> <TPSA>
71.06

> <Acceptor>
6

> <Donor>
0

> <RotBonds>
6

> <HAC>
30

> <Collection>
General

> <Reference_compound>
CHEMBL44

> <Similarity>
0.8150

$$$$
F0745-0532
  -ISIS-  06222321442D

 33 38  0  0  0  0  0  0  0  0999 V2000
   -0.3708    1.6208    0.0000 C   0  0  0  0  0  0  0  0  0  0  0  0
   -0.3958    1.0000    0.0000 C   0  0  0  0  0  0  0  0  0  0  0  0
    0.7500    1.6333    0.0000 N   0  0  3  0  0  0  0  0  0  0  0  0
    0.1792    0.6833    0.0000 N   0  0  0  0  0  0  0  0  0  0  0  0
    0.7292    1.0000    0.0000 C   0  0  0  0  0  0  0  0  0  0  0  0
    0.1792    1.9833    0.0000 C   0  0  0  0  0  0  0  0  0  0  0  0
    0.8292   -0.9667    0.0000 N   0  0  3  0  0  0  0  0  0  0  0  0
    0.3042   -1.4000    0.0000 C   0  0  0  0  0  0  0  0  0  0  0  0
    1.4000   -1.3542    0.0000 C   0  0  0  0  0  0  0  0  0  0  0  0
   -0.9125    0.6833    0.0000 S   0  0  0  0  0  0  0  0  0  0  0  0
   -1.4958    1.6208    0.0000 C   0  0  0  0  0  0  0  0  0  0  0  0
   -1.4833    0.9708    0.0000 C   0  0  0  0  0  0  0  0  0  0  0  0
    1.2292   -2.0000    0.0000 C   0  0  0  0  0  0  0  0  0  0  0  0
    0.5667   -2.0167    0.0000 C   0  0  0  0  0  0  0  0  0  0  0  0
    1.3000    2.0000    0.0000 C   0  0  0  0  0  0  0  0  0  0  0  0
    0.1667    2.7500    0.0000 O   0  0  0  0  0  0  0  0  0  0  0  0
    2.0667   -1.1042    0.0000 O   0  0  0  0  0  0  0  0  0  0  0  0
   -0.3333   -1.1792    0.0000 O   0  0  0  0  0  0  0  0  0  0  0  0
    1.3000    0.7125    0.0000 S   0  0  0  0  0  0  0  0  0  0  0  0
    0.7792   -0.2792    0.0000 C   0  0  0  0  0  0  0  0  0  0  0  0
   -2.1708    1.8625    0.0000 C   0  0  0  0  0  0  0  0  0  0  0  0
   -2.1125    0.7458    0.0000 C   0  0  0  0  0  0  0  0  0  0  0  0
    1.3292    0.0625    0.0000 C   0  0  0  0  0  0  0  0  0  0  0  0
    1.6042   -2.6167    0.0000 C   0  0  0  0  0  0  0  0  0  0  0  0
    0.2500   -2.6792    0.0000 C   0  0  0  0  0  0  0  0  0  0  0  0
   -2.5625    1.2708    0.0000 C   0  0  0  0  0  0  0  0  0  0  0  0
    1.3167    2.7083    0.0000 C   0  0  0  0  0  0  0  0  0  0  0  0
    1.9167    1.6625    0.0000 C   0  0  0  0  0  0  0  0  0  0  0  0
    1.3000   -3.2167    0.0000 C   0  0  0  0  0  0  0  0  0  0  0  0
    0.5667   -3.2500    0.0000 C   0  0  0  0  0  0  0  0  0  0  0  0
    2.5292    2.0000    0.0000 C   0  0  0  0  0  0  0  0  0  0  0  0
    1.9292    3.0500    0.0000 C   0  0  0  0  0  0  0  0  0  0  0  0
    2.5500    2.6708    0.0000 C   0  0  0  0  0  0  0  0  0  0  0  0
  2  1  2  0  0  0  0
  3  6  1  0  0  0  0
  4  2  1  0  0  0  0
  5  3  1  0  0  0  0
  6  1  1  0  0  0  0
  7 20  1  0  0  0  0
  8  7  1  0  0  0  0
  9  7  1  0  0  0  0
 10  2  1  0  0  0  0
 11  1  1  0  0  0  0
 12 11  2  0  0  0  0
 13  9  1  0  0  0  0
 14  8  1  0  0  0  0
 15  3  1  0  0  0  0
 16  6  2  0  0  0  0
 17  9  2  0  0  0  0
 18  8  2  0  0  0  0
 19  5  1  0  0  0  0
 20 23  1  0  0  0  0
 21 11  1  0  0  0  0
 22 12  1  0  0  0  0
 23 19  1  0  0  0  0
 24 13  1  0  0  0  0
 25 14  1  0  0  0  0
 26 21  1  0  0  0  0
 27 15  1  0  0  0  0
 28 15  2  0  0  0  0
 29 24  2  0  0  0  0
 30 25  2  0  0  0  0
 31 28  1  0  0  0  0
 32 27  2  0  0  0  0
 33 31  2  0  0  0  0
 12 10  1  0  0  0  0
 26 22  1  0  0  0  0
  4  5  2  0  0  0  0
 33 32  1  0  0  0  0
 13 14  2  0  0  0  0
 29 30  1  0  0  0  0
M  END
> <IDNUMBER>
F0745-0532

> <Chemical_Name>
2-[2-({12-oxo-11-phenyl-7-thia-9,11-diazatricyclo[6.4.0.0^{2,6}]dodeca-1(8),2(6),9-trien-10-yl}sulfanyl)ethyl]-2,3-dihydro-1H-isoindole-1,3-dione

> <CAS>
307512-59-0

> <PriceCoeff>
1.00

> <MW>
473.57

> <Description>
solid

> <FSP3>
0.20

> <clogP>
5.80

> <TPSA>
123.59

> <Acceptor>
4

> <Donor>
0

> <RotBonds>
5

> <HAC>
33

> <Collection>
General

> <Reference_compound>
CHEMBL577016

> <Similarity>
0.8470

$$$$
F1443-5254
  -ISIS-  06222321452D

 26 28  0  0  0  0  0  0  0  0999 V2000
    8.0292    1.5250    0.0000 S   0  0  3  0  0  0  0  0  0  0  0  0
   -3.3000    3.2833    0.0000 S   0  0  3  0  0  0  0  0  0  0  0  0
   10.4375    0.7083    0.0000 N   0  0  0  0  0  0  0  0  0  0  0  0
   12.2500    2.3500    0.0000 C   0  0  0  0  0  0  0  0  0  0  0  0
   -1.4875    4.9292    0.0000 N   0  0  0  0  0  0  0  0  0  0  0  0
   12.3167    4.7167    0.0000 N   0  0  0  0  0  0  0  0  0  0  0  0
    5.6000    2.3500    0.0000 C   0  0  0  0  0  0  0  0  0  0  0  0
   -5.2208    1.6375    0.0000 C   0  0  0  0  0  0  0  0  0  0  0  0
   14.6250    1.5250    0.0000 S   0  0  0  0  0  0  0  0  0  0  0  0
    7.2167   -0.8375    0.0000 O   0  0  0  0  0  0  0  0  0  0  0  0
    8.8917    3.9083    0.0000 O   0  0  0  0  0  0  0  0  0  0  0  0
   -1.6958    1.4333    0.0000 O   0  0  0  0  0  0  0  0  0  0  0  0
   -4.9875    5.1667    0.0000 O   0  0  0  0  0  0  0  0  0  0  0  0
   14.7625    5.5042    0.0000 C   0  0  0  0  0  0  0  0  0  0  0  0
   16.0000    3.5333    0.0000 C   0  0  0  0  0  0  0  0  0  0  0  0
    5.2042    4.7792    0.0000 C   0  0  0  0  0  0  0  0  0  0  0  0
   -7.5667    2.4583    0.0000 C   0  0  0  0  0  0  0  0  0  0  0  0
   -4.6583   -0.7125    0.0000 C   0  0  0  0  0  0  0  0  0  0  0  0
    3.7167    0.8125    0.0000 C   0  0  0  0  0  0  0  0  0  0  0  0
    1.0000    4.0625    0.0000 C   0  0  0  0  0  0  0  0  0  0  0  0
    1.4792    1.6375    0.0000 C   0  0  0  0  0  0  0  0  0  0  0  0
    2.8542    5.7125    0.0000 C   0  0  0  0  0  0  0  0  0  0  0  0
   -9.4292    0.8125    0.0000 C   0  0  0  0  0  0  0  0  0  0  0  0
   -6.5292   -2.3625    0.0000 C   0  0  0  0  0  0  0  0  0  0  0  0
   -8.8917   -1.6417    0.0000 C   0  0  0  0  0  0  0  0  0  0  0  0
  -10.7500   -3.3917    0.0000 C   0  0  0  0  0  0  0  0  0  0  0  0
  2  5  1  0  0  0  0
  3  1  1  0  0  0  0
  4  3  1  0  0  0  0
  5 20  1  0  0  0  0
  6  4  2  0  0  0  0
  7  1  1  0  0  0  0
  8  2  1  0  0  0  0
  9  4  1  0  0  0  0
 10  1  2  0  0  0  0
 11  1  2  0  0  0  0
 12  2  2  0  0  0  0
 13  2  2  0  0  0  0
 14  6  1  0  0  0  0
 15  9  1  0  0  0  0
 16  7  1  0  0  0  0
 17  8  2  0  0  0  0
 18  8  1  0  0  0  0
 19  7  2  0  0  0  0
 20 21  2  0  0  0  0
 21 19  1  0  0  0  0
 22 16  2  0  0  0  0
 23 17  1  0  0  0  0
 24 18  2  0  0  0  0
 25 24  1  0  0  0  0
 26 25  1  0  0  0  0
 22 20  1  0  0  0  0
 14 15  2  0  0  0  0
 23 25  2  0  0  0  0
M  END
> <IDNUMBER>
F1443-5254

> <Chemical_Name>
4-(4-methylbenzenesulfonamido)-N-(1,3-thiazol-2-yl)benzene-1-sulfonamide

> <CAS>
314282-75-2

> <PriceCoeff>
1.00

> <MW>
409.50

> <Description>
solid

> <FSP3>
0.06

> <clogP>
2.79

> <TPSA>
150.23

> <Acceptor>
6

> <Donor>
2

> <RotBonds>
6

> <HAC>
26

> <Collection>
General

> <Reference_compound>
CHEMBL437

> <Similarity>
0.8280

$$$$
F2743-1046
  -ISIS-  06222321152D

 29 31  0  0  0  0  0  0  0  0999 V2000
   -2.7583    2.1625    0.0000 C   0  0  0  0  0  0  0  0  0  0  0  0
   -2.7583    1.3375    0.0000 C   0  0  0  0  0  0  0  0  0  0  0  0
   -0.8333    6.0125    0.0000 N   0  3  0  0  0  0  0  0  0  0  0  0
   -3.4708    0.9333    0.0000 N   0  0  3  0  0  0  0  0  0  0  0  0
   -0.4708    5.1375    0.0000 C   0  0  0  0  0  0  0  0  0  0  0  0
   -2.2083    2.8958    0.0000 C   0  0  0  0  0  0  0  0  0  0  0  0
   -3.4708   -0.0167    0.0000 C   0  0  0  0  0  0  0  0  0  0  0  0
   -1.2750    2.7708    0.0000 N   0  0  0  0  0  0  0  0  0  0  0  0
   -2.6458   -0.4875    0.0000 C   0  0  0  0  0  0  0  0  0  0  0  0
   -1.0583    4.3875    0.0000 C   0  0  0  0  0  0  0  0  0  0  0  0
   -3.4708    2.5833    0.0000 C   0  0  0  0  0  0  0  0  0  0  0  0
    0.4667    5.0125    0.0000 C   0  0  0  0  0  0  0  0  0  0  0  0
   -4.1750    1.3375    0.0000 C   0  0  0  0  0  0  0  0  0  0  0  0
   -0.2583    6.7625    0.0000 O   0  5  0  0  0  0  0  0  0  0  0  0
   -1.7708    6.1417    0.0000 O   0  0  0  0  0  0  0  0  0  0  0  0
   -0.6958    3.5208    0.0000 C   0  0  0  0  0  0  0  0  0  0  0  0
   -1.8333    1.4875    0.0000 O   0  0  0  0  0  0  0  0  0  0  0  0
   -4.1750    2.1625    0.0000 C   0  0  0  0  0  0  0  0  0  0  0  0
   -2.5500    3.8000    0.0000 O   0  0  0  0  0  0  0  0  0  0  0  0
   -2.6500   -1.4417    0.0000 C   0  0  0  0  0  0  0  0  0  0  0  0
   -1.8208   -0.0167    0.0000 C   0  0  0  0  0  0  0  0  0  0  0  0
    0.8167    4.1292    0.0000 C   0  0  0  0  0  0  0  0  0  0  0  0
   -1.8333   -1.9167    0.0000 C   0  0  0  0  0  0  0  0  0  0  0  0
   -0.9958   -0.5000    0.0000 C   0  0  0  0  0  0  0  0  0  0  0  0
    0.2417    3.3833    0.0000 C   0  0  0  0  0  0  0  0  0  0  0  0
    1.0417    5.7625    0.0000 Cl  0  0  0  0  0  0  0  0  0  0  0  0
   -1.0083   -1.4417    0.0000 C   0  0  0  0  0  0  0  0  0  0  0  0
   -3.4708   -1.9125    0.0000 C   0  0  0  0  0  0  0  0  0  0  0  0
   -0.1750   -0.0292    0.0000 C   0  0  0  0  0  0  0  0  0  0  0  0
  2  1  1  0  0  0  0
  3  5  1  0  0  0  0
  4  2  1  0  0  0  0
  5 10  2  0  0  0  0
  6  1  1  0  0  0  0
  7  4  1  0  0  0  0
  8  6  1  0  0  0  0
  9  7  1  0  0  0  0
 10 16  1  0  0  0  0
 11  1  2  0  0  0  0
 12 22  2  0  0  0  0
 13 18  2  0  0  0  0
 14  3  1  0  0  0  0
 15  3  2  0  0  0  0
 16  8  1  0  0  0  0
 17  2  2  0  0  0  0
 18 11  1  0  0  0  0
 19  6  2  0  0  0  0
 20  9  2  0  0  0  0
 21  9  1  0  0  0  0
 22 25  1  0  0  0  0
 23 20  1  0  0  0  0
 24 21  2  0  0  0  0
 25 16  2  0  0  0  0
 26 12  1  0  0  0  0
 27 24  1  0  0  0  0
 28 20  1  0  0  0  0
 29 24  1  0  0  0  0
  4 13  1  0  0  0  0
 12  5  1  0  0  0  0
 27 23  2  0  0  0  0
M  CHG  2   3   1  14  -1
M  END
> <IDNUMBER>
F2743-1046

> <Chemical_Name>
N-(4-chloro-3-nitrophenyl)-1-[(2,5-dimethylphenyl)methyl]-2-oxo-1,2-dihydropyridine-3-carboxamide

> <CAS>
941952-82-5

> <PriceCoeff>
1.00

> <MW>
411.84

> <Description>
solid

> <FSP3>
0.14

> <clogP>
4.29

> <TPSA>
92.55

> <Acceptor>
4

> <Donor>
1

> <RotBonds>
5

> <HAC>
29

> <Collection>
General

$$$$
F3385-4357
  -ISIS-  06222321152D

 31 34  0  0  0  0  0  0  0  0999 V2000
    5.6542   -7.8625    0.0000 C   0  0  0  0  0  0  0  0  0  0  0  0
    6.3792   -8.2667    0.0000 C   0  0  0  0  0  0  0  0  0  0  0  0
    7.0917   -7.8542    0.0000 C   0  0  0  0  0  0  0  0  0  0  0  0
    7.0917   -7.0250    0.0000 C   0  0  0  0  0  0  0  0  0  0  0  0
    5.6542   -7.0292    0.0000 C   0  0  0  0  0  0  0  0  0  0  0  0
    6.3625   -6.6042    0.0000 O   0  0  0  0  0  0  0  0  0  0  0  0
    3.5042   -5.8042    0.0000 C   0  0  0  0  0  0  0  0  0  0  0  0
    4.9417   -8.2792    0.0000 C   0  0  0  0  0  0  0  0  0  0  0  0
    4.2292   -7.0375    0.0000 C   0  0  0  0  0  0  0  0  0  0  0  0
    4.9417   -6.6250    0.0000 C   0  0  0  0  0  0  0  0  0  0  0  0
    4.2292   -7.8667    0.0000 C   0  0  0  0  0  0  0  0  0  0  0  0
    3.5167   -6.6292    0.0000 O   0  0  0  0  0  0  0  0  0  0  0  0
    2.7917   -5.3917    0.0000 N   0  0  3  0  0  0  0  0  0  0  0  0
    4.9417   -9.0917    0.0000 O   0  0  0  0  0  0  0  0  0  0  0  0
    6.3875   -9.1000    0.0000 O   0  0  0  0  0  0  0  0  0  0  0  0
    4.2167   -5.3875    0.0000 O   0  0  0  0  0  0  0  0  0  0  0  0
    7.8000   -6.6125    0.0000 C   0  0  0  0  0  0  0  0  0  0  0  0
    4.2292   -9.5125    0.0000 C   0  0  0  0  0  0  0  0  0  0  0  0
    3.5125   -9.1000    0.0000 C   0  0  0  0  0  0  0  0  0  0  0  0
    2.7875   -4.5667    0.0000 C   0  0  0  0  0  0  0  0  0  0  0  0
    2.0792   -5.8042    0.0000 C   0  0  0  0  0  0  0  0  0  0  0  0
    8.5125   -7.0250    0.0000 C   0  0  0  0  0  0  0  0  0  0  0  0
    7.7917   -5.7917    0.0000 C   0  0  0  0  0  0  0  0  0  0  0  0
    3.5167   -8.2792    0.0000 C   0  0  0  0  0  0  0  0  0  0  0  0
    2.8042   -9.5167    0.0000 C   0  0  0  0  0  0  0  0  0  0  0  0
    8.5042   -5.3750    0.0000 C   0  0  0  0  0  0  0  0  0  0  0  0
    9.2292   -6.6125    0.0000 C   0  0  0  0  0  0  0  0  0  0  0  0
    2.0917   -9.1125    0.0000 C   0  0  0  0  0  0  0  0  0  0  0  0
    2.8000   -7.8667    0.0000 C   0  0  0  0  0  0  0  0  0  0  0  0
    9.2292   -5.7875    0.0000 C   0  0  0  0  0  0  0  0  0  0  0  0
    2.0875   -8.2792    0.0000 C   0  0  0  0  0  0  0  0  0  0  0  0
  2  1  1  0  0  0  0
  3  2  1  0  0  0  0
  4  6  1  0  0  0  0
  5  1  1  0  0  0  0
  6  5  1  0  0  0  0
  7 12  1  0  0  0  0
  8  1  2  0  0  0  0
  9 11  2  0  0  0  0
 10  5  2  0  0  0  0
 11  8  1  0  0  0  0
 12  9  1  0  0  0  0
 13  7  1  0  0  0  0
 14  8  1  0  0  0  0
 15  2  2  0  0  0  0
 16  7  2  0  0  0  0
 17  4  1  0  0  0  0
 18 14  1  0  0  0  0
 19 18  1  0  0  0  0
 20 13  1  0  0  0  0
 21 13  1  0  0  0  0
 22 17  2  0  0  0  0
 23 17  1  0  0  0  0
 24 19  2  0  0  0  0
 25 19  1  0  0  0  0
 26 23  2  0  0  0  0
 27 22  1  0  0  0  0
 28 25  2  0  0  0  0
 29 24  1  0  0  0  0
 30 26  1  0  0  0  0
 31 28  1  0  0  0  0
  9 10  1  0  0  0  0
  4  3  2  0  0  0  0
 31 29  2  0  0  0  0
 30 27  2  0  0  0  0
M  END
> <IDNUMBER>
F3385-4357

> <Chemical_Name>
5-(benzyloxy)-4-oxo-2-phenyl-4H-chromen-7-yl N,N-dimethylcarbamate

> <CAS>
921125-24-8

> <PriceCoeff>
1.00

> <MW>
415.44

> <Description>
solid

> <FSP3>
0.12

> <clogP>
4.76

> <TPSA>
65.07

> <Acceptor>
5

> <Donor>
0

> <RotBonds>
7

> <HAC>
31

> <Collection>
General

> <Reference_compound>
CHEMBL16782

> <Similarity>
0.8070

$$$$
F3139-1535
  -ISIS-  06222321442D

 32 35  0  0  0  0  0  0  0  0999 V2000
    7.8292   -2.2667    0.0000 C   0  0  0  0  0  0  0  0  0  0  0  0
    7.1125   -2.6792    0.0000 C   0  0  0  0  0  0  0  0  0  0  0  0
    6.4000   -2.2667    0.0000 C   0  0  0  0  0  0  0  0  0  0  0  0
    7.8292   -1.4417    0.0000 C   0  0  0  0  0  0  0  0  0  0  0  0
    6.4000   -1.4417    0.0000 C   0  0  0  0  0  0  0  0  0  0  0  0
    8.5417   -2.6792    0.0000 C   0  0  0  0  0  0  0  0  0  0  0  0
    7.1125   -1.0292    0.0000 O   0  0  0  0  0  0  0  0  0  0  0  0
    3.5375   -1.4500    0.0000 C   0  0  0  0  0  0  0  0  0  0  0  0
    5.6875   -1.0292    0.0000 C   0  0  0  0  0  0  0  0  0  0  0  0
    9.2542   -2.2667    0.0000 C   0  0  0  0  0  0  0  0  0  0  0  0
    4.2500   -1.0292    0.0000 O   0  0  0  0  0  0  0  0  0  0  0  0
    5.6875   -2.6792    0.0000 C   0  0  0  0  0  0  0  0  0  0  0  0
    9.9667   -2.6792    0.0000 C   0  0  0  0  0  0  0  0  0  0  0  0
    2.8167   -1.0417    0.0000 C   0  0  0  0  0  0  0  0  0  0  0  0
    4.9667   -1.4500    0.0000 C   0  0  0  0  0  0  0  0  0  0  0  0
    7.1125   -3.5042    0.0000 O   0  0  0  0  0  0  0  0  0  0  0  0
    9.9667   -3.5042    0.0000 C   0  0  0  0  0  0  0  0  0  0  0  0
    3.5417   -2.2792    0.0000 O   0  0  0  0  0  0  0  0  0  0  0  0
    8.5417   -3.5042    0.0000 C   0  0  0  0  0  0  0  0  0  0  0  0
    9.2542   -3.9167    0.0000 C   0  0  0  0  0  0  0  0  0  0  0  0
    2.8125   -0.2167    0.0000 C   0  0  0  0  0  0  0  0  0  0  0  0
    2.1000   -1.4625    0.0000 C   0  0  0  0  0  0  0  0  0  0  0  0
    4.9667   -2.2667    0.0000 C   0  0  0  0  0  0  0  0  0  0  0  0
    1.3667   -0.2167    0.0000 C   0  0  0  0  0  0  0  0  0  0  0  0
   10.6750   -2.2667    0.0000 O   0  0  0  0  0  0  0  0  0  0  0  0
    2.1000    0.1958    0.0000 C   0  0  0  0  0  0  0  0  0  0  0  0
    1.3792   -1.0542    0.0000 C   0  0  0  0  0  0  0  0  0  0  0  0
   10.6792   -3.9167    0.0000 O   0  0  0  0  0  0  0  0  0  0  0  0
    0.6375    0.1833    0.0000 O   0  0  0  0  0  0  0  0  0  0  0  0
   10.6750   -1.4417    0.0000 C   0  0  0  0  0  0  0  0  0  0  0  0
   11.3917   -3.5042    0.0000 C   0  0  0  0  0  0  0  0  0  0  0  0
   -0.0833   -0.2542    0.0000 C   0  0  0  0  0  0  0  0  0  0  0  0
  2  1  1  0  0  0  0
  3  2  1  0  0  0  0
  4  1  2  0  0  0  0
  5  7  1  0  0  0  0
  6  1  1  0  0  0  0
  7  4  1  0  0  0  0
  8 11  1  0  0  0  0
  9  5  2  0  0  0  0
 10  6  1  0  0  0  0
 11 15  1  0  0  0  0
 12  3  2  0  0  0  0
 13 10  2  0  0  0  0
 14  8  1  0  0  0  0
 15  9  1  0  0  0  0
 16  2  2  0  0  0  0
 17 20  2  0  0  0  0
 18  8  2  0  0  0  0
 19  6  2  0  0  0  0
 20 19  1  0  0  0  0
 21 14  2  0  0  0  0
 22 14  1  0  0  0  0
 23 12  1  0  0  0  0
 24 27  1  0  0  0  0
 25 13  1  0  0  0  0
 26 21  1  0  0  0  0
 27 22  2  0  0  0  0
 28 17  1  0  0  0  0
 29 24  1  0  0  0  0
 30 25  1  0  0  0  0
 31 28  1  0  0  0  0
 32 29  1  0  0  0  0
  3  5  1  0  0  0  0
 17 13  1  0  0  0  0
 23 15  2  0  0  0  0
 24 26  2  0  0  0  0
M  END
> <IDNUMBER>
F3139-1535

> <Chemical_Name>
3-(3,4-dimethoxyphenyl)-4-oxo-4H-chromen-7-yl 4-methoxybenzoate

> <CAS>
637749-77-0

> <PriceCoeff>
1.00

> <MW>
432.42

> <Description>
solid

> <FSP3>
0.12

> <clogP>
4.48

> <TPSA>
80.29

> <Acceptor>
7

> <Donor>
0

> <RotBonds>
7

> <HAC>
32

> <Collection>
General

> <Reference_compound>
CHEMBL455048

> <Similarity>
0.8370

$$$$
F3228-0092
  -ISIS-  06222321462D

 31 34  0  0  0  0  0  0  0  0999 V2000
    3.7292   -2.5542    0.0000 C   0  0  0  0  0  0  0  0  0  0  0  0
    3.0167   -2.1417    0.0000 C   0  0  0  0  0  0  0  0  0  0  0  0
    4.4417   -2.1417    0.0000 C   0  0  0  0  0  0  0  0  0  0  0  0
    3.0167   -1.3167    0.0000 C   0  0  0  0  0  0  0  0  0  0  0  0
    4.4417   -1.3167    0.0000 C   0  0  0  0  0  0  0  0  0  0  0  0
    2.3042   -2.5542    0.0000 C   0  0  0  0  0  0  0  0  0  0  0  0
    3.7292   -0.9042    0.0000 O   0  0  0  0  0  0  0  0  0  0  0  0
    5.1542   -2.5542    0.0000 C   0  0  0  0  0  0  0  0  0  0  0  0
    2.3042   -0.9042    0.0000 C   0  0  0  0  0  0  0  0  0  0  0  0
    1.5875   -2.1417    0.0000 C   0  0  0  0  0  0  0  0  0  0  0  0
    5.8792   -2.1417    0.0000 C   0  0  0  0  0  0  0  0  0  0  0  0
    6.5917   -2.5542    0.0000 C   0  0  0  0  0  0  0  0  0  0  0  0
    3.7292   -3.3792    0.0000 O   0  0  0  0  0  0  0  0  0  0  0  0
    1.5875   -1.3167    0.0000 C   0  0  0  0  0  0  0  0  0  0  0  0
    6.5917   -3.3792    0.0000 C   0  0  0  0  0  0  0  0  0  0  0  0
    5.1542   -3.3792    0.0000 C   0  0  0  0  0  0  0  0  0  0  0  0
    5.8667   -3.7917    0.0000 C   0  0  0  0  0  0  0  0  0  0  0  0
    0.8667   -0.9042    0.0000 O   0  0  0  0  0  0  0  0  0  0  0  0
    2.3042   -3.3792    0.0000 O   0  0  0  0  0  0  0  0  0  0  0  0
   -1.9958   -0.0917    0.0000 C   0  0  0  0  0  0  0  0  0  0  0  0
   -0.5625   -0.9125    0.0000 C   0  0  0  0  0  0  0  0  0  0  0  0
    0.1542   -1.3167    0.0000 C   0  0  0  0  0  0  0  0  0  0  0  0
    7.3000   -2.1417    0.0000 O   0  0  0  0  0  0  0  0  0  0  0  0
   -2.7083    0.3083    0.0000 Cl  0  0  0  0  0  0  0  0  0  0  0  0
    7.3042   -3.8000    0.0000 O   0  0  0  0  0  0  0  0  0  0  0  0
   -1.9875   -0.9292    0.0000 C   0  0  0  0  0  0  0  0  0  0  0  0
   -1.2833    0.3208    0.0000 C   0  0  0  0  0  0  0  0  0  0  0  0
   -0.5708   -0.0875    0.0000 C   0  0  0  0  0  0  0  0  0  0  0  0
   -1.2708   -1.3292    0.0000 C   0  0  0  0  0  0  0  0  0  0  0  0
    7.3000   -1.3167    0.0000 C   0  0  0  0  0  0  0  0  0  0  0  0
    8.0167   -3.3875    0.0000 C   0  0  0  0  0  0  0  0  0  0  0  0
  2  1  1  0  0  0  0
  3  1  1  0  0  0  0
  4  2  1  0  0  0  0
  5  3  2  0  0  0  0
  6  2  2  0  0  0  0
  7  5  1  0  0  0  0
  8  3  1  0  0  0  0
  9  4  2  0  0  0  0
 10  6  1  0  0  0  0
 11  8  1  0  0  0  0
 12 11  2  0  0  0  0
 13  1  2  0  0  0  0
 14 10  2  0  0  0  0
 15 17  2  0  0  0  0
 16  8  2  0  0  0  0
 17 16  1  0  0  0  0
 18 14  1  0  0  0  0
 19  6  1  0  0  0  0
 20 26  1  0  0  0  0
 21 22  1  0  0  0  0
 22 18  1  0  0  0  0
 23 12  1  0  0  0  0
 24 20  1  0  0  0  0
 25 15  1  0  0  0  0
 26 29  2  0  0  0  0
 27 28  1  0  0  0  0
 28 21  2  0  0  0  0
 29 21  1  0  0  0  0
 30 23  1  0  0  0  0
 31 25  1  0  0  0  0
  7  4  1  0  0  0  0
 14  9  1  0  0  0  0
 15 12  1  0  0  0  0
 20 27  2  0  0  0  0
M  END
> <IDNUMBER>
F3228-0092

> <Chemical_Name>
7-[(4-chlorophenyl)methoxy]-3-(3,4-dimethoxyphenyl)-5-hydroxy-4H-chromen-4-one

> <CAS>
671769-62-3

> <PriceCoeff>
1.00

> <MW>
438.86

> <Description>
solid

> <FSP3>
0.12

> <clogP>
5.79

> <TPSA>
74.22

> <Acceptor>
6

> <Donor>
1

> <RotBonds>
6

> <HAC>
31

> <Collection>
General

> <Reference_compound>
CHEMBL455048

> <Similarity>
0.8340

$$$$
F3385-2833
  -ISIS-  06222321442D

 29 33  0  0  0  0  0  0  0  0999 V2000
    1.7542    0.9125    0.0000 C   0  0  0  0  0  0  0  0  0  0  0  0
    1.1875    0.5958    0.0000 C   0  0  0  0  0  0  0  0  0  0  0  0
    0.6250    0.9208    0.0000 C   0  0  0  0  0  0  0  0  0  0  0  0
    1.7542    1.5708    0.0000 C   0  0  0  0  0  0  0  0  0  0  0  0
    0.6250    1.5708    0.0000 C   0  0  0  0  0  0  0  0  0  0  0  0
    1.1875    1.8958    0.0000 O   0  0  0  0  0  0  0  0  0  0  0  0
   -1.6125    1.5708    0.0000 C   0  0  0  0  0  0  0  0  0  0  0  0
   -2.1708    1.8958    0.0000 C   0  0  0  0  0  0  0  0  0  0  0  0
   -3.2875    1.8958    0.0000 C   0  0  0  0  0  0  0  0  0  0  0  0
    0.0625    1.8958    0.0000 C   0  0  0  0  0  0  0  0  0  0  0  0
   -1.0583    1.8958    0.0000 O   0  0  0  0  0  0  0  0  0  0  0  0
    0.0625    0.5958    0.0000 C   0  0  0  0  0  0  0  0  0  0  0  0
   -2.7333    1.5708    0.0000 C   0  0  0  0  0  0  0  0  0  0  0  0
   -3.2833    2.5375    0.0000 C   0  0  0  0  0  0  0  0  0  0  0  0
   -3.9083    1.6875    0.0000 O   0  0  0  0  0  0  0  0  0  0  0  0
    2.3042    0.5958    0.0000 C   0  0  0  0  0  0  0  0  0  0  0  0
   -0.4958    1.5625    0.0000 C   0  0  0  0  0  0  0  0  0  0  0  0
    1.1792   -0.0542    0.0000 O   0  0  0  0  0  0  0  0  0  0  0  0
   -3.9083    2.7458    0.0000 O   0  0  0  0  0  0  0  0  0  0  0  0
   -4.2875    2.2208    0.0000 C   0  0  0  0  0  0  0  0  0  0  0  0
   -1.6208    0.9208    0.0000 O   0  0  0  0  0  0  0  0  0  0  0  0
   -2.1708    2.5333    0.0000 C   0  0  0  0  0  0  0  0  0  0  0  0
   -2.7333    2.8583    0.0000 C   0  0  0  0  0  0  0  0  0  0  0  0
   -0.4958    0.9208    0.0000 C   0  0  0  0  0  0  0  0  0  0  0  0
    2.8667    0.9125    0.0000 C   0  0  0  0  0  0  0  0  0  0  0  0
    2.3042   -0.0542    0.0000 C   0  0  0  0  0  0  0  0  0  0  0  0
    2.8667   -0.3792    0.0000 C   0  0  0  0  0  0  0  0  0  0  0  0
    3.4250    0.5958    0.0000 C   0  0  0  0  0  0  0  0  0  0  0  0
    3.4250   -0.0542    0.0000 C   0  0  0  0  0  0  0  0  0  0  0  0
  2  1  1  0  0  0  0
  3  2  1  0  0  0  0
  4  1  2  0  0  0  0
  5  6  1  0  0  0  0
  6  4  1  0  0  0  0
  7 11  1  0  0  0  0
  8  7  1  0  0  0  0
  9 13  2  0  0  0  0
 10  5  2  0  0  0  0
 11 17  1  0  0  0  0
 12  3  2  0  0  0  0
 13  8  1  0  0  0  0
 14 23  2  0  0  0  0
 15  9  1  0  0  0  0
 16  1  1  0  0  0  0
 17 10  1  0  0  0  0
 18  2  2  0  0  0  0
 19 14  1  0  0  0  0
 20 15  1  0  0  0  0
 21  7  2  0  0  0  0
 22  8  2  0  0  0  0
 23 22  1  0  0  0  0
 24 12  1  0  0  0  0
 25 16  1  0  0  0  0
 26 16  2  0  0  0  0
 27 26  1  0  0  0  0
 28 25  2  0  0  0  0
 29 27  2  0  0  0  0
  3  5  1  0  0  0  0
 28 29  1  0  0  0  0
 24 17  2  0  0  0  0
 14  9  1  0  0  0  0
 20 19  1  0  0  0  0
M  END
> <IDNUMBER>
F3385-2833

> <Chemical_Name>
4-oxo-3-phenyl-4H-chromen-7-yl 2H-1,3-benzodioxole-5-carboxylate

> <CAS>
858769-27-4

> <PriceCoeff>
1.00

> <MW>
386.35

> <Description>
solid

> <FSP3>
0.04

> <clogP>
4.83

> <TPSA>
71.06

> <Acceptor>
6

> <Donor>
0

> <RotBonds>
4

> <HAC>
29

> <Collection>
General

> <Reference_compound>
CHEMBL519221

> <Similarity>
0.8360

$$$$
F3139-1555
  -ISIS-  06222321152D

 32 35  0  0  0  0  0  0  0  0999 V2000
    1.6500    0.0958    0.0000 C   0  0  0  0  0  0  0  0  0  0  0  0
    0.9292   -0.3167    0.0000 C   0  0  0  0  0  0  0  0  0  0  0  0
    0.2167    0.0958    0.0000 C   0  0  0  0  0  0  0  0  0  0  0  0
    1.6500    0.9208    0.0000 C   0  0  0  0  0  0  0  0  0  0  0  0
    0.2167    0.9208    0.0000 C   0  0  0  0  0  0  0  0  0  0  0  0
    2.3625   -0.3167    0.0000 C   0  0  0  0  0  0  0  0  0  0  0  0
    0.9292    1.3333    0.0000 O   0  0  0  0  0  0  0  0  0  0  0  0
   -2.6458    0.9208    0.0000 C   0  0  0  0  0  0  0  0  0  0  0  0
   -0.4958    1.3333    0.0000 C   0  0  0  0  0  0  0  0  0  0  0  0
    3.0792    0.0958    0.0000 C   0  0  0  0  0  0  0  0  0  0  0  0
   -1.9333    1.3333    0.0000 O   0  0  0  0  0  0  0  0  0  0  0  0
   -3.3583    1.3333    0.0000 C   0  0  0  0  0  0  0  0  0  0  0  0
   -0.4958   -0.3167    0.0000 C   0  0  0  0  0  0  0  0  0  0  0  0
    3.7917   -0.3167    0.0000 C   0  0  0  0  0  0  0  0  0  0  0  0
   -1.2083    0.9208    0.0000 C   0  0  0  0  0  0  0  0  0  0  0  0
    0.9292   -1.1417    0.0000 O   0  0  0  0  0  0  0  0  0  0  0  0
    3.7917   -1.1417    0.0000 C   0  0  0  0  0  0  0  0  0  0  0  0
   -2.6375    0.0958    0.0000 O   0  0  0  0  0  0  0  0  0  0  0  0
    2.3625   -1.1417    0.0000 C   0  0  0  0  0  0  0  0  0  0  0  0
   -4.0708    0.9083    0.0000 C   0  0  0  0  0  0  0  0  0  0  0  0
    3.0750   -1.5542    0.0000 C   0  0  0  0  0  0  0  0  0  0  0  0
   -1.2083    0.0958    0.0000 C   0  0  0  0  0  0  0  0  0  0  0  0
   -4.7833    1.3125    0.0000 C   0  0  0  0  0  0  0  0  0  0  0  0
    4.5125    0.0958    0.0000 O   0  0  0  0  0  0  0  0  0  0  0  0
    4.5042   -1.5625    0.0000 O   0  0  0  0  0  0  0  0  0  0  0  0
   -5.4958    0.8958    0.0000 O   0  0  0  0  0  0  0  0  0  0  0  0
   -3.3625    2.1500    0.0000 C   0  0  0  0  0  0  0  0  0  0  0  0
   -4.0833    2.5583    0.0000 C   0  0  0  0  0  0  0  0  0  0  0  0
   -4.7958    2.1458    0.0000 C   0  0  0  0  0  0  0  0  0  0  0  0
    4.5042    0.9208    0.0000 C   0  0  0  0  0  0  0  0  0  0  0  0
    5.2250   -1.1500    0.0000 C   0  0  0  0  0  0  0  0  0  0  0  0
   -5.4875    0.0708    0.0000 C   0  0  0  0  0  0  0  0  0  0  0  0
  2  1  1  0  0  0  0
  3  2  1  0  0  0  0
  4  1  2  0  0  0  0
  5  7  1  0  0  0  0
  6  1  1  0  0  0  0
  7  4  1  0  0  0  0
  8 11  1  0  0  0  0
  9  5  2  0  0  0  0
 10  6  1  0  0  0  0
 11 15  1  0  0  0  0
 12  8  1  0  0  0  0
 13  3  2  0  0  0  0
 14 10  2  0  0  0  0
 15  9  1  0  0  0  0
 16  2  2  0  0  0  0
 17 21  2  0  0  0  0
 18  8  2  0  0  0  0
 19  6  2  0  0  0  0
 20 12  1  0  0  0  0
 21 19  1  0  0  0  0
 22 13  1  0  0  0  0
 23 20  2  0  0  0  0
 24 14  1  0  0  0  0
 25 17  1  0  0  0  0
 26 23  1  0  0  0  0
 27 12  2  0  0  0  0
 28 27  1  0  0  0  0
 29 28  2  0  0  0  0
 30 24  1  0  0  0  0
 31 25  1  0  0  0  0
 32 26  1  0  0  0  0
  3  5  1  0  0  0  0
 17 14  1  0  0  0  0
 22 15  2  0  0  0  0
 29 23  1  0  0  0  0
M  END
> <IDNUMBER>
F3139-1555

> <Chemical_Name>
3-(3,4-dimethoxyphenyl)-4-oxo-4H-chromen-7-yl 3-methoxybenzoate

> <CAS>
637749-87-2

> <PriceCoeff>
1.00

> <MW>
432.42

> <Description>
solid

> <FSP3>
0.12

> <clogP>
4.48

> <TPSA>
80.29

> <Acceptor>
7

> <Donor>
0

> <RotBonds>
7

> <HAC>
32

> <Collection>
General

> <Reference_compound>
CHEMBL455048

> <Similarity>
0.8290

$$$$
F3139-1545
  -ISIS-  06222321152D

 31 34  0  0  0  0  0  0  0  0999 V2000
    2.2375   -2.3292    0.0000 C   0  0  0  0  0  0  0  0  0  0  0  0
    1.5167   -2.7417    0.0000 C   0  0  0  0  0  0  0  0  0  0  0  0
    0.8042   -2.3292    0.0000 C   0  0  0  0  0  0  0  0  0  0  0  0
    2.2375   -1.5042    0.0000 C   0  0  0  0  0  0  0  0  0  0  0  0
    0.8042   -1.5042    0.0000 C   0  0  0  0  0  0  0  0  0  0  0  0
    2.9500   -2.7500    0.0000 C   0  0  0  0  0  0  0  0  0  0  0  0
    1.5167   -1.0917    0.0000 O   0  0  0  0  0  0  0  0  0  0  0  0
   -2.0583   -1.5042    0.0000 C   0  0  0  0  0  0  0  0  0  0  0  0
    0.0917   -1.0917    0.0000 C   0  0  0  0  0  0  0  0  0  0  0  0
    3.6667   -2.3292    0.0000 C   0  0  0  0  0  0  0  0  0  0  0  0
   -1.3458   -1.0917    0.0000 O   0  0  0  0  0  0  0  0  0  0  0  0
    0.0917   -2.7417    0.0000 C   0  0  0  0  0  0  0  0  0  0  0  0
    4.3792   -2.7417    0.0000 C   0  0  0  0  0  0  0  0  0  0  0  0
   -2.7708   -1.0792    0.0000 C   0  0  0  0  0  0  0  0  0  0  0  0
   -0.6208   -1.5125    0.0000 C   0  0  0  0  0  0  0  0  0  0  0  0
    1.5167   -3.5667    0.0000 O   0  0  0  0  0  0  0  0  0  0  0  0
    4.3792   -3.5667    0.0000 C   0  0  0  0  0  0  0  0  0  0  0  0
   -2.0708   -2.3292    0.0000 O   0  0  0  0  0  0  0  0  0  0  0  0
    2.9500   -3.5750    0.0000 C   0  0  0  0  0  0  0  0  0  0  0  0
    3.6625   -3.9875    0.0000 C   0  0  0  0  0  0  0  0  0  0  0  0
   -2.7625   -0.2625    0.0000 C   0  0  0  0  0  0  0  0  0  0  0  0
   -3.4833   -1.4917    0.0000 C   0  0  0  0  0  0  0  0  0  0  0  0
   -0.6208   -2.3292    0.0000 C   0  0  0  0  0  0  0  0  0  0  0  0
   -4.1958   -0.2542    0.0000 C   0  0  0  0  0  0  0  0  0  0  0  0
    5.0917   -2.3292    0.0000 O   0  0  0  0  0  0  0  0  0  0  0  0
   -4.1958   -1.0792    0.0000 C   0  0  0  0  0  0  0  0  0  0  0  0
   -3.4750    0.1583    0.0000 C   0  0  0  0  0  0  0  0  0  0  0  0
   -4.9083    0.1625    0.0000 Cl  0  0  0  0  0  0  0  0  0  0  0  0
    5.0917   -3.9875    0.0000 O   0  0  0  0  0  0  0  0  0  0  0  0
    5.0917   -1.5042    0.0000 C   0  0  0  0  0  0  0  0  0  0  0  0
    5.8125   -3.5792    0.0000 C   0  0  0  0  0  0  0  0  0  0  0  0
  2  1  1  0  0  0  0
  3  2  1  0  0  0  0
  4  1  2  0  0  0  0
  5  7  1  0  0  0  0
  6  1  1  0  0  0  0
  7  4  1  0  0  0  0
  8 11  1  0  0  0  0
  9  5  2  0  0  0  0
 10  6  1  0  0  0  0
 11 15  1  0  0  0  0
 12  3  2  0  0  0  0
 13 10  2  0  0  0  0
 14  8  1  0  0  0  0
 15  9  1  0  0  0  0
 16  2  2  0  0  0  0
 17 20  2  0  0  0  0
 18  8  2  0  0  0  0
 19  6  2  0  0  0  0
 20 19  1  0  0  0  0
 21 14  2  0  0  0  0
 22 14  1  0  0  0  0
 23 12  1  0  0  0  0
 24 26  1  0  0  0  0
 25 13  1  0  0  0  0
 26 22  2  0  0  0  0
 27 21  1  0  0  0  0
 28 24  1  0  0  0  0
 29 17  1  0  0  0  0
 30 25  1  0  0  0  0
 31 29  1  0  0  0  0
  3  5  1  0  0  0  0
 17 13  1  0  0  0  0
 23 15  2  0  0  0  0
 24 27  2  0  0  0  0
M  END
> <IDNUMBER>
F3139-1545

> <Chemical_Name>
3-(3,4-dimethoxyphenyl)-4-oxo-4H-chromen-7-yl 4-chlorobenzoate

> <CAS>
637749-81-6

> <PriceCoeff>
1.00

> <MW>
436.84

> <Description>
solid

> <FSP3>
0.08

> <clogP>
5.02

> <TPSA>
71.06

> <Acceptor>
6

> <Donor>
0

> <RotBonds>
6

> <HAC>
31

> <Collection>
General

> <Reference_compound>
CHEMBL455048

> <Similarity>
0.8000

$$$$
F1816-1188
  -ISIS-  06222321452D

 27 30  0  0  0  0  0  0  0  0999 V2000
   -4.5833    2.5500    0.0000 C   0  0  0  0  0  0  0  0  0  0  0  0
   -5.3500    2.8708    0.0000 S   0  0  0  0  0  0  0  0  0  0  0  0
   -3.1583    5.0417    0.0000 N   0  0  3  0  0  0  0  0  0  0  0  0
   -4.6583    1.7375    0.0000 N   0  0  3  0  0  0  0  0  0  0  0  0
   -5.8833    2.2458    0.0000 C   0  0  0  0  0  0  0  0  0  0  0  0
   -3.8708    2.9833    0.0000 N   0  0  0  0  0  0  0  0  0  0  0  0
   -5.4583    1.5458    0.0000 C   0  0  0  0  0  0  0  0  0  0  0  0
   -2.4833    5.5167    0.0000 C   0  0  0  0  0  0  0  0  0  0  0  0
   -3.8208    5.5167    0.0000 C   0  0  0  0  0  0  0  0  0  0  0  0
   -3.8708    3.8000    0.0000 C   0  0  0  0  0  0  0  0  0  0  0  0
   -6.7042    2.2333    0.0000 C   0  0  0  0  0  0  0  0  0  0  0  0
   -3.1583    4.2125    0.0000 C   0  0  0  0  0  0  0  0  0  0  0  0
   -5.8458    0.8208    0.0000 C   0  0  0  0  0  0  0  0  0  0  0  0
   -3.2375    1.4625    0.0000 C   0  0  0  0  0  0  0  0  0  0  0  0
   -2.4625    1.7458    0.0000 C   0  0  0  0  0  0  0  0  0  0  0  0
   -2.7458    6.3125    0.0000 C   0  0  0  0  0  0  0  0  0  0  0  0
   -3.5708    6.3042    0.0000 C   0  0  0  0  0  0  0  0  0  0  0  0
   -1.6958    5.2625    0.0000 O   0  0  0  0  0  0  0  0  0  0  0  0
   -4.6083    5.2750    0.0000 O   0  0  0  0  0  0  0  0  0  0  0  0
   -4.5833    4.2042    0.0000 O   0  0  0  0  0  0  0  0  0  0  0  0
   -4.0208    1.1958    0.0000 C   0  0  0  0  0  0  0  0  0  0  0  0
   -7.1042    1.5083    0.0000 C   0  0  0  0  0  0  0  0  0  0  0  0
   -6.6667    0.7958    0.0000 C   0  0  0  0  0  0  0  0  0  0  0  0
   -7.1417    2.9333    0.0000 C   0  0  0  0  0  0  0  0  0  0  0  0
   -7.9167    1.4833    0.0000 C   0  0  0  0  0  0  0  0  0  0  0  0
   -7.9667    2.9125    0.0000 C   0  0  0  0  0  0  0  0  0  0  0  0
   -8.3542    2.1875    0.0000 C   0  0  0  0  0  0  0  0  0  0  0  0
  2  1  1  0  0  0  0
  3 12  1  0  0  0  0
  4  1  1  0  0  0  0
  5  2  1  0  0  0  0
  6  1  2  0  0  0  0
  7  4  1  0  0  0  0
  8  3  1  0  0  0  0
  9  3  1  0  0  0  0
 10  6  1  0  0  0  0
 11  5  1  0  0  0  0
 12 10  1  0  0  0  0
 13  7  1  0  0  0  0
 14 21  1  0  0  0  0
 15 14  3  0  0  0  0
 16  8  1  0  0  0  0
 17  9  1  0  0  0  0
 18  8  2  0  0  0  0
 19  9  2  0  0  0  0
 20 10  2  0  0  0  0
 21  4  1  0  0  0  0
 22 11  1  0  0  0  0
 23 13  2  0  0  0  0
 24 11  2  0  0  0  0
 25 22  2  0  0  0  0
 26 24  1  0  0  0  0
 27 26  2  0  0  0  0
  7  5  2  0  0  0  0
 22 23  1  0  0  0  0
 16 17  1  0  0  0  0
 27 25  1  0  0  0  0
M  END
> <IDNUMBER>
F1816-1188

> <Chemical_Name>
2-(2,5-dioxopyrrolidin-1-yl)-N-[(2Z)-3-(prop-2-yn-1-yl)-2H,3H-naphtho[2,1-d][1,3]thiazol-2-ylidene]acetamide

> <CAS>
868674-77-5

> <PriceCoeff>
1.00

> <MW>
377.42

> <Description>
solid

> <FSP3>
0.20

> <clogP>
4.05

> <TPSA>
95.35

> <Acceptor>
3

> <Donor>
0

> <RotBonds>
5

> <HAC>
27

> <Collection>
General

$$$$
F3385-3750
  -ISIS-  06222321152D

 32 35  0  0  0  0  0  0  0  0999 V2000
    6.5292   -6.6292    0.0000 C   0  0  0  0  0  0  0  0  0  0  0  0
    5.8042   -7.0417    0.0000 C   0  0  0  0  0  0  0  0  0  0  0  0
    2.2292   -5.8000    0.0000 C   0  0  0  0  0  0  0  0  0  0  0  0
    5.0875   -6.6292    0.0000 C   0  0  0  0  0  0  0  0  0  0  0  0
    1.5167   -5.3875    0.0000 C   0  0  0  0  0  0  0  0  0  0  0  0
    6.5292   -5.7917    0.0000 C   0  0  0  0  0  0  0  0  0  0  0  0
    5.0917   -5.7917    0.0000 C   0  0  0  0  0  0  0  0  0  0  0  0
    5.8042   -5.3792    0.0000 O   0  0  0  0  0  0  0  0  0  0  0  0
    2.9500   -5.3875    0.0000 O   0  0  0  0  0  0  0  0  0  0  0  0
    4.3750   -5.3792    0.0000 C   0  0  0  0  0  0  0  0  0  0  0  0
    7.2375   -7.0417    0.0000 C   0  0  0  0  0  0  0  0  0  0  0  0
    4.3750   -7.0375    0.0000 C   0  0  0  0  0  0  0  0  0  0  0  0
    2.2292   -6.6250    0.0000 O   0  0  0  0  0  0  0  0  0  0  0  0
    3.6625   -5.8000    0.0000 C   0  0  0  0  0  0  0  0  0  0  0  0
    5.8042   -7.8667    0.0000 O   0  0  0  0  0  0  0  0  0  0  0  0
    1.5250   -4.5542    0.0000 C   0  0  0  0  0  0  0  0  0  0  0  0
    0.8125   -5.8000    0.0000 C   0  0  0  0  0  0  0  0  0  0  0  0
    7.9500   -6.6292    0.0000 C   0  0  0  0  0  0  0  0  0  0  0  0
    7.2292   -7.8667    0.0000 C   0  0  0  0  0  0  0  0  0  0  0  0
    3.6625   -6.6250    0.0000 C   0  0  0  0  0  0  0  0  0  0  0  0
    8.6625   -7.8750    0.0000 C   0  0  0  0  0  0  0  0  0  0  0  0
    7.9417   -8.2792    0.0000 C   0  0  0  0  0  0  0  0  0  0  0  0
    8.6625   -7.0417    0.0000 C   0  0  0  0  0  0  0  0  0  0  0  0
    2.2375   -4.1542    0.0000 O   0  0  0  0  0  0  0  0  0  0  0  0
    0.8125   -6.6167    0.0000 O   0  0  0  0  0  0  0  0  0  0  0  0
    9.3750   -8.2875    0.0000 O   0  0  0  0  0  0  0  0  0  0  0  0
    0.0917   -4.5625    0.0000 C   0  0  0  0  0  0  0  0  0  0  0  0
    0.0917   -5.3917    0.0000 C   0  0  0  0  0  0  0  0  0  0  0  0
    0.8042   -4.1500    0.0000 C   0  0  0  0  0  0  0  0  0  0  0  0
    2.2375   -3.3292    0.0000 C   0  0  0  0  0  0  0  0  0  0  0  0
    1.5250   -7.0292    0.0000 C   0  0  0  0  0  0  0  0  0  0  0  0
   10.0917   -7.8750    0.0000 C   0  0  0  0  0  0  0  0  0  0  0  0
  2  1  1  0  0  0  0
  3  9  1  0  0  0  0
  4  2  1  0  0  0  0
  5  3  1  0  0  0  0
  6  1  2  0  0  0  0
  7  8  1  0  0  0  0
  8  6  1  0  0  0  0
  9 14  1  0  0  0  0
 10  7  2  0  0  0  0
 11  1  1  0  0  0  0
 12  4  2  0  0  0  0
 13  3  2  0  0  0  0
 14 10  1  0  0  0  0
 15  2  2  0  0  0  0
 16  5  2  0  0  0  0
 17  5  1  0  0  0  0
 18 11  1  0  0  0  0
 19 11  2  0  0  0  0
 20 12  1  0  0  0  0
 21 22  2  0  0  0  0
 22 19  1  0  0  0  0
 23 18  2  0  0  0  0
 24 16  1  0  0  0  0
 25 17  1  0  0  0  0
 26 21  1  0  0  0  0
 27 28  1  0  0  0  0
 28 17  2  0  0  0  0
 29 16  1  0  0  0  0
 30 24  1  0  0  0  0
 31 25  1  0  0  0  0
 32 26  1  0  0  0  0
 23 21  1  0  0  0  0
  4  7  1  0  0  0  0
 20 14  2  0  0  0  0
 27 29  2  0  0  0  0
M  END
> <IDNUMBER>
F3385-3750

> <Chemical_Name>
3-(4-methoxyphenyl)-4-oxo-4H-chromen-7-yl 2,6-dimethoxybenzoate

> <CAS>
858768-38-4

> <PriceCoeff>
1.00

> <MW>
432.42

> <Description>
solid

> <FSP3>
0.12

> <clogP>
4.33

> <TPSA>
80.29

> <Acceptor>
7

> <Donor>
0

> <RotBonds>
7

> <HAC>
32

> <Collection>
General

> <Reference_compound>
CHEMBL44

> <Similarity>
0.8120

$$$$
F2744-1046
  -ISIS-  06222321152D

 29 31  0  0  0  0  0  0  0  0999 V2000
   -2.4583    2.6708    0.0000 C   0  0  0  0  0  0  0  0  0  0  0  0
   -3.1708    1.4333    0.0000 N   0  0  3  0  0  0  0  0  0  0  0  0
   -0.1833    5.7042    0.0000 N   0  3  0  0  0  0  0  0  0  0  0  0
    0.0417    4.8792    0.0000 C   0  0  0  0  0  0  0  0  0  0  0  0
   -2.4583    1.8458    0.0000 C   0  0  0  0  0  0  0  0  0  0  0  0
   -1.7458    3.0833    0.0000 C   0  0  0  0  0  0  0  0  0  0  0  0
   -3.8750    1.8458    0.0000 C   0  0  0  0  0  0  0  0  0  0  0  0
   -3.1708    3.0833    0.0000 C   0  0  0  0  0  0  0  0  0  0  0  0
   -3.1708    0.5875    0.0000 C   0  0  0  0  0  0  0  0  0  0  0  0
   -3.8750    2.6708    0.0000 C   0  0  0  0  0  0  0  0  0  0  0  0
   -2.4333    0.1708    0.0000 C   0  0  0  0  0  0  0  0  0  0  0  0
   -0.9250    2.8708    0.0000 N   0  0  0  0  0  0  0  0  0  0  0  0
   -0.5583    4.2792    0.0000 C   0  0  0  0  0  0  0  0  0  0  0  0
    0.8542    4.6667    0.0000 C   0  0  0  0  0  0  0  0  0  0  0  0
    0.4042    6.3042    0.0000 O   0  5  0  0  0  0  0  0  0  0  0  0
   -1.0083    5.9167    0.0000 O   0  0  0  0  0  0  0  0  0  0  0  0
   -0.3333    3.4708    0.0000 C   0  0  0  0  0  0  0  0  0  0  0  0
   -2.1583    3.8000    0.0000 O   0  0  0  0  0  0  0  0  0  0  0  0
   -2.4375   -0.6792    0.0000 C   0  0  0  0  0  0  0  0  0  0  0  0
   -1.6875    0.5875    0.0000 C   0  0  0  0  0  0  0  0  0  0  0  0
   -4.5625    1.8958    0.0000 O   0  0  0  0  0  0  0  0  0  0  0  0
    1.0792    3.8708    0.0000 C   0  0  0  0  0  0  0  0  0  0  0  0
   -1.7083   -1.1042    0.0000 C   0  0  0  0  0  0  0  0  0  0  0  0
   -0.9583    0.1625    0.0000 C   0  0  0  0  0  0  0  0  0  0  0  0
    0.4875    3.2583    0.0000 C   0  0  0  0  0  0  0  0  0  0  0  0
    1.4500    5.2792    0.0000 Cl  0  0  0  0  0  0  0  0  0  0  0  0
   -0.9625   -0.6875    0.0000 C   0  0  0  0  0  0  0  0  0  0  0  0
   -3.1708   -1.1042    0.0000 C   0  0  0  0  0  0  0  0  0  0  0  0
   -0.2250    0.5750    0.0000 C   0  0  0  0  0  0  0  0  0  0  0  0
  2  5  1  0  0  0  0
  3  4  1  0  0  0  0
  4 13  2  0  0  0  0
  5  1  2  0  0  0  0
  6  1  1  0  0  0  0
  7 10  1  0  0  0  0
  8  1  1  0  0  0  0
  9  2  1  0  0  0  0
 10  8  2  0  0  0  0
 11  9  1  0  0  0  0
 12  6  1  0  0  0  0
 13 17  1  0  0  0  0
 14 22  2  0  0  0  0
 15  3  1  0  0  0  0
 16  3  2  0  0  0  0
 17 12  1  0  0  0  0
 18  6  2  0  0  0  0
 19 11  2  0  0  0  0
 20 11  1  0  0  0  0
 21  7  2  0  0  0  0
 22 25  1  0  0  0  0
 23 19  1  0  0  0  0
 24 20  2  0  0  0  0
 25 17  2  0  0  0  0
 26 14  1  0  0  0  0
 27 24  1  0  0  0  0
 28 19  1  0  0  0  0
 29 24  1  0  0  0  0
  2  7  1  0  0  0  0
 14  4  1  0  0  0  0
 27 23  2  0  0  0  0
M  CHG  2   3   1  15  -1
M  END
> <IDNUMBER>
F2744-1046

> <Chemical_Name>
N-(4-chloro-3-nitrophenyl)-1-[(2,5-dimethylphenyl)methyl]-6-oxo-1,6-dihydropyridine-3-carboxamide

> <CAS>
941884-86-2

> <PriceCoeff>
1.00

> <MW>
411.84

> <Description>
solid

> <FSP3>
0.14

> <clogP>
4.29

> <TPSA>
92.55

> <Acceptor>
4

> <Donor>
1

> <RotBonds>
5

> <HAC>
29

> <Collection>
General

$$$$
F3023-0416
  -ISIS-  06222321442D

 24 26  0  0  0  0  0  0  0  0999 V2000
    9.9917   -6.1542    0.0000 N   0  0  3  0  0  0  0  0  0  0  0  0
    9.5667   -5.5750    0.0000 C   0  0  0  0  0  0  0  0  0  0  0  0
    9.5667   -6.7375    0.0000 C   0  0  0  0  0  0  0  0  0  0  0  0
    8.8792   -6.5042    0.0000 C   0  0  3  0  0  0  0  0  0  0  0  0
    8.8875   -5.7917    0.0000 C   0  0  0  0  0  0  0  0  0  0  0  0
   10.7042   -6.1625    0.0000 C   0  0  0  0  0  0  0  0  0  0  0  0
   11.0625   -5.5417    0.0000 C   0  0  0  0  0  0  0  0  0  0  0  0
    8.3042   -6.9292    0.0000 N   0  0  0  0  0  0  0  0  0  0  0  0
   11.0542   -6.7875    0.0000 C   0  0  0  0  0  0  0  0  0  0  0  0
    9.7917   -4.8917    0.0000 O   0  0  0  0  0  0  0  0  0  0  0  0
    9.7792   -7.4167    0.0000 O   0  0  0  0  0  0  0  0  0  0  0  0
   11.7792   -5.5417    0.0000 C   0  0  0  0  0  0  0  0  0  0  0  0
    7.6500   -6.6292    0.0000 C   0  0  0  0  0  0  0  0  0  0  0  0
   12.1375   -6.1667    0.0000 C   0  0  0  0  0  0  0  0  0  0  0  0
   11.7750   -6.7917    0.0000 C   0  0  0  0  0  0  0  0  0  0  0  0
    6.3500   -6.0417    0.0000 C   0  0  0  0  0  0  0  0  0  0  0  0
   12.8542   -6.1750    0.0000 I   0  0  0  0  0  0  0  0  0  0  0  0
    7.5792   -5.9167    0.0000 C   0  0  0  0  0  0  0  0  0  0  0  0
    7.0750   -7.0500    0.0000 C   0  0  0  0  0  0  0  0  0  0  0  0
    6.4167   -6.7542    0.0000 C   0  0  0  0  0  0  0  0  0  0  0  0
    6.9292   -5.6250    0.0000 C   0  0  0  0  0  0  0  0  0  0  0  0
    5.6917   -5.7417    0.0000 O   0  0  0  0  0  0  0  0  0  0  0  0
   10.7042   -4.9250    0.0000 C   0  0  0  0  0  0  0  0  0  0  0  0
    5.6250   -5.0292    0.0000 C   0  0  0  0  0  0  0  0  0  0  0  0
  2  1  1  0  0  0  0
  3  1  1  0  0  0  0
  4  3  1  0  0  0  0
  5  2  1  0  0  0  0
  6  1  1  0  0  0  0
  7  6  1  0  0  0  0
  8  4  1  0  0  0  0
  9  6  2  0  0  0  0
 10  2  2  0  0  0  0
 11  3  2  0  0  0  0
 12  7  2  0  0  0  0
 13  8  1  0  0  0  0
 14 15  2  0  0  0  0
 15  9  1  0  0  0  0
 16 20  1  0  0  0  0
 17 14  1  0  0  0  0
 18 13  2  0  0  0  0
 19 13  1  0  0  0  0
 20 19  2  0  0  0  0
 21 18  1  0  0  0  0
 22 16  1  0  0  0  0
 23  7  1  0  0  0  0
 24 22  1  0  0  0  0
  4  5  1  0  0  0  0
 14 12  1  0  0  0  0
 16 21  2  0  0  0  0
M  END
> <IDNUMBER>
F3023-0416

> <Chemical_Name>
1-(4-iodo-2-methylphenyl)-3-[(4-methoxyphenyl)amino]pyrrolidine-2,5-dione

> <CAS>
1042697-01-7

> <PriceCoeff>
1.00

> <MW>
436.24

> <Description>
solid

> <FSP3>
0.22

> <clogP>
4.09

> <TPSA>
58.64

> <Acceptor>
4

> <Donor>
1

> <RotBonds>
4

> <HAC>
24

> <Collection>
General

$$$$
F1814-0657
  -ISIS-  06222321452D

 29 32  0  0  0  0  0  0  0  0999 V2000
   -5.2833    2.1875    0.0000 C   0  0  0  0  0  0  0  0  0  0  0  0
   -4.5833    2.5958    0.0000 N   0  0  0  0  0  0  0  0  0  0  0  0
   -5.3583    1.3583    0.0000 N   0  0  3  0  0  0  0  0  0  0  0  0
   -6.0292    2.5333    0.0000 S   0  0  0  0  0  0  0  0  0  0  0  0
   -1.7208    3.3833    0.0000 N   0  0  3  0  0  0  0  0  0  0  0  0
   -6.1667    1.1833    0.0000 C   0  0  0  0  0  0  0  0  0  0  0  0
   -6.5917    1.9000    0.0000 C   0  0  0  0  0  0  0  0  0  0  0  0
   -4.5833    3.3958    0.0000 C   0  0  0  0  0  0  0  0  0  0  0  0
   -2.4375    3.8083    0.0000 C   0  0  0  0  0  0  0  0  0  0  0  0
   -1.6750    2.5583    0.0000 C   0  0  0  0  0  0  0  0  0  0  0  0
   -0.9500    3.6958    0.0000 C   0  0  0  0  0  0  0  0  0  0  0  0
   -7.4375    1.9000    0.0000 C   0  0  0  0  0  0  0  0  0  0  0  0
   -3.1583    3.3958    0.0000 C   0  0  0  0  0  0  0  0  0  0  0  0
   -3.8708    3.8000    0.0000 C   0  0  0  0  0  0  0  0  0  0  0  0
   -6.5917    0.4583    0.0000 C   0  0  0  0  0  0  0  0  0  0  0  0
   -7.8542    1.1708    0.0000 C   0  0  0  0  0  0  0  0  0  0  0  0
   -5.2833    3.7958    0.0000 O   0  0  0  0  0  0  0  0  0  0  0  0
   -0.8583    2.3583    0.0000 C   0  0  0  0  0  0  0  0  0  0  0  0
   -0.4208    3.0583    0.0000 C   0  0  0  0  0  0  0  0  0  0  0  0
   -2.3083    2.0375    0.0000 O   0  0  0  0  0  0  0  0  0  0  0  0
   -0.7375    4.4667    0.0000 O   0  0  0  0  0  0  0  0  0  0  0  0
   -7.4292    0.4500    0.0000 C   0  0  0  0  0  0  0  0  0  0  0  0
   -4.7708    0.8125    0.0000 C   0  0  0  0  0  0  0  0  0  0  0  0
   -2.4333    4.6167    0.0000 C   0  0  0  0  0  0  0  0  0  0  0  0
   -7.8417    2.6083    0.0000 C   0  0  0  0  0  0  0  0  0  0  0  0
   -3.8625    4.6292    0.0000 C   0  0  0  0  0  0  0  0  0  0  0  0
   -3.1458    5.0417    0.0000 C   0  0  0  0  0  0  0  0  0  0  0  0
   -7.8375   -0.2667    0.0000 C   0  0  0  0  0  0  0  0  0  0  0  0
   -4.9375    0.0125    0.0000 C   0  0  0  0  0  0  0  0  0  0  0  0
  2  1  2  0  0  0  0
  3  1  1  0  0  0  0
  4  1  1  0  0  0  0
  5  9  1  0  0  0  0
  6  3  1  0  0  0  0
  7  4  1  0  0  0  0
  8  2  1  0  0  0  0
  9 13  1  0  0  0  0
 10  5  1  0  0  0  0
 11  5  1  0  0  0  0
 12  7  1  0  0  0  0
 13 14  2  0  0  0  0
 14  8  1  0  0  0  0
 15  6  1  0  0  0  0
 16 12  2  0  0  0  0
 17  8  2  0  0  0  0
 18 10  1  0  0  0  0
 19 11  1  0  0  0  0
 20 10  2  0  0  0  0
 21 11  2  0  0  0  0
 22 15  2  0  0  0  0
 23  3  1  0  0  0  0
 24 27  1  0  0  0  0
 25 12  1  0  0  0  0
 26 14  1  0  0  0  0
 27 26  2  0  0  0  0
 28 22  1  0  0  0  0
 29 23  1  0  0  0  0
  6  7  2  0  0  0  0
 16 22  1  0  0  0  0
 24  9  2  0  0  0  0
 19 18  1  0  0  0  0
M  END
> <IDNUMBER>
F1814-0657

> <Chemical_Name>
3-(2,5-dioxopyrrolidin-1-yl)-N-[(2Z)-3-ethyl-5,7-dimethyl-2,3-dihydro-1,3-benzothiazol-2-ylidene]benzamide

> <CAS>
868369-96-4

> <PriceCoeff>
1.00

> <MW>
407.49

> <Description>
solid

> <FSP3>
0.27

> <clogP>
4.48

> <TPSA>
95.35

> <Acceptor>
3

> <Donor>
0

> <RotBonds>
4

> <HAC>
29

> <Collection>
General

$$$$
F1814-0653
  -ISIS-  06222321442D

 28 31  0  0  0  0  0  0  0  0999 V2000
   -5.2833    2.1875    0.0000 C   0  0  0  0  0  0  0  0  0  0  0  0
   -6.0292    2.5333    0.0000 S   0  0  0  0  0  0  0  0  0  0  0  0
   -4.5833    2.5958    0.0000 N   0  0  0  0  0  0  0  0  0  0  0  0
   -6.5917    1.9000    0.0000 C   0  0  0  0  0  0  0  0  0  0  0  0
   -5.3583    1.3500    0.0000 N   0  0  3  0  0  0  0  0  0  0  0  0
   -1.7208    3.3833    0.0000 N   0  0  3  0  0  0  0  0  0  0  0  0
   -6.1667    1.1750    0.0000 C   0  0  0  0  0  0  0  0  0  0  0  0
   -4.5833    3.3958    0.0000 C   0  0  0  0  0  0  0  0  0  0  0  0
   -2.4375    3.8083    0.0000 C   0  0  0  0  0  0  0  0  0  0  0  0
   -1.6750    2.5583    0.0000 C   0  0  0  0  0  0  0  0  0  0  0  0
   -0.9500    3.6958    0.0000 C   0  0  0  0  0  0  0  0  0  0  0  0
   -3.1583    3.3958    0.0000 C   0  0  0  0  0  0  0  0  0  0  0  0
   -3.8708    3.8000    0.0000 C   0  0  0  0  0  0  0  0  0  0  0  0
   -7.4375    1.9000    0.0000 C   0  0  0  0  0  0  0  0  0  0  0  0
   -6.5917    0.4583    0.0000 C   0  0  0  0  0  0  0  0  0  0  0  0
   -5.2833    3.7958    0.0000 O   0  0  0  0  0  0  0  0  0  0  0  0
   -0.4208    3.0583    0.0000 C   0  0  0  0  0  0  0  0  0  0  0  0
   -0.8583    2.3583    0.0000 C   0  0  0  0  0  0  0  0  0  0  0  0
   -0.7375    4.4667    0.0000 O   0  0  0  0  0  0  0  0  0  0  0  0
   -2.3083    2.0375    0.0000 O   0  0  0  0  0  0  0  0  0  0  0  0
   -7.8542    1.1708    0.0000 C   0  0  0  0  0  0  0  0  0  0  0  0
   -7.4292    0.4458    0.0000 C   0  0  0  0  0  0  0  0  0  0  0  0
   -4.7708    0.8125    0.0000 C   0  0  0  0  0  0  0  0  0  0  0  0
   -7.8417    2.6083    0.0000 Cl  0  0  0  0  0  0  0  0  0  0  0  0
   -2.4333    4.6167    0.0000 C   0  0  0  0  0  0  0  0  0  0  0  0
   -3.8625    4.6292    0.0000 C   0  0  0  0  0  0  0  0  0  0  0  0
   -3.1458    5.0417    0.0000 C   0  0  0  0  0  0  0  0  0  0  0  0
   -6.1792   -0.2542    0.0000 C   0  0  0  0  0  0  0  0  0  0  0  0
  2  1  1  0  0  0  0
  3  1  2  0  0  0  0
  4  2  1  0  0  0  0
  5  1  1  0  0  0  0
  6  9  1  0  0  0  0
  7  5  1  0  0  0  0
  8  3  1  0  0  0  0
  9 12  1  0  0  0  0
 10  6  1  0  0  0  0
 11  6  1  0  0  0  0
 12 13  2  0  0  0  0
 13  8  1  0  0  0  0
 14  4  1  0  0  0  0
 15  7  1  0  0  0  0
 16  8  2  0  0  0  0
 17 11  1  0  0  0  0
 18 10  1  0  0  0  0
 19 11  2  0  0  0  0
 20 10  2  0  0  0  0
 21 14  2  0  0  0  0
 22 15  2  0  0  0  0
 23  5  1  0  0  0  0
 24 14  1  0  0  0  0
 25 27  1  0  0  0  0
 26 13  1  0  0  0  0
 27 26  2  0  0  0  0
 28 15  1  0  0  0  0
  7  4  2  0  0  0  0
 21 22  1  0  0  0  0
 25  9  2  0  0  0  0
 17 18  1  0  0  0  0
M  END
> <IDNUMBER>
F1814-0653

> <Chemical_Name>
N-[(2Z)-7-chloro-3,4-dimethyl-2,3-dihydro-1,3-benzothiazol-2-ylidene]-3-(2,5-dioxopyrrolidin-1-yl)benzamide

> <CAS>
868369-95-3

> <PriceCoeff>
1.00

> <MW>
413.88

> <Description>
solid

> <FSP3>
0.20

> <clogP>
4.16

> <TPSA>
95.35

> <Acceptor>
3

> <Donor>
0

> <RotBonds>
3

> <HAC>
28

> <Collection>
General

$$$$
F3007-0187
  -ISIS-  06222321442D

 33 38  0  0  0  0  0  0  0  0999 V2000
    1.8750   -1.0000    0.0000 C   0  0  0  0  0  0  0  0  0  0  0  0
    1.8917   -1.7917    0.0000 C   0  0  0  0  0  0  0  0  0  0  0  0
    3.1917   -1.0042    0.0000 N   0  0  3  0  0  0  0  0  0  0  0  0
    3.1917   -1.7792    0.0000 C   0  0  0  0  0  0  0  0  0  0  0  0
    2.5292   -2.1625    0.0000 N   0  0  0  0  0  0  0  0  0  0  0  0
    2.5375   -0.6167    0.0000 C   0  0  0  0  0  0  0  0  0  0  0  0
    4.5917   -4.2125    0.0000 N   0  0  3  0  0  0  0  0  0  0  0  0
    1.2125   -2.1917    0.0000 S   0  0  0  0  0  0  0  0  0  0  0  0
    0.5167   -1.0167    0.0000 C   0  0  0  0  0  0  0  0  0  0  0  0
    0.5292   -1.7875    0.0000 C   0  0  0  0  0  0  0  0  0  0  0  0
    5.2500   -4.6917    0.0000 C   0  0  0  0  0  0  0  0  0  0  0  0
    4.5917   -3.4042    0.0000 C   0  0  0  0  0  0  0  0  0  0  0  0
    3.8917   -2.1792    0.0000 S   0  0  0  0  0  0  0  0  0  0  0  0
    3.8917   -0.6000    0.0000 C   0  0  0  0  0  0  0  0  0  0  0  0
    3.9417   -4.6875    0.0000 C   0  0  0  0  0  0  0  0  0  0  0  0
    2.5375    0.1708    0.0000 O   0  0  0  0  0  0  0  0  0  0  0  0
    3.8875   -2.9917    0.0000 C   0  0  0  0  0  0  0  0  0  0  0  0
    4.9917   -5.4542    0.0000 C   0  0  0  0  0  0  0  0  0  0  0  0
    5.2917   -2.9917    0.0000 O   0  0  0  0  0  0  0  0  0  0  0  0
    4.1875   -5.4542    0.0000 C   0  0  0  0  0  0  0  0  0  0  0  0
    4.5917   -1.0042    0.0000 C   0  0  0  0  0  0  0  0  0  0  0  0
    3.8917    0.2000    0.0000 C   0  0  0  0  0  0  0  0  0  0  0  0
   -0.1583   -0.6417    0.0000 C   0  0  0  0  0  0  0  0  0  0  0  0
    5.2917    0.2000    0.0000 C   0  0  0  0  0  0  0  0  0  0  0  0
   -0.8083   -1.8167    0.0000 C   0  0  0  0  0  0  0  0  0  0  0  0
    4.5917    0.6083    0.0000 C   0  0  0  0  0  0  0  0  0  0  0  0
    5.2917   -0.6042    0.0000 C   0  0  0  0  0  0  0  0  0  0  0  0
    5.9917    0.6083    0.0000 Cl  0  0  0  0  0  0  0  0  0  0  0  0
    6.0292   -4.5250    0.0000 C   0  0  0  0  0  0  0  0  0  0  0  0
   -0.8208   -1.0417    0.0000 C   0  0  0  0  0  0  0  0  0  0  0  0
    5.5292   -6.0542    0.0000 C   0  0  0  0  0  0  0  0  0  0  0  0
    6.5667   -5.1167    0.0000 C   0  0  0  0  0  0  0  0  0  0  0  0
    6.3167   -5.8875    0.0000 C   0  0  0  0  0  0  0  0  0  0  0  0
  2  1  2  0  0  0  0
  3  6  1  0  0  0  0
  4  3  1  0  0  0  0
  5  2  1  0  0  0  0
  6  1  1  0  0  0  0
  7 12  1  0  0  0  0
  8  2  1  0  0  0  0
  9  1  1  0  0  0  0
 10  9  2  0  0  0  0
 11  7  1  0  0  0  0
 12 17  1  0  0  0  0
 13  4  1  0  0  0  0
 14  3  1  0  0  0  0
 15  7  1  0  0  0  0
 16  6  2  0  0  0  0
 17 13  1  0  0  0  0
 18 11  2  0  0  0  0
 19 12  2  0  0  0  0
 20 15  1  0  0  0  0
 21 14  2  0  0  0  0
 22 14  1  0  0  0  0
 23  9  1  0  0  0  0
 24 26  1  0  0  0  0
 25 10  1  0  0  0  0
 26 22  2  0  0  0  0
 27 21  1  0  0  0  0
 28 24  1  0  0  0  0
 29 11  1  0  0  0  0
 30 23  1  0  0  0  0
 31 18  1  0  0  0  0
 32 29  2  0  0  0  0
 33 32  1  0  0  0  0
 10  8  1  0  0  0  0
  5  4  2  0  0  0  0
 30 25  1  0  0  0  0
 27 24  2  0  0  0  0
 20 18  1  0  0  0  0
 31 33  2  0  0  0  0
M  END
> <IDNUMBER>
F3007-0187

> <Chemical_Name>
11-(4-chlorophenyl)-10-{[2-(2,3-dihydro-1H-indol-1-yl)-2-oxoethyl]sulfanyl}-7-thia-9,11-diazatricyclo[6.4.0.0^{2,6}]dodeca-1(8),2(6),9-trien-12-one

> <CAS>
710289-42-2

> <PriceCoeff>
1.00

> <MW>
494.03

> <Description>
solid

> <FSP3>
0.24

> <clogP>
6.17

> <TPSA>
106.52

> <Acceptor>
3

> <Donor>
0

> <RotBonds>
5

> <HAC>
33

> <Collection>
General

> <Reference_compound>
CHEMBL577016

> <Similarity>
0.8160

$$$$
F0709-0099
  -ISIS-  06222321452D

 24 25  0  0  0  0  0  0  0  0999 V2000
    3.7292   -2.8167    0.0000 C   0  0  0  0  0  0  0  0  0  0  0  0
    3.7292   -3.6417    0.0000 N   0  3  0  0  0  0  0  0  0  0  0  0
    1.5792   -1.5792    0.0000 C   0  0  0  0  0  0  0  0  0  0  0  0
    1.5875   -2.4042    0.0000 C   0  0  0  0  0  0  0  0  0  0  0  0
    3.0167   -2.4042    0.0000 C   0  0  0  0  0  0  0  0  0  0  0  0
    2.3000   -2.8167    0.0000 N   0  0  0  0  0  0  0  0  0  0  0  0
    0.8542   -1.1667    0.0000 C   0  0  0  0  0  0  0  0  0  0  0  0
    2.2875   -1.1667    0.0000 C   0  0  0  0  0  0  0  0  0  0  0  0
    4.4417   -2.4042    0.0000 C   0  0  0  0  0  0  0  0  0  0  0  0
    3.0042   -0.7500    0.0000 N   0  0  0  0  0  0  0  0  0  0  0  0
    3.0167   -4.0542    0.0000 O   0  5  0  0  0  0  0  0  0  0  0  0
    4.4417   -4.0542    0.0000 O   0  0  0  0  0  0  0  0  0  0  0  0
    0.8750   -2.8167    0.0000 O   0  0  0  0  0  0  0  0  0  0  0  0
    3.0167   -1.5792    0.0000 C   0  0  0  0  0  0  0  0  0  0  0  0
    0.1375   -1.5917    0.0000 C   0  0  0  0  0  0  0  0  0  0  0  0
    4.4417   -1.5792    0.0000 C   0  0  0  0  0  0  0  0  0  0  0  0
    3.7292   -1.1667    0.0000 C   0  0  0  0  0  0  0  0  0  0  0  0
    5.1625   -1.1667    0.0000 Cl  0  0  0  0  0  0  0  0  0  0  0  0
   -1.2875   -2.4167    0.0000 C   0  0  0  0  0  0  0  0  0  0  0  0
   -0.5708   -1.1792    0.0000 C   0  0  0  0  0  0  0  0  0  0  0  0
    0.1375   -2.4167    0.0000 C   0  0  0  0  0  0  0  0  0  0  0  0
   -1.2875   -1.5917    0.0000 C   0  0  0  0  0  0  0  0  0  0  0  0
   -0.5708   -2.8292    0.0000 C   0  0  0  0  0  0  0  0  0  0  0  0
   -2.0083   -2.8292    0.0000 C   0  0  0  0  0  0  0  0  0  0  0  0
  2  1  1  0  0  0  0
  3  4  1  0  0  0  0
  4  6  1  0  0  0  0
  5  1  2  0  0  0  0
  6  5  1  0  0  0  0
  7  3  2  0  0  0  0
  8  3  1  0  0  0  0
  9  1  1  0  0  0  0
 10  8  3  0  0  0  0
 11  2  1  0  0  0  0
 12  2  2  0  0  0  0
 13  4  2  0  0  0  0
 14  5  1  0  0  0  0
 15  7  1  0  0  0  0
 16  9  2  0  0  0  0
 17 16  1  0  0  0  0
 18 16  1  0  0  0  0
 19 23  2  0  0  0  0
 20 15  1  0  0  0  0
 21 15  2  0  0  0  0
 22 20  2  0  0  0  0
 23 21  1  0  0  0  0
 24 19  1  0  0  0  0
 14 17  2  0  0  0  0
 22 19  1  0  0  0  0
M  CHG  2   2   1  11  -1
M  END
> <IDNUMBER>
F0709-0099

> <Chemical_Name>
(2Z)-N-(4-chloro-2-nitrophenyl)-2-cyano-3-(4-methylphenyl)prop-2-enamide

> <CAS>
444097-92-1

> <PriceCoeff>
1.00

> <MW>
341.75

> <Description>
solid

> <FSP3>
0.06

> <clogP>
4.12

> <TPSA>
96.03

> <Acceptor>
4

> <Donor>
1

> <RotBonds>
4

> <HAC>
24

> <Collection>
General

$$$$
F1365-2970
  -ISIS-  06222321142D

 32 35  0  0  0  0  0  0  0  0999 V2000
   -1.1625    2.3833    0.0000 C   0  0  0  0  0  0  0  0  0  0  0  0
   -0.3375    2.3750    0.0000 N   0  0  0  0  0  0  0  0  0  0  0  0
   -4.5833    3.2125    0.0000 S   0  0  3  0  0  0  0  0  0  0  0  0
    2.5542    1.6500    0.0000 N   0  0  3  0  0  0  0  0  0  0  0  0
   -1.6458    1.7208    0.0000 N   0  0  3  0  0  0  0  0  0  0  0  0
   -1.6458    3.0500    0.0000 S   0  0  0  0  0  0  0  0  0  0  0  0
   -2.4333    2.7958    0.0000 C   0  0  0  0  0  0  0  0  0  0  0  0
   -2.4333    1.9708    0.0000 C   0  0  0  0  0  0  0  0  0  0  0  0
    0.0750    3.0875    0.0000 C   0  0  0  0  0  0  0  0  0  0  0  0
    2.1292    2.3708    0.0000 C   0  0  0  0  0  0  0  0  0  0  0  0
    3.3667    1.5333    0.0000 C   0  0  0  0  0  0  0  0  0  0  0  0
    2.1750    0.9125    0.0000 C   0  0  0  0  0  0  0  0  0  0  0  0
   -3.8583    2.7958    0.0000 C   0  0  0  0  0  0  0  0  0  0  0  0
   -3.1458    3.2083    0.0000 C   0  0  0  0  0  0  0  0  0  0  0  0
    1.3125    2.3750    0.0000 C   0  0  0  0  0  0  0  0  0  0  0  0
    0.9000    3.0875    0.0000 C   0  0  0  0  0  0  0  0  0  0  0  0
   -1.9458    0.3208    0.0000 C   0  0  0  0  0  0  0  0  0  0  0  0
   -3.1458    1.5583    0.0000 C   0  0  0  0  0  0  0  0  0  0  0  0
   -2.4958   -0.2917    0.0000 C   0  0  0  0  0  0  0  0  0  0  0  0
   -4.1458    3.9083    0.0000 O   0  0  0  0  0  0  0  0  0  0  0  0
   -5.0208    2.5083    0.0000 O   0  0  0  0  0  0  0  0  0  0  0  0
   -5.2833    3.6458    0.0000 N   0  0  0  0  0  0  0  0  0  0  0  0
   -0.3375    3.8000    0.0000 O   0  0  0  0  0  0  0  0  0  0  0  0
   -3.8583    1.9708    0.0000 C   0  0  0  0  0  0  0  0  0  0  0  0
    3.5042    0.7125    0.0000 C   0  0  0  0  0  0  0  0  0  0  0  0
    2.7792    0.3250    0.0000 C   0  0  0  0  0  0  0  0  0  0  0  0
    3.9500    2.1083    0.0000 O   0  0  0  0  0  0  0  0  0  0  0  0
    1.3667    0.7833    0.0000 O   0  0  0  0  0  0  0  0  0  0  0  0
   -1.3958    0.9333    0.0000 C   0  0  0  0  0  0  0  0  0  0  0  0
    2.5542    3.0833    0.0000 C   0  0  0  0  0  0  0  0  0  0  0  0
    1.3167    3.8083    0.0000 C   0  0  0  0  0  0  0  0  0  0  0  0
    2.1417    3.8000    0.0000 C   0  0  0  0  0  0  0  0  0  0  0  0
  2  1  2  0  0  0  0
  3 13  1  0  0  0  0
  4 10  1  0  0  0  0
  5  1  1  0  0  0  0
  6  1  1  0  0  0  0
  7  6  1  0  0  0  0
  8  5  1  0  0  0  0
  9  2  1  0  0  0  0
 10 15  1  0  0  0  0
 11  4  1  0  0  0  0
 12  4  1  0  0  0  0
 13 14  2  0  0  0  0
 14  7  1  0  0  0  0
 15 16  2  0  0  0  0
 16  9  1  0  0  0  0
 17 29  1  0  0  0  0
 18  8  1  0  0  0  0
 19 17  3  0  0  0  0
 20  3  2  0  0  0  0
 21  3  2  0  0  0  0
 22  3  1  0  0  0  0
 23  9  2  0  0  0  0
 24 18  2  0  0  0  0
 25 11  1  0  0  0  0
 26 12  1  0  0  0  0
 27 11  2  0  0  0  0
 28 12  2  0  0  0  0
 29  5  1  0  0  0  0
 30 32  1  0  0  0  0
 31 16  1  0  0  0  0
 32 31  2  0  0  0  0
  8  7  2  0  0  0  0
 24 13  1  0  0  0  0
 10 30  2  0  0  0  0
 25 26  1  0  0  0  0
M  END
> <IDNUMBER>
F1365-2970

> <Chemical_Name>
3-(2,5-dioxopyrrolidin-1-yl)-N-[(2Z)-3-(prop-2-yn-1-yl)-6-sulfamoyl-2,3-dihydro-1,3-benzothiazol-2-ylidene]benzamide

> <CAS>
865182-26-9

> <PriceCoeff>
1.00

> <MW>
468.51

> <Description>
solid

> <FSP3>
0.14

> <clogP>
1.21

> <TPSA>
163.89

> <Acceptor>
5

> <Donor>
1

> <RotBonds>
6

> <HAC>
32

> <Collection>
General

$$$$
F1365-1254
  -ISIS-  06222321452D

 32 35  0  0  0  0  0  0  0  0999 V2000
   -1.1625    2.3833    0.0000 C   0  0  0  0  0  0  0  0  0  0  0  0
   -0.3375    2.3750    0.0000 N   0  0  0  0  0  0  0  0  0  0  0  0
   -4.5833    3.2125    0.0000 S   0  0  3  0  0  0  0  0  0  0  0  0
    2.5542    1.6500    0.0000 N   0  0  3  0  0  0  0  0  0  0  0  0
   -1.6458    1.7208    0.0000 N   0  0  3  0  0  0  0  0  0  0  0  0
   -1.6458    3.0500    0.0000 S   0  0  0  0  0  0  0  0  0  0  0  0
   -2.4333    2.7958    0.0000 C   0  0  0  0  0  0  0  0  0  0  0  0
   -2.4333    1.9708    0.0000 C   0  0  0  0  0  0  0  0  0  0  0  0
    0.0750    3.0875    0.0000 C   0  0  0  0  0  0  0  0  0  0  0  0
    2.1292    2.3708    0.0000 C   0  0  0  0  0  0  0  0  0  0  0  0
    3.3667    1.5333    0.0000 C   0  0  0  0  0  0  0  0  0  0  0  0
    2.1750    0.9125    0.0000 C   0  0  0  0  0  0  0  0  0  0  0  0
   -3.8583    2.7958    0.0000 C   0  0  0  0  0  0  0  0  0  0  0  0
   -3.1458    3.2083    0.0000 C   0  0  0  0  0  0  0  0  0  0  0  0
    1.3125    2.3750    0.0000 C   0  0  0  0  0  0  0  0  0  0  0  0
    0.9000    3.0875    0.0000 C   0  0  0  0  0  0  0  0  0  0  0  0
   -3.1458    1.5583    0.0000 C   0  0  0  0  0  0  0  0  0  0  0  0
   -4.1458    3.9083    0.0000 O   0  0  0  0  0  0  0  0  0  0  0  0
   -5.0208    2.5083    0.0000 O   0  0  0  0  0  0  0  0  0  0  0  0
   -5.2833    3.6458    0.0000 N   0  0  0  0  0  0  0  0  0  0  0  0
   -0.3375    3.8000    0.0000 O   0  0  0  0  0  0  0  0  0  0  0  0
   -3.8583    1.9708    0.0000 C   0  0  0  0  0  0  0  0  0  0  0  0
    3.5042    0.7125    0.0000 C   0  0  0  0  0  0  0  0  0  0  0  0
    2.7792    0.3250    0.0000 C   0  0  0  0  0  0  0  0  0  0  0  0
    3.9500    2.1083    0.0000 O   0  0  0  0  0  0  0  0  0  0  0  0
    1.3667    0.7833    0.0000 O   0  0  0  0  0  0  0  0  0  0  0  0
   -1.9458    0.3208    0.0000 C   0  0  0  0  0  0  0  0  0  0  0  0
   -1.3958    0.9333    0.0000 C   0  0  0  0  0  0  0  0  0  0  0  0
   -2.7500    0.4875    0.0000 C   0  0  0  0  0  0  0  0  0  0  0  0
    2.5542    3.0833    0.0000 C   0  0  0  0  0  0  0  0  0  0  0  0
    1.3167    3.8083    0.0000 C   0  0  0  0  0  0  0  0  0  0  0  0
    2.1417    3.8000    0.0000 C   0  0  0  0  0  0  0  0  0  0  0  0
  2  1  2  0  0  0  0
  3 13  1  0  0  0  0
  4 10  1  0  0  0  0
  5  1  1  0  0  0  0
  6  1  1  0  0  0  0
  7  6  1  0  0  0  0
  8  5  1  0  0  0  0
  9  2  1  0  0  0  0
 10 15  1  0  0  0  0
 11  4  1  0  0  0  0
 12  4  1  0  0  0  0
 13 14  2  0  0  0  0
 14  7  1  0  0  0  0
 15 16  2  0  0  0  0
 16  9  1  0  0  0  0
 17  8  1  0  0  0  0
 18  3  2  0  0  0  0
 19  3  2  0  0  0  0
 20  3  1  0  0  0  0
 21  9  2  0  0  0  0
 22 17  2  0  0  0  0
 23 11  1  0  0  0  0
 24 12  1  0  0  0  0
 25 11  2  0  0  0  0
 26 12  2  0  0  0  0
 27 28  1  0  0  0  0
 28  5  1  0  0  0  0
 29 27  2  0  0  0  0
 30 32  1  0  0  0  0
 31 16  1  0  0  0  0
 32 31  2  0  0  0  0
  8  7  2  0  0  0  0
 22 13  1  0  0  0  0
 10 30  2  0  0  0  0
 23 24  1  0  0  0  0
M  END
> <IDNUMBER>
F1365-1254

> <Chemical_Name>
3-(2,5-dioxopyrrolidin-1-yl)-N-[(2Z)-3-(prop-2-en-1-yl)-6-sulfamoyl-2,3-dihydro-1,3-benzothiazol-2-ylidene]benzamide

> <CAS>
865176-40-5

> <PriceCoeff>
1.00

> <MW>
470.52

> <Description>
solid

> <FSP3>
0.14

> <clogP>
1.89

> <TPSA>
163.89

> <Acceptor>
5

> <Donor>
1

> <RotBonds>
6

> <HAC>
32

> <Collection>
General

$$$$
F1365-1236
  -ISIS-  06222321142D

 32 35  0  0  0  0  0  0  0  0999 V2000
   -1.1625    2.3833    0.0000 C   0  0  0  0  0  0  0  0  0  0  0  0
   -0.3375    2.3750    0.0000 N   0  0  0  0  0  0  0  0  0  0  0  0
   -4.5833    3.2125    0.0000 S   0  0  3  0  0  0  0  0  0  0  0  0
   -1.6458    1.7208    0.0000 N   0  0  3  0  0  0  0  0  0  0  0  0
    3.3792    3.0708    0.0000 N   0  0  3  0  0  0  0  0  0  0  0  0
   -1.6458    3.0500    0.0000 S   0  0  0  0  0  0  0  0  0  0  0  0
   -2.4333    2.7958    0.0000 C   0  0  0  0  0  0  0  0  0  0  0  0
   -2.4333    1.9708    0.0000 C   0  0  0  0  0  0  0  0  0  0  0  0
    0.0750    3.0875    0.0000 C   0  0  0  0  0  0  0  0  0  0  0  0
    3.8500    3.7583    0.0000 C   0  0  0  0  0  0  0  0  0  0  0  0
    3.8917    2.4250    0.0000 C   0  0  0  0  0  0  0  0  0  0  0  0
   -3.8583    2.7958    0.0000 C   0  0  0  0  0  0  0  0  0  0  0  0
   -3.1458    3.2083    0.0000 C   0  0  0  0  0  0  0  0  0  0  0  0
    2.5542    3.0833    0.0000 C   0  0  0  0  0  0  0  0  0  0  0  0
   -3.1458    1.5583    0.0000 C   0  0  0  0  0  0  0  0  0  0  0  0
   -4.1458    3.9083    0.0000 O   0  0  0  0  0  0  0  0  0  0  0  0
   -5.0208    2.5083    0.0000 O   0  0  0  0  0  0  0  0  0  0  0  0
    0.9000    3.0875    0.0000 C   0  0  0  0  0  0  0  0  0  0  0  0
   -5.2833    3.6458    0.0000 N   0  0  0  0  0  0  0  0  0  0  0  0
   -0.3375    3.8000    0.0000 O   0  0  0  0  0  0  0  0  0  0  0  0
   -3.8583    1.9708    0.0000 C   0  0  0  0  0  0  0  0  0  0  0  0
    4.6417    3.5250    0.0000 C   0  0  0  0  0  0  0  0  0  0  0  0
    4.6667    2.7083    0.0000 C   0  0  0  0  0  0  0  0  0  0  0  0
    3.5667    4.5417    0.0000 O   0  0  0  0  0  0  0  0  0  0  0  0
    3.6667    1.6333    0.0000 O   0  0  0  0  0  0  0  0  0  0  0  0
    2.1417    3.8000    0.0000 C   0  0  0  0  0  0  0  0  0  0  0  0
    2.1292    2.3708    0.0000 C   0  0  0  0  0  0  0  0  0  0  0  0
    1.3125    2.3833    0.0000 C   0  0  0  0  0  0  0  0  0  0  0  0
    1.3250    3.8083    0.0000 C   0  0  0  0  0  0  0  0  0  0  0  0
   -1.9458    0.3208    0.0000 C   0  0  0  0  0  0  0  0  0  0  0  0
   -1.3958    0.9333    0.0000 C   0  0  0  0  0  0  0  0  0  0  0  0
   -2.7500    0.4875    0.0000 C   0  0  0  0  0  0  0  0  0  0  0  0
  2  1  2  0  0  0  0
  3 12  1  0  0  0  0
  4  1  1  0  0  0  0
  5 14  1  0  0  0  0
  6  1  1  0  0  0  0
  7  6  1  0  0  0  0
  8  4  1  0  0  0  0
  9  2  1  0  0  0  0
 10  5  1  0  0  0  0
 11  5  1  0  0  0  0
 12 13  2  0  0  0  0
 13  7  1  0  0  0  0
 14 26  1  0  0  0  0
 15  8  1  0  0  0  0
 16  3  2  0  0  0  0
 17  3  2  0  0  0  0
 18  9  1  0  0  0  0
 19  3  1  0  0  0  0
 20  9  2  0  0  0  0
 21 15  2  0  0  0  0
 22 10  1  0  0  0  0
 23 11  1  0  0  0  0
 24 10  2  0  0  0  0
 25 11  2  0  0  0  0
 26 29  2  0  0  0  0
 27 28  1  0  0  0  0
 28 18  2  0  0  0  0
 29 18  1  0  0  0  0
 30 31  1  0  0  0  0
 31  4  1  0  0  0  0
 32 30  2  0  0  0  0
  8  7  2  0  0  0  0
 21 12  1  0  0  0  0
 14 27  2  0  0  0  0
 22 23  1  0  0  0  0
M  END
> <IDNUMBER>
F1365-1236

> <Chemical_Name>
4-(2,5-dioxopyrrolidin-1-yl)-N-[(2Z)-3-(prop-2-en-1-yl)-6-sulfamoyl-2,3-dihydro-1,3-benzothiazol-2-ylidene]benzamide

> <CAS>
865176-24-5

> <PriceCoeff>
1.00

> <MW>
470.52

> <Description>
solid

> <FSP3>
0.14

> <clogP>
1.89

> <TPSA>
163.89

> <Acceptor>
5

> <Donor>
1

> <RotBonds>
6

> <HAC>
32

> <Collection>
General

$$$$
F3385-3915
  -ISIS-  06222321152D

 24 26  0  0  0  0  0  0  0  0999 V2000
    4.3500   -1.3875    0.0000 C   0  0  0  0  0  0  0  0  0  0  0  0
    2.9292   -1.3875    0.0000 C   0  0  0  0  0  0  0  0  0  0  0  0
    3.6375   -1.7917    0.0000 C   0  0  0  0  0  0  0  0  0  0  0  0
    2.9250   -0.5667    0.0000 C   0  0  0  0  0  0  0  0  0  0  0  0
    3.6292   -0.1500    0.0000 O   0  0  0  0  0  0  0  0  0  0  0  0
    4.3500   -0.5625    0.0000 C   0  0  0  0  0  0  0  0  0  0  0  0
    2.2125   -0.1500    0.0000 C   0  0  0  0  0  0  0  0  0  0  0  0
    2.2125   -1.8042    0.0000 C   0  0  0  0  0  0  0  0  0  0  0  0
    5.0625   -1.7917    0.0000 C   0  0  0  0  0  0  0  0  0  0  0  0
    1.5000   -0.5625    0.0000 C   0  0  0  0  0  0  0  0  0  0  0  0
    3.6375   -2.6167    0.0000 O   0  0  0  0  0  0  0  0  0  0  0  0
    1.5000   -1.3917    0.0000 C   0  0  0  0  0  0  0  0  0  0  0  0
    5.7750   -1.3792    0.0000 C   0  0  0  0  0  0  0  0  0  0  0  0
    5.0625   -2.6167    0.0000 C   0  0  0  0  0  0  0  0  0  0  0  0
    6.4917   -2.6167    0.0000 C   0  0  0  0  0  0  0  0  0  0  0  0
    5.7750   -3.0292    0.0000 C   0  0  0  0  0  0  0  0  0  0  0  0
    6.4875   -1.7917    0.0000 C   0  0  0  0  0  0  0  0  0  0  0  0
    0.7875   -0.1542    0.0000 O   0  0  0  0  0  0  0  0  0  0  0  0
    2.2125    0.6750    0.0000 C   0  0  0  0  0  0  0  0  0  0  0  0
   -1.3583   -0.5667    0.0000 Br  0  0  0  0  0  0  0  0  0  0  0  0
    7.2000   -3.0292    0.0000 O   0  0  0  0  0  0  0  0  0  0  0  0
   -0.6458   -0.1542    0.0000 C   0  0  0  0  0  0  0  0  0  0  0  0
    0.0667   -0.5667    0.0000 C   0  0  0  0  0  0  0  0  0  0  0  0
    7.9125   -2.6167    0.0000 C   0  0  0  0  0  0  0  0  0  0  0  0
  2  3  1  0  0  0  0
  3  1  1  0  0  0  0
  4  5  1  0  0  0  0
  5  6  1  0  0  0  0
  6  1  2  0  0  0  0
  7  4  2  0  0  0  0
  8  2  2  0  0  0  0
  9  1  1  0  0  0  0
 10  7  1  0  0  0  0
 11  3  2  0  0  0  0
 12  8  1  0  0  0  0
 13  9  1  0  0  0  0
 14  9  2  0  0  0  0
 15 16  2  0  0  0  0
 16 14  1  0  0  0  0
 17 13  2  0  0  0  0
 18 10  1  0  0  0  0
 19  7  1  0  0  0  0
 20 22  1  0  0  0  0
 21 15  1  0  0  0  0
 22 23  1  0  0  0  0
 23 18  1  0  0  0  0
 24 21  1  0  0  0  0
 15 17  1  0  0  0  0
  2  4  1  0  0  0  0
 12 10  2  0  0  0  0
M  END
> <IDNUMBER>
F3385-3915

> <Chemical_Name>
7-(2-bromoethoxy)-3-(4-methoxyphenyl)-8-methyl-4H-chromen-4-one

> <CAS>
903862-40-8

> <PriceCoeff>
1.00

> <MW>
389.24

> <Description>
solid

> <FSP3>
0.21

> <clogP>
4.25

> <TPSA>
44.76

> <Acceptor>
4

> <Donor>
0

> <RotBonds>
5

> <HAC>
24

> <Collection>
General

> <Reference_compound>
CHEMBL44

> <Similarity>
0.8570

$$$$
F2865-0381
  -ISIS-  06222321152D

 34 38  0  0  0  0  0  0  0  0999 V2000
   -3.9833   -1.5042    0.0000 N   0  0  3  0  0  0  0  0  0  0  0  0
   -4.4583   -0.8292    0.0000 N   0  0  0  0  0  0  0  0  0  0  0  0
   -3.1833   -0.4292    0.0000 C   0  0  0  0  0  0  0  0  0  0  0  0
   -3.1958   -1.2542    0.0000 C   0  0  0  0  0  0  0  0  0  0  0  0
   -3.9708   -0.1667    0.0000 N   0  0  0  0  0  0  0  0  0  0  0  0
    0.3792    3.2833    0.0000 N   0  3  0  0  0  0  0  0  0  0  0  0
   -2.4750   -0.0125    0.0000 C   0  0  0  0  0  0  0  0  0  0  0  0
   -0.3333    3.6958    0.0000 C   0  0  0  0  0  0  0  0  0  0  0  0
   -2.4875    3.2833    0.0000 C   0  0  0  0  0  0  0  0  0  0  0  0
   -2.4833    0.8083    0.0000 N   0  0  3  0  0  0  0  0  0  0  0  0
   -2.4833    2.4583    0.0000 N   0  0  3  0  0  0  0  0  0  0  0  0
   -1.0583    3.2833    0.0000 C   0  0  0  0  0  0  0  0  0  0  0  0
   -2.4750   -1.6667    0.0000 N   0  0  0  0  0  0  0  0  0  0  0  0
   -1.7708    3.6958    0.0000 C   0  0  0  0  0  0  0  0  0  0  0  0
   -1.7583   -0.4250    0.0000 N   0  0  0  0  0  0  0  0  0  0  0  0
   -4.2375   -2.2875    0.0000 C   0  0  0  0  0  0  0  0  0  0  0  0
   -0.3458    4.5292    0.0000 C   0  0  0  0  0  0  0  0  0  0  0  0
   -1.7583   -1.2542    0.0000 C   0  0  0  0  0  0  0  0  0  0  0  0
    0.3792    2.4583    0.0000 O   0  5  0  0  0  0  0  0  0  0  0  0
    1.0917    3.6958    0.0000 O   0  0  0  0  0  0  0  0  0  0  0  0
   -3.2000    1.2125    0.0000 C   0  0  0  0  0  0  0  0  0  0  0  0
   -1.7708    1.2208    0.0000 C   0  0  0  0  0  0  0  0  0  0  0  0
   -1.7708    2.0458    0.0000 C   0  0  0  0  0  0  0  0  0  0  0  0
   -3.2000    2.0458    0.0000 C   0  0  0  0  0  0  0  0  0  0  0  0
   -3.2000    3.6958    0.0000 O   0  0  0  0  0  0  0  0  0  0  0  0
   -1.7833    4.5167    0.0000 C   0  0  0  0  0  0  0  0  0  0  0  0
   -1.0625    4.9375    0.0000 C   0  0  0  0  0  0  0  0  0  0  0  0
   -5.0458   -2.4542    0.0000 C   0  0  0  0  0  0  0  0  0  0  0  0
   -3.6875   -2.9042    0.0000 C   0  0  0  0  0  0  0  0  0  0  0  0
   -4.7708   -3.8542    0.0000 C   0  0  0  0  0  0  0  0  0  0  0  0
    0.3667    4.9375    0.0000 Cl  0  0  0  0  0  0  0  0  0  0  0  0
   -3.9583   -3.6917    0.0000 C   0  0  0  0  0  0  0  0  0  0  0  0
   -5.3083   -3.2292    0.0000 C   0  0  0  0  0  0  0  0  0  0  0  0
   -5.0333   -4.6375    0.0000 F   0  0  0  0  0  0  0  0  0  0  0  0
  2  1  1  0  0  0  0
  3  4  2  0  0  0  0
  4  1  1  0  0  0  0
  5  2  2  0  0  0  0
  6  8  1  0  0  0  0
  7  3  1  0  0  0  0
  8 12  2  0  0  0  0
  9 11  1  0  0  0  0
 10  7  1  0  0  0  0
 11 23  1  0  0  0  0
 12 14  1  0  0  0  0
 13  4  1  0  0  0  0
 14  9  1  0  0  0  0
 15 18  1  0  0  0  0
 16  1  1  0  0  0  0
 17 27  2  0  0  0  0
 18 13  2  0  0  0  0
 19  6  1  0  0  0  0
 20  6  2  0  0  0  0
 21 10  1  0  0  0  0
 22 10  1  0  0  0  0
 23 22  1  0  0  0  0
 24 21  1  0  0  0  0
 25  9  2  0  0  0  0
 26 14  2  0  0  0  0
 27 26  1  0  0  0  0
 28 16  2  0  0  0  0
 29 16  1  0  0  0  0
 30 32  1  0  0  0  0
 31 17  1  0  0  0  0
 32 29  2  0  0  0  0
 33 28  1  0  0  0  0
 34 30  1  0  0  0  0
  5  3  1  0  0  0  0
 30 33  2  0  0  0  0
  7 15  2  0  0  0  0
 11 24  1  0  0  0  0
  8 17  1  0  0  0  0
M  CHG  2   6   1  19  -1
M  END
> <IDNUMBER>
F2865-0381

> <Chemical_Name>
1-(4-chloro-3-nitrobenzoyl)-4-[3-(4-fluorophenyl)-3H-[1,2,3]triazolo[4,5-d]pyrimidin-7-yl]piperazine

> <CAS>
941887-56-5

> <PriceCoeff>
1.00

> <MW>
482.85

> <Description>
solid

> <FSP3>
0.19

> <clogP>
3.47

> <TPSA>
123.18

> <Acceptor>
7

> <Donor>
1

> <RotBonds>
5

> <HAC>
34

> <Collection>
General

$$$$
F3385-0092
  -ISIS-  06222321152D

 31 35  0  0  0  0  0  0  0  0999 V2000
    2.4542    0.0208    0.0000 C   0  0  0  0  0  0  0  0  0  0  0  0
    1.7417   -0.3917    0.0000 C   0  0  0  0  0  0  0  0  0  0  0  0
    1.0292    0.0208    0.0000 C   0  0  0  0  0  0  0  0  0  0  0  0
    2.4542    0.8500    0.0000 C   0  0  0  0  0  0  0  0  0  0  0  0
    1.0250    0.8458    0.0000 C   0  0  0  0  0  0  0  0  0  0  0  0
    1.7375    1.2625    0.0000 O   0  0  0  0  0  0  0  0  0  0  0  0
   -1.8333    0.8458    0.0000 C   0  0  0  0  0  0  0  0  0  0  0  0
    3.1750   -0.3917    0.0000 C   0  0  0  0  0  0  0  0  0  0  0  0
   -2.5458    1.2583    0.0000 C   0  0  0  0  0  0  0  0  0  0  0  0
   -3.9708    1.2708    0.0000 C   0  0  0  0  0  0  0  0  0  0  0  0
    0.3042    1.2583    0.0000 C   0  0  0  0  0  0  0  0  0  0  0  0
   -1.1208    1.2500    0.0000 O   0  0  0  0  0  0  0  0  0  0  0  0
    0.3042   -0.4000    0.0000 C   0  0  0  0  0  0  0  0  0  0  0  0
   -3.2583    0.8583    0.0000 C   0  0  0  0  0  0  0  0  0  0  0  0
   -3.9708    2.0958    0.0000 C   0  0  0  0  0  0  0  0  0  0  0  0
   -4.7583    1.0125    0.0000 O   0  0  0  0  0  0  0  0  0  0  0  0
   -0.4083    0.8375    0.0000 C   0  0  0  0  0  0  0  0  0  0  0  0
    1.7417   -1.2167    0.0000 O   0  0  0  0  0  0  0  0  0  0  0  0
   -4.7583    2.3500    0.0000 O   0  0  0  0  0  0  0  0  0  0  0  0
   -5.2375    1.6833    0.0000 C   0  0  0  0  0  0  0  0  0  0  0  0
   -1.8458    0.0208    0.0000 O   0  0  0  0  0  0  0  0  0  0  0  0
    3.1667   -1.2167    0.0000 C   0  0  0  0  0  0  0  0  0  0  0  0
   -2.5458    2.0875    0.0000 C   0  0  0  0  0  0  0  0  0  0  0  0
   -3.2500    2.5083    0.0000 C   0  0  0  0  0  0  0  0  0  0  0  0
   -0.4083    0.0125    0.0000 C   0  0  0  0  0  0  0  0  0  0  0  0
    2.4542   -1.6250    0.0000 O   0  0  0  0  0  0  0  0  0  0  0  0
    3.8792    0.0250    0.0000 C   0  0  0  0  0  0  0  0  0  0  0  0
    3.8875   -1.6250    0.0000 C   0  0  0  0  0  0  0  0  0  0  0  0
    2.4542   -2.4500    0.0000 C   0  0  0  0  0  0  0  0  0  0  0  0
    4.5917   -0.3792    0.0000 C   0  0  0  0  0  0  0  0  0  0  0  0
    4.6000   -1.2125    0.0000 C   0  0  0  0  0  0  0  0  0  0  0  0
  2  1  1  0  0  0  0
  3  2  1  0  0  0  0
  4  1  2  0  0  0  0
  5  6  1  0  0  0  0
  6  4  1  0  0  0  0
  7 12  1  0  0  0  0
  8  1  1  0  0  0  0
  9  7  1  0  0  0  0
 10 14  2  0  0  0  0
 11  5  2  0  0  0  0
 12 17  1  0  0  0  0
 13  3  2  0  0  0  0
 14  9  1  0  0  0  0
 15 24  2  0  0  0  0
 16 10  1  0  0  0  0
 17 11  1  0  0  0  0
 18  2  2  0  0  0  0
 19 15  1  0  0  0  0
 20 16  1  0  0  0  0
 21  7  2  0  0  0  0
 22  8  2  0  0  0  0
 23  9  2  0  0  0  0
 24 23  1  0  0  0  0
 25 13  1  0  0  0  0
 26 22  1  0  0  0  0
 27  8  1  0  0  0  0
 28 22  1  0  0  0  0
 29 26  1  0  0  0  0
 30 27  2  0  0  0  0
 31 30  1  0  0  0  0
  3  5  1  0  0  0  0
 31 28  2  0  0  0  0
 25 17  2  0  0  0  0
 15 10  1  0  0  0  0
 20 19  1  0  0  0  0
M  END
> <IDNUMBER>
F3385-0092

> <Chemical_Name>
3-(2-methoxyphenyl)-4-oxo-4H-chromen-7-yl 2H-1,3-benzodioxole-5-carboxylate

> <CAS>
637752-99-9

> <PriceCoeff>
1.00

> <MW>
416.38

> <Description>
solid

> <FSP3>
0.08

> <clogP>
4.21

> <TPSA>
80.29

> <Acceptor>
7

> <Donor>
0

> <RotBonds>
5

> <HAC>
31

> <Collection>
General

> <Reference_compound>
CHEMBL455048

> <Similarity>
0.8030

$$$$
F2744-0928
  -ISIS-  06222321462D

 28 30  0  0  0  0  0  0  0  0999 V2000
   -2.4583    2.6708    0.0000 C   0  0  0  0  0  0  0  0  0  0  0  0
   -3.1708    1.4333    0.0000 N   0  0  3  0  0  0  0  0  0  0  0  0
   -0.1833    5.7042    0.0000 N   0  3  0  0  0  0  0  0  0  0  0  0
    0.0417    4.8792    0.0000 C   0  0  0  0  0  0  0  0  0  0  0  0
   -2.4583    1.8458    0.0000 C   0  0  0  0  0  0  0  0  0  0  0  0
   -1.7458    3.0833    0.0000 C   0  0  0  0  0  0  0  0  0  0  0  0
   -3.8750    1.8458    0.0000 C   0  0  0  0  0  0  0  0  0  0  0  0
   -3.1708    3.0833    0.0000 C   0  0  0  0  0  0  0  0  0  0  0  0
   -3.1708    0.5875    0.0000 C   0  0  0  0  0  0  0  0  0  0  0  0
   -3.8750    2.6708    0.0000 C   0  0  0  0  0  0  0  0  0  0  0  0
   -0.9250    2.8708    0.0000 N   0  0  0  0  0  0  0  0  0  0  0  0
   -0.5583    4.2792    0.0000 C   0  0  0  0  0  0  0  0  0  0  0  0
   -2.4333    0.1708    0.0000 C   0  0  0  0  0  0  0  0  0  0  0  0
    0.8542    4.6667    0.0000 C   0  0  0  0  0  0  0  0  0  0  0  0
    0.4042    6.3042    0.0000 O   0  5  0  0  0  0  0  0  0  0  0  0
   -1.0083    5.9167    0.0000 O   0  0  0  0  0  0  0  0  0  0  0  0
   -0.3333    3.4708    0.0000 C   0  0  0  0  0  0  0  0  0  0  0  0
   -2.1583    3.8000    0.0000 O   0  0  0  0  0  0  0  0  0  0  0  0
   -4.5625    1.8958    0.0000 O   0  0  0  0  0  0  0  0  0  0  0  0
   -2.4333   -0.6792    0.0000 C   0  0  0  0  0  0  0  0  0  0  0  0
    1.0792    3.8708    0.0000 C   0  0  0  0  0  0  0  0  0  0  0  0
    0.4875    3.2583    0.0000 C   0  0  0  0  0  0  0  0  0  0  0  0
    1.4500    5.2792    0.0000 Cl  0  0  0  0  0  0  0  0  0  0  0  0
   -3.1708   -1.1042    0.0000 Cl  0  0  0  0  0  0  0  0  0  0  0  0
   -1.6875    0.5875    0.0000 C   0  0  0  0  0  0  0  0  0  0  0  0
   -1.7083   -1.1042    0.0000 C   0  0  0  0  0  0  0  0  0  0  0  0
   -0.9583    0.1583    0.0000 C   0  0  0  0  0  0  0  0  0  0  0  0
   -0.9625   -0.6875    0.0000 C   0  0  0  0  0  0  0  0  0  0  0  0
  2  5  1  0  0  0  0
  3  4  1  0  0  0  0
  4 12  2  0  0  0  0
  5  1  2  0  0  0  0
  6  1  1  0  0  0  0
  7 10  1  0  0  0  0
  8  1  1  0  0  0  0
  9  2  1  0  0  0  0
 10  8  2  0  0  0  0
 11  6  1  0  0  0  0
 12 17  1  0  0  0  0
 13  9  1  0  0  0  0
 14 21  2  0  0  0  0
 15  3  1  0  0  0  0
 16  3  2  0  0  0  0
 17 11  1  0  0  0  0
 18  6  2  0  0  0  0
 19  7  2  0  0  0  0
 20 13  2  0  0  0  0
 21 22  1  0  0  0  0
 22 17  2  0  0  0  0
 23 14  1  0  0  0  0
 24 20  1  0  0  0  0
 25 13  1  0  0  0  0
 26 20  1  0  0  0  0
 27 25  2  0  0  0  0
 28 27  1  0  0  0  0
  2  7  1  0  0  0  0
 14  4  1  0  0  0  0
 28 26  2  0  0  0  0
M  CHG  2   3   1  15  -1
M  END
> <IDNUMBER>
F2744-0928

> <Chemical_Name>
N-(4-chloro-3-nitrophenyl)-1-[(2-chlorophenyl)methyl]-6-oxo-1,6-dihydropyridine-3-carboxamide

> <CAS>
941973-40-6

> <PriceCoeff>
1.00

> <MW>
418.23

> <Description>
solid

> <FSP3>
0.05

> <clogP>
4.06

> <TPSA>
92.55

> <Acceptor>
4

> <Donor>
1

> <RotBonds>
5

> <HAC>
28

> <Collection>
General

$$$$
F2743-0574
  -ISIS-  06222321152D

 28 30  0  0  0  0  0  0  0  0999 V2000
   -2.7583    2.1625    0.0000 C   0  0  0  0  0  0  0  0  0  0  0  0
   -2.7583    1.3375    0.0000 C   0  0  0  0  0  0  0  0  0  0  0  0
   -0.8333    6.0125    0.0000 N   0  3  0  0  0  0  0  0  0  0  0  0
   -0.4708    5.1375    0.0000 C   0  0  0  0  0  0  0  0  0  0  0  0
   -3.4708    0.9333    0.0000 N   0  0  3  0  0  0  0  0  0  0  0  0
   -2.2083    2.8958    0.0000 C   0  0  0  0  0  0  0  0  0  0  0  0
   -1.2750    2.7708    0.0000 N   0  0  0  0  0  0  0  0  0  0  0  0
   -1.0583    4.3875    0.0000 C   0  0  0  0  0  0  0  0  0  0  0  0
   -3.4708    2.5833    0.0000 C   0  0  0  0  0  0  0  0  0  0  0  0
    0.4667    5.0125    0.0000 C   0  0  0  0  0  0  0  0  0  0  0  0
   -4.1750    1.3375    0.0000 C   0  0  0  0  0  0  0  0  0  0  0  0
   -0.2583    6.7625    0.0000 O   0  5  0  0  0  0  0  0  0  0  0  0
   -3.4708   -0.0167    0.0000 C   0  0  0  0  0  0  0  0  0  0  0  0
   -1.7708    6.1417    0.0000 O   0  0  0  0  0  0  0  0  0  0  0  0
   -0.6958    3.5208    0.0000 C   0  0  0  0  0  0  0  0  0  0  0  0
   -1.8333    1.4875    0.0000 O   0  0  0  0  0  0  0  0  0  0  0  0
   -4.1750    2.1625    0.0000 C   0  0  0  0  0  0  0  0  0  0  0  0
   -2.5500    3.8000    0.0000 O   0  0  0  0  0  0  0  0  0  0  0  0
    0.8167    4.1292    0.0000 C   0  0  0  0  0  0  0  0  0  0  0  0
   -2.6458   -0.4917    0.0000 C   0  0  0  0  0  0  0  0  0  0  0  0
    0.2417    3.3833    0.0000 C   0  0  0  0  0  0  0  0  0  0  0  0
    1.0417    5.7625    0.0000 Cl  0  0  0  0  0  0  0  0  0  0  0  0
   -1.0000   -1.4167    0.0000 C   0  0  0  0  0  0  0  0  0  0  0  0
   -0.1708   -1.9125    0.0000 Cl  0  0  0  0  0  0  0  0  0  0  0  0
   -2.6458   -1.4292    0.0000 C   0  0  0  0  0  0  0  0  0  0  0  0
   -1.8208   -0.0125    0.0000 C   0  0  0  0  0  0  0  0  0  0  0  0
   -1.8208   -1.9000    0.0000 C   0  0  0  0  0  0  0  0  0  0  0  0
   -1.0083   -0.4750    0.0000 C   0  0  0  0  0  0  0  0  0  0  0  0
  2  1  1  0  0  0  0
  3  4  1  0  0  0  0
  4  8  2  0  0  0  0
  5  2  1  0  0  0  0
  6  1  1  0  0  0  0
  7  6  1  0  0  0  0
  8 15  1  0  0  0  0
  9  1  2  0  0  0  0
 10 19  2  0  0  0  0
 11 17  2  0  0  0  0
 12  3  1  0  0  0  0
 13  5  1  0  0  0  0
 14  3  2  0  0  0  0
 15  7  1  0  0  0  0
 16  2  2  0  0  0  0
 17  9  1  0  0  0  0
 18  6  2  0  0  0  0
 19 21  1  0  0  0  0
 20 13  1  0  0  0  0
 21 15  2  0  0  0  0
 22 10  1  0  0  0  0
 23 28  1  0  0  0  0
 24 23  1  0  0  0  0
 25 20  2  0  0  0  0
 26 20  1  0  0  0  0
 27 25  1  0  0  0  0
 28 26  2  0  0  0  0
  5 11  1  0  0  0  0
 10  4  1  0  0  0  0
 23 27  2  0  0  0  0
M  CHG  2   3   1  12  -1
M  END
> <IDNUMBER>
F2743-0574

> <Chemical_Name>
N-(4-chloro-3-nitrophenyl)-1-[(4-chlorophenyl)methyl]-2-oxo-1,2-dihydropyridine-3-carboxamide

> <CAS>
941952-28-9

> <PriceCoeff>
1.00

> <MW>
418.23

> <Description>
solid

> <FSP3>
0.05

> <clogP>
4.06

> <TPSA>
92.55

> <Acceptor>
4

> <Donor>
1

> <RotBonds>
5

> <HAC>
28

> <Collection>
General

$$$$
F2743-0928
  -ISIS-  06222321152D

 28 30  0  0  0  0  0  0  0  0999 V2000
   -2.7583    2.1625    0.0000 C   0  0  0  0  0  0  0  0  0  0  0  0
   -2.7583    1.3375    0.0000 C   0  0  0  0  0  0  0  0  0  0  0  0
   -0.8333    6.0125    0.0000 N   0  3  0  0  0  0  0  0  0  0  0  0
   -3.4708    0.9333    0.0000 N   0  0  3  0  0  0  0  0  0  0  0  0
   -0.4708    5.1375    0.0000 C   0  0  0  0  0  0  0  0  0  0  0  0
   -2.2083    2.8958    0.0000 C   0  0  0  0  0  0  0  0  0  0  0  0
   -3.4708   -0.0167    0.0000 C   0  0  0  0  0  0  0  0  0  0  0  0
   -1.2750    2.7708    0.0000 N   0  0  0  0  0  0  0  0  0  0  0  0
   -1.0583    4.3875    0.0000 C   0  0  0  0  0  0  0  0  0  0  0  0
   -2.6458   -0.4875    0.0000 C   0  0  0  0  0  0  0  0  0  0  0  0
   -3.4708    2.5833    0.0000 C   0  0  0  0  0  0  0  0  0  0  0  0
    0.4667    5.0125    0.0000 C   0  0  0  0  0  0  0  0  0  0  0  0
   -4.1750    1.3375    0.0000 C   0  0  0  0  0  0  0  0  0  0  0  0
   -0.2583    6.7625    0.0000 O   0  5  0  0  0  0  0  0  0  0  0  0
   -1.7708    6.1417    0.0000 O   0  0  0  0  0  0  0  0  0  0  0  0
   -0.6958    3.5208    0.0000 C   0  0  0  0  0  0  0  0  0  0  0  0
   -1.8333    1.4875    0.0000 O   0  0  0  0  0  0  0  0  0  0  0  0
   -4.1750    2.1625    0.0000 C   0  0  0  0  0  0  0  0  0  0  0  0
   -2.5500    3.8000    0.0000 O   0  0  0  0  0  0  0  0  0  0  0  0
   -2.6458   -1.4375    0.0000 C   0  0  0  0  0  0  0  0  0  0  0  0
    0.8167    4.1292    0.0000 C   0  0  0  0  0  0  0  0  0  0  0  0
    0.2417    3.3833    0.0000 C   0  0  0  0  0  0  0  0  0  0  0  0
    1.0417    5.7625    0.0000 Cl  0  0  0  0  0  0  0  0  0  0  0  0
   -3.4708   -1.9042    0.0000 Cl  0  0  0  0  0  0  0  0  0  0  0  0
   -1.8208   -0.0167    0.0000 C   0  0  0  0  0  0  0  0  0  0  0  0
   -1.8333   -1.9167    0.0000 C   0  0  0  0  0  0  0  0  0  0  0  0
   -1.0000   -0.5000    0.0000 C   0  0  0  0  0  0  0  0  0  0  0  0
   -1.0083   -1.4417    0.0000 C   0  0  0  0  0  0  0  0  0  0  0  0
  2  1  1  0  0  0  0
  3  5  1  0  0  0  0
  4  2  1  0  0  0  0
  5  9  2  0  0  0  0
  6  1  1  0  0  0  0
  7  4  1  0  0  0  0
  8  6  1  0  0  0  0
  9 16  1  0  0  0  0
 10  7  1  0  0  0  0
 11  1  2  0  0  0  0
 12 21  2  0  0  0  0
 13 18  2  0  0  0  0
 14  3  1  0  0  0  0
 15  3  2  0  0  0  0
 16  8  1  0  0  0  0
 17  2  2  0  0  0  0
 18 11  1  0  0  0  0
 19  6  2  0  0  0  0
 20 10  2  0  0  0  0
 21 22  1  0  0  0  0
 22 16  2  0  0  0  0
 23 12  1  0  0  0  0
 24 20  1  0  0  0  0
 25 10  1  0  0  0  0
 26 20  1  0  0  0  0
 27 25  2  0  0  0  0
 28 27  1  0  0  0  0
  4 13  1  0  0  0  0
 12  5  1  0  0  0  0
 28 26  2  0  0  0  0
M  CHG  2   3   1  14  -1
M  END
> <IDNUMBER>
F2743-0928

> <Chemical_Name>
N-(4-chloro-3-nitrophenyl)-1-[(2-chlorophenyl)methyl]-2-oxo-1,2-dihydropyridine-3-carboxamide

> <CAS>
941989-39-5

> <PriceCoeff>
1.00

> <MW>
418.23

> <Description>
solid

> <FSP3>
0.05

> <clogP>
4.06

> <TPSA>
92.55

> <Acceptor>
4

> <Donor>
1

> <RotBonds>
5

> <HAC>
28

> <Collection>
General

$$$$
F2744-1518
  -ISIS-  06222321152D

 28 30  0  0  0  0  0  0  0  0999 V2000
   -2.4583    2.6708    0.0000 C   0  0  0  0  0  0  0  0  0  0  0  0
   -0.1833    5.7042    0.0000 N   0  3  0  0  0  0  0  0  0  0  0  0
   -3.1708    1.4333    0.0000 N   0  0  3  0  0  0  0  0  0  0  0  0
    0.0417    4.8792    0.0000 C   0  0  0  0  0  0  0  0  0  0  0  0
   -2.4583    1.8458    0.0000 C   0  0  0  0  0  0  0  0  0  0  0  0
   -1.7458    3.0833    0.0000 C   0  0  0  0  0  0  0  0  0  0  0  0
   -3.8750    1.8458    0.0000 C   0  0  0  0  0  0  0  0  0  0  0  0
   -3.1708    3.0833    0.0000 C   0  0  0  0  0  0  0  0  0  0  0  0
   -3.8750    2.6708    0.0000 C   0  0  0  0  0  0  0  0  0  0  0  0
   -0.9250    2.8708    0.0000 N   0  0  0  0  0  0  0  0  0  0  0  0
   -0.5583    4.2792    0.0000 C   0  0  0  0  0  0  0  0  0  0  0  0
    0.8542    4.6667    0.0000 C   0  0  0  0  0  0  0  0  0  0  0  0
   -3.1708    0.5875    0.0000 C   0  0  0  0  0  0  0  0  0  0  0  0
    0.4042    6.3042    0.0000 O   0  5  0  0  0  0  0  0  0  0  0  0
   -1.0083    5.9167    0.0000 O   0  0  0  0  0  0  0  0  0  0  0  0
   -0.3333    3.4708    0.0000 C   0  0  0  0  0  0  0  0  0  0  0  0
   -2.1583    3.8000    0.0000 O   0  0  0  0  0  0  0  0  0  0  0  0
   -4.5625    1.8958    0.0000 O   0  0  0  0  0  0  0  0  0  0  0  0
   -2.4333    0.1708    0.0000 C   0  0  0  0  0  0  0  0  0  0  0  0
    1.0792    3.8708    0.0000 C   0  0  0  0  0  0  0  0  0  0  0  0
   -2.4375   -0.6792    0.0000 C   0  0  0  0  0  0  0  0  0  0  0  0
    0.4875    3.2583    0.0000 C   0  0  0  0  0  0  0  0  0  0  0  0
    1.4500    5.2792    0.0000 Cl  0  0  0  0  0  0  0  0  0  0  0  0
   -1.7083   -1.1167    0.0000 C   0  0  0  0  0  0  0  0  0  0  0  0
   -1.7208   -1.9667    0.0000 Cl  0  0  0  0  0  0  0  0  0  0  0  0
   -0.9583    0.1375    0.0000 C   0  0  0  0  0  0  0  0  0  0  0  0
   -1.7000    0.5833    0.0000 C   0  0  0  0  0  0  0  0  0  0  0  0
   -0.9708   -0.7042    0.0000 C   0  0  0  0  0  0  0  0  0  0  0  0
  2  4  1  0  0  0  0
  3  5  1  0  0  0  0
  4 11  2  0  0  0  0
  5  1  2  0  0  0  0
  6  1  1  0  0  0  0
  7  9  1  0  0  0  0
  8  1  1  0  0  0  0
  9  8  2  0  0  0  0
 10  6  1  0  0  0  0
 11 16  1  0  0  0  0
 12 20  2  0  0  0  0
 13  3  1  0  0  0  0
 14  2  1  0  0  0  0
 15  2  2  0  0  0  0
 16 10  1  0  0  0  0
 17  6  2  0  0  0  0
 18  7  2  0  0  0  0
 19 13  1  0  0  0  0
 20 22  1  0  0  0  0
 21 19  1  0  0  0  0
 22 16  2  0  0  0  0
 23 12  1  0  0  0  0
 24 21  2  0  0  0  0
 25 24  1  0  0  0  0
 26 27  1  0  0  0  0
 27 19  2  0  0  0  0
 28 26  2  0  0  0  0
  3  7  1  0  0  0  0
 12  4  1  0  0  0  0
 24 28  1  0  0  0  0
M  CHG  2   2   1  14  -1
M  END
> <IDNUMBER>
F2744-1518

> <Chemical_Name>
N-(4-chloro-3-nitrophenyl)-1-[(3-chlorophenyl)methyl]-6-oxo-1,6-dihydropyridine-3-carboxamide

> <CAS>
942009-95-2

> <PriceCoeff>
1.00

> <MW>
418.23

> <Description>
solid

> <FSP3>
0.05

> <clogP>
4.06

> <TPSA>
92.55

> <Acceptor>
4

> <Donor>
1

> <RotBonds>
5

> <HAC>
28

> <Collection>
General

$$$$
F3139-0515
  -ISIS-  06222321152D

 31 34  0  0  0  0  0  0  0  0999 V2000
    2.2917   -3.6792    0.0000 C   0  0  0  0  0  0  0  0  0  0  0  0
    1.5792   -3.2667    0.0000 C   0  0  0  0  0  0  0  0  0  0  0  0
    3.0042   -3.2667    0.0000 C   0  0  0  0  0  0  0  0  0  0  0  0
    1.5792   -2.4417    0.0000 C   0  0  0  0  0  0  0  0  0  0  0  0
    3.0042   -2.4417    0.0000 C   0  0  0  0  0  0  0  0  0  0  0  0
    0.8667   -3.6792    0.0000 C   0  0  0  0  0  0  0  0  0  0  0  0
    2.2917   -2.0292    0.0000 O   0  0  0  0  0  0  0  0  0  0  0  0
    3.7167   -3.6792    0.0000 C   0  0  0  0  0  0  0  0  0  0  0  0
    0.8667   -2.0292    0.0000 C   0  0  0  0  0  0  0  0  0  0  0  0
    0.1500   -3.2667    0.0000 C   0  0  0  0  0  0  0  0  0  0  0  0
    4.4417   -3.2667    0.0000 C   0  0  0  0  0  0  0  0  0  0  0  0
    5.1542   -3.6792    0.0000 C   0  0  0  0  0  0  0  0  0  0  0  0
    2.2917   -4.5042    0.0000 O   0  0  0  0  0  0  0  0  0  0  0  0
    0.1500   -2.4417    0.0000 C   0  0  0  0  0  0  0  0  0  0  0  0
    5.1542   -4.5042    0.0000 C   0  0  0  0  0  0  0  0  0  0  0  0
    3.7167   -4.5042    0.0000 C   0  0  0  0  0  0  0  0  0  0  0  0
    4.4292   -4.9167    0.0000 C   0  0  0  0  0  0  0  0  0  0  0  0
   -0.5708   -2.0292    0.0000 O   0  0  0  0  0  0  0  0  0  0  0  0
    0.8667   -4.5042    0.0000 O   0  0  0  0  0  0  0  0  0  0  0  0
   -2.7208    0.0333    0.0000 C   0  0  0  0  0  0  0  0  0  0  0  0
   -1.2875   -0.7917    0.0000 C   0  0  0  0  0  0  0  0  0  0  0  0
   -0.5750   -1.2042    0.0000 C   0  0  0  0  0  0  0  0  0  0  0  0
    5.8750   -3.2542    0.0000 O   0  0  0  0  0  0  0  0  0  0  0  0
   -3.4333    0.4375    0.0000 Br  0  0  0  0  0  0  0  0  0  0  0  0
    5.8792   -4.9250    0.0000 O   0  0  0  0  0  0  0  0  0  0  0  0
   -2.7125   -0.8000    0.0000 C   0  0  0  0  0  0  0  0  0  0  0  0
   -2.0000    0.4458    0.0000 C   0  0  0  0  0  0  0  0  0  0  0  0
   -1.9958   -1.2042    0.0000 C   0  0  0  0  0  0  0  0  0  0  0  0
   -1.2875    0.0333    0.0000 C   0  0  0  0  0  0  0  0  0  0  0  0
    5.8667   -2.4292    0.0000 C   0  0  0  0  0  0  0  0  0  0  0  0
    5.8792   -5.7542    0.0000 C   0  0  0  0  0  0  0  0  0  0  0  0
  2  1  1  0  0  0  0
  3  1  1  0  0  0  0
  4  2  1  0  0  0  0
  5  3  2  0  0  0  0
  6  2  2  0  0  0  0
  7  5  1  0  0  0  0
  8  3  1  0  0  0  0
  9  4  2  0  0  0  0
 10  6  1  0  0  0  0
 11  8  1  0  0  0  0
 12 11  2  0  0  0  0
 13  1  2  0  0  0  0
 14 10  2  0  0  0  0
 15 17  2  0  0  0  0
 16  8  2  0  0  0  0
 17 16  1  0  0  0  0
 18 14  1  0  0  0  0
 19  6  1  0  0  0  0
 20 27  2  0  0  0  0
 21 22  1  0  0  0  0
 22 18  1  0  0  0  0
 23 12  1  0  0  0  0
 24 20  1  0  0  0  0
 25 15  1  0  0  0  0
 26 28  2  0  0  0  0
 27 29  1  0  0  0  0
 28 21  1  0  0  0  0
 29 21  2  0  0  0  0
 30 23  1  0  0  0  0
 31 25  1  0  0  0  0
  7  4  1  0  0  0  0
 14  9  1  0  0  0  0
 15 12  1  0  0  0  0
 20 26  1  0  0  0  0
M  END
> <IDNUMBER>
F3139-0515

> <Chemical_Name>
7-[(4-bromophenyl)methoxy]-3-(3,4-dimethoxyphenyl)-5-hydroxy-4H-chromen-4-one

> <CAS>
637746-91-9

> <PriceCoeff>
1.00

> <MW>
483.31

> <Description>
solid

> <FSP3>
0.12

> <clogP>
5.94

> <TPSA>
74.22

> <Acceptor>
6

> <Donor>
1

> <RotBonds>
6

> <HAC>
31

> <Collection>
General

> <Reference_compound>
CHEMBL455048

> <Similarity>
0.8300

$$$$
F2744-0574
  -ISIS-  06222321442D

 28 30  0  0  0  0  0  0  0  0999 V2000
   -2.4583    2.6708    0.0000 C   0  0  0  0  0  0  0  0  0  0  0  0
   -0.1833    5.7042    0.0000 N   0  3  0  0  0  0  0  0  0  0  0  0
   -3.1708    1.4333    0.0000 N   0  0  3  0  0  0  0  0  0  0  0  0
    0.0417    4.8792    0.0000 C   0  0  0  0  0  0  0  0  0  0  0  0
   -2.4583    1.8458    0.0000 C   0  0  0  0  0  0  0  0  0  0  0  0
   -1.7458    3.0833    0.0000 C   0  0  0  0  0  0  0  0  0  0  0  0
   -3.8750    1.8458    0.0000 C   0  0  0  0  0  0  0  0  0  0  0  0
   -3.1708    3.0833    0.0000 C   0  0  0  0  0  0  0  0  0  0  0  0
   -3.8750    2.6708    0.0000 C   0  0  0  0  0  0  0  0  0  0  0  0
   -0.9250    2.8708    0.0000 N   0  0  0  0  0  0  0  0  0  0  0  0
   -0.5583    4.2792    0.0000 C   0  0  0  0  0  0  0  0  0  0  0  0
    0.8542    4.6667    0.0000 C   0  0  0  0  0  0  0  0  0  0  0  0
    0.4042    6.3042    0.0000 O   0  5  0  0  0  0  0  0  0  0  0  0
   -3.1708    0.5875    0.0000 C   0  0  0  0  0  0  0  0  0  0  0  0
   -1.0083    5.9167    0.0000 O   0  0  0  0  0  0  0  0  0  0  0  0
   -0.3333    3.4708    0.0000 C   0  0  0  0  0  0  0  0  0  0  0  0
   -2.1583    3.8000    0.0000 O   0  0  0  0  0  0  0  0  0  0  0  0
   -4.5625    1.8958    0.0000 O   0  0  0  0  0  0  0  0  0  0  0  0
    1.0792    3.8708    0.0000 C   0  0  0  0  0  0  0  0  0  0  0  0
   -2.4333    0.1625    0.0000 C   0  0  0  0  0  0  0  0  0  0  0  0
    0.4875    3.2583    0.0000 C   0  0  0  0  0  0  0  0  0  0  0  0
    1.4500    5.2792    0.0000 Cl  0  0  0  0  0  0  0  0  0  0  0  0
   -0.9583   -0.6667    0.0000 C   0  0  0  0  0  0  0  0  0  0  0  0
   -0.2208   -1.1042    0.0000 Cl  0  0  0  0  0  0  0  0  0  0  0  0
   -2.4333   -0.6750    0.0000 C   0  0  0  0  0  0  0  0  0  0  0  0
   -1.6875    0.5958    0.0000 C   0  0  0  0  0  0  0  0  0  0  0  0
   -1.6958   -1.0917    0.0000 C   0  0  0  0  0  0  0  0  0  0  0  0
   -0.9625    0.1750    0.0000 C   0  0  0  0  0  0  0  0  0  0  0  0
  2  4  1  0  0  0  0
  3  5  1  0  0  0  0
  4 11  2  0  0  0  0
  5  1  2  0  0  0  0
  6  1  1  0  0  0  0
  7  9  1  0  0  0  0
  8  1  1  0  0  0  0
  9  8  2  0  0  0  0
 10  6  1  0  0  0  0
 11 16  1  0  0  0  0
 12 19  2  0  0  0  0
 13  2  1  0  0  0  0
 14  3  1  0  0  0  0
 15  2  2  0  0  0  0
 16 10  1  0  0  0  0
 17  6  2  0  0  0  0
 18  7  2  0  0  0  0
 19 21  1  0  0  0  0
 20 14  1  0  0  0  0
 21 16  2  0  0  0  0
 22 12  1  0  0  0  0
 23 28  1  0  0  0  0
 24 23  1  0  0  0  0
 25 20  2  0  0  0  0
 26 20  1  0  0  0  0
 27 25  1  0  0  0  0
 28 26  2  0  0  0  0
  3  7  1  0  0  0  0
 12  4  1  0  0  0  0
 23 27  2  0  0  0  0
M  CHG  2   2   1  13  -1
M  END
> <IDNUMBER>
F2744-0574

> <Chemical_Name>
N-(4-chloro-3-nitrophenyl)-1-[(4-chlorophenyl)methyl]-6-oxo-1,6-dihydropyridine-3-carboxamide

> <CAS>
941973-25-7

> <PriceCoeff>
1.00

> <MW>
418.23

> <Description>
solid

> <FSP3>
0.05

> <clogP>
4.06

> <TPSA>
92.55

> <Acceptor>
4

> <Donor>
1

> <RotBonds>
5

> <HAC>
28

> <Collection>
General

$$$$
F1575-0001
  -ISIS-  06222321142D

 23 24  0  0  0  0  0  0  0  0999 V2000
   -3.7958   -5.1292    0.0000 N   0  3  0  0  0  0  0  0  0  0  0  0
   -1.8083   -3.9875    0.0000 C   0  0  0  0  0  0  0  0  0  0  0  0
    4.1292   -5.1292    0.0000 C   0  0  0  0  0  0  0  0  0  0  0  0
    0.1667   -5.1292    0.0000 C   0  0  0  0  0  0  0  0  0  0  0  0
    2.1417   -3.9875    0.0000 C   0  0  0  0  0  0  0  0  0  0  0  0
    6.0917   -3.9750    0.0000 N   0  0  0  0  0  0  0  0  0  0  0  0
   -1.8083   -1.7042    0.0000 C   0  0  0  0  0  0  0  0  0  0  0  0
   -5.7708   -3.9875    0.0000 O   0  5  0  0  0  0  0  0  0  0  0  0
   14.0042  -10.7875    0.0000 C   0  0  3  0  0  0  0  0  0  0  0  0
   -3.7958   -7.4042    0.0000 O   0  0  0  0  0  0  0  0  0  0  0  0
   14.0042   -8.5042    0.0000 S   0  0  0  0  0  0  0  0  0  0  0  0
    4.1292   -7.4042    0.0000 O   0  0  0  0  0  0  0  0  0  0  0  0
    2.1417   -1.6917    0.0000 C   0  0  0  0  0  0  0  0  0  0  0  0
    0.1667   -0.5542    0.0000 C   0  0  0  0  0  0  0  0  0  0  0  0
    8.0667   -5.1125    0.0000 C   0  0  0  0  0  0  0  0  0  0  0  0
   12.0167   -7.3792    0.0000 C   0  0  0  0  0  0  0  0  0  0  0  0
   16.0000  -11.9292    0.0000 F   0  0  0  0  0  0  0  0  0  0  0  0
   12.0417  -11.9417    0.0000 F   0  0  0  0  0  0  0  0  0  0  0  0
   -3.7833   -0.5542    0.0000 Cl  0  0  0  0  0  0  0  0  0  0  0  0
    8.0667   -7.3917    0.0000 C   0  0  0  0  0  0  0  0  0  0  0  0
   10.0292   -3.9625    0.0000 C   0  0  0  0  0  0  0  0  0  0  0  0
   12.0042   -5.0875    0.0000 C   0  0  0  0  0  0  0  0  0  0  0  0
   10.0417   -8.5167    0.0000 C   0  0  0  0  0  0  0  0  0  0  0  0
  2  1  1  0  0  0  0
  3  5  1  0  0  0  0
  4  2  1  0  0  0  0
  5  4  2  0  0  0  0
  6  3  1  0  0  0  0
  7  2  2  0  0  0  0
  8  1  1  0  0  0  0
  9 11  1  0  0  0  0
 10  1  2  0  0  0  0
 11 16  1  0  0  0  0
 12  3  2  0  0  0  0
 13 14  2  0  0  0  0
 14  7  1  0  0  0  0
 15  6  1  0  0  0  0
 16 22  1  0  0  0  0
 17  9  1  0  0  0  0
 18  9  1  0  0  0  0
 19  7  1  0  0  0  0
 20 15  2  0  0  0  0
 21 15  1  0  0  0  0
 22 21  2  0  0  0  0
 23 20  1  0  0  0  0
 13  5  1  0  0  0  0
 16 23  2  0  0  0  0
M  CHG  2   1   1   8  -1
M  END
> <IDNUMBER>
F1575-0001

> <Chemical_Name>
4-chloro-N-{4-[(difluoromethyl)sulfanyl]phenyl}-3-nitrobenzamide

> <CAS>
301235-01-8

> <PriceCoeff>
1.00

> <MW>
358.75

> <Description>
solid

> <FSP3>
0.07

> <clogP>
4.46

> <TPSA>
97.54

> <Acceptor>
3

> <Donor>
1

> <RotBonds>
5

> <HAC>
23

> <Collection>
General

$$$$
F1365-0048
  -ISIS-  06222321142D

 29 32  0  0  0  0  0  0  0  0999 V2000
   -1.1625    2.3833    0.0000 C   0  0  0  0  0  0  0  0  0  0  0  0
   -0.3375    2.3750    0.0000 N   0  0  0  0  0  0  0  0  0  0  0  0
   -1.6458    1.7208    0.0000 N   0  0  3  0  0  0  0  0  0  0  0  0
    3.3792    3.0708    0.0000 N   0  0  3  0  0  0  0  0  0  0  0  0
   -1.6458    3.0500    0.0000 S   0  0  0  0  0  0  0  0  0  0  0  0
   -2.4333    2.7958    0.0000 C   0  0  0  0  0  0  0  0  0  0  0  0
   -2.4333    1.9708    0.0000 C   0  0  0  0  0  0  0  0  0  0  0  0
    0.0750    3.0875    0.0000 C   0  0  0  0  0  0  0  0  0  0  0  0
    3.8500    3.7583    0.0000 C   0  0  0  0  0  0  0  0  0  0  0  0
    3.8917    2.4250    0.0000 C   0  0  0  0  0  0  0  0  0  0  0  0
    2.5542    3.0833    0.0000 C   0  0  0  0  0  0  0  0  0  0  0  0
   -3.1458    1.5583    0.0000 C   0  0  0  0  0  0  0  0  0  0  0  0
    0.9000    3.0875    0.0000 C   0  0  0  0  0  0  0  0  0  0  0  0
   -3.1458    3.2083    0.0000 C   0  0  0  0  0  0  0  0  0  0  0  0
   -0.3375    3.8000    0.0000 O   0  0  0  0  0  0  0  0  0  0  0  0
    4.6417    3.5250    0.0000 C   0  0  0  0  0  0  0  0  0  0  0  0
    4.6667    2.7083    0.0000 C   0  0  0  0  0  0  0  0  0  0  0  0
    3.5667    4.5417    0.0000 O   0  0  0  0  0  0  0  0  0  0  0  0
    3.6667    1.6333    0.0000 O   0  0  0  0  0  0  0  0  0  0  0  0
    2.1417    3.8000    0.0000 C   0  0  0  0  0  0  0  0  0  0  0  0
    2.1292    2.3708    0.0000 C   0  0  0  0  0  0  0  0  0  0  0  0
    1.3125    2.3833    0.0000 C   0  0  0  0  0  0  0  0  0  0  0  0
    1.3250    3.8083    0.0000 C   0  0  0  0  0  0  0  0  0  0  0  0
   -1.9458    0.3208    0.0000 C   0  0  0  0  0  0  0  0  0  0  0  0
   -1.3958    0.9333    0.0000 C   0  0  0  0  0  0  0  0  0  0  0  0
   -2.7500    0.4875    0.0000 C   0  0  0  0  0  0  0  0  0  0  0  0
   -3.8583    1.9708    0.0000 C   0  0  0  0  0  0  0  0  0  0  0  0
   -3.8583    2.7958    0.0000 C   0  0  0  0  0  0  0  0  0  0  0  0
   -4.5833    3.2125    0.0000 C   0  0  0  0  0  0  0  0  0  0  0  0
  2  1  2  0  0  0  0
  3  1  1  0  0  0  0
  4 11  1  0  0  0  0
  5  1  1  0  0  0  0
  6  5  1  0  0  0  0
  7  3  1  0  0  0  0
  8  2  1  0  0  0  0
  9  4  1  0  0  0  0
 10  4  1  0  0  0  0
 11 20  1  0  0  0  0
 12  7  1  0  0  0  0
 13  8  1  0  0  0  0
 14  6  1  0  0  0  0
 15  8  2  0  0  0  0
 16  9  1  0  0  0  0
 17 10  1  0  0  0  0
 18  9  2  0  0  0  0
 19 10  2  0  0  0  0
 20 23  2  0  0  0  0
 21 22  1  0  0  0  0
 22 13  2  0  0  0  0
 23 13  1  0  0  0  0
 24 25  1  0  0  0  0
 25  3  1  0  0  0  0
 26 24  2  0  0  0  0
 27 12  2  0  0  0  0
 28 14  2  0  0  0  0
 29 28  1  0  0  0  0
  7  6  2  0  0  0  0
 27 28  1  0  0  0  0
 11 21  2  0  0  0  0
 16 17  1  0  0  0  0
M  END
> <IDNUMBER>
F1365-0048

> <Chemical_Name>
4-(2,5-dioxopyrrolidin-1-yl)-N-[(2Z)-6-methyl-3-(prop-2-en-1-yl)-2,3-dihydro-1,3-benzothiazol-2-ylidene]benzamide

> <CAS>
865174-51-2

> <PriceCoeff>
1.00

> <MW>
405.47

> <Description>
solid

> <FSP3>
0.18

> <clogP>
4.22

> <TPSA>
95.35

> <Acceptor>
3

> <Donor>
0

> <RotBonds>
5

> <HAC>
29

> <Collection>
General

$$$$
F3385-0089
  -ISIS-  06222321152D

 31 35  0  0  0  0  0  0  0  0999 V2000
    2.4542    0.0208    0.0000 C   0  0  0  0  0  0  0  0  0  0  0  0
    1.7417   -0.3917    0.0000 C   0  0  0  0  0  0  0  0  0  0  0  0
    1.0292    0.0208    0.0000 C   0  0  0  0  0  0  0  0  0  0  0  0
    2.4542    0.8500    0.0000 C   0  0  0  0  0  0  0  0  0  0  0  0
    1.0250    0.8458    0.0000 C   0  0  0  0  0  0  0  0  0  0  0  0
    1.7375    1.2625    0.0000 O   0  0  0  0  0  0  0  0  0  0  0  0
   -1.8333    0.8458    0.0000 C   0  0  0  0  0  0  0  0  0  0  0  0
   -2.5458    1.2583    0.0000 C   0  0  0  0  0  0  0  0  0  0  0  0
   -3.9708    1.2708    0.0000 C   0  0  0  0  0  0  0  0  0  0  0  0
    0.3042    1.2583    0.0000 C   0  0  0  0  0  0  0  0  0  0  0  0
    3.1750   -0.3917    0.0000 C   0  0  0  0  0  0  0  0  0  0  0  0
   -1.1208    1.2500    0.0000 O   0  0  0  0  0  0  0  0  0  0  0  0
    0.3042   -0.4000    0.0000 C   0  0  0  0  0  0  0  0  0  0  0  0
   -3.2583    0.8583    0.0000 C   0  0  0  0  0  0  0  0  0  0  0  0
   -3.9708    2.0958    0.0000 C   0  0  0  0  0  0  0  0  0  0  0  0
   -4.7583    1.0125    0.0000 O   0  0  0  0  0  0  0  0  0  0  0  0
   -0.4083    0.8375    0.0000 C   0  0  0  0  0  0  0  0  0  0  0  0
    1.7417   -1.2167    0.0000 O   0  0  0  0  0  0  0  0  0  0  0  0
   -4.7583    2.3500    0.0000 O   0  0  0  0  0  0  0  0  0  0  0  0
   -5.2458    1.6833    0.0000 C   0  0  0  0  0  0  0  0  0  0  0  0
   -1.8458    0.0208    0.0000 O   0  0  0  0  0  0  0  0  0  0  0  0
   -2.5458    2.0875    0.0000 C   0  0  0  0  0  0  0  0  0  0  0  0
   -3.2500    2.5083    0.0000 C   0  0  0  0  0  0  0  0  0  0  0  0
    3.1667   -1.2167    0.0000 C   0  0  0  0  0  0  0  0  0  0  0  0
    3.8792    0.0250    0.0000 C   0  0  0  0  0  0  0  0  0  0  0  0
   -0.4083    0.0125    0.0000 C   0  0  0  0  0  0  0  0  0  0  0  0
    4.6000   -1.2125    0.0000 C   0  0  0  0  0  0  0  0  0  0  0  0
    4.5917   -0.3792    0.0000 C   0  0  0  0  0  0  0  0  0  0  0  0
    3.8875   -1.6250    0.0000 C   0  0  0  0  0  0  0  0  0  0  0  0
    5.3125   -1.6167    0.0000 O   0  0  0  0  0  0  0  0  0  0  0  0
    6.0250   -1.2042    0.0000 C   0  0  0  0  0  0  0  0  0  0  0  0
  2  1  1  0  0  0  0
  3  2  1  0  0  0  0
  4  1  2  0  0  0  0
  5  6  1  0  0  0  0
  6  4  1  0  0  0  0
  7 12  1  0  0  0  0
  8  7  1  0  0  0  0
  9 14  2  0  0  0  0
 10  5  2  0  0  0  0
 11  1  1  0  0  0  0
 12 17  1  0  0  0  0
 13  3  2  0  0  0  0
 14  8  1  0  0  0  0
 15 23  2  0  0  0  0
 16  9  1  0  0  0  0
 17 10  1  0  0  0  0
 18  2  2  0  0  0  0
 19 15  1  0  0  0  0
 20 16  1  0  0  0  0
 21  7  2  0  0  0  0
 22  8  2  0  0  0  0
 23 22  1  0  0  0  0
 24 11  2  0  0  0  0
 25 11  1  0  0  0  0
 26 13  1  0  0  0  0
 27 28  1  0  0  0  0
 28 25  2  0  0  0  0
 29 24  1  0  0  0  0
 30 27  1  0  0  0  0
 31 30  1  0  0  0  0
 27 29  2  0  0  0  0
  3  5  1  0  0  0  0
 26 17  2  0  0  0  0
 15  9  1  0  0  0  0
 20 19  1  0  0  0  0
M  END
> <IDNUMBER>
F3385-0089

> <Chemical_Name>
3-(4-methoxyphenyl)-4-oxo-4H-chromen-7-yl 2H-1,3-benzodioxole-5-carboxylate

> <CAS>
637752-87-5

> <PriceCoeff>
1.00

> <MW>
416.38

> <Description>
solid

> <FSP3>
0.08

> <clogP>
4.77

> <TPSA>
80.29

> <Acceptor>
7

> <Donor>
0

> <RotBonds>
5

> <HAC>
31

> <Collection>
General

> <Reference_compound>
CHEMBL519221

> <Similarity>
0.8280

$$$$
F1816-0719
  -ISIS-  06222321442D

 30 33  0  0  0  0  0  0  0  0999 V2000
   -4.5833    2.5500    0.0000 C   0  0  0  0  0  0  0  0  0  0  0  0
   -3.8708    2.9708    0.0000 N   0  0  0  0  0  0  0  0  0  0  0  0
   -4.6750    1.7333    0.0000 N   0  0  3  0  0  0  0  0  0  0  0  0
   -5.3208    2.8958    0.0000 S   0  0  0  0  0  0  0  0  0  0  0  0
   -1.0083    3.7958    0.0000 N   0  0  3  0  0  0  0  0  0  0  0  0
   -5.4833    1.5708    0.0000 C   0  0  0  0  0  0  0  0  0  0  0  0
   -5.8833    2.2958    0.0000 C   0  0  0  0  0  0  0  0  0  0  0  0
   -3.8708    3.8000    0.0000 C   0  0  0  0  0  0  0  0  0  0  0  0
   -1.7208    4.2125    0.0000 C   0  0  0  0  0  0  0  0  0  0  0  0
   -0.9625    2.9708    0.0000 C   0  0  0  0  0  0  0  0  0  0  0  0
   -0.2375    4.0917    0.0000 C   0  0  0  0  0  0  0  0  0  0  0  0
   -6.7042    2.3083    0.0000 C   0  0  0  0  0  0  0  0  0  0  0  0
   -2.4375    3.8083    0.0000 C   0  0  0  0  0  0  0  0  0  0  0  0
   -3.1583    4.2125    0.0000 C   0  0  0  0  0  0  0  0  0  0  0  0
   -4.2458    0.3500    0.0000 C   0  0  0  0  0  0  0  0  0  0  0  0
   -4.4208   -0.4542    0.0000 C   0  0  0  0  0  0  0  0  0  0  0  0
   -5.9083    0.8708    0.0000 C   0  0  0  0  0  0  0  0  0  0  0  0
   -7.1292    1.6000    0.0000 C   0  0  0  0  0  0  0  0  0  0  0  0
   -4.5958    4.2125    0.0000 O   0  0  0  0  0  0  0  0  0  0  0  0
   -0.1458    2.7708    0.0000 C   0  0  0  0  0  0  0  0  0  0  0  0
    0.2917    3.4708    0.0000 C   0  0  0  0  0  0  0  0  0  0  0  0
   -1.5958    2.4583    0.0000 O   0  0  0  0  0  0  0  0  0  0  0  0
   -0.0208    4.8875    0.0000 O   0  0  0  0  0  0  0  0  0  0  0  0
   -6.7167    0.8833    0.0000 C   0  0  0  0  0  0  0  0  0  0  0  0
   -4.0583    1.1625    0.0000 C   0  0  0  0  0  0  0  0  0  0  0  0
   -1.7125    5.0292    0.0000 C   0  0  0  0  0  0  0  0  0  0  0  0
   -7.1042    3.0333    0.0000 C   0  0  0  0  0  0  0  0  0  0  0  0
   -3.1500    5.0417    0.0000 C   0  0  0  0  0  0  0  0  0  0  0  0
   -2.4333    5.4542    0.0000 C   0  0  0  0  0  0  0  0  0  0  0  0
   -7.1167    0.1583    0.0000 C   0  0  0  0  0  0  0  0  0  0  0  0
  2  1  2  0  0  0  0
  3  1  1  0  0  0  0
  4  1  1  0  0  0  0
  5  9  1  0  0  0  0
  6  3  1  0  0  0  0
  7  4  1  0  0  0  0
  8  2  1  0  0  0  0
  9 13  1  0  0  0  0
 10  5  1  0  0  0  0
 11  5  1  0  0  0  0
 12  7  1  0  0  0  0
 13 14  2  0  0  0  0
 14  8  1  0  0  0  0
 15 25  1  0  0  0  0
 16 15  3  0  0  0  0
 17  6  1  0  0  0  0
 18 12  2  0  0  0  0
 19  8  2  0  0  0  0
 20 10  1  0  0  0  0
 21 11  1  0  0  0  0
 22 10  2  0  0  0  0
 23 11  2  0  0  0  0
 24 17  2  0  0  0  0
 25  3  1  0  0  0  0
 26 29  1  0  0  0  0
 27 12  1  0  0  0  0
 28 14  1  0  0  0  0
 29 28  2  0  0  0  0
 30 24  1  0  0  0  0
  6  7  2  0  0  0  0
 18 24  1  0  0  0  0
 26  9  2  0  0  0  0
 21 20  1  0  0  0  0
M  END
> <IDNUMBER>
F1816-0719

> <Chemical_Name>
N-[(2Z)-5,7-dimethyl-3-(prop-2-yn-1-yl)-2,3-dihydro-1,3-benzothiazol-2-ylidene]-3-(2,5-dioxopyrrolidin-1-yl)benzamide

> <CAS>
868674-12-8

> <PriceCoeff>
1.00

> <MW>
417.48

> <Description>
solid

> <FSP3>
0.22

> <clogP>
4.05

> <TPSA>
95.35

> <Acceptor>
3

> <Donor>
0

> <RotBonds>
5

> <HAC>
30

> <Collection>
General

$$$$
F3139-1289
  -ISIS-  06222321152D

 34 38  0  0  0  0  0  0  0  0999 V2000
    3.9750   -2.1417    0.0000 C   0  0  0  0  0  0  0  0  0  0  0  0
    2.5417   -2.1417    0.0000 C   0  0  0  0  0  0  0  0  0  0  0  0
    3.2542   -2.5542    0.0000 C   0  0  0  0  0  0  0  0  0  0  0  0
    3.9750   -1.3167    0.0000 C   0  0  0  0  0  0  0  0  0  0  0  0
    2.5417   -1.3167    0.0000 C   0  0  0  0  0  0  0  0  0  0  0  0
    4.6875   -2.5625    0.0000 C   0  0  0  0  0  0  0  0  0  0  0  0
    3.2542   -0.9042    0.0000 O   0  0  0  0  0  0  0  0  0  0  0  0
    1.8292   -2.5542    0.0000 C   0  0  0  0  0  0  0  0  0  0  0  0
    1.8292   -0.9042    0.0000 C   0  0  0  0  0  0  0  0  0  0  0  0
    1.1167   -1.3250    0.0000 C   0  0  0  0  0  0  0  0  0  0  0  0
    6.1167   -2.5542    0.0000 C   0  0  0  0  0  0  0  0  0  0  0  0
    1.1167   -2.1417    0.0000 C   0  0  0  0  0  0  0  0  0  0  0  0
    5.4042   -2.1417    0.0000 C   0  0  0  0  0  0  0  0  0  0  0  0
    6.1167   -3.3875    0.0000 C   0  0  0  0  0  0  0  0  0  0  0  0
   -0.3208    0.3333    0.0000 C   0  0  0  0  0  0  0  0  0  0  0  0
    0.3917   -0.9042    0.0000 O   0  0  0  0  0  0  0  0  0  0  0  0
    3.2542   -3.3792    0.0000 O   0  0  0  0  0  0  0  0  0  0  0  0
    6.7625   -2.0417    0.0000 O   0  0  0  0  0  0  0  0  0  0  0  0
    4.6875   -3.3875    0.0000 C   0  0  0  0  0  0  0  0  0  0  0  0
    6.7625   -3.9000    0.0000 O   0  0  0  0  0  0  0  0  0  0  0  0
    0.3917   -0.0792    0.0000 C   0  0  0  0  0  0  0  0  0  0  0  0
    5.4000   -3.8000    0.0000 C   0  0  0  0  0  0  0  0  0  0  0  0
   -0.3208    1.1583    0.0000 O   0  0  0  0  0  0  0  0  0  0  0  0
   -1.0333   -0.0792    0.0000 C   0  0  0  0  0  0  0  0  0  0  0  0
    7.9167   -2.9667    0.0000 C   0  0  0  0  0  0  0  0  0  0  0  0
    7.5625   -2.2292    0.0000 C   0  0  0  0  0  0  0  0  0  0  0  0
    7.5625   -3.7167    0.0000 C   0  0  0  0  0  0  0  0  0  0  0  0
    0.4000   -2.5542    0.0000 C   0  0  0  0  0  0  0  0  0  0  0  0
   -1.7500    0.3333    0.0000 C   0  0  0  0  0  0  0  0  0  0  0  0
   -1.0333   -0.9042    0.0000 C   0  0  0  0  0  0  0  0  0  0  0  0
    0.3917   -3.3792    0.0000 C   0  0  0  0  0  0  0  0  0  0  0  0
   -1.7458   -1.3167    0.0000 C   0  0  0  0  0  0  0  0  0  0  0  0
   -2.4625   -0.0792    0.0000 C   0  0  0  0  0  0  0  0  0  0  0  0
   -2.4625   -0.9042    0.0000 C   0  0  0  0  0  0  0  0  0  0  0  0
  2  3  1  0  0  0  0
  3  1  1  0  0  0  0
  4  1  2  0  0  0  0
  5  7  1  0  0  0  0
  6  1  1  0  0  0  0
  7  4  1  0  0  0  0
  8  2  2  0  0  0  0
  9  5  2  0  0  0  0
 10  9  1  0  0  0  0
 11 13  2  0  0  0  0
 12  8  1  0  0  0  0
 13  6  1  0  0  0  0
 14 22  2  0  0  0  0
 15 21  1  0  0  0  0
 16 10  1  0  0  0  0
 17  3  2  0  0  0  0
 18 11  1  0  0  0  0
 19  6  2  0  0  0  0
 20 14  1  0  0  0  0
 21 16  1  0  0  0  0
 22 19  1  0  0  0  0
 23 15  2  0  0  0  0
 24 15  1  0  0  0  0
 25 26  1  0  0  0  0
 26 18  1  0  0  0  0
 27 20  1  0  0  0  0
 28 12  1  0  0  0  0
 29 24  2  0  0  0  0
 30 24  1  0  0  0  0
 31 28  1  0  0  0  0
 32 30  2  0  0  0  0
 33 29  1  0  0  0  0
 34 32  1  0  0  0  0
  2  5  1  0  0  0  0
 14 11  1  0  0  0  0
 12 10  2  0  0  0  0
 27 25  1  0  0  0  0
 34 33  2  0  0  0  0
M  END
> <IDNUMBER>
F3139-1289

> <Chemical_Name>
3-(3,4-dihydro-2H-1,5-benzodioxepin-7-yl)-6-ethyl-7-(2-oxo-2-phenylethoxy)-4H-chromen-4-one

> <CAS>
610763-36-5

> <PriceCoeff>
1.00

> <MW>
456.49

> <Description>
solid

> <FSP3>
0.21

> <clogP>
5.16

> <TPSA>
71.06

> <Acceptor>
6

> <Donor>
0

> <RotBonds>
6

> <HAC>
34

> <Collection>
General

> <Reference_compound>
CHEMBL455048

> <Similarity>
0.8260

$$$$
F3139-0460
  -ISIS-  06222321152D

 33 37  0  0  0  0  0  0  0  0999 V2000
    4.4417   -2.1417    0.0000 C   0  0  0  0  0  0  0  0  0  0  0  0
    3.0167   -2.1417    0.0000 C   0  0  0  0  0  0  0  0  0  0  0  0
    3.7292   -2.5542    0.0000 C   0  0  0  0  0  0  0  0  0  0  0  0
    4.4417   -1.3167    0.0000 C   0  0  0  0  0  0  0  0  0  0  0  0
    3.0167   -1.3167    0.0000 C   0  0  0  0  0  0  0  0  0  0  0  0
    5.1542   -2.5542    0.0000 C   0  0  0  0  0  0  0  0  0  0  0  0
    3.7292   -0.9042    0.0000 O   0  0  0  0  0  0  0  0  0  0  0  0
    2.3042   -2.5542    0.0000 C   0  0  0  0  0  0  0  0  0  0  0  0
    2.3042   -0.9042    0.0000 C   0  0  0  0  0  0  0  0  0  0  0  0
    1.5875   -1.3167    0.0000 C   0  0  0  0  0  0  0  0  0  0  0  0
    6.5917   -2.5542    0.0000 C   0  0  0  0  0  0  0  0  0  0  0  0
    1.5875   -2.1417    0.0000 C   0  0  0  0  0  0  0  0  0  0  0  0
    5.8792   -2.1417    0.0000 C   0  0  0  0  0  0  0  0  0  0  0  0
    6.5917   -3.3792    0.0000 C   0  0  0  0  0  0  0  0  0  0  0  0
    3.7292   -3.3792    0.0000 O   0  0  0  0  0  0  0  0  0  0  0  0
    0.8667   -0.9042    0.0000 O   0  0  0  0  0  0  0  0  0  0  0  0
    7.3042   -2.1375    0.0000 O   0  0  0  0  0  0  0  0  0  0  0  0
    5.1542   -3.3792    0.0000 C   0  0  0  0  0  0  0  0  0  0  0  0
    7.3042   -3.7875    0.0000 O   0  0  0  0  0  0  0  0  0  0  0  0
    5.8667   -3.7917    0.0000 C   0  0  0  0  0  0  0  0  0  0  0  0
    0.1542   -1.3167    0.0000 C   0  0  0  0  0  0  0  0  0  0  0  0
   -1.2750   -1.3292    0.0000 C   0  0  0  0  0  0  0  0  0  0  0  0
   -0.5708   -0.9125    0.0000 C   0  0  0  0  0  0  0  0  0  0  0  0
   -1.9958   -0.9292    0.0000 C   0  0  0  0  0  0  0  0  0  0  0  0
   -2.7083   -1.3542    0.0000 O   0  0  0  0  0  0  0  0  0  0  0  0
    0.8667   -2.5542    0.0000 C   0  0  0  0  0  0  0  0  0  0  0  0
   -1.2958    0.3250    0.0000 C   0  0  0  0  0  0  0  0  0  0  0  0
    8.0167   -2.5500    0.0000 C   0  0  0  0  0  0  0  0  0  0  0  0
    8.0167   -3.3750    0.0000 C   0  0  0  0  0  0  0  0  0  0  0  0
   -0.5708   -0.0792    0.0000 C   0  0  0  0  0  0  0  0  0  0  0  0
   -2.0083   -0.0917    0.0000 C   0  0  0  0  0  0  0  0  0  0  0  0
   -2.6958   -2.1792    0.0000 C   0  0  0  0  0  0  0  0  0  0  0  0
    0.8667   -3.3792    0.0000 C   0  0  0  0  0  0  0  0  0  0  0  0
  2  3  1  0  0  0  0
  3  1  1  0  0  0  0
  4  1  2  0  0  0  0
  5  7  1  0  0  0  0
  6  1  1  0  0  0  0
  7  4  1  0  0  0  0
  8  2  2  0  0  0  0
  9  5  2  0  0  0  0
 10  9  1  0  0  0  0
 11 13  2  0  0  0  0
 12  8  1  0  0  0  0
 13  6  1  0  0  0  0
 14 20  2  0  0  0  0
 15  3  2  0  0  0  0
 16 10  1  0  0  0  0
 17 11  1  0  0  0  0
 18  6  2  0  0  0  0
 19 14  1  0  0  0  0
 20 18  1  0  0  0  0
 21 16  1  0  0  0  0
 22 23  1  0  0  0  0
 23 21  1  0  0  0  0
 24 22  2  0  0  0  0
 25 24  1  0  0  0  0
 26 12  1  0  0  0  0
 27 30  1  0  0  0  0
 28 17  1  0  0  0  0
 29 19  1  0  0  0  0
 30 23  2  0  0  0  0
 31 27  2  0  0  0  0
 32 25  1  0  0  0  0
 33 26  1  0  0  0  0
  5  2  1  0  0  0  0
 11 14  1  0  0  0  0
 10 12  2  0  0  0  0
 28 29  1  0  0  0  0
 24 31  1  0  0  0  0
M  END
> <IDNUMBER>
F3139-0460

> <Chemical_Name>
3-(2,3-dihydro-1,4-benzodioxin-6-yl)-6-ethyl-7-[(3-methoxyphenyl)methoxy]-4H-chromen-4-one

> <CAS>
610751-64-9

> <PriceCoeff>
1.00

> <MW>
444.48

> <Description>
solid

> <FSP3>
0.22

> <clogP>
5.73

> <TPSA>
63.22

> <Acceptor>
6

> <Donor>
0

> <RotBonds>
6

> <HAC>
33

> <Collection>
General

> <Reference_compound>
CHEMBL455048

> <Similarity>
0.8350

$$$$
F1816-0521
  -ISIS-  06222321442D

 30 33  0  0  0  0  0  0  0  0999 V2000
   -4.5833    2.5500    0.0000 C   0  0  0  0  0  0  0  0  0  0  0  0
   -3.8708    2.9708    0.0000 N   0  0  0  0  0  0  0  0  0  0  0  0
   -4.6750    1.7333    0.0000 N   0  0  3  0  0  0  0  0  0  0  0  0
   -5.3208    2.8958    0.0000 S   0  0  0  0  0  0  0  0  0  0  0  0
   -5.4833    1.5708    0.0000 C   0  0  0  0  0  0  0  0  0  0  0  0
   -0.9958    5.4375    0.0000 N   0  0  3  0  0  0  0  0  0  0  0  0
   -5.8833    2.2958    0.0000 C   0  0  0  0  0  0  0  0  0  0  0  0
   -3.8708    3.8000    0.0000 C   0  0  0  0  0  0  0  0  0  0  0  0
   -0.2333    5.1375    0.0000 C   0  0  0  0  0  0  0  0  0  0  0  0
   -0.9375    6.2667    0.0000 C   0  0  0  0  0  0  0  0  0  0  0  0
   -6.7042    2.3083    0.0000 C   0  0  0  0  0  0  0  0  0  0  0  0
   -1.7125    5.0292    0.0000 C   0  0  0  0  0  0  0  0  0  0  0  0
   -4.2458    0.3500    0.0000 C   0  0  0  0  0  0  0  0  0  0  0  0
   -4.4208   -0.4542    0.0000 C   0  0  0  0  0  0  0  0  0  0  0  0
   -5.9083    0.8708    0.0000 C   0  0  0  0  0  0  0  0  0  0  0  0
   -3.1583    4.2125    0.0000 C   0  0  0  0  0  0  0  0  0  0  0  0
   -7.1292    1.6000    0.0000 C   0  0  0  0  0  0  0  0  0  0  0  0
   -4.5958    4.2125    0.0000 O   0  0  0  0  0  0  0  0  0  0  0  0
    0.2917    5.7667    0.0000 C   0  0  0  0  0  0  0  0  0  0  0  0
   -0.1333    6.4667    0.0000 C   0  0  0  0  0  0  0  0  0  0  0  0
   -0.0333    4.3292    0.0000 O   0  0  0  0  0  0  0  0  0  0  0  0
   -1.5833    6.8125    0.0000 O   0  0  0  0  0  0  0  0  0  0  0  0
   -6.7167    0.8833    0.0000 C   0  0  0  0  0  0  0  0  0  0  0  0
   -4.0583    1.1625    0.0000 C   0  0  0  0  0  0  0  0  0  0  0  0
   -1.7333    4.2042    0.0000 C   0  0  0  0  0  0  0  0  0  0  0  0
   -2.4333    5.4542    0.0000 C   0  0  0  0  0  0  0  0  0  0  0  0
   -3.1500    5.0417    0.0000 C   0  0  0  0  0  0  0  0  0  0  0  0
   -2.4458    3.8083    0.0000 C   0  0  0  0  0  0  0  0  0  0  0  0
   -7.1042    3.0333    0.0000 C   0  0  0  0  0  0  0  0  0  0  0  0
   -7.1167    0.1583    0.0000 C   0  0  0  0  0  0  0  0  0  0  0  0
  2  1  2  0  0  0  0
  3  1  1  0  0  0  0
  4  1  1  0  0  0  0
  5  3  1  0  0  0  0
  6 12  1  0  0  0  0
  7  4  1  0  0  0  0
  8  2  1  0  0  0  0
  9  6  1  0  0  0  0
 10  6  1  0  0  0  0
 11  7  1  0  0  0  0
 12 25  2  0  0  0  0
 13 24  1  0  0  0  0
 14 13  3  0  0  0  0
 15  5  1  0  0  0  0
 16  8  1  0  0  0  0
 17 11  2  0  0  0  0
 18  8  2  0  0  0  0
 19  9  1  0  0  0  0
 20 10  1  0  0  0  0
 21  9  2  0  0  0  0
 22 10  2  0  0  0  0
 23 15  2  0  0  0  0
 24  3  1  0  0  0  0
 25 28  1  0  0  0  0
 26 27  2  0  0  0  0
 27 16  1  0  0  0  0
 28 16  2  0  0  0  0
 29 11  1  0  0  0  0
 30 23  1  0  0  0  0
  5  7  2  0  0  0  0
 17 23  1  0  0  0  0
 26 12  1  0  0  0  0
 20 19  1  0  0  0  0
M  END
> <IDNUMBER>
F1816-0521

> <Chemical_Name>
N-[(2Z)-5,7-dimethyl-3-(prop-2-yn-1-yl)-2,3-dihydro-1,3-benzothiazol-2-ylidene]-4-(2,5-dioxopyrrolidin-1-yl)benzamide

> <CAS>
868377-94-0

> <PriceCoeff>
1.00

> <MW>
417.48

> <Description>
solid

> <FSP3>
0.22

> <clogP>
4.05

> <TPSA>
95.35

> <Acceptor>
3

> <Donor>
0

> <RotBonds>
5

> <HAC>
30

> <Collection>
General

$$$$
F1359-1254
  -ISIS-  06222321142D

 33 36  0  0  0  0  0  0  0  0999 V2000
   -1.1625    2.3833    0.0000 C   0  0  0  0  0  0  0  0  0  0  0  0
   -0.3375    2.3750    0.0000 N   0  0  0  0  0  0  0  0  0  0  0  0
   -4.5833    3.2125    0.0000 S   0  0  3  0  0  0  0  0  0  0  0  0
    2.5542    1.6500    0.0000 N   0  0  3  0  0  0  0  0  0  0  0  0
   -1.6458    1.7208    0.0000 N   0  0  3  0  0  0  0  0  0  0  0  0
   -1.6458    3.0500    0.0000 S   0  0  0  0  0  0  0  0  0  0  0  0
   -2.4333    2.7958    0.0000 C   0  0  0  0  0  0  0  0  0  0  0  0
   -2.4333    1.9708    0.0000 C   0  0  0  0  0  0  0  0  0  0  0  0
    0.0750    3.0875    0.0000 C   0  0  0  0  0  0  0  0  0  0  0  0
    2.1292    2.3708    0.0000 C   0  0  0  0  0  0  0  0  0  0  0  0
    3.3667    1.5333    0.0000 C   0  0  0  0  0  0  0  0  0  0  0  0
    2.1750    0.9125    0.0000 C   0  0  0  0  0  0  0  0  0  0  0  0
   -3.8583    2.7958    0.0000 C   0  0  0  0  0  0  0  0  0  0  0  0
   -3.1458    3.2083    0.0000 C   0  0  0  0  0  0  0  0  0  0  0  0
    1.3125    2.3750    0.0000 C   0  0  0  0  0  0  0  0  0  0  0  0
    0.9000    3.0875    0.0000 C   0  0  0  0  0  0  0  0  0  0  0  0
   -3.1458    1.5583    0.0000 C   0  0  0  0  0  0  0  0  0  0  0  0
   -4.1458    3.9083    0.0000 O   0  0  0  0  0  0  0  0  0  0  0  0
   -5.0208    2.5083    0.0000 O   0  0  0  0  0  0  0  0  0  0  0  0
   -5.2833    3.6458    0.0000 N   0  0  0  0  0  0  0  0  0  0  0  0
   -0.3375    3.8000    0.0000 O   0  0  0  0  0  0  0  0  0  0  0  0
   -3.8583    1.9708    0.0000 C   0  0  0  0  0  0  0  0  0  0  0  0
    3.5042    0.7125    0.0000 C   0  0  0  0  0  0  0  0  0  0  0  0
    2.7792    0.3250    0.0000 C   0  0  0  0  0  0  0  0  0  0  0  0
    3.9500    2.1083    0.0000 O   0  0  0  0  0  0  0  0  0  0  0  0
    1.3667    0.7833    0.0000 O   0  0  0  0  0  0  0  0  0  0  0  0
   -1.3958    0.9333    0.0000 C   0  0  0  0  0  0  0  0  0  0  0  0
    2.5542    3.0833    0.0000 C   0  0  0  0  0  0  0  0  0  0  0  0
    1.3167    3.8083    0.0000 C   0  0  0  0  0  0  0  0  0  0  0  0
    2.1417    3.8000    0.0000 C   0  0  0  0  0  0  0  0  0  0  0  0
   -2.7500    0.4875    0.0000 O   0  0  0  0  0  0  0  0  0  0  0  0
   -1.9458    0.3208    0.0000 C   0  0  0  0  0  0  0  0  0  0  0  0
   -3.3083   -0.1250    0.0000 C   0  0  0  0  0  0  0  0  0  0  0  0
  2  1  2  0  0  0  0
  3 13  1  0  0  0  0
  4 10  1  0  0  0  0
  5  1  1  0  0  0  0
  6  1  1  0  0  0  0
  7  6  1  0  0  0  0
  8  5  1  0  0  0  0
  9  2  1  0  0  0  0
 10 15  1  0  0  0  0
 11  4  1  0  0  0  0
 12  4  1  0  0  0  0
 13 14  2  0  0  0  0
 14  7  1  0  0  0  0
 15 16  2  0  0  0  0
 16  9  1  0  0  0  0
 17  8  1  0  0  0  0
 18  3  2  0  0  0  0
 19  3  2  0  0  0  0
 20  3  1  0  0  0  0
 21  9  2  0  0  0  0
 22 17  2  0  0  0  0
 23 11  1  0  0  0  0
 24 12  1  0  0  0  0
 25 11  2  0  0  0  0
 26 12  2  0  0  0  0
 27  5  1  0  0  0  0
 28 30  1  0  0  0  0
 29 16  1  0  0  0  0
 30 29  2  0  0  0  0
 31 32  1  0  0  0  0
 32 27  1  0  0  0  0
 33 31  1  0  0  0  0
  8  7  2  0  0  0  0
 22 13  1  0  0  0  0
 10 28  2  0  0  0  0
 23 24  1  0  0  0  0
M  END
> <IDNUMBER>
F1359-1254

> <Chemical_Name>
3-(2,5-dioxopyrrolidin-1-yl)-N-[(2Z)-3-(2-methoxyethyl)-6-sulfamoyl-2,3-dihydro-1,3-benzothiazol-2-ylidene]benzamide

> <CAS>
865160-22-1

> <PriceCoeff>
1.00

> <MW>
488.54

> <Description>
solid

> <FSP3>
0.24

> <clogP>
0.78

> <TPSA>
173.12

> <Acceptor>
6

> <Donor>
1

> <RotBonds>
7

> <HAC>
33

> <Collection>
General

$$$$
F1814-0648
  -ISIS-  06222321452D

 28 31  0  0  0  0  0  0  0  0999 V2000
   -5.2833    2.1875    0.0000 C   0  0  0  0  0  0  0  0  0  0  0  0
   -4.5833    2.5958    0.0000 N   0  0  0  0  0  0  0  0  0  0  0  0
   -5.3583    1.3500    0.0000 N   0  0  3  0  0  0  0  0  0  0  0  0
   -1.7208    3.3833    0.0000 N   0  0  3  0  0  0  0  0  0  0  0  0
   -6.0292    2.5208    0.0000 S   0  0  0  0  0  0  0  0  0  0  0  0
   -6.1792    1.1708    0.0000 C   0  0  0  0  0  0  0  0  0  0  0  0
   -6.5917    1.8958    0.0000 C   0  0  0  0  0  0  0  0  0  0  0  0
   -4.5833    3.3958    0.0000 C   0  0  0  0  0  0  0  0  0  0  0  0
   -2.4375    3.8083    0.0000 C   0  0  0  0  0  0  0  0  0  0  0  0
   -6.5917    0.4500    0.0000 C   0  0  0  0  0  0  0  0  0  0  0  0
   -0.9500    3.6958    0.0000 C   0  0  0  0  0  0  0  0  0  0  0  0
   -1.6750    2.5583    0.0000 C   0  0  0  0  0  0  0  0  0  0  0  0
   -7.4417    1.8958    0.0000 C   0  0  0  0  0  0  0  0  0  0  0  0
   -3.1583    3.3958    0.0000 C   0  0  0  0  0  0  0  0  0  0  0  0
   -7.4375    0.4458    0.0000 C   0  0  0  0  0  0  0  0  0  0  0  0
   -3.8708    3.8000    0.0000 C   0  0  0  0  0  0  0  0  0  0  0  0
   -7.8542    1.1708    0.0000 C   0  0  0  0  0  0  0  0  0  0  0  0
   -5.2833    3.7958    0.0000 O   0  0  0  0  0  0  0  0  0  0  0  0
   -0.4208    3.0583    0.0000 C   0  0  0  0  0  0  0  0  0  0  0  0
   -0.8583    2.3583    0.0000 C   0  0  0  0  0  0  0  0  0  0  0  0
   -0.7375    4.4667    0.0000 O   0  0  0  0  0  0  0  0  0  0  0  0
   -2.3083    2.0375    0.0000 O   0  0  0  0  0  0  0  0  0  0  0  0
   -6.1792   -0.2542    0.0000 Cl  0  0  0  0  0  0  0  0  0  0  0  0
   -4.7708    0.8083    0.0000 C   0  0  0  0  0  0  0  0  0  0  0  0
   -8.6542    1.1625    0.0000 Cl  0  0  0  0  0  0  0  0  0  0  0  0
   -2.4333    4.6167    0.0000 C   0  0  0  0  0  0  0  0  0  0  0  0
   -3.8625    4.6292    0.0000 C   0  0  0  0  0  0  0  0  0  0  0  0
   -3.1458    5.0417    0.0000 C   0  0  0  0  0  0  0  0  0  0  0  0
  2  1  2  0  0  0  0
  3  1  1  0  0  0  0
  4  9  1  0  0  0  0
  5  1  1  0  0  0  0
  6  3  1  0  0  0  0
  7  5  1  0  0  0  0
  8  2  1  0  0  0  0
  9 14  1  0  0  0  0
 10  6  1  0  0  0  0
 11  4  1  0  0  0  0
 12  4  1  0  0  0  0
 13  7  1  0  0  0  0
 14 16  2  0  0  0  0
 15 10  2  0  0  0  0
 16  8  1  0  0  0  0
 17 13  2  0  0  0  0
 18  8  2  0  0  0  0
 19 11  1  0  0  0  0
 20 12  1  0  0  0  0
 21 11  2  0  0  0  0
 22 12  2  0  0  0  0
 23 10  1  0  0  0  0
 24  3  1  0  0  0  0
 25 17  1  0  0  0  0
 26 28  1  0  0  0  0
 27 16  1  0  0  0  0
 28 27  2  0  0  0  0
  6  7  2  0  0  0  0
 17 15  1  0  0  0  0
 26  9  2  0  0  0  0
 19 20  1  0  0  0  0
M  END
> <IDNUMBER>
F1814-0648

> <Chemical_Name>
N-[(2Z)-4,6-dichloro-3-methyl-2,3-dihydro-1,3-benzothiazol-2-ylidene]-3-(2,5-dioxopyrrolidin-1-yl)benzamide

> <CAS>
868369-90-8

> <PriceCoeff>
1.00

> <MW>
434.30

> <Description>
solid

> <FSP3>
0.16

> <clogP>
4.38

> <TPSA>
95.35

> <Acceptor>
3

> <Donor>
0

> <RotBonds>
3

> <HAC>
28

> <Collection>
General

$$$$
F2743-0692
  -ISIS-  06222321462D

 29 31  0  0  0  0  0  0  0  0999 V2000
   -2.7583    2.1625    0.0000 C   0  0  0  0  0  0  0  0  0  0  0  0
   -2.7583    1.3375    0.0000 C   0  0  0  0  0  0  0  0  0  0  0  0
   -3.4708    0.9333    0.0000 N   0  0  3  0  0  0  0  0  0  0  0  0
   -0.8333    6.0125    0.0000 N   0  3  0  0  0  0  0  0  0  0  0  0
   -0.4708    5.1375    0.0000 C   0  0  0  0  0  0  0  0  0  0  0  0
   -2.2083    2.8958    0.0000 C   0  0  0  0  0  0  0  0  0  0  0  0
   -2.6458   -0.4875    0.0000 C   0  0  0  0  0  0  0  0  0  0  0  0
   -3.4708   -0.0167    0.0000 C   0  0  0  0  0  0  0  0  0  0  0  0
   -1.2750    2.7708    0.0000 N   0  0  0  0  0  0  0  0  0  0  0  0
   -1.0583    4.3875    0.0000 C   0  0  0  0  0  0  0  0  0  0  0  0
   -3.4708    2.5833    0.0000 C   0  0  0  0  0  0  0  0  0  0  0  0
    0.4667    5.0125    0.0000 C   0  0  0  0  0  0  0  0  0  0  0  0
   -4.1750    1.3375    0.0000 C   0  0  0  0  0  0  0  0  0  0  0  0
   -0.2583    6.7625    0.0000 O   0  5  0  0  0  0  0  0  0  0  0  0
   -1.7708    6.1417    0.0000 O   0  0  0  0  0  0  0  0  0  0  0  0
   -0.6958    3.5208    0.0000 C   0  0  0  0  0  0  0  0  0  0  0  0
   -2.6500   -1.4375    0.0000 C   0  0  0  0  0  0  0  0  0  0  0  0
   -1.8208   -0.0250    0.0000 C   0  0  0  0  0  0  0  0  0  0  0  0
   -1.8333    1.4875    0.0000 O   0  0  0  0  0  0  0  0  0  0  0  0
   -4.1750    2.1625    0.0000 C   0  0  0  0  0  0  0  0  0  0  0  0
   -2.5500    3.8000    0.0000 O   0  0  0  0  0  0  0  0  0  0  0  0
    0.8167    4.1292    0.0000 C   0  0  0  0  0  0  0  0  0  0  0  0
    0.2417    3.3833    0.0000 C   0  0  0  0  0  0  0  0  0  0  0  0
    1.0417    5.7625    0.0000 Cl  0  0  0  0  0  0  0  0  0  0  0  0
   -3.4750   -1.9042    0.0000 Cl  0  0  0  0  0  0  0  0  0  0  0  0
   -1.8083    0.9208    0.0000 F   0  0  0  0  0  0  0  0  0  0  0  0
   -1.0083   -1.4542    0.0000 C   0  0  0  0  0  0  0  0  0  0  0  0
   -1.8458   -1.9250    0.0000 C   0  0  0  0  0  0  0  0  0  0  0  0
   -1.0000   -0.5125    0.0000 C   0  0  0  0  0  0  0  0  0  0  0  0
  2  1  1  0  0  0  0
  3  2  1  0  0  0  0
  4  5  1  0  0  0  0
  5 10  2  0  0  0  0
  6  1  1  0  0  0  0
  7  8  1  0  0  0  0
  8  3  1  0  0  0  0
  9  6  1  0  0  0  0
 10 16  1  0  0  0  0
 11  1  2  0  0  0  0
 12 22  2  0  0  0  0
 13 20  2  0  0  0  0
 14  4  1  0  0  0  0
 15  4  2  0  0  0  0
 16  9  1  0  0  0  0
 17  7  2  0  0  0  0
 18  7  1  0  0  0  0
 19  2  2  0  0  0  0
 20 11  1  0  0  0  0
 21  6  2  0  0  0  0
 22 23  1  0  0  0  0
 23 16  2  0  0  0  0
 24 12  1  0  0  0  0
 25 17  1  0  0  0  0
 26 18  1  0  0  0  0
 27 29  1  0  0  0  0
 28 17  1  0  0  0  0
 29 18  2  0  0  0  0
  3 13  1  0  0  0  0
 12  5  1  0  0  0  0
 28 27  2  0  0  0  0
M  CHG  2   4   1  14  -1
M  END
> <IDNUMBER>
F2743-0692

> <Chemical_Name>
N-(4-chloro-3-nitrophenyl)-1-[(2-chloro-6-fluorophenyl)methyl]-2-oxo-1,2-dihydropyridine-3-carboxamide

> <CAS>
941989-24-8

> <PriceCoeff>
1.00

> <MW>
436.22

> <Description>
solid

> <FSP3>
0.05

> <clogP>
4.20

> <TPSA>
92.55

> <Acceptor>
4

> <Donor>
1

> <RotBonds>
5

> <HAC>
29

> <Collection>
General

$$$$
F2744-0692
  -ISIS-  06222321152D

 29 31  0  0  0  0  0  0  0  0999 V2000
   -3.1708    1.4333    0.0000 N   0  0  3  0  0  0  0  0  0  0  0  0
   -2.4583    2.6708    0.0000 C   0  0  0  0  0  0  0  0  0  0  0  0
   -0.1833    5.7042    0.0000 N   0  3  0  0  0  0  0  0  0  0  0  0
    0.0417    4.8792    0.0000 C   0  0  0  0  0  0  0  0  0  0  0  0
   -2.4333    0.1625    0.0000 C   0  0  0  0  0  0  0  0  0  0  0  0
   -2.4583    1.8458    0.0000 C   0  0  0  0  0  0  0  0  0  0  0  0
   -1.7458    3.0833    0.0000 C   0  0  0  0  0  0  0  0  0  0  0  0
   -3.1708    0.5875    0.0000 C   0  0  0  0  0  0  0  0  0  0  0  0
   -3.8750    1.8458    0.0000 C   0  0  0  0  0  0  0  0  0  0  0  0
   -3.1708    3.0833    0.0000 C   0  0  0  0  0  0  0  0  0  0  0  0
   -3.8750    2.6708    0.0000 C   0  0  0  0  0  0  0  0  0  0  0  0
   -0.9250    2.8708    0.0000 N   0  0  0  0  0  0  0  0  0  0  0  0
   -0.5583    4.2792    0.0000 C   0  0  0  0  0  0  0  0  0  0  0  0
    0.8542    4.6667    0.0000 C   0  0  0  0  0  0  0  0  0  0  0  0
    0.4042    6.3042    0.0000 O   0  5  0  0  0  0  0  0  0  0  0  0
   -1.0083    5.9167    0.0000 O   0  0  0  0  0  0  0  0  0  0  0  0
   -1.6875    0.5833    0.0000 C   0  0  0  0  0  0  0  0  0  0  0  0
   -2.4333   -0.6792    0.0000 C   0  0  0  0  0  0  0  0  0  0  0  0
   -0.3333    3.4708    0.0000 C   0  0  0  0  0  0  0  0  0  0  0  0
   -2.1583    3.8000    0.0000 O   0  0  0  0  0  0  0  0  0  0  0  0
   -4.5625    1.8958    0.0000 O   0  0  0  0  0  0  0  0  0  0  0  0
    1.0792    3.8708    0.0000 C   0  0  0  0  0  0  0  0  0  0  0  0
    0.4875    3.2583    0.0000 C   0  0  0  0  0  0  0  0  0  0  0  0
    1.4500    5.2792    0.0000 Cl  0  0  0  0  0  0  0  0  0  0  0  0
   -3.1708   -1.1042    0.0000 Cl  0  0  0  0  0  0  0  0  0  0  0  0
   -1.6833    1.4250    0.0000 F   0  0  0  0  0  0  0  0  0  0  0  0
   -0.9708   -0.6917    0.0000 C   0  0  0  0  0  0  0  0  0  0  0  0
   -1.7083   -1.1125    0.0000 C   0  0  0  0  0  0  0  0  0  0  0  0
   -0.9583    0.1500    0.0000 C   0  0  0  0  0  0  0  0  0  0  0  0
  2  6  2  0  0  0  0
  3  4  1  0  0  0  0
  4 13  2  0  0  0  0
  5  8  1  0  0  0  0
  6  1  1  0  0  0  0
  7  2  1  0  0  0  0
  8  1  1  0  0  0  0
  9  1  1  0  0  0  0
 10 11  2  0  0  0  0
 11  9  1  0  0  0  0
 12  7  1  0  0  0  0
 13 19  1  0  0  0  0
 14 22  2  0  0  0  0
 15  3  1  0  0  0  0
 16  3  2  0  0  0  0
 17  5  1  0  0  0  0
 18  5  2  0  0  0  0
 19 12  1  0  0  0  0
 20  7  2  0  0  0  0
 21  9  2  0  0  0  0
 22 23  1  0  0  0  0
 23 19  2  0  0  0  0
 24 14  1  0  0  0  0
 25 18  1  0  0  0  0
 26 17  1  0  0  0  0
 27 28  2  0  0  0  0
 28 18  1  0  0  0  0
 29 17  2  0  0  0  0
 10  2  1  0  0  0  0
 27 29  1  0  0  0  0
 14  4  1  0  0  0  0
M  CHG  2   3   1  15  -1
M  END
> <IDNUMBER>
F2744-0692

> <Chemical_Name>
N-(4-chloro-3-nitrophenyl)-1-[(2-chloro-6-fluorophenyl)methyl]-6-oxo-1,6-dihydropyridine-3-carboxamide

> <CAS>
900009-78-1

> <PriceCoeff>
1.00

> <MW>
436.22

> <Description>
solid

> <FSP3>
0.05

> <clogP>
4.20

> <TPSA>
92.55

> <Acceptor>
4

> <Donor>
1

> <RotBonds>
5

> <HAC>
29

> <Collection>
General

$$$$
F1359-1236
  -ISIS-  06222321142D

 33 36  0  0  0  0  0  0  0  0999 V2000
   -1.1625    2.3833    0.0000 C   0  0  0  0  0  0  0  0  0  0  0  0
   -0.3375    2.3750    0.0000 N   0  0  0  0  0  0  0  0  0  0  0  0
   -4.5833    3.2125    0.0000 S   0  0  3  0  0  0  0  0  0  0  0  0
   -1.6458    1.7208    0.0000 N   0  0  3  0  0  0  0  0  0  0  0  0
    3.3792    3.0708    0.0000 N   0  0  3  0  0  0  0  0  0  0  0  0
   -1.6458    3.0500    0.0000 S   0  0  0  0  0  0  0  0  0  0  0  0
   -2.4333    2.7958    0.0000 C   0  0  0  0  0  0  0  0  0  0  0  0
   -2.4333    1.9708    0.0000 C   0  0  0  0  0  0  0  0  0  0  0  0
    0.0750    3.0875    0.0000 C   0  0  0  0  0  0  0  0  0  0  0  0
    3.8500    3.7583    0.0000 C   0  0  0  0  0  0  0  0  0  0  0  0
    3.8917    2.4250    0.0000 C   0  0  0  0  0  0  0  0  0  0  0  0
   -3.8583    2.7958    0.0000 C   0  0  0  0  0  0  0  0  0  0  0  0
   -3.1458    3.2083    0.0000 C   0  0  0  0  0  0  0  0  0  0  0  0
    2.5542    3.0833    0.0000 C   0  0  0  0  0  0  0  0  0  0  0  0
   -3.1458    1.5583    0.0000 C   0  0  0  0  0  0  0  0  0  0  0  0
   -4.1458    3.9083    0.0000 O   0  0  0  0  0  0  0  0  0  0  0  0
   -5.0208    2.5083    0.0000 O   0  0  0  0  0  0  0  0  0  0  0  0
    0.9000    3.0875    0.0000 C   0  0  0  0  0  0  0  0  0  0  0  0
   -5.2833    3.6458    0.0000 N   0  0  0  0  0  0  0  0  0  0  0  0
   -0.3375    3.8000    0.0000 O   0  0  0  0  0  0  0  0  0  0  0  0
   -3.8583    1.9708    0.0000 C   0  0  0  0  0  0  0  0  0  0  0  0
    4.6417    3.5250    0.0000 C   0  0  0  0  0  0  0  0  0  0  0  0
    4.6667    2.7083    0.0000 C   0  0  0  0  0  0  0  0  0  0  0  0
    3.5667    4.5417    0.0000 O   0  0  0  0  0  0  0  0  0  0  0  0
    3.6667    1.6333    0.0000 O   0  0  0  0  0  0  0  0  0  0  0  0
    2.1417    3.8000    0.0000 C   0  0  0  0  0  0  0  0  0  0  0  0
    2.1292    2.3708    0.0000 C   0  0  0  0  0  0  0  0  0  0  0  0
    1.3125    2.3833    0.0000 C   0  0  0  0  0  0  0  0  0  0  0  0
    1.3250    3.8083    0.0000 C   0  0  0  0  0  0  0  0  0  0  0  0
   -1.3958    0.9333    0.0000 C   0  0  0  0  0  0  0  0  0  0  0  0
   -2.7500    0.4875    0.0000 O   0  0  0  0  0  0  0  0  0  0  0  0
   -1.9458    0.3208    0.0000 C   0  0  0  0  0  0  0  0  0  0  0  0
   -3.3083   -0.1250    0.0000 C   0  0  0  0  0  0  0  0  0  0  0  0
  2  1  2  0  0  0  0
  3 12  1  0  0  0  0
  4  1  1  0  0  0  0
  5 14  1  0  0  0  0
  6  1  1  0  0  0  0
  7  6  1  0  0  0  0
  8  4  1  0  0  0  0
  9  2  1  0  0  0  0
 10  5  1  0  0  0  0
 11  5  1  0  0  0  0
 12 13  2  0  0  0  0
 13  7  1  0  0  0  0
 14 26  1  0  0  0  0
 15  8  1  0  0  0  0
 16  3  2  0  0  0  0
 17  3  2  0  0  0  0
 18  9  1  0  0  0  0
 19  3  1  0  0  0  0
 20  9  2  0  0  0  0
 21 15  2  0  0  0  0
 22 10  1  0  0  0  0
 23 11  1  0  0  0  0
 24 10  2  0  0  0  0
 25 11  2  0  0  0  0
 26 29  2  0  0  0  0
 27 28  1  0  0  0  0
 28 18  2  0  0  0  0
 29 18  1  0  0  0  0
 30  4  1  0  0  0  0
 31 32  1  0  0  0  0
 32 30  1  0  0  0  0
 33 31  1  0  0  0  0
  8  7  2  0  0  0  0
 21 12  1  0  0  0  0
 14 27  2  0  0  0  0
 22 23  1  0  0  0  0
M  END
> <IDNUMBER>
F1359-1236

> <Chemical_Name>
4-(2,5-dioxopyrrolidin-1-yl)-N-[(2Z)-3-(2-methoxyethyl)-6-sulfamoyl-2,3-dihydro-1,3-benzothiazol-2-ylidene]benzamide

> <CAS>
865159-95-1

> <PriceCoeff>
1.00

> <MW>
488.54

> <Description>
solid

> <FSP3>
0.24

> <clogP>
0.78

> <TPSA>
173.12

> <Acceptor>
6

> <Donor>
1

> <RotBonds>
7

> <HAC>
33

> <Collection>
General

$$$$
F3385-4196
  -ISIS-  06222321462D

 22 24  0  0  0  0  0  0  0  0999 V2000
    4.3042   -1.8917    0.0000 C   0  0  0  0  0  0  0  0  0  0  0  0
    3.5792   -2.3042    0.0000 C   0  0  0  0  0  0  0  0  0  0  0  0
    2.8625   -1.8917    0.0000 C   0  0  0  0  0  0  0  0  0  0  0  0
    4.3042   -1.0625    0.0000 C   0  0  0  0  0  0  0  0  0  0  0  0
    2.8667   -1.0625    0.0000 C   0  0  0  0  0  0  0  0  0  0  0  0
    3.5792   -0.6417    0.0000 O   0  0  0  0  0  0  0  0  0  0  0  0
    5.0125   -2.3125    0.0000 C   0  0  0  0  0  0  0  0  0  0  0  0
    2.1500   -2.3042    0.0000 C   0  0  0  0  0  0  0  0  0  0  0  0
    2.1500   -0.6500    0.0000 C   0  0  0  0  0  0  0  0  0  0  0  0
    3.5792   -3.1292    0.0000 O   0  0  0  0  0  0  0  0  0  0  0  0
    5.7250   -1.9000    0.0000 C   0  0  0  0  0  0  0  0  0  0  0  0
    5.0042   -3.1375    0.0000 C   0  0  0  0  0  0  0  0  0  0  0  0
    1.4375   -1.0625    0.0000 C   0  0  0  0  0  0  0  0  0  0  0  0
    1.4375   -1.8917    0.0000 C   0  0  0  0  0  0  0  0  0  0  0  0
    6.4375   -3.1417    0.0000 C   0  0  0  0  0  0  0  0  0  0  0  0
    5.7167   -3.5500    0.0000 C   0  0  0  0  0  0  0  0  0  0  0  0
    6.4375   -2.3125    0.0000 C   0  0  0  0  0  0  0  0  0  0  0  0
    7.1500   -3.5542    0.0000 Br  0  0  0  0  0  0  0  0  0  0  0  0
   -1.4208   -1.0667    0.0000 Br  0  0  0  0  0  0  0  0  0  0  0  0
    0.7250   -0.6500    0.0000 O   0  0  0  0  0  0  0  0  0  0  0  0
   -0.7083   -0.6542    0.0000 C   0  0  0  0  0  0  0  0  0  0  0  0
    0.0042   -1.0667    0.0000 C   0  0  0  0  0  0  0  0  0  0  0  0
  2  1  1  0  0  0  0
  3  2  1  0  0  0  0
  4  1  2  0  0  0  0
  5  6  1  0  0  0  0
  6  4  1  0  0  0  0
  7  1  1  0  0  0  0
  8  3  2  0  0  0  0
  9  5  2  0  0  0  0
 10  2  2  0  0  0  0
 11  7  1  0  0  0  0
 12  7  2  0  0  0  0
 13  9  1  0  0  0  0
 14  8  1  0  0  0  0
 15 16  2  0  0  0  0
 16 12  1  0  0  0  0
 17 11  2  0  0  0  0
 18 15  1  0  0  0  0
 19 21  1  0  0  0  0
 20 13  1  0  0  0  0
 21 22  1  0  0  0  0
 22 20  1  0  0  0  0
 15 17  1  0  0  0  0
  3  5  1  0  0  0  0
 14 13  2  0  0  0  0
M  END
> <IDNUMBER>
F3385-4196

> <Chemical_Name>
7-(2-bromoethoxy)-3-(4-bromophenyl)-4H-chromen-4-one

> <CAS>
903206-63-3

> <PriceCoeff>
1.00

> <MW>
424.08

> <Description>
solid

> <FSP3>
0.12

> <clogP>
4.68

> <TPSA>
35.53

> <Acceptor>
3

> <Donor>
0

> <RotBonds>
4

> <HAC>
22

> <Collection>
General

> <Reference_compound>
CHEMBL44

> <Similarity>
0.8150

$$$$
F1365-0594
  -ISIS-  06222321142D

 29 32  0  0  0  0  0  0  0  0999 V2000
   -1.1625    2.3833    0.0000 C   0  0  0  0  0  0  0  0  0  0  0  0
   -0.3375    2.3750    0.0000 N   0  0  0  0  0  0  0  0  0  0  0  0
    2.5542    1.6500    0.0000 N   0  0  3  0  0  0  0  0  0  0  0  0
   -1.6458    1.7208    0.0000 N   0  0  3  0  0  0  0  0  0  0  0  0
   -1.6458    3.0500    0.0000 S   0  0  0  0  0  0  0  0  0  0  0  0
   -2.4333    2.7958    0.0000 C   0  0  0  0  0  0  0  0  0  0  0  0
   -2.4333    1.9708    0.0000 C   0  0  0  0  0  0  0  0  0  0  0  0
    0.0750    3.0875    0.0000 C   0  0  0  0  0  0  0  0  0  0  0  0
    2.1292    2.3708    0.0000 C   0  0  0  0  0  0  0  0  0  0  0  0
    3.3667    1.5333    0.0000 C   0  0  0  0  0  0  0  0  0  0  0  0
    2.1750    0.9125    0.0000 C   0  0  0  0  0  0  0  0  0  0  0  0
    1.3125    2.3750    0.0000 C   0  0  0  0  0  0  0  0  0  0  0  0
    0.9000    3.0875    0.0000 C   0  0  0  0  0  0  0  0  0  0  0  0
   -3.1458    3.2083    0.0000 C   0  0  0  0  0  0  0  0  0  0  0  0
   -3.1458    1.5583    0.0000 C   0  0  0  0  0  0  0  0  0  0  0  0
   -0.3375    3.8000    0.0000 O   0  0  0  0  0  0  0  0  0  0  0  0
    3.5042    0.7125    0.0000 C   0  0  0  0  0  0  0  0  0  0  0  0
    2.7792    0.3250    0.0000 C   0  0  0  0  0  0  0  0  0  0  0  0
    3.9500    2.1083    0.0000 O   0  0  0  0  0  0  0  0  0  0  0  0
    1.3667    0.7833    0.0000 O   0  0  0  0  0  0  0  0  0  0  0  0
   -1.9458    0.3208    0.0000 C   0  0  0  0  0  0  0  0  0  0  0  0
   -1.3958    0.9333    0.0000 C   0  0  0  0  0  0  0  0  0  0  0  0
   -3.8583    2.7958    0.0000 C   0  0  0  0  0  0  0  0  0  0  0  0
   -2.7500    0.4875    0.0000 C   0  0  0  0  0  0  0  0  0  0  0  0
   -3.8583    1.9708    0.0000 C   0  0  0  0  0  0  0  0  0  0  0  0
   -4.5833    3.2125    0.0000 Cl  0  0  0  0  0  0  0  0  0  0  0  0
    2.5542    3.0833    0.0000 C   0  0  0  0  0  0  0  0  0  0  0  0
    1.3167    3.8083    0.0000 C   0  0  0  0  0  0  0  0  0  0  0  0
    2.1417    3.8000    0.0000 C   0  0  0  0  0  0  0  0  0  0  0  0
  2  1  2  0  0  0  0
  3  9  1  0  0  0  0
  4  1  1  0  0  0  0
  5  1  1  0  0  0  0
  6  5  1  0  0  0  0
  7  4  1  0  0  0  0
  8  2  1  0  0  0  0
  9 12  1  0  0  0  0
 10  3  1  0  0  0  0
 11  3  1  0  0  0  0
 12 13  2  0  0  0  0
 13  8  1  0  0  0  0
 14  6  1  0  0  0  0
 15  7  1  0  0  0  0
 16  8  2  0  0  0  0
 17 10  1  0  0  0  0
 18 11  1  0  0  0  0
 19 10  2  0  0  0  0
 20 11  2  0  0  0  0
 21 22  1  0  0  0  0
 22  4  1  0  0  0  0
 23 14  2  0  0  0  0
 24 21  2  0  0  0  0
 25 15  2  0  0  0  0
 26 23  1  0  0  0  0
 27 29  1  0  0  0  0
 28 13  1  0  0  0  0
 29 28  2  0  0  0  0
  7  6  2  0  0  0  0
 25 23  1  0  0  0  0
  9 27  2  0  0  0  0
 17 18  1  0  0  0  0
M  END
> <IDNUMBER>
F1365-0594

> <Chemical_Name>
N-[(2Z)-6-chloro-3-(prop-2-en-1-yl)-2,3-dihydro-1,3-benzothiazol-2-ylidene]-3-(2,5-dioxopyrrolidin-1-yl)benzamide

> <CAS>
941871-49-4

> <PriceCoeff>
1.00

> <MW>
425.89

> <Description>
solid

> <FSP3>
0.14

> <clogP>
4.44

> <TPSA>
95.35

> <Acceptor>
3

> <Donor>
0

> <RotBonds>
5

> <HAC>
29

> <Collection>
General

$$$$
F0589-0344
  -ISIS-  06222321452D

 27 30  0  0  0  0  0  0  0  0999 V2000
   -2.3708    2.3375    0.0000 C   0  0  0  0  0  0  0  0  0  0  0  0
   -1.8833    3.0083    0.0000 C   0  0  0  0  0  0  0  0  0  0  0  0
   -3.1583    2.5958    0.0000 N   0  0  3  0  0  0  0  0  0  0  0  0
   -2.3708    3.6833    0.0000 N   0  0  0  0  0  0  0  0  0  0  0  0
   -3.1583    3.4208    0.0000 C   0  0  0  0  0  0  0  0  0  0  0  0
   -2.1083    1.5500    0.0000 N   0  0  0  0  0  0  0  0  0  0  0  0
   -3.5750   -1.7375    0.0000 N   0  3  0  0  0  0  0  0  0  0  0  0
   -2.9625   -1.2000    0.0000 C   0  0  0  0  0  0  0  0  0  0  0  0
   -2.6625    0.9375    0.0000 C   0  0  0  0  0  0  0  0  0  0  0  0
   -1.0625    3.0083    0.0000 C   0  0  0  0  0  0  0  0  0  0  0  0
   -3.1083   -0.4042    0.0000 C   0  0  0  0  0  0  0  0  0  0  0  0
   -2.5000    0.1375    0.0000 C   0  0  0  0  0  0  0  0  0  0  0  0
   -0.5833    2.3458    0.0000 S   0  0  0  0  0  0  0  0  0  0  0  0
   -3.8708    2.1833    0.0000 C   0  0  0  0  0  0  0  0  0  0  0  0
   -2.1875   -1.4667    0.0000 C   0  0  0  0  0  0  0  0  0  0  0  0
   -3.4208   -2.5417    0.0000 O   0  5  0  0  0  0  0  0  0  0  0  0
   -3.8708    3.8333    0.0000 C   0  0  0  0  0  0  0  0  0  0  0  0
   -4.3500   -1.4542    0.0000 O   0  0  0  0  0  0  0  0  0  0  0  0
   -0.5958    3.6708    0.0000 C   0  0  0  0  0  0  0  0  0  0  0  0
   -3.3000    1.2333    0.0000 O   0  0  0  0  0  0  0  0  0  0  0  0
    0.2167    2.6458    0.0000 C   0  0  0  0  0  0  0  0  0  0  0  0
   -1.7208   -0.1292    0.0000 C   0  0  0  0  0  0  0  0  0  0  0  0
   -4.5833    2.5958    0.0000 C   0  0  0  0  0  0  0  0  0  0  0  0
   -4.5833    3.4208    0.0000 C   0  0  0  0  0  0  0  0  0  0  0  0
    0.1875    3.4375    0.0000 C   0  0  0  0  0  0  0  0  0  0  0  0
   -1.5625   -0.9167    0.0000 C   0  0  0  0  0  0  0  0  0  0  0  0
   -2.0375   -2.2792    0.0000 Cl  0  0  0  0  0  0  0  0  0  0  0  0
  2  1  2  0  0  0  0
  3  1  1  0  0  0  0
  4  2  1  0  0  0  0
  5  3  1  0  0  0  0
  6  1  1  0  0  0  0
  7  8  1  0  0  0  0
  8 11  1  0  0  0  0
  9  6  1  0  0  0  0
 10  2  1  0  0  0  0
 11 12  2  0  0  0  0
 12  9  1  0  0  0  0
 13 10  1  0  0  0  0
 14  3  1  0  0  0  0
 15 26  1  0  0  0  0
 16  7  1  0  0  0  0
 17  5  1  0  0  0  0
 18  7  2  0  0  0  0
 19 10  2  0  0  0  0
 20  9  2  0  0  0  0
 21 13  1  0  0  0  0
 22 12  1  0  0  0  0
 23 14  2  0  0  0  0
 24 23  1  0  0  0  0
 25 19  1  0  0  0  0
 26 22  2  0  0  0  0
 27 15  1  0  0  0  0
  5  4  2  0  0  0  0
 24 17  2  0  0  0  0
 25 21  2  0  0  0  0
  8 15  2  0  0  0  0
M  CHG  2   7   1  16  -1
M  END
> <IDNUMBER>
F0589-0344

> <Chemical_Name>
4-chloro-3-nitro-N-[2-(thiophen-2-yl)imidazo[1,2-a]pyridin-3-yl]benzamide

> <CAS>
850930-66-4

> <PriceCoeff>
1.00

> <MW>
398.82

> <Description>
solid

> <FSP3>
0.00

> <clogP>
4.10

> <TPSA>
117.78

> <Acceptor>
4

> <Donor>
1

> <RotBonds>
4

> <HAC>
27

> <Collection>
General

$$$$
F1359-1104
  -ISIS-  06222321452D

 33 36  0  0  0  0  0  0  0  0999 V2000
   -1.1625    2.3833    0.0000 C   0  0  0  0  0  0  0  0  0  0  0  0
   -0.3375    2.3750    0.0000 N   0  0  0  0  0  0  0  0  0  0  0  0
   -1.6458    1.7208    0.0000 N   0  0  3  0  0  0  0  0  0  0  0  0
    3.3792    3.0708    0.0000 N   0  0  3  0  0  0  0  0  0  0  0  0
   -1.6458    3.0500    0.0000 S   0  0  0  0  0  0  0  0  0  0  0  0
   -4.5833    3.2125    0.0000 S   0  0  3  0  0  0  0  0  0  0  0  0
   -2.4333    2.7958    0.0000 C   0  0  0  0  0  0  0  0  0  0  0  0
   -2.4333    1.9708    0.0000 C   0  0  0  0  0  0  0  0  0  0  0  0
    0.0750    3.0875    0.0000 C   0  0  0  0  0  0  0  0  0  0  0  0
    3.8500    3.7583    0.0000 C   0  0  0  0  0  0  0  0  0  0  0  0
    3.8917    2.4250    0.0000 C   0  0  0  0  0  0  0  0  0  0  0  0
   -3.8583    2.7958    0.0000 C   0  0  0  0  0  0  0  0  0  0  0  0
   -3.1458    3.2083    0.0000 C   0  0  0  0  0  0  0  0  0  0  0  0
    2.5542    3.0833    0.0000 C   0  0  0  0  0  0  0  0  0  0  0  0
   -3.1458    1.5583    0.0000 C   0  0  0  0  0  0  0  0  0  0  0  0
    0.9000    3.0875    0.0000 C   0  0  0  0  0  0  0  0  0  0  0  0
   -5.0208    2.5083    0.0000 O   0  0  0  0  0  0  0  0  0  0  0  0
   -4.1458    3.9083    0.0000 O   0  0  0  0  0  0  0  0  0  0  0  0
   -0.3375    3.8000    0.0000 O   0  0  0  0  0  0  0  0  0  0  0  0
    4.6417    3.5250    0.0000 C   0  0  0  0  0  0  0  0  0  0  0  0
    4.6667    2.7083    0.0000 C   0  0  0  0  0  0  0  0  0  0  0  0
   -3.8583    1.9708    0.0000 C   0  0  0  0  0  0  0  0  0  0  0  0
    3.5667    4.5417    0.0000 O   0  0  0  0  0  0  0  0  0  0  0  0
    3.6667    1.6333    0.0000 O   0  0  0  0  0  0  0  0  0  0  0  0
    2.1417    3.8000    0.0000 C   0  0  0  0  0  0  0  0  0  0  0  0
    2.1292    2.3708    0.0000 C   0  0  0  0  0  0  0  0  0  0  0  0
    1.3125    2.3833    0.0000 C   0  0  0  0  0  0  0  0  0  0  0  0
    1.3250    3.8083    0.0000 C   0  0  0  0  0  0  0  0  0  0  0  0
   -1.3958    0.9333    0.0000 C   0  0  0  0  0  0  0  0  0  0  0  0
   -5.2833    3.6458    0.0000 C   0  0  0  0  0  0  0  0  0  0  0  0
   -2.7500    0.4875    0.0000 O   0  0  0  0  0  0  0  0  0  0  0  0
   -1.9458    0.3208    0.0000 C   0  0  0  0  0  0  0  0  0  0  0  0
   -3.3083   -0.1250    0.0000 C   0  0  0  0  0  0  0  0  0  0  0  0
  2  1  2  0  0  0  0
  3  1  1  0  0  0  0
  4 14  1  0  0  0  0
  5  1  1  0  0  0  0
  6 12  1  0  0  0  0
  7  5  1  0  0  0  0
  8  3  1  0  0  0  0
  9  2  1  0  0  0  0
 10  4  1  0  0  0  0
 11  4  1  0  0  0  0
 12 13  2  0  0  0  0
 13  7  1  0  0  0  0
 14 25  1  0  0  0  0
 15  8  1  0  0  0  0
 16  9  1  0  0  0  0
 17  6  2  0  0  0  0
 18  6  2  0  0  0  0
 19  9  2  0  0  0  0
 20 10  1  0  0  0  0
 21 11  1  0  0  0  0
 22 15  2  0  0  0  0
 23 10  2  0  0  0  0
 24 11  2  0  0  0  0
 25 28  2  0  0  0  0
 26 27  1  0  0  0  0
 27 16  2  0  0  0  0
 28 16  1  0  0  0  0
 29  3  1  0  0  0  0
 30  6  1  0  0  0  0
 31 32  1  0  0  0  0
 32 29  1  0  0  0  0
 33 31  1  0  0  0  0
  8  7  2  0  0  0  0
 22 12  1  0  0  0  0
 14 26  2  0  0  0  0
 20 21  1  0  0  0  0
M  END
> <IDNUMBER>
F1359-1104

> <Chemical_Name>
4-(2,5-dioxopyrrolidin-1-yl)-N-[(2Z)-6-methanesulfonyl-3-(2-methoxyethyl)-2,3-dihydro-1,3-benzothiazol-2-ylidene]benzamide

> <CAS>
864977-14-0

> <PriceCoeff>
1.00

> <MW>
487.55

> <Description>
solid

> <FSP3>
0.27

> <clogP>
0.98

> <TPSA>
147.10

> <Acceptor>
6

> <Donor>
0

> <RotBonds>
7

> <HAC>
33

> <Collection>
General

$$$$
F1366-1386
  -ISIS-  06222321142D

 34 37  0  0  0  0  0  0  0  0999 V2000
   -1.1625    2.3833    0.0000 C   0  0  0  0  0  0  0  0  0  0  0  0
   -1.6458    1.7208    0.0000 N   0  0  3  0  0  0  0  0  0  0  0  0
   -0.3375    2.3750    0.0000 N   0  0  0  0  0  0  0  0  0  0  0  0
    2.5042    1.6708    0.0000 N   0  0  3  0  0  0  0  0  0  0  0  0
   -1.6458    3.0500    0.0000 S   0  0  0  0  0  0  0  0  0  0  0  0
   -2.4333    2.7958    0.0000 C   0  0  0  0  0  0  0  0  0  0  0  0
   -2.4333    1.9708    0.0000 C   0  0  0  0  0  0  0  0  0  0  0  0
    0.0750    3.0875    0.0000 C   0  0  0  0  0  0  0  0  0  0  0  0
    2.1042    2.3833    0.0000 C   0  0  0  0  0  0  0  0  0  0  0  0
    3.3167    1.5500    0.0000 C   0  0  0  0  0  0  0  0  0  0  0  0
    2.1417    0.9458    0.0000 C   0  0  0  0  0  0  0  0  0  0  0  0
   -3.1458    3.2083    0.0000 C   0  0  0  0  0  0  0  0  0  0  0  0
   -1.7625    0.9083    0.0000 C   0  0  0  0  0  0  0  0  0  0  0  0
    1.2917    2.3833    0.0000 C   0  0  0  0  0  0  0  0  0  0  0  0
    0.8875    3.0875    0.0000 C   0  0  0  0  0  0  0  0  0  0  0  0
   -3.1458    1.5583    0.0000 C   0  0  0  0  0  0  0  0  0  0  0  0
   -2.5208    0.6083    0.0000 C   0  0  0  0  0  0  0  0  0  0  0  0
   -5.2708    2.8000    0.0000 C   0  0  0  0  0  0  0  0  0  0  0  0
   -4.5625    3.2083    0.0000 N   0  0  0  0  0  0  0  0  0  0  0  0
   -3.8583    2.7958    0.0000 C   0  0  0  0  0  0  0  0  0  0  0  0
   -0.3375    3.8000    0.0000 O   0  0  0  0  0  0  0  0  0  0  0  0
    3.4542    0.7458    0.0000 C   0  0  0  0  0  0  0  0  0  0  0  0
    2.7417    0.3708    0.0000 C   0  0  0  0  0  0  0  0  0  0  0  0
    3.8917    2.1208    0.0000 O   0  0  0  0  0  0  0  0  0  0  0  0
    1.3417    0.8125    0.0000 O   0  0  0  0  0  0  0  0  0  0  0  0
   -2.6333   -0.2000    0.0000 O   0  0  0  0  0  0  0  0  0  0  0  0
   -5.9708    3.2083    0.0000 O   0  0  0  0  0  0  0  0  0  0  0  0
   -3.8583    1.9708    0.0000 C   0  0  0  0  0  0  0  0  0  0  0  0
   -3.1583    1.1083    0.0000 O   0  0  0  0  0  0  0  0  0  0  0  0
    2.5167    3.0833    0.0000 C   0  0  0  0  0  0  0  0  0  0  0  0
    1.3000    3.7958    0.0000 C   0  0  0  0  0  0  0  0  0  0  0  0
    2.1125    3.7958    0.0000 C   0  0  0  0  0  0  0  0  0  0  0  0
   -5.2708    1.9958    0.0000 C   0  0  0  0  0  0  0  0  0  0  0  0
   -3.9125    0.8083    0.0000 C   0  0  0  0  0  0  0  0  0  0  0  0
  2  1  1  0  0  0  0
  3  1  2  0  0  0  0
  4  9  1  0  0  0  0
  5  1  1  0  0  0  0
  6  5  1  0  0  0  0
  7  2  1  0  0  0  0
  8  3  1  0  0  0  0
  9 14  1  0  0  0  0
 10  4  1  0  0  0  0
 11  4  1  0  0  0  0
 12  6  1  0  0  0  0
 13  2  1  0  0  0  0
 14 15  2  0  0  0  0
 15  8  1  0  0  0  0
 16  7  1  0  0  0  0
 17 13  1  0  0  0  0
 18 19  1  0  0  0  0
 19 20  1  0  0  0  0
 20 12  2  0  0  0  0
 21  8  2  0  0  0  0
 22 10  1  0  0  0  0
 23 11  1  0  0  0  0
 24 10  2  0  0  0  0
 25 11  2  0  0  0  0
 26 17  2  0  0  0  0
 27 18  2  0  0  0  0
 28 16  2  0  0  0  0
 29 17  1  0  0  0  0
 30 32  1  0  0  0  0
 31 15  1  0  0  0  0
 32 31  2  0  0  0  0
 33 18  1  0  0  0  0
 34 29  1  0  0  0  0
  6  7  2  0  0  0  0
 20 28  1  0  0  0  0
 30  9  2  0  0  0  0
 23 22  1  0  0  0  0
M  END
> <IDNUMBER>
F1366-1386

> <Chemical_Name>
methyl 2-[(2Z)-2-{[3-(2,5-dioxopyrrolidin-1-yl)benzoyl]imino}-6-acetamido-2,3-dihydro-1,3-benzothiazol-3-yl]acetate

> <CAS>
941917-37-9

> <PriceCoeff>
1.00

> <MW>
480.49

> <Description>
solid

> <FSP3>
0.22

> <clogP>
1.53

> <TPSA>
150.75

> <Acceptor>
6

> <Donor>
1

> <RotBonds>
7

> <HAC>
34

> <Collection>
General

$$$$
F2865-0536
  -ISIS-  06222321442D

 34 38  0  0  0  0  0  0  0  0999 V2000
   -3.9833   -1.5042    0.0000 N   0  0  3  0  0  0  0  0  0  0  0  0
   -4.4583   -0.8292    0.0000 N   0  0  0  0  0  0  0  0  0  0  0  0
   -3.1833   -0.4292    0.0000 C   0  0  0  0  0  0  0  0  0  0  0  0
   -3.1958   -1.2542    0.0000 C   0  0  0  0  0  0  0  0  0  0  0  0
   -3.9708   -0.1667    0.0000 N   0  0  0  0  0  0  0  0  0  0  0  0
    0.3792    3.2833    0.0000 N   0  3  0  0  0  0  0  0  0  0  0  0
   -2.4750   -0.0125    0.0000 C   0  0  0  0  0  0  0  0  0  0  0  0
   -0.3333    3.6958    0.0000 C   0  0  0  0  0  0  0  0  0  0  0  0
   -2.4875    3.2833    0.0000 C   0  0  0  0  0  0  0  0  0  0  0  0
   -2.4833    0.8083    0.0000 N   0  0  3  0  0  0  0  0  0  0  0  0
   -2.4833    2.4583    0.0000 N   0  0  3  0  0  0  0  0  0  0  0  0
   -1.0583    3.2833    0.0000 C   0  0  0  0  0  0  0  0  0  0  0  0
   -4.2375   -2.2875    0.0000 C   0  0  0  0  0  0  0  0  0  0  0  0
   -2.4750   -1.6667    0.0000 N   0  0  0  0  0  0  0  0  0  0  0  0
   -1.7708    3.6958    0.0000 C   0  0  0  0  0  0  0  0  0  0  0  0
   -1.7583   -0.4250    0.0000 N   0  0  0  0  0  0  0  0  0  0  0  0
   -0.3458    4.5292    0.0000 C   0  0  0  0  0  0  0  0  0  0  0  0
   -5.0458   -2.4542    0.0000 C   0  0  0  0  0  0  0  0  0  0  0  0
   -1.7583   -1.2542    0.0000 C   0  0  0  0  0  0  0  0  0  0  0  0
    0.3792    2.4583    0.0000 O   0  5  0  0  0  0  0  0  0  0  0  0
    1.0917    3.6958    0.0000 O   0  0  0  0  0  0  0  0  0  0  0  0
   -1.7708    1.2208    0.0000 C   0  0  0  0  0  0  0  0  0  0  0  0
   -3.2000    1.2125    0.0000 C   0  0  0  0  0  0  0  0  0  0  0  0
   -3.2000    2.0458    0.0000 C   0  0  0  0  0  0  0  0  0  0  0  0
   -1.7708    2.0458    0.0000 C   0  0  0  0  0  0  0  0  0  0  0  0
   -3.2000    3.6958    0.0000 O   0  0  0  0  0  0  0  0  0  0  0  0
   -1.7833    4.5167    0.0000 C   0  0  0  0  0  0  0  0  0  0  0  0
   -1.0625    4.9375    0.0000 C   0  0  0  0  0  0  0  0  0  0  0  0
   -5.3083   -3.2292    0.0000 C   0  0  0  0  0  0  0  0  0  0  0  0
    0.3667    4.9375    0.0000 Cl  0  0  0  0  0  0  0  0  0  0  0  0
   -6.1042   -3.3917    0.0000 F   0  0  0  0  0  0  0  0  0  0  0  0
   -3.6875   -2.9042    0.0000 C   0  0  0  0  0  0  0  0  0  0  0  0
   -3.9583   -3.6917    0.0000 C   0  0  0  0  0  0  0  0  0  0  0  0
   -4.7708   -3.8542    0.0000 C   0  0  0  0  0  0  0  0  0  0  0  0
  2  1  1  0  0  0  0
  3  4  2  0  0  0  0
  4  1  1  0  0  0  0
  5  2  2  0  0  0  0
  6  8  1  0  0  0  0
  7  3  1  0  0  0  0
  8 12  2  0  0  0  0
  9 11  1  0  0  0  0
 10  7  1  0  0  0  0
 11 24  1  0  0  0  0
 12 15  1  0  0  0  0
 13  1  1  0  0  0  0
 14  4  1  0  0  0  0
 15  9  1  0  0  0  0
 16 19  1  0  0  0  0
 17 28  2  0  0  0  0
 18 13  2  0  0  0  0
 19 14  2  0  0  0  0
 20  6  1  0  0  0  0
 21  6  2  0  0  0  0
 22 10  1  0  0  0  0
 23 10  1  0  0  0  0
 24 23  1  0  0  0  0
 25 22  1  0  0  0  0
 26  9  2  0  0  0  0
 27 15  2  0  0  0  0
 28 27  1  0  0  0  0
 29 18  1  0  0  0  0
 30 17  1  0  0  0  0
 31 29  1  0  0  0  0
 32 13  1  0  0  0  0
 33 32  2  0  0  0  0
 34 33  1  0  0  0  0
  5  3  1  0  0  0  0
 34 29  2  0  0  0  0
  7 16  2  0  0  0  0
 11 25  1  0  0  0  0
  8 17  1  0  0  0  0
M  CHG  2   6   1  20  -1
M  END
> <IDNUMBER>
F2865-0536

> <Chemical_Name>
1-(4-chloro-3-nitrobenzoyl)-4-[3-(3-fluorophenyl)-3H-[1,2,3]triazolo[4,5-d]pyrimidin-7-yl]piperazine

> <CAS>
941887-62-3

> <PriceCoeff>
1.00

> <MW>
482.85

> <Description>
solid

> <FSP3>
0.19

> <clogP>
3.47

> <TPSA>
123.18

> <Acceptor>
7

> <Donor>
1

> <RotBonds>
5

> <HAC>
34

> <Collection>
General

$$$$
F1815-0524
  -ISIS-  06222321452D

 31 34  0  0  0  0  0  0  0  0999 V2000
   -4.5958    2.5625    0.0000 C   0  0  0  0  0  0  0  0  0  0  0  0
   -3.8625    2.9833    0.0000 N   0  0  0  0  0  0  0  0  0  0  0  0
   -4.6875    1.7458    0.0000 N   0  0  3  0  0  0  0  0  0  0  0  0
   -1.0083    5.4292    0.0000 N   0  0  3  0  0  0  0  0  0  0  0  0
   -5.3208    2.9000    0.0000 S   0  0  0  0  0  0  0  0  0  0  0  0
   -5.4833    1.5875    0.0000 C   0  0  0  0  0  0  0  0  0  0  0  0
   -5.8833    2.3083    0.0000 C   0  0  0  0  0  0  0  0  0  0  0  0
   -3.8708    3.8000    0.0000 C   0  0  0  0  0  0  0  0  0  0  0  0
   -0.2500    5.1292    0.0000 C   0  0  0  0  0  0  0  0  0  0  0  0
   -0.9583    6.2542    0.0000 C   0  0  0  0  0  0  0  0  0  0  0  0
   -1.7250    5.0250    0.0000 C   0  0  0  0  0  0  0  0  0  0  0  0
   -3.1583    4.2042    0.0000 C   0  0  0  0  0  0  0  0  0  0  0  0
   -5.9083    0.8833    0.0000 C   0  0  0  0  0  0  0  0  0  0  0  0
   -4.5833    4.2167    0.0000 O   0  0  0  0  0  0  0  0  0  0  0  0
    0.2750    5.7625    0.0000 C   0  0  0  0  0  0  0  0  0  0  0  0
   -0.1500    6.4542    0.0000 C   0  0  0  0  0  0  0  0  0  0  0  0
   -0.0458    4.3292    0.0000 O   0  0  0  0  0  0  0  0  0  0  0  0
   -1.5958    6.8042    0.0000 O   0  0  0  0  0  0  0  0  0  0  0  0
   -1.7375    4.2042    0.0000 C   0  0  0  0  0  0  0  0  0  0  0  0
   -2.4458    5.4417    0.0000 C   0  0  0  0  0  0  0  0  0  0  0  0
   -3.1583    5.0292    0.0000 C   0  0  0  0  0  0  0  0  0  0  0  0
   -2.4500    3.8083    0.0000 C   0  0  0  0  0  0  0  0  0  0  0  0
   -4.0708    1.1708    0.0000 C   0  0  0  0  0  0  0  0  0  0  0  0
   -4.2583    0.3708    0.0000 C   0  0  0  0  0  0  0  0  0  0  0  0
   -3.6500   -0.2000    0.0000 C   0  0  0  0  0  0  0  0  0  0  0  0
   -6.7000    2.3333    0.0000 C   0  0  0  0  0  0  0  0  0  0  0  0
   -5.5208    0.1583    0.0000 O   0  0  0  0  0  0  0  0  0  0  0  0
   -7.1292    1.6208    0.0000 C   0  0  0  0  0  0  0  0  0  0  0  0
   -6.7167    0.9000    0.0000 C   0  0  0  0  0  0  0  0  0  0  0  0
   -5.9458   -0.5417    0.0000 C   0  0  0  0  0  0  0  0  0  0  0  0
   -5.5708   -1.2542    0.0000 C   0  0  0  0  0  0  0  0  0  0  0  0
  2  1  2  0  0  0  0
  3  1  1  0  0  0  0
  4 11  1  0  0  0  0
  5  1  1  0  0  0  0
  6  3  1  0  0  0  0
  7  5  1  0  0  0  0
  8  2  1  0  0  0  0
  9  4  1  0  0  0  0
 10  4  1  0  0  0  0
 11 19  2  0  0  0  0
 12  8  1  0  0  0  0
 13  6  1  0  0  0  0
 14  8  2  0  0  0  0
 15  9  1  0  0  0  0
 16 10  1  0  0  0  0
 17  9  2  0  0  0  0
 18 10  2  0  0  0  0
 19 22  1  0  0  0  0
 20 21  2  0  0  0  0
 21 12  1  0  0  0  0
 22 12  2  0  0  0  0
 23  3  1  0  0  0  0
 24 23  1  0  0  0  0
 25 24  2  0  0  0  0
 26  7  1  0  0  0  0
 27 13  1  0  0  0  0
 28 26  2  0  0  0  0
 29 13  2  0  0  0  0
 30 27  1  0  0  0  0
 31 30  1  0  0  0  0
  6  7  2  0  0  0  0
 28 29  1  0  0  0  0
 20 11  1  0  0  0  0
 16 15  1  0  0  0  0
M  END
> <IDNUMBER>
F1815-0524

> <Chemical_Name>
4-(2,5-dioxopyrrolidin-1-yl)-N-[(2Z)-4-ethoxy-3-(prop-2-en-1-yl)-2,3-dihydro-1,3-benzothiazol-2-ylidene]benzamide

> <CAS>
1321969-67-8

> <PriceCoeff>
1.00

> <MW>
435.50

> <Description>
solid

> <FSP3>
0.22

> <clogP>
4.17

> <TPSA>
104.58

> <Acceptor>
4

> <Donor>
0

> <RotBonds>
7

> <HAC>
31

> <Collection>
General

$$$$
F3385-0082
  -ISIS-  06222321442D

 33 37  0  0  0  0  0  0  0  0999 V2000
    1.3625   -3.1917    0.0000 C   0  0  0  0  0  0  0  0  0  0  0  0
    0.6417   -3.6125    0.0000 C   0  0  0  0  0  0  0  0  0  0  0  0
   -0.0708   -3.2000    0.0000 C   0  0  0  0  0  0  0  0  0  0  0  0
    1.3542   -2.3667    0.0000 C   0  0  0  0  0  0  0  0  0  0  0  0
   -0.0708   -2.3750    0.0000 C   0  0  0  0  0  0  0  0  0  0  0  0
    2.0792   -3.6042    0.0000 C   0  0  0  0  0  0  0  0  0  0  0  0
    0.6417   -1.9542    0.0000 O   0  0  0  0  0  0  0  0  0  0  0  0
   -2.9333   -2.3750    0.0000 C   0  0  0  0  0  0  0  0  0  0  0  0
   -3.6458   -1.9542    0.0000 C   0  0  0  0  0  0  0  0  0  0  0  0
   -5.0708   -1.9500    0.0000 C   0  0  0  0  0  0  0  0  0  0  0  0
   -0.7875   -1.9625    0.0000 C   0  0  0  0  0  0  0  0  0  0  0  0
    2.7875   -3.1917    0.0000 C   0  0  0  0  0  0  0  0  0  0  0  0
   -2.2125   -1.9667    0.0000 O   0  0  0  0  0  0  0  0  0  0  0  0
   -0.7875   -3.6167    0.0000 C   0  0  0  0  0  0  0  0  0  0  0  0
   -4.3583   -2.3625    0.0000 C   0  0  0  0  0  0  0  0  0  0  0  0
    3.5000   -3.6000    0.0000 C   0  0  0  0  0  0  0  0  0  0  0  0
   -5.0625   -1.1167    0.0000 C   0  0  0  0  0  0  0  0  0  0  0  0
   -5.8583   -2.2042    0.0000 O   0  0  0  0  0  0  0  0  0  0  0  0
   -1.5000   -2.3750    0.0000 C   0  0  0  0  0  0  0  0  0  0  0  0
    0.6500   -4.4375    0.0000 O   0  0  0  0  0  0  0  0  0  0  0  0
   -5.8500   -0.8625    0.0000 O   0  0  0  0  0  0  0  0  0  0  0  0
   -6.3375   -1.5292    0.0000 C   0  0  0  0  0  0  0  0  0  0  0  0
    3.5042   -4.4292    0.0000 C   0  0  0  0  0  0  0  0  0  0  0  0
   -2.9333   -3.2000    0.0000 O   0  0  0  0  0  0  0  0  0  0  0  0
    2.0667   -4.4292    0.0000 C   0  0  0  0  0  0  0  0  0  0  0  0
   -3.6375   -1.1292    0.0000 C   0  0  0  0  0  0  0  0  0  0  0  0
   -4.3458   -0.7125    0.0000 C   0  0  0  0  0  0  0  0  0  0  0  0
    2.7917   -4.8417    0.0000 C   0  0  0  0  0  0  0  0  0  0  0  0
   -1.5000   -3.2042    0.0000 C   0  0  0  0  0  0  0  0  0  0  0  0
    4.2125   -3.1792    0.0000 O   0  0  0  0  0  0  0  0  0  0  0  0
    4.2167   -4.8375    0.0000 O   0  0  0  0  0  0  0  0  0  0  0  0
    4.2042   -2.3542    0.0000 C   0  0  0  0  0  0  0  0  0  0  0  0
    4.9292   -4.4167    0.0000 C   0  0  0  0  0  0  0  0  0  0  0  0
  2  1  1  0  0  0  0
  3  2  1  0  0  0  0
  4  1  2  0  0  0  0
  5  7  1  0  0  0  0
  6  1  1  0  0  0  0
  7  4  1  0  0  0  0
  8 13  1  0  0  0  0
  9  8  1  0  0  0  0
 10 15  2  0  0  0  0
 11  5  2  0  0  0  0
 12  6  1  0  0  0  0
 13 19  1  0  0  0  0
 14  3  2  0  0  0  0
 15  9  1  0  0  0  0
 16 12  2  0  0  0  0
 17 27  2  0  0  0  0
 18 10  1  0  0  0  0
 19 11  1  0  0  0  0
 20  2  2  0  0  0  0
 21 17  1  0  0  0  0
 22 18  1  0  0  0  0
 23 28  2  0  0  0  0
 24  8  2  0  0  0  0
 25  6  2  0  0  0  0
 26  9  2  0  0  0  0
 27 26  1  0  0  0  0
 28 25  1  0  0  0  0
 29 14  1  0  0  0  0
 30 16  1  0  0  0  0
 31 23  1  0  0  0  0
 32 30  1  0  0  0  0
 33 31  1  0  0  0  0
  3  5  1  0  0  0  0
 16 23  1  0  0  0  0
 29 19  2  0  0  0  0
 17 10  1  0  0  0  0
 22 21  1  0  0  0  0
M  END
> <IDNUMBER>
F3385-0082

> <Chemical_Name>
3-(3,4-dimethoxyphenyl)-4-oxo-4H-chromen-7-yl 2H-1,3-benzodioxole-5-carboxylate

> <CAS>
637752-69-3

> <PriceCoeff>
1.00

> <MW>
446.41

> <Description>
solid

> <FSP3>
0.12

> <clogP>
4.50

> <TPSA>
89.52

> <Acceptor>
8

> <Donor>
0

> <RotBonds>
6

> <HAC>
33

> <Collection>
General

> <Reference_compound>
CHEMBL519221

> <Similarity>
0.8260

$$$$
F1008-0142
  -ISIS-  06222321452D

 38 42  0  0  0  0  0  0  0  0999 V2000
   -2.5125   -0.6792    0.0000 C   0  0  0  0  0  0  0  0  0  0  0  0
   -2.1708   -1.2167    0.0000 C   0  0  0  0  0  0  0  0  0  0  0  0
   -1.5958   -0.0917    0.0000 N   0  0  3  0  0  0  0  0  0  0  0  0
   -1.2333   -0.6375    0.0000 C   0  0  0  0  0  0  0  0  0  0  0  0
   -1.5500   -1.2000    0.0000 N   0  0  0  0  0  0  0  0  0  0  0  0
   -2.2333   -0.1167    0.0000 C   0  0  0  0  0  0  0  0  0  0  0  0
   -2.5958   -1.7000    0.0000 S   0  0  0  0  0  0  0  0  0  0  0  0
   -3.1333   -0.8375    0.0000 C   0  0  0  0  0  0  0  0  0  0  0  0
   -3.1708   -1.4542    0.0000 C   0  0  0  0  0  0  0  0  0  0  0  0
   -0.5958   -0.6375    0.0000 S   0  0  0  0  0  0  0  0  0  0  0  0
    0.3667   -0.0792    0.0000 C   0  0  0  0  0  0  0  0  0  0  0  0
    0.6667   -0.6167    0.0000 N   0  0  3  0  0  0  0  0  0  0  0  0
   -1.3125    0.4833    0.0000 C   0  0  0  0  0  0  0  0  0  0  0  0
   -2.5708    0.4458    0.0000 O   0  0  0  0  0  0  0  0  0  0  0  0
    0.2292    2.2083    0.0000 C   0  0  0  0  0  0  0  0  0  0  0  0
   -0.4125    2.1833    0.0000 N   0  0  0  0  0  0  0  0  0  0  0  0
   -0.2708   -0.0792    0.0000 C   0  0  0  0  0  0  0  0  0  0  0  0
    0.6875    0.4833    0.0000 O   0  0  0  0  0  0  0  0  0  0  0  0
    1.3042   -0.6375    0.0000 C   0  0  0  0  0  0  0  0  0  0  0  0
    0.5292    2.7708    0.0000 O   0  0  0  0  0  0  0  0  0  0  0  0
   -0.6708    0.5208    0.0000 C   0  0  0  0  0  0  0  0  0  0  0  0
   -1.6500    1.0208    0.0000 C   0  0  0  0  0  0  0  0  0  0  0  0
   -0.7125    1.6000    0.0000 C   0  0  0  0  0  0  0  0  0  0  0  0
    0.3500   -1.1792    0.0000 C   0  0  3  0  0  0  0  0  0  0  0  0
   -3.6500   -0.5000    0.0000 C   0  0  0  0  0  0  0  0  0  0  0  0
   -0.3708    1.0833    0.0000 C   0  0  0  0  0  0  0  0  0  0  0  0
   -1.3500    1.5833    0.0000 C   0  0  0  0  0  0  0  0  0  0  0  0
   -3.7333   -1.7542    0.0000 C   0  0  0  0  0  0  0  0  0  0  0  0
    0.5667    1.6833    0.0000 C   0  0  0  0  0  0  0  0  0  0  0  0
    1.6292   -1.1792    0.0000 C   0  0  0  0  0  0  0  0  0  0  0  0
    1.6292   -0.0917    0.0000 C   0  0  0  0  0  0  0  0  0  0  0  0
    0.6667   -1.7167    0.0000 C   0  0  0  0  0  0  0  0  0  0  0  0
   -0.2958   -1.1542    0.0000 C   0  0  0  0  0  0  0  0  0  0  0  0
   -4.2333   -0.7792    0.0000 C   0  0  0  0  0  0  0  0  0  0  0  0
   -4.2708   -1.4000    0.0000 C   0  0  0  0  0  0  0  0  0  0  0  0
    2.2667   -0.0792    0.0000 C   0  0  0  0  0  0  0  0  0  0  0  0
    2.2667   -1.1792    0.0000 C   0  0  0  0  0  0  0  0  0  0  0  0
    2.5875   -0.6375    0.0000 C   0  0  0  0  0  0  0  0  0  0  0  0
  2  1  2  0  0  0  0
  3  6  1  0  0  0  0
  4  3  1  0  0  0  0
  5  2  1  0  0  0  0
  6  1  1  0  0  0  0
  7  2  1  0  0  0  0
  8  1  1  0  0  0  0
  9  8  2  0  0  0  0
 10  4  1  0  0  0  0
 11 17  1  0  0  0  0
 12 11  1  0  0  0  0
 13  3  1  0  0  0  0
 14  6  2  0  0  0  0
 15 16  1  0  0  0  0
 16 23  1  0  0  0  0
 17 10  1  0  0  0  0
 18 11  2  0  0  0  0
 19 12  1  0  0  0  0
 20 15  2  0  0  0  0
 21 13  1  0  0  0  0
 22 13  2  0  0  0  0
 23 27  2  0  0  0  0
 24 12  1  0  0  0  0
 25  8  1  0  0  0  0
 26 21  2  0  0  0  0
 27 22  1  0  0  0  0
 28  9  1  0  0  0  0
 29 15  1  0  0  0  0
 30 19  1  0  0  0  0
 31 19  2  0  0  0  0
 32 24  1  0  0  0  0
 33 24  1  0  0  0  0
 34 25  1  0  0  0  0
 35 34  1  0  0  0  0
 36 31  1  0  0  0  0
 37 30  2  0  0  0  0
 38 36  2  0  0  0  0
  7  9  1  0  0  0  0
  5  4  2  0  0  0  0
 35 28  1  0  0  0  0
 26 23  1  0  0  0  0
 37 38  1  0  0  0  0
M  END
> <IDNUMBER>
F1008-0142

> <Chemical_Name>
2-{[4-(4-acetamidophenyl)-3-oxo-8-thia-4,6-diazatricyclo[7.4.0.0^{2,7}]trideca-1(9),2(7),5-trien-5-yl]sulfanyl}-N-phenyl-N-(propan-2-yl)acetamide

> <CAS>
380340-58-9

> <PriceCoeff>
1.00

> <MW>
546.70

> <Description>
solid

> <FSP3>
0.31

> <clogP>
6.02

> <TPSA>
135.62

> <Acceptor>
4

> <Donor>
1

> <RotBonds>
8

> <HAC>
38

> <Collection>
General

> <Reference_compound>
CHEMBL577016

> <Similarity>
0.8190

$$$$
F1815-0722
  -ISIS-  06222321142D

 31 34  0  0  0  0  0  0  0  0999 V2000
   -4.5958    2.5625    0.0000 C   0  0  0  0  0  0  0  0  0  0  0  0
   -3.8625    2.9833    0.0000 N   0  0  0  0  0  0  0  0  0  0  0  0
   -4.6875    1.7458    0.0000 N   0  0  3  0  0  0  0  0  0  0  0  0
   -1.0208    3.8000    0.0000 N   0  0  3  0  0  0  0  0  0  0  0  0
   -5.3208    2.9000    0.0000 S   0  0  0  0  0  0  0  0  0  0  0  0
   -5.4833    1.5875    0.0000 C   0  0  0  0  0  0  0  0  0  0  0  0
   -5.8833    2.3083    0.0000 C   0  0  0  0  0  0  0  0  0  0  0  0
   -3.8708    3.8000    0.0000 C   0  0  0  0  0  0  0  0  0  0  0  0
   -1.7333    4.2042    0.0000 C   0  0  0  0  0  0  0  0  0  0  0  0
   -0.9708    2.9833    0.0000 C   0  0  0  0  0  0  0  0  0  0  0  0
   -0.2583    4.0917    0.0000 C   0  0  0  0  0  0  0  0  0  0  0  0
   -2.4458    3.8083    0.0000 C   0  0  0  0  0  0  0  0  0  0  0  0
   -3.1583    4.2042    0.0000 C   0  0  0  0  0  0  0  0  0  0  0  0
   -5.9083    0.8833    0.0000 C   0  0  0  0  0  0  0  0  0  0  0  0
   -4.5833    4.2167    0.0000 O   0  0  0  0  0  0  0  0  0  0  0  0
   -0.1583    2.7833    0.0000 C   0  0  0  0  0  0  0  0  0  0  0  0
    0.2750    3.4708    0.0000 C   0  0  0  0  0  0  0  0  0  0  0  0
   -1.6083    2.4583    0.0000 O   0  0  0  0  0  0  0  0  0  0  0  0
   -0.0375    4.8875    0.0000 O   0  0  0  0  0  0  0  0  0  0  0  0
   -4.0708    1.1708    0.0000 C   0  0  0  0  0  0  0  0  0  0  0  0
   -4.2583    0.3708    0.0000 C   0  0  0  0  0  0  0  0  0  0  0  0
   -3.6500   -0.2000    0.0000 C   0  0  0  0  0  0  0  0  0  0  0  0
   -6.7000    2.3333    0.0000 C   0  0  0  0  0  0  0  0  0  0  0  0
   -1.7250    5.0292    0.0000 C   0  0  0  0  0  0  0  0  0  0  0  0
   -5.5208    0.1583    0.0000 O   0  0  0  0  0  0  0  0  0  0  0  0
   -3.1583    5.0292    0.0000 C   0  0  0  0  0  0  0  0  0  0  0  0
   -2.4375    5.4417    0.0000 C   0  0  0  0  0  0  0  0  0  0  0  0
   -7.1292    1.6208    0.0000 C   0  0  0  0  0  0  0  0  0  0  0  0
   -6.7167    0.9000    0.0000 C   0  0  0  0  0  0  0  0  0  0  0  0
   -5.9458   -0.5417    0.0000 C   0  0  0  0  0  0  0  0  0  0  0  0
   -5.5708   -1.2542    0.0000 C   0  0  0  0  0  0  0  0  0  0  0  0
  2  1  2  0  0  0  0
  3  1  1  0  0  0  0
  4  9  1  0  0  0  0
  5  1  1  0  0  0  0
  6  3  1  0  0  0  0
  7  5  1  0  0  0  0
  8  2  1  0  0  0  0
  9 12  1  0  0  0  0
 10  4  1  0  0  0  0
 11  4  1  0  0  0  0
 12 13  2  0  0  0  0
 13  8  1  0  0  0  0
 14  6  1  0  0  0  0
 15  8  2  0  0  0  0
 16 10  1  0  0  0  0
 17 11  1  0  0  0  0
 18 10  2  0  0  0  0
 19 11  2  0  0  0  0
 20  3  1  0  0  0  0
 21 20  1  0  0  0  0
 22 21  2  0  0  0  0
 23  7  1  0  0  0  0
 24 27  1  0  0  0  0
 25 14  1  0  0  0  0
 26 13  1  0  0  0  0
 27 26  2  0  0  0  0
 28 23  2  0  0  0  0
 29 14  2  0  0  0  0
 30 25  1  0  0  0  0
 31 30  1  0  0  0  0
  6  7  2  0  0  0  0
 28 29  1  0  0  0  0
 24  9  2  0  0  0  0
 17 16  1  0  0  0  0
M  END
> <IDNUMBER>
F1815-0722

> <Chemical_Name>
3-(2,5-dioxopyrrolidin-1-yl)-N-[(2Z)-4-ethoxy-3-(prop-2-en-1-yl)-2,3-dihydro-1,3-benzothiazol-2-ylidene]benzamide

> <CAS>
868376-48-1

> <PriceCoeff>
1.00

> <MW>
435.50

> <Description>
solid

> <FSP3>
0.22

> <clogP>
4.17

> <TPSA>
104.58

> <Acceptor>
4

> <Donor>
0

> <RotBonds>
7

> <HAC>
31

> <Collection>
General

$$$$
F3386-3259
  -ISIS-  06222321462D

 20 22  0  0  0  0  0  0  0  0999 V2000
    5.2625   -0.4042    0.0000 S   0  0  3  0  0  0  0  0  0  0  0  0
    6.0875   -0.4042    0.0000 O   0  0  0  0  0  0  0  0  0  0  0  0
    5.2542   -1.2292    0.0000 O   0  0  0  0  0  0  0  0  0  0  0  0
    5.2625    0.4208    0.0000 O   0  0  0  0  0  0  0  0  0  0  0  0
    4.4375   -0.4000    0.0000 C   0  0  0  0  0  0  0  0  0  0  0  0
    6.9125   -0.4042    0.0000 C   0  0  0  0  0  0  0  0  0  0  0  0
    8.1417   -1.1167    0.0000 C   0  0  0  0  0  0  0  0  0  0  0  0
    7.3250   -1.1167    0.0000 C   0  0  0  0  0  0  0  0  0  0  0  0
    8.5542   -0.4042    0.0000 C   0  0  0  0  0  0  0  0  0  0  0  0
    8.1417    0.3125    0.0000 C   0  0  0  0  0  0  0  0  0  0  0  0
    7.3167    0.3083    0.0000 C   0  0  0  0  0  0  0  0  0  0  0  0
    8.5500   -1.8292    0.0000 C   0  0  0  0  0  0  0  0  0  0  0  0
    4.0250   -1.1042    0.0000 C   0  0  0  0  0  0  0  0  0  0  0  0
    4.0292    0.3208    0.0000 C   0  0  0  0  0  0  0  0  0  0  0  0
    9.3792   -0.4042    0.0000 C   0  0  0  0  0  0  0  0  0  0  0  0
    9.3750   -1.8292    0.0000 C   0  0  0  0  0  0  0  0  0  0  0  0
    3.2042    0.3250    0.0000 C   0  0  0  0  0  0  0  0  0  0  0  0
    3.2000   -1.1042    0.0000 C   0  0  0  0  0  0  0  0  0  0  0  0
    9.7875   -1.1167    0.0000 C   0  0  0  0  0  0  0  0  0  0  0  0
    2.7875   -0.3875    0.0000 C   0  0  0  0  0  0  0  0  0  0  0  0
  2  1  1  0  0  0  0
  3  1  2  0  0  0  0
  4  1  2  0  0  0  0
  5  1  1  0  0  0  0
  6  2  1  0  0  0  0
  7  8  1  0  0  0  0
  8  6  2  0  0  0  0
  9 10  1  0  0  0  0
 10 11  2  0  0  0  0
 11  6  1  0  0  0  0
 12  7  2  0  0  0  0
 13  5  1  0  0  0  0
 14  5  2  0  0  0  0
 15  9  2  0  0  0  0
 16 12  1  0  0  0  0
 17 14  1  0  0  0  0
 18 13  2  0  0  0  0
 19 15  1  0  0  0  0
 20 17  2  0  0  0  0
 20 18  1  0  0  0  0
  9  7  1  0  0  0  0
 16 19  2  0  0  0  0
M  END
> <IDNUMBER>
F3386-3259

> <Chemical_Name>
naphthalen-2-yl benzenesulfonate

> <CAS>
15161-07-6

> <PriceCoeff>
1.00

> <MW>
284.33

> <Description>
solid

> <FSP3>
0.00

> <clogP>
4.26

> <TPSA>
51.75

> <Acceptor>
3

> <Donor>
0

> <RotBonds>
3

> <HAC>
20

> <Collection>
General

> <Reference_compound>
PRI3215

> <Similarity>
0.8280

$$$$
F1819-0521
  -ISIS-  06222321452D

 33 36  0  0  0  0  0  0  0  0999 V2000
   -4.5833    2.5500    0.0000 C   0  0  0  0  0  0  0  0  0  0  0  0
   -4.6750    1.7333    0.0000 N   0  0  3  0  0  0  0  0  0  0  0  0
   -3.8708    2.9708    0.0000 N   0  0  0  0  0  0  0  0  0  0  0  0
   -5.3208    2.8958    0.0000 S   0  0  0  0  0  0  0  0  0  0  0  0
   -5.4833    1.5708    0.0000 C   0  0  0  0  0  0  0  0  0  0  0  0
   -0.9958    5.4375    0.0000 N   0  0  3  0  0  0  0  0  0  0  0  0
   -5.8833    2.2958    0.0000 C   0  0  0  0  0  0  0  0  0  0  0  0
   -3.8708    3.8000    0.0000 C   0  0  0  0  0  0  0  0  0  0  0  0
   -0.2333    5.1375    0.0000 C   0  0  0  0  0  0  0  0  0  0  0  0
   -0.9375    6.2667    0.0000 C   0  0  0  0  0  0  0  0  0  0  0  0
   -6.7042    2.3083    0.0000 C   0  0  0  0  0  0  0  0  0  0  0  0
   -4.0583    1.1625    0.0000 C   0  0  0  0  0  0  0  0  0  0  0  0
   -1.7125    5.0292    0.0000 C   0  0  0  0  0  0  0  0  0  0  0  0
   -5.9083    0.8708    0.0000 C   0  0  0  0  0  0  0  0  0  0  0  0
   -4.2458    0.3500    0.0000 C   0  0  0  0  0  0  0  0  0  0  0  0
   -3.1583    4.2125    0.0000 C   0  0  0  0  0  0  0  0  0  0  0  0
   -7.1292    1.6000    0.0000 C   0  0  0  0  0  0  0  0  0  0  0  0
   -4.5958    4.2125    0.0000 O   0  0  0  0  0  0  0  0  0  0  0  0
    0.2917    5.7667    0.0000 C   0  0  0  0  0  0  0  0  0  0  0  0
   -0.1333    6.4667    0.0000 C   0  0  0  0  0  0  0  0  0  0  0  0
   -0.0333    4.3292    0.0000 O   0  0  0  0  0  0  0  0  0  0  0  0
   -1.5833    6.8125    0.0000 O   0  0  0  0  0  0  0  0  0  0  0  0
   -6.7167    0.8833    0.0000 C   0  0  0  0  0  0  0  0  0  0  0  0
   -5.0333    0.1083    0.0000 O   0  0  0  0  0  0  0  0  0  0  0  0
   -1.7333    4.2042    0.0000 C   0  0  0  0  0  0  0  0  0  0  0  0
   -2.4333    5.4542    0.0000 C   0  0  0  0  0  0  0  0  0  0  0  0
   -3.1500    5.0417    0.0000 C   0  0  0  0  0  0  0  0  0  0  0  0
   -2.4458    3.8083    0.0000 C   0  0  0  0  0  0  0  0  0  0  0  0
   -3.6458   -0.2042    0.0000 O   0  0  0  0  0  0  0  0  0  0  0  0
   -7.1042    3.0333    0.0000 C   0  0  0  0  0  0  0  0  0  0  0  0
   -7.1167    0.1583    0.0000 C   0  0  0  0  0  0  0  0  0  0  0  0
   -3.8250   -1.0042    0.0000 C   0  0  0  0  0  0  0  0  0  0  0  0
   -3.2208   -1.5667    0.0000 C   0  0  0  0  0  0  0  0  0  0  0  0
  2  1  1  0  0  0  0
  3  1  2  0  0  0  0
  4  1  1  0  0  0  0
  5  2  1  0  0  0  0
  6 13  1  0  0  0  0
  7  4  1  0  0  0  0
  8  3  1  0  0  0  0
  9  6  1  0  0  0  0
 10  6  1  0  0  0  0
 11  7  1  0  0  0  0
 12  2  1  0  0  0  0
 13 25  2  0  0  0  0
 14  5  1  0  0  0  0
 15 12  1  0  0  0  0
 16  8  1  0  0  0  0
 17 11  2  0  0  0  0
 18  8  2  0  0  0  0
 19  9  1  0  0  0  0
 20 10  1  0  0  0  0
 21  9  2  0  0  0  0
 22 10  2  0  0  0  0
 23 14  2  0  0  0  0
 24 15  2  0  0  0  0
 25 28  1  0  0  0  0
 26 27  2  0  0  0  0
 27 16  1  0  0  0  0
 28 16  2  0  0  0  0
 29 15  1  0  0  0  0
 30 11  1  0  0  0  0
 31 23  1  0  0  0  0
 32 29  1  0  0  0  0
 33 32  1  0  0  0  0
  5  7  2  0  0  0  0
 17 23  1  0  0  0  0
 26 13  1  0  0  0  0
 20 19  1  0  0  0  0
M  END
> <IDNUMBER>
F1819-0521

> <Chemical_Name>
ethyl 2-[(2Z)-2-{[4-(2,5-dioxopyrrolidin-1-yl)benzoyl]imino}-5,7-dimethyl-2,3-dihydro-1,3-benzothiazol-3-yl]acetate

> <CAS>
868675-12-1

> <PriceCoeff>
1.00

> <MW>
465.52

> <Description>
solid

> <FSP3>
0.29

> <clogP>
4.04

> <TPSA>
121.65

> <Acceptor>
5

> <Donor>
0

> <RotBonds>
7

> <HAC>
33

> <Collection>
General

$$$$
F1819-0719
  -ISIS-  06222321142D

 33 36  0  0  0  0  0  0  0  0999 V2000
   -4.5833    2.5500    0.0000 C   0  0  0  0  0  0  0  0  0  0  0  0
   -4.6750    1.7333    0.0000 N   0  0  3  0  0  0  0  0  0  0  0  0
   -3.8708    2.9708    0.0000 N   0  0  0  0  0  0  0  0  0  0  0  0
   -5.3208    2.8958    0.0000 S   0  0  0  0  0  0  0  0  0  0  0  0
   -1.0083    3.7958    0.0000 N   0  0  3  0  0  0  0  0  0  0  0  0
   -5.4833    1.5708    0.0000 C   0  0  0  0  0  0  0  0  0  0  0  0
   -5.8833    2.2958    0.0000 C   0  0  0  0  0  0  0  0  0  0  0  0
   -3.8708    3.8000    0.0000 C   0  0  0  0  0  0  0  0  0  0  0  0
   -1.7208    4.2125    0.0000 C   0  0  0  0  0  0  0  0  0  0  0  0
   -0.9625    2.9708    0.0000 C   0  0  0  0  0  0  0  0  0  0  0  0
   -0.2375    4.0917    0.0000 C   0  0  0  0  0  0  0  0  0  0  0  0
   -6.7042    2.3083    0.0000 C   0  0  0  0  0  0  0  0  0  0  0  0
   -4.0583    1.1625    0.0000 C   0  0  0  0  0  0  0  0  0  0  0  0
   -2.4375    3.8083    0.0000 C   0  0  0  0  0  0  0  0  0  0  0  0
   -3.1583    4.2125    0.0000 C   0  0  0  0  0  0  0  0  0  0  0  0
   -5.9083    0.8708    0.0000 C   0  0  0  0  0  0  0  0  0  0  0  0
   -4.2458    0.3500    0.0000 C   0  0  0  0  0  0  0  0  0  0  0  0
   -7.1292    1.6000    0.0000 C   0  0  0  0  0  0  0  0  0  0  0  0
   -4.5958    4.2125    0.0000 O   0  0  0  0  0  0  0  0  0  0  0  0
   -0.1458    2.7708    0.0000 C   0  0  0  0  0  0  0  0  0  0  0  0
    0.2917    3.4708    0.0000 C   0  0  0  0  0  0  0  0  0  0  0  0
   -1.5958    2.4583    0.0000 O   0  0  0  0  0  0  0  0  0  0  0  0
   -0.0208    4.8875    0.0000 O   0  0  0  0  0  0  0  0  0  0  0  0
   -6.7167    0.8833    0.0000 C   0  0  0  0  0  0  0  0  0  0  0  0
   -5.0333    0.1083    0.0000 O   0  0  0  0  0  0  0  0  0  0  0  0
   -3.6458   -0.2042    0.0000 O   0  0  0  0  0  0  0  0  0  0  0  0
   -1.7125    5.0292    0.0000 C   0  0  0  0  0  0  0  0  0  0  0  0
   -7.1042    3.0333    0.0000 C   0  0  0  0  0  0  0  0  0  0  0  0
   -3.1500    5.0417    0.0000 C   0  0  0  0  0  0  0  0  0  0  0  0
   -2.4333    5.4542    0.0000 C   0  0  0  0  0  0  0  0  0  0  0  0
   -7.1167    0.1583    0.0000 C   0  0  0  0  0  0  0  0  0  0  0  0
   -3.8250   -1.0042    0.0000 C   0  0  0  0  0  0  0  0  0  0  0  0
   -3.2208   -1.5667    0.0000 C   0  0  0  0  0  0  0  0  0  0  0  0
  2  1  1  0  0  0  0
  3  1  2  0  0  0  0
  4  1  1  0  0  0  0
  5  9  1  0  0  0  0
  6  2  1  0  0  0  0
  7  4  1  0  0  0  0
  8  3  1  0  0  0  0
  9 14  1  0  0  0  0
 10  5  1  0  0  0  0
 11  5  1  0  0  0  0
 12  7  1  0  0  0  0
 13  2  1  0  0  0  0
 14 15  2  0  0  0  0
 15  8  1  0  0  0  0
 16  6  1  0  0  0  0
 17 13  1  0  0  0  0
 18 12  2  0  0  0  0
 19  8  2  0  0  0  0
 20 10  1  0  0  0  0
 21 11  1  0  0  0  0
 22 10  2  0  0  0  0
 23 11  2  0  0  0  0
 24 16  2  0  0  0  0
 25 17  2  0  0  0  0
 26 17  1  0  0  0  0
 27 30  1  0  0  0  0
 28 12  1  0  0  0  0
 29 15  1  0  0  0  0
 30 29  2  0  0  0  0
 31 24  1  0  0  0  0
 32 26  1  0  0  0  0
 33 32  1  0  0  0  0
  6  7  2  0  0  0  0
 18 24  1  0  0  0  0
 27  9  2  0  0  0  0
 21 20  1  0  0  0  0
M  END
> <IDNUMBER>
F1819-0719

> <Chemical_Name>
ethyl 2-[(2Z)-2-{[3-(2,5-dioxopyrrolidin-1-yl)benzoyl]imino}-5,7-dimethyl-2,3-dihydro-1,3-benzothiazol-3-yl]acetate

> <CAS>
868675-14-3

> <PriceCoeff>
1.00

> <MW>
465.52

> <Description>
solid

> <FSP3>
0.29

> <clogP>
4.04

> <TPSA>
121.65

> <Acceptor>
5

> <Donor>
0

> <RotBonds>
7

> <HAC>
33

> <Collection>
General

$$$$
F0850-5995
  -ISIS-  06222321142D

 31 36  0  0  0  0  0  0  0  0999 V2000
    6.3667   -4.4917    0.0000 N   0  0  0  0  0  0  0  0  0  0  0  0
    9.1542   -0.2375    0.0000 N   0  0  0  0  0  0  0  0  0  0  0  0
    9.8250    0.2458    0.0000 C   0  0  0  0  0  0  0  0  0  0  0  0
    5.6292   -4.1542    0.0000 C   0  0  0  0  0  0  0  0  0  0  0  0
    5.7042   -3.3375    0.0000 N   0  0  0  0  0  0  0  0  0  0  0  0
   10.4917   -0.2375    0.0000 N   0  0  0  0  0  0  0  0  0  0  0  0
    6.9292   -3.8750    0.0000 C   0  0  0  0  0  0  0  0  0  0  0  0
    9.4042   -1.0167    0.0000 C   0  0  0  0  0  0  0  0  0  0  0  0
    6.5167   -3.1625    0.0000 C   0  0  0  0  0  0  0  0  0  0  0  0
   10.2375   -1.0167    0.0000 C   0  0  0  0  0  0  0  0  0  0  0  0
    4.8250   -4.3375    0.0000 C   0  0  0  0  0  0  0  0  0  0  0  0
   10.0792    1.0333    0.0000 C   0  0  0  0  0  0  0  0  0  0  0  0
    7.7542   -3.8750    0.0000 C   0  0  0  0  0  0  0  0  0  0  0  0
    8.9917   -1.7375    0.0000 C   0  0  0  0  0  0  0  0  0  0  0  0
    9.7792    1.7958    0.0000 N   0  0  0  0  0  0  0  0  0  0  0  0
    4.3167   -4.9875    0.0000 N   0  0  0  0  0  0  0  0  0  0  0  0
    8.1667   -3.1625    0.0000 C   0  0  0  0  0  0  0  0  0  0  0  0
    9.4042   -2.4500    0.0000 C   0  0  0  0  0  0  0  0  0  0  0  0
    6.9292   -2.4417    0.0000 C   0  0  0  0  0  0  0  0  0  0  0  0
   10.6417   -1.7375    0.0000 C   0  0  0  0  0  0  0  0  0  0  0  0
    8.9917   -3.1625    0.0000 C   0  0  0  0  0  0  0  0  0  0  0  0
   10.2375   -2.4500    0.0000 C   0  0  0  0  0  0  0  0  0  0  0  0
    7.7542   -2.4417    0.0000 C   0  0  0  0  0  0  0  0  0  0  0  0
    3.5000   -4.8750    0.0000 C   0  0  0  0  0  0  0  0  0  0  0  0
   10.2917    2.4458    0.0000 C   0  0  0  0  0  0  0  0  0  0  0  0
    4.5125   -3.5750    0.0000 C   0  0  0  0  0  0  0  0  0  0  0  0
   10.8917    0.9125    0.0000 C   0  0  0  0  0  0  0  0  0  0  0  0
    3.1875   -4.1042    0.0000 C   0  0  0  0  0  0  0  0  0  0  0  0
   11.1042    2.3333    0.0000 C   0  0  0  0  0  0  0  0  0  0  0  0
    3.6917   -3.4542    0.0000 C   0  0  0  0  0  0  0  0  0  0  0  0
   11.4125    1.5583    0.0000 C   0  0  0  0  0  0  0  0  0  0  0  0
  2  8  1  0  0  0  0
  3  2  2  0  0  0  0
  4  1  2  0  0  0  0
  5  4  1  0  0  0  0
  6 10  1  0  0  0  0
  7  1  1  0  0  0  0
  8 14  1  0  0  0  0
  9  7  2  0  0  0  0
 10 20  1  0  0  0  0
 11  4  1  0  0  0  0
 12  3  1  0  0  0  0
 13  7  1  0  0  0  0
 14 18  2  0  0  0  0
 15 12  1  0  0  0  0
 16 11  1  0  0  0  0
 17 13  2  0  0  0  0
 18 21  1  0  0  0  0
 19  9  1  0  0  0  0
 20 22  2  0  0  0  0
 21 17  1  0  0  0  0
 22 18  1  0  0  0  0
 23 17  1  0  0  0  0
 24 16  2  0  0  0  0
 25 15  2  0  0  0  0
 26 11  2  0  0  0  0
 27 12  2  0  0  0  0
 28 30  2  0  0  0  0
 29 31  2  0  0  0  0
 30 26  1  0  0  0  0
 31 27  1  0  0  0  0
  5  9  1  0  0  0  0
 23 19  2  0  0  0  0
 24 28  1  0  0  0  0
 10  8  2  0  0  0  0
  3  6  1  0  0  0  0
 25 29  1  0  0  0  0
M  END
> <IDNUMBER>
F0850-5995

> <Chemical_Name>
2-(pyridin-2-yl)-5-{[2-(pyridin-2-yl)-1H-1,3-benzodiazol-5-yl]methyl}-1H-1,3-benzodiazole

> <CAS>
309941-59-1

> <PriceCoeff>
1.00

> <MW>
402.45

> <Description>
solid

> <FSP3>
0.04

> <clogP>
4.99

> <TPSA>
83.14

> <Acceptor>
6

> <Donor>
6

> <RotBonds>
4

> <HAC>
31

> <Collection>
General

> <Reference_compound>
CHEMBL352049

> <Similarity>
0.8590

$$$$
F9995-0834
  -ISIS-  06222304352D

 47 51  0  0  0  0  0  0  0  0999 V2000
    0.5042   -2.6542    0.0000 N   0  3  0  0  0  0  0  0  0  0  0  0
    6.9792   -2.3375    0.0000 C   0  0  0  0  0  0  0  0  0  0  0  0
    1.2542   -2.3167    0.0000 C   0  0  0  0  0  0  0  0  0  0  0  0
    7.7000   -2.7500    0.0000 N   0  0  3  0  0  0  0  0  0  0  0  0
   -0.0458   -2.0417    0.0000 C   0  0  0  0  0  0  0  0  0  0  0  0
    7.1542   -1.5292    0.0000 S   0  0  0  0  0  0  0  0  0  0  0  0
    1.1750   -1.5000    0.0000 S   0  0  0  0  0  0  0  0  0  0  0  0
    8.3042   -2.2000    0.0000 C   0  0  0  0  0  0  0  0  0  0  0  0
    0.3667   -1.3292    0.0000 C   0  0  0  0  0  0  0  0  0  0  0  0
    7.9750   -1.4417    0.0000 C   0  0  0  0  0  0  0  0  0  0  0  0
    6.2667   -2.7500    0.0000 C   0  0  0  0  0  0  0  0  0  0  0  0
    1.9667   -2.7375    0.0000 C   0  0  0  0  0  0  0  0  0  0  0  0
   -0.8625   -2.0417    0.0000 C   0  0  0  0  0  0  0  0  0  0  0  0
    9.1292   -2.2792    0.0000 C   0  0  0  0  0  0  0  0  0  0  0  0
    5.5542   -2.3292    0.0000 C   0  0  0  0  0  0  0  0  0  0  0  0
    2.6792   -2.3292    0.0000 C   0  0  0  0  0  0  0  0  0  0  0  0
    4.1125   -2.3292    0.0000 C   0  0  0  0  0  0  0  0  0  0  0  0
    4.8292   -2.7417    0.0000 C   0  0  0  0  0  0  0  0  0  0  0  0
    3.3917   -2.7375    0.0000 C   0  0  0  0  0  0  0  0  0  0  0  0
    4.1167   -3.9792    0.0000 O   0  0  0  0  0  0  0  0  0  0  0  0
   -0.0375   -0.6167    0.0000 C   0  0  0  0  0  0  0  0  0  0  0  0
    8.4542   -0.7792    0.0000 C   0  0  0  0  0  0  0  0  0  0  0  0
    0.3292   -3.4625    0.0000 C   0  0  0  0  0  0  0  0  0  0  0  0
    9.6125   -1.6167    0.0000 C   0  0  0  0  0  0  0  0  0  0  0  0
   -1.2833   -1.3292    0.0000 C   0  0  0  0  0  0  0  0  0  0  0  0
    7.7917   -3.5750    0.0000 C   0  0  0  0  0  0  0  0  0  0  0  0
    9.2792   -0.8667    0.0000 C   0  0  0  0  0  0  0  0  0  0  0  0
   -0.8708   -0.6125    0.0000 C   0  0  0  0  0  0  0  0  0  0  0  0
    3.4000   -3.5625    0.0000 C   0  0  0  0  0  0  0  0  0  0  0  0
    4.8292   -3.5667    0.0000 C   0  0  0  0  0  0  0  0  0  0  0  0
   -2.1125   -1.3292    0.0000 O   0  0  0  0  0  0  0  0  0  0  0  0
   10.4417   -1.7000    0.0000 O   0  0  0  0  0  0  0  0  0  0  0  0
   -2.5333   -0.6167    0.0000 C   0  0  0  0  0  0  0  0  0  0  0  0
   10.9292   -1.0250    0.0000 C   0  0  0  0  0  0  0  0  0  0  0  0
    0.9417   -4.0167    0.0000 C   0  0  0  0  0  0  0  0  0  0  0  0
    7.1167   -4.0667    0.0000 C   0  0  0  0  0  0  0  0  0  0  0  0
   13.7048   -1.3766    0.0000 S   0  0  3  0  0  0  0  0  0  0  0  0
   13.3704   -2.1289    0.0000 C   0  0  0  0  0  0  0  0  0  0  0  0
   14.4572   -1.7110    0.0000 O   0  5  0  0  0  0  0  0  0  0  0  0
   14.0368   -0.6209    0.0000 O   0  0  0  0  0  0  0  0  0  0  0  0
   12.9501   -1.0388    0.0000 O   0  0  0  0  0  0  0  0  0  0  0  0
   13.8598   -2.8034    0.0000 C   0  0  0  0  0  0  0  0  0  0  0  0
   12.5515   -2.2135    0.0000 C   0  0  0  0  0  0  0  0  0  0  0  0
   13.5254   -3.5557    0.0000 C   0  0  0  0  0  0  0  0  0  0  0  0
   12.2219   -2.9725    0.0000 C   0  0  0  0  0  0  0  0  0  0  0  0
   12.7065   -3.6402    0.0000 C   0  0  0  0  0  0  0  0  0  0  0  0
   12.3687   -4.3950    0.0000 C   0  0  0  0  0  0  0  0  0  0  0  0
 13  5  1  0  0  0  0
 14  8  1  0  0  0  0
 15 18  2  0  0  0  0
 16 12  2  0  0  0  0
 17 19  2  0  0  0  0
 18 17  1  0  0  0  0
 19 16  1  0  0  0  0
 20 29  1  0  0  0  0
 21  9  1  0  0  0  0
 22 10  1  0  0  0  0
 23  1  1  0  0  0  0
 24 14  2  0  0  0  0
 25 13  2  0  0  0  0
 26  4  1  0  0  0  0
 27 22  2  0  0  0  0
 28 25  1  0  0  0  0
 29 19  1  0  0  0  0
 30 20  1  0  0  0  0
 31 25  1  0  0  0  0
 32 24  1  0  0  0  0
 33 31  1  0  0  0  0
 34 32  1  0  0  0  0
 35 23  1  0  0  0  0
 36 26  1  0  0  0  0
  7  9  1  0  0  0  0
 28 21  2  0  0  0  0
 18 30  1  0  0  0  0
 10  8  2  0  0  0  0
 24 27  1  0  0  0  0
  2 11  2  0  0  0  0
  3  1  2  0  0  0  0
  4  2  1  0  0  0  0
  5  1  1  0  0  0  0
  6  2  1  0  0  0  0
  7  3  1  0  0  0  0
  8  4  1  0  0  0  0
  9  5  2  0  0  0  0
 10  6  1  0  0  0  0
 11 15  1  0  0  0  0
 12  3  1  0  0  0  0
 38 37  1  0  0  0  0
 39 37  1  0  0  0  0
 40 37  2  0  0  0  0
 41 37  2  0  0  0  0
 42 38  1  0  0  0  0
 43 38  2  0  0  0  0
 44 42  2  0  0  0  0
 45 43  1  0  0  0  0
 46 45  2  0  0  0  0
 47 46  1  0  0  0  0
 46 44  1  0  0  0  0
M  CHG  2   1   1  39  -1
M  END
> <IDNUMBER>
F9995-0834

> <Chemical_Name>
3-ethyl-2-[(E)-2-[(5Z)-5-{2-[(2Z)-3-ethyl-5-methoxy-2,3-dihydro-1,3-benzothiazol-2-ylidene]ethylidene}-5,6-dihydro-2H-pyran-3-yl]ethenyl]-5-methoxy-1,3-benzothiazol-3-ium 4-methylbenzene-1-sulfonate

> <CAS>
328063-95-2

> <PriceCoeff>
1.00

> <MW>
519.70

> <Description>
solid

> <FSP3>
0.28

> <clogP>
3.93

> <TPSA>
88.35

> <Acceptor>
4

> <Donor>
1

> <RotBonds>
7

> <HAC>
36

> <Collection>
General

> <Reference_compound>
PRI5741

> <Similarity>
0.8100

$$$$
F1008-0074
  -ISIS-  06222321442D

 35 39  0  0  0  0  0  0  0  0999 V2000
   -1.9208    1.1125    0.0000 N   0  0  3  0  0  0  0  0  0  0  0  0
   -2.9458    0.5333    0.0000 C   0  0  0  0  0  0  0  0  0  0  0  0
   -2.6000   -0.0667    0.0000 C   0  0  0  0  0  0  0  0  0  0  0  0
   -2.6000    1.1125    0.0000 C   0  0  0  0  0  0  0  0  0  0  0  0
   -1.9208   -0.0500    0.0000 N   0  0  0  0  0  0  0  0  0  0  0  0
   -1.5833    0.5333    0.0000 C   0  0  0  0  0  0  0  0  0  0  0  0
   -3.0625   -0.5667    0.0000 S   0  0  0  0  0  0  0  0  0  0  0  0
   -3.6000    0.3708    0.0000 C   0  0  0  0  0  0  0  0  0  0  0  0
   -3.6625   -0.2875    0.0000 C   0  0  0  0  0  0  0  0  0  0  0  0
   -0.9000    0.5333    0.0000 S   0  0  0  0  0  0  0  0  0  0  0  0
    0.1167    1.1125    0.0000 C   0  0  0  0  0  0  0  0  0  0  0  0
    0.4542    0.5125    0.0000 N   0  0  3  0  0  0  0  0  0  0  0  0
   -1.7833    1.7833    0.0000 C   0  0  0  0  0  0  0  0  0  0  0  0
   -2.9458    1.7125    0.0000 O   0  0  0  0  0  0  0  0  0  0  0  0
   -0.5625    1.1125    0.0000 C   0  0  0  0  0  0  0  0  0  0  0  0
    0.4542    1.6958    0.0000 O   0  0  0  0  0  0  0  0  0  0  0  0
    1.1375    0.5125    0.0000 C   0  0  0  0  0  0  0  0  0  0  0  0
    0.1167   -0.0667    0.0000 C   0  0  3  0  0  0  0  0  0  0  0  0
   -0.9958    1.8708    0.0000 C   0  0  0  0  0  0  0  0  0  0  0  0
   -4.1625    0.7708    0.0000 C   0  0  0  0  0  0  0  0  0  0  0  0
   -4.2833   -0.5875    0.0000 C   0  0  0  0  0  0  0  0  0  0  0  0
    1.4792    1.1125    0.0000 C   0  0  0  0  0  0  0  0  0  0  0  0
    1.4792   -0.0667    0.0000 C   0  0  0  0  0  0  0  0  0  0  0  0
    0.4542   -0.6667    0.0000 C   0  0  0  0  0  0  0  0  0  0  0  0
   -0.5625   -0.0667    0.0000 C   0  0  0  0  0  0  0  0  0  0  0  0
   -1.3500    2.4458    0.0000 C   0  0  0  0  0  0  0  0  0  0  0  0
   -0.3000    1.8958    0.0000 C   0  0  0  0  0  0  0  0  0  0  0  0
   -4.7833    0.4958    0.0000 C   0  0  0  0  0  0  0  0  0  0  0  0
   -4.8458   -0.1875    0.0000 C   0  0  0  0  0  0  0  0  0  0  0  0
    2.1542    1.1125    0.0000 C   0  0  0  0  0  0  0  0  0  0  0  0
    2.1542   -0.0667    0.0000 C   0  0  0  0  0  0  0  0  0  0  0  0
    0.0292    2.4625    0.0000 C   0  0  0  0  0  0  0  0  0  0  0  0
   -0.9958    3.0500    0.0000 C   0  0  0  0  0  0  0  0  0  0  0  0
   -0.3000    3.0500    0.0000 C   0  0  0  0  0  0  0  0  0  0  0  0
    2.5000    0.5333    0.0000 C   0  0  0  0  0  0  0  0  0  0  0  0
  2  4  1  0  0  0  0
  3  5  1  0  0  0  0
  4  1  1  0  0  0  0
  5  6  2  0  0  0  0
  6  1  1  0  0  0  0
  7  3  1  0  0  0  0
  8  2  1  0  0  0  0
  9  8  2  0  0  0  0
 10  6  1  0  0  0  0
 11 15  1  0  0  0  0
 12 11  1  0  0  0  0
 13  1  1  0  0  0  0
 14  4  2  0  0  0  0
 15 10  1  0  0  0  0
 16 11  2  0  0  0  0
 17 12  1  0  0  0  0
 18 12  1  0  0  0  0
 19 13  1  0  0  0  0
 20  8  1  0  0  0  0
 21  9  1  0  0  0  0
 22 17  2  0  0  0  0
 23 17  1  0  0  0  0
 24 18  1  0  0  0  0
 25 18  1  0  0  0  0
 26 19  1  0  0  0  0
 27 19  2  0  0  0  0
 28 20  1  0  0  0  0
 29 28  1  0  0  0  0
 30 22  1  0  0  0  0
 31 23  2  0  0  0  0
 32 27  1  0  0  0  0
 33 26  2  0  0  0  0
 34 32  2  0  0  0  0
 35 31  1  0  0  0  0
  2  3  2  0  0  0  0
  9  7  1  0  0  0  0
 34 33  1  0  0  0  0
 21 29  1  0  0  0  0
 35 30  2  0  0  0  0
M  END
> <IDNUMBER>
F1008-0074

> <Chemical_Name>
2-({4-benzyl-3-oxo-8-thia-4,6-diazatricyclo[7.4.0.0^{2,7}]trideca-1(9),2(7),5-trien-5-yl}sulfanyl)-N-phenyl-N-(propan-2-yl)acetamide

> <CAS>
361174-99-4

> <PriceCoeff>
1.00

> <MW>
503.68

> <Description>
solid

> <FSP3>
0.32

> <clogP>
6.37

> <TPSA>
106.52

> <Acceptor>
3

> <Donor>
0

> <RotBonds>
8

> <HAC>
35

> <Collection>
General

> <Reference_compound>
CHEMBL577016

> <Similarity>
0.8270

$$$$
F3385-0075
  -ISIS-  06222321462D

 33 38  0  0  0  0  0  0  0  0999 V2000
    6.0792   -1.4542    0.0000 C   0  0  0  0  0  0  0  0  0  0  0  0
    5.3542   -1.8667    0.0000 C   0  0  0  0  0  0  0  0  0  0  0  0
    4.6375   -1.4542    0.0000 C   0  0  0  0  0  0  0  0  0  0  0  0
    6.0792   -0.6250    0.0000 C   0  0  0  0  0  0  0  0  0  0  0  0
    4.6417   -0.6250    0.0000 C   0  0  0  0  0  0  0  0  0  0  0  0
    6.7875   -1.8750    0.0000 C   0  0  0  0  0  0  0  0  0  0  0  0
    5.3542   -0.2042    0.0000 O   0  0  0  0  0  0  0  0  0  0  0  0
    1.7792   -0.6292    0.0000 C   0  0  0  0  0  0  0  0  0  0  0  0
    1.0667   -0.2167    0.0000 C   0  0  0  0  0  0  0  0  0  0  0  0
   -0.3583   -0.2167    0.0000 C   0  0  0  0  0  0  0  0  0  0  0  0
    8.2125   -1.8750    0.0000 C   0  0  0  0  0  0  0  0  0  0  0  0
    7.5000   -1.4625    0.0000 C   0  0  0  0  0  0  0  0  0  0  0  0
    3.9250   -0.2125    0.0000 C   0  0  0  0  0  0  0  0  0  0  0  0
    2.5000   -0.2167    0.0000 O   0  0  0  0  0  0  0  0  0  0  0  0
    3.9250   -1.8667    0.0000 C   0  0  0  0  0  0  0  0  0  0  0  0
    0.3625   -0.6292    0.0000 C   0  0  0  0  0  0  0  0  0  0  0  0
   -0.3500    0.6125    0.0000 C   0  0  0  0  0  0  0  0  0  0  0  0
    8.2042   -2.7000    0.0000 C   0  0  0  0  0  0  0  0  0  0  0  0
   -1.1458   -0.4750    0.0000 O   0  0  0  0  0  0  0  0  0  0  0  0
    3.2125   -0.6250    0.0000 C   0  0  0  0  0  0  0  0  0  0  0  0
    5.3542   -2.6917    0.0000 O   0  0  0  0  0  0  0  0  0  0  0  0
   -1.1458    0.8750    0.0000 O   0  0  0  0  0  0  0  0  0  0  0  0
   -1.6333    0.2000    0.0000 C   0  0  0  0  0  0  0  0  0  0  0  0
    8.9292   -1.4542    0.0000 O   0  0  0  0  0  0  0  0  0  0  0  0
    1.7792   -1.4542    0.0000 O   0  0  0  0  0  0  0  0  0  0  0  0
    6.7792   -2.7000    0.0000 C   0  0  0  0  0  0  0  0  0  0  0  0
    8.9167   -3.1167    0.0000 O   0  0  0  0  0  0  0  0  0  0  0  0
    1.0750    0.6125    0.0000 C   0  0  0  0  0  0  0  0  0  0  0  0
    7.4917   -3.1125    0.0000 C   0  0  0  0  0  0  0  0  0  0  0  0
    0.3542    1.0208    0.0000 C   0  0  0  0  0  0  0  0  0  0  0  0
    3.2125   -1.4542    0.0000 C   0  0  0  0  0  0  0  0  0  0  0  0
    9.6417   -1.8792    0.0000 C   0  0  0  0  0  0  0  0  0  0  0  0
    9.6417   -2.7042    0.0000 C   0  0  0  0  0  0  0  0  0  0  0  0
  2  1  1  0  0  0  0
  3  2  1  0  0  0  0
  4  1  2  0  0  0  0
  5  7  1  0  0  0  0
  6  1  1  0  0  0  0
  7  4  1  0  0  0  0
  8 14  1  0  0  0  0
  9  8  1  0  0  0  0
 10 16  2  0  0  0  0
 11 12  2  0  0  0  0
 12  6  1  0  0  0  0
 13  5  2  0  0  0  0
 14 20  1  0  0  0  0
 15  3  2  0  0  0  0
 16  9  1  0  0  0  0
 17 30  2  0  0  0  0
 18 29  2  0  0  0  0
 19 10  1  0  0  0  0
 20 13  1  0  0  0  0
 21  2  2  0  0  0  0
 22 17  1  0  0  0  0
 23 19  1  0  0  0  0
 24 11  1  0  0  0  0
 25  8  2  0  0  0  0
 26  6  2  0  0  0  0
 27 18  1  0  0  0  0
 28  9  2  0  0  0  0
 29 26  1  0  0  0  0
 30 28  1  0  0  0  0
 31 15  1  0  0  0  0
 32 24  1  0  0  0  0
 33 27  1  0  0  0  0
  3  5  1  0  0  0  0
 18 11  1  0  0  0  0
 31 20  2  0  0  0  0
 32 33  1  0  0  0  0
 17 10  1  0  0  0  0
 23 22  1  0  0  0  0
M  END
> <IDNUMBER>
F3385-0075

> <Chemical_Name>
3-(2,3-dihydro-1,4-benzodioxin-6-yl)-4-oxo-4H-chromen-7-yl 2H-1,3-benzodioxole-5-carboxylate

> <CAS>
637752-52-4

> <PriceCoeff>
1.00

> <MW>
444.39

> <Description>
solid

> <FSP3>
0.12

> <clogP>
4.76

> <TPSA>
89.52

> <Acceptor>
8

> <Donor>
0

> <RotBonds>
4

> <HAC>
33

> <Collection>
General

> <Reference_compound>
CHEMBL519221

> <Similarity>
0.8030

$$$$
F3385-6200
  -ISIS-  06222321462D

 33 36  0  0  0  0  0  0  0  0999 V2000
    0.9542   -0.5542    0.0000 C   0  0  0  0  0  0  0  0  0  0  0  0
    0.2375   -0.1417    0.0000 C   0  0  0  0  0  0  0  0  0  0  0  0
    1.6792   -0.1417    0.0000 C   0  0  0  0  0  0  0  0  0  0  0  0
    5.2417   -1.3917    0.0000 C   0  0  3  0  0  0  0  0  0  0  0  0
    5.2417   -0.5667    0.0000 C   0  0  3  0  0  0  0  0  0  0  0  0
    5.9625   -0.1542    0.0000 C   0  0  3  0  0  0  0  0  0  0  0  0
    0.2417    0.6875    0.0000 C   0  0  0  0  0  0  0  0  0  0  0  0
    5.9542   -1.8042    0.0000 O   0  0  0  0  0  0  0  0  0  0  0  0
    1.6792    0.6875    0.0000 C   0  0  0  0  0  0  0  0  0  0  0  0
    6.6750   -0.5667    0.0000 C   0  0  3  0  0  0  0  0  0  0  0  0
   -0.4750   -0.5542    0.0000 C   0  0  0  0  0  0  0  0  0  0  0  0
    6.6667   -1.3917    0.0000 C   0  0  3  0  0  0  0  0  0  0  0  0
    0.9542    1.1083    0.0000 O   0  0  0  0  0  0  0  0  0  0  0  0
   -0.4750    1.1000    0.0000 C   0  0  0  0  0  0  0  0  0  0  0  0
   -1.1875   -0.1417    0.0000 C   0  0  0  0  0  0  0  0  0  0  0  0
    4.5292   -1.8042    0.0000 O   0  0  0  0  0  0  0  0  0  0  0  0
    2.3792   -0.5625    0.0000 C   0  0  0  0  0  0  0  0  0  0  0  0
    0.9542   -1.3792    0.0000 O   0  0  0  0  0  0  0  0  0  0  0  0
   -1.1875    0.6875    0.0000 C   0  0  0  0  0  0  0  0  0  0  0  0
    4.5292   -0.1542    0.0000 O   0  0  0  0  0  0  0  0  0  0  0  0
    3.1000   -0.1500    0.0000 C   0  0  0  0  0  0  0  0  0  0  0  0
    2.3792   -1.3875    0.0000 C   0  0  0  0  0  0  0  0  0  0  0  0
    5.9625    0.6708    0.0000 O   0  0  0  0  0  0  0  0  0  0  0  0
    3.8125   -1.3917    0.0000 C   0  0  0  0  0  0  0  0  0  0  0  0
    7.3875   -0.1542    0.0000 O   0  0  0  0  0  0  0  0  0  0  0  0
   -0.4750   -1.3750    0.0000 O   0  0  0  0  0  0  0  0  0  0  0  0
    3.8125   -0.5625    0.0000 C   0  0  0  0  0  0  0  0  0  0  0  0
    3.0917   -1.8000    0.0000 C   0  0  0  0  0  0  0  0  0  0  0  0
    7.3792   -1.8125    0.0000 C   0  0  0  0  0  0  0  0  0  0  0  0
   -1.9083    1.1000    0.0000 O   0  0  0  0  0  0  0  0  0  0  0  0
    8.0125   -1.2792    0.0000 O   0  0  0  0  0  0  0  0  0  0  0  0
    0.2375   -1.7875    0.0000 C   0  0  0  0  0  0  0  0  0  0  0  0
   -2.6208    0.6875    0.0000 C   0  0  0  0  0  0  0  0  0  0  0  0
  2  1  1  0  0  0  0
  3  1  1  0  0  0  0
  4 16  1  0  0  0  0
  5  4  1  0  0  0  0
  6  5  1  0  0  0  0
  7  2  1  0  0  0  0
  8  4  1  0  0  0  0
  9  3  2  0  0  0  0
 10 12  1  0  0  0  0
 11  2  2  0  0  0  0
 12  8  1  0  0  0  0
 13  9  1  0  0  0  0
 14  7  2  0  0  0  0
 15 11  1  0  0  0  0
 16 24  1  0  0  0  0
 17  3  1  0  0  0  0
 18  1  2  0  0  0  0
 19 15  2  0  0  0  0
 20  5  1  0  0  0  0
 21 17  1  0  0  0  0
 22 17  2  0  0  0  0
 23  6  1  0  0  0  0
 24 28  2  0  0  0  0
 25 10  1  0  0  0  0
 26 11  1  0  0  0  0
 27 21  2  0  0  0  0
 28 22  1  0  0  0  0
 29 12  1  0  0  0  0
 30 19  1  0  0  0  0
 31 29  1  0  0  0  0
 32 26  1  0  0  0  0
 33 30  1  0  0  0  0
 13  7  1  0  0  0  0
 27 24  1  0  0  0  0
 19 14  1  0  0  0  0
 10  6  1  0  0  0  0
M  END
> <IDNUMBER>
F3385-6200

> <Chemical_Name>
5,7-dimethoxy-3-(4-{[3,4,5-trihydroxy-6-(hydroxymethyl)oxan-2-yl]oxy}phenyl)-4H-chromen-4-one

> <CAS>
1173199-68-2

> <PriceCoeff>
1.00

> <MW>
460.43

> <Description>
solid

> <FSP3>
0.35

> <clogP>
0.96

> <TPSA>
144.14

> <Acceptor>
10

> <Donor>
4

> <RotBonds>
6

> <HAC>
33

> <Collection>
General

> <Reference_compound>
CHEMBL2227762

> <Similarity>
0.9880

$$$$
F2051-0244
  -ISIS-  06222321142D

 33 36  0  0  0  0  0  0  0  0999 V2000
   -5.1833    6.2792    0.0000 S   0  0  3  0  0  0  0  0  0  0  0  0
   -4.4708    6.6917    0.0000 N   0  0  3  0  0  0  0  0  0  0  0  0
   -3.7708    0.4875    0.0000 N   0  3  0  0  0  0  0  0  0  0  0  0
   -3.7708    2.9833    0.0000 C   0  0  0  0  0  0  0  0  0  0  0  0
   -3.7500    6.2792    0.0000 C   0  0  0  0  0  0  0  0  0  0  0  0
   -3.7583    3.8000    0.0000 C   0  0  0  0  0  0  0  0  0  0  0  0
   -3.0375    2.5583    0.0000 C   0  0  0  0  0  0  0  0  0  0  0  0
   -3.7625    1.3125    0.0000 C   0  0  0  0  0  0  0  0  0  0  0  0
   -3.0375    1.7250    0.0000 C   0  0  0  0  0  0  0  0  0  0  0  0
   -5.9083    5.8792    0.0000 C   0  0  0  0  0  0  0  0  0  0  0  0
   -3.0458    4.2125    0.0000 N   0  0  0  0  0  0  0  0  0  0  0  0
   -3.7583    5.4542    0.0000 C   0  0  0  0  0  0  0  0  0  0  0  0
   -4.7833    5.5667    0.0000 O   0  0  0  0  0  0  0  0  0  0  0  0
   -5.5958    7.0000    0.0000 O   0  0  0  0  0  0  0  0  0  0  0  0
   -4.4833    2.5625    0.0000 C   0  0  0  0  0  0  0  0  0  0  0  0
   -4.4833    0.0833    0.0000 O   0  5  0  0  0  0  0  0  0  0  0  0
   -3.0458    5.0417    0.0000 C   0  0  0  0  0  0  0  0  0  0  0  0
   -3.0250    6.6917    0.0000 C   0  0  0  0  0  0  0  0  0  0  0  0
   -3.0583    0.0750    0.0000 O   0  0  0  0  0  0  0  0  0  0  0  0
   -4.4750    4.2042    0.0000 O   0  0  0  0  0  0  0  0  0  0  0  0
   -4.4833    1.7333    0.0000 C   0  0  0  0  0  0  0  0  0  0  0  0
   -5.9083    5.0667    0.0000 C   0  0  0  0  0  0  0  0  0  0  0  0
   -6.6042    6.3042    0.0000 C   0  0  0  0  0  0  0  0  0  0  0  0
   -2.3125    6.2792    0.0000 C   0  0  0  0  0  0  0  0  0  0  0  0
   -4.4583    7.5167    0.0000 C   0  0  0  0  0  0  0  0  0  0  0  0
   -2.3208    2.9625    0.0000 Cl  0  0  0  0  0  0  0  0  0  0  0  0
   -2.3208    5.4542    0.0000 C   0  0  0  0  0  0  0  0  0  0  0  0
   -7.3250    5.0792    0.0000 C   0  0  0  0  0  0  0  0  0  0  0  0
   -6.6042    4.6542    0.0000 C   0  0  0  0  0  0  0  0  0  0  0  0
   -7.3167    5.9042    0.0000 C   0  0  0  0  0  0  0  0  0  0  0  0
   -8.0417    4.6667    0.0000 F   0  0  0  0  0  0  0  0  0  0  0  0
   -3.7333    7.9292    0.0000 C   0  0  0  0  0  0  0  0  0  0  0  0
   -3.0208    7.5167    0.0000 C   0  0  0  0  0  0  0  0  0  0  0  0
  2  1  1  0  0  0  0
  3  8  1  0  0  0  0
  4  6  1  0  0  0  0
  5  2  1  0  0  0  0
  6 11  1  0  0  0  0
  7  4  1  0  0  0  0
  8 21  2  0  0  0  0
  9  7  2  0  0  0  0
 10  1  1  0  0  0  0
 11 17  1  0  0  0  0
 12  5  1  0  0  0  0
 13  1  2  0  0  0  0
 14  1  2  0  0  0  0
 15  4  2  0  0  0  0
 16  3  1  0  0  0  0
 17 12  2  0  0  0  0
 18  5  2  0  0  0  0
 19  3  2  0  0  0  0
 20  6  2  0  0  0  0
 21 15  1  0  0  0  0
 22 10  1  0  0  0  0
 23 10  2  0  0  0  0
 24 18  1  0  0  0  0
 25  2  1  0  0  0  0
 26  7  1  0  0  0  0
 27 24  2  0  0  0  0
 28 30  2  0  0  0  0
 29 22  2  0  0  0  0
 30 23  1  0  0  0  0
 31 28  1  0  0  0  0
 32 25  1  0  0  0  0
 33 32  1  0  0  0  0
 29 28  1  0  0  0  0
 18 33  1  0  0  0  0
 27 17  1  0  0  0  0
  9  8  1  0  0  0  0
M  CHG  2   3   1  16  -1
M  END
> <IDNUMBER>
F2051-0244

> <Chemical_Name>
2-chloro-N-[1-(4-fluorobenzenesulfonyl)-1,2,3,4-tetrahydroquinolin-7-yl]-4-nitrobenzamide

> <CAS>
941900-77-2

> <PriceCoeff>
1.00

> <MW>
489.90

> <Description>
solid

> <FSP3>
0.14

> <clogP>
4.24

> <TPSA>
118.00

> <Acceptor>
6

> <Donor>
1

> <RotBonds>
5

> <HAC>
33

> <Collection>
General

$$$$
F3394-0326
  -ISIS-  06222321462D

 32 36  0  0  0  0  0  0  0  0999 V2000
    3.0167   -1.5750    0.0000 C   0  0  0  0  0  0  0  0  0  0  0  0
    3.0167   -0.7500    0.0000 C   0  0  0  0  0  0  0  0  0  0  0  0
    1.5875   -1.5750    0.0000 N   0  0  3  0  0  0  0  0  0  0  0  0
    2.3042   -0.3375    0.0000 N   0  0  0  0  0  0  0  0  0  0  0  0
    1.5917   -0.7500    0.0000 C   0  0  0  0  0  0  0  0  0  0  0  0
    2.3042   -1.9875    0.0000 C   0  0  0  0  0  0  0  0  0  0  0  0
    3.8000   -0.4917    0.0000 S   0  0  0  0  0  0  0  0  0  0  0  0
    3.8000   -1.8292    0.0000 C   0  0  0  0  0  0  0  0  0  0  0  0
    4.2792   -1.1667    0.0000 C   0  0  0  0  0  0  0  0  0  0  0  0
   -1.2833   -0.7667    0.0000 C   0  0  0  0  0  0  0  0  0  0  0  0
    0.8667   -1.9875    0.0000 C   0  0  0  0  0  0  0  0  0  0  0  0
    2.3042   -2.8125    0.0000 O   0  0  0  0  0  0  0  0  0  0  0  0
    0.8667   -0.3375    0.0000 S   0  0  0  0  0  0  0  0  0  0  0  0
   -2.0000   -0.3625    0.0000 N   0  0  0  0  0  0  0  0  0  0  0  0
   -0.5708   -0.3417    0.0000 C   0  0  0  0  0  0  0  0  0  0  0  0
   -1.2750   -1.5917    0.0000 O   0  0  0  0  0  0  0  0  0  0  0  0
   -2.7208   -0.7792    0.0000 C   0  0  0  0  0  0  0  0  0  0  0  0
    0.1542   -0.7542    0.0000 C   0  0  0  0  0  0  0  0  0  0  0  0
    4.2875   -2.4917    0.0000 C   0  0  0  0  0  0  0  0  0  0  0  0
    5.0667   -1.4250    0.0000 C   0  0  0  0  0  0  0  0  0  0  0  0
   -4.1583   -1.6167    0.0000 C   0  0  0  0  0  0  0  0  0  0  0  0
   -3.4458   -0.3667    0.0000 C   0  0  0  0  0  0  0  0  0  0  0  0
   -2.7125   -1.6042    0.0000 C   0  0  0  0  0  0  0  0  0  0  0  0
   -4.1583   -0.7917    0.0000 C   0  0  0  0  0  0  0  0  0  0  0  0
   -3.4250   -2.0167    0.0000 C   0  0  0  0  0  0  0  0  0  0  0  0
    5.0750   -2.2292    0.0000 C   0  0  0  0  0  0  0  0  0  0  0  0
    0.1542   -1.5750    0.0000 C   0  0  0  0  0  0  0  0  0  0  0  0
    0.8667   -2.8167    0.0000 C   0  0  0  0  0  0  0  0  0  0  0  0
   -4.8833   -2.0417    0.0000 C   0  0  0  0  0  0  0  0  0  0  0  0
    0.1542   -3.2292    0.0000 C   0  0  0  0  0  0  0  0  0  0  0  0
   -0.5625   -1.9875    0.0000 C   0  0  0  0  0  0  0  0  0  0  0  0
   -0.5625   -2.8167    0.0000 C   0  0  0  0  0  0  0  0  0  0  0  0
  2  1  2  0  0  0  0
  3  6  1  0  0  0  0
  4  2  1  0  0  0  0
  5  3  1  0  0  0  0
  6  1  1  0  0  0  0
  7  2  1  0  0  0  0
  8  1  1  0  0  0  0
  9  8  2  0  0  0  0
 10 15  1  0  0  0  0
 11  3  1  0  0  0  0
 12  6  2  0  0  0  0
 13  5  1  0  0  0  0
 14 10  1  0  0  0  0
 15 18  1  0  0  0  0
 16 10  2  0  0  0  0
 17 14  1  0  0  0  0
 18 13  1  0  0  0  0
 19  8  1  0  0  0  0
 20  9  1  0  0  0  0
 21 25  1  0  0  0  0
 22 17  2  0  0  0  0
 23 17  1  0  0  0  0
 24 22  1  0  0  0  0
 25 23  2  0  0  0  0
 26 19  1  0  0  0  0
 27 11  2  0  0  0  0
 28 11  1  0  0  0  0
 29 21  1  0  0  0  0
 30 28  2  0  0  0  0
 31 27  1  0  0  0  0
 32 30  1  0  0  0  0
  9  7  1  0  0  0  0
 26 20  1  0  0  0  0
  4  5  2  0  0  0  0
 31 32  2  0  0  0  0
 24 21  2  0  0  0  0
M  END
> <IDNUMBER>
F3394-0326

> <Chemical_Name>
N-(4-methylphenyl)-3-({12-oxo-11-phenyl-7-thia-9,11-diazatricyclo[6.4.0.0^{2,6}]dodeca-1(8),2(6),9-trien-10-yl}sulfanyl)propanamide

> <CAS>
670273-15-1

> <PriceCoeff>
1.00

> <MW>
461.60

> <Description>
solid

> <FSP3>
0.24

> <clogP>
5.95

> <TPSA>
115.31

> <Acceptor>
3

> <Donor>
1

> <RotBonds>
6

> <HAC>
32

> <Collection>
General

> <Reference_compound>
CHEMBL577016

> <Similarity>
0.8390

$$$$
F3099-3874
  -ISIS-  06222321152D

 25 26  0  0  0  0  0  0  0  0999 V2000
    0.3792   -2.5500    0.0000 N   0  3  0  0  0  0  0  0  0  0  0  0
    0.3667    2.7708    0.0000 N   0  3  0  0  0  0  0  0  0  0  0  0
   -0.4000   -2.1000    0.0000 C   0  0  0  0  0  0  0  0  0  0  0  0
    0.3667    1.8958    0.0000 C   0  0  0  0  0  0  0  0  0  0  0  0
    1.1375    1.4500    0.0000 C   0  0  0  0  0  0  0  0  0  0  0  0
   -1.1500   -2.5500    0.0000 C   0  0  0  0  0  0  0  0  0  0  0  0
   -0.4000   -1.2167    0.0000 C   0  0  0  0  0  0  0  0  0  0  0  0
   -0.4125    1.4500    0.0000 C   0  0  0  0  0  0  0  0  0  0  0  0
    1.1000    3.2958    0.0000 O   0  5  0  0  0  0  0  0  0  0  0  0
    0.3792   -3.4292    0.0000 O   0  5  0  0  0  0  0  0  0  0  0  0
    1.9042   -0.7875    0.0000 C   0  0  0  0  0  0  0  0  0  0  0  0
    1.1500   -2.1000    0.0000 O   0  0  0  0  0  0  0  0  0  0  0  0
   -0.3625    3.2708    0.0000 O   0  0  0  0  0  0  0  0  0  0  0  0
    1.9042    0.1000    0.0000 N   0  0  0  0  0  0  0  0  0  0  0  0
    1.1375    0.5500    0.0000 C   0  0  0  0  0  0  0  0  0  0  0  0
    0.3792   -0.7875    0.0000 O   0  0  0  0  0  0  0  0  0  0  0  0
    2.6667   -1.2167    0.0000 O   0  0  0  0  0  0  0  0  0  0  0  0
   -1.1500   -0.7875    0.0000 C   0  0  0  0  0  0  0  0  0  0  0  0
   -0.4125    0.5500    0.0000 C   0  0  0  0  0  0  0  0  0  0  0  0
   -1.9125   -2.1000    0.0000 C   0  0  0  0  0  0  0  0  0  0  0  0
    1.1292   -1.2167    0.0000 C   0  0  0  0  0  0  0  0  0  0  0  0
    0.3667    0.1000    0.0000 C   0  0  0  0  0  0  0  0  0  0  0  0
   -1.1625    1.8833    0.0000 Cl  0  0  0  0  0  0  0  0  0  0  0  0
   -1.9125   -1.2167    0.0000 C   0  0  0  0  0  0  0  0  0  0  0  0
   -2.6958   -2.5500    0.0000 Br  0  0  0  0  0  0  0  0  0  0  0  0
  2  4  1  0  0  0  0
  3  1  1  0  0  0  0
  4  5  1  0  0  0  0
  5 15  2  0  0  0  0
  6  3  1  0  0  0  0
  7  3  2  0  0  0  0
  8 19  1  0  0  0  0
  9  2  1  0  0  0  0
 10  1  1  0  0  0  0
 11 21  1  0  0  0  0
 12  1  2  0  0  0  0
 13  2  2  0  0  0  0
 14 11  1  0  0  0  0
 15 14  1  0  0  0  0
 16  7  1  0  0  0  0
 17 11  2  0  0  0  0
 18  7  1  0  0  0  0
 19 22  2  0  0  0  0
 20  6  2  0  0  0  0
 21 16  1  0  0  0  0
 22 15  1  0  0  0  0
 23  8  1  0  0  0  0
 24 18  2  0  0  0  0
 25 20  1  0  0  0  0
 20 24  1  0  0  0  0
  8  4  2  0  0  0  0
M  CHG  4   1   1   2   1   9  -1  10  -1
M  END
> <IDNUMBER>
F3099-3874

> <Chemical_Name>
2-(4-bromo-2-nitrophenoxy)-N-(4-chloro-3-nitrophenyl)acetamide

> <CAS>
685853-18-3

> <PriceCoeff>
1.00

> <MW>
430.59

> <Description>
solid

> <FSP3>
0.07

> <clogP>
4.30

> <TPSA>
124.61

> <Acceptor>
6

> <Donor>
1

> <RotBonds>
6

> <HAC>
25

> <Collection>
General

$$$$
F0808-2337
  -ISIS-  06222321142D

 30 32  0  0  0  0  0  0  0  0999 V2000
   -2.4500    2.2833    0.0000 S   0  0  3  0  0  0  0  0  0  0  0  0
   -2.0125    2.5000    0.0000 N   0  0  3  0  0  0  0  0  0  0  0  0
   -0.3500    2.3625    0.0000 C   0  0  0  0  0  0  0  0  0  0  0  0
   -0.7958    2.2208    0.0000 C   0  0  0  0  0  0  0  0  0  0  0  0
   -3.3125    1.3625    0.0000 C   0  0  0  0  0  0  0  0  0  0  0  0
   -3.3333    0.8833    0.0000 N   0  3  0  0  0  0  0  0  0  0  0  0
   -0.0708    1.9833    0.0000 C   0  0  0  0  0  0  0  0  0  0  0  0
   -1.6125    2.2458    0.0000 C   0  0  0  0  0  0  0  0  0  0  0  0
   -2.8708    2.0625    0.0000 C   0  0  0  0  0  0  0  0  0  0  0  0
   -0.3500    1.6000    0.0000 O   0  0  0  0  0  0  0  0  0  0  0  0
   -2.8958    1.6000    0.0000 C   0  0  0  0  0  0  0  0  0  0  0  0
   -0.7958    1.7458    0.0000 C   0  0  0  0  0  0  0  0  0  0  0  0
   -1.2125    2.4625    0.0000 C   0  0  0  0  0  0  0  0  0  0  0  0
   -1.9958    2.9833    0.0000 C   0  0  0  0  0  0  0  0  0  0  0  0
   -2.2333    1.8625    0.0000 O   0  0  0  0  0  0  0  0  0  0  0  0
   -2.6708    2.7208    0.0000 O   0  0  0  0  0  0  0  0  0  0  0  0
   -0.1958    2.8208    0.0000 C   0  0  0  0  0  0  0  0  0  0  0  0
   -3.7333    1.6458    0.0000 C   0  0  0  0  0  0  0  0  0  0  0  0
   -2.9125    0.6458    0.0000 O   0  5  0  0  0  0  0  0  0  0  0  0
   -3.7333    0.6458    0.0000 O   0  0  0  0  0  0  0  0  0  0  0  0
   -1.6125    1.7458    0.0000 C   0  0  0  0  0  0  0  0  0  0  0  0
   -1.2125    1.5000    0.0000 C   0  0  0  0  0  0  0  0  0  0  0  0
   -3.2708    2.3208    0.0000 C   0  0  0  0  0  0  0  0  0  0  0  0
   -1.5708    3.2083    0.0000 O   0  0  0  0  0  0  0  0  0  0  0  0
   -0.4958    3.1833    0.0000 O   0  0  0  0  0  0  0  0  0  0  0  0
   -3.6958    2.1208    0.0000 C   0  0  0  0  0  0  0  0  0  0  0  0
   -4.1708    1.4458    0.0000 Cl  0  0  0  0  0  0  0  0  0  0  0  0
    0.4042    1.9625    0.0000 C   0  0  0  0  0  0  0  0  0  0  0  0
   -2.3958    3.2458    0.0000 C   0  0  0  0  0  0  0  0  0  0  0  0
    0.2875    2.9000    0.0000 C   0  0  0  0  0  0  0  0  0  0  0  0
  2  1  1  0  0  0  0
  3  4  1  0  0  0  0
  4 13  1  0  0  0  0
  5 11  2  0  0  0  0
  6  5  1  0  0  0  0
  7  3  2  0  0  0  0
  8  2  1  0  0  0  0
  9  1  1  0  0  0  0
 10 12  1  0  0  0  0
 11  9  1  0  0  0  0
 12 22  1  0  0  0  0
 13  8  2  0  0  0  0
 14  2  1  0  0  0  0
 15  1  2  0  0  0  0
 16  1  2  0  0  0  0
 17  3  1  0  0  0  0
 18 26  2  0  0  0  0
 19  6  1  0  0  0  0
 20  6  2  0  0  0  0
 21  8  1  0  0  0  0
 22 21  2  0  0  0  0
 23  9  2  0  0  0  0
 24 14  2  0  0  0  0
 25 17  2  0  0  0  0
 26 23  1  0  0  0  0
 27 18  1  0  0  0  0
 28  7  1  0  0  0  0
 29 14  1  0  0  0  0
 30 17  1  0  0  0  0
 18  5  1  0  0  0  0
 12  4  2  0  0  0  0
 10  7  1  0  0  0  0
M  CHG  2   6   1  19  -1
M  END
> <IDNUMBER>
F0808-2337

> <Chemical_Name>
N-(3-acetyl-2-methyl-1-benzofuran-5-yl)-N-(4-chloro-3-nitrobenzenesulfonyl)acetamide

> <CAS>
420106-71-4

> <PriceCoeff>
1.00

> <MW>
450.85

> <Description>
solid

> <FSP3>
0.16

> <clogP>
3.94

> <TPSA>
136.18

> <Acceptor>
7

> <Donor>
0

> <RotBonds>
6

> <HAC>
30

> <Collection>
General

$$$$
F1359-0198
  -ISIS-  06222321142D

 34 37  0  0  0  0  0  0  0  0999 V2000
   -1.1625    2.3833    0.0000 C   0  0  0  0  0  0  0  0  0  0  0  0
   -0.3375    2.3750    0.0000 N   0  0  0  0  0  0  0  0  0  0  0  0
    2.5542    1.6500    0.0000 N   0  0  3  0  0  0  0  0  0  0  0  0
   -1.6458    1.7208    0.0000 N   0  0  3  0  0  0  0  0  0  0  0  0
   -1.6458    3.0500    0.0000 S   0  0  0  0  0  0  0  0  0  0  0  0
   -2.4333    2.7958    0.0000 C   0  0  0  0  0  0  0  0  0  0  0  0
   -2.4333    1.9708    0.0000 C   0  0  0  0  0  0  0  0  0  0  0  0
    0.0750    3.0875    0.0000 C   0  0  0  0  0  0  0  0  0  0  0  0
    2.1292    2.3708    0.0000 C   0  0  0  0  0  0  0  0  0  0  0  0
    3.3667    1.5333    0.0000 C   0  0  0  0  0  0  0  0  0  0  0  0
    2.1750    0.9125    0.0000 C   0  0  0  0  0  0  0  0  0  0  0  0
   -4.5833    3.2125    0.0000 C   0  0  0  0  0  0  0  0  0  0  0  0
   -3.1458    3.2083    0.0000 C   0  0  0  0  0  0  0  0  0  0  0  0
   -3.8583    2.7958    0.0000 C   0  0  0  0  0  0  0  0  0  0  0  0
    1.3125    2.3750    0.0000 C   0  0  0  0  0  0  0  0  0  0  0  0
    0.9000    3.0875    0.0000 C   0  0  0  0  0  0  0  0  0  0  0  0
   -3.1458    1.5583    0.0000 C   0  0  0  0  0  0  0  0  0  0  0  0
   -0.3375    3.8000    0.0000 O   0  0  0  0  0  0  0  0  0  0  0  0
    3.5042    0.7125    0.0000 C   0  0  0  0  0  0  0  0  0  0  0  0
    2.7792    0.3250    0.0000 C   0  0  0  0  0  0  0  0  0  0  0  0
    3.9500    2.1083    0.0000 O   0  0  0  0  0  0  0  0  0  0  0  0
    1.3667    0.7833    0.0000 O   0  0  0  0  0  0  0  0  0  0  0  0
   -3.8583    1.9708    0.0000 C   0  0  0  0  0  0  0  0  0  0  0  0
   -5.2958    2.8000    0.0000 O   0  0  0  0  0  0  0  0  0  0  0  0
   -1.3958    0.9333    0.0000 C   0  0  0  0  0  0  0  0  0  0  0  0
   -4.5708    4.0292    0.0000 O   0  0  0  0  0  0  0  0  0  0  0  0
    2.5542    3.0833    0.0000 C   0  0  0  0  0  0  0  0  0  0  0  0
    1.3167    3.8083    0.0000 C   0  0  0  0  0  0  0  0  0  0  0  0
    2.1417    3.8000    0.0000 C   0  0  0  0  0  0  0  0  0  0  0  0
   -2.7500    0.4875    0.0000 O   0  0  0  0  0  0  0  0  0  0  0  0
   -1.9458    0.3208    0.0000 C   0  0  0  0  0  0  0  0  0  0  0  0
   -5.2958    4.4542    0.0000 C   0  0  0  0  0  0  0  0  0  0  0  0
   -3.3083   -0.1250    0.0000 C   0  0  0  0  0  0  0  0  0  0  0  0
   -5.2875    5.2750    0.0000 C   0  0  0  0  0  0  0  0  0  0  0  0
  2  1  2  0  0  0  0
  3  9  1  0  0  0  0
  4  1  1  0  0  0  0
  5  1  1  0  0  0  0
  6  5  1  0  0  0  0
  7  4  1  0  0  0  0
  8  2  1  0  0  0  0
  9 15  1  0  0  0  0
 10  3  1  0  0  0  0
 11  3  1  0  0  0  0
 12 14  1  0  0  0  0
 13  6  1  0  0  0  0
 14 13  2  0  0  0  0
 15 16  2  0  0  0  0
 16  8  1  0  0  0  0
 17  7  1  0  0  0  0
 18  8  2  0  0  0  0
 19 10  1  0  0  0  0
 20 11  1  0  0  0  0
 21 10  2  0  0  0  0
 22 11  2  0  0  0  0
 23 17  2  0  0  0  0
 24 12  2  0  0  0  0
 25  4  1  0  0  0  0
 26 12  1  0  0  0  0
 27 29  1  0  0  0  0
 28 16  1  0  0  0  0
 29 28  2  0  0  0  0
 30 31  1  0  0  0  0
 31 25  1  0  0  0  0
 32 26  1  0  0  0  0
 33 30  1  0  0  0  0
 34 32  1  0  0  0  0
  7  6  2  0  0  0  0
 23 14  1  0  0  0  0
  9 27  2  0  0  0  0
 19 20  1  0  0  0  0
M  END
> <IDNUMBER>
F1359-0198

> <Chemical_Name>
ethyl (2Z)-2-{[3-(2,5-dioxopyrrolidin-1-yl)benzoyl]imino}-3-(2-methoxyethyl)-2,3-dihydro-1,3-benzothiazole-6-carboxylate

> <CAS>
864975-16-6

> <PriceCoeff>
1.00

> <MW>
481.52

> <Description>
solid

> <FSP3>
0.29

> <clogP>
3.12

> <TPSA>
130.88

> <Acceptor>
6

> <Donor>
0

> <RotBonds>
9

> <HAC>
34

> <Collection>
General

$$$$
F1359-0180
  -ISIS-  06222321442D

 34 37  0  0  0  0  0  0  0  0999 V2000
   -1.1625    2.3833    0.0000 C   0  0  0  0  0  0  0  0  0  0  0  0
   -0.3375    2.3750    0.0000 N   0  0  0  0  0  0  0  0  0  0  0  0
   -1.6458    1.7208    0.0000 N   0  0  3  0  0  0  0  0  0  0  0  0
    3.3792    3.0708    0.0000 N   0  0  3  0  0  0  0  0  0  0  0  0
   -1.6458    3.0500    0.0000 S   0  0  0  0  0  0  0  0  0  0  0  0
   -2.4333    2.7958    0.0000 C   0  0  0  0  0  0  0  0  0  0  0  0
   -2.4333    1.9708    0.0000 C   0  0  0  0  0  0  0  0  0  0  0  0
    0.0750    3.0875    0.0000 C   0  0  0  0  0  0  0  0  0  0  0  0
    3.8500    3.7583    0.0000 C   0  0  0  0  0  0  0  0  0  0  0  0
    3.8917    2.4250    0.0000 C   0  0  0  0  0  0  0  0  0  0  0  0
   -4.5833    3.2125    0.0000 C   0  0  0  0  0  0  0  0  0  0  0  0
   -3.1458    3.2083    0.0000 C   0  0  0  0  0  0  0  0  0  0  0  0
   -3.8583    2.7958    0.0000 C   0  0  0  0  0  0  0  0  0  0  0  0
    2.5542    3.0833    0.0000 C   0  0  0  0  0  0  0  0  0  0  0  0
   -3.1458    1.5583    0.0000 C   0  0  0  0  0  0  0  0  0  0  0  0
    0.9000    3.0875    0.0000 C   0  0  0  0  0  0  0  0  0  0  0  0
   -0.3375    3.8000    0.0000 O   0  0  0  0  0  0  0  0  0  0  0  0
    4.6417    3.5250    0.0000 C   0  0  0  0  0  0  0  0  0  0  0  0
    4.6667    2.7083    0.0000 C   0  0  0  0  0  0  0  0  0  0  0  0
    3.5667    4.5417    0.0000 O   0  0  0  0  0  0  0  0  0  0  0  0
    3.6667    1.6333    0.0000 O   0  0  0  0  0  0  0  0  0  0  0  0
   -3.8583    1.9708    0.0000 C   0  0  0  0  0  0  0  0  0  0  0  0
   -5.2958    2.8000    0.0000 O   0  0  0  0  0  0  0  0  0  0  0  0
    2.1417    3.8000    0.0000 C   0  0  0  0  0  0  0  0  0  0  0  0
    2.1292    2.3708    0.0000 C   0  0  0  0  0  0  0  0  0  0  0  0
    1.3125    2.3833    0.0000 C   0  0  0  0  0  0  0  0  0  0  0  0
    1.3250    3.8083    0.0000 C   0  0  0  0  0  0  0  0  0  0  0  0
   -1.3958    0.9333    0.0000 C   0  0  0  0  0  0  0  0  0  0  0  0
   -4.5708    4.0292    0.0000 O   0  0  0  0  0  0  0  0  0  0  0  0
   -2.7500    0.4875    0.0000 O   0  0  0  0  0  0  0  0  0  0  0  0
   -1.9458    0.3208    0.0000 C   0  0  0  0  0  0  0  0  0  0  0  0
   -5.2958    4.4542    0.0000 C   0  0  0  0  0  0  0  0  0  0  0  0
   -3.3083   -0.1250    0.0000 C   0  0  0  0  0  0  0  0  0  0  0  0
   -5.2875    5.2750    0.0000 C   0  0  0  0  0  0  0  0  0  0  0  0
  2  1  2  0  0  0  0
  3  1  1  0  0  0  0
  4 14  1  0  0  0  0
  5  1  1  0  0  0  0
  6  5  1  0  0  0  0
  7  3  1  0  0  0  0
  8  2  1  0  0  0  0
  9  4  1  0  0  0  0
 10  4  1  0  0  0  0
 11 13  1  0  0  0  0
 12  6  1  0  0  0  0
 13 12  2  0  0  0  0
 14 24  1  0  0  0  0
 15  7  1  0  0  0  0
 16  8  1  0  0  0  0
 17  8  2  0  0  0  0
 18  9  1  0  0  0  0
 19 10  1  0  0  0  0
 20  9  2  0  0  0  0
 21 10  2  0  0  0  0
 22 15  2  0  0  0  0
 23 11  2  0  0  0  0
 24 27  2  0  0  0  0
 25 26  1  0  0  0  0
 26 16  2  0  0  0  0
 27 16  1  0  0  0  0
 28  3  1  0  0  0  0
 29 11  1  0  0  0  0
 30 31  1  0  0  0  0
 31 28  1  0  0  0  0
 32 29  1  0  0  0  0
 33 30  1  0  0  0  0
 34 32  1  0  0  0  0
  7  6  2  0  0  0  0
 22 13  1  0  0  0  0
 14 25  2  0  0  0  0
 18 19  1  0  0  0  0
M  END
> <IDNUMBER>
F1359-0180

> <Chemical_Name>
ethyl (2Z)-2-{[4-(2,5-dioxopyrrolidin-1-yl)benzoyl]imino}-3-(2-methoxyethyl)-2,3-dihydro-1,3-benzothiazole-6-carboxylate

> <CAS>
864975-14-4

> <PriceCoeff>
1.00

> <MW>
481.52

> <Description>
solid

> <FSP3>
0.29

> <clogP>
3.12

> <TPSA>
130.88

> <Acceptor>
6

> <Donor>
0

> <RotBonds>
9

> <HAC>
34

> <Collection>
General

$$$$
F1365-0180
  -ISIS-  06222321142D

 33 36  0  0  0  0  0  0  0  0999 V2000
   -1.1625    2.3833    0.0000 C   0  0  0  0  0  0  0  0  0  0  0  0
   -0.3375    2.3750    0.0000 N   0  0  0  0  0  0  0  0  0  0  0  0
   -1.6458    1.7208    0.0000 N   0  0  3  0  0  0  0  0  0  0  0  0
    3.3792    3.0708    0.0000 N   0  0  3  0  0  0  0  0  0  0  0  0
   -1.6458    3.0500    0.0000 S   0  0  0  0  0  0  0  0  0  0  0  0
   -2.4333    2.7958    0.0000 C   0  0  0  0  0  0  0  0  0  0  0  0
   -2.4333    1.9708    0.0000 C   0  0  0  0  0  0  0  0  0  0  0  0
    0.0750    3.0875    0.0000 C   0  0  0  0  0  0  0  0  0  0  0  0
    3.8500    3.7583    0.0000 C   0  0  0  0  0  0  0  0  0  0  0  0
    3.8917    2.4250    0.0000 C   0  0  0  0  0  0  0  0  0  0  0  0
   -4.5833    3.2125    0.0000 C   0  0  0  0  0  0  0  0  0  0  0  0
   -3.1458    3.2083    0.0000 C   0  0  0  0  0  0  0  0  0  0  0  0
   -3.8583    2.7958    0.0000 C   0  0  0  0  0  0  0  0  0  0  0  0
    2.5542    3.0833    0.0000 C   0  0  0  0  0  0  0  0  0  0  0  0
   -3.1458    1.5583    0.0000 C   0  0  0  0  0  0  0  0  0  0  0  0
    0.9000    3.0875    0.0000 C   0  0  0  0  0  0  0  0  0  0  0  0
   -0.3375    3.8000    0.0000 O   0  0  0  0  0  0  0  0  0  0  0  0
    4.6417    3.5250    0.0000 C   0  0  0  0  0  0  0  0  0  0  0  0
    4.6667    2.7083    0.0000 C   0  0  0  0  0  0  0  0  0  0  0  0
    3.5667    4.5417    0.0000 O   0  0  0  0  0  0  0  0  0  0  0  0
    3.6667    1.6333    0.0000 O   0  0  0  0  0  0  0  0  0  0  0  0
   -3.8583    1.9708    0.0000 C   0  0  0  0  0  0  0  0  0  0  0  0
   -5.2958    2.8000    0.0000 O   0  0  0  0  0  0  0  0  0  0  0  0
    2.1417    3.8000    0.0000 C   0  0  0  0  0  0  0  0  0  0  0  0
    2.1292    2.3708    0.0000 C   0  0  0  0  0  0  0  0  0  0  0  0
    1.3125    2.3833    0.0000 C   0  0  0  0  0  0  0  0  0  0  0  0
    1.3250    3.8083    0.0000 C   0  0  0  0  0  0  0  0  0  0  0  0
   -1.9458    0.3208    0.0000 C   0  0  0  0  0  0  0  0  0  0  0  0
   -1.3958    0.9333    0.0000 C   0  0  0  0  0  0  0  0  0  0  0  0
   -2.7500    0.4875    0.0000 C   0  0  0  0  0  0  0  0  0  0  0  0
   -4.5708    4.0292    0.0000 O   0  0  0  0  0  0  0  0  0  0  0  0
   -5.2958    4.4542    0.0000 C   0  0  0  0  0  0  0  0  0  0  0  0
   -5.2875    5.2750    0.0000 C   0  0  0  0  0  0  0  0  0  0  0  0
  2  1  2  0  0  0  0
  3  1  1  0  0  0  0
  4 14  1  0  0  0  0
  5  1  1  0  0  0  0
  6  5  1  0  0  0  0
  7  3  1  0  0  0  0
  8  2  1  0  0  0  0
  9  4  1  0  0  0  0
 10  4  1  0  0  0  0
 11 13  1  0  0  0  0
 12  6  1  0  0  0  0
 13 12  2  0  0  0  0
 14 24  1  0  0  0  0
 15  7  1  0  0  0  0
 16  8  1  0  0  0  0
 17  8  2  0  0  0  0
 18  9  1  0  0  0  0
 19 10  1  0  0  0  0
 20  9  2  0  0  0  0
 21 10  2  0  0  0  0
 22 15  2  0  0  0  0
 23 11  2  0  0  0  0
 24 27  2  0  0  0  0
 25 26  1  0  0  0  0
 26 16  2  0  0  0  0
 27 16  1  0  0  0  0
 28 29  1  0  0  0  0
 29  3  1  0  0  0  0
 30 28  2  0  0  0  0
 31 11  1  0  0  0  0
 32 31  1  0  0  0  0
 33 32  1  0  0  0  0
  7  6  2  0  0  0  0
 22 13  1  0  0  0  0
 14 25  2  0  0  0  0
 18 19  1  0  0  0  0
M  END
> <IDNUMBER>
F1365-0180

> <Chemical_Name>
ethyl (2Z)-2-{[4-(2,5-dioxopyrrolidin-1-yl)benzoyl]imino}-3-(prop-2-en-1-yl)-2,3-dihydro-1,3-benzothiazole-6-carboxylate

> <CAS>
865174-65-8

> <PriceCoeff>
1.00

> <MW>
463.51

> <Description>
solid

> <FSP3>
0.21

> <clogP>
4.22

> <TPSA>
121.65

> <Acceptor>
5

> <Donor>
0

> <RotBonds>
8

> <HAC>
33

> <Collection>
General

$$$$
F0909-0011
  -ISIS-  06222321452D

 28 33  0  0  0  0  0  0  0  0999 V2000
    2.2042    0.8625    0.0000 C   0  0  0  0  0  0  0  0  0  0  0  0
    2.2042   -2.4417    0.0000 C   0  0  0  0  0  0  0  0  0  0  0  0
    2.8667    1.3458    0.0000 N   0  0  0  0  0  0  0  0  0  0  0  0
    1.5417   -2.9250    0.0000 N   0  0  0  0  0  0  0  0  0  0  0  0
    1.5292    1.3458    0.0000 O   0  0  0  0  0  0  0  0  0  0  0  0
    2.8792   -2.9292    0.0000 O   0  0  0  0  0  0  0  0  0  0  0  0
    2.2042   -1.6167    0.0000 C   0  0  0  0  0  0  0  0  0  0  0  0
    2.2042    0.0375    0.0000 C   0  0  0  0  0  0  0  0  0  0  0  0
    1.4917   -1.2042    0.0000 C   0  0  0  0  0  0  0  0  0  0  0  0
    1.4917   -0.3792    0.0000 C   0  0  0  0  0  0  0  0  0  0  0  0
    2.6125    2.1333    0.0000 C   0  0  0  0  0  0  0  0  0  0  0  0
    1.8042   -3.7042    0.0000 C   0  0  0  0  0  0  0  0  0  0  0  0
    2.6292   -3.7125    0.0000 C   0  0  0  0  0  0  0  0  0  0  0  0
    1.7792    2.1250    0.0000 C   0  0  0  0  0  0  0  0  0  0  0  0
    2.9250   -0.3750    0.0000 C   0  0  0  0  0  0  0  0  0  0  0  0
    2.9250   -1.2042    0.0000 C   0  0  0  0  0  0  0  0  0  0  0  0
    0.7792    0.0333    0.0000 C   0  0  0  0  0  0  0  0  0  0  0  0
    0.7792   -1.6167    0.0000 C   0  0  0  0  0  0  0  0  0  0  0  0
    3.0167    2.8458    0.0000 C   0  0  0  0  0  0  0  0  0  0  0  0
    1.3917   -4.4167    0.0000 C   0  0  0  0  0  0  0  0  0  0  0  0
    1.3667    2.8375    0.0000 C   0  0  0  0  0  0  0  0  0  0  0  0
    3.0375   -4.4167    0.0000 C   0  0  0  0  0  0  0  0  0  0  0  0
    0.0667   -1.2042    0.0000 C   0  0  0  0  0  0  0  0  0  0  0  0
    0.0667   -0.3792    0.0000 C   0  0  0  0  0  0  0  0  0  0  0  0
    1.7750    3.5500    0.0000 C   0  0  0  0  0  0  0  0  0  0  0  0
    1.8042   -5.1292    0.0000 C   0  0  0  0  0  0  0  0  0  0  0  0
    2.6292   -5.1292    0.0000 C   0  0  0  0  0  0  0  0  0  0  0  0
    2.6042    3.5583    0.0000 C   0  0  0  0  0  0  0  0  0  0  0  0
  2  7  1  0  0  0  0
  3  1  2  0  0  0  0
  4  2  2  0  0  0  0
  5  1  1  0  0  0  0
  6  2  1  0  0  0  0
  7 16  2  0  0  0  0
  8  1  1  0  0  0  0
  9 10  1  0  0  0  0
 10  8  1  0  0  0  0
 11  3  1  0  0  0  0
 12  4  1  0  0  0  0
 13  6  1  0  0  0  0
 14  5  1  0  0  0  0
 15  8  2  0  0  0  0
 16 15  1  0  0  0  0
 17 10  2  0  0  0  0
 18  9  2  0  0  0  0
 19 11  2  0  0  0  0
 20 12  2  0  0  0  0
 21 14  2  0  0  0  0
 22 13  2  0  0  0  0
 23 24  2  0  0  0  0
 24 17  1  0  0  0  0
 25 21  1  0  0  0  0
 26 20  1  0  0  0  0
 27 22  1  0  0  0  0
 28 19  1  0  0  0  0
 14 11  1  0  0  0  0
  9  7  1  0  0  0  0
 28 25  2  0  0  0  0
 18 23  1  0  0  0  0
 13 12  1  0  0  0  0
 26 27  2  0  0  0  0
M  END
> <IDNUMBER>
F0909-0011

> <Chemical_Name>
2-[4-(1,3-benzoxazol-2-yl)naphthalen-1-yl]-1,3-benzoxazole

> <CAS>
5089-22-5

> <PriceCoeff>
1.00

> <MW>
362.38

> <Description>
solid

> <FSP3>
0.00

> <clogP>
6.06

> <TPSA>
52.06

> <Acceptor>
4

> <Donor>
0

> <RotBonds>
2

> <HAC>
28

> <Collection>
General

> <Reference_compound>
CHEMBL2269947

> <Similarity>
0.8090

$$$$
F3139-0724
  -ISIS-  06222321442D

 32 35  0  0  0  0  0  0  0  0999 V2000
    1.9167   -2.9792    0.0000 C   0  0  0  0  0  0  0  0  0  0  0  0
    1.2042   -2.5667    0.0000 C   0  0  0  0  0  0  0  0  0  0  0  0
    2.6417   -2.5667    0.0000 C   0  0  0  0  0  0  0  0  0  0  0  0
    6.2167   -3.8042    0.0000 C   0  0  1  0  0  0  0  0  0  0  0  0
    6.2167   -2.9792    0.0000 C   0  0  1  0  0  0  0  0  0  0  0  0
    6.9292   -2.5792    0.0000 C   0  0  2  0  0  0  0  0  0  0  0  0
    1.2042   -1.7292    0.0000 C   0  0  0  0  0  0  0  0  0  0  0  0
    6.9292   -4.2292    0.0000 O   0  0  0  0  0  0  0  0  0  0  0  0
    2.6417   -1.7292    0.0000 C   0  0  0  0  0  0  0  0  0  0  0  0
    7.6417   -2.9792    0.0000 C   0  0  1  0  0  0  0  0  0  0  0  0
    0.4917   -2.9667    0.0000 C   0  0  0  0  0  0  0  0  0  0  0  0
    7.6417   -3.8167    0.0000 C   0  0  1  0  0  0  0  0  0  0  0  0
    1.9167   -1.3042    0.0000 O   0  0  0  0  0  0  0  0  0  0  0  0
    0.4917   -1.3167    0.0000 C   0  0  0  0  0  0  0  0  0  0  0  0
   -0.2208   -2.5542    0.0000 C   0  0  0  0  0  0  0  0  0  0  0  0
    5.5042   -4.2167    0.0000 O   0  0  0  0  0  0  0  0  0  0  0  0
    3.3542   -2.9792    0.0000 C   0  0  0  0  0  0  0  0  0  0  0  0
    1.9167   -3.8042    0.0000 O   0  0  0  0  0  0  0  0  0  0  0  0
   -0.2208   -1.7292    0.0000 C   0  0  0  0  0  0  0  0  0  0  0  0
    5.5042   -2.5667    0.0000 O   0  0  0  0  0  0  0  0  0  0  0  0
    4.0667   -2.5667    0.0000 C   0  0  0  0  0  0  0  0  0  0  0  0
    3.3542   -3.8042    0.0000 C   0  0  0  0  0  0  0  0  0  0  0  0
    6.9417   -1.7542    0.0000 O   0  0  0  0  0  0  0  0  0  0  0  0
    4.7792   -3.8042    0.0000 C   0  0  0  0  0  0  0  0  0  0  0  0
    0.4917   -3.7917    0.0000 O   0  0  0  0  0  0  0  0  0  0  0  0
    8.3542   -2.5792    0.0000 O   0  0  0  0  0  0  0  0  0  0  0  0
    4.7792   -2.9792    0.0000 C   0  0  0  0  0  0  0  0  0  0  0  0
    4.0667   -4.2167    0.0000 C   0  0  0  0  0  0  0  0  0  0  0  0
    8.3542   -4.2292    0.0000 C   0  0  0  0  0  0  0  0  0  0  0  0
   -0.9333   -1.3167    0.0000 O   0  0  0  0  0  0  0  0  0  0  0  0
    8.9792   -3.6917    0.0000 O   0  0  0  0  0  0  0  0  0  0  0  0
   -1.6458   -1.7292    0.0000 C   0  0  0  0  0  0  0  0  0  0  0  0
  2  1  1  0  0  0  0
  3  1  1  0  0  0  0
  4 16  1  1  0  0  0
  5  4  1  0  0  0  0
  6  5  1  0  0  0  0
  7  2  1  0  0  0  0
  8  4  1  0  0  0  0
  9  3  2  0  0  0  0
 10 12  1  0  0  0  0
 11  2  2  0  0  0  0
 12  8  1  0  0  0  0
 13  9  1  0  0  0  0
 14  7  2  0  0  0  0
 15 11  1  0  0  0  0
 16 24  1  0  0  0  0
 17  3  1  0  0  0  0
 18  1  2  0  0  0  0
 19 15  2  0  0  0  0
  5 20  1  6  0  0  0
 21 17  1  0  0  0  0
 22 17  2  0  0  0  0
  6 23  1  1  0  0  0
 24 28  2  0  0  0  0
 25 11  1  0  0  0  0
 10 26  1  6  0  0  0
 27 21  2  0  0  0  0
 28 22  1  0  0  0  0
 12 29  1  1  0  0  0
 30 19  1  0  0  0  0
 31 29  1  0  0  0  0
 32 30  1  0  0  0  0
  7 13  1  0  0  0  0
 27 24  1  0  0  0  0
 14 19  1  0  0  0  0
  6 10  1  0  0  0  0
M  END
> <IDNUMBER>
F3139-0724

> <Chemical_Name>
5-hydroxy-7-methoxy-3-(4-{[(2S,3R,4S,5S,6R)-3,4,5-trihydroxy-6-(hydroxymethyl)oxan-2-yl]oxy}phenyl)-4H-chromen-4-one

> <CAS>
154-36-9

> <PriceCoeff>
1.00

> <MW>
446.40

> <Description>
solid

> <FSP3>
0.32

> <clogP>
1.49

> <TPSA>
155.14

> <Acceptor>
10

> <Donor>
5

> <RotBonds>
5

> <HAC>
32

> <Collection>
General

> <Reference_compound>
CHEMBL2227762

> <Similarity>
0.9920

$$$$
F1576-0009
  -ISIS-  06222321142D

 29 32  0  0  0  0  0  0  0  0999 V2000
   12.9167   -4.0042    0.0000 C   0  0  0  0  0  0  0  0  0  0  0  0
   12.2542   -5.5042    0.0000 C   0  0  0  0  0  0  0  0  0  0  0  0
   14.5167   -3.6625    0.0000 N   0  0  0  0  0  0  0  0  0  0  0  0
    9.9542   -7.1792    0.0000 C   0  0  0  0  0  0  0  0  0  0  0  0
   10.6250   -5.6792    0.0000 C   0  0  0  0  0  0  0  0  0  0  0  0
    2.5042  -12.4750    0.0000 N   0  3  0  0  0  0  0  0  0  0  0  0
   12.0917   -2.5917    0.0000 S   0  0  0  0  0  0  0  0  0  0  0  0
    8.1917   -9.1667    0.0000 C   0  0  0  0  0  0  0  0  0  0  0  0
    8.3542   -7.5292    0.0000 O   0  0  0  0  0  0  0  0  0  0  0  0
    6.7750  -10.0000    0.0000 C   0  0  0  0  0  0  0  0  0  0  0  0
    5.3500   -9.1792    0.0000 C   0  0  0  0  0  0  0  0  0  0  0  0
    3.9292  -11.6500    0.0000 C   0  0  0  0  0  0  0  0  0  0  0  0
   13.4167   -6.6667    0.0000 C   0  0  0  0  0  0  0  0  0  0  0  0
   10.7875   -8.6042    0.0000 C   0  0  0  0  0  0  0  0  0  0  0  0
    9.6917   -9.8250    0.0000 C   0  0  0  0  0  0  0  0  0  0  0  0
    3.9292  -10.0000    0.0000 C   0  0  0  0  0  0  0  0  0  0  0  0
   14.6792   -2.0292    0.0000 C   0  0  0  0  0  0  0  0  0  0  0  0
   13.1875   -1.3667    0.0000 C   0  0  0  0  0  0  0  0  0  0  0  0
   14.5792   -7.8167    0.0000 N   0  0  0  0  0  0  0  0  0  0  0  0
    6.7750  -11.6500    0.0000 C   0  0  0  0  0  0  0  0  0  0  0  0
    1.0750  -11.6500    0.0000 O   0  5  0  0  0  0  0  0  0  0  0  0
    2.5042  -14.1167    0.0000 O   0  0  0  0  0  0  0  0  0  0  0  0
    5.3500  -12.4750    0.0000 C   0  0  0  0  0  0  0  0  0  0  0  0
    9.4542   -4.5042    0.0000 O   0  0  0  0  0  0  0  0  0  0  0  0
    5.3375   -7.5375    0.0000 Cl  0  0  0  0  0  0  0  0  0  0  0  0
   16.0000   -1.0542    0.0000 C   0  0  0  0  0  0  0  0  0  0  0  0
   13.0042    0.2500    0.0000 C   0  0  0  0  0  0  0  0  0  0  0  0
   15.8250    0.5708    0.0000 C   0  0  0  0  0  0  0  0  0  0  0  0
   14.3125    1.2208    0.0000 C   0  0  0  0  0  0  0  0  0  0  0  0
  2  1  1  0  0  0  0
  3  1  2  0  0  0  0
  4  5  1  0  0  0  0
  5  2  2  0  0  0  0
  6 12  1  0  0  0  0
  7  1  1  0  0  0  0
  8  9  1  0  0  0  0
  9  4  1  0  0  0  0
 10  8  1  0  0  0  0
 11 10  2  0  0  0  0
 12 23  1  0  0  0  0
 13  2  1  0  0  0  0
 14  4  2  0  0  0  0
 15 14  1  0  0  0  0
 16 11  1  0  0  0  0
 17  3  1  0  0  0  0
 18  7  1  0  0  0  0
 19 13  3  0  0  0  0
 20 10  1  0  0  0  0
 21  6  1  0  0  0  0
 22  6  2  0  0  0  0
 23 20  2  0  0  0  0
 24  5  1  0  0  0  0
 25 11  1  0  0  0  0
 26 17  1  0  0  0  0
 27 18  1  0  0  0  0
 28 26  2  0  0  0  0
 29 27  2  0  0  0  0
 17 18  2  0  0  0  0
 29 28  1  0  0  0  0
 15  8  2  0  0  0  0
 12 16  2  0  0  0  0
M  CHG  2   6   1  21  -1
M  END
> <IDNUMBER>
F1576-0009

> <Chemical_Name>
(2Z)-2-(1,3-benzothiazol-2-yl)-3-[5-(2-chloro-4-nitrophenyl)furan-2-yl]-3-hydroxyprop-2-enenitrile

> <CAS>
627041-40-1

> <PriceCoeff>
1.00

> <MW>
423.83

> <Description>
solid

> <FSP3>
0.00

> <clogP>
4.22

> <TPSA>
141.43

> <Acceptor>
6

> <Donor>
1

> <RotBonds>
4

> <HAC>
29

> <Collection>
General

$$$$
F0651-0071
  -ISIS-  06222321142D

 24 26  0  0  0  0  0  0  0  0999 V2000
    8.7542   -9.3417    0.0000 N   0  3  0  0  0  0  0  0  0  0  0  0
    8.7500   -8.5167    0.0000 C   0  0  0  0  0  0  0  0  0  0  0  0
    2.9625   -8.3792    0.0000 N   0  0  0  0  0  0  0  0  0  0  0  0
    8.0292   -8.1042    0.0000 C   0  0  0  0  0  0  0  0  0  0  0  0
    3.7417   -7.3000    0.0000 C   0  0  0  0  0  0  0  0  0  0  0  0
    2.4750   -7.7167    0.0000 C   0  0  0  0  0  0  0  0  0  0  0  0
    2.9542   -7.0500    0.0000 C   0  0  0  0  0  0  0  0  0  0  0  0
    3.7417   -8.1250    0.0000 C   0  0  0  0  0  0  0  0  0  0  0  0
    7.3167   -6.8750    0.0000 C   0  0  0  0  0  0  0  0  0  0  0  0
    8.0292   -7.2792    0.0000 C   0  0  0  0  0  0  0  0  0  0  0  0
    9.4667   -8.1000    0.0000 C   0  0  0  0  0  0  0  0  0  0  0  0
    6.6042   -7.2875    0.0000 N   0  0  0  0  0  0  0  0  0  0  0  0
    8.0417   -9.7625    0.0000 O   0  5  0  0  0  0  0  0  0  0  0  0
    9.4667   -9.7542    0.0000 O   0  0  0  0  0  0  0  0  0  0  0  0
    4.4542   -6.8792    0.0000 C   0  0  0  0  0  0  0  0  0  0  0  0
    7.3125   -6.0500    0.0000 O   0  0  0  0  0  0  0  0  0  0  0  0
    8.7417   -6.8667    0.0000 C   0  0  0  0  0  0  0  0  0  0  0  0
    4.4542   -8.5375    0.0000 C   0  0  0  0  0  0  0  0  0  0  0  0
    9.4625   -7.2667    0.0000 C   0  0  0  0  0  0  0  0  0  0  0  0
    5.1750   -7.2917    0.0000 C   0  0  0  0  0  0  0  0  0  0  0  0
    5.8875   -6.8792    0.0000 C   0  0  0  0  0  0  0  0  0  0  0  0
   10.1792   -8.5042    0.0000 Cl  0  0  0  0  0  0  0  0  0  0  0  0
    5.1750   -8.1250    0.0000 C   0  0  0  0  0  0  0  0  0  0  0  0
    1.6500   -7.7167    0.0000 C   0  0  0  0  0  0  0  0  0  0  0  0
  2  1  1  0  0  0  0
  3  8  1  0  0  0  0
  4  2  2  0  0  0  0
  5 15  1  0  0  0  0
  6  7  2  0  0  0  0
  7  5  1  0  0  0  0
  8 18  1  0  0  0  0
  9 10  1  0  0  0  0
 10  4  1  0  0  0  0
 11  2  1  0  0  0  0
 12  9  1  0  0  0  0
 13  1  1  0  0  0  0
 14  1  2  0  0  0  0
 15 20  2  0  0  0  0
 16  9  2  0  0  0  0
 17 19  1  0  0  0  0
 18 23  2  0  0  0  0
 19 11  2  0  0  0  0
 20 21  1  0  0  0  0
 21 12  1  0  0  0  0
 22 11  1  0  0  0  0
 23 20  1  0  0  0  0
 24  6  1  0  0  0  0
 17 10  2  0  0  0  0
  8  5  2  0  0  0  0
  3  6  1  0  0  0  0
M  CHG  2   1   1  13  -1
M  END
> <IDNUMBER>
F0651-0071

> <Chemical_Name>
4-chloro-N-[(2-methyl-1H-indol-5-yl)methyl]-3-nitrobenzamide

> <CAS>
863001-90-5

> <PriceCoeff>
1.00

> <MW>
343.76

> <Description>
solid

> <FSP3>
0.12

> <clogP>
4.13

> <TPSA>
88.03

> <Acceptor>
3

> <Donor>
2

> <RotBonds>
4

> <HAC>
24

> <Collection>
General

$$$$
F1916-0196
  -ISIS-  06222321452D

 24 26  0  0  0  0  0  0  0  0999 V2000
    9.9500   -5.8792    0.0000 O   0  0  0  0  0  0  0  0  0  0  0  0
   13.2417   -5.8792    0.0000 O   0  0  0  0  0  0  0  0  0  0  0  0
    6.2417   -5.1292    0.0000 O   0  0  0  0  0  0  0  0  0  0  0  0
   16.9542   -6.5792    0.0000 O   0  0  0  0  0  0  0  0  0  0  0  0
    9.1250   -5.8792    0.0000 C   0  0  0  0  0  0  0  0  0  0  0  0
   14.0667   -5.8792    0.0000 C   0  0  0  0  0  0  0  0  0  0  0  0
   12.4167   -5.8792    0.0000 C   0  0  0  0  0  0  0  0  0  0  0  0
   10.7708   -5.8792    0.0000 C   0  0  0  0  0  0  0  0  0  0  0  0
   16.5417   -5.8667    0.0000 C   0  0  0  0  0  0  0  0  0  0  0  0
    6.6417   -5.8500    0.0000 C   0  0  0  0  0  0  0  0  0  0  0  0
    7.4667   -5.8542    0.0000 C   0  0  0  0  0  0  0  0  0  0  0  0
   15.7167   -5.8667    0.0000 C   0  0  0  0  0  0  0  0  0  0  0  0
    8.7042   -6.5875    0.0000 C   0  0  0  0  0  0  0  0  0  0  0  0
   14.4792   -6.5917    0.0000 C   0  0  0  0  0  0  0  0  0  0  0  0
   12.0042   -5.1667    0.0000 C   0  0  0  0  0  0  0  0  0  0  0  0
   14.4750   -5.1625    0.0000 C   0  0  0  0  0  0  0  0  0  0  0  0
   11.1792   -5.1667    0.0000 C   0  0  0  0  0  0  0  0  0  0  0  0
   12.0042   -6.5917    0.0000 C   0  0  0  0  0  0  0  0  0  0  0  0
    8.7167   -5.1542    0.0000 C   0  0  0  0  0  0  0  0  0  0  0  0
   11.1792   -6.5917    0.0000 C   0  0  0  0  0  0  0  0  0  0  0  0
   15.3042   -6.5875    0.0000 C   0  0  0  0  0  0  0  0  0  0  0  0
    7.8917   -5.1417    0.0000 C   0  0  0  0  0  0  0  0  0  0  0  0
   15.2917   -5.1542    0.0000 C   0  0  0  0  0  0  0  0  0  0  0  0
    7.8792   -6.5792    0.0000 C   0  0  0  0  0  0  0  0  0  0  0  0
  2  7  1  0  0  0  0
  3 10  2  0  0  0  0
  4  9  2  0  0  0  0
  5  1  1  0  0  0  0
  6  2  1  0  0  0  0
  7 18  1  0  0  0  0
  8  1  1  0  0  0  0
  9 12  1  0  0  0  0
 10 11  1  0  0  0  0
 11 22  2  0  0  0  0
 12 23  1  0  0  0  0
 13  5  1  0  0  0  0
 14  6  2  0  0  0  0
 15 17  1  0  0  0  0
 16  6  1  0  0  0  0
 17  8  2  0  0  0  0
 18 20  2  0  0  0  0
 19  5  2  0  0  0  0
 20  8  1  0  0  0  0
 21 14  1  0  0  0  0
 22 19  1  0  0  0  0
 23 16  2  0  0  0  0
 24 13  2  0  0  0  0
 15  7  2  0  0  0  0
 11 24  1  0  0  0  0
 21 12  2  0  0  0  0
M  END
> <IDNUMBER>
F1916-0196

> <Chemical_Name>
4-[4-(4-formylphenoxy)phenoxy]benzaldehyde

> <CAS>
126026-43-5

> <PriceCoeff>
1.00

> <MW>
318.33

> <Description>
solid

> <FSP3>
0.00

> <clogP>
5.04

> <TPSA>
79.77

> <Acceptor>
4

> <Donor>
0

> <RotBonds>
6

> <HAC>
24

> <Collection>
General

> <Reference_compound>
CHEMBL161598

> <Similarity>
0.8000

$$$$
F3139-1570
  -ISIS-  06222321462D

 30 33  0  0  0  0  0  0  0  0999 V2000
    2.2375   -2.3292    0.0000 C   0  0  0  0  0  0  0  0  0  0  0  0
    1.5167   -2.7417    0.0000 C   0  0  0  0  0  0  0  0  0  0  0  0
    0.8042   -2.3292    0.0000 C   0  0  0  0  0  0  0  0  0  0  0  0
    2.2375   -1.5042    0.0000 C   0  0  0  0  0  0  0  0  0  0  0  0
    0.8042   -1.5042    0.0000 C   0  0  0  0  0  0  0  0  0  0  0  0
    1.5167   -1.0917    0.0000 O   0  0  0  0  0  0  0  0  0  0  0  0
    2.9500   -2.7417    0.0000 C   0  0  0  0  0  0  0  0  0  0  0  0
    0.0917   -1.0917    0.0000 C   0  0  0  0  0  0  0  0  0  0  0  0
   -2.0583   -1.5042    0.0000 C   0  0  0  0  0  0  0  0  0  0  0  0
    0.0917   -2.7417    0.0000 C   0  0  0  0  0  0  0  0  0  0  0  0
   -2.7708   -1.0792    0.0000 C   0  0  0  0  0  0  0  0  0  0  0  0
   -3.4875   -1.4917    0.0000 C   0  0  0  0  0  0  0  0  0  0  0  0
    1.5167   -3.5667    0.0000 O   0  0  0  0  0  0  0  0  0  0  0  0
   -0.6208   -1.5125    0.0000 C   0  0  0  0  0  0  0  0  0  0  0  0
   -1.3458   -1.0917    0.0000 O   0  0  0  0  0  0  0  0  0  0  0  0
    2.9500   -3.5667    0.0000 C   0  0  0  0  0  0  0  0  0  0  0  0
   -2.0708   -2.3292    0.0000 O   0  0  0  0  0  0  0  0  0  0  0  0
   -0.6208   -2.3292    0.0000 C   0  0  0  0  0  0  0  0  0  0  0  0
   -4.2083   -1.0667    0.0000 C   0  0  0  0  0  0  0  0  0  0  0  0
    2.2375   -3.9792    0.0000 O   0  0  0  0  0  0  0  0  0  0  0  0
    3.6625   -2.3292    0.0000 C   0  0  0  0  0  0  0  0  0  0  0  0
    3.6625   -3.9792    0.0000 C   0  0  0  0  0  0  0  0  0  0  0  0
   -4.9208   -1.4750    0.0000 C   0  0  0  0  0  0  0  0  0  0  0  0
   -4.1958   -0.2417    0.0000 C   0  0  0  0  0  0  0  0  0  0  0  0
    2.2375   -4.8042    0.0000 C   0  0  0  0  0  0  0  0  0  0  0  0
    4.3750   -2.7417    0.0000 C   0  0  0  0  0  0  0  0  0  0  0  0
    4.3792   -3.5667    0.0000 C   0  0  0  0  0  0  0  0  0  0  0  0
   -5.6250   -1.0542    0.0000 C   0  0  0  0  0  0  0  0  0  0  0  0
   -4.9083    0.1750    0.0000 C   0  0  0  0  0  0  0  0  0  0  0  0
   -5.6208   -0.2292    0.0000 C   0  0  0  0  0  0  0  0  0  0  0  0
  2  1  1  0  0  0  0
  3  2  1  0  0  0  0
  4  1  2  0  0  0  0
  5  6  1  0  0  0  0
  6  4  1  0  0  0  0
  7  1  1  0  0  0  0
  8  5  2  0  0  0  0
  9 15  1  0  0  0  0
 10  3  2  0  0  0  0
 11  9  1  0  0  0  0
 12 11  2  0  0  0  0
 13  2  2  0  0  0  0
 14  8  1  0  0  0  0
 15 14  1  0  0  0  0
 16  7  2  0  0  0  0
 17  9  2  0  0  0  0
 18 10  1  0  0  0  0
 19 12  1  0  0  0  0
 20 16  1  0  0  0  0
 21  7  1  0  0  0  0
 22 16  1  0  0  0  0
 23 19  1  0  0  0  0
 24 19  2  0  0  0  0
 25 20  1  0  0  0  0
 26 21  2  0  0  0  0
 27 26  1  0  0  0  0
 28 23  2  0  0  0  0
 29 24  1  0  0  0  0
 30 29  2  0  0  0  0
  3  5  1  0  0  0  0
 27 22  2  0  0  0  0
 18 14  2  0  0  0  0
 30 28  1  0  0  0  0
M  END
> <IDNUMBER>
F3139-1570

> <Chemical_Name>
3-(2-methoxyphenyl)-4-oxo-4H-chromen-7-yl (2E)-3-phenylprop-2-enoate

> <CAS>
1164469-14-0

> <PriceCoeff>
1.00

> <MW>
398.41

> <Description>
solid

> <FSP3>
0.04

> <clogP>
4.50

> <TPSA>
61.83

> <Acceptor>
5

> <Donor>
0

> <RotBonds>
6

> <HAC>
30

> <Collection>
General

> <Reference_compound>
CHEMBL458134

> <Similarity>
0.8030

$$$$
F0778-0194
  -ISIS-  06222321452D

 28 31  0  0  0  0  0  0  0  0999 V2000
   -3.2375    2.4958    0.0000 C   0  0  0  0  0  0  0  0  0  0  0  0
   -3.9083    2.9833    0.0000 N   0  0  3  0  0  0  0  0  0  0  0  0
   -4.5833    2.4958    0.0000 N   0  0  0  0  0  0  0  0  0  0  0  0
   -3.4958    1.7000    0.0000 C   0  0  0  0  0  0  0  0  0  0  0  0
   -2.4583    2.7458    0.0000 N   0  0  0  0  0  0  0  0  0  0  0  0
   -4.3333    1.7000    0.0000 C   0  0  0  0  0  0  0  0  0  0  0  0
    0.0917    4.3125    0.0000 N   0  3  0  0  0  0  0  0  0  0  0  0
   -0.1000    3.5208    0.0000 C   0  0  0  0  0  0  0  0  0  0  0  0
   -1.8458    2.1958    0.0000 C   0  0  0  0  0  0  0  0  0  0  0  0
   -0.8875    3.2708    0.0000 C   0  0  0  0  0  0  0  0  0  0  0  0
   -1.0583    2.4458    0.0000 C   0  0  0  0  0  0  0  0  0  0  0  0
   -3.9083    3.8000    0.0000 C   0  0  0  0  0  0  0  0  0  0  0  0
    0.5167    2.9625    0.0000 C   0  0  0  0  0  0  0  0  0  0  0  0
    0.8875    4.5542    0.0000 O   0  5  0  0  0  0  0  0  0  0  0  0
   -3.9083    0.4250    0.0000 S   0  0  0  0  0  0  0  0  0  0  0  0
   -0.4958    4.8667    0.0000 O   0  0  0  0  0  0  0  0  0  0  0  0
   -2.0125    1.3875    0.0000 O   0  0  0  0  0  0  0  0  0  0  0  0
   -3.2375    0.9125    0.0000 C   0  0  0  0  0  0  0  0  0  0  0  0
   -0.4583    1.9000    0.0000 C   0  0  0  0  0  0  0  0  0  0  0  0
    0.3375    2.1458    0.0000 C   0  0  0  0  0  0  0  0  0  0  0  0
   -4.5833    0.9125    0.0000 C   0  0  0  0  0  0  0  0  0  0  0  0
   -4.6208    4.2042    0.0000 C   0  0  0  0  0  0  0  0  0  0  0  0
   -3.1875    4.2042    0.0000 C   0  0  0  0  0  0  0  0  0  0  0  0
    1.3000    3.2208    0.0000 Cl  0  0  0  0  0  0  0  0  0  0  0  0
   -3.1875    5.0292    0.0000 C   0  0  0  0  0  0  0  0  0  0  0  0
   -4.6208    5.0292    0.0000 C   0  0  0  0  0  0  0  0  0  0  0  0
   -3.9000    5.4375    0.0000 C   0  0  0  0  0  0  0  0  0  0  0  0
   -3.9083    6.2792    0.0000 C   0  0  0  0  0  0  0  0  0  0  0  0
  2  1  1  0  0  0  0
  3  2  1  0  0  0  0
  4  1  2  0  0  0  0
  5  1  1  0  0  0  0
  6  4  1  0  0  0  0
  7  8  1  0  0  0  0
  8 10  2  0  0  0  0
  9  5  1  0  0  0  0
 10 11  1  0  0  0  0
 11  9  1  0  0  0  0
 12  2  1  0  0  0  0
 13 20  2  0  0  0  0
 14  7  1  0  0  0  0
 15 18  1  0  0  0  0
 16  7  2  0  0  0  0
 17  9  2  0  0  0  0
 18  4  1  0  0  0  0
 19 11  2  0  0  0  0
 20 19  1  0  0  0  0
 21  6  1  0  0  0  0
 22 12  1  0  0  0  0
 23 12  2  0  0  0  0
 24 13  1  0  0  0  0
 25 23  1  0  0  0  0
 26 22  2  0  0  0  0
 27 25  2  0  0  0  0
 28 27  1  0  0  0  0
  3  6  2  0  0  0  0
 21 15  1  0  0  0  0
 27 26  1  0  0  0  0
 13  8  1  0  0  0  0
M  CHG  2   7   1  14  -1
M  END
> <IDNUMBER>
F0778-0194

> <Chemical_Name>
4-chloro-N-[2-(4-methylphenyl)-2H,4H,6H-thieno[3,4-c]pyrazol-3-yl]-3-nitrobenzamide

> <CAS>
396721-82-7

> <PriceCoeff>
1.00

> <MW>
414.87

> <Description>
solid

> <FSP3>
0.16

> <clogP>
4.06

> <TPSA>
115.36

> <Acceptor>
4

> <Donor>
1

> <RotBonds>
4

> <HAC>
28

> <Collection>
General

$$$$
F9995-2402
  -ISIS-  06222321162D

 40 39  0  0  0  0  0  0  0  0999 V2000
    1.1417   -2.3417    0.0000 C   0  0  0  0  0  0  0  0  0  0  0  0
    1.9542   -4.8167    0.0000 C   0  0  0  0  0  0  0  0  0  0  0  0
    1.1417   -3.1667    0.0000 O   0  0  0  0  0  0  0  0  0  0  0  0
    0.4292   -1.9292    0.0000 O   0  0  0  0  0  0  0  0  0  0  0  0
    2.5375   -4.2292    0.0000 O   0  0  0  0  0  0  0  0  0  0  0  0
    1.1292   -4.8167    0.0000 O   0  0  0  0  0  0  0  0  0  0  0  0
    0.4250   -3.5792    0.0000 C   0  0  3  0  0  0  0  0  0  0  0  0
    0.4208   -4.4042    0.0000 C   0  0  0  0  0  0  0  0  0  0  0  0
   -0.2833   -2.3375    0.0000 O   0  0  0  0  0  0  0  0  0  0  0  0
    1.7250   -1.7625    0.0000 C   0  0  0  0  0  0  0  0  0  0  0  0
    2.3625   -5.5292    0.0000 C   0  0  0  0  0  0  0  0  0  0  0  0
   -0.2875   -3.1625    0.0000 C   0  0  0  0  0  0  0  0  0  0  0  0
    3.1792   -5.5292    0.0000 C   0  0  0  0  0  0  0  0  0  0  0  0
    2.5167   -1.9750    0.0000 C   0  0  0  0  0  0  0  0  0  0  0  0
   10.5542   -9.8042    0.0000 C   0  0  0  0  0  0  0  0  0  0  0  0
   10.7667    0.2500    0.0000 C   0  0  0  0  0  0  0  0  0  0  0  0
    9.9750    0.4625    0.0000 C   0  0  0  0  0  0  0  0  0  0  0  0
    9.7375   -9.8042    0.0000 C   0  0  0  0  0  0  0  0  0  0  0  0
    6.6417   -0.8625    0.0000 C   0  0  0  0  0  0  0  0  0  0  0  0
    7.2250   -0.2792    0.0000 C   0  0  0  0  0  0  0  0  0  0  0  0
    8.0167   -0.4917    0.0000 C   0  0  0  0  0  0  0  0  0  0  0  0
    8.6000    0.0958    0.0000 C   0  0  0  0  0  0  0  0  0  0  0  0
    9.3917   -0.1167    0.0000 C   0  0  0  0  0  0  0  0  0  0  0  0
    3.1000   -1.3917    0.0000 C   0  0  0  0  0  0  0  0  0  0  0  0
    3.8917   -1.6042    0.0000 C   0  0  0  0  0  0  0  0  0  0  0  0
    3.5917   -6.2417    0.0000 C   0  0  0  0  0  0  0  0  0  0  0  0
    4.4125   -6.2417    0.0000 C   0  0  0  0  0  0  0  0  0  0  0  0
    4.8167   -6.9542    0.0000 C   0  0  0  0  0  0  0  0  0  0  0  0
    5.6417   -6.9542    0.0000 C   0  0  0  0  0  0  0  0  0  0  0  0
    6.0500   -7.6667    0.0000 C   0  0  0  0  0  0  0  0  0  0  0  0
    6.8667   -7.6667    0.0000 C   0  0  0  0  0  0  0  0  0  0  0  0
    7.2792   -8.3792    0.0000 C   0  0  0  0  0  0  0  0  0  0  0  0
    8.1000   -8.3792    0.0000 C   0  0  0  0  0  0  0  0  0  0  0  0
    8.5042   -9.0917    0.0000 C   0  0  0  0  0  0  0  0  0  0  0  0
    9.3292   -9.0917    0.0000 C   0  0  0  0  0  0  0  0  0  0  0  0
    4.4750   -1.0167    0.0000 C   0  0  0  0  0  0  0  0  0  0  0  0
    5.2667   -1.2292    0.0000 C   0  0  0  0  0  0  0  0  0  0  0  0
    5.8500   -0.6500    0.0000 C   0  0  0  0  0  0  0  0  0  0  0  0
   10.9667  -10.5167    0.0000 C   0  0  0  0  0  0  0  0  0  0  0  0
   11.3500    0.8333    0.0000 C   0  0  0  0  0  0  0  0  0  0  0  0
  2  6  1  0  0  0  0
  3  1  1  0  0  0  0
  4  1  2  0  0  0  0
  5  2  2  0  0  0  0
  6  8  1  0  0  0  0
  7  3  1  0  0  0  0
  8  7  1  0  0  0  0
  9 12  1  0  0  0  0
 10  1  1  0  0  0  0
 11  2  1  0  0  0  0
 12  7  1  0  0  0  0
 13 11  1  0  0  0  0
 14 10  1  0  0  0  0
 15 18  1  0  0  0  0
 16 17  1  0  0  0  0
 17 23  1  0  0  0  0
 18 35  1  0  0  0  0
 19 38  1  0  0  0  0
 20 19  1  0  0  0  0
 21 20  1  0  0  0  0
 22 21  1  0  0  0  0
 23 22  1  0  0  0  0
 24 14  1  0  0  0  0
 25 24  1  0  0  0  0
 26 13  1  0  0  0  0
 27 26  1  0  0  0  0
 28 27  1  0  0  0  0
 29 28  1  0  0  0  0
 30 29  1  0  0  0  0
 31 30  1  0  0  0  0
 32 31  1  0  0  0  0
 33 32  1  0  0  0  0
 34 33  1  0  0  0  0
 35 34  1  0  0  0  0
 36 25  1  0  0  0  0
 37 36  1  0  0  0  0
 38 37  1  0  0  0  0
 39 15  1  0  0  0  0
 40 16  1  0  0  0  0
M  END
> <IDNUMBER>
F9995-2402

> <Chemical_Name>
1-(hexadecanoyloxy)-3-hydroxypropan-2-yl hexadecanoate

> <CAS>
40290-32-2

> <PriceCoeff>
1.00

> <MW>
568.92

> <Description>
solid

> <FSP3>
0.94

> <clogP>
14.36

> <TPSA>
72.83

> <Acceptor>
5

> <Donor>
1

> <RotBonds>
34

> <HAC>
40

> <Collection>
General

> <Reference_compound>
CHEMBL2268855

> <Similarity>
0.8000

$$$$
F0778-0193
  -ISIS-  06222321442D

 28 31  0  0  0  0  0  0  0  0999 V2000
   -3.2375    2.4958    0.0000 C   0  0  0  0  0  0  0  0  0  0  0  0
   -3.9083    2.9833    0.0000 N   0  0  3  0  0  0  0  0  0  0  0  0
   -4.5833    2.4958    0.0000 N   0  0  0  0  0  0  0  0  0  0  0  0
   -3.4958    1.7000    0.0000 C   0  0  0  0  0  0  0  0  0  0  0  0
   -2.4583    2.7458    0.0000 N   0  0  0  0  0  0  0  0  0  0  0  0
   -4.3333    1.7000    0.0000 C   0  0  0  0  0  0  0  0  0  0  0  0
    0.0917    4.3125    0.0000 N   0  3  0  0  0  0  0  0  0  0  0  0
   -0.1000    3.5208    0.0000 C   0  0  0  0  0  0  0  0  0  0  0  0
   -1.8458    2.1958    0.0000 C   0  0  0  0  0  0  0  0  0  0  0  0
   -3.9083    3.8000    0.0000 C   0  0  0  0  0  0  0  0  0  0  0  0
   -0.8875    3.2708    0.0000 C   0  0  0  0  0  0  0  0  0  0  0  0
   -1.0583    2.4458    0.0000 C   0  0  0  0  0  0  0  0  0  0  0  0
    0.5167    2.9625    0.0000 C   0  0  0  0  0  0  0  0  0  0  0  0
    0.8875    4.5542    0.0000 O   0  5  0  0  0  0  0  0  0  0  0  0
   -3.9083    0.4250    0.0000 S   0  0  0  0  0  0  0  0  0  0  0  0
   -0.4958    4.8667    0.0000 O   0  0  0  0  0  0  0  0  0  0  0  0
   -2.0125    1.3875    0.0000 O   0  0  0  0  0  0  0  0  0  0  0  0
   -3.2375    0.9125    0.0000 C   0  0  0  0  0  0  0  0  0  0  0  0
   -3.1958    4.2000    0.0000 C   0  0  0  0  0  0  0  0  0  0  0  0
   -0.4583    1.9000    0.0000 C   0  0  0  0  0  0  0  0  0  0  0  0
    0.3375    2.1458    0.0000 C   0  0  0  0  0  0  0  0  0  0  0  0
   -4.5833    0.9125    0.0000 C   0  0  0  0  0  0  0  0  0  0  0  0
    1.3000    3.2208    0.0000 Cl  0  0  0  0  0  0  0  0  0  0  0  0
   -4.6333    4.2042    0.0000 C   0  0  0  0  0  0  0  0  0  0  0  0
   -2.4958    3.7708    0.0000 C   0  0  0  0  0  0  0  0  0  0  0  0
   -3.1958    5.0292    0.0000 C   0  0  0  0  0  0  0  0  0  0  0  0
   -4.6208    5.0250    0.0000 C   0  0  0  0  0  0  0  0  0  0  0  0
   -3.9125    5.4375    0.0000 C   0  0  0  0  0  0  0  0  0  0  0  0
  2  1  1  0  0  0  0
  3  2  1  0  0  0  0
  4  1  2  0  0  0  0
  5  1  1  0  0  0  0
  6  4  1  0  0  0  0
  7  8  1  0  0  0  0
  8 11  2  0  0  0  0
  9  5  1  0  0  0  0
 10  2  1  0  0  0  0
 11 12  1  0  0  0  0
 12  9  1  0  0  0  0
 13 21  2  0  0  0  0
 14  7  1  0  0  0  0
 15 18  1  0  0  0  0
 16  7  2  0  0  0  0
 17  9  2  0  0  0  0
 18  4  1  0  0  0  0
 19 10  2  0  0  0  0
 20 12  2  0  0  0  0
 21 20  1  0  0  0  0
 22  6  1  0  0  0  0
 23 13  1  0  0  0  0
 24 10  1  0  0  0  0
 25 19  1  0  0  0  0
 26 19  1  0  0  0  0
 27 24  2  0  0  0  0
 28 27  1  0  0  0  0
  3  6  2  0  0  0  0
 22 15  1  0  0  0  0
 28 26  2  0  0  0  0
 13  8  1  0  0  0  0
M  CHG  2   7   1  14  -1
M  END
> <IDNUMBER>
F0778-0193

> <Chemical_Name>
4-chloro-N-[2-(2-methylphenyl)-2H,4H,6H-thieno[3,4-c]pyrazol-3-yl]-3-nitrobenzamide

> <CAS>
396721-78-1

> <PriceCoeff>
1.00

> <MW>
414.87

> <Description>
solid

> <FSP3>
0.16

> <clogP>
4.06

> <TPSA>
115.36

> <Acceptor>
4

> <Donor>
1

> <RotBonds>
4

> <HAC>
28

> <Collection>
General

$$$$
F0900-0449
  -ISIS-  06222321142D

 20 23  0  0  0  0  0  0  0  0999 V2000
   -0.1458   -0.4667    0.0000 C   0  0  0  0  0  0  0  0  0  0  0  0
    2.1792    0.3333    0.0000 C   0  0  0  0  0  0  0  0  0  0  0  0
   -0.6625   -1.2167    0.0000 N   0  0  0  0  0  0  0  0  0  0  0  0
    2.7000    1.0833    0.0000 N   0  0  0  0  0  0  0  0  0  0  0  0
   -0.6625    0.2833    0.0000 S   0  0  0  0  0  0  0  0  0  0  0  0
    2.7000   -0.4167    0.0000 S   0  0  0  0  0  0  0  0  0  0  0  0
    3.6167    0.8000    0.0000 C   0  0  0  0  0  0  0  0  0  0  0  0
   -1.5708   -0.9375    0.0000 C   0  0  0  0  0  0  0  0  0  0  0  0
    3.6167   -0.1375    0.0000 C   0  0  0  0  0  0  0  0  0  0  0  0
   -1.5708   -0.0000    0.0000 C   0  0  0  0  0  0  0  0  0  0  0  0
    0.7875   -0.4667    0.0000 S   0  0  0  0  0  0  0  0  0  0  0  0
    1.2500    0.3333    0.0000 S   0  0  0  0  0  0  0  0  0  0  0  0
   -2.3833   -1.4042    0.0000 C   0  0  0  0  0  0  0  0  0  0  0  0
    4.4292    1.2708    0.0000 C   0  0  0  0  0  0  0  0  0  0  0  0
    4.4292   -0.6042    0.0000 C   0  0  0  0  0  0  0  0  0  0  0  0
   -2.3833    0.4708    0.0000 C   0  0  0  0  0  0  0  0  0  0  0  0
   -3.1958   -0.9375    0.0000 C   0  0  0  0  0  0  0  0  0  0  0  0
    5.2500   -0.1375    0.0000 C   0  0  0  0  0  0  0  0  0  0  0  0
    5.2500    0.8000    0.0000 C   0  0  0  0  0  0  0  0  0  0  0  0
   -3.1958   -0.0000    0.0000 C   0  0  0  0  0  0  0  0  0  0  0  0
  2 12  1  0  0  0  0
  3  1  2  0  0  0  0
  4  2  2  0  0  0  0
  5  1  1  0  0  0  0
  6  2  1  0  0  0  0
  7  4  1  0  0  0  0
  8  3  1  0  0  0  0
  9  6  1  0  0  0  0
 10  5  1  0  0  0  0
 11  1  1  0  0  0  0
 12 11  1  0  0  0  0
 13  8  1  0  0  0  0
 14  7  1  0  0  0  0
 15  9  1  0  0  0  0
 16 10  1  0  0  0  0
 17 13  2  0  0  0  0
 18 15  2  0  0  0  0
 19 14  2  0  0  0  0
 20 16  2  0  0  0  0
  8 10  2  0  0  0  0
 20 17  1  0  0  0  0
  9  7  2  0  0  0  0
 18 19  1  0  0  0  0
M  END
> <IDNUMBER>
F0900-0449

> <Chemical_Name>
2-(1,3-benzothiazol-2-yldisulfanyl)-1,3-benzothiazole

> <CAS>
120-78-5

> <PriceCoeff>
1.00

> <MW>
332.47

> <Description>
solid

> <FSP3>
0.00

> <clogP>
4.61

> <TPSA>
81.16

> <Acceptor>
2

> <Donor>
0

> <RotBonds>
3

> <HAC>
20

> <Collection>
General

> <Reference_compound>
PRI353

> <Similarity>
1.0000

$$$$
F1168-0081
  -ISIS-  06222321142D

 25 28  0  0  0  0  0  0  0  0999 V2000
    1.0750   -2.0042    0.0000 C   0  0  0  0  0  0  0  0  0  0  0  0
    1.7875   -0.7542    0.0000 C   0  0  3  0  0  0  0  0  0  0  0  0
    2.5042   -2.0042    0.0000 C   0  0  0  0  0  0  0  0  0  0  0  0
    2.5042   -1.1750    0.0000 C   0  0  0  0  0  0  0  0  0  0  0  0
    1.7875   -2.4167    0.0000 N   0  0  0  0  0  0  0  0  0  0  0  0
    1.0750   -1.1750    0.0000 N   0  0  0  0  0  0  0  0  0  0  0  0
    1.7875    0.0708    0.0000 C   0  0  0  0  0  0  0  0  0  0  0  0
    1.0750    0.4875    0.0000 C   0  0  0  0  0  0  0  0  0  0  0  0
    0.3542   -2.4167    0.0000 S   0  0  0  0  0  0  0  0  0  0  0  0
    2.5042    0.4875    0.0000 C   0  0  0  0  0  0  0  0  0  0  0  0
    3.2167   -2.4167    0.0000 C   0  0  0  0  0  0  0  0  0  0  0  0
    1.0750    1.3125    0.0000 C   0  0  0  0  0  0  0  0  0  0  0  0
    2.5042    1.3208    0.0000 C   0  0  0  0  0  0  0  0  0  0  0  0
    1.7917    1.7333    0.0000 C   0  0  0  0  0  0  0  0  0  0  0  0
    3.2250    0.0750    0.0000 O   0  0  0  0  0  0  0  0  0  0  0  0
    0.3625    0.0708    0.0000 C   0  0  0  0  0  0  0  0  0  0  0  0
    3.9375   -2.0042    0.0000 C   0  0  0  0  0  0  0  0  0  0  0  0
    3.2167   -3.2500    0.0000 C   0  0  0  0  0  0  0  0  0  0  0  0
    0.3542    1.7250    0.0000 C   0  0  0  0  0  0  0  0  0  0  0  0
    3.2250   -0.7500    0.0000 C   0  0  0  0  0  0  0  0  0  0  0  0
   -0.3583    0.4833    0.0000 C   0  0  0  0  0  0  0  0  0  0  0  0
    4.6542   -2.4167    0.0000 C   0  0  0  0  0  0  0  0  0  0  0  0
    3.9375   -3.6625    0.0000 C   0  0  0  0  0  0  0  0  0  0  0  0
   -0.3583    1.3125    0.0000 C   0  0  0  0  0  0  0  0  0  0  0  0
    4.6542   -3.2500    0.0000 C   0  0  0  0  0  0  0  0  0  0  0  0
  2  6  1  0  0  0  0
  3  5  1  0  0  0  0
  4  2  1  0  0  0  0
  5  1  1  0  0  0  0
  6  1  1  0  0  0  0
  7  2  1  0  0  0  0
  8  7  1  0  0  0  0
  9  1  2  0  0  0  0
 10  7  2  0  0  0  0
 11  3  1  0  0  0  0
 12  8  1  0  0  0  0
 13 10  1  0  0  0  0
 14 13  2  0  0  0  0
 15 10  1  0  0  0  0
 16  8  2  0  0  0  0
 17 11  1  0  0  0  0
 18 11  2  0  0  0  0
 19 12  2  0  0  0  0
 20 15  1  0  0  0  0
 21 16  1  0  0  0  0
 22 17  2  0  0  0  0
 23 18  1  0  0  0  0
 24 21  2  0  0  0  0
 25 23  2  0  0  0  0
  3  4  2  0  0  0  0
 12 14  1  0  0  0  0
 22 25  1  0  0  0  0
 19 24  1  0  0  0  0
M  END
> <IDNUMBER>
F1168-0081

> <Chemical_Name>
4-(2-methoxynaphthalen-1-yl)-6-phenyl-1,2,3,4-tetrahydropyrimidine-2-thione

> <CAS>
683778-35-0

> <PriceCoeff>
1.00

> <MW>
346.45

> <Description>
solid

> <FSP3>
0.10

> <clogP>
4.08

> <TPSA>
65.38

> <Acceptor>
2

> <Donor>
2

> <RotBonds>
3

> <HAC>
25

> <Collection>
General

> <Reference_compound>
CHEMBL2272931

> <Similarity>
0.8590

$$$$
F0582-0076
  -ISIS-  06222321452D

 25 27  0  0  0  0  0  0  0  0999 V2000
    7.2542   -4.5917    0.0000 N   0  3  0  0  0  0  0  0  0  0  0  0
    6.7750   -5.2750    0.0000 C   0  0  0  0  0  0  0  0  0  0  0  0
    7.1250   -6.0250    0.0000 C   0  0  0  0  0  0  0  0  0  0  0  0
    5.8667  -12.2417    0.0000 N   0  0  0  0  0  0  0  0  0  0  0  0
    6.2667  -10.9750    0.0000 C   0  0  0  0  0  0  0  0  0  0  0  0
    5.4417  -10.9792    0.0000 C   0  0  0  0  0  0  0  0  0  0  0  0
    6.5292  -11.7542    0.0000 C   0  0  0  0  0  0  0  0  0  0  0  0
    7.0042   -7.4417    0.0000 C   0  0  0  0  0  0  0  0  0  0  0  0
    6.6542   -6.7000    0.0000 C   0  0  0  0  0  0  0  0  0  0  0  0
    5.1917  -11.7625    0.0000 C   0  0  0  0  0  0  0  0  0  0  0  0
    5.9500   -5.2000    0.0000 C   0  0  0  0  0  0  0  0  0  0  0  0
    6.9000   -3.8500    0.0000 O   0  5  0  0  0  0  0  0  0  0  0  0
    8.0875   -4.6625    0.0000 O   0  0  0  0  0  0  0  0  0  0  0  0
    7.8292   -7.5167    0.0000 O   0  0  0  0  0  0  0  0  0  0  0  0
    5.8292   -6.6250    0.0000 C   0  0  0  0  0  0  0  0  0  0  0  0
    5.4750   -5.8792    0.0000 C   0  0  0  0  0  0  0  0  0  0  0  0
    6.5292   -8.1167    0.0000 N   0  0  0  0  0  0  0  0  0  0  0  0
    6.7500  -10.2917    0.0000 S   0  0  0  0  0  0  0  0  0  0  0  0
    5.6042   -4.4417    0.0000 Cl  0  0  0  0  0  0  0  0  0  0  0  0
    4.8917  -10.3667    0.0000 C   0  0  0  0  0  0  0  0  0  0  0  0
    4.3917  -11.9417    0.0000 C   0  0  0  0  0  0  0  0  0  0  0  0
    6.8750   -8.8667    0.0000 C   0  0  0  0  0  0  0  0  0  0  0  0
    6.4000   -9.5417    0.0000 C   0  0  0  0  0  0  0  0  0  0  0  0
    4.0917  -10.5417    0.0000 C   0  0  0  0  0  0  0  0  0  0  0  0
    3.8375  -11.3292    0.0000 C   0  0  0  0  0  0  0  0  0  0  0  0
  2  1  1  0  0  0  0
  3  2  1  0  0  0  0
  4  7  1  0  0  0  0
  5 18  1  0  0  0  0
  6  5  1  0  0  0  0
  7  5  2  0  0  0  0
  8  9  1  0  0  0  0
  9  3  2  0  0  0  0
 10  6  2  0  0  0  0
 11  2  2  0  0  0  0
 12  1  1  0  0  0  0
 13  1  2  0  0  0  0
 14  8  2  0  0  0  0
 15 16  2  0  0  0  0
 16 11  1  0  0  0  0
 17  8  1  0  0  0  0
 18 23  1  0  0  0  0
 19 11  1  0  0  0  0
 20  6  1  0  0  0  0
 21 10  1  0  0  0  0
 22 17  1  0  0  0  0
 23 22  1  0  0  0  0
 24 20  2  0  0  0  0
 25 24  1  0  0  0  0
 15  9  1  0  0  0  0
 10  4  1  0  0  0  0
 25 21  2  0  0  0  0
M  CHG  2   1   1  12  -1
M  END
> <IDNUMBER>
F0582-0076

> <Chemical_Name>
4-chloro-N-[2-(1H-indol-3-ylsulfanyl)ethyl]-3-nitrobenzamide

> <CAS>
687571-36-4

> <PriceCoeff>
1.00

> <MW>
375.83

> <Description>
solid

> <FSP3>
0.12

> <clogP>
4.13

> <TPSA>
113.33

> <Acceptor>
3

> <Donor>
2

> <RotBonds>
6

> <HAC>
25

> <Collection>
General

$$$$
F1620-0109
  -ISIS-  06222321142D

 26 28  0  0  0  0  0  0  0  0999 V2000
    0.0875   -0.6667    0.0000 C   0  0  0  0  0  0  0  0  0  0  0  0
   -1.6208    0.3333    0.0000 C   0  0  0  0  0  0  0  0  0  0  0  0
   -0.3458    0.0708    0.0000 C   0  0  0  0  0  0  0  0  0  0  0  0
    0.1000   -1.1875    0.0000 N   0  3  0  0  0  0  0  0  0  0  0  0
   -0.7500    0.3333    0.0000 C   0  0  0  0  0  0  0  0  0  0  0  0
    0.9667    0.3125    0.0000 N   0  3  0  0  0  0  0  0  0  0  0  0
   -2.0958    0.1500    0.0000 N   0  0  0  0  0  0  0  0  0  0  0  0
   -1.1958    0.0958    0.0000 N   0  0  0  0  0  0  0  0  0  0  0  0
   -0.3458   -0.4292    0.0000 C   0  0  0  0  0  0  0  0  0  0  0  0
    0.5292   -0.4292    0.0000 C   0  0  0  0  0  0  0  0  0  0  0  0
   -1.6833    0.8125    0.0000 S   0  0  0  0  0  0  0  0  0  0  0  0
    0.5292    0.0708    0.0000 C   0  0  0  0  0  0  0  0  0  0  0  0
    0.1000    0.3125    0.0000 C   0  0  0  0  0  0  0  0  0  0  0  0
   -2.1500    0.9208    0.0000 C   0  0  0  0  0  0  0  0  0  0  0  0
   -2.4000    0.5125    0.0000 C   0  0  0  0  0  0  0  0  0  0  0  0
    0.5292   -1.4375    0.0000 O   0  5  0  0  0  0  0  0  0  0  0  0
    0.9875    0.7958    0.0000 O   0  5  0  0  0  0  0  0  0  0  0  0
   -0.3458   -1.4292    0.0000 O   0  0  0  0  0  0  0  0  0  0  0  0
    1.4000    0.0625    0.0000 O   0  0  0  0  0  0  0  0  0  0  0  0
   -0.7500    0.8208    0.0000 O   0  0  0  0  0  0  0  0  0  0  0  0
   -2.3958    1.3625    0.0000 C   0  0  0  0  0  0  0  0  0  0  0  0
   -2.8958    0.5208    0.0000 C   0  0  0  0  0  0  0  0  0  0  0  0
   -0.7708   -0.6667    0.0000 Cl  0  0  0  0  0  0  0  0  0  0  0  0
   -2.8833    1.3708    0.0000 C   0  0  0  0  0  0  0  0  0  0  0  0
   -3.1333    0.9625    0.0000 C   0  0  0  0  0  0  0  0  0  0  0  0
   -3.1333    1.8000    0.0000 C   0  0  0  0  0  0  0  0  0  0  0  0
  2  8  1  0  0  0  0
  3  9  1  0  0  0  0
  4  1  1  0  0  0  0
  5  3  1  0  0  0  0
  6 12  1  0  0  0  0
  7  2  2  0  0  0  0
  8  5  1  0  0  0  0
  9  1  2  0  0  0  0
 10  1  1  0  0  0  0
 11  2  1  0  0  0  0
 12 10  2  0  0  0  0
 13 12  1  0  0  0  0
 14 11  1  0  0  0  0
 15  7  1  0  0  0  0
 16  4  1  0  0  0  0
 17  6  1  0  0  0  0
 18  4  2  0  0  0  0
 19  6  2  0  0  0  0
 20  5  2  0  0  0  0
 21 14  1  0  0  0  0
 22 15  1  0  0  0  0
 23  9  1  0  0  0  0
 24 21  2  0  0  0  0
 25 22  2  0  0  0  0
 26 24  1  0  0  0  0
  3 13  2  0  0  0  0
 15 14  2  0  0  0  0
 25 24  1  0  0  0  0
M  CHG  4   4   1   6   1  16  -1  17  -1
M  END
> <IDNUMBER>
F1620-0109

> <Chemical_Name>
2-chloro-N-(6-methyl-1,3-benzothiazol-2-yl)-3,5-dinitrobenzamide

> <CAS>
349539-29-3

> <PriceCoeff>
1.00

> <MW>
392.77

> <Description>
solid

> <FSP3>
0.07

> <clogP>
3.35

> <TPSA>
156.51

> <Acceptor>
6

> <Donor>
1

> <RotBonds>
4

> <HAC>
26

> <Collection>
General

$$$$
F0326-1133
  -ISIS-  06222321142D

 25 27  0  0  0  0  0  0  0  0999 V2000
   -2.5000    0.8458    0.0000 S   0  0  0  0  0  0  0  0  0  0  0  0
   -1.7500    0.6458    0.0000 C   0  0  0  0  0  0  0  0  0  0  0  0
    1.7042   -1.4000    0.0000 N   0  3  0  0  0  0  0  0  0  0  0  0
    0.9167   -1.3875    0.0000 C   0  0  0  0  0  0  0  0  0  0  0  0
   -2.5458    1.5958    0.0000 C   0  0  0  0  0  0  0  0  0  0  0  0
   -1.8500    1.9000    0.0000 N   0  0  0  0  0  0  0  0  0  0  0  0
   -1.3833   -0.0292    0.0000 N   0  0  0  0  0  0  0  0  0  0  0  0
   -1.3625    1.3208    0.0000 N   0  0  0  0  0  0  0  0  0  0  0  0
   -0.6208   -0.0292    0.0000 C   0  0  0  0  0  0  0  0  0  0  0  0
    0.5292   -0.7042    0.0000 C   0  0  0  0  0  0  0  0  0  0  0  0
   -0.2333   -0.7000    0.0000 C   0  0  0  0  0  0  0  0  0  0  0  0
    0.5167   -2.0375    0.0000 C   0  0  0  0  0  0  0  0  0  0  0  0
   -3.1958    1.9833    0.0000 C   0  0  0  0  0  0  0  0  0  0  0  0
    2.0792   -2.0667    0.0000 O   0  5  0  0  0  0  0  0  0  0  0  0
    2.1042   -0.7292    0.0000 O   0  0  0  0  0  0  0  0  0  0  0  0
   -0.2125    0.6458    0.0000 O   0  0  0  0  0  0  0  0  0  0  0  0
   -0.6208   -1.3792    0.0000 C   0  0  0  0  0  0  0  0  0  0  0  0
   -0.2625   -2.0167    0.0000 C   0  0  0  0  0  0  0  0  0  0  0  0
   -3.8708    1.6208    0.0000 C   0  0  0  0  0  0  0  0  0  0  0  0
   -3.1708    2.7500    0.0000 C   0  0  0  0  0  0  0  0  0  0  0  0
    0.8792   -2.7292    0.0000 Cl  0  0  0  0  0  0  0  0  0  0  0  0
   -3.8208    3.1708    0.0000 C   0  0  0  0  0  0  0  0  0  0  0  0
   -4.5333    2.0208    0.0000 C   0  0  0  0  0  0  0  0  0  0  0  0
   -4.5208    2.7958    0.0000 C   0  0  0  0  0  0  0  0  0  0  0  0
   -5.1125    3.1208    0.0000 C   0  0  0  0  0  0  0  0  0  0  0  0
  2  1  1  0  0  0  0
  3  4  1  0  0  0  0
  4 10  1  0  0  0  0
  5  1  1  0  0  0  0
  6  5  2  0  0  0  0
  7  2  1  0  0  0  0
  8  2  2  0  0  0  0
  9  7  1  0  0  0  0
 10 11  2  0  0  0  0
 11  9  1  0  0  0  0
 12 18  1  0  0  0  0
 13  5  1  0  0  0  0
 14  3  1  0  0  0  0
 15  3  2  0  0  0  0
 16  9  2  0  0  0  0
 17 11  1  0  0  0  0
 18 17  2  0  0  0  0
 19 13  2  0  0  0  0
 20 13  1  0  0  0  0
 21 12  1  0  0  0  0
 22 20  2  0  0  0  0
 23 19  1  0  0  0  0
 24 22  1  0  0  0  0
 25 24  1  0  0  0  0
  8  6  1  0  0  0  0
 24 23  2  0  0  0  0
  4 12  2  0  0  0  0
M  CHG  2   3   1  14  -1
M  END
> <IDNUMBER>
F0326-1133

> <Chemical_Name>
4-chloro-N-[5-(4-methylphenyl)-1,3,4-thiadiazol-2-yl]-3-nitrobenzamide

> <CAS>
342590-87-8

> <PriceCoeff>
1.00

> <MW>
374.80

> <Description>
solid

> <FSP3>
0.06

> <clogP>
4.11

> <TPSA>
126.26

> <Acceptor>
5

> <Donor>
1

> <RotBonds>
4

> <HAC>
25

> <Collection>
General

$$$$
F1625-0030
  -ISIS-  06222321452D

 25 27  0  0  0  0  0  0  0  0999 V2000
    6.7667   -2.9042    0.0000 N   0  3  0  0  0  0  0  0  0  0  0  0
    6.7792   -3.9292    0.0000 C   0  0  0  0  0  0  0  0  0  0  0  0
    2.3500   -4.4417    0.0000 N   0  0  0  0  0  0  0  0  0  0  0  0
    2.3500   -2.3917    0.0000 N   0  0  0  0  0  0  0  0  0  0  0  0
    3.2375   -3.9292    0.0000 C   0  0  0  0  0  0  0  0  0  0  0  0
    5.8917   -4.4417    0.0000 C   0  0  0  0  0  0  0  0  0  0  0  0
    3.2375   -2.9042    0.0000 C   0  0  0  0  0  0  0  0  0  0  0  0
    5.9042   -5.4625    0.0000 C   0  0  0  0  0  0  0  0  0  0  0  0
    4.1292   -4.4417    0.0000 S   0  0  0  0  0  0  0  0  0  0  0  0
    1.4625   -3.9292    0.0000 C   0  0  0  0  0  0  0  0  0  0  0  0
    1.4667   -2.9042    0.0000 C   0  0  0  0  0  0  0  0  0  0  0  0
    7.6750   -4.4375    0.0000 C   0  0  0  0  0  0  0  0  0  0  0  0
    7.6500   -2.3875    0.0000 O   0  5  0  0  0  0  0  0  0  0  0  0
    5.0167   -5.9792    0.0000 C   0  0  0  0  0  0  0  0  0  0  0  0
    5.8792   -2.4000    0.0000 O   0  0  0  0  0  0  0  0  0  0  0  0
    4.1292   -5.4667    0.0000 C   0  0  0  0  0  0  0  0  0  0  0  0
    6.7917   -5.9792    0.0000 C   0  0  0  0  0  0  0  0  0  0  0  0
    5.0167   -7.0042    0.0000 O   0  0  0  0  0  0  0  0  0  0  0  0
    7.6792   -5.4625    0.0000 C   0  0  0  0  0  0  0  0  0  0  0  0
    8.5542   -3.9250    0.0000 Cl  0  0  0  0  0  0  0  0  0  0  0  0
    4.1167   -2.3917    0.0000 C   0  0  0  0  0  0  0  0  0  0  0  0
    0.5792   -4.4417    0.0000 C   0  0  0  0  0  0  0  0  0  0  0  0
    0.5792   -2.3917    0.0000 C   0  0  0  0  0  0  0  0  0  0  0  0
   -0.3083   -2.9042    0.0000 C   0  0  0  0  0  0  0  0  0  0  0  0
   -0.3083   -3.9375    0.0000 C   0  0  0  0  0  0  0  0  0  0  0  0
  2  1  1  0  0  0  0
  3  5  2  0  0  0  0
  4  7  2  0  0  0  0
  5  9  1  0  0  0  0
  6  2  2  0  0  0  0
  7  5  1  0  0  0  0
  8  6  1  0  0  0  0
  9 16  1  0  0  0  0
 10  3  1  0  0  0  0
 11  4  1  0  0  0  0
 12  2  1  0  0  0  0
 13  1  1  0  0  0  0
 14  8  1  0  0  0  0
 15  1  2  0  0  0  0
 16 14  1  0  0  0  0
 17 19  1  0  0  0  0
 18 14  2  0  0  0  0
 19 12  2  0  0  0  0
 20 12  1  0  0  0  0
 21  7  1  0  0  0  0
 22 10  2  0  0  0  0
 23 11  2  0  0  0  0
 24 23  1  0  0  0  0
 25 22  1  0  0  0  0
 17  8  2  0  0  0  0
 11 10  1  0  0  0  0
 24 25  2  0  0  0  0
M  CHG  2   1   1  13  -1
M  END
> <IDNUMBER>
F1625-0030

> <Chemical_Name>
1-(4-chloro-3-nitrophenyl)-2-[(3-methylquinoxalin-2-yl)sulfanyl]ethan-1-one

> <CAS>
710287-33-5

> <PriceCoeff>
1.00

> <MW>
373.81

> <Description>
solid

> <FSP3>
0.12

> <clogP>
4.44

> <TPSA>
111.29

> <Acceptor>
5

> <Donor>
0

> <RotBonds>
5

> <HAC>
25

> <Collection>
General

$$$$
F0541-1293
  -ISIS-  06222321142D

 28 31  0  0  0  0  0  0  0  0999 V2000
   -3.2375    2.3333    0.0000 C   0  0  0  0  0  0  0  0  0  0  0  0
   -3.9083    2.8208    0.0000 N   0  0  3  0  0  0  0  0  0  0  0  0
   -4.5833    2.3333    0.0000 N   0  0  0  0  0  0  0  0  0  0  0  0
   -3.4958    1.5458    0.0000 C   0  0  0  0  0  0  0  0  0  0  0  0
   -2.3833    2.3625    0.0000 N   0  0  0  0  0  0  0  0  0  0  0  0
   -4.3333    1.5458    0.0000 C   0  0  0  0  0  0  0  0  0  0  0  0
    0.0375    0.6000    0.0000 N   0  3  0  0  0  0  0  0  0  0  0  0
   -0.0583    1.4333    0.0000 C   0  0  0  0  0  0  0  0  0  0  0  0
   -1.7000    2.9250    0.0000 C   0  0  0  0  0  0  0  0  0  0  0  0
   -3.9083    3.6583    0.0000 C   0  0  0  0  0  0  0  0  0  0  0  0
   -0.8333    1.7500    0.0000 C   0  0  0  0  0  0  0  0  0  0  0  0
   -0.9333    2.5958    0.0000 C   0  0  0  0  0  0  0  0  0  0  0  0
    0.6167    1.9458    0.0000 C   0  0  0  0  0  0  0  0  0  0  0  0
   -3.1708    4.0750    0.0000 C   0  0  0  0  0  0  0  0  0  0  0  0
   -0.6250    0.0958    0.0000 O   0  5  0  0  0  0  0  0  0  0  0  0
   -3.9083    0.2708    0.0000 S   0  0  0  0  0  0  0  0  0  0  0  0
    0.8167    0.2833    0.0000 O   0  0  0  0  0  0  0  0  0  0  0  0
   -1.7625    3.8000    0.0000 O   0  0  0  0  0  0  0  0  0  0  0  0
   -3.2375    0.7583    0.0000 C   0  0  0  0  0  0  0  0  0  0  0  0
   -0.2583    3.1083    0.0000 C   0  0  0  0  0  0  0  0  0  0  0  0
    0.5042    2.7833    0.0000 C   0  0  0  0  0  0  0  0  0  0  0  0
   -4.5833    0.7583    0.0000 C   0  0  0  0  0  0  0  0  0  0  0  0
   -3.1708    4.9042    0.0000 C   0  0  0  0  0  0  0  0  0  0  0  0
    1.3917    1.6208    0.0000 Cl  0  0  0  0  0  0  0  0  0  0  0  0
   -2.4500    5.3292    0.0000 Cl  0  0  0  0  0  0  0  0  0  0  0  0
   -4.6250    4.0667    0.0000 C   0  0  0  0  0  0  0  0  0  0  0  0
   -4.6250    4.9042    0.0000 C   0  0  0  0  0  0  0  0  0  0  0  0
   -3.9083    5.3292    0.0000 C   0  0  0  0  0  0  0  0  0  0  0  0
  2  1  1  0  0  0  0
  3  2  1  0  0  0  0
  4  1  2  0  0  0  0
  5  1  1  0  0  0  0
  6  4  1  0  0  0  0
  7  8  1  0  0  0  0
  8 11  1  0  0  0  0
  9  5  1  0  0  0  0
 10  2  1  0  0  0  0
 11 12  2  0  0  0  0
 12  9  1  0  0  0  0
 13 21  1  0  0  0  0
 14 10  2  0  0  0  0
 15  7  1  0  0  0  0
 16 19  1  0  0  0  0
 17  7  2  0  0  0  0
 18  9  2  0  0  0  0
 19  4  1  0  0  0  0
 20 12  1  0  0  0  0
 21 20  2  0  0  0  0
 22  6  1  0  0  0  0
 23 14  1  0  0  0  0
 24 13  1  0  0  0  0
 25 23  1  0  0  0  0
 26 10  1  0  0  0  0
 27 26  2  0  0  0  0
 28 27  1  0  0  0  0
  6  3  2  0  0  0  0
 16 22  1  0  0  0  0
 28 23  2  0  0  0  0
 13  8  2  0  0  0  0
M  CHG  2   7   1  15  -1
M  END
> <IDNUMBER>
F0541-1293

> <Chemical_Name>
4-chloro-N-[2-(3-chlorophenyl)-2H,4H,6H-thieno[3,4-c]pyrazol-3-yl]-3-nitrobenzamide

> <CAS>
450340-92-8

> <PriceCoeff>
1.00

> <MW>
435.28

> <Description>
solid

> <FSP3>
0.11

> <clogP>
4.35

> <TPSA>
115.36

> <Acceptor>
4

> <Donor>
1

> <RotBonds>
4

> <HAC>
28

> <Collection>
General

$$$$
F3139-1573
  -ISIS-  06222321152D

 32 35  0  0  0  0  0  0  0  0999 V2000
    2.2375   -2.3292    0.0000 C   0  0  0  0  0  0  0  0  0  0  0  0
    1.5167   -2.7417    0.0000 C   0  0  0  0  0  0  0  0  0  0  0  0
    0.8042   -2.3292    0.0000 C   0  0  0  0  0  0  0  0  0  0  0  0
    2.2375   -1.5042    0.0000 C   0  0  0  0  0  0  0  0  0  0  0  0
    0.8042   -1.5042    0.0000 C   0  0  0  0  0  0  0  0  0  0  0  0
    2.9500   -2.7417    0.0000 C   0  0  0  0  0  0  0  0  0  0  0  0
    1.5167   -1.0917    0.0000 O   0  0  0  0  0  0  0  0  0  0  0  0
    0.0917   -1.0917    0.0000 C   0  0  0  0  0  0  0  0  0  0  0  0
    3.6625   -2.3292    0.0000 C   0  0  0  0  0  0  0  0  0  0  0  0
   -2.0583   -1.5042    0.0000 C   0  0  0  0  0  0  0  0  0  0  0  0
    0.0917   -2.7417    0.0000 C   0  0  0  0  0  0  0  0  0  0  0  0
    4.3750   -2.7417    0.0000 C   0  0  0  0  0  0  0  0  0  0  0  0
   -2.7708   -1.0792    0.0000 C   0  0  0  0  0  0  0  0  0  0  0  0
   -3.4875   -1.4917    0.0000 C   0  0  0  0  0  0  0  0  0  0  0  0
    1.5167   -3.5667    0.0000 O   0  0  0  0  0  0  0  0  0  0  0  0
   -0.6208   -1.5125    0.0000 C   0  0  0  0  0  0  0  0  0  0  0  0
    4.3792   -3.5667    0.0000 C   0  0  0  0  0  0  0  0  0  0  0  0
   -1.3458   -1.0917    0.0000 O   0  0  0  0  0  0  0  0  0  0  0  0
    2.9500   -3.5667    0.0000 C   0  0  0  0  0  0  0  0  0  0  0  0
   -2.0708   -2.3292    0.0000 O   0  0  0  0  0  0  0  0  0  0  0  0
    3.6625   -3.9792    0.0000 C   0  0  0  0  0  0  0  0  0  0  0  0
   -0.6208   -2.3292    0.0000 C   0  0  0  0  0  0  0  0  0  0  0  0
   -4.2083   -1.0667    0.0000 C   0  0  0  0  0  0  0  0  0  0  0  0
    5.0792   -2.3292    0.0000 O   0  0  0  0  0  0  0  0  0  0  0  0
    5.0875   -3.9792    0.0000 O   0  0  0  0  0  0  0  0  0  0  0  0
   -4.1958   -0.2417    0.0000 C   0  0  0  0  0  0  0  0  0  0  0  0
   -4.9208   -1.4750    0.0000 C   0  0  0  0  0  0  0  0  0  0  0  0
    5.0792   -1.5042    0.0000 C   0  0  0  0  0  0  0  0  0  0  0  0
    5.8042   -3.5667    0.0000 C   0  0  0  0  0  0  0  0  0  0  0  0
   -5.6250   -1.0542    0.0000 C   0  0  0  0  0  0  0  0  0  0  0  0
   -4.9083    0.1750    0.0000 C   0  0  0  0  0  0  0  0  0  0  0  0
   -5.6208   -0.2292    0.0000 C   0  0  0  0  0  0  0  0  0  0  0  0
  2  1  1  0  0  0  0
  3  2  1  0  0  0  0
  4  1  2  0  0  0  0
  5  7  1  0  0  0  0
  6  1  1  0  0  0  0
  7  4  1  0  0  0  0
  8  5  2  0  0  0  0
  9  6  1  0  0  0  0
 10 18  1  0  0  0  0
 11  3  2  0  0  0  0
 12  9  2  0  0  0  0
 13 10  1  0  0  0  0
 14 13  2  0  0  0  0
 15  2  2  0  0  0  0
 16  8  1  0  0  0  0
 17 21  2  0  0  0  0
 18 16  1  0  0  0  0
 19  6  2  0  0  0  0
 20 10  2  0  0  0  0
 21 19  1  0  0  0  0
 22 11  1  0  0  0  0
 23 14  1  0  0  0  0
 24 12  1  0  0  0  0
 25 17  1  0  0  0  0
 26 23  2  0  0  0  0
 27 23  1  0  0  0  0
 28 24  1  0  0  0  0
 29 25  1  0  0  0  0
 30 27  2  0  0  0  0
 31 26  1  0  0  0  0
 32 30  1  0  0  0  0
  3  5  1  0  0  0  0
 17 12  1  0  0  0  0
 22 16  2  0  0  0  0
 32 31  2  0  0  0  0
M  END
> <IDNUMBER>
F3139-1573

> <Chemical_Name>
3-(3,4-dimethoxyphenyl)-4-oxo-4H-chromen-7-yl (2E)-3-phenylprop-2-enoate

> <CAS>
637749-97-4

> <PriceCoeff>
1.00

> <MW>
428.43

> <Description>
solid

> <FSP3>
0.08

> <clogP>
4.79

> <TPSA>
71.06

> <Acceptor>
6

> <Donor>
0

> <RotBonds>
7

> <HAC>
32

> <Collection>
General

> <Reference_compound>
CHEMBL455048

> <Similarity>
0.8070

$$$$
F2098-0017
  -ISIS-  06222321142D

 29 31  0  0  0  0  0  0  0  0999 V2000
   12.4917   -3.6250    0.0000 S   0  0  3  0  0  0  0  0  0  0  0  0
    5.3292   -2.7917    0.0000 N   0  3  0  0  0  0  0  0  0  0  0  0
    5.3292   -3.6167    0.0000 C   0  0  0  0  0  0  0  0  0  0  0  0
   11.7667   -4.0417    0.0000 C   0  0  0  0  0  0  0  0  0  0  0  0
   11.7667   -4.8667    0.0000 N   0  0  0  0  0  0  0  0  0  0  0  0
    6.7667   -5.2792    0.0000 C   0  0  0  0  0  0  0  0  0  0  0  0
    6.0417   -4.0292    0.0000 C   0  0  0  0  0  0  0  0  0  0  0  0
   11.0542   -5.2792    0.0000 N   0  0  0  0  0  0  0  0  0  0  0  0
    6.0417   -4.8625    0.0000 C   0  0  0  0  0  0  0  0  0  0  0  0
    7.4792   -4.8667    0.0000 N   0  0  0  0  0  0  0  0  0  0  0  0
    4.6167   -4.0292    0.0000 C   0  0  0  0  0  0  0  0  0  0  0  0
   10.3292   -4.8667    0.0000 C   0  0  0  0  0  0  0  0  0  0  0  0
    6.0417   -2.3792    0.0000 O   0  5  0  0  0  0  0  0  0  0  0  0
   12.9125   -4.3500    0.0000 O   0  0  0  0  0  0  0  0  0  0  0  0
   12.0792   -2.9000    0.0000 O   0  0  0  0  0  0  0  0  0  0  0  0
    9.6250   -5.2792    0.0000 C   0  0  0  0  0  0  0  0  0  0  0  0
    4.6125   -2.3792    0.0000 O   0  0  0  0  0  0  0  0  0  0  0  0
   11.0500   -3.6292    0.0000 C   0  0  0  0  0  0  0  0  0  0  0  0
    8.1917   -5.2792    0.0000 C   0  0  0  0  0  0  0  0  0  0  0  0
    6.7625   -6.1125    0.0000 O   0  0  0  0  0  0  0  0  0  0  0  0
    8.9042   -4.8667    0.0000 C   0  0  0  0  0  0  0  0  0  0  0  0
    5.3292   -5.2750    0.0000 C   0  0  0  0  0  0  0  0  0  0  0  0
   10.3292   -4.0417    0.0000 C   0  0  0  0  0  0  0  0  0  0  0  0
    4.6167   -4.8625    0.0000 C   0  0  0  0  0  0  0  0  0  0  0  0
   13.2167   -3.2042    0.0000 C   0  0  0  0  0  0  0  0  0  0  0  0
    3.8917   -3.6125    0.0000 Cl  0  0  0  0  0  0  0  0  0  0  0  0
    9.6250   -6.1125    0.0000 C   0  0  0  0  0  0  0  0  0  0  0  0
    8.9042   -6.5250    0.0000 C   0  0  0  0  0  0  0  0  0  0  0  0
    8.1917   -6.1125    0.0000 C   0  0  0  0  0  0  0  0  0  0  0  0
  2  3  1  0  0  0  0
  3  7  1  0  0  0  0
  4  1  1  0  0  0  0
  5  4  2  0  0  0  0
  6 10  1  0  0  0  0
  7  9  2  0  0  0  0
  8  5  1  0  0  0  0
  9  6  1  0  0  0  0
 10 19  1  0  0  0  0
 11 24  1  0  0  0  0
 12 23  1  0  0  0  0
 13  2  1  0  0  0  0
 14  1  2  0  0  0  0
 15  1  2  0  0  0  0
 16 12  1  0  0  0  0
 17  2  2  0  0  0  0
 18  4  1  0  0  0  0
 19 21  1  0  0  0  0
 20  6  2  0  0  0  0
 21 16  2  0  0  0  0
 22  9  1  0  0  0  0
 23 18  2  0  0  0  0
 24 22  2  0  0  0  0
 25  1  1  0  0  0  0
 26 11  1  0  0  0  0
 27 16  1  0  0  0  0
 28 27  2  0  0  0  0
 29 28  1  0  0  0  0
 12  8  2  0  0  0  0
 19 29  2  0  0  0  0
  3 11  2  0  0  0  0
M  CHG  2   2   1  13  -1
M  END
> <IDNUMBER>
F2098-0017

> <Chemical_Name>
4-chloro-N-[3-(6-methanesulfonylpyridazin-3-yl)phenyl]-3-nitrobenzamide

> <CAS>
946376-15-4

> <PriceCoeff>
1.00

> <MW>
432.84

> <Description>
solid

> <FSP3>
0.06

> <clogP>
2.20

> <TPSA>
140.54

> <Acceptor>
7

> <Donor>
1

> <RotBonds>
5

> <HAC>
29

> <Collection>
General

$$$$
F2099-0017
  -ISIS-  06222321442D

 29 31  0  0  0  0  0  0  0  0999 V2000
   -3.1583    9.7417    0.0000 S   0  0  3  0  0  0  0  0  0  0  0  0
   -3.8083    1.8583    0.0000 N   0  3  0  0  0  0  0  0  0  0  0  0
   -3.1583    2.2458    0.0000 C   0  0  0  0  0  0  0  0  0  0  0  0
   -3.1583    8.9917    0.0000 C   0  0  0  0  0  0  0  0  0  0  0  0
   -2.5083    8.6167    0.0000 N   0  0  0  0  0  0  0  0  0  0  0  0
   -2.5083    4.1167    0.0000 C   0  0  0  0  0  0  0  0  0  0  0  0
   -3.1583    2.9958    0.0000 C   0  0  0  0  0  0  0  0  0  0  0  0
   -2.5083    7.8667    0.0000 N   0  0  0  0  0  0  0  0  0  0  0  0
   -2.5083    3.3708    0.0000 C   0  0  0  0  0  0  0  0  0  0  0  0
   -3.1583    4.4917    0.0000 N   0  0  0  0  0  0  0  0  0  0  0  0
   -2.5083    1.8708    0.0000 C   0  0  0  0  0  0  0  0  0  0  0  0
   -4.4708    2.2333    0.0000 O   0  5  0  0  0  0  0  0  0  0  0  0
   -3.1583    7.4917    0.0000 C   0  0  0  0  0  0  0  0  0  0  0  0
   -2.4083    9.7417    0.0000 O   0  0  0  0  0  0  0  0  0  0  0  0
   -3.9083    9.7417    0.0000 O   0  0  0  0  0  0  0  0  0  0  0  0
   -3.8000    1.1000    0.0000 O   0  0  0  0  0  0  0  0  0  0  0  0
   -3.8083    8.6167    0.0000 C   0  0  0  0  0  0  0  0  0  0  0  0
   -3.1583    6.7417    0.0000 C   0  0  0  0  0  0  0  0  0  0  0  0
   -1.8625    4.4917    0.0000 O   0  0  0  0  0  0  0  0  0  0  0  0
   -1.8583    2.9958    0.0000 C   0  0  0  0  0  0  0  0  0  0  0  0
   -3.8083    7.8667    0.0000 C   0  0  0  0  0  0  0  0  0  0  0  0
   -1.8583    2.2458    0.0000 C   0  0  0  0  0  0  0  0  0  0  0  0
   -3.1583    5.2417    0.0000 C   0  0  0  0  0  0  0  0  0  0  0  0
   -2.5083    6.3667    0.0000 C   0  0  0  0  0  0  0  0  0  0  0  0
   -3.8083    6.3667    0.0000 C   0  0  0  0  0  0  0  0  0  0  0  0
   -3.1583   10.4917    0.0000 C   0  0  0  0  0  0  0  0  0  0  0  0
   -2.5083    1.1208    0.0000 Cl  0  0  0  0  0  0  0  0  0  0  0  0
   -3.8083    5.6167    0.0000 C   0  0  0  0  0  0  0  0  0  0  0  0
   -2.5083    5.6167    0.0000 C   0  0  0  0  0  0  0  0  0  0  0  0
  2  3  1  0  0  0  0
  3  7  1  0  0  0  0
  4  1  1  0  0  0  0
  5  4  2  0  0  0  0
  6 10  1  0  0  0  0
  7  9  2  0  0  0  0
  8  5  1  0  0  0  0
  9  6  1  0  0  0  0
 10 23  1  0  0  0  0
 11 22  1  0  0  0  0
 12  2  1  0  0  0  0
 13 21  1  0  0  0  0
 14  1  2  0  0  0  0
 15  1  2  0  0  0  0
 16  2  2  0  0  0  0
 17  4  1  0  0  0  0
 18 13  1  0  0  0  0
 19  6  2  0  0  0  0
 20  9  1  0  0  0  0
 21 17  2  0  0  0  0
 22 20  2  0  0  0  0
 23 28  2  0  0  0  0
 24 18  1  0  0  0  0
 25 18  2  0  0  0  0
 26  1  1  0  0  0  0
 27 11  1  0  0  0  0
 28 25  1  0  0  0  0
 29 24  2  0  0  0  0
 13  8  2  0  0  0  0
 29 23  1  0  0  0  0
  3 11  2  0  0  0  0
M  CHG  2   2   1  12  -1
M  END
> <IDNUMBER>
F2099-0017

> <Chemical_Name>
4-chloro-N-[4-(6-methanesulfonylpyridazin-3-yl)phenyl]-3-nitrobenzamide

> <CAS>
921542-69-0

> <PriceCoeff>
1.00

> <MW>
432.84

> <Description>
solid

> <FSP3>
0.06

> <clogP>
2.20

> <TPSA>
140.54

> <Acceptor>
7

> <Donor>
1

> <RotBonds>
5

> <HAC>
29

> <Collection>
General

$$$$
F0326-1033
  -ISIS-  06222321142D

 25 27  0  0  0  0  0  0  0  0999 V2000
   -1.1333   -0.2375    0.0000 C   0  0  0  0  0  0  0  0  0  0  0  0
   -0.3958   -0.7667    0.0000 S   0  0  0  0  0  0  0  0  0  0  0  0
    0.3375   -0.2292    0.0000 C   0  0  0  0  0  0  0  0  0  0  0  0
    4.8167    1.3000    0.0000 N   0  3  0  0  0  0  0  0  0  0  0  0
    4.2167    0.6333    0.0000 C   0  0  0  0  0  0  0  0  0  0  0  0
   -0.8708    0.6000    0.0000 N   0  0  0  0  0  0  0  0  0  0  0  0
    1.2000   -0.4000    0.0000 N   0  0  0  0  0  0  0  0  0  0  0  0
    0.0042    0.6000    0.0000 N   0  0  0  0  0  0  0  0  0  0  0  0
   -1.9958   -0.5000    0.0000 C   0  0  0  0  0  0  0  0  0  0  0  0
    1.7875    0.2958    0.0000 C   0  0  0  0  0  0  0  0  0  0  0  0
    3.3000    0.7958    0.0000 C   0  0  0  0  0  0  0  0  0  0  0  0
    2.7042    0.1000    0.0000 C   0  0  0  0  0  0  0  0  0  0  0  0
    4.5167   -0.2167    0.0000 C   0  0  0  0  0  0  0  0  0  0  0  0
    5.7292    1.1958    0.0000 O   0  5  0  0  0  0  0  0  0  0  0  0
    4.6042    2.1833    0.0000 O   0  0  0  0  0  0  0  0  0  0  0  0
   -2.6625    0.1208    0.0000 C   0  0  0  0  0  0  0  0  0  0  0  0
    1.4875    1.1625    0.0000 O   0  0  0  0  0  0  0  0  0  0  0  0
    3.0167   -0.7500    0.0000 C   0  0  0  0  0  0  0  0  0  0  0  0
    3.9292   -0.9000    0.0000 C   0  0  0  0  0  0  0  0  0  0  0  0
    5.4042   -0.3875    0.0000 Cl  0  0  0  0  0  0  0  0  0  0  0  0
   -2.4833    1.0000    0.0000 Cl  0  0  0  0  0  0  0  0  0  0  0  0
   -2.1833   -1.3875    0.0000 C   0  0  0  0  0  0  0  0  0  0  0  0
   -3.5208   -0.1500    0.0000 C   0  0  0  0  0  0  0  0  0  0  0  0
   -3.0625   -1.6542    0.0000 C   0  0  0  0  0  0  0  0  0  0  0  0
   -3.7333   -1.0292    0.0000 C   0  0  0  0  0  0  0  0  0  0  0  0
  2  1  1  0  0  0  0
  3  2  1  0  0  0  0
  4  5  1  0  0  0  0
  5 11  1  0  0  0  0
  6  1  2  0  0  0  0
  7  3  1  0  0  0  0
  8  6  1  0  0  0  0
  9  1  1  0  0  0  0
 10  7  1  0  0  0  0
 11 12  2  0  0  0  0
 12 10  1  0  0  0  0
 13 19  1  0  0  0  0
 14  4  1  0  0  0  0
 15  4  2  0  0  0  0
 16  9  2  0  0  0  0
 17 10  2  0  0  0  0
 18 12  1  0  0  0  0
 19 18  2  0  0  0  0
 20 13  1  0  0  0  0
 21 16  1  0  0  0  0
 22  9  1  0  0  0  0
 23 16  1  0  0  0  0
 24 22  2  0  0  0  0
 25 24  1  0  0  0  0
  3  8  2  0  0  0  0
 25 23  2  0  0  0  0
  5 13  2  0  0  0  0
M  CHG  2   4   1  14  -1
M  END
> <IDNUMBER>
F0326-1033

> <Chemical_Name>
4-chloro-N-[5-(2-chlorophenyl)-1,3,4-thiadiazol-2-yl]-3-nitrobenzamide

> <CAS>
392244-20-1

> <PriceCoeff>
1.00

> <MW>
395.22

> <Description>
solid

> <FSP3>
0.00

> <clogP>
4.08

> <TPSA>
126.26

> <Acceptor>
5

> <Donor>
1

> <RotBonds>
4

> <HAC>
25

> <Collection>
General

$$$$
F0778-0195
  -ISIS-  06222321142D

 30 33  0  0  0  0  0  0  0  0999 V2000
   -3.2375    2.4958    0.0000 C   0  0  0  0  0  0  0  0  0  0  0  0
   -3.9083    2.9833    0.0000 N   0  0  3  0  0  0  0  0  0  0  0  0
   -4.5833    2.4958    0.0000 N   0  0  0  0  0  0  0  0  0  0  0  0
   -3.4958    1.7000    0.0000 C   0  0  0  0  0  0  0  0  0  0  0  0
   -2.4583    2.7458    0.0000 N   0  0  0  0  0  0  0  0  0  0  0  0
   -4.3333    1.7000    0.0000 C   0  0  0  0  0  0  0  0  0  0  0  0
    0.0917    4.3125    0.0000 N   0  3  0  0  0  0  0  0  0  0  0  0
   -0.1000    3.5208    0.0000 C   0  0  0  0  0  0  0  0  0  0  0  0
   -3.9250    6.2917    0.0000 N   0  3  0  0  0  0  0  0  0  0  0  0
   -1.8458    2.1958    0.0000 C   0  0  0  0  0  0  0  0  0  0  0  0
   -0.8875    3.2708    0.0000 C   0  0  0  0  0  0  0  0  0  0  0  0
   -1.0583    2.4458    0.0000 C   0  0  0  0  0  0  0  0  0  0  0  0
   -3.9083    3.8000    0.0000 C   0  0  0  0  0  0  0  0  0  0  0  0
   -3.9125    5.4667    0.0000 C   0  0  0  0  0  0  0  0  0  0  0  0
    0.5167    2.9625    0.0000 C   0  0  0  0  0  0  0  0  0  0  0  0
    0.8875    4.5542    0.0000 O   0  5  0  0  0  0  0  0  0  0  0  0
   -3.9083    0.4250    0.0000 S   0  0  0  0  0  0  0  0  0  0  0  0
   -3.2458    6.7667    0.0000 O   0  5  0  0  0  0  0  0  0  0  0  0
   -0.4958    4.8667    0.0000 O   0  0  0  0  0  0  0  0  0  0  0  0
   -4.6083    6.7292    0.0000 O   0  0  0  0  0  0  0  0  0  0  0  0
   -2.0125    1.3875    0.0000 O   0  0  0  0  0  0  0  0  0  0  0  0
   -3.2375    0.9125    0.0000 C   0  0  0  0  0  0  0  0  0  0  0  0
   -0.4583    1.9000    0.0000 C   0  0  0  0  0  0  0  0  0  0  0  0
   -4.6208    4.2167    0.0000 C   0  0  0  0  0  0  0  0  0  0  0  0
   -3.1958    4.2167    0.0000 C   0  0  0  0  0  0  0  0  0  0  0  0
   -3.1875    5.0417    0.0000 C   0  0  0  0  0  0  0  0  0  0  0  0
   -4.6208    5.0417    0.0000 C   0  0  0  0  0  0  0  0  0  0  0  0
    0.3375    2.1458    0.0000 C   0  0  0  0  0  0  0  0  0  0  0  0
   -4.5833    0.9125    0.0000 C   0  0  0  0  0  0  0  0  0  0  0  0
    1.3000    3.2208    0.0000 Cl  0  0  0  0  0  0  0  0  0  0  0  0
  2  1  1  0  0  0  0
  3  2  1  0  0  0  0
  4  1  2  0  0  0  0
  5  1  1  0  0  0  0
  6  4  1  0  0  0  0
  7  8  1  0  0  0  0
  8 11  2  0  0  0  0
  9 14  1  0  0  0  0
 10  5  1  0  0  0  0
 11 12  1  0  0  0  0
 12 10  1  0  0  0  0
 13  2  1  0  0  0  0
 14 26  2  0  0  0  0
 15 28  2  0  0  0  0
 16  7  1  0  0  0  0
 17 22  1  0  0  0  0
 18  9  1  0  0  0  0
 19  7  2  0  0  0  0
 20  9  2  0  0  0  0
 21 10  2  0  0  0  0
 22  4  1  0  0  0  0
 23 12  2  0  0  0  0
 24 13  1  0  0  0  0
 25 13  2  0  0  0  0
 26 25  1  0  0  0  0
 27 24  2  0  0  0  0
 28 23  1  0  0  0  0
 29  6  1  0  0  0  0
 30 15  1  0  0  0  0
  3  6  2  0  0  0  0
 29 17  1  0  0  0  0
 27 14  1  0  0  0  0
 15  8  1  0  0  0  0
M  CHG  4   7   1   9   1  16  -1  18  -1
M  END
> <IDNUMBER>
F0778-0195

> <Chemical_Name>
4-chloro-3-nitro-N-[2-(4-nitrophenyl)-2H,4H,6H-thieno[3,4-c]pyrazol-3-yl]benzamide

> <CAS>
396721-83-8

> <PriceCoeff>
1.00

> <MW>
445.84

> <Description>
solid

> <FSP3>
0.11

> <clogP>
3.48

> <TPSA>
158.50

> <Acceptor>
6

> <Donor>
1

> <RotBonds>
5

> <HAC>
30

> <Collection>
General

$$$$
F2204-0089
  -ISIS-  06222321462D

 31 34  0  0  0  0  0  0  0  0999 V2000
   -2.8208    1.5208    0.0000 C   0  0  0  0  0  0  0  0  0  0  0  0
   -2.8208    2.2708    0.0000 C   0  0  0  0  0  0  0  0  0  0  0  0
   -1.5250    1.5208    0.0000 N   0  0  3  0  0  0  0  0  0  0  0  0
   -3.5333    2.4958    0.0000 C   0  0  0  0  0  0  0  0  0  0  0  0
   -2.1750    1.1458    0.0000 C   0  0  0  0  0  0  0  0  0  0  0  0
   -1.5250    2.2708    0.0000 C   0  0  0  0  0  0  0  0  0  0  0  0
   -3.5333    1.2875    0.0000 N   0  0  3  0  0  0  0  0  0  0  0  0
   -2.1750    2.6458    0.0000 N   0  0  0  0  0  0  0  0  0  0  0  0
   -3.9708    1.9000    0.0000 C   0  0  0  0  0  0  0  0  0  0  0  0
   -3.9875    5.9042    0.0000 N   0  3  0  0  0  0  0  0  0  0  0  0
   -4.4833    5.3417    0.0000 C   0  0  0  0  0  0  0  0  0  0  0  0
   -3.7708    3.2208    0.0000 C   0  0  0  0  0  0  0  0  0  0  0  0
   -4.5083    3.3708    0.0000 N   0  0  0  0  0  0  0  0  0  0  0  0
   -4.2458    4.6292    0.0000 C   0  0  0  0  0  0  0  0  0  0  0  0
   -0.8833    1.1458    0.0000 C   0  0  0  0  0  0  0  0  0  0  0  0
   -0.8708    2.6458    0.0000 O   0  0  0  0  0  0  0  0  0  0  0  0
   -2.1750    0.3958    0.0000 O   0  0  0  0  0  0  0  0  0  0  0  0
   -5.2208    5.4917    0.0000 C   0  0  0  0  0  0  0  0  0  0  0  0
   -3.2583    5.7542    0.0000 O   0  5  0  0  0  0  0  0  0  0  0  0
   -4.2250    6.6125    0.0000 O   0  0  0  0  0  0  0  0  0  0  0  0
   -4.7458    4.0750    0.0000 C   0  0  0  0  0  0  0  0  0  0  0  0
   -3.2708    3.7750    0.0000 O   0  0  0  0  0  0  0  0  0  0  0  0
   -5.7208    4.9292    0.0000 C   0  0  0  0  0  0  0  0  0  0  0  0
   -3.7708    0.5708    0.0000 C   0  0  0  0  0  0  0  0  0  0  0  0
   -5.4750    4.2167    0.0000 C   0  0  0  0  0  0  0  0  0  0  0  0
   -5.4583    6.2125    0.0000 Cl  0  0  0  0  0  0  0  0  0  0  0  0
   -0.8833    0.3958    0.0000 C   0  0  0  0  0  0  0  0  0  0  0  0
   -0.2333    1.5208    0.0000 C   0  0  0  0  0  0  0  0  0  0  0  0
    0.4167    1.1458    0.0000 C   0  0  0  0  0  0  0  0  0  0  0  0
   -0.2333    0.0208    0.0000 C   0  0  0  0  0  0  0  0  0  0  0  0
    0.4167    0.3958    0.0000 C   0  0  0  0  0  0  0  0  0  0  0  0
  2  1  2  0  0  0  0
  3  5  1  0  0  0  0
  4  2  1  0  0  0  0
  5  1  1  0  0  0  0
  6  3  1  0  0  0  0
  7  1  1  0  0  0  0
  8  2  1  0  0  0  0
  9  7  1  0  0  0  0
 10 11  1  0  0  0  0
 11 14  1  0  0  0  0
 12  4  1  0  0  0  0
 13 12  1  0  0  0  0
 14 21  2  0  0  0  0
 15  3  1  0  0  0  0
 16  6  2  0  0  0  0
 17  5  2  0  0  0  0
 18 23  1  0  0  0  0
 19 10  1  0  0  0  0
 20 10  2  0  0  0  0
 21 13  1  0  0  0  0
 22 12  2  0  0  0  0
 23 25  2  0  0  0  0
 24  7  1  0  0  0  0
 25 21  1  0  0  0  0
 26 18  1  0  0  0  0
 27 15  1  0  0  0  0
 28 15  2  0  0  0  0
 29 28  1  0  0  0  0
 30 27  2  0  0  0  0
 31 29  2  0  0  0  0
  4  9  2  0  0  0  0
  6  8  1  0  0  0  0
 30 31  1  0  0  0  0
 18 11  2  0  0  0  0
M  CHG  2  10   1  19  -1
M  END
> <IDNUMBER>
F2204-0089

> <Chemical_Name>
N-(4-chloro-3-nitrophenyl)-5-methyl-2,4-dioxo-3-phenyl-1H,2H,3H,4H,5H-pyrrolo[3,2-d]pyrimidine-7-carboxamide

> <CAS>
923141-06-4

> <PriceCoeff>
1.00

> <MW>
439.81

> <Description>
solid

> <FSP3>
0.05

> <clogP>
4.36

> <TPSA>
126.58

> <Acceptor>
5

> <Donor>
2

> <RotBonds>
4

> <HAC>
31

> <Collection>
General

$$$$
F0541-0646
  -ISIS-  06222321142D

 32 35  0  0  0  0  0  0  0  0999 V2000
   -3.1750    2.0833    0.0000 C   0  0  0  0  0  0  0  0  0  0  0  0
   -3.4333    1.2958    0.0000 C   0  0  0  0  0  0  0  0  0  0  0  0
   -3.8458    2.5708    0.0000 N   0  0  3  0  0  0  0  0  0  0  0  0
   -4.2708    1.2958    0.0000 C   0  0  0  0  0  0  0  0  0  0  0  0
   -4.5208    2.0833    0.0000 N   0  0  0  0  0  0  0  0  0  0  0  0
   -3.8458    0.0208    0.0000 S   0  0  3  0  0  0  0  0  0  0  0  0
   -2.4458    1.8958    0.0000 N   0  0  0  0  0  0  0  0  0  0  0  0
   -0.0500   -0.2625    0.0000 N   0  3  0  0  0  0  0  0  0  0  0  0
   -0.0208    0.6208    0.0000 C   0  0  0  0  0  0  0  0  0  0  0  0
   -4.5208    0.5083    0.0000 C   0  0  0  0  0  0  0  0  0  0  0  0
   -3.8375    6.0917    0.0000 N   0  3  0  0  0  0  0  0  0  0  0  0
   -1.5125    2.4250    0.0000 C   0  0  0  0  0  0  0  0  0  0  0  0
   -3.1750    0.5083    0.0000 C   0  0  0  0  0  0  0  0  0  0  0  0
   -0.7833    1.0750    0.0000 C   0  0  0  0  0  0  0  0  0  0  0  0
   -0.7625    1.9708    0.0000 C   0  0  0  0  0  0  0  0  0  0  0  0
   -3.8458    3.4583    0.0000 C   0  0  0  0  0  0  0  0  0  0  0  0
   -3.8333    5.2167    0.0000 C   0  0  0  0  0  0  0  0  0  0  0  0
   -3.2333   -0.3542    0.0000 O   0  0  0  0  0  0  0  0  0  0  0  0
   -4.5625   -0.3917    0.0000 O   0  0  0  0  0  0  0  0  0  0  0  0
    0.7542    1.0500    0.0000 C   0  0  0  0  0  0  0  0  0  0  0  0
   -0.8208   -0.6917    0.0000 O   0  5  0  0  0  0  0  0  0  0  0  0
   -3.0750    6.5417    0.0000 O   0  5  0  0  0  0  0  0  0  0  0  0
    0.7167   -0.7167    0.0000 O   0  0  0  0  0  0  0  0  0  0  0  0
   -4.6000    6.5292    0.0000 O   0  0  0  0  0  0  0  0  0  0  0  0
   -1.4833    3.2375    0.0000 O   0  0  0  0  0  0  0  0  0  0  0  0
    0.0167    2.3958    0.0000 C   0  0  0  0  0  0  0  0  0  0  0  0
   -4.6000    3.8958    0.0000 C   0  0  0  0  0  0  0  0  0  0  0  0
   -3.0708    3.9000    0.0000 C   0  0  0  0  0  0  0  0  0  0  0  0
   -3.0708    4.7750    0.0000 C   0  0  0  0  0  0  0  0  0  0  0  0
   -4.6000    4.7750    0.0000 C   0  0  0  0  0  0  0  0  0  0  0  0
    0.7667    1.9333    0.0000 C   0  0  0  0  0  0  0  0  0  0  0  0
    1.5125    0.5958    0.0000 Cl  0  0  0  0  0  0  0  0  0  0  0  0
  2  1  2  0  0  0  0
  3  1  1  0  0  0  0
  4  2  1  0  0  0  0
  5  3  1  0  0  0  0
  6 13  1  0  0  0  0
  7  1  1  0  0  0  0
  8  9  1  0  0  0  0
  9 14  1  0  0  0  0
 10  4  1  0  0  0  0
 11 17  1  0  0  0  0
 12  7  1  0  0  0  0
 13  2  1  0  0  0  0
 14 15  2  0  0  0  0
 15 12  1  0  0  0  0
 16  3  1  0  0  0  0
 17 29  2  0  0  0  0
 18  6  2  0  0  0  0
 19  6  2  0  0  0  0
 20 31  1  0  0  0  0
 21  8  1  0  0  0  0
 22 11  1  0  0  0  0
 23  8  2  0  0  0  0
 24 11  2  0  0  0  0
 25 12  2  0  0  0  0
 26 15  1  0  0  0  0
 27 16  1  0  0  0  0
 28 16  2  0  0  0  0
 29 28  1  0  0  0  0
 30 27  2  0  0  0  0
 31 26  2  0  0  0  0
 32 20  1  0  0  0  0
  4  5  2  0  0  0  0
  6 10  1  0  0  0  0
 17 30  1  0  0  0  0
 20  9  2  0  0  0  0
M  CHG  4   8   1  11   1  21  -1  22  -1
M  END
> <IDNUMBER>
F0541-0646

> <Chemical_Name>
4-chloro-3-nitro-N-[2-(4-nitrophenyl)-5,5-dioxo-2H,4H,6H-5lambda6-thieno[3,4-c]pyrazol-3-yl]benzamide

> <CAS>
450336-47-7

> <PriceCoeff>
1.00

> <MW>
477.84

> <Description>
solid

> <FSP3>
0.11

> <clogP>
1.34

> <TPSA>
175.72

> <Acceptor>
8

> <Donor>
1

> <RotBonds>
5

> <HAC>
32

> <Collection>
General

$$$$
F2099-0133
  -ISIS-  06222321142D

 30 32  0  0  0  0  0  0  0  0999 V2000
   -3.1583    9.7417    0.0000 S   0  0  3  0  0  0  0  0  0  0  0  0
   -3.8083    1.8583    0.0000 N   0  3  0  0  0  0  0  0  0  0  0  0
   -3.1583    2.2458    0.0000 C   0  0  0  0  0  0  0  0  0  0  0  0
   -3.1583    8.9917    0.0000 C   0  0  0  0  0  0  0  0  0  0  0  0
   -2.5083    8.6167    0.0000 N   0  0  0  0  0  0  0  0  0  0  0  0
   -2.5083    4.1167    0.0000 C   0  0  0  0  0  0  0  0  0  0  0  0
   -3.1583    2.9958    0.0000 C   0  0  0  0  0  0  0  0  0  0  0  0
   -2.5083    7.8667    0.0000 N   0  0  0  0  0  0  0  0  0  0  0  0
   -2.5083    3.3708    0.0000 C   0  0  0  0  0  0  0  0  0  0  0  0
   -3.1583    4.4917    0.0000 N   0  0  0  0  0  0  0  0  0  0  0  0
   -2.5083    1.8708    0.0000 C   0  0  0  0  0  0  0  0  0  0  0  0
   -4.4708    2.2333    0.0000 O   0  5  0  0  0  0  0  0  0  0  0  0
   -3.1583    7.4917    0.0000 C   0  0  0  0  0  0  0  0  0  0  0  0
   -2.4083    9.7417    0.0000 O   0  0  0  0  0  0  0  0  0  0  0  0
   -3.9083    9.7417    0.0000 O   0  0  0  0  0  0  0  0  0  0  0  0
   -3.8000    1.1000    0.0000 O   0  0  0  0  0  0  0  0  0  0  0  0
   -3.8083    8.6167    0.0000 C   0  0  0  0  0  0  0  0  0  0  0  0
   -3.1583    6.7417    0.0000 C   0  0  0  0  0  0  0  0  0  0  0  0
   -1.8625    4.4917    0.0000 O   0  0  0  0  0  0  0  0  0  0  0  0
   -1.8583    2.9958    0.0000 C   0  0  0  0  0  0  0  0  0  0  0  0
   -3.8083    7.8667    0.0000 C   0  0  0  0  0  0  0  0  0  0  0  0
   -1.8583    2.2458    0.0000 C   0  0  0  0  0  0  0  0  0  0  0  0
   -3.1583    5.2417    0.0000 C   0  0  0  0  0  0  0  0  0  0  0  0
   -2.5083    6.3667    0.0000 C   0  0  0  0  0  0  0  0  0  0  0  0
   -3.8083    6.3667    0.0000 C   0  0  0  0  0  0  0  0  0  0  0  0
   -3.1583   10.4917    0.0000 C   0  0  0  0  0  0  0  0  0  0  0  0
   -2.5083    1.1208    0.0000 Cl  0  0  0  0  0  0  0  0  0  0  0  0
   -3.8083    5.6167    0.0000 C   0  0  0  0  0  0  0  0  0  0  0  0
   -2.5083    5.6167    0.0000 C   0  0  0  0  0  0  0  0  0  0  0  0
   -3.8000   10.8667    0.0000 C   0  0  0  0  0  0  0  0  0  0  0  0
  2  3  1  0  0  0  0
  3  7  1  0  0  0  0
  4  1  1  0  0  0  0
  5  4  2  0  0  0  0
  6 10  1  0  0  0  0
  7  9  2  0  0  0  0
  8  5  1  0  0  0  0
  9  6  1  0  0  0  0
 10 23  1  0  0  0  0
 11 22  1  0  0  0  0
 12  2  1  0  0  0  0
 13 21  1  0  0  0  0
 14  1  2  0  0  0  0
 15  1  2  0  0  0  0
 16  2  2  0  0  0  0
 17  4  1  0  0  0  0
 18 13  1  0  0  0  0
 19  6  2  0  0  0  0
 20  9  1  0  0  0  0
 21 17  2  0  0  0  0
 22 20  2  0  0  0  0
 23 28  2  0  0  0  0
 24 18  1  0  0  0  0
 25 18  2  0  0  0  0
 26  1  1  0  0  0  0
 27 11  1  0  0  0  0
 28 25  1  0  0  0  0
 29 24  2  0  0  0  0
 30 26  1  0  0  0  0
 13  8  2  0  0  0  0
 29 23  1  0  0  0  0
  3 11  2  0  0  0  0
M  CHG  2   2   1  12  -1
M  END
> <IDNUMBER>
F2099-0133

> <Chemical_Name>
4-chloro-N-{4-[6-(ethanesulfonyl)pyridazin-3-yl]phenyl}-3-nitrobenzamide

> <CAS>
1005307-71-0

> <PriceCoeff>
1.00

> <MW>
446.86

> <Description>
solid

> <FSP3>
0.11

> <clogP>
2.73

> <TPSA>
140.54

> <Acceptor>
7

> <Donor>
1

> <RotBonds>
6

> <HAC>
30

> <Collection>
General

$$$$
F2098-0133
  -ISIS-  06222321442D

 30 32  0  0  0  0  0  0  0  0999 V2000
   12.8542   -3.6250    0.0000 S   0  0  3  0  0  0  0  0  0  0  0  0
    5.6875   -2.7917    0.0000 N   0  3  0  0  0  0  0  0  0  0  0  0
    5.6875   -3.6167    0.0000 C   0  0  0  0  0  0  0  0  0  0  0  0
   12.1292   -4.0417    0.0000 C   0  0  0  0  0  0  0  0  0  0  0  0
   12.1292   -4.8667    0.0000 N   0  0  0  0  0  0  0  0  0  0  0  0
    7.1250   -5.2792    0.0000 C   0  0  0  0  0  0  0  0  0  0  0  0
    6.4042   -4.0292    0.0000 C   0  0  0  0  0  0  0  0  0  0  0  0
   11.4125   -5.2792    0.0000 N   0  0  0  0  0  0  0  0  0  0  0  0
    6.4042   -4.8625    0.0000 C   0  0  0  0  0  0  0  0  0  0  0  0
    7.8375   -4.8667    0.0000 N   0  0  0  0  0  0  0  0  0  0  0  0
    4.9750   -4.0292    0.0000 C   0  0  0  0  0  0  0  0  0  0  0  0
   10.6917   -4.8667    0.0000 C   0  0  0  0  0  0  0  0  0  0  0  0
    6.4000   -2.3792    0.0000 O   0  5  0  0  0  0  0  0  0  0  0  0
   13.2667   -4.3500    0.0000 O   0  0  0  0  0  0  0  0  0  0  0  0
   12.4375   -2.9000    0.0000 O   0  0  0  0  0  0  0  0  0  0  0  0
    9.9792   -5.2792    0.0000 C   0  0  0  0  0  0  0  0  0  0  0  0
    4.9667   -2.3792    0.0000 O   0  0  0  0  0  0  0  0  0  0  0  0
   11.4042   -3.6292    0.0000 C   0  0  0  0  0  0  0  0  0  0  0  0
    8.5542   -5.2792    0.0000 C   0  0  0  0  0  0  0  0  0  0  0  0
    7.1167   -6.1125    0.0000 O   0  0  0  0  0  0  0  0  0  0  0  0
    9.2667   -4.8667    0.0000 C   0  0  0  0  0  0  0  0  0  0  0  0
    5.6875   -5.2750    0.0000 C   0  0  0  0  0  0  0  0  0  0  0  0
   10.6917   -4.0417    0.0000 C   0  0  0  0  0  0  0  0  0  0  0  0
    4.9750   -4.8625    0.0000 C   0  0  0  0  0  0  0  0  0  0  0  0
   13.5792   -3.2042    0.0000 C   0  0  0  0  0  0  0  0  0  0  0  0
    4.2542   -3.6125    0.0000 Cl  0  0  0  0  0  0  0  0  0  0  0  0
    9.9792   -6.1125    0.0000 C   0  0  0  0  0  0  0  0  0  0  0  0
    9.2667   -6.5250    0.0000 C   0  0  0  0  0  0  0  0  0  0  0  0
    8.5542   -6.1125    0.0000 C   0  0  0  0  0  0  0  0  0  0  0  0
   13.5792   -2.3750    0.0000 C   0  0  0  0  0  0  0  0  0  0  0  0
  2  3  1  0  0  0  0
  3  7  1  0  0  0  0
  4  1  1  0  0  0  0
  5  4  2  0  0  0  0
  6 10  1  0  0  0  0
  7  9  2  0  0  0  0
  8  5  1  0  0  0  0
  9  6  1  0  0  0  0
 10 19  1  0  0  0  0
 11 24  1  0  0  0  0
 12 23  1  0  0  0  0
 13  2  1  0  0  0  0
 14  1  2  0  0  0  0
 15  1  2  0  0  0  0
 16 12  1  0  0  0  0
 17  2  2  0  0  0  0
 18  4  1  0  0  0  0
 19 21  1  0  0  0  0
 20  6  2  0  0  0  0
 21 16  2  0  0  0  0
 22  9  1  0  0  0  0
 23 18  2  0  0  0  0
 24 22  2  0  0  0  0
 25  1  1  0  0  0  0
 26 11  1  0  0  0  0
 27 16  1  0  0  0  0
 28 27  2  0  0  0  0
 29 28  1  0  0  0  0
 30 25  1  0  0  0  0
 12  8  2  0  0  0  0
 19 29  2  0  0  0  0
  3 11  2  0  0  0  0
M  CHG  2   2   1  13  -1
M  END
> <IDNUMBER>
F2098-0133

> <Chemical_Name>
4-chloro-N-{3-[6-(ethanesulfonyl)pyridazin-3-yl]phenyl}-3-nitrobenzamide

> <CAS>
946272-45-3

> <PriceCoeff>
1.00

> <MW>
446.86

> <Description>
solid

> <FSP3>
0.11

> <clogP>
2.73

> <TPSA>
140.54

> <Acceptor>
7

> <Donor>
1

> <RotBonds>
6

> <HAC>
30

> <Collection>
General

$$$$
F0095-0737
  -ISIS-  06222321142D

 21 23  0  0  0  0  0  0  0  0999 V2000
    0.9875    0.1625    0.0000 S   0  0  3  0  0  0  0  0  0  0  0  0
    0.9667   -0.6792    0.0000 O   0  0  0  0  0  0  0  0  0  0  0  0
    0.9875    0.9708    0.0000 C   0  0  0  0  0  0  0  0  0  0  0  0
    0.1500    0.1625    0.0000 O   0  0  0  0  0  0  0  0  0  0  0  0
    1.8000    0.1458    0.0000 O   0  0  0  0  0  0  0  0  0  0  0  0
    0.2375   -1.0875    0.0000 C   0  0  0  0  0  0  0  0  0  0  0  0
   -0.4833   -2.3292    0.0000 C   0  0  0  0  0  0  0  0  0  0  0  0
    0.2375   -1.9167    0.0000 C   0  0  0  0  0  0  0  0  0  0  0  0
    0.2667    1.4000    0.0000 C   0  0  0  0  0  0  0  0  0  0  0  0
    1.7000    1.3833    0.0000 C   0  0  0  0  0  0  0  0  0  0  0  0
   -1.1958   -1.9167    0.0000 C   0  0  0  0  0  0  0  0  0  0  0  0
   -1.1958   -1.0875    0.0000 C   0  0  0  0  0  0  0  0  0  0  0  0
    0.9875    2.6333    0.0000 C   0  0  0  0  0  0  0  0  0  0  0  0
   -0.4833   -0.6792    0.0000 C   0  0  0  0  0  0  0  0  0  0  0  0
    0.2667    2.2208    0.0000 C   0  0  0  0  0  0  0  0  0  0  0  0
    1.7000    2.2208    0.0000 C   0  0  0  0  0  0  0  0  0  0  0  0
    0.9875    3.4458    0.0000 Cl  0  0  0  0  0  0  0  0  0  0  0  0
   -0.4833   -3.1542    0.0000 C   0  0  0  0  0  0  0  0  0  0  0  0
   -1.9125   -2.3375    0.0000 C   0  0  0  0  0  0  0  0  0  0  0  0
   -1.1958   -3.5667    0.0000 C   0  0  0  0  0  0  0  0  0  0  0  0
   -1.9125   -3.1542    0.0000 C   0  0  0  0  0  0  0  0  0  0  0  0
  2  1  1  0  0  0  0
  3  1  1  0  0  0  0
  4  1  2  0  0  0  0
  5  1  2  0  0  0  0
  6  2  1  0  0  0  0
  7  8  1  0  0  0  0
  8  6  2  0  0  0  0
  9  3  1  0  0  0  0
 10  3  2  0  0  0  0
 11 12  1  0  0  0  0
 12 14  2  0  0  0  0
 13 16  2  0  0  0  0
 14  6  1  0  0  0  0
 15  9  2  0  0  0  0
 16 10  1  0  0  0  0
 17 13  1  0  0  0  0
 18  7  1  0  0  0  0
 19 11  1  0  0  0  0
 20 18  2  0  0  0  0
 21 19  2  0  0  0  0
 15 13  1  0  0  0  0
 11  7  2  0  0  0  0
 21 20  1  0  0  0  0
M  END
> <IDNUMBER>
F0095-0737

> <Chemical_Name>
naphthalen-2-yl 4-chlorobenzene-1-sulfonate

> <CAS>
56059-50-8

> <PriceCoeff>
1.00

> <MW>
318.77

> <Description>
solid

> <FSP3>
0.00

> <clogP>
4.98

> <TPSA>
51.75

> <Acceptor>
3

> <Donor>
0

> <RotBonds>
3

> <HAC>
21

> <Collection>
General

> <Reference_compound>
PRI3215

> <Similarity>
0.9270

$$$$
F1168-0083
  -ISIS-  06222321142D

 29 32  0  0  0  0  0  0  0  0999 V2000
    1.0750   -2.0042    0.0000 C   0  0  0  0  0  0  0  0  0  0  0  0
    2.5042   -2.0042    0.0000 C   0  0  0  0  0  0  0  0  0  0  0  0
    1.7875   -2.4167    0.0000 N   0  0  0  0  0  0  0  0  0  0  0  0
    2.5042   -1.1750    0.0000 C   0  0  0  0  0  0  0  0  0  0  0  0
    1.0750   -1.1750    0.0000 N   0  0  0  0  0  0  0  0  0  0  0  0
    1.7875   -0.7542    0.0000 C   0  0  3  0  0  0  0  0  0  0  0  0
    1.7875    0.0708    0.0000 C   0  0  0  0  0  0  0  0  0  0  0  0
    2.5042    1.3208    0.0000 C   0  0  0  0  0  0  0  0  0  0  0  0
    2.5042    0.4875    0.0000 C   0  0  0  0  0  0  0  0  0  0  0  0
    0.3542   -2.4167    0.0000 S   0  0  0  0  0  0  0  0  0  0  0  0
    3.2250    1.7333    0.0000 O   0  0  0  0  0  0  0  0  0  0  0  0
    3.2167   -2.4167    0.0000 C   0  0  0  0  0  0  0  0  0  0  0  0
    1.7917    1.7333    0.0000 C   0  0  0  0  0  0  0  0  0  0  0  0
    1.0750    0.4875    0.0000 C   0  0  0  0  0  0  0  0  0  0  0  0
    1.0667    1.3125    0.0000 C   0  0  0  0  0  0  0  0  0  0  0  0
    3.9375    1.3208    0.0000 C   0  0  0  0  0  0  0  0  0  0  0  0
    1.7917    2.5583    0.0000 O   0  0  0  0  0  0  0  0  0  0  0  0
    4.6542    1.7333    0.0000 C   0  0  0  0  0  0  0  0  0  0  0  0
    3.9375   -2.0042    0.0000 C   0  0  0  0  0  0  0  0  0  0  0  0
    3.2167   -3.2500    0.0000 C   0  0  0  0  0  0  0  0  0  0  0  0
    2.5042    2.9708    0.0000 C   0  0  0  0  0  0  0  0  0  0  0  0
    5.3667    1.3208    0.0000 C   0  0  0  0  0  0  0  0  0  0  0  0
    4.6500    2.5500    0.0000 C   0  0  0  0  0  0  0  0  0  0  0  0
    4.6542   -2.4167    0.0000 C   0  0  0  0  0  0  0  0  0  0  0  0
    3.9375   -3.6625    0.0000 C   0  0  0  0  0  0  0  0  0  0  0  0
    5.3542    2.9708    0.0000 C   0  0  0  0  0  0  0  0  0  0  0  0
    6.0792    1.7333    0.0000 C   0  0  0  0  0  0  0  0  0  0  0  0
    4.6542   -3.2500    0.0000 C   0  0  0  0  0  0  0  0  0  0  0  0
    6.0792    2.5583    0.0000 C   0  0  0  0  0  0  0  0  0  0  0  0
  2  3  1  0  0  0  0
  3  1  1  0  0  0  0
  4  6  1  0  0  0  0
  5  1  1  0  0  0  0
  6  5  1  0  0  0  0
  7  6  1  0  0  0  0
  8  9  1  0  0  0  0
  9  7  2  0  0  0  0
 10  1  2  0  0  0  0
 11  8  1  0  0  0  0
 12  2  1  0  0  0  0
 13 15  1  0  0  0  0
 14  7  1  0  0  0  0
 15 14  2  0  0  0  0
 16 11  1  0  0  0  0
 17 13  1  0  0  0  0
 18 16  1  0  0  0  0
 19 12  1  0  0  0  0
 20 12  2  0  0  0  0
 21 17  1  0  0  0  0
 22 18  2  0  0  0  0
 23 18  1  0  0  0  0
 24 19  2  0  0  0  0
 25 20  1  0  0  0  0
 26 23  2  0  0  0  0
 27 22  1  0  0  0  0
 28 25  2  0  0  0  0
 29 26  1  0  0  0  0
  2  4  2  0  0  0  0
  8 13  2  0  0  0  0
 28 24  1  0  0  0  0
 27 29  2  0  0  0  0
M  END
> <IDNUMBER>
F1168-0083

> <Chemical_Name>
4-[3-(benzyloxy)-4-methoxyphenyl]-6-phenyl-1,2,3,4-tetrahydropyrimidine-2-thione

> <CAS>
503433-25-8

> <PriceCoeff>
1.00

> <MW>
402.51

> <Description>
solid

> <FSP3>
0.12

> <clogP>
4.41

> <TPSA>
74.61

> <Acceptor>
3

> <Donor>
2

> <RotBonds>
6

> <HAC>
29

> <Collection>
General

> <Reference_compound>
CHEMBL2272931

> <Similarity>
0.8380

$$$$
F2722-0119
  -ISIS-  06222321442D

 32 35  0  0  0  0  0  0  0  0999 V2000
    1.1667   -0.9625    0.0000 N   0  0  3  0  0  0  0  0  0  0  0  0
    0.3667   -0.7875    0.0000 C   0  0  0  0  0  0  0  0  0  0  0  0
    1.4250   -1.7417    0.0000 C   0  0  0  0  0  0  0  0  0  0  0  0
    0.8667   -2.3542    0.0000 N   0  0  0  0  0  0  0  0  0  0  0  0
    6.7375   -0.9750    0.0000 N   0  3  0  0  0  0  0  0  0  0  0  0
    6.2250   -0.3167    0.0000 C   0  0  0  0  0  0  0  0  0  0  0  0
   -0.1875   -1.3917    0.0000 C   0  0  0  0  0  0  0  0  0  0  0  0
    1.6167   -0.2750    0.0000 C   0  0  0  0  0  0  0  0  0  0  0  0
    0.0667   -2.1792    0.0000 C   0  0  0  0  0  0  0  0  0  0  0  0
    4.0750    0.0958    0.0000 C   0  0  0  0  0  0  0  0  0  0  0  0
    3.5625    0.7458    0.0000 N   0  0  0  0  0  0  0  0  0  0  0  0
    5.4042   -0.4375    0.0000 C   0  0  0  0  0  0  0  0  0  0  0  0
    2.7375    0.6208    0.0000 C   0  0  0  0  0  0  0  0  0  0  0  0
    2.4375   -0.1417    0.0000 C   0  0  0  0  0  0  0  0  0  0  0  0
    4.8917    0.2125    0.0000 C   0  0  0  0  0  0  0  0  0  0  0  0
    6.5292    0.4458    0.0000 C   0  0  0  0  0  0  0  0  0  0  0  0
    0.1167    0.0083    0.0000 O   0  0  0  0  0  0  0  0  0  0  0  0
    6.4292   -1.7417    0.0000 O   0  5  0  0  0  0  0  0  0  0  0  0
    7.5542   -0.8542    0.0000 O   0  0  0  0  0  0  0  0  0  0  0  0
    2.2167    1.2708    0.0000 C   0  0  0  0  0  0  0  0  0  0  0  0
    1.1000    0.3708    0.0000 C   0  0  0  0  0  0  0  0  0  0  0  0
    3.7667   -0.6667    0.0000 O   0  0  0  0  0  0  0  0  0  0  0  0
    5.2042    0.9833    0.0000 C   0  0  0  0  0  0  0  0  0  0  0  0
    6.0250    1.0958    0.0000 C   0  0  0  0  0  0  0  0  0  0  0  0
    1.4000    1.1458    0.0000 C   0  0  0  0  0  0  0  0  0  0  0  0
    2.2417   -1.9042    0.0000 C   0  0  0  0  0  0  0  0  0  0  0  0
    7.3542    0.5625    0.0000 Cl  0  0  0  0  0  0  0  0  0  0  0  0
    2.5167    2.0458    0.0000 F   0  0  0  0  0  0  0  0  0  0  0  0
   -0.9958   -1.2167    0.0000 C   0  0  0  0  0  0  0  0  0  0  0  0
   -0.4875   -2.7875    0.0000 C   0  0  0  0  0  0  0  0  0  0  0  0
   -1.5458   -1.8292    0.0000 C   0  0  0  0  0  0  0  0  0  0  0  0
   -1.2875   -2.6125    0.0000 C   0  0  0  0  0  0  0  0  0  0  0  0
  2  1  1  0  0  0  0
  3  1  1  0  0  0  0
  4  3  2  0  0  0  0
  5  6  1  0  0  0  0
  6 12  1  0  0  0  0
  7  2  1  0  0  0  0
  8  1  1  0  0  0  0
  9  4  1  0  0  0  0
 10 11  1  0  0  0  0
 11 13  1  0  0  0  0
 12 15  2  0  0  0  0
 13 14  1  0  0  0  0
 14  8  2  0  0  0  0
 15 10  1  0  0  0  0
 16 24  1  0  0  0  0
 17  2  2  0  0  0  0
 18  5  1  0  0  0  0
 19  5  2  0  0  0  0
 20 25  1  0  0  0  0
 21  8  1  0  0  0  0
 22 10  2  0  0  0  0
 23 15  1  0  0  0  0
 24 23  2  0  0  0  0
 25 21  2  0  0  0  0
 26  3  1  0  0  0  0
 27 16  1  0  0  0  0
 28 20  1  0  0  0  0
 29  7  2  0  0  0  0
 30  9  2  0  0  0  0
 31 29  1  0  0  0  0
 32 30  1  0  0  0  0
  7  9  1  0  0  0  0
 20 13  2  0  0  0  0
 31 32  2  0  0  0  0
 16  6  2  0  0  0  0
M  CHG  2   5   1  18  -1
M  END
> <IDNUMBER>
F2722-0119

> <Chemical_Name>
4-chloro-N-[2-fluoro-5-(2-methyl-4-oxo-3,4-dihydroquinazolin-3-yl)phenyl]-3-nitrobenzamide

> <CAS>
922632-59-5

> <PriceCoeff>
1.00

> <MW>
452.82

> <Description>
solid

> <FSP3>
0.05

> <clogP>
4.05

> <TPSA>
104.91

> <Acceptor>
5

> <Donor>
1

> <RotBonds>
4

> <HAC>
32

> <Collection>
General

$$$$
F6617-4628
  -ISIS-  06222321442D

 26 28  0  0  0  0  0  0  0  0999 V2000
    5.5042   -0.9292    0.0000 N   0  0  0  0  0  0  0  0  0  0  0  0
    4.6792   -0.8167    0.0000 C   0  0  0  0  0  0  0  0  0  0  0  0
    4.5292   -0.0042    0.0000 C   0  0  0  0  0  0  0  0  0  0  0  0
    1.6542   -0.1917    0.0000 C   0  0  0  0  0  0  0  0  0  0  0  0
    5.2542    0.3958    0.0000 C   0  0  0  0  0  0  0  0  0  0  0  0
    5.8542   -0.1792    0.0000 C   0  0  0  0  0  0  0  0  0  0  0  0
    0.9292    0.2000    0.0000 C   0  0  3  0  0  0  0  0  0  0  0  0
    0.2250   -0.2167    0.0000 C   0  0  0  0  0  0  0  0  0  0  0  0
    1.6667   -1.0250    0.0000 O   0  0  0  0  0  0  0  0  0  0  0  0
    2.3542    0.2333    0.0000 N   0  0  0  0  0  0  0  0  0  0  0  0
   -0.4958    0.1708    0.0000 C   0  0  0  0  0  0  0  0  0  0  0  0
    0.2417   -1.0542    0.0000 C   0  0  0  0  0  0  0  0  0  0  0  0
   -1.1958   -1.0792    0.0000 C   0  0  0  0  0  0  0  0  0  0  0  0
   -0.4708   -1.4792    0.0000 C   0  0  0  0  0  0  0  0  0  0  0  0
   -1.2083   -0.2542    0.0000 C   0  0  0  0  0  0  0  0  0  0  0  0
   -1.9083   -1.5042    0.0000 C   0  0  0  0  0  0  0  0  0  0  0  0
    3.1042   -0.1167    0.0000 C   0  0  0  0  0  0  0  0  0  0  0  0
    3.7792    0.3500    0.0000 C   0  0  0  0  0  0  0  0  0  0  0  0
    5.4500    1.1958    0.0000 C   0  0  0  0  0  0  0  0  0  0  0  0
    0.9125    1.0333    0.0000 C   0  0  0  0  0  0  0  0  0  0  0  0
    6.6500    0.0583    0.0000 C   0  0  0  0  0  0  0  0  0  0  0  0
   -2.6250   -1.1042    0.0000 C   0  0  3  0  0  0  0  0  0  0  0  0
   -2.6375   -0.2792    0.0000 C   0  0  0  0  0  0  0  0  0  0  0  0
   -3.3333   -1.5292    0.0000 C   0  0  0  0  0  0  0  0  0  0  0  0
    6.2417    1.4250    0.0000 C   0  0  0  0  0  0  0  0  0  0  0  0
    6.8417    0.8583    0.0000 C   0  0  0  0  0  0  0  0  0  0  0  0
  2  1  1  0  0  0  0
  3  2  2  0  0  0  0
  4 10  1  0  0  0  0
  5  6  1  0  0  0  0
  6  1  1  0  0  0  0
  7  4  1  0  0  0  0
  8  7  1  0  0  0  0
  9  4  2  0  0  0  0
 10 17  1  0  0  0  0
 11  8  1  0  0  0  0
 12  8  2  0  0  0  0
 13 14  2  0  0  0  0
 14 12  1  0  0  0  0
 15 11  2  0  0  0  0
 16 13  1  0  0  0  0
 17 18  1  0  0  0  0
 18  3  1  0  0  0  0
 19  5  2  0  0  0  0
 20  7  1  0  0  0  0
 21  6  2  0  0  0  0
 22 16  1  0  0  0  0
 23 22  1  0  0  0  0
 24 22  1  0  0  0  0
 25 26  2  0  0  0  0
 26 21  1  0  0  0  0
  3  5  1  0  0  0  0
 19 25  1  0  0  0  0
 15 13  1  0  0  0  0
M  END
> <IDNUMBER>
F6617-4628

> <Chemical_Name>
N-[2-(1H-indol-3-yl)ethyl]-2-[4-(2-methylpropyl)phenyl]propanamide

> <CAS>
313499-54-6

> <PriceCoeff>
1.00

> <MW>
348.48

> <Description>
solid

> <FSP3>
0.35

> <clogP>
5.04

> <TPSA>
44.89

> <Acceptor>
1

> <Donor>
2

> <RotBonds>
7

> <HAC>
26

> <Collection>
General

> <Reference_compound>
CHEMBL33171

> <Similarity>
0.8340

$$$$
F3097-4951
  -ISIS-  06222321152D

 30 33  0  0  0  0  0  0  0  0999 V2000
    3.2792   -3.6792    0.0000 N   0  0  3  0  0  0  0  0  0  0  0  0
    2.7917   -4.3542    0.0000 C   0  0  0  0  0  0  0  0  0  0  0  0
    2.7875   -3.0167    0.0000 C   0  0  0  0  0  0  0  0  0  0  0  0
    6.9625   -0.0792    0.0000 N   0  3  0  0  0  0  0  0  0  0  0  0
    7.3792   -0.7917    0.0000 C   0  0  0  0  0  0  0  0  0  0  0  0
    2.0042   -4.1042    0.0000 C   0  0  0  0  0  0  0  0  0  0  0  0
    2.0042   -3.2792    0.0000 C   0  0  0  0  0  0  0  0  0  0  0  0
    6.5750   -3.6625    0.0000 C   0  0  0  0  0  0  0  0  0  0  0  0
    6.9667   -1.5125    0.0000 C   0  0  0  0  0  0  0  0  0  0  0  0
    4.1000   -3.6792    0.0000 C   0  0  0  0  0  0  0  0  0  0  0  0
    6.9792   -2.9417    0.0000 N   0  0  0  0  0  0  0  0  0  0  0  0
    8.2000   -0.7917    0.0000 C   0  0  0  0  0  0  0  0  0  0  0  0
    3.0375   -2.2292    0.0000 O   0  0  0  0  0  0  0  0  0  0  0  0
    3.0542   -5.1375    0.0000 O   0  0  0  0  0  0  0  0  0  0  0  0
    7.3667    0.6333    0.0000 O   0  5  0  0  0  0  0  0  0  0  0  0
    5.7500   -3.6667    0.0000 C   0  0  0  0  0  0  0  0  0  0  0  0
    6.1375   -0.0792    0.0000 O   0  0  0  0  0  0  0  0  0  0  0  0
    7.3875   -2.2250    0.0000 C   0  0  0  0  0  0  0  0  0  0  0  0
    6.9917   -4.3750    0.0000 O   0  0  0  0  0  0  0  0  0  0  0  0
    4.5167   -4.3917    0.0000 C   0  0  0  0  0  0  0  0  0  0  0  0
    4.5042   -2.9625    0.0000 C   0  0  0  0  0  0  0  0  0  0  0  0
    5.3292   -2.9542    0.0000 C   0  0  0  0  0  0  0  0  0  0  0  0
    5.3417   -4.3792    0.0000 C   0  0  0  0  0  0  0  0  0  0  0  0
    8.6167   -1.5042    0.0000 C   0  0  0  0  0  0  0  0  0  0  0  0
    8.2042   -2.2167    0.0000 C   0  0  0  0  0  0  0  0  0  0  0  0
    8.6125   -0.0792    0.0000 Cl  0  0  0  0  0  0  0  0  0  0  0  0
    1.2875   -4.5167    0.0000 C   0  0  0  0  0  0  0  0  0  0  0  0
    1.2875   -2.8667    0.0000 C   0  0  0  0  0  0  0  0  0  0  0  0
    0.5750   -3.2792    0.0000 C   0  0  0  0  0  0  0  0  0  0  0  0
    0.5750   -4.1042    0.0000 C   0  0  0  0  0  0  0  0  0  0  0  0
  2  1  1  0  0  0  0
  3  1  1  0  0  0  0
  4  5  1  0  0  0  0
  5  9  2  0  0  0  0
  6  2  1  0  0  0  0
  7  3  1  0  0  0  0
  8 16  1  0  0  0  0
  9 18  1  0  0  0  0
 10  1  1  0  0  0  0
 11  8  1  0  0  0  0
 12 24  2  0  0  0  0
 13  3  2  0  0  0  0
 14  2  2  0  0  0  0
 15  4  1  0  0  0  0
 16 22  1  0  0  0  0
 17  4  2  0  0  0  0
 18 11  1  0  0  0  0
 19  8  2  0  0  0  0
 20 10  2  0  0  0  0
 21 10  1  0  0  0  0
 22 21  2  0  0  0  0
 23 20  1  0  0  0  0
 24 25  1  0  0  0  0
 25 18  2  0  0  0  0
 26 12  1  0  0  0  0
 27  6  2  0  0  0  0
 28  7  2  0  0  0  0
 29 28  1  0  0  0  0
 30 27  1  0  0  0  0
  7  6  1  0  0  0  0
 23 16  2  0  0  0  0
 29 30  2  0  0  0  0
 12  5  1  0  0  0  0
M  CHG  2   4   1  15  -1
M  END
> <IDNUMBER>
F3097-4951

> <Chemical_Name>
N-(4-chloro-3-nitrophenyl)-4-(1,3-dioxo-2,3-dihydro-1H-isoindol-2-yl)benzamide

> <CAS>
433325-08-7

> <PriceCoeff>
1.00

> <MW>
421.79

> <Description>
solid

> <FSP3>
0.00

> <clogP>
4.17

> <TPSA>
109.62

> <Acceptor>
5

> <Donor>
1

> <RotBonds>
4

> <HAC>
30

> <Collection>
General

$$$$
F2638-0069
  -ISIS-  06222321152D

 31 34  0  0  0  0  0  0  0  0999 V2000
   -2.3708    0.6208    0.0000 N   0  0  3  0  0  0  0  0  0  0  0  0
   -2.6125   -0.1792    0.0000 C   0  0  0  0  0  0  0  0  0  0  0  0
   -1.5583    0.8083    0.0000 C   0  0  0  0  0  0  0  0  0  0  0  0
   -0.9875    0.1875    0.0000 N   0  0  0  0  0  0  0  0  0  0  0  0
   -0.3833    4.7792    0.0000 N   0  3  0  0  0  0  0  0  0  0  0  0
   -1.1625    5.0417    0.0000 C   0  0  0  0  0  0  0  0  0  0  0  0
   -2.0458   -0.7792    0.0000 C   0  0  0  0  0  0  0  0  0  0  0  0
   -2.9208    1.2333    0.0000 C   0  0  0  0  0  0  0  0  0  0  0  0
   -1.2333   -0.6000    0.0000 C   0  0  0  0  0  0  0  0  0  0  0  0
   -3.1583    4.2042    0.0000 C   0  0  0  0  0  0  0  0  0  0  0  0
   -1.7708    4.4917    0.0000 C   0  0  0  0  0  0  0  0  0  0  0  0
   -2.5458    4.7542    0.0000 C   0  0  0  0  0  0  0  0  0  0  0  0
   -2.9875    3.4083    0.0000 N   0  0  0  0  0  0  0  0  0  0  0  0
   -2.6750    2.0208    0.0000 C   0  0  0  0  0  0  0  0  0  0  0  0
   -1.3333    5.8417    0.0000 C   0  0  0  0  0  0  0  0  0  0  0  0
   -3.4208   -0.3625    0.0000 O   0  0  0  0  0  0  0  0  0  0  0  0
   -0.2208    3.9958    0.0000 O   0  5  0  0  0  0  0  0  0  0  0  0
    0.2250    5.3375    0.0000 O   0  0  0  0  0  0  0  0  0  0  0  0
   -3.2333    2.6208    0.0000 C   0  0  0  0  0  0  0  0  0  0  0  0
   -3.9333    4.4542    0.0000 O   0  0  0  0  0  0  0  0  0  0  0  0
   -2.7208    5.5417    0.0000 C   0  0  0  0  0  0  0  0  0  0  0  0
   -2.1125    6.0917    0.0000 C   0  0  0  0  0  0  0  0  0  0  0  0
   -1.3083    1.5958    0.0000 C   0  0  0  0  0  0  0  0  0  0  0  0
   -0.7208    6.3917    0.0000 Cl  0  0  0  0  0  0  0  0  0  0  0  0
   -2.2958   -1.5667    0.0000 C   0  0  0  0  0  0  0  0  0  0  0  0
   -3.7208    1.0500    0.0000 C   0  0  0  0  0  0  0  0  0  0  0  0
   -0.6833   -1.2167    0.0000 C   0  0  0  0  0  0  0  0  0  0  0  0
   -4.2833    1.6583    0.0000 C   0  0  0  0  0  0  0  0  0  0  0  0
   -4.0375    2.4375    0.0000 C   0  0  0  0  0  0  0  0  0  0  0  0
   -1.7375   -2.1792    0.0000 C   0  0  0  0  0  0  0  0  0  0  0  0
   -0.9333   -2.0042    0.0000 C   0  0  0  0  0  0  0  0  0  0  0  0
  2  1  1  0  0  0  0
  3  1  1  0  0  0  0
  4  3  2  0  0  0  0
  5  6  1  0  0  0  0
  6 11  1  0  0  0  0
  7  2  1  0  0  0  0
  8  1  1  0  0  0  0
  9  4  1  0  0  0  0
 10 13  1  0  0  0  0
 11 12  2  0  0  0  0
 12 10  1  0  0  0  0
 13 19  1  0  0  0  0
 14  8  2  0  0  0  0
 15 22  1  0  0  0  0
 16  2  2  0  0  0  0
 17  5  1  0  0  0  0
 18  5  2  0  0  0  0
 19 14  1  0  0  0  0
 20 10  2  0  0  0  0
 21 12  1  0  0  0  0
 22 21  2  0  0  0  0
 23  3  1  0  0  0  0
 24 15  1  0  0  0  0
 25  7  2  0  0  0  0
 26  8  1  0  0  0  0
 27  9  2  0  0  0  0
 28 26  2  0  0  0  0
 29 28  1  0  0  0  0
 30 25  1  0  0  0  0
 31 27  1  0  0  0  0
  9  7  1  0  0  0  0
 29 19  2  0  0  0  0
 31 30  2  0  0  0  0
 15  6  2  0  0  0  0
M  CHG  2   5   1  17  -1
M  END
> <IDNUMBER>
F2638-0069

> <Chemical_Name>
4-chloro-N-[3-(2-methyl-4-oxo-3,4-dihydroquinazolin-3-yl)phenyl]-3-nitrobenzamide

> <CAS>
898454-96-1

> <PriceCoeff>
1.00

> <MW>
434.83

> <Description>
solid

> <FSP3>
0.05

> <clogP>
4.50

> <TPSA>
104.91

> <Acceptor>
5

> <Donor>
1

> <RotBonds>
4

> <HAC>
31

> <Collection>
General

$$$$
F0589-0060
  -ISIS-  06222321142D

 29 32  0  0  0  0  0  0  0  0999 V2000
   -2.3708    2.3375    0.0000 C   0  0  0  0  0  0  0  0  0  0  0  0
   -3.1583    2.5958    0.0000 N   0  0  3  0  0  0  0  0  0  0  0  0
   -2.3708    3.6833    0.0000 N   0  0  0  0  0  0  0  0  0  0  0  0
   -1.8833    3.0083    0.0000 C   0  0  0  0  0  0  0  0  0  0  0  0
   -3.1583    3.4208    0.0000 C   0  0  0  0  0  0  0  0  0  0  0  0
   -2.1083    1.5500    0.0000 N   0  0  0  0  0  0  0  0  0  0  0  0
   -3.5750   -1.7375    0.0000 N   0  3  0  0  0  0  0  0  0  0  0  0
   -2.9625   -1.2000    0.0000 C   0  0  0  0  0  0  0  0  0  0  0  0
   -2.6625    0.9375    0.0000 C   0  0  0  0  0  0  0  0  0  0  0  0
   -3.1083   -0.4042    0.0000 C   0  0  0  0  0  0  0  0  0  0  0  0
   -2.5000    0.1375    0.0000 C   0  0  0  0  0  0  0  0  0  0  0  0
   -1.0625    3.0083    0.0000 C   0  0  0  0  0  0  0  0  0  0  0  0
   -3.8708    2.1833    0.0000 C   0  0  0  0  0  0  0  0  0  0  0  0
   -2.1875   -1.4667    0.0000 C   0  0  0  0  0  0  0  0  0  0  0  0
   -3.4208   -2.5417    0.0000 O   0  5  0  0  0  0  0  0  0  0  0  0
   -3.8708    3.8333    0.0000 C   0  0  0  0  0  0  0  0  0  0  0  0
   -4.3500   -1.4542    0.0000 O   0  0  0  0  0  0  0  0  0  0  0  0
   -3.3000    1.2333    0.0000 O   0  0  0  0  0  0  0  0  0  0  0  0
   -1.7208   -0.1292    0.0000 C   0  0  0  0  0  0  0  0  0  0  0  0
   -4.5833    2.5958    0.0000 C   0  0  0  0  0  0  0  0  0  0  0  0
   -4.5833    3.4208    0.0000 C   0  0  0  0  0  0  0  0  0  0  0  0
   -1.5625   -0.9167    0.0000 C   0  0  0  0  0  0  0  0  0  0  0  0
   -0.6500    2.3000    0.0000 C   0  0  0  0  0  0  0  0  0  0  0  0
   -0.6583    3.7208    0.0000 C   0  0  0  0  0  0  0  0  0  0  0  0
    0.5667    3.0208    0.0000 C   0  0  0  0  0  0  0  0  0  0  0  0
   -2.0375   -2.2792    0.0000 Cl  0  0  0  0  0  0  0  0  0  0  0  0
    0.1667    3.7208    0.0000 C   0  0  0  0  0  0  0  0  0  0  0  0
    0.1542    2.3083    0.0000 C   0  0  0  0  0  0  0  0  0  0  0  0
    1.3792    3.0208    0.0000 F   0  0  0  0  0  0  0  0  0  0  0  0
  2  1  1  0  0  0  0
  3  4  1  0  0  0  0
  4  1  2  0  0  0  0
  5  2  1  0  0  0  0
  6  1  1  0  0  0  0
  7  8  1  0  0  0  0
  8 10  1  0  0  0  0
  9  6  1  0  0  0  0
 10 11  2  0  0  0  0
 11  9  1  0  0  0  0
 12  4  1  0  0  0  0
 13  2  1  0  0  0  0
 14 22  1  0  0  0  0
 15  7  1  0  0  0  0
 16  5  1  0  0  0  0
 17  7  2  0  0  0  0
 18  9  2  0  0  0  0
 19 11  1  0  0  0  0
 20 13  2  0  0  0  0
 21 20  1  0  0  0  0
 22 19  2  0  0  0  0
 23 12  2  0  0  0  0
 24 12  1  0  0  0  0
 25 27  1  0  0  0  0
 26 14  1  0  0  0  0
 27 24  2  0  0  0  0
 28 23  1  0  0  0  0
 29 25  1  0  0  0  0
  5  3  2  0  0  0  0
 25 28  2  0  0  0  0
 21 16  2  0  0  0  0
  8 14  2  0  0  0  0
M  CHG  2   7   1  15  -1
M  END
> <IDNUMBER>
F0589-0060

> <Chemical_Name>
4-chloro-N-[2-(4-fluorophenyl)imidazo[1,2-a]pyridin-3-yl]-3-nitrobenzamide

> <CAS>
850930-11-9

> <PriceCoeff>
1.00

> <MW>
410.79

> <Description>
solid

> <FSP3>
0.00

> <clogP>
4.36

> <TPSA>
89.54

> <Acceptor>
4

> <Donor>
1

> <RotBonds>
4

> <HAC>
29

> <Collection>
General

$$$$
F0641-0072
  -ISIS-  06222321452D

 34 37  0  0  0  0  0  0  0  0999 V2000
   -1.7333    1.7958    0.0000 C   0  0  0  0  0  0  0  0  0  0  0  0
   -1.7250    0.9708    0.0000 C   0  0  0  0  0  0  0  0  0  0  0  0
   -2.4458    0.5583    0.0000 C   0  0  0  0  0  0  0  0  0  0  0  0
   -2.4458    2.2083    0.0000 C   0  0  0  0  0  0  0  0  0  0  0  0
   -0.9500    2.0500    0.0000 C   0  0  0  0  0  0  0  0  0  0  0  0
   -3.1500    0.9708    0.0000 N   0  0  0  0  0  0  0  0  0  0  0  0
   -3.1500    1.7958    0.0000 N   0  0  3  0  0  0  0  0  0  0  0  0
    2.2042    4.9167    0.0000 N   0  3  0  0  0  0  0  0  0  0  0  0
    1.4042    4.7417    0.0000 C   0  0  0  0  0  0  0  0  0  0  0  0
   -0.6958    2.8375    0.0000 N   0  0  0  0  0  0  0  0  0  0  0  0
   -0.9458    0.7208    0.0000 C   0  0  0  0  0  0  0  0  0  0  0  0
   -0.4625    1.3958    0.0000 S   0  0  0  0  0  0  0  0  0  0  0  0
    0.1042    3.0208    0.0000 C   0  0  0  0  0  0  0  0  0  0  0  0
   -2.4375   -0.2667    0.0000 C   0  0  0  0  0  0  0  0  0  0  0  0
    1.1542    3.9708    0.0000 C   0  0  0  0  0  0  0  0  0  0  0  0
    0.3542    3.7958    0.0000 C   0  0  0  0  0  0  0  0  0  0  0  0
    0.8500    5.3542    0.0000 C   0  0  0  0  0  0  0  0  0  0  0  0
   -2.4458    3.0333    0.0000 O   0  0  0  0  0  0  0  0  0  0  0  0
    2.7625    4.3292    0.0000 O   0  5  0  0  0  0  0  0  0  0  0  0
   -3.8625    2.2083    0.0000 C   0  0  0  0  0  0  0  0  0  0  0  0
    2.4542    5.7042    0.0000 O   0  0  0  0  0  0  0  0  0  0  0  0
    0.6625    2.4083    0.0000 O   0  0  0  0  0  0  0  0  0  0  0  0
   -1.7250   -0.6792    0.0000 O   0  0  0  0  0  0  0  0  0  0  0  0
   -0.1958    4.4000    0.0000 C   0  0  0  0  0  0  0  0  0  0  0  0
    0.0417    5.1792    0.0000 C   0  0  0  0  0  0  0  0  0  0  0  0
   -3.1583   -0.6792    0.0000 O   0  0  0  0  0  0  0  0  0  0  0  0
    1.0917    6.1375    0.0000 Cl  0  0  0  0  0  0  0  0  0  0  0  0
   -3.8708    3.0333    0.0000 C   0  0  0  0  0  0  0  0  0  0  0  0
   -4.5833    1.7875    0.0000 C   0  0  0  0  0  0  0  0  0  0  0  0
   -3.8708   -0.2667    0.0000 C   0  0  0  0  0  0  0  0  0  0  0  0
   -4.5833   -0.6792    0.0000 C   0  0  0  0  0  0  0  0  0  0  0  0
   -4.5833    3.4333    0.0000 C   0  0  0  0  0  0  0  0  0  0  0  0
   -5.2958    2.2083    0.0000 C   0  0  0  0  0  0  0  0  0  0  0  0
   -5.2958    3.0208    0.0000 C   0  0  0  0  0  0  0  0  0  0  0  0
  2  1  1  0  0  0  0
  3  2  1  0  0  0  0
  4  1  1  0  0  0  0
  5  1  2  0  0  0  0
  6  7  1  0  0  0  0
  7  4  1  0  0  0  0
  8  9  1  0  0  0  0
  9 15  2  0  0  0  0
 10  5  1  0  0  0  0
 11  2  2  0  0  0  0
 12  5  1  0  0  0  0
 13 10  1  0  0  0  0
 14  3  1  0  0  0  0
 15 16  1  0  0  0  0
 16 13  1  0  0  0  0
 17 25  2  0  0  0  0
 18  4  2  0  0  0  0
 19  8  1  0  0  0  0
 20  7  1  0  0  0  0
 21  8  2  0  0  0  0
 22 13  2  0  0  0  0
 23 14  2  0  0  0  0
 24 16  2  0  0  0  0
 25 24  1  0  0  0  0
 26 14  1  0  0  0  0
 27 17  1  0  0  0  0
 28 20  2  0  0  0  0
 29 20  1  0  0  0  0
 30 26  1  0  0  0  0
 31 30  1  0  0  0  0
 32 28  1  0  0  0  0
 33 29  2  0  0  0  0
 34 33  1  0  0  0  0
 12 11  1  0  0  0  0
  6  3  2  0  0  0  0
 32 34  2  0  0  0  0
  9 17  1  0  0  0  0
M  CHG  2   8   1  19  -1
M  END
> <IDNUMBER>
F0641-0072

> <Chemical_Name>
ethyl 5-(4-chloro-3-nitrobenzamido)-4-oxo-3-phenyl-3H,4H-thieno[3,4-d]pyridazine-1-carboxylate

> <CAS>
851947-38-1

> <PriceCoeff>
1.00

> <MW>
498.90

> <Description>
solid

> <FSP3>
0.09

> <clogP>
3.93

> <TPSA>
159.45

> <Acceptor>
7

> <Donor>
2

> <RotBonds>
7

> <HAC>
34

> <Collection>
General

$$$$
F0417-0064
  -ISIS-  06222321142D

 29 31  0  0  0  0  0  0  0  0999 V2000
   -0.6625   -0.3792    0.0000 C   0  0  0  0  0  0  0  0  0  0  0  0
    2.3792    0.3500    0.0000 N   0  3  0  0  0  0  0  0  0  0  0  0
    1.9042    0.0333    0.0000 C   0  0  0  0  0  0  0  0  0  0  0  0
   -1.1833   -0.6042    0.0000 S   0  0  0  0  0  0  0  0  0  0  0  0
   -0.0708   -0.4375    0.0000 N   0  0  0  0  0  0  0  0  0  0  0  0
   -1.6625   -0.3000    0.0000 C   0  0  0  0  0  0  0  0  0  0  0  0
   -0.8208    0.2208    0.0000 N   0  0  0  0  0  0  0  0  0  0  0  0
   -1.4833    0.2333    0.0000 N   0  0  0  0  0  0  0  0  0  0  0  0
    0.2500   -0.0917    0.0000 C   0  0  0  0  0  0  0  0  0  0  0  0
    1.2875    0.2000    0.0000 C   0  0  0  0  0  0  0  0  0  0  0  0
    0.8667   -0.2375    0.0000 C   0  0  0  0  0  0  0  0  0  0  0  0
    2.0542   -0.4500    0.0000 C   0  0  0  0  0  0  0  0  0  0  0  0
    2.3292    0.9208    0.0000 O   0  5  0  0  0  0  0  0  0  0  0  0
   -3.1333   -1.0667    0.0000 C   0  0  0  0  0  0  0  0  0  0  0  0
    2.9375    0.1000    0.0000 O   0  0  0  0  0  0  0  0  0  0  0  0
   -2.2958   -0.4292    0.0000 S   0  0  0  0  0  0  0  0  0  0  0  0
   -3.5333   -0.6542    0.0000 N   0  0  0  0  0  0  0  0  0  0  0  0
    0.0875    0.5000    0.0000 O   0  0  0  0  0  0  0  0  0  0  0  0
    1.0167   -0.7292    0.0000 C   0  0  0  0  0  0  0  0  0  0  0  0
   -3.3125   -1.6792    0.0000 O   0  0  0  0  0  0  0  0  0  0  0  0
    1.6167   -0.9042    0.0000 C   0  0  0  0  0  0  0  0  0  0  0  0
   -2.5333   -0.9500    0.0000 C   0  0  0  0  0  0  0  0  0  0  0  0
    2.7167   -0.6167    0.0000 Cl  0  0  0  0  0  0  0  0  0  0  0  0
   -3.3500   -0.1542    0.0000 C   0  0  0  0  0  0  0  0  0  0  0  0
   -3.7708    0.3125    0.0000 C   0  0  0  0  0  0  0  0  0  0  0  0
   -2.8625   -0.0292    0.0000 C   0  0  0  0  0  0  0  0  0  0  0  0
   -3.5833    0.8958    0.0000 C   0  0  0  0  0  0  0  0  0  0  0  0
   -2.7000    0.5708    0.0000 C   0  0  0  0  0  0  0  0  0  0  0  0
   -2.9500    1.0125    0.0000 C   0  0  0  0  0  0  0  0  0  0  0  0
  2  3  1  0  0  0  0
  3 10  1  0  0  0  0
  4  1  1  0  0  0  0
  5  1  1  0  0  0  0
  6  4  1  0  0  0  0
  7  1  2  0  0  0  0
  8  7  1  0  0  0  0
  9  5  1  0  0  0  0
 10 11  2  0  0  0  0
 11  9  1  0  0  0  0
 12 21  1  0  0  0  0
 13  2  1  0  0  0  0
 14 22  1  0  0  0  0
 15  2  2  0  0  0  0
 16  6  1  0  0  0  0
 17 14  1  0  0  0  0
 18  9  2  0  0  0  0
 19 11  1  0  0  0  0
 20 14  2  0  0  0  0
 21 19  2  0  0  0  0
 22 16  1  0  0  0  0
 23 12  1  0  0  0  0
 24 17  1  0  0  0  0
 25 24  2  0  0  0  0
 26 24  1  0  0  0  0
 27 25  1  0  0  0  0
 28 26  2  0  0  0  0
 29 28  1  0  0  0  0
  8  6  2  0  0  0  0
  3 12  2  0  0  0  0
 29 27  2  0  0  0  0
M  CHG  2   2   1  13  -1
M  END
> <IDNUMBER>
F0417-0064

> <Chemical_Name>
4-chloro-3-nitro-N-(5-{[(phenylcarbamoyl)methyl]sulfanyl}-1,3,4-thiadiazol-2-yl)benzamide

> <CAS>
392291-07-5

> <PriceCoeff>
1.00

> <MW>
449.89

> <Description>
solid

> <FSP3>
0.06

> <clogP>
2.89

> <TPSA>
180.66

> <Acceptor>
6

> <Donor>
2

> <RotBonds>
7

> <HAC>
29

> <Collection>
General

$$$$
F0509-2733
  -ISIS-  06222321142D

 30 32  0  0  0  0  0  0  0  0999 V2000
   -4.7208    3.0833    0.0000 C   0  0  0  0  0  0  0  0  0  0  0  0
   -6.8750    3.8583    0.0000 N   0  3  0  0  0  0  0  0  0  0  0  0
   -6.2917    4.3292    0.0000 C   0  0  0  0  0  0  0  0  0  0  0  0
   -4.5625    2.3583    0.0000 S   0  0  0  0  0  0  0  0  0  0  0  0
   -4.1583    3.5833    0.0000 N   0  0  0  0  0  0  0  0  0  0  0  0
   -5.2208    1.9875    0.0000 C   0  0  0  0  0  0  0  0  0  0  0  0
   -5.4583    3.1708    0.0000 N   0  0  0  0  0  0  0  0  0  0  0  0
   -5.7708    2.4833    0.0000 N   0  0  0  0  0  0  0  0  0  0  0  0
   -4.3000    4.3167    0.0000 C   0  0  0  0  0  0  0  0  0  0  0  0
   -5.5958    4.0750    0.0000 C   0  0  0  0  0  0  0  0  0  0  0  0
   -5.0208    4.5542    0.0000 C   0  0  0  0  0  0  0  0  0  0  0  0
   -6.7542   -0.1167    0.0000 N   0  0  0  0  0  0  0  0  0  0  0  0
   -6.0667    0.1875    0.0000 C   0  0  0  0  0  0  0  0  0  0  0  0
   -6.4167    5.0667    0.0000 C   0  0  0  0  0  0  0  0  0  0  0  0
   -6.8375   -0.8625    0.0000 C   0  0  0  0  0  0  0  0  0  0  0  0
   -7.5792    4.1042    0.0000 O   0  5  0  0  0  0  0  0  0  0  0  0
   -6.7417    3.1083    0.0000 O   0  0  0  0  0  0  0  0  0  0  0  0
   -5.2958    1.2375    0.0000 S   0  0  0  0  0  0  0  0  0  0  0  0
   -3.7375    4.8125    0.0000 O   0  0  0  0  0  0  0  0  0  0  0  0
   -7.5250   -1.1667    0.0000 C   0  0  0  0  0  0  0  0  0  0  0  0
   -5.1583    5.2792    0.0000 C   0  0  0  0  0  0  0  0  0  0  0  0
   -5.4583   -0.2542    0.0000 O   0  0  0  0  0  0  0  0  0  0  0  0
   -5.8500    5.5417    0.0000 C   0  0  0  0  0  0  0  0  0  0  0  0
   -5.9833    0.9333    0.0000 C   0  0  0  0  0  0  0  0  0  0  0  0
   -7.1292    5.3375    0.0000 Cl  0  0  0  0  0  0  0  0  0  0  0  0
   -8.1292   -0.7167    0.0000 F   0  0  0  0  0  0  0  0  0  0  0  0
   -6.2292   -1.3042    0.0000 C   0  0  0  0  0  0  0  0  0  0  0  0
   -7.6042   -1.9125    0.0000 C   0  0  0  0  0  0  0  0  0  0  0  0
   -6.3042   -2.0542    0.0000 C   0  0  0  0  0  0  0  0  0  0  0  0
   -7.0042   -2.3542    0.0000 C   0  0  0  0  0  0  0  0  0  0  0  0
  2  3  1  0  0  0  0
  3 10  1  0  0  0  0
  4  1  1  0  0  0  0
  5  1  1  0  0  0  0
  6  4  1  0  0  0  0
  7  1  2  0  0  0  0
  8  7  1  0  0  0  0
  9  5  1  0  0  0  0
 10 11  2  0  0  0  0
 11  9  1  0  0  0  0
 12 13  1  0  0  0  0
 13 24  1  0  0  0  0
 14 23  1  0  0  0  0
 15 12  1  0  0  0  0
 16  2  1  0  0  0  0
 17  2  2  0  0  0  0
 18  6  1  0  0  0  0
 19  9  2  0  0  0  0
 20 15  1  0  0  0  0
 21 11  1  0  0  0  0
 22 13  2  0  0  0  0
 23 21  2  0  0  0  0
 24 18  1  0  0  0  0
 25 14  1  0  0  0  0
 26 20  1  0  0  0  0
 27 15  2  0  0  0  0
 28 20  2  0  0  0  0
 29 27  1  0  0  0  0
 30 29  2  0  0  0  0
  8  6  2  0  0  0  0
  3 14  2  0  0  0  0
 30 28  1  0  0  0  0
M  CHG  2   2   1  16  -1
M  END
> <IDNUMBER>
F0509-2733

> <Chemical_Name>
4-chloro-N-[5-({[(2-fluorophenyl)carbamoyl]methyl}sulfanyl)-1,3,4-thiadiazol-2-yl]-3-nitrobenzamide

> <CAS>
389072-95-1

> <PriceCoeff>
1.00

> <MW>
467.88

> <Description>
solid

> <FSP3>
0.06

> <clogP>
2.69

> <TPSA>
180.66

> <Acceptor>
6

> <Donor>
2

> <RotBonds>
7

> <HAC>
30

> <Collection>
General

$$$$
F0589-0131
  -ISIS-  06222321142D

 30 33  0  0  0  0  0  0  0  0999 V2000
   -2.3708    2.3375    0.0000 C   0  0  0  0  0  0  0  0  0  0  0  0
   -3.1583    2.5958    0.0000 N   0  0  3  0  0  0  0  0  0  0  0  0
   -2.3708    3.6833    0.0000 N   0  0  0  0  0  0  0  0  0  0  0  0
   -1.8833    3.0083    0.0000 C   0  0  0  0  0  0  0  0  0  0  0  0
   -3.1583    3.4208    0.0000 C   0  0  0  0  0  0  0  0  0  0  0  0
   -2.1083    1.5500    0.0000 N   0  0  0  0  0  0  0  0  0  0  0  0
   -3.5750   -1.7375    0.0000 N   0  3  0  0  0  0  0  0  0  0  0  0
   -2.9625   -1.2000    0.0000 C   0  0  0  0  0  0  0  0  0  0  0  0
   -2.6625    0.9375    0.0000 C   0  0  0  0  0  0  0  0  0  0  0  0
   -3.1083   -0.4042    0.0000 C   0  0  0  0  0  0  0  0  0  0  0  0
   -2.5000    0.1375    0.0000 C   0  0  0  0  0  0  0  0  0  0  0  0
   -1.0625    3.0083    0.0000 C   0  0  0  0  0  0  0  0  0  0  0  0
   -3.8708    2.1833    0.0000 C   0  0  0  0  0  0  0  0  0  0  0  0
   -2.1875   -1.4667    0.0000 C   0  0  0  0  0  0  0  0  0  0  0  0
   -3.4208   -2.5417    0.0000 O   0  5  0  0  0  0  0  0  0  0  0  0
   -3.8708    3.8333    0.0000 C   0  0  0  0  0  0  0  0  0  0  0  0
   -4.3500   -1.4542    0.0000 O   0  0  0  0  0  0  0  0  0  0  0  0
   -3.3000    1.2333    0.0000 O   0  0  0  0  0  0  0  0  0  0  0  0
   -1.7208   -0.1292    0.0000 C   0  0  0  0  0  0  0  0  0  0  0  0
   -4.5833    2.5958    0.0000 C   0  0  0  0  0  0  0  0  0  0  0  0
   -4.5833    3.4208    0.0000 C   0  0  0  0  0  0  0  0  0  0  0  0
   -1.5625   -0.9167    0.0000 C   0  0  0  0  0  0  0  0  0  0  0  0
   -0.6500    2.2958    0.0000 C   0  0  0  0  0  0  0  0  0  0  0  0
   -0.6500    3.7208    0.0000 C   0  0  0  0  0  0  0  0  0  0  0  0
   -2.0375   -2.2792    0.0000 Cl  0  0  0  0  0  0  0  0  0  0  0  0
    0.5667    3.0083    0.0000 C   0  0  0  0  0  0  0  0  0  0  0  0
    0.1667    3.7125    0.0000 C   0  0  0  0  0  0  0  0  0  0  0  0
    0.1625    2.3000    0.0000 C   0  0  0  0  0  0  0  0  0  0  0  0
    1.3792    3.0083    0.0000 O   0  0  0  0  0  0  0  0  0  0  0  0
    1.7917    2.3000    0.0000 C   0  0  0  0  0  0  0  0  0  0  0  0
  2  1  1  0  0  0  0
  3  4  1  0  0  0  0
  4  1  2  0  0  0  0
  5  2  1  0  0  0  0
  6  1  1  0  0  0  0
  7  8  1  0  0  0  0
  8 10  1  0  0  0  0
  9  6  1  0  0  0  0
 10 11  2  0  0  0  0
 11  9  1  0  0  0  0
 12  4  1  0  0  0  0
 13  2  1  0  0  0  0
 14 22  1  0  0  0  0
 15  7  1  0  0  0  0
 16  5  1  0  0  0  0
 17  7  2  0  0  0  0
 18  9  2  0  0  0  0
 19 11  1  0  0  0  0
 20 13  2  0  0  0  0
 21 20  1  0  0  0  0
 22 19  2  0  0  0  0
 23 12  2  0  0  0  0
 24 12  1  0  0  0  0
 25 14  1  0  0  0  0
 26 27  1  0  0  0  0
 27 24  2  0  0  0  0
 28 23  1  0  0  0  0
 29 26  1  0  0  0  0
 30 29  1  0  0  0  0
  5  3  2  0  0  0  0
 26 28  2  0  0  0  0
 21 16  2  0  0  0  0
  8 14  2  0  0  0  0
M  CHG  2   7   1  15  -1
M  END
> <IDNUMBER>
F0589-0131

> <Chemical_Name>
4-chloro-N-[2-(4-methoxyphenyl)imidazo[1,2-a]pyridin-3-yl]-3-nitrobenzamide

> <CAS>
850930-24-4

> <PriceCoeff>
1.00

> <MW>
422.82

> <Description>
solid

> <FSP3>
0.05

> <clogP>
4.23

> <TPSA>
98.77

> <Acceptor>
5

> <Donor>
1

> <RotBonds>
5

> <HAC>
30

> <Collection>
General

$$$$
F0694-0218
  -ISIS-  06222321142D

 28 31  0  0  0  0  0  0  0  0999 V2000
   -4.5708    6.6667    0.0000 C   0  0  0  0  0  0  0  0  0  0  0  0
   -5.3333    6.3375    0.0000 S   0  0  0  0  0  0  0  0  0  0  0  0
   -5.2833    1.3458    0.0000 N   0  3  0  0  0  0  0  0  0  0  0  0
   -4.6583    7.5000    0.0000 N   0  0  0  0  0  0  0  0  0  0  0  0
   -4.5708    1.7500    0.0000 C   0  0  0  0  0  0  0  0  0  0  0  0
   -5.8833    6.9542    0.0000 C   0  0  0  0  0  0  0  0  0  0  0  0
   -3.8708    3.8000    0.0000 C   0  0  0  0  0  0  0  0  0  0  0  0
   -4.5833    2.5708    0.0000 C   0  0  0  0  0  0  0  0  0  0  0  0
   -5.4708    7.6667    0.0000 C   0  0  0  0  0  0  0  0  0  0  0  0
   -3.8708    2.9833    0.0000 C   0  0  0  0  0  0  0  0  0  0  0  0
   -3.1583    4.2042    0.0000 N   0  0  0  0  0  0  0  0  0  0  0  0
   -3.8625    6.2542    0.0000 C   0  0  0  0  0  0  0  0  0  0  0  0
   -3.8583    1.3375    0.0000 C   0  0  0  0  0  0  0  0  0  0  0  0
   -5.9958    1.7583    0.0000 O   0  5  0  0  0  0  0  0  0  0  0  0
   -6.7042    6.9542    0.0000 N   0  0  0  0  0  0  0  0  0  0  0  0
   -5.2833    0.5333    0.0000 O   0  0  0  0  0  0  0  0  0  0  0  0
   -3.1583    5.0292    0.0000 C   0  0  0  0  0  0  0  0  0  0  0  0
   -3.8708    5.4417    0.0000 C   0  0  0  0  0  0  0  0  0  0  0  0
   -4.5833    4.2042    0.0000 O   0  0  0  0  0  0  0  0  0  0  0  0
   -3.1500    2.5708    0.0000 C   0  0  0  0  0  0  0  0  0  0  0  0
   -3.1500    1.7500    0.0000 C   0  0  0  0  0  0  0  0  0  0  0  0
   -3.8625    0.5208    0.0000 Cl  0  0  0  0  0  0  0  0  0  0  0  0
   -3.1583    6.6750    0.0000 C   0  0  0  0  0  0  0  0  0  0  0  0
   -5.8833    8.3792    0.0000 C   0  0  0  0  0  0  0  0  0  0  0  0
   -2.4458    6.2667    0.0000 C   0  0  0  0  0  0  0  0  0  0  0  0
   -7.1042    7.6667    0.0000 C   0  0  0  0  0  0  0  0  0  0  0  0
   -2.4458    5.4375    0.0000 C   0  0  0  0  0  0  0  0  0  0  0  0
   -6.6917    8.3792    0.0000 C   0  0  0  0  0  0  0  0  0  0  0  0
  2  1  1  0  0  0  0
  3  5  1  0  0  0  0
  4  1  2  0  0  0  0
  5  8  1  0  0  0  0
  6  2  1  0  0  0  0
  7 11  1  0  0  0  0
  8 10  2  0  0  0  0
  9  4  1  0  0  0  0
 10  7  1  0  0  0  0
 11 17  1  0  0  0  0
 12  1  1  0  0  0  0
 13 21  1  0  0  0  0
 14  3  1  0  0  0  0
 15  6  2  0  0  0  0
 16  3  2  0  0  0  0
 17 18  1  0  0  0  0
 18 12  2  0  0  0  0
 19  7  2  0  0  0  0
 20 10  1  0  0  0  0
 21 20  2  0  0  0  0
 22 13  1  0  0  0  0
 23 12  1  0  0  0  0
 24  9  2  0  0  0  0
 25 23  2  0  0  0  0
 26 15  1  0  0  0  0
 27 25  1  0  0  0  0
 28 24  1  0  0  0  0
  9  6  1  0  0  0  0
 27 17  2  0  0  0  0
 26 28  2  0  0  0  0
 13  5  2  0  0  0  0
M  CHG  2   3   1  14  -1
M  END
> <IDNUMBER>
F0694-0218

> <Chemical_Name>
4-chloro-3-nitro-N-(3-{[1,3]thiazolo[5,4-b]pyridin-2-yl}phenyl)benzamide

> <CAS>
896679-61-1

> <PriceCoeff>
1.00

> <MW>
410.83

> <Description>
solid

> <FSP3>
0.00

> <clogP>
4.44

> <TPSA>
126.26

> <Acceptor>
5

> <Donor>
2

> <RotBonds>
4

> <HAC>
28

> <Collection>
General

$$$$
F2066-0144
  -ISIS-  06222321142D

 31 33  0  0  0  0  0  0  0  0999 V2000
   -2.7000    0.8625    0.0000 N   0  0  3  0  0  0  0  0  0  0  0  0
   -3.8750    2.7708    0.0000 S   0  0  3  0  0  0  0  0  0  0  0  0
   -3.3458    1.9875    0.0000 C   0  0  0  0  0  0  0  0  0  0  0  0
   -2.7000   -0.0292    0.0000 S   0  0  3  0  0  0  0  0  0  0  0  0
   -3.3458    1.2375    0.0000 C   0  0  0  0  0  0  0  0  0  0  0  0
   -2.0500    1.2375    0.0000 N   0  0  0  0  0  0  0  0  0  0  0  0
   -2.0500    1.9875    0.0000 C   0  0  0  0  0  0  0  0  0  0  0  0
   -3.4833   -2.3042    0.0000 C   0  0  0  0  0  0  0  0  0  0  0  0
   -4.2583   -2.7542    0.0000 N   0  3  0  0  0  0  0  0  0  0  0  0
   -4.4083    3.4958    0.0000 N   0  0  3  0  0  0  0  0  0  0  0  0
   -2.6958   -0.9500    0.0000 C   0  0  0  0  0  0  0  0  0  0  0  0
   -3.4875   -1.4000    0.0000 C   0  0  0  0  0  0  0  0  0  0  0  0
   -3.0958    3.1125    0.0000 O   0  0  0  0  0  0  0  0  0  0  0  0
   -4.5625    2.3625    0.0000 O   0  0  0  0  0  0  0  0  0  0  0  0
   -3.6083   -0.0500    0.0000 O   0  0  0  0  0  0  0  0  0  0  0  0
   -1.8000   -0.0417    0.0000 O   0  0  0  0  0  0  0  0  0  0  0  0
   -2.6958   -2.7542    0.0000 C   0  0  0  0  0  0  0  0  0  0  0  0
   -5.0458   -2.3125    0.0000 O   0  5  0  0  0  0  0  0  0  0  0  0
   -4.2500   -3.6542    0.0000 O   0  0  0  0  0  0  0  0  0  0  0  0
   -5.2958    3.6333    0.0000 C   0  0  0  0  0  0  0  0  0  0  0  0
   -1.9208   -1.3917    0.0000 C   0  0  0  0  0  0  0  0  0  0  0  0
   -4.0958    1.2083    0.0000 C   0  0  0  0  0  0  0  0  0  0  0  0
   -1.9083   -2.2917    0.0000 C   0  0  0  0  0  0  0  0  0  0  0  0
   -1.4708    2.5833    0.0000 C   0  0  0  0  0  0  0  0  0  0  0  0
   -2.6958   -3.6542    0.0000 Cl  0  0  0  0  0  0  0  0  0  0  0  0
   -4.2583    4.3792    0.0000 C   0  0  0  0  0  0  0  0  0  0  0  0
   -5.8583    2.9208    0.0000 C   0  0  0  0  0  0  0  0  0  0  0  0
   -5.6208    4.4625    0.0000 C   0  0  0  0  0  0  0  0  0  0  0  0
   -6.5125    4.5917    0.0000 C   0  0  0  0  0  0  0  0  0  0  0  0
   -6.7500    3.0583    0.0000 C   0  0  0  0  0  0  0  0  0  0  0  0
   -7.0792    3.9083    0.0000 C   0  0  0  0  0  0  0  0  0  0  0  0
  2  3  1  0  0  0  0
  3  5  2  0  0  0  0
  4  1  1  0  0  0  0
  5  1  1  0  0  0  0
  6  1  1  0  0  0  0
  7  6  2  0  0  0  0
  8 12  1  0  0  0  0
  9  8  1  0  0  0  0
 10  2  1  0  0  0  0
 11  4  1  0  0  0  0
 12 11  2  0  0  0  0
 13  2  2  0  0  0  0
 14  2  2  0  0  0  0
 15  4  2  0  0  0  0
 16  4  2  0  0  0  0
 17 23  1  0  0  0  0
 18  9  1  0  0  0  0
 19  9  2  0  0  0  0
 20 10  1  0  0  0  0
 21 11  1  0  0  0  0
 22  5  1  0  0  0  0
 23 21  2  0  0  0  0
 24  7  1  0  0  0  0
 25 17  1  0  0  0  0
 26 10  1  0  0  0  0
 27 20  2  0  0  0  0
 28 20  1  0  0  0  0
 29 28  2  0  0  0  0
 30 27  1  0  0  0  0
 31 29  1  0  0  0  0
  3  7  1  0  0  0  0
  8 17  2  0  0  0  0
 31 30  2  0  0  0  0
M  CHG  2   9   1  18  -1
M  END
> <IDNUMBER>
F2066-0144

> <Chemical_Name>
1-(4-chloro-3-nitrobenzenesulfonyl)-N,3,5-trimethyl-N-phenyl-1H-pyrazole-4-sulfonamide

> <CAS>
956271-22-0

> <PriceCoeff>
1.00

> <MW>
484.93

> <Description>
solid

> <FSP3>
0.17

> <clogP>
2.00

> <TPSA>
149.24

> <Acceptor>
8

> <Donor>
0

> <RotBonds>
6

> <HAC>
31

> <Collection>
General

$$$$
F1816-0726
  -ISIS-  06222321142D

 32 36  0  0  0  0  0  0  0  0999 V2000
   -4.5833    2.5500    0.0000 C   0  0  0  0  0  0  0  0  0  0  0  0
   -3.8708    2.9833    0.0000 N   0  0  0  0  0  0  0  0  0  0  0  0
   -5.3500    2.8708    0.0000 S   0  0  0  0  0  0  0  0  0  0  0  0
   -4.6583    1.7375    0.0000 N   0  0  3  0  0  0  0  0  0  0  0  0
   -1.0083    3.7958    0.0000 N   0  0  3  0  0  0  0  0  0  0  0  0
   -5.8833    2.2458    0.0000 C   0  0  0  0  0  0  0  0  0  0  0  0
   -5.4583    1.5458    0.0000 C   0  0  0  0  0  0  0  0  0  0  0  0
   -3.8708    3.8000    0.0000 C   0  0  0  0  0  0  0  0  0  0  0  0
   -1.7208    4.2125    0.0000 C   0  0  0  0  0  0  0  0  0  0  0  0
   -0.9625    2.9708    0.0000 C   0  0  0  0  0  0  0  0  0  0  0  0
   -0.2375    4.0917    0.0000 C   0  0  0  0  0  0  0  0  0  0  0  0
   -6.7042    2.2333    0.0000 C   0  0  0  0  0  0  0  0  0  0  0  0
   -2.4375    3.8083    0.0000 C   0  0  0  0  0  0  0  0  0  0  0  0
   -3.1583    4.2125    0.0000 C   0  0  0  0  0  0  0  0  0  0  0  0
   -5.8458    0.8208    0.0000 C   0  0  0  0  0  0  0  0  0  0  0  0
   -3.2375    1.4625    0.0000 C   0  0  0  0  0  0  0  0  0  0  0  0
   -2.4625    1.7458    0.0000 C   0  0  0  0  0  0  0  0  0  0  0  0
   -4.5833    4.2042    0.0000 O   0  0  0  0  0  0  0  0  0  0  0  0
    0.2917    3.4708    0.0000 C   0  0  0  0  0  0  0  0  0  0  0  0
   -0.1458    2.7708    0.0000 C   0  0  0  0  0  0  0  0  0  0  0  0
   -0.0208    4.8875    0.0000 O   0  0  0  0  0  0  0  0  0  0  0  0
   -1.5958    2.4583    0.0000 O   0  0  0  0  0  0  0  0  0  0  0  0
   -4.0208    1.1958    0.0000 C   0  0  0  0  0  0  0  0  0  0  0  0
   -7.1042    1.5083    0.0000 C   0  0  0  0  0  0  0  0  0  0  0  0
   -6.6667    0.7958    0.0000 C   0  0  0  0  0  0  0  0  0  0  0  0
   -1.7125    5.0292    0.0000 C   0  0  0  0  0  0  0  0  0  0  0  0
   -3.1500    5.0417    0.0000 C   0  0  0  0  0  0  0  0  0  0  0  0
   -7.1417    2.9333    0.0000 C   0  0  0  0  0  0  0  0  0  0  0  0
   -2.4333    5.4542    0.0000 C   0  0  0  0  0  0  0  0  0  0  0  0
   -7.9167    1.4833    0.0000 C   0  0  0  0  0  0  0  0  0  0  0  0
   -7.9667    2.9125    0.0000 C   0  0  0  0  0  0  0  0  0  0  0  0
   -8.3542    2.1875    0.0000 C   0  0  0  0  0  0  0  0  0  0  0  0
  2  1  2  0  0  0  0
  3  1  1  0  0  0  0
  4  1  1  0  0  0  0
  5  9  1  0  0  0  0
  6  3  1  0  0  0  0
  7  4  1  0  0  0  0
  8  2  1  0  0  0  0
  9 13  1  0  0  0  0
 10  5  1  0  0  0  0
 11  5  1  0  0  0  0
 12  6  1  0  0  0  0
 13 14  2  0  0  0  0
 14  8  1  0  0  0  0
 15  7  1  0  0  0  0
 16 23  1  0  0  0  0
 17 16  3  0  0  0  0
 18  8  2  0  0  0  0
 19 11  1  0  0  0  0
 20 10  1  0  0  0  0
 21 11  2  0  0  0  0
 22 10  2  0  0  0  0
 23  4  1  0  0  0  0
 24 12  1  0  0  0  0
 25 15  2  0  0  0  0
 26 29  1  0  0  0  0
 27 14  1  0  0  0  0
 28 12  2  0  0  0  0
 29 27  2  0  0  0  0
 30 24  2  0  0  0  0
 31 28  1  0  0  0  0
 32 31  2  0  0  0  0
  7  6  2  0  0  0  0
 24 25  1  0  0  0  0
 32 30  1  0  0  0  0
 26  9  2  0  0  0  0
 19 20  1  0  0  0  0
M  END
> <IDNUMBER>
F1816-0726

> <Chemical_Name>
3-(2,5-dioxopyrrolidin-1-yl)-N-[(2Z)-3-(prop-2-yn-1-yl)-2H,3H-naphtho[2,1-d][1,3]thiazol-2-ylidene]benzamide

> <CAS>
868674-17-3

> <PriceCoeff>
1.00

> <MW>
439.49

> <Description>
solid

> <FSP3>
0.12

> <clogP>
4.22

> <TPSA>
95.35

> <Acceptor>
3

> <Donor>
0

> <RotBonds>
5

> <HAC>
32

> <Collection>
General

$$$$
F1816-0528
  -ISIS-  06222321142D

 32 36  0  0  0  0  0  0  0  0999 V2000
   -4.5833    2.5500    0.0000 C   0  0  0  0  0  0  0  0  0  0  0  0
   -3.8708    2.9833    0.0000 N   0  0  0  0  0  0  0  0  0  0  0  0
   -5.3500    2.8708    0.0000 S   0  0  0  0  0  0  0  0  0  0  0  0
   -4.6583    1.7375    0.0000 N   0  0  3  0  0  0  0  0  0  0  0  0
   -5.8833    2.2458    0.0000 C   0  0  0  0  0  0  0  0  0  0  0  0
   -0.9958    5.4375    0.0000 N   0  0  3  0  0  0  0  0  0  0  0  0
   -5.4583    1.5458    0.0000 C   0  0  0  0  0  0  0  0  0  0  0  0
   -3.8708    3.8000    0.0000 C   0  0  0  0  0  0  0  0  0  0  0  0
   -0.2333    5.1375    0.0000 C   0  0  0  0  0  0  0  0  0  0  0  0
   -0.9375    6.2667    0.0000 C   0  0  0  0  0  0  0  0  0  0  0  0
   -6.7042    2.2333    0.0000 C   0  0  0  0  0  0  0  0  0  0  0  0
   -1.7125    5.0292    0.0000 C   0  0  0  0  0  0  0  0  0  0  0  0
   -5.8458    0.8208    0.0000 C   0  0  0  0  0  0  0  0  0  0  0  0
   -3.2375    1.4625    0.0000 C   0  0  0  0  0  0  0  0  0  0  0  0
   -2.4625    1.7458    0.0000 C   0  0  0  0  0  0  0  0  0  0  0  0
   -3.1583    4.2125    0.0000 C   0  0  0  0  0  0  0  0  0  0  0  0
   -4.5833    4.2042    0.0000 O   0  0  0  0  0  0  0  0  0  0  0  0
   -0.1333    6.4667    0.0000 C   0  0  0  0  0  0  0  0  0  0  0  0
    0.2917    5.7667    0.0000 C   0  0  0  0  0  0  0  0  0  0  0  0
   -1.5833    6.8125    0.0000 O   0  0  0  0  0  0  0  0  0  0  0  0
   -0.0333    4.3292    0.0000 O   0  0  0  0  0  0  0  0  0  0  0  0
   -4.0208    1.1958    0.0000 C   0  0  0  0  0  0  0  0  0  0  0  0
   -7.1042    1.5083    0.0000 C   0  0  0  0  0  0  0  0  0  0  0  0
   -6.6667    0.7958    0.0000 C   0  0  0  0  0  0  0  0  0  0  0  0
   -1.7333    4.2042    0.0000 C   0  0  0  0  0  0  0  0  0  0  0  0
   -2.4333    5.4542    0.0000 C   0  0  0  0  0  0  0  0  0  0  0  0
   -3.1500    5.0417    0.0000 C   0  0  0  0  0  0  0  0  0  0  0  0
   -2.4458    3.8083    0.0000 C   0  0  0  0  0  0  0  0  0  0  0  0
   -7.1417    2.9333    0.0000 C   0  0  0  0  0  0  0  0  0  0  0  0
   -7.9167    1.4833    0.0000 C   0  0  0  0  0  0  0  0  0  0  0  0
   -7.9667    2.9125    0.0000 C   0  0  0  0  0  0  0  0  0  0  0  0
   -8.3542    2.1875    0.0000 C   0  0  0  0  0  0  0  0  0  0  0  0
  2  1  2  0  0  0  0
  3  1  1  0  0  0  0
  4  1  1  0  0  0  0
  5  3  1  0  0  0  0
  6 12  1  0  0  0  0
  7  4  1  0  0  0  0
  8  2  1  0  0  0  0
  9  6  1  0  0  0  0
 10  6  1  0  0  0  0
 11  5  1  0  0  0  0
 12 25  2  0  0  0  0
 13  7  1  0  0  0  0
 14 22  1  0  0  0  0
 15 14  3  0  0  0  0
 16  8  1  0  0  0  0
 17  8  2  0  0  0  0
 18 10  1  0  0  0  0
 19  9  1  0  0  0  0
 20 10  2  0  0  0  0
 21  9  2  0  0  0  0
 22  4  1  0  0  0  0
 23 11  1  0  0  0  0
 24 13  2  0  0  0  0
 25 28  1  0  0  0  0
 26 27  2  0  0  0  0
 27 16  1  0  0  0  0
 28 16  2  0  0  0  0
 29 11  2  0  0  0  0
 30 23  2  0  0  0  0
 31 29  1  0  0  0  0
 32 31  2  0  0  0  0
  7  5  2  0  0  0  0
 23 24  1  0  0  0  0
 26 12  1  0  0  0  0
 32 30  1  0  0  0  0
 18 19  1  0  0  0  0
M  END
> <IDNUMBER>
F1816-0528

> <Chemical_Name>
4-(2,5-dioxopyrrolidin-1-yl)-N-[(2Z)-3-(prop-2-yn-1-yl)-2H,3H-naphtho[2,1-d][1,3]thiazol-2-ylidene]benzamide

> <CAS>
868377-95-1

> <PriceCoeff>
1.00

> <MW>
439.49

> <Description>
solid

> <FSP3>
0.12

> <clogP>
4.22

> <TPSA>
95.35

> <Acceptor>
3

> <Donor>
0

> <RotBonds>
5

> <HAC>
32

> <Collection>
General

$$$$
F2671-0110
  -ISIS-  06222321152D

 31 34  0  0  0  0  0  0  0  0999 V2000
   -6.0125    6.2792    0.0000 S   0  0  3  0  0  0  0  0  0  0  0  0
   -5.2958    6.7000    0.0000 N   0  0  3  0  0  0  0  0  0  0  0  0
   -5.9708    1.2958    0.0000 N   0  3  0  0  0  0  0  0  0  0  0  0
   -5.2708    1.7333    0.0000 C   0  0  0  0  0  0  0  0  0  0  0  0
   -6.7292    5.8750    0.0000 C   0  0  0  0  0  0  0  0  0  0  0  0
   -4.5833    6.2792    0.0000 C   0  0  0  0  0  0  0  0  0  0  0  0
   -4.5708    3.8000    0.0000 C   0  0  0  0  0  0  0  0  0  0  0  0
   -5.2708    2.5458    0.0000 C   0  0  0  0  0  0  0  0  0  0  0  0
   -4.5833    2.9833    0.0000 C   0  0  0  0  0  0  0  0  0  0  0  0
   -3.8583    4.2125    0.0000 N   0  0  0  0  0  0  0  0  0  0  0  0
   -6.8250    5.0542    0.0000 S   0  0  0  0  0  0  0  0  0  0  0  0
   -4.5833    5.4542    0.0000 C   0  0  0  0  0  0  0  0  0  0  0  0
   -5.6083    5.5667    0.0000 O   0  0  0  0  0  0  0  0  0  0  0  0
   -6.4167    7.0042    0.0000 O   0  0  0  0  0  0  0  0  0  0  0  0
   -4.5375    1.3333    0.0000 C   0  0  0  0  0  0  0  0  0  0  0  0
   -5.9583    0.4708    0.0000 O   0  5  0  0  0  0  0  0  0  0  0  0
   -6.6875    1.7125    0.0000 O   0  0  0  0  0  0  0  0  0  0  0  0
   -3.8583    6.6917    0.0000 C   0  0  0  0  0  0  0  0  0  0  0  0
   -3.8583    5.0417    0.0000 C   0  0  0  0  0  0  0  0  0  0  0  0
   -7.4792    6.2167    0.0000 C   0  0  0  0  0  0  0  0  0  0  0  0
   -5.3083    4.2042    0.0000 O   0  0  0  0  0  0  0  0  0  0  0  0
   -7.6292    4.8875    0.0000 C   0  0  0  0  0  0  0  0  0  0  0  0
   -3.8458    2.5833    0.0000 C   0  0  0  0  0  0  0  0  0  0  0  0
   -8.0417    5.6042    0.0000 C   0  0  0  0  0  0  0  0  0  0  0  0
   -3.8250    1.7708    0.0000 C   0  0  0  0  0  0  0  0  0  0  0  0
   -3.1375    6.2792    0.0000 C   0  0  0  0  0  0  0  0  0  0  0  0
   -5.2875    7.5292    0.0000 C   0  0  0  0  0  0  0  0  0  0  0  0
   -3.1458    5.4542    0.0000 C   0  0  0  0  0  0  0  0  0  0  0  0
   -4.5333    0.4958    0.0000 Cl  0  0  0  0  0  0  0  0  0  0  0  0
   -4.5708    7.9417    0.0000 C   0  0  0  0  0  0  0  0  0  0  0  0
   -3.8583    7.5250    0.0000 C   0  0  0  0  0  0  0  0  0  0  0  0
  2  1  1  0  0  0  0
  3  4  1  0  0  0  0
  4  8  1  0  0  0  0
  5  1  1  0  0  0  0
  6  2  1  0  0  0  0
  7 10  1  0  0  0  0
  8  9  2  0  0  0  0
  9  7  1  0  0  0  0
 10 19  1  0  0  0  0
 11  5  1  0  0  0  0
 12  6  1  0  0  0  0
 13  1  2  0  0  0  0
 14  1  2  0  0  0  0
 15 25  1  0  0  0  0
 16  3  1  0  0  0  0
 17  3  2  0  0  0  0
 18  6  2  0  0  0  0
 19 12  2  0  0  0  0
 20  5  2  0  0  0  0
 21  7  2  0  0  0  0
 22 11  1  0  0  0  0
 23  9  1  0  0  0  0
 24 20  1  0  0  0  0
 25 23  2  0  0  0  0
 26 18  1  0  0  0  0
 27  2  1  0  0  0  0
 28 26  2  0  0  0  0
 29 15  1  0  0  0  0
 30 27  1  0  0  0  0
 31 30  1  0  0  0  0
 24 22  2  0  0  0  0
 18 31  1  0  0  0  0
 19 28  1  0  0  0  0
 15  4  2  0  0  0  0
M  CHG  2   3   1  16  -1
M  END
> <IDNUMBER>
F2671-0110

> <Chemical_Name>
4-chloro-3-nitro-N-[1-(thiophene-2-sulfonyl)-1,2,3,4-tetrahydroquinolin-7-yl]benzamide

> <CAS>
898429-84-0

> <PriceCoeff>
1.00

> <MW>
477.94

> <Description>
solid

> <FSP3>
0.15

> <clogP>
4.50

> <TPSA>
146.24

> <Acceptor>
6

> <Donor>
1

> <RotBonds>
5

> <HAC>
31

> <Collection>
General

$$$$
F0243-0007
  -ISIS-  06222321142D

 22 26  0  0  0  0  0  0  0  0999 V2000
   -2.0125   -0.8875    0.0000 C   0  0  0  0  0  0  0  0  0  0  0  0
   -2.0125    0.0458    0.0000 C   0  0  0  0  0  0  0  0  0  0  0  0
   -1.2000   -1.3542    0.0000 N   0  0  0  0  0  0  0  0  0  0  0  0
   -1.2000    0.5208    0.0000 N   0  0  0  0  0  0  0  0  0  0  0  0
   -2.8333   -1.3667    0.0000 C   0  0  0  0  0  0  0  0  0  0  0  0
   -2.8333    0.5125    0.0000 C   0  0  0  0  0  0  0  0  0  0  0  0
   -3.6458   -0.9000    0.0000 C   0  0  0  0  0  0  0  0  0  0  0  0
   -3.6458    0.0458    0.0000 C   0  0  0  0  0  0  0  0  0  0  0  0
   -0.3958    0.0500    0.0000 C   0  0  0  0  0  0  0  0  0  0  0  0
   -0.3958   -0.8875    0.0000 C   0  0  0  0  0  0  0  0  0  0  0  0
   -2.8333    1.4500    0.0000 C   0  0  0  0  0  0  0  0  0  0  0  0
   -2.8333   -2.3042    0.0000 C   0  0  0  0  0  0  0  0  0  0  0  0
   -4.4583   -1.3542    0.0000 C   0  0  0  0  0  0  0  0  0  0  0  0
   -4.4583    0.5125    0.0000 C   0  0  0  0  0  0  0  0  0  0  0  0
    0.4167   -1.3542    0.0000 C   0  0  0  0  0  0  0  0  0  0  0  0
    0.4167    0.5208    0.0000 C   0  0  0  0  0  0  0  0  0  0  0  0
   -3.6458   -2.7792    0.0000 C   0  0  0  0  0  0  0  0  0  0  0  0
   -4.4583    1.4500    0.0000 C   0  0  0  0  0  0  0  0  0  0  0  0
   -3.6458    1.9208    0.0000 C   0  0  0  0  0  0  0  0  0  0  0  0
   -4.4583   -2.3042    0.0000 C   0  0  0  0  0  0  0  0  0  0  0  0
    1.2292    0.0500    0.0000 C   0  0  0  0  0  0  0  0  0  0  0  0
    1.2292   -0.8875    0.0000 C   0  0  0  0  0  0  0  0  0  0  0  0
  2  1  1  0  0  0  0
  3  1  2  0  0  0  0
  4  2  2  0  0  0  0
  5  1  1  0  0  0  0
  6  2  1  0  0  0  0
  7  5  2  0  0  0  0
  8  7  1  0  0  0  0
  9 10  2  0  0  0  0
 10  3  1  0  0  0  0
 11  6  2  0  0  0  0
 12  5  1  0  0  0  0
 13  7  1  0  0  0  0
 14  8  2  0  0  0  0
 15 10  1  0  0  0  0
 16  9  1  0  0  0  0
 17 12  2  0  0  0  0
 18 14  1  0  0  0  0
 19 11  1  0  0  0  0
 20 17  1  0  0  0  0
 21 22  1  0  0  0  0
 22 15  2  0  0  0  0
  8  6  1  0  0  0  0
  4  9  1  0  0  0  0
 13 20  2  0  0  0  0
 19 18  2  0  0  0  0
 16 21  2  0  0  0  0
M  END
> <IDNUMBER>
F0243-0007

> <Chemical_Name>
15,22-diazapentacyclo[12.8.0.0^{2,7}.0^{8,13}.0^{16,21}]docosa-1(22),2,4,6,8(13),9,11,14,16(21),17,19-undecaene

> <CAS>
215-64-5

> <PriceCoeff>
1.00

> <MW>
280.32

> <Description>
solid

> <FSP3>
0.00

> <clogP>
5.22

> <TPSA>
25.78

> <Acceptor>
2

> <Donor>
0

> <RotBonds>
0

> <HAC>
22

> <Collection>
General

> <Reference_compound>
CHEMBL415879

> <Similarity>
0.8550

$$$$
F3386-4531
  -ISIS-  06222321152D

 25 28  0  0  0  0  0  0  0  0999 V2000
    5.5292   -1.7750    0.0000 S   0  0  3  0  0  0  0  0  0  0  0  0
    4.7042   -1.7667    0.0000 C   0  0  0  0  0  0  0  0  0  0  0  0
    4.2917   -2.4792    0.0000 C   0  0  0  0  0  0  0  0  0  0  0  0
    6.3542   -1.7750    0.0000 O   0  0  0  0  0  0  0  0  0  0  0  0
    3.4750   -2.4750    0.0000 C   0  0  0  0  0  0  0  0  0  0  0  0
    5.5292   -2.6000    0.0000 O   0  0  0  0  0  0  0  0  0  0  0  0
    5.5292   -0.9500    0.0000 O   0  0  0  0  0  0  0  0  0  0  0  0
    4.3000   -1.0500    0.0000 C   0  0  0  0  0  0  0  0  0  0  0  0
    3.0542   -1.7542    0.0000 C   0  0  0  0  0  0  0  0  0  0  0  0
    7.1792   -1.7750    0.0000 C   0  0  0  0  0  0  0  0  0  0  0  0
    8.4125   -1.0542    0.0000 C   0  0  0  0  0  0  0  0  0  0  0  0
    7.5917   -1.0625    0.0000 C   0  0  0  0  0  0  0  0  0  0  0  0
    3.4750   -1.0417    0.0000 C   0  0  0  0  0  0  0  0  0  0  0  0
    8.8250   -1.7667    0.0000 C   0  0  0  0  0  0  0  0  0  0  0  0
    8.4167   -2.4917    0.0000 C   0  0  0  0  0  0  0  0  0  0  0  0
    7.5917   -2.4917    0.0000 C   0  0  0  0  0  0  0  0  0  0  0  0
    2.2292   -1.7542    0.0000 Cl  0  0  0  0  0  0  0  0  0  0  0  0
    4.7042   -3.1792    0.0000 C   0  0  0  0  0  0  0  0  0  0  0  0
    3.0625   -3.1792    0.0000 C   0  0  0  0  0  0  0  0  0  0  0  0
    8.8167   -0.3417    0.0000 C   0  0  0  0  0  0  0  0  0  0  0  0
    9.6500   -1.7667    0.0000 C   0  0  0  0  0  0  0  0  0  0  0  0
    4.2917   -3.8917    0.0000 C   0  0  0  0  0  0  0  0  0  0  0  0
    3.4667   -3.8917    0.0000 C   0  0  0  0  0  0  0  0  0  0  0  0
    9.6417   -0.3375    0.0000 C   0  0  0  0  0  0  0  0  0  0  0  0
   10.0542   -1.0542    0.0000 C   0  0  0  0  0  0  0  0  0  0  0  0
  2  1  1  0  0  0  0
  3  2  1  0  0  0  0
  4  1  1  0  0  0  0
  5  3  1  0  0  0  0
  6  1  2  0  0  0  0
  7  1  2  0  0  0  0
  8  2  2  0  0  0  0
  9 13  2  0  0  0  0
 10  4  1  0  0  0  0
 11 12  2  0  0  0  0
 12 10  1  0  0  0  0
 13  8  1  0  0  0  0
 14 15  2  0  0  0  0
 15 16  1  0  0  0  0
 16 10  2  0  0  0  0
 17  9  1  0  0  0  0
 18  3  2  0  0  0  0
 19  5  2  0  0  0  0
 20 11  1  0  0  0  0
 21 14  1  0  0  0  0
 22 18  1  0  0  0  0
 23 22  2  0  0  0  0
 24 20  2  0  0  0  0
 25 21  2  0  0  0  0
  5  9  1  0  0  0  0
 11 14  1  0  0  0  0
 19 23  1  0  0  0  0
 25 24  1  0  0  0  0
M  END
> <IDNUMBER>
F3386-4531

> <Chemical_Name>
naphthalen-2-yl 4-chloronaphthalene-1-sulfonate

> <CAS>
2640970-48-3

> <PriceCoeff>
1.00

> <MW>
368.83

> <Description>
solid

> <FSP3>
0.00

> <clogP>
6.15

> <TPSA>
51.75

> <Acceptor>
3

> <Donor>
0

> <RotBonds>
3

> <HAC>
25

> <Collection>
General

> <Reference_compound>
PRI3215

> <Similarity>
0.8570

$$$$
F9995-0472
  -ISIS-  06222304352D

 54 60  0  0  0  0  0  0  0  0999 V2000
    2.1125   -3.3875    0.0000 N   0  3  0  0  0  0  0  0  0  0  0  0
    8.5875   -3.0542    0.0000 C   0  0  0  0  0  0  0  0  0  0  0  0
    2.8625   -3.0542    0.0000 C   0  0  0  0  0  0  0  0  0  0  0  0
    1.5625   -2.7625    0.0000 C   0  0  0  0  0  0  0  0  0  0  0  0
    9.3417   -3.3917    0.0000 N   0  0  3  0  0  0  0  0  0  0  0  0
    8.6917   -2.2167    0.0000 C   0  0  3  0  0  0  0  0  0  0  0  0
    2.7875   -2.2167    0.0000 C   0  0  3  0  0  0  0  0  0  0  0  0
    1.9792   -2.0417    0.0000 C   0  0  0  0  0  0  0  0  0  0  0  0
    9.4917   -2.0542    0.0000 C   0  0  0  0  0  0  0  0  0  0  0  0
    9.9042   -2.7792    0.0000 C   0  0  0  0  0  0  0  0  0  0  0  0
    7.8792   -3.4750    0.0000 C   0  0  0  0  0  0  0  0  0  0  0  0
    3.5792   -3.4750    0.0000 C   0  0  0  0  0  0  0  0  0  0  0  0
    5.7292   -3.0625    0.0000 C   0  0  0  0  0  0  0  0  0  0  0  0
    7.1667   -3.0625    0.0000 C   0  0  0  0  0  0  0  0  0  0  0  0
    4.3000   -3.0625    0.0000 C   0  0  0  0  0  0  0  0  0  0  0  0
    5.0167   -3.4750    0.0000 C   0  0  0  0  0  0  0  0  0  0  0  0
    6.4500   -3.4750    0.0000 C   0  0  0  0  0  0  0  0  0  0  0  0
    9.9125   -1.3500    0.0000 C   0  0  0  0  0  0  0  0  0  0  0  0
    1.5667   -1.3292    0.0000 C   0  0  0  0  0  0  0  0  0  0  0  0
    0.7292   -2.7542    0.0000 C   0  0  0  0  0  0  0  0  0  0  0  0
   10.7292   -2.7792    0.0000 C   0  0  0  0  0  0  0  0  0  0  0  0
   10.7417   -1.3542    0.0000 C   0  0  0  0  0  0  0  0  0  0  0  0
    0.7417   -1.3167    0.0000 C   0  0  0  0  0  0  0  0  0  0  0  0
   11.1417   -2.0667    0.0000 C   0  0  0  0  0  0  0  0  0  0  0  0
    0.3167   -2.0292    0.0000 C   0  0  0  0  0  0  0  0  0  0  0  0
    1.9292   -4.1917    0.0000 C   0  0  0  0  0  0  0  0  0  0  0  0
    5.7292   -2.2375    0.0000 Cl  0  0  0  0  0  0  0  0  0  0  0  0
    9.5167   -4.1917    0.0000 C   0  0  0  0  0  0  0  0  0  0  0  0
    7.8917   -2.0000    0.0000 C   0  0  0  0  0  0  0  0  0  0  0  0
    8.9042   -1.4167    0.0000 C   0  0  0  0  0  0  0  0  0  0  0  0
    3.6125   -2.2167    0.0000 C   0  0  0  0  0  0  0  0  0  0  0  0
    2.7792   -1.3917    0.0000 C   0  0  0  0  0  0  0  0  0  0  0  0
    6.4417   -4.3000    0.0000 C   0  0  0  0  0  0  0  0  0  0  0  0
    5.0125   -4.3000    0.0000 C   0  0  0  0  0  0  0  0  0  0  0  0
    1.9875   -0.6167    0.0000 C   0  0  0  0  0  0  0  0  0  0  0  0
    9.5042   -0.6292    0.0000 C   0  0  0  0  0  0  0  0  0  0  0  0
    5.7292   -4.7042    0.0000 C   0  0  0  0  0  0  0  0  0  0  0  0
   11.1542   -0.6417    0.0000 C   0  0  0  0  0  0  0  0  0  0  0  0
    0.3375   -0.6042    0.0000 C   0  0  0  0  0  0  0  0  0  0  0  0
    1.5792    0.1000    0.0000 C   0  0  0  0  0  0  0  0  0  0  0  0
    9.9167    0.0833    0.0000 C   0  0  0  0  0  0  0  0  0  0  0  0
   10.7500    0.0750    0.0000 C   0  0  0  0  0  0  0  0  0  0  0  0
    0.7542    0.1083    0.0000 C   0  0  0  0  0  0  0  0  0  0  0  0
   13.9298   -1.2266    0.0000 S   0  0  3  0  0  0  0  0  0  0  0  0
   13.5954   -1.9789    0.0000 C   0  0  0  0  0  0  0  0  0  0  0  0
   14.6822   -1.5610    0.0000 O   0  5  0  0  0  0  0  0  0  0  0  0
   14.2618   -0.4709    0.0000 O   0  0  0  0  0  0  0  0  0  0  0  0
   13.1751   -0.8888    0.0000 O   0  0  0  0  0  0  0  0  0  0  0  0
   14.0848   -2.6534    0.0000 C   0  0  0  0  0  0  0  0  0  0  0  0
   12.7765   -2.0635    0.0000 C   0  0  0  0  0  0  0  0  0  0  0  0
   13.7504   -3.4057    0.0000 C   0  0  0  0  0  0  0  0  0  0  0  0
   12.4469   -2.8225    0.0000 C   0  0  0  0  0  0  0  0  0  0  0  0
   12.9315   -3.4902    0.0000 C   0  0  0  0  0  0  0  0  0  0  0  0
   12.5937   -4.2450    0.0000 C   0  0  0  0  0  0  0  0  0  0  0  0
 13 16  2  0  0  0  0
 14 17  2  0  0  0  0
 15 12  2  0  0  0  0
 16 15  1  0  0  0  0
 17 13  1  0  0  0  0
 18  9  1  0  0  0  0
 19  8  1  0  0  0  0
 20  4  1  0  0  0  0
 21 10  1  0  0  0  0
 22 18  1  0  0  0  0
 23 25  1  0  0  0  0
 24 21  2  0  0  0  0
 25 20  2  0  0  0  0
 26  1  1  0  0  0  0
 27 13  1  0  0  0  0
 28  5  1  0  0  0  0
 29  6  1  0  0  0  0
 30  6  1  0  0  0  0
 31  7  1  0  0  0  0
 32  7  1  0  0  0  0
 33 37  1  0  0  0  0
 34 16  1  0  0  0  0
 35 19  2  0  0  0  0
 36 18  2  0  0  0  0
 37 34  1  0  0  0  0
 38 22  2  0  0  0  0
 39 23  2  0  0  0  0
 40 35  1  0  0  0  0
 41 36  1  0  0  0  0
 42 41  2  0  0  0  0
 43 39  1  0  0  0  0
  7  8  1  0  0  0  0
 23 19  1  0  0  0  0
 43 40  2  0  0  0  0
 17 33  1  0  0  0  0
  9 10  2  0  0  0  0
 22 24  1  0  0  0  0
 38 42  1  0  0  0  0
  2 11  2  0  0  0  0
  3  1  2  0  0  0  0
  4  1  1  0  0  0  0
  5  2  1  0  0  0  0
  6  2  1  0  0  0  0
  7  3  1  0  0  0  0
  8  4  2  0  0  0  0
  9  6  1  0  0  0  0
 10  5  1  0  0  0  0
 11 14  1  0  0  0  0
 12  3  1  0  0  0  0
 45 44  1  0  0  0  0
 46 44  1  0  0  0  0
 47 44  2  0  0  0  0
 48 44  2  0  0  0  0
 49 45  1  0  0  0  0
 50 45  2  0  0  0  0
 51 49  2  0  0  0  0
 52 50  1  0  0  0  0
 53 52  2  0  0  0  0
 54 53  1  0  0  0  0
 53 51  1  0  0  0  0
M  CHG  2   1   1  46  -1
M  END
> <IDNUMBER>
F9995-0472

> <Chemical_Name>
2-[(E)-2-[(3E)-2-chloro-3-{2-[(2E)-1,1,3-trimethyl-1H,2H,3H-benzo[e]indol-2-ylidene]ethylidene}cyclohex-1-en-1-yl]ethenyl]-1,1,3-trimethyl-1H-benzo[e]indol-3-ium 4-methylbenzene-1-sulfonate

> <CAS>
134127-48-3

> <PriceCoeff>
1.00

> <MW>
584.21

> <Description>
solid

> <FSP3>
0.28

> <clogP>
9.54

> <TPSA>
6.25

> <Acceptor>
1

> <Donor>
1

> <RotBonds>
3

> <HAC>
43

> <Collection>
General

> <Reference_compound>
PRI5741

> <Similarity>
0.8100

$$$$
F0666-0192
  -ISIS-  06222321452D

 33 36  0  0  0  0  0  0  0  0999 V2000
   -1.7708    0.8125    0.0000 C   0  0  0  0  0  0  0  0  0  0  0  0
   -2.0333    1.6000    0.0000 C   0  0  0  0  0  0  0  0  0  0  0  0
   -2.4458    0.3333    0.0000 O   0  0  0  0  0  0  0  0  0  0  0  0
    0.7167    4.1667    0.0000 N   0  3  0  0  0  0  0  0  0  0  0  0
   -0.0958    4.2542    0.0000 C   0  0  0  0  0  0  0  0  0  0  0  0
   -0.9875    0.5583    0.0000 C   0  0  0  0  0  0  0  0  0  0  0  0
   -1.5458    2.2708    0.0000 N   0  0  0  0  0  0  0  0  0  0  0  0
   -2.8500    1.5958    0.0000 C   0  0  0  0  0  0  0  0  0  0  0  0
   -1.8833    3.0208    0.0000 C   0  0  0  0  0  0  0  0  0  0  0  0
   -3.1083    0.8125    0.0000 C   0  0  0  0  0  0  0  0  0  0  0  0
   -0.8208   -0.2417    0.0000 N   0  0  0  0  0  0  0  0  0  0  0  0
   -0.5875    3.6083    0.0000 C   0  0  0  0  0  0  0  0  0  0  0  0
   -1.4000    3.6833    0.0000 C   0  0  0  0  0  0  0  0  0  0  0  0
   -0.0375   -0.5000    0.0000 C   0  0  0  0  0  0  0  0  0  0  0  0
   -0.4333    5.0167    0.0000 C   0  0  0  0  0  0  0  0  0  0  0  0
    1.0542    3.4333    0.0000 O   0  5  0  0  0  0  0  0  0  0  0  0
    1.2042    4.8375    0.0000 O   0  0  0  0  0  0  0  0  0  0  0  0
   -0.3750    1.1125    0.0000 O   0  0  0  0  0  0  0  0  0  0  0  0
   -2.7000    3.1083    0.0000 O   0  0  0  0  0  0  0  0  0  0  0  0
   -1.7333    4.4292    0.0000 C   0  0  0  0  0  0  0  0  0  0  0  0
    0.1292   -1.2917    0.0000 C   0  0  0  0  0  0  0  0  0  0  0  0
   -1.2583    5.0917    0.0000 C   0  0  0  0  0  0  0  0  0  0  0  0
    0.0417    5.6792    0.0000 Cl  0  0  0  0  0  0  0  0  0  0  0  0
   -3.4000    2.2083    0.0000 C   0  0  0  0  0  0  0  0  0  0  0  0
   -0.4708   -1.8417    0.0000 O   0  0  0  0  0  0  0  0  0  0  0  0
   -3.9083    0.6458    0.0000 C   0  0  0  0  0  0  0  0  0  0  0  0
    0.5667    0.0583    0.0000 C   0  0  0  0  0  0  0  0  0  0  0  0
    0.9167   -1.5500    0.0000 C   0  0  0  0  0  0  0  0  0  0  0  0
   -0.3000   -2.6417    0.0000 C   0  0  0  0  0  0  0  0  0  0  0  0
   -4.2083    2.0375    0.0000 C   0  0  0  0  0  0  0  0  0  0  0  0
   -4.4583    1.2500    0.0000 C   0  0  0  0  0  0  0  0  0  0  0  0
    1.3542   -0.1917    0.0000 C   0  0  0  0  0  0  0  0  0  0  0  0
    1.5250   -1.0000    0.0000 C   0  0  0  0  0  0  0  0  0  0  0  0
  2  1  2  0  0  0  0
  3  1  1  0  0  0  0
  4  5  1  0  0  0  0
  5 12  2  0  0  0  0
  6  1  1  0  0  0  0
  7  2  1  0  0  0  0
  8  2  1  0  0  0  0
  9  7  1  0  0  0  0
 10  3  1  0  0  0  0
 11  6  1  0  0  0  0
 12 13  1  0  0  0  0
 13  9  1  0  0  0  0
 14 11  1  0  0  0  0
 15 22  2  0  0  0  0
 16  4  1  0  0  0  0
 17  4  2  0  0  0  0
 18  6  2  0  0  0  0
 19  9  2  0  0  0  0
 20 13  2  0  0  0  0
 21 14  1  0  0  0  0
 22 20  1  0  0  0  0
 23 15  1  0  0  0  0
 24  8  1  0  0  0  0
 25 21  1  0  0  0  0
 26 10  1  0  0  0  0
 27 14  2  0  0  0  0
 28 21  2  0  0  0  0
 29 25  1  0  0  0  0
 30 24  2  0  0  0  0
 31 26  2  0  0  0  0
 32 27  1  0  0  0  0
 33 32  2  0  0  0  0
  8 10  2  0  0  0  0
 31 30  1  0  0  0  0
 33 28  1  0  0  0  0
  5 15  1  0  0  0  0
M  CHG  2   4   1  16  -1
M  END
> <IDNUMBER>
F0666-0192

> <Chemical_Name>
3-(4-chloro-3-nitrobenzamido)-N-(2-methoxyphenyl)-1-benzofuran-2-carboxamide

> <CAS>
887891-88-5

> <PriceCoeff>
1.00

> <MW>
465.84

> <Description>
solid

> <FSP3>
0.04

> <clogP>
4.37

> <TPSA>
123.71

> <Acceptor>
6

> <Donor>
2

> <RotBonds>
6

> <HAC>
33

> <Collection>
General

$$$$
F9995-0829
  -ISIS-  06222304352D

 54 59  0  0  0  0  0  0  0  0999 V2000
    0.7292   -3.3167    0.0000 N   0  3  0  0  0  0  0  0  0  0  0  0
    7.1875   -2.8000    0.0000 C   0  0  0  0  0  0  0  0  0  0  0  0
    1.4792   -2.9542    0.0000 C   0  0  0  0  0  0  0  0  0  0  0  0
    7.9500   -3.1125    0.0000 N   0  0  3  0  0  0  0  0  0  0  0  0
    3.6292   -3.3042    0.0000 C   0  0  0  0  0  0  0  0  0  0  0  0
    5.0542   -3.2667    0.0000 C   0  0  0  0  0  0  0  0  0  0  0  0
    7.2542   -1.9750    0.0000 S   0  0  0  0  0  0  0  0  0  0  0  0
    1.3667   -2.1292    0.0000 S   0  0  0  0  0  0  0  0  0  0  0  0
    0.1542   -2.7125    0.0000 C   0  0  0  0  0  0  0  0  0  0  0  0
    4.3292   -2.8667    0.0000 C   0  0  0  0  0  0  0  0  0  0  0  0
    0.5500   -1.9792    0.0000 C   0  0  0  0  0  0  0  0  0  0  0  0
    8.0542   -1.7792    0.0000 C   0  0  0  0  0  0  0  0  0  0  0  0
    8.4875   -2.4792    0.0000 C   0  0  0  0  0  0  0  0  0  0  0  0
    6.4792   -3.2292    0.0000 C   0  0  0  0  0  0  0  0  0  0  0  0
    5.7542   -2.8375    0.0000 C   0  0  0  0  0  0  0  0  0  0  0  0
    2.9042   -2.9125    0.0000 C   0  0  0  0  0  0  0  0  0  0  0  0
    2.2042   -3.3417    0.0000 C   0  0  0  0  0  0  0  0  0  0  0  0
    0.1167   -1.2792    0.0000 C   0  0  0  0  0  0  0  0  0  0  0  0
    8.4417   -1.0542    0.0000 C   0  0  0  0  0  0  0  0  0  0  0  0
   -0.6708   -2.7292    0.0000 C   0  0  0  0  0  0  0  0  0  0  0  0
    9.3042   -2.4625    0.0000 C   0  0  0  0  0  0  0  0  0  0  0  0
    4.3042   -2.0500    0.0000 C   0  0  0  0  0  0  0  0  0  0  0  0
    3.6500   -4.1292    0.0000 C   0  0  0  0  0  0  0  0  0  0  0  0
    5.0792   -4.0917    0.0000 C   0  0  0  0  0  0  0  0  0  0  0  0
    4.3750   -4.5167    0.0000 C   0  0  3  0  0  0  0  0  0  0  0  0
    0.5792   -4.1250    0.0000 C   0  0  0  0  0  0  0  0  0  0  0  0
    5.0042   -1.6167    0.0000 C   0  0  0  0  0  0  0  0  0  0  0  0
    3.5792   -1.6625    0.0000 C   0  0  0  0  0  0  0  0  0  0  0  0
   -0.7000   -1.3000    0.0000 C   0  0  0  0  0  0  0  0  0  0  0  0
    9.2667   -1.0292    0.0000 C   0  0  0  0  0  0  0  0  0  0  0  0
    8.1417   -3.9125    0.0000 C   0  0  0  0  0  0  0  0  0  0  0  0
   -1.1000   -2.0250    0.0000 C   0  0  0  0  0  0  0  0  0  0  0  0
    9.7042   -1.7375    0.0000 C   0  0  0  0  0  0  0  0  0  0  0  0
    4.2542   -0.4000    0.0000 C   0  0  0  0  0  0  0  0  0  0  0  0
    3.5500   -0.8375    0.0000 C   0  0  0  0  0  0  0  0  0  0  0  0
    4.9792   -0.7917    0.0000 C   0  0  0  0  0  0  0  0  0  0  0  0
   -1.1333   -0.5917    0.0000 Cl  0  0  0  0  0  0  0  0  0  0  0  0
    9.6542   -0.3042    0.0000 Cl  0  0  0  0  0  0  0  0  0  0  0  0
    4.2292    0.4208    0.0000 O   0  0  0  0  0  0  0  0  0  0  0  0
    4.3917   -5.3417    0.0000 C   0  0  0  0  0  0  0  0  0  0  0  0
    4.9292    0.8583    0.0000 C   0  0  0  0  0  0  0  0  0  0  0  0
   -0.1958   -4.4042    0.0000 C   0  0  0  0  0  0  0  0  0  0  0  0
    7.5417   -4.4792    0.0000 C   0  0  0  0  0  0  0  0  0  0  0  0
   12.7173   -1.1683    0.0000 S   0  0  3  0  0  0  0  0  0  0  0  0
   12.3829   -1.9206    0.0000 C   0  0  0  0  0  0  0  0  0  0  0  0
   13.4697   -1.5027    0.0000 O   0  5  0  0  0  0  0  0  0  0  0  0
   13.0493   -0.4126    0.0000 O   0  0  0  0  0  0  0  0  0  0  0  0
   11.9626   -0.8305    0.0000 O   0  0  0  0  0  0  0  0  0  0  0  0
   12.8723   -2.5951    0.0000 C   0  0  0  0  0  0  0  0  0  0  0  0
   11.5640   -2.0052    0.0000 C   0  0  0  0  0  0  0  0  0  0  0  0
   12.5379   -3.3474    0.0000 C   0  0  0  0  0  0  0  0  0  0  0  0
   11.2344   -2.7642    0.0000 C   0  0  0  0  0  0  0  0  0  0  0  0
   11.7190   -3.4319    0.0000 C   0  0  0  0  0  0  0  0  0  0  0  0
   11.3812   -4.1867    0.0000 C   0  0  0  0  0  0  0  0  0  0  0  0
 13  4  1  0  0  0  0
 14 15  1  0  0  0  0
 15  6  2  0  0  0  0
 16 17  2  0  0  0  0
 17  3  1  0  0  0  0
 18 11  2  0  0  0  0
 19 12  1  0  0  0  0
 20  9  2  0  0  0  0
 21 13  1  0  0  0  0
 22 10  1  0  0  0  0
 23  5  1  0  0  0  0
 24 25  1  0  0  0  0
 25 23  1  0  0  0  0
 26  1  1  0  0  0  0
 27 22  2  0  0  0  0
 28 22  1  0  0  0  0
 29 32  2  0  0  0  0
 30 19  2  0  0  0  0
 31  4  1  0  0  0  0
 32 20  1  0  0  0  0
 33 21  2  0  0  0  0
 34 35  1  0  0  0  0
 35 28  2  0  0  0  0
 36 27  1  0  0  0  0
 37 29  1  0  0  0  0
 38 30  1  0  0  0  0
 39 34  1  0  0  0  0
 40 25  1  0  0  0  0
 41 39  1  0  0  0  0
 42 26  1  0  0  0  0
 43 31  1  0  0  0  0
  8 11  1  0  0  0  0
 18 29  1  0  0  0  0
 24  6  1  0  0  0  0
 34 36  2  0  0  0  0
 12 13  2  0  0  0  0
 33 30  1  0  0  0  0
  2 14  2  0  0  0  0
  3  1  2  0  0  0  0
  4  2  1  0  0  0  0
  5 16  1  0  0  0  0
  6 10  1  0  0  0  0
  7  2  1  0  0  0  0
  8  3  1  0  0  0  0
  9  1  1  0  0  0  0
 10  5  2  0  0  0  0
 11  9  1  0  0  0  0
 12  7  1  0  0  0  0
 45 44  1  0  0  0  0
 46 44  1  0  0  0  0
 47 44  2  0  0  0  0
 48 44  2  0  0  0  0
 49 45  1  0  0  0  0
 50 45  2  0  0  0  0
 51 49  2  0  0  0  0
 52 50  1  0  0  0  0
 53 52  2  0  0  0  0
 54 53  1  0  0  0  0
 53 51  1  0  0  0  0
M  CHG  2   1   1  46  -1
M  END
> <IDNUMBER>
F9995-0829

> <Chemical_Name>
6-chloro-2-[(E)-2-[(3E)-3-{2-[(2Z)-6-chloro-3-ethyl-2,3-dihydro-1,3-benzothiazol-2-ylidene]ethylidene}-2-(4-methoxyphenyl)-5-methylcyclohex-1-en-1-yl]ethenyl]-3-ethyl-1,3-benzothiazol-3-ium 4-methylbenzene-1-sulfonate

> <CAS>


> <PriceCoeff>
1.00

> <MW>
646.71

> <Description>
solid

> <FSP3>
0.25

> <clogP>
9.21

> <TPSA>
69.89

> <Acceptor>
2

> <Donor>
1

> <RotBonds>
7

> <HAC>
43

> <Collection>
General

> <Reference_compound>
PRI5741

> <Similarity>
0.8100

$$$$
F6440-4280
  MOLSOFT 10261716012D

 25 28  0  0  0  0  0  0  0  0999 V2000
    0.0000    0.0000    0.0000 O   0  0  0
    0.3130   -1.4680    0.0000 C   0  0  0
    1.6600   -2.0570    0.0000 N   0  0  0
   -0.6980   -2.5870    0.0000 C   0  0  0
    1.4920   -3.5490    0.0000 C   0  0  0
    2.9230   -1.2870    0.0000 C   0  0  0
    0.0360   -3.8740    0.0000 C   0  0  0
    2.6110   -4.5600    0.0000 O   0  0  0
    2.9110    0.2040    0.0000 C   0  0  0
    1.5880    0.9500    0.0000 O   0  0  0
    4.2110    0.9500    0.0000 N   0  0  0
    4.1990    2.4900    0.0000 C   0  0  0
    5.4740    3.2600    0.0000 C   0  0  0
    5.6180    4.7640    0.0000 N   0  0  0
    6.8450    2.6710    0.0000 C   0  0  0
    7.0740    5.1010    0.0000 N   0  0  0
    7.8440    3.8140    0.0000 C   0  0  0
    7.6750    6.5090    0.0000 C   0  0  0
    9.3120    3.6690    0.0000 C   0  0  0
    9.1190    6.8570    0.0000 C   0  0  0
    6.8930    7.8080    0.0000 C   0  0  0
   10.6830    4.3070    0.0000 C   0  0  0
   10.5270    2.8150    0.0000 C   0  0  0
    9.2390    8.3610    0.0000 C   0  0  0
    7.8800    8.9510    0.0000 C   0  0  0
  1  2  2
  2  3  1
  2  4  1
  3  5  1
  3  6  1
  4  7  1
  5  8  2
  6  9  1
  9 10  2
  9 11  1
 11 12  1
 12 13  1
 13 14  2
 13 15  1
 14 16  1
 15 17  2
 16 18  1
 17 19  1
 18 20  1
 18 21  1
 19 22  1
 19 23  1
 20 24  1
 21 25  1
  5  7  1
 16 17  1
 22 23  1
 24 25  1
M  END
> <Acceptor>
4

> <CAS>
1448063-12-4

> <Chemical_Name>
N-((1-cyclopentyl-5-cyclopropyl-1H-pyrazol-3-yl)methyl)-2-(2,5-dioxopyrrolidin-1-yl)acetamide

> <Collection>
General

> <Description>
solid

> <Donor>
1

> <FSP3>
0.67

> <HAC>
25

> <IDNUMBER>
F6440-4280

> <MW>
344.41

> <PriceCoeff>
1.

> <RotBonds>
6

> <TPSA>
84.3

> <clogP>
0.94

$$$$
F6473-3530
  MOLSOFT 10261716012D

 21 23  0  0  0  0  0  0  0  0999 V2000
    0.0000    0.0000    0.0000 O   0  0  0
   -0.3240    1.4770    0.0000 C   0  0  0
   -1.7050    2.1010    0.0000 N   0  0  0
    0.6600    2.6050    0.0000 C   0  0  0
   -1.5610    3.5900    0.0000 C   0  0  0
   -3.0370    1.3570    0.0000 C   0  0  0
   -0.1080    3.9140    0.0000 C   0  0  0
   -2.7010    4.5980    0.0000 O   0  0  0
   -3.4340   -0.0720    0.0000 C   0  0  0
   -4.4780    1.7530    0.0000 C   0  0  0
   -4.8740    0.3240    0.0000 N   0  0  0
   -6.1830   -0.4080    0.0000 C   0  0  0
   -7.5150    0.3240    0.0000 O   0  0  0
   -6.2190   -1.8850    0.0000 C   0  0  0
   -7.5510   -2.6050    0.0000 C   0  0  0
   -7.5640   -4.1180    0.0000 C   0  0  0
   -8.8240   -1.8610    0.0000 C   0  0  0
   -8.8480   -4.8500    0.0000 C   0  0  0
  -10.1450   -2.6050    0.0000 C   0  0  0
  -10.1570   -4.0700    0.0000 C   0  0  0
   -8.8840   -6.3390    0.0000 C   0  0  0
  1  2  2
  2  3  1
  2  4  1
  3  5  1
  3  6  1
  4  7  1
  5  8  2
  6  9  1
  6 10  1
  9 11  1
 11 12  1
 12 13  2
 12 14  1
 14 15  1
 15 16  2
 15 17  1
 16 18  1
 17 19  2
 18 20  2
 18 21  1
  5  7  1
 10 11  1
 19 20  1
M  END
> <Acceptor>
3

> <CAS>
1795303-68-2

> <Chemical_Name>
1-(1-(2-(m-tolyl)acetyl)azetidin-3-yl)pyrrolidine-2,5-dione

> <Collection>
Advanced

> <Description>
solid

> <Donor>
0

> <FSP3>
0.44

> <HAC>
21

> <IDNUMBER>
F6473-3530

> <MW>
286.33

> <PriceCoeff>
1.5

> <RotBonds>
4

> <TPSA>
57.69

> <clogP>
1.23

$$$$
F6400-0640
  MOLSOFT 10261716012D

 23 25  0  0  0  0  0  0  0  0999 V2000
    0.0000    0.0000    0.0000 S   0  0  0
   -1.4910    0.2640    0.0000 C   0  0  0
    0.7450   -1.2870    0.0000 C   0  0  0
   -2.5970   -0.7700    0.0000 C   0  0  3
    0.1920   -2.6570    0.0000 C   0  0  0
   -2.5130   -2.2610    0.0000 N   0  0  0
   -4.0040   -0.2160    0.0000 C   0  0  0
   -1.2500   -3.0900    0.0000 C   0  0  0
   -3.8240   -2.9820    0.0000 C   0  0  0
   -3.5590    1.2140    0.0000 N   0  0  0
   -5.0500   -2.4410    0.0000 O   0  0  0
   -3.9920   -4.4610    0.0000 C   0  0  0
   -4.9060    1.8880    0.0000 C   0  0  0
   -2.5130    2.2730    0.0000 C   0  0  0
   -5.3990   -5.0620    0.0000 N   0  0  0
   -4.6890    3.4030    0.0000 C   0  0  0
   -3.1860    3.6070    0.0000 C   0  0  0
   -5.7360   -6.5050    0.0000 C   0  0  0
   -6.7090   -4.2810    0.0000 C   0  0  0
   -4.7500   -7.6350    0.0000 O   0  0  0
   -7.2510   -6.6490    0.0000 C   0  0  0
   -6.8780   -2.7410    0.0000 O   0  0  0
   -7.8520   -5.2670    0.0000 C   0  0  0
  1  2  1
  1  3  1
  4  2  1
  3  5  1
  4  6  1
  4  7  1
  5  8  1
  6  9  1
  7 10  1
  9 11  2
  9 12  1
 10 13  1
 10 14  1
 12 15  1
 13 16  1
 14 17  1
 15 18  1
 15 19  1
 18 20  2
 18 21  1
 19 22  2
 19 23  1
  6  8  1
 16 17  1
 21 23  1
M  END
> <Acceptor>
3

> <CAS>
1421460-12-9

> <Chemical_Name>
1-(2-oxo-2-(3-(pyrrolidin-1-ylmethyl)-1,4-thiazepan-4-yl)ethyl)pyrrolidine-2,5-dione

> <Collection>
Advanced

> <Description>
oil

> <Donor>
1

> <FSP3>
0.81

> <HAC>
23

> <IDNUMBER>
F6400-0640

> <MW>
339.45

> <PriceCoeff>
1.5

> <RotBonds>
5

> <TPSA>
86.23

> <clogP>
0.94

$$$$
F5857-5345
  MOLSOFT 10261716012D

 22 24  0  0  0  0  0  0  0  0999 V2000
    0.0000    0.0000    0.0000 O   0  0  0
   -1.1250    1.0300    0.0000 C   0  0  0
   -0.9940    2.5340    0.0000 N   0  0  0
   -2.5930    0.7220    0.0000 C   0  0  0
   -2.3560    3.1370    0.0000 C   0  0  0
    0.2840    3.3030    0.0000 C   0  0  0
   -3.3500    2.0240    0.0000 C   0  0  0
   -2.6870    4.6170    0.0000 O   0  0  0
    0.2720    4.7830    0.0000 C   0  0  0
   -1.0540    5.5410    0.0000 O   0  0  0
    1.5510    5.5410    0.0000 N   0  0  0
    1.5390    7.0560    0.0000 C   0  0  0
    2.8180    7.7900    0.0000 C   0  0  3
    4.0730    7.0800    0.0000 O   0  0  0
    4.0250    8.6900    0.0000 C   0  0  0
    1.5860    8.7020    0.0000 C   0  0  0
    3.5400   10.1340    0.0000 C   0  0  0
    5.4700    8.3820    0.0000 C   0  0  0
    2.0480   10.1220    0.0000 C   0  0  0
    4.5460   11.2590    0.0000 C   0  0  0
    6.4760    9.5070    0.0000 C   0  0  0
    5.9910   10.9510    0.0000 C   0  0  0
  1  2  2
  2  3  1
  2  4  1
  3  5  1
  3  6  1
  4  7  1
  5  8  2
  6  9  1
  9 10  2
  9 11  1
 11 12  1
 13 12  1
 13 14  1
 13 15  1
 13 16  1
 15 17  2
 15 18  1
 16 19  1
 17 20  1
 18 21  2
 20 22  2
  5  7  1
 17 19  1
 21 22  1
M  END
> <Acceptor>
4

> <CAS>
1396799-45-3

> <Chemical_Name>
2-(2,5-dioxopyrrolidin-1-yl)-N-((1-hydroxy-2,3-dihydro-1H-inden-1-yl)methyl)acetamide

> <Collection>
General

> <Description>
solid

> <Donor>
2

> <FSP3>
0.44

> <HAC>
22

> <IDNUMBER>
F5857-5345

> <MW>
302.33

> <PriceCoeff>
1.

> <RotBonds>
4

> <TPSA>
86.71

> <clogP>
0.62

$$$$
F3115-0061
  MOLSOFT 10261716012D

 26 29  0  0  0  0  0  0  0  0999 V2000
    0.0000    0.0000    0.0000 O   0  0  0
    0.4600    1.4380    0.0000 C   0  0  0
   -0.4480    2.6650    0.0000 N   0  0  0
    1.8630    1.9220    0.0000 C   0  0  3
   -1.9570    2.6650    0.0000 C   0  0  0
    0.4240    3.8910    0.0000 C   0  0  0
    3.0660    1.0610    0.0000 C   0  0  3
    1.8510    3.4310    0.0000 C   0  0  0
   -2.7120    3.9740    0.0000 C   0  0  0
   -2.7000    1.3800    0.0000 C   0  0  0
   -0.0590    5.3300    0.0000 O   0  0  0
    4.3980    1.6980    0.0000 C   0  0  0
    2.9010   -0.4130    0.0000 C   0  0  0
   -4.2210    3.9850    0.0000 C   0  0  0
   -4.2090    1.3800    0.0000 C   0  0  0
    4.5400    3.1950    0.0000 N   0  0  0
    5.6130    0.8250    0.0000 C   0  0  0
    4.1030   -1.2730    0.0000 C   0  0  0
   -4.9640    2.6880    0.0000 C   0  0  0
    5.8840    3.8200    0.0000 C   0  0  0
    3.3020    4.0800    0.0000 C   0  0  0
    5.4480   -0.6480    0.0000 C   0  0  0
   -6.4730    2.6880    0.0000 C   0  0  0
    6.0250    5.3180    0.0000 C   0  0  0
    3.4430    5.5770    0.0000 C   0  0  0
    4.7870    6.2140    0.0000 O   0  0  0
  1  2  2
  2  3  1
  4  2  1
  3  5  1
  3  6  1
  4  7  1
  4  8  1
  5  9  2
  5 10  1
  6 11  2
  7 12  1
  7 13  1
  9 14  1
 10 15  2
 12 16  1
 12 17  2
 13 18  1
 14 19  2
 16 20  1
 16 21  1
 17 22  1
 19 23  1
 20 24  1
 21 25  1
 24 26  1
  6  8  1
 15 19  1
 18 22  1
 25 26  1
M  END
> <Acceptor>
3

> <CAS>
857494-33-8

> <Chemical_Name>
3-(2-morpholinocyclohex-2-en-1-yl)-1-(p-tolyl)pyrrolidine-2,5-dione

> <Collection>
Advanced

> <Description>
solid

> <Donor>
1

> <FSP3>
0.52

> <HAC>
26

> <IDNUMBER>
F3115-0061

> <MW>
354.44

> <PriceCoeff>
1.5

> <RotBonds>
3

> <TPSA>
49.85

> <clogP>
1.95

$$$$
F1065-0368
  MOLSOFT 10261716012D

 22 24  0  0  0  0  0  0  0  0999 V2000
    0.0000    0.0000    0.0000 O   0  0  0
    0.3860    1.4590    0.0000 C   0  0  0
   -0.4580    2.6410    0.0000 N   0  0  0
    1.8090    1.9060    0.0000 C   0  0  3
   -2.0020    2.5690    0.0000 C   0  0  0
    0.3980    3.8600    0.0000 C   0  0  0
    2.9910    1.0010    0.0000 N   0  0  0
    1.7970    3.4130    0.0000 C   0  0  0
   -2.8220    3.8480    0.0000 C   0  0  0
   -2.6780    1.3150    0.0000 C   0  0  0
   -0.0360    5.3310    0.0000 O   0  0  0
    2.7740   -0.4460    0.0000 C   0  0  0
    4.3780    1.5800    0.0000 C   0  0  0
   -4.3180    3.8110    0.0000 C   0  0  0
   -4.2220    1.2420    0.0000 C   0  0  0
    3.9800   -1.3630    0.0000 C   0  0  0
    5.5850    0.7240    0.0000 C   0  0  0
   -5.0420    2.4970    0.0000 C   0  0  0
    5.3670   -0.7840    0.0000 C   0  0  0
   -6.5370    2.4240    0.0000 O   0  0  0
    6.5740   -1.6640    0.0000 C   0  0  0
   -7.4300    3.6910    0.0000 C   0  0  0
  1  2  2
  2  3  1
  4  2  1
  3  5  1
  3  6  1
  4  7  1
  4  8  1
  5  9  2
  5 10  1
  6 11  2
  7 12  1
  7 13  1
  9 14  1
 10 15  2
 12 16  1
 13 17  1
 14 18  2
 16 19  1
 18 20  1
 19 21  1
 20 22  1
  6  8  1
 15 18  1
 17 19  1
M  END
> <Acceptor>
3

> <CAS>
299408-30-3

> <Chemical_Name>
1-(4-methoxyphenyl)-3-(4-methylpiperidin-1-yl)pyrrolidine-2,5-dione

> <Collection>
Advanced

> <Description>
solid

> <Donor>
1

> <FSP3>
0.53

> <HAC>
22

> <IDNUMBER>
F1065-0368

> <MW>
302.37

> <PriceCoeff>
1.5

> <RotBonds>
3

> <TPSA>
49.85

> <clogP>
2.97

$$$$
F3205-0010
  MOLSOFT 10261716012D

 25 28  0  0  0  0  0  0  0  0999 V2000
    0.0000    0.0000    0.0000 O   0  0  0
    0.4480    1.4370    0.0000 C   0  0  0
   -0.4590    2.6630    0.0000 N   0  0  0
    1.8620    1.9200    0.0000 C   0  0  3
   -1.9560    2.6630    0.0000 C   0  0  0
    0.4010    3.8880    0.0000 C   0  0  0
    3.0630    1.0600    0.0000 C   0  0  3
    1.8380    3.4290    0.0000 C   0  0  0
   -2.6980    1.3780    0.0000 C   0  0  0
   -2.7100    3.9710    0.0000 C   0  0  0
   -0.0710    5.3250    0.0000 O   0  0  0
    4.4060    1.6850    0.0000 C   0  0  0
    2.8980   -0.4240    0.0000 C   0  0  0
   -4.2060    1.3670    0.0000 C   0  0  0
   -4.2180    3.9710    0.0000 C   0  0  0
    4.5480    3.1810    0.0000 N   0  0  0
    5.6080    0.8250    0.0000 C   0  0  0
    4.0880   -1.2840    0.0000 C   0  0  0
   -4.9840    2.6740    0.0000 C   0  0  0
    3.3220    4.0650    0.0000 C   0  0  0
    5.9030    3.8060    0.0000 C   0  0  0
    5.4550   -0.6600    0.0000 C   0  0  0
    3.4640    5.5730    0.0000 C   0  0  0
    6.0440    5.3020    0.0000 C   0  0  0
    4.8310    6.1860    0.0000 C   0  0  0
  1  2  2
  2  3  1
  4  2  1
  3  5  1
  3  6  1
  4  7  1
  4  8  1
  5  9  2
  5 10  1
  6 11  2
  7 12  1
  7 13  1
  9 14  1
 10 15  2
 12 16  1
 12 17  2
 13 18  1
 14 19  2
 16 20  1
 16 21  1
 17 22  1
 20 23  1
 21 24  1
 23 25  1
  6  8  1
 15 19  1
 18 22  1
 24 25  1
M  END
> <Acceptor>
2

> <CAS>
881482-81-1

> <Chemical_Name>
1-phenyl-3-(2-(piperidin-1-yl)cyclohex-2-en-1-yl)pyrrolidine-2,5-dione

> <Collection>
Advanced

> <Description>
solid

> <Donor>
1

> <FSP3>
0.52

> <HAC>
25

> <IDNUMBER>
F3205-0010

> <MW>
338.44

> <PriceCoeff>
1.5

> <RotBonds>
3

> <TPSA>
40.62

> <clogP>
2.96

$$$$
F3188-0100
  MOLSOFT 10261716012D

 27 30  0  0  0  0  0  0  0  0999 V2000
    0.0000    0.0000    0.0000 O   0  0  0
    0.4360    1.4390    0.0000 C   0  0  0
   -0.4600    2.6540    0.0000 N   0  0  0
    1.8400    1.9230    0.0000 C   0  0  3
   -1.9580    2.6420    0.0000 C   0  0  0
    0.4010    3.8810    0.0000 C   0  0  0
    3.0550    1.0620    0.0000 C   0  0  3
    1.8280    3.4210    0.0000 C   0  0  0
   -2.7250    3.9510    0.0000 C   0  0  0
   -2.7010    1.3560    0.0000 C   0  0  0
   -0.0830    5.3200    0.0000 O   0  0  0
    4.4000    1.6990    0.0000 C   0  0  0
    2.8900   -0.4130    0.0000 C   0  0  0
   -4.2350    3.9630    0.0000 C   0  0  0
   -4.2110    1.3450    0.0000 C   0  0  0
    4.5290    3.2080    0.0000 N   0  0  0
    5.6030    0.8370    0.0000 C   0  0  0
    4.0930   -1.2620    0.0000 C   0  0  0
   -4.9890    2.6660    0.0000 C   0  0  0
   -5.0130    5.2730    0.0000 C   0  0  0
   -4.9660    0.0590    0.0000 C   0  0  0
    5.8740    3.8340    0.0000 C   0  0  0
    3.2910    4.0810    0.0000 C   0  0  0
    5.4500   -0.6370    0.0000 C   0  0  0
    6.0040    5.3320    0.0000 C   0  0  0
    3.4320    5.5910    0.0000 C   0  0  0
    4.7770    6.2160    0.0000 O   0  0  0
  1  2  2
  2  3  1
  4  2  1
  3  5  1
  3  6  1
  4  7  1
  4  8  1
  5  9  2
  5 10  1
  6 11  2
  7 12  1
  7 13  1
  9 14  1
 10 15  2
 12 16  1
 12 17  2
 13 18  1
 14 19  2
 14 20  1
 15 21  1
 16 22  1
 16 23  1
 17 24  1
 22 25  1
 23 26  1
 25 27  1
  6  8  1
 15 19  1
 18 24  1
 26 27  1
M  END
> <Acceptor>
3

> <CAS>
887847-34-9

> <Chemical_Name>
1-(3,5-dimethylphenyl)-3-(2-morpholinocyclohex-2-en-1-yl)pyrrolidine-2,5-dione

> <Collection>
Advanced

> <Description>
solid

> <Donor>
1

> <FSP3>
0.55

> <HAC>
27

> <IDNUMBER>
F3188-0100

> <MW>
368.47

> <PriceCoeff>
1.5

> <RotBonds>
3

> <TPSA>
49.85

> <clogP>
2.45

$$$$
F3023-0417
  MOLSOFT 10261716012D

 21 22  0  0  0  0  0  0  0  0999 V2000
    0.0000    0.0000    0.0000 O   0  0  0
   -0.4550    1.4230    0.0000 C   0  0  0
    0.4200    2.6480    0.0000 N   0  0  0
   -1.9010    1.9250    0.0000 C   0  0  3
   -0.4780    3.8610    0.0000 C   0  0  0
    1.8900    2.6480    0.0000 C   0  0  0
   -3.1030    1.0500    0.0000 N   0  0  0
   -1.9010    3.4180    0.0000 C   0  0  0
   -0.0230    5.2960    0.0000 O   0  0  0
   -4.4790    1.6800    0.0000 C   0  0  0
   -5.7040    0.8160    0.0000 C   0  0  0
   -7.0690    1.4460    0.0000 C   0  0  0
   -8.2820    0.5830    0.0000 C   0  0  0
   -7.2320    2.9390    0.0000 C   0  0  0
   -9.6580    1.2130    0.0000 C   0  0  0
   -8.5970    3.5580    0.0000 C   0  0  0
  -10.8600    0.3380    0.0000 O   0  0  0
   -9.8100    2.7060    0.0000 C   0  0  0
  -12.2360    0.9680    0.0000 C   0  0  0
  -11.1860    3.3360    0.0000 O   0  0  0
  -11.3380    4.8290    0.0000 C   0  0  0
  1  2  2
  2  3  1
  4  2  1
  3  5  1
  3  6  1
  4  7  1
  4  8  1
  5  9  2
  7 10  1
 10 11  1
 11 12  1
 12 13  2
 12 14  1
 13 15  1
 14 16  2
 15 17  1
 15 18  2
 17 19  1
 18 20  1
 20 21  1
  5  8  1
 16 18  1
M  END
> <Acceptor>
4

> <CAS>
1008695-66-6

> <Chemical_Name>
3-((3,4-dimethoxyphenethyl)amino)-1-methylpyrrolidine-2,5-dione

> <Collection>
Advanced

> <Description>
solid

> <Donor>
1

> <FSP3>
0.47

> <HAC>
21

> <IDNUMBER>
F3023-0417

> <MW>
292.33

> <PriceCoeff>
1.5

> <RotBonds>
6

> <TPSA>
67.87

> <clogP>
1.87

$$$$
F3325-0021
  MOLSOFT 10261716012D

 25 27  0  0  0  0  0  0  0  0999 V2000
    0.0000    0.0000    0.0000 O   0  0  0
    0.4490    1.4430    0.0000 C   0  0  0
   -0.4490    2.6610    0.0000 N   0  0  0
    1.8690    1.9280    0.0000 C   0  0  3
   -1.9630    2.6730    0.0000 C   0  0  0
    0.4260    3.8910    0.0000 C   0  0  0
    3.0630    1.0530    0.0000 N   0  0  0
    1.8570    3.4420    0.0000 C   0  0  0
   -2.7200    3.9860    0.0000 C   0  0  0
   -2.7200    1.4070    0.0000 C   0  0  0
   -0.0350    5.3340    0.0000 O   0  0  0
    4.4120    1.6790    0.0000 C   0  0  0
    2.8980   -0.4260    0.0000 C   0  0  0
   -1.9750    5.3100    0.0000 O   0  0  0
   -4.2100    3.9980    0.0000 C   0  0  0
   -4.2100    1.4190    0.0000 C   0  0  0
    5.6180    0.7920    0.0000 C   0  0  0
    4.0920   -1.3010    0.0000 C   0  0  0
   -2.7320    6.6230    0.0000 C   0  0  0
   -4.9560    2.7320    0.0000 C   0  0  0
    5.4520   -0.6860    0.0000 N   0  0  0
   -4.2460    6.6350    0.0000 C   0  0  0
    6.6470   -1.5610    0.0000 C   0  0  0
   -5.0030    7.9480    0.0000 C   0  0  0
   -6.5170    7.9600    0.0000 C   0  0  0
  1  2  2
  2  3  1
  4  2  1
  3  5  1
  3  6  1
  4  7  1
  4  8  1
  5  9  2
  5 10  1
  6 11  2
  7 12  1
  7 13  1
  9 14  1
  9 15  1
 10 16  2
 12 17  1
 13 18  1
 14 19  1
 15 20  2
 17 21  1
 19 22  1
 21 23  1
 22 24  1
 24 25  1
  6  8  1
 16 20  1
 18 21  1
M  END
> <Acceptor>
5

> <CAS>
881484-53-3

> <Chemical_Name>
1-(2-butoxyphenyl)-3-(4-methylpiperazin-1-yl)pyrrolidine-2,5-dione

> <Collection>
General

> <Description>
solid

> <Donor>
2

> <FSP3>
0.58

> <HAC>
25

> <IDNUMBER>
F3325-0021

> <MW>
345.44

> <PriceCoeff>
1.

> <RotBonds>
6

> <TPSA>
53.09

> <clogP>
1.9

$$$$
F3205-0014
  MOLSOFT 10261716012D

 27 30  0  0  0  0  0  0  0  0999 V2000
    0.0000    0.0000    0.0000 O   0  0  0
    0.4480    1.4370    0.0000 C   0  0  0
   -0.4590    2.6620    0.0000 N   0  0  0
    1.8610    1.9200    0.0000 C   0  0  3
   -1.9560    2.6620    0.0000 C   0  0  0
    0.4000    3.8880    0.0000 C   0  0  0
    3.0630    1.0600    0.0000 C   0  0  3
    1.8380    3.4280    0.0000 C   0  0  0
   -2.7100    3.9700    0.0000 C   0  0  0
   -2.6980    1.3780    0.0000 C   0  0  0
   -0.0710    5.3250    0.0000 O   0  0  0
    4.4060    1.6850    0.0000 C   0  0  0
    2.8980   -0.4240    0.0000 C   0  0  0
   -4.2180    3.9700    0.0000 C   0  0  0
   -4.2060    1.3670    0.0000 C   0  0  0
    4.5470    3.1810    0.0000 N   0  0  0
    5.6080    0.8250    0.0000 C   0  0  0
    4.0880   -1.2840    0.0000 C   0  0  0
   -4.9710    2.6860    0.0000 C   0  0  0
    5.9020    3.8050    0.0000 C   0  0  0
    3.3220    4.0640    0.0000 C   0  0  0
    5.4540   -0.6600    0.0000 C   0  0  0
   -6.4790    2.6860    0.0000 O   0  0  0
    6.0440    5.3010    0.0000 C   0  0  0
    3.4640    5.5720    0.0000 C   0  0  0
   -7.2330    3.9940    0.0000 C   0  0  0
    4.8180    6.1850    0.0000 C   0  0  0
  1  2  2
  2  3  1
  4  2  1
  3  5  1
  3  6  1
  4  7  1
  4  8  1
  5  9  2
  5 10  1
  6 11  2
  7 12  1
  7 13  1
  9 14  1
 10 15  2
 12 16  1
 12 17  2
 13 18  1
 14 19  2
 16 20  1
 16 21  1
 17 22  1
 19 23  1
 20 24  1
 21 25  1
 23 26  1
 24 27  1
  6  8  1
 15 19  1
 18 22  1
 25 27  1
M  END
> <Acceptor>
3

> <CAS>
881482-89-9

> <Chemical_Name>
1-(4-methoxyphenyl)-3-(2-(piperidin-1-yl)cyclohex-2-en-1-yl)pyrrolidine-2,5-dione

> <Collection>
Advanced

> <Description>
solid

> <Donor>
1

> <FSP3>
0.55

> <HAC>
27

> <IDNUMBER>
F3205-0014

> <MW>
368.47

> <PriceCoeff>
1.5

> <RotBonds>
4

> <TPSA>
49.85

> <clogP>
3.05

$$$$
F5823-0721
  MOLSOFT 10261716012D

 25 27  0  0  0  0  0  0  0  0999 V2000
    0.0000    0.0000    0.0000 S   0  0  0
    0.7010   -1.2950    0.0000 O   0  0  0
   -0.3800    1.4730    0.0000 O   0  0  0
    1.2950    0.7490    0.0000 N   0  0  0
   -1.3430   -0.7010    0.0000 C   0  0  0
    2.5900    0.0240    0.0000 C   0  0  0
    1.2830    2.2690    0.0000 C   0  0  0
   -2.6140    0.0830    0.0000 C   0  0  0
    3.8850    0.7840    0.0000 C   0  0  0
    2.5900    3.0420    0.0000 C   0  0  0
   -3.9690   -0.6300    0.0000 N   0  0  0
    3.8740    2.2930    0.0000 C   0  0  0
   -4.0040   -2.1150    0.0000 C   0  0  0
   -5.2280    0.1780    0.0000 C   0  0  0
    5.1920    3.0660    0.0000 C   0  0  0
   -2.7330   -2.8990    0.0000 O   0  0  0
   -5.3230   -2.8400    0.0000 C   0  0  0
   -5.2160    1.6630    0.0000 O   0  0  0
   -6.5590   -0.5470    0.0000 C   0  0  0
    6.4640    2.3170    0.0000 N   0  0  0
   -6.5950   -2.0560    0.0000 C   0  0  0
    7.8420    2.9590    0.0000 N   0  0  0
    6.6300    0.8550    0.0000 C   0  0  0
    8.8400    1.8540    0.0000 C   0  0  0
    8.0800    0.5580    0.0000 C   0  0  0
  1  2  2
  1  3  2
  1  4  1
  1  5  1
  4  6  1
  4  7  1
  5  8  1
  6  9  1
  7 10  1
  8 11  1
  9 12  1
 11 13  1
 11 14  1
 12 15  1
 13 16  2
 13 17  1
 14 18  2
 14 19  1
 15 20  1
 17 21  1
 20 22  1
 20 23  1
 22 24  2
 23 25  2
 10 12  1
 19 21  1
 24 25  1
M  END
> <Acceptor>
5

> <CAS>
1421467-83-5

> <Chemical_Name>
1-(2-((4-((1H-pyrazol-1-yl)methyl)piperidin-1-yl)sulfonyl)ethyl)piperidine-2,6-dione

> <Collection>
General

> <Description>
solid

> <Donor>
0

> <FSP3>
0.69

> <HAC>
25

> <IDNUMBER>
F5823-0721

> <MW>
368.45

> <PriceCoeff>
1.

> <RotBonds>
6

> <TPSA>
100.96

> <clogP>
0.65

$$$$
F3238-0138
  MOLSOFT 10261716012D

 17 18  0  0  0  0  0  0  0  0999 V2000
    0.0000    0.0000    0.0000 Br  0  0  0
   -1.2340   -0.8420    0.0000 C   0  0  0
   -1.2700   -2.3380    0.0000 C   0  0  0
   -2.6700   -0.3560    0.0000 C   0  0  0
   -2.7060   -2.7770    0.0000 N   0  0  0
   -0.0710   -3.2280    0.0000 C   0  0  0
   -3.5720   -1.5430    0.0000 N   0  0  0
   -3.1330    1.0800    0.0000 C   0  0  0
   -5.0670   -1.5070    0.0000 S   0  0  0
   -5.0670    0.0000    0.0000 O   0  0  0
   -5.1030   -2.9900    0.0000 O   0  0  0
   -6.5740   -1.4830    0.0000 N   0  0  0
   -7.3450   -2.7410    0.0000 C   0  0  0
   -7.3330   -0.1660    0.0000 C   0  0  0
   -8.8640   -2.7170    0.0000 C   0  0  0
   -8.8170   -0.1300    0.0000 C   0  0  0
   -9.6000   -1.4000    0.0000 O   0  0  0
  1  2  1
  2  3  1
  2  4  2
  3  5  2
  3  6  1
  4  7  1
  4  8  1
  7  9  1
  9 10  2
  9 11  2
  9 12  1
 12 13  1
 12 14  1
 13 15  1
 14 16  1
 15 17  1
  5  7  1
 16 17  1
M  END
> <Acceptor>
4

> <CAS>
890604-60-1

> <Chemical_Name>
4-((4-bromo-3,5-dimethyl-1H-pyrazol-1-yl)sulfonyl)morpholine

> <Collection>
General

> <Description>
solid

> <Donor>
0

> <FSP3>
0.67

> <HAC>
17

> <IDNUMBER>
F3238-0138

> <MW>
324.19

> <PriceCoeff>
1.

> <RotBonds>
2

> <TPSA>
72.81

> <clogP>
1.57

$$$$
F6089-7965
  MOLSOFT 10261716012D

 21 22  0  0  0  0  0  0  0  0999 V2000
    0.0000    0.0000    0.0000 S   0  0  0
    0.7530   -1.2440    0.0000 O   0  0  0
   -0.7770    1.2920    0.0000 O   0  0  0
    1.2920    0.7650    0.0000 N   0  0  0
   -1.2920   -0.7410    0.0000 C   0  0  0
    1.2800    2.2840    0.0000 C   0  0  0
   -2.6070    0.0000    0.0000 C   0  0  0
    2.5710    3.0500    0.0000 C   0  0  0
   -3.9110   -0.7530    0.0000 N   0  0  0
    3.8510    2.3080    0.0000 O   0  0  0
    1.3390    3.9470    0.0000 C   0  0  0
    3.7550    3.9470    0.0000 C   0  0  0
   -3.8990   -2.2600    0.0000 C   0  0  0
   -5.2390   -0.0120    0.0000 C   0  0  0
    1.8060    5.3820    0.0000 C   0  0  0
    3.2890    5.3820    0.0000 C   0  0  0
   -2.6070   -2.9780    0.0000 O   0  0  0
   -5.1790   -3.0140    0.0000 C   0  0  0
   -5.2980    1.4830    0.0000 O   0  0  0
   -6.5420   -0.7890    0.0000 C   0  0  0
   -6.5060   -2.2960    0.0000 C   0  0  0
  1  2  2
  1  3  2
  1  4  1
  1  5  1
  4  6  1
  5  7  1
  6  8  1
  7  9  1
  8 10  1
  8 11  1
  8 12  1
  9 13  1
  9 14  1
 11 15  1
 12 16  1
 13 17  2
 13 18  1
 14 19  2
 14 20  1
 18 21  1
 15 16  1
 20 21  1
M  END
> <Acceptor>
5

> <CAS>
1251576-48-3

> <Chemical_Name>
2-(2,6-dioxopiperidin-1-yl)-N-((1-hydroxycyclopentyl)methyl)ethane-1-sulfonamide

> <Collection>
General

> <Description>
oil

> <Donor>
2

> <FSP3>
0.85

> <HAC>
21

> <IDNUMBER>
F6089-7965

> <MW>
318.39

> <PriceCoeff>
1.

> <RotBonds>
6

> <TPSA>
112.16

> <clogP>
0.62

$$$$
F5831-2082
  MOLSOFT 10261716012D

 22 23  0  0  0  0  0  0  0  0999 V2000
    0.0000    0.0000    0.0000 S   0  0  0
    0.7530   -1.2420    0.0000 O   0  0  0
   -0.7760    1.2900    0.0000 O   0  0  0
    1.2900    0.7640    0.0000 N   0  0  0
   -1.2900   -0.7410    0.0000 C   0  0  0
    1.2780    2.2580    0.0000 C   0  0  3
   -2.6040    0.0000    0.0000 C   0  0  0
   -0.0360    3.0340    0.0000 C   0  0  0
    2.5680    3.0220    0.0000 C   0  0  0
   -3.9060   -0.7530    0.0000 N   0  0  0
   -0.0480    4.5270    0.0000 C   0  0  0
   -3.8940   -2.2580    0.0000 C   0  0  0
   -5.2320   -0.0120    0.0000 C   0  0  0
   -1.2540    5.4350    0.0000 O   0  0  0
    1.1590    5.4350    0.0000 C   0  0  0
   -2.6040   -2.9740    0.0000 O   0  0  0
   -5.1720   -3.0100    0.0000 C   0  0  0
   -5.2920    1.4810    0.0000 O   0  0  0
   -6.5340   -0.7880    0.0000 C   0  0  0
   -0.8120    6.8690    0.0000 C   0  0  0
    0.6810    6.8690    0.0000 C   0  0  0
   -6.4980   -2.2930    0.0000 C   0  0  0
  1  2  2
  1  3  2
  1  4  1
  1  5  1
  6  4  1
  5  7  1
  6  8  1
  6  9  1
  7 10  1
  8 11  1
 10 12  1
 10 13  1
 11 14  1
 11 15  2
 12 16  2
 12 17  1
 13 18  2
 13 19  1
 14 20  1
 15 21  1
 17 22  1
 19 22  1
 20 21  2
M  END
> <Acceptor>
5

> <CAS>
1234926-52-3

> <Chemical_Name>
2-(2,6-dioxopiperidin-1-yl)-N-(1-(furan-2-yl)propan-2-yl)ethane-1-sulfonamide

> <Collection>
Advanced

> <Description>
oil

> <Donor>
1

> <FSP3>
0.57

> <HAC>
22

> <IDNUMBER>
F5831-2082

> <MW>
328.38

> <PriceCoeff>
1.5

> <RotBonds>
7

> <TPSA>
105.07

> <clogP>
1.12

$$$$
F5831-3334
  MOLSOFT 10261716012D

 24 26  0  0  0  0  0  0  0  0999 V2000
    0.0000    0.0000    0.0000 S   0  0  0
    0.7570   -1.2500    0.0000 O   0  0  0
   -0.7810    1.2980    0.0000 O   0  0  0
    1.2980    0.7690    0.0000 N   0  0  0
   -1.2980   -0.7450    0.0000 C   0  0  0
    2.6570    0.1800    0.0000 C   0  0  0
    1.4430    2.2720    0.0000 C   0  0  0
   -2.6210    0.0000    0.0000 C   0  0  0
    3.6420    1.2980    0.0000 C   0  0  3
    2.8970    2.6090    0.0000 C   0  0  0
   -3.9310   -0.7570    0.0000 N   0  0  0
    5.1330    1.3100    0.0000 C   0  0  0
   -3.9190   -2.2720    0.0000 C   0  0  0
   -5.2650   -0.0120    0.0000 C   0  0  0
    5.8780    2.6330    0.0000 C   0  0  0
    5.8780    0.0480    0.0000 C   0  0  0
   -2.6210   -2.9930    0.0000 O   0  0  0
   -5.2050   -3.0290    0.0000 C   0  0  0
   -5.3250    1.4910    0.0000 O   0  0  0
   -6.5760   -0.7930    0.0000 C   0  0  0
    7.3570    2.6450    0.0000 C   0  0  0
    7.3690    0.0600    0.0000 C   0  0  0
   -6.5400   -2.3080    0.0000 C   0  0  0
    8.1020    1.3460    0.0000 C   0  0  0
  1  2  2
  1  3  2
  1  4  1
  1  5  1
  4  6  1
  4  7  1
  5  8  1
  9  6  1
  7 10  1
  8 11  1
  9 12  1
 11 13  1
 11 14  1
 12 15  2
 12 16  1
 13 17  2
 13 18  1
 14 19  2
 14 20  1
 15 21  1
 16 22  2
 18 23  1
 21 24  2
  9 10  1
 20 23  1
 22 24  1
M  END
> <Acceptor>
4

> <CAS>
1323326-30-2

> <Chemical_Name>
1-(2-((3-phenylpyrrolidin-1-yl)sulfonyl)ethyl)piperidine-2,6-dione

> <Collection>
General

> <Description>
oil

> <Donor>
0

> <FSP3>
0.53

> <HAC>
24

> <IDNUMBER>
F5831-3334

> <MW>
350.43

> <PriceCoeff>
1.

> <RotBonds>
5

> <TPSA>
83.14

> <clogP>
2.1

$$$$
F3096-1171
  MOLSOFT 10261716012D

 19 20  0  0  0  0  0  0  0  0999 V2000
    0.0000    0.0000    0.0000 Cl  0  0  0
    1.3970    0.6040    0.0000 C   0  0  0
    1.5860    2.1190    0.0000 C   0  0  0
    2.6160   -0.2600    0.0000 C   0  0  0
    0.3790    3.0660    0.0000 Cl  0  0  0
    2.9480    2.7580    0.0000 C   0  0  0
    3.9780    0.3430    0.0000 C   0  0  0
    4.1440    1.8590    0.0000 C   0  0  0
    5.1740   -0.5560    0.0000 N   0  0  0
    4.9490   -2.0010    0.0000 C   0  0  0
    3.5630   -2.5930    0.0000 O   0  0  0
    6.1680   -2.9000    0.0000 N   0  0  0
    7.5060   -2.2970    0.0000 C   0  0  0
    5.9790   -4.3800    0.0000 C   0  0  0
    8.6900   -3.1610    0.0000 C   0  0  3
    7.1740   -5.2680    0.0000 C   0  0  3
    8.5360   -4.6410    0.0000 O   0  0  0
   10.0870   -2.5570    0.0000 C   0  0  0
    6.9850   -6.7600    0.0000 C   0  0  0
  1  2  1
  2  3  2
  2  4  1
  3  5  1
  3  6  1
  4  7  2
  6  8  2
  7  9  1
  9 10  1
 10 11  2
 10 12  1
 12 13  1
 12 14  1
 15 13  1
 16 14  1
 15 17  1
 15 18  1
 16 19  1
  7  8  1
 16 17  1
M  END
> <Acceptor>
2

> <Chemical_Name>
N-(3,4-dichlorophenyl)-2,6-dimethylmorpholine-4-carboxamide

> <Collection>
Advanced

> <Description>
solid

> <Donor>
1

> <FSP3>
0.46

> <HAC>
19

> <IDNUMBER>
F3096-1171

> <MW>
303.18

> <PriceCoeff>
1.5

> <RotBonds>
2

> <TPSA>
41.57

> <clogP>
3.56

$$$$
F3083-0093
  MOLSOFT 10261716012D

 22 23  0  0  0  0  0  0  0  0999 V2000
    0.0000    0.0000    0.0000 Br  0  0  0
    0.0000   -1.4910    0.0000 C   0  0  0
   -1.2430   -2.3670    0.0000 C   0  0  0
    1.1950   -2.3670    0.0000 C   0  0  0
   -0.7810   -3.7870    0.0000 N   0  0  0
   -2.7100   -1.9650    0.0000 C   0  0  0
    0.7340   -3.7870    0.0000 N   0  0  0
    2.4850   -1.5980    0.0000 C   0  0  0
    1.7870   -4.8410    0.0000 C   0  0  3
    3.0770   -4.0600    0.0000 C   0  0  0
    1.3730   -6.2730    0.0000 C   0  0  0
    4.1190   -5.1130    0.0000 C   0  0  0
    3.7160   -6.5330    0.0000 O   0  0  0
    5.6100   -5.1010    0.0000 N   0  0  0
    6.3560   -3.7870    0.0000 C   0  0  0
    5.5860   -2.4740    0.0000 C   0  0  0
    7.8470   -3.7750    0.0000 C   0  0  0
    6.3320   -1.1600    0.0000 C   0  0  0
    8.5810   -2.4620    0.0000 C   0  0  0
    7.8230   -1.1480    0.0000 C   0  0  0
    8.5570    0.1660    0.0000 O   0  0  0
   10.0480    0.1770    0.0000 C   0  0  0
  1  2  1
  2  3  1
  2  4  2
  3  5  2
  3  6  1
  4  7  1
  4  8  1
  9  7  1
  9 10  1
  9 11  1
 10 12  1
 12 13  2
 12 14  1
 14 15  1
 15 16  2
 15 17  1
 16 18  1
 17 19  2
 18 20  2
 20 21  1
 21 22  1
  5  7  1
 19 20  1
M  END
> <Acceptor>
3

> <CAS>
890596-61-9

> <Chemical_Name>
3-(4-bromo-3,5-dimethyl-1H-pyrazol-1-yl)-N-(4-methoxyphenyl)butanamide

> <Collection>
General

> <Description>
solid

> <Donor>
1

> <FSP3>
0.38

> <HAC>
22

> <IDNUMBER>
F3083-0093

> <MW>
366.25

> <PriceCoeff>
1.

> <RotBonds>
5

> <TPSA>
56.15

> <clogP>
3.34

$$$$
F2733-0061
  MOLSOFT 10261716012D

 25 28  0  0  0  0  0  0  0  0999 V2000
    0.0000    0.0000    0.0000 S   0  0  0
    1.4070   -0.4930    0.0000 C   0  0  0
    0.0360    1.5160    0.0000 C   0  0  0
    1.9610   -1.8760    0.0000 N   0  0  0
    2.3330    0.7100    0.0000 C   0  0  0
    1.4790    1.9490    0.0000 C   0  0  0
    3.4280   -2.0690    0.0000 C   0  0  0
    3.8010    0.5170    0.0000 C   0  0  0
    4.3540   -0.8660    0.0000 N   0  0  0
    4.7030    1.7200    0.0000 N   0  0  0
    6.1950    1.5400    0.0000 C   0  0  0
    6.7480    0.1560    0.0000 O   0  0  0
    7.0970    2.7420    0.0000 C   0  0  0
    8.5640    2.5620    0.0000 C   0  0  0
    6.5190    4.1500    0.0000 C   0  0  0
    9.4900    3.7410    0.0000 C   0  0  0
    7.4460    5.3530    0.0000 C   0  0  0
   10.9820    3.5360    0.0000 N   0  0  0
    8.9370    5.1480    0.0000 C   0  0  0
   12.0530    4.5950    0.0000 C   0  0  0
   11.6080    2.2130    0.0000 C   0  0  0
   11.8600    6.0860    0.0000 O   0  0  0
   13.3760    3.8970    0.0000 C   0  0  0
   10.8860    0.9020    0.0000 O   0  0  0
   13.1230    2.4540    0.0000 C   0  0  0
  1  2  1
  1  3  1
  2  4  2
  2  5  1
  3  6  2
  4  7  1
  5  8  2
  7  9  2
  8 10  1
 10 11  1
 11 12  2
 11 13  1
 13 14  2
 13 15  1
 14 16  1
 15 17  2
 16 18  1
 16 19  2
 18 20  1
 18 21  1
 20 22  2
 20 23  1
 21 24  2
 21 25  1
  5  6  1
  8  9  1
 17 19  1
 23 25  1
M  END
> <Acceptor>
5

> <CAS>
1004053-26-2

> <Chemical_Name>
3-(2,5-dioxopyrrolidin-1-yl)-N-(thieno[2,3-d]pyrimidin-4-yl)benzamide

> <Collection>
General

> <Description>
solid

> <Donor>
1

> <FSP3>
0.12

> <HAC>
25

> <IDNUMBER>
F2733-0061

> <MW>
352.37

> <PriceCoeff>
1.

> <RotBonds>
3

> <TPSA>
120.5

> <clogP>
0.67

$$$$
F5832-0313
  MOLSOFT 10261716012D

 28 30  0  0  0  0  0  0  0  0999 V2000
    0.0000    0.0000    0.0000 S   0  0  0
    0.7560   -1.2480    0.0000 O   0  0  0
   -0.7800    1.2960    0.0000 O   0  0  0
    1.2960    0.7680    0.0000 N   0  0  0
   -1.2960   -0.7440    0.0000 C   0  0  0
    1.2840    2.2680    0.0000 C   0  0  0
   -2.6170    0.0000    0.0000 C   0  0  0
    2.5690    3.0490    0.0000 C   0  0  0
   -3.9250   -0.7560    0.0000 N   0  0  0
    3.8410    2.3040    0.0000 C   0  0  0
    3.7690    3.9370    0.0000 C   0  0  0
    1.3320    3.9370    0.0000 C   0  0  0
   -3.9130   -2.2680    0.0000 C   0  0  0
   -5.2570   -0.0120    0.0000 C   0  0  0
    3.8530    0.8160    0.0000 C   0  0  0
    5.1250    3.0850    0.0000 C   0  0  0
    3.2890    5.3650    0.0000 C   0  0  0
    1.7880    5.3650    0.0000 C   0  0  0
   -2.6170   -2.9890    0.0000 O   0  0  0
   -5.1970   -3.0250    0.0000 C   0  0  0
   -5.3170    1.4880    0.0000 O   0  0  0
   -6.5650   -0.7920    0.0000 C   0  0  0
    5.1370    0.0840    0.0000 C   0  0  0
    6.4210    2.3520    0.0000 C   0  0  0
   -6.5290   -2.3040    0.0000 C   0  0  0
    6.4210    0.8640    0.0000 C   0  0  0
    7.7300    0.1320    0.0000 O   0  0  0
    7.7300   -1.3560    0.0000 C   0  0  0
  1  2  2
  1  3  2
  1  4  1
  1  5  1
  4  6  1
  5  7  1
  6  8  1
  7  9  1
  8 10  1
  8 11  1
  8 12  1
  9 13  1
  9 14  1
 10 15  2
 10 16  1
 11 17  1
 12 18  1
 13 19  2
 13 20  1
 14 21  2
 14 22  1
 15 23  1
 16 24  2
 20 25  1
 23 26  2
 26 27  1
 27 28  1
 17 18  1
 22 25  1
 24 26  1
M  END
> <Acceptor>
5

> <CAS>
1325746-32-4

> <Chemical_Name>
2-(2,6-dioxopiperidin-1-yl)-N-((1-(4-methoxyphenyl)cyclopentyl)methyl)ethane-1-sulfonamide

> <Collection>
General

> <Description>
oil

> <Donor>
1

> <FSP3>
0.6

> <HAC>
28

> <IDNUMBER>
F5832-0313

> <MW>
408.51

> <PriceCoeff>
1.

> <RotBonds>
8

> <TPSA>
101.16

> <clogP>
3.1

$$$$
F6416-8505
  MOLSOFT 10261716012D

 22 23  0  0  0  0  0  0  0  0999 V2000
    0.0000    0.0000    0.0000 O   0  0  0
   -1.1370    1.0310    0.0000 C   0  0  0
   -0.9950    2.5350    0.0000 N   0  0  0
   -2.5950    0.7230    0.0000 C   0  0  0
   -2.3580    3.1400    0.0000 C   0  0  0
    0.2610    3.3060    0.0000 C   0  0  0
   -3.3530    2.0260    0.0000 C   0  0  0
   -2.6890    4.6210    0.0000 O   0  0  0
    0.2490    4.7870    0.0000 C   0  0  0
   -1.0540    5.5450    0.0000 O   0  0  0
    1.5400    5.5450    0.0000 N   0  0  0
    1.5280    7.0610    0.0000 C   0  0  0
    2.7960    7.8310    0.0000 C   0  0  0
    2.7720    9.3240    0.0000 C   0  0  3
    1.4340   10.0830    0.0000 O   0  0  0
    4.0400   10.1060    0.0000 C   0  0  0
    4.1820   11.6110    0.0000 C   0  0  0
    5.4140    9.5260    0.0000 C   0  0  0
    5.6280   11.9430    0.0000 O   0  0  0
    3.0450   12.5940    0.0000 C   0  0  0
    6.3980   10.6510    0.0000 C   0  0  0
    7.8790   10.5330    0.0000 C   0  0  0
  1  2  2
  2  3  1
  2  4  1
  3  5  1
  3  6  1
  4  7  1
  5  8  2
  6  9  1
  9 10  2
  9 11  1
 11 12  1
 12 13  1
 14 13  1
 14 15  1
 14 16  1
 16 17  2
 16 18  1
 17 19  1
 17 20  1
 18 21  2
 21 22  1
  5  7  1
 19 21  1
M  END
> <Acceptor>
5

> <CAS>
1421494-33-8

> <Chemical_Name>
N-(3-(2,5-dimethylfuran-3-yl)-3-hydroxypropyl)-2-(2,5-dioxopyrrolidin-1-yl)acetamide

> <Collection>
General

> <Description>
oil

> <Donor>
2

> <FSP3>
0.53

> <HAC>
22

> <IDNUMBER>
F6416-8505

> <MW>
308.33

> <PriceCoeff>
1.

> <RotBonds>
6

> <TPSA>
99.85

> <clogP>
0.41

$$$$
F3316-0239
  MOLSOFT 10261716012D

 22 23  0  0  0  0  0  0  0  0999 V2000
    0.0000    0.0000    0.0000 Cl  0  0  0
    0.0000   -1.5010    0.0000 C   0  0  0
   -1.2750   -2.3120    0.0000 C   0  0  0
    1.1560   -2.4430    0.0000 C   0  0  0
   -0.8940   -3.7650    0.0000 N   0  0  0
   -2.7530   -1.9070    0.0000 C   0  0  0
    0.6080   -3.8370    0.0000 N   0  0  0
    2.6100   -2.0260    0.0000 C   0  0  0
    1.3350   -5.1360    0.0000 C   0  0  0
    2.8360   -5.1240    0.0000 C   0  0  0
    3.5750   -6.4230    0.0000 N   0  0  0
    5.0760   -6.4110    0.0000 S   0  0  0
    5.0520   -4.8860    0.0000 O   0  0  0
    5.0520   -7.9120    0.0000 O   0  0  0
    6.5780   -6.3990    0.0000 C   0  0  0
    7.3050   -7.6980    0.0000 C   0  0  0
    7.3160   -5.1000    0.0000 C   0  0  0
    8.7940   -7.6860    0.0000 C   0  0  0
    6.5420   -8.9970    0.0000 C   0  0  0
    8.7940   -5.0880    0.0000 C   0  0  0
    9.5330   -6.3870    0.0000 C   0  0  0
   11.0220   -6.3750    0.0000 C   0  0  0
  1  2  1
  2  3  1
  2  4  2
  3  5  2
  3  6  1
  4  7  1
  4  8  1
  7  9  1
  9 10  1
 10 11  1
 11 12  1
 12 13  2
 12 14  2
 12 15  1
 15 16  2
 15 17  1
 16 18  1
 16 19  1
 17 20  2
 18 21  2
 21 22  1
  5  7  1
 20 21  1
M  END
> <Acceptor>
3

> <CAS>
957502-13-5

> <Chemical_Name>
N-(2-(4-chloro-3,5-dimethyl-1H-pyrazol-1-yl)ethyl)-2,4-dimethylbenzenesulfonamide

> <Collection>
General

> <Description>
solid

> <Donor>
1

> <FSP3>
0.4

> <HAC>
22

> <IDNUMBER>
F3316-0239

> <MW>
341.86

> <PriceCoeff>
1.

> <RotBonds>
5

> <TPSA>
72.37

> <clogP>
3.62

$$$$
F1757-0424
  MOLSOFT 10261716012D

 16 17  0  0  0  0  0  0  0  0999 V2000
    0.0000    0.0000    0.0000 Br  0  0  0
   -0.4060   -1.4470    0.0000 C   0  0  0
   -1.8170   -1.9370    0.0000 C   0  0  0
    0.5140   -2.6180    0.0000 C   0  0  0
   -1.8050   -3.4430    0.0000 N   0  0  0
   -3.1560   -1.1480    0.0000 C   0  0  0
   -0.3350   -3.8620    0.0000 N   0  0  0
    2.0080   -2.6060    0.0000 C   0  0  0
    0.1550   -5.2600    0.0000 C   0  0  0
    1.6380   -5.5110    0.0000 O   0  0  0
   -0.5980   -6.5400    0.0000 N   0  0  0
   -2.1040   -6.5280    0.0000 C   0  0  0
    0.1310   -7.8310    0.0000 C   0  0  0
   -2.8690   -7.8070    0.0000 C   0  0  0
   -0.6460   -9.1100    0.0000 C   0  0  0
   -2.1400   -9.0980    0.0000 O   0  0  0
  1  2  1
  2  3  1
  2  4  2
  3  5  2
  3  6  1
  4  7  1
  4  8  1
  7  9  1
  9 10  2
  9 11  1
 11 12  1
 11 13  1
 12 14  1
 13 15  1
 14 16  1
  5  7  1
 15 16  1
M  END
> <Acceptor>
3

> <CAS>
431978-09-5

> <Chemical_Name>
(4-bromo-3,5-dimethyl-1H-pyrazol-1-yl)(morpholino)methanone

> <Collection>
General

> <Description>
solid

> <Donor>
0

> <FSP3>
0.6

> <HAC>
16

> <IDNUMBER>
F1757-0424

> <MW>
288.14

> <PriceCoeff>
1.

> <RotBonds>
2

> <TPSA>
47.36

> <clogP>
2.46

$$$$
F5832-2362
  MOLSOFT 10261716012D

 26 28  0  0  0  0  0  0  0  0999 V2000
    0.0000    0.0000    0.0000 F   0  0  0
    0.0720   -1.5220    0.0000 C   0  0  0
    1.3650   -2.2580    0.0000 C   0  0  0
   -1.2440   -2.2700    0.0000 C   0  0  0
    1.3770   -3.7080    0.0000 C   0  0  0
   -1.2200   -3.7680    0.0000 C   0  0  0
    0.0600   -4.5170    0.0000 C   0  0  0
    0.0600   -6.0020    0.0000 C   0  0  3
    1.3530   -6.7030    0.0000 N   0  0  0
   -1.2320   -6.7630    0.0000 C   0  0  0
    1.3650   -8.2120    0.0000 C   0  0  0
    2.6330   -5.9300    0.0000 C   0  0  0
   -1.2440   -8.2360    0.0000 N   0  0  0
    2.6930   -8.9130    0.0000 C   0  0  0
    3.9490   -6.6180    0.0000 C   0  0  0
   -2.5720   -8.9730    0.0000 C   0  0  0
    3.9850   -8.1160    0.0000 O   0  0  0
   -3.8890   -8.2120    0.0000 O   0  0  0
   -2.5840  -10.4460    0.0000 C   0  0  0
   -3.8770  -11.1950    0.0000 N   0  0  0
   -4.0460  -12.6930    0.0000 C   0  0  0
   -5.2410  -10.5670    0.0000 C   0  0  0
   -2.9470  -13.7070    0.0000 O   0  0  0
   -5.5070  -12.9950    0.0000 C   0  0  0
   -5.5920   -9.0820    0.0000 O   0  0  0
   -6.2680  -11.6780    0.0000 C   0  0  0
  1  2  1
  2  3  2
  2  4  1
  3  5  1
  4  6  2
  5  7  2
  8  7  1
  8  9  1
  8 10  1
  9 11  1
  9 12  1
 10 13  1
 11 14  1
 12 15  1
 13 16  1
 14 17  1
 16 18  2
 16 19  1
 19 20  1
 20 21  1
 20 22  1
 21 23  2
 21 24  1
 22 25  2
 22 26  1
  6  7  1
 15 17  1
 24 26  1
M  END
> <Acceptor>
4

> <CAS>
1219905-89-1

> <Chemical_Name>
2-(2,5-dioxopyrrolidin-1-yl)-N-(2-(4-fluorophenyl)-2-morpholinoethyl)acetamide

> <Collection>
General

> <Description>
solid

> <Donor>
2

> <FSP3>
0.5

> <HAC>
26

> <IDNUMBER>
F5832-2362

> <MW>
363.38

> <PriceCoeff>
1.

> <RotBonds>
6

> <TPSA>
78.95

> <clogP>
0.95

$$$$
F1800-0188
  MOLSOFT 10261716012D

 22 24  0  0  0  0  0  0  0  0999 V2000
    0.0000    0.0000    0.0000 S   0  0  0
   -1.1240   -1.0060    0.0000 C   0  0  3
    1.4200   -0.4020    0.0000 C   0  0  0
   -0.7810   -2.4610    0.0000 C   0  0  0
   -2.5680   -0.5210    0.0000 C   0  0  0
    1.7630   -1.8460    0.0000 C   0  0  0
   -1.9050   -3.4790    0.0000 O   0  0  0
    0.6390   -2.8750    0.0000 N   0  0  0
    3.2070   -2.2600    0.0000 O   0  0  0
    0.9820   -4.3190    0.0000 C   0  0  0
   -0.1180   -5.3370    0.0000 C   0  0  0
   -1.5860   -4.8990    0.0000 O   0  0  0
    0.2010   -6.7800    0.0000 N   0  0  0
   -0.8990   -7.7980    0.0000 C   0  0  0
   -0.5210   -9.2410    0.0000 C   0  0  0
   -2.3670   -7.3840    0.0000 C   0  0  0
   -1.5860  -10.2940    0.0000 C   0  0  0
   -3.4310   -8.4600    0.0000 C   0  0  0
   -1.5260  -11.7850    0.0000 O   0  0  0
   -3.0530   -9.8920    0.0000 C   0  0  0
   -2.9460  -12.3060    0.0000 C   0  0  0
   -3.8570  -11.1460    0.0000 O   0  0  0
  2  1  1
  1  3  1
  2  4  1
  2  5  1
  3  6  1
  4  7  2
  4  8  1
  6  9  2
  8 10  1
 10 11  1
 11 12  2
 11 13  1
 13 14  1
 14 15  2
 14 16  1
 15 17  1
 16 18  2
 17 19  1
 17 20  2
 19 21  1
 20 22  1
  6  8  1
 18 20  1
 21 22  1
M  END
> <Acceptor>
5

> <CAS>
868216-09-5

> <Chemical_Name>
N-(benzo[d][1,3]dioxol-5-yl)-2-(2-methyl-3,5-dioxothiomorpholino)acetamide

> <Collection>
General

> <Description>
solid

> <Donor>
1

> <FSP3>
0.36

> <HAC>
22

> <IDNUMBER>
F1800-0188

> <MW>
322.34

> <PriceCoeff>
1.

> <RotBonds>
3

> <TPSA>
110.24

> <clogP>
2.03

$$$$
F3033-0005
  MOLSOFT 10261716012D

 20 21  0  0  0  0  0  0  0  0999 V2000
    0.0000    0.0000    0.0000 O   0  0  0
   -0.1530    1.5020    0.0000 C   0  0  0
    0.9510    2.5120    0.0000 N   0  0  0
   -1.4550    2.2890    0.0000 C   0  0  0
    0.3640    3.9200    0.0000 C   0  0  0
    2.4180    2.1830    0.0000 C   0  0  0
   -1.1380    3.7790    0.0000 C   0  0  0
    1.1270    5.2110    0.0000 O   0  0  0
    2.8400    0.7630    0.0000 C   0  0  0
    1.8190   -0.3290    0.0000 O   0  0  0
    4.3080    0.4460    0.0000 N   0  0  0
    4.7420   -0.9740    0.0000 C   0  0  0
    6.1860   -1.3030    0.0000 C   0  0  0
    3.7090   -2.0540    0.0000 C   0  0  0
    6.6320   -2.7110    0.0000 C   0  0  0
    7.1950   -0.1760    0.0000 C   0  0  0
    4.1430   -3.4740    0.0000 C   0  0  0
    2.2420   -1.7140    0.0000 C   0  0  0
    5.5990   -3.8150    0.0000 C   0  0  0
    6.0330   -5.2350    0.0000 C   0  0  0
  1  2  2
  2  3  1
  2  4  1
  3  5  1
  3  6  1
  4  7  1
  5  8  2
  6  9  1
  9 10  2
  9 11  1
 11 12  1
 12 13  2
 12 14  1
 13 15  1
 13 16  1
 14 17  2
 14 18  1
 15 19  2
 19 20  1
  5  7  1
 17 19  1
M  END
> <Acceptor>
3

> <CAS>
899362-10-8

> <Chemical_Name>
2-(2,5-dioxopyrrolidin-1-yl)-N-mesitylacetamide

> <Collection>
Advanced

> <Description>
solid

> <Donor>
1

> <FSP3>
0.4

> <HAC>
20

> <IDNUMBER>
F3033-0005

> <MW>
274.32

> <PriceCoeff>
1.5

> <RotBonds>
3

> <TPSA>
66.48

> <clogP>
0.81

$$$$
F1358-0095
  MOLSOFT 10261716012D

 20 21  0  0  0  0  0  0  0  0999 V2000
    0.0000    0.0000    0.0000 S   0  0  0
    1.2050    0.8860    0.0000 C   0  0  0
   -1.2290    0.8860    0.0000 C   0  0  0
    2.6230    0.4370    0.0000 N   0  0  0
    0.7320    2.3270    0.0000 C   0  0  0
   -0.7920    2.3270    0.0000 C   0  0  0
    2.9180   -1.0160    0.0000 C   0  0  0
    1.5950    3.5560    0.0000 C   0  0  0
    4.3360   -1.4650    0.0000 O   0  0  0
    1.7840   -2.0080    0.0000 C   0  0  0
    3.0840    3.4140    0.0000 O   0  0  0
    0.9690    4.9380    0.0000 O   0  0  0
    2.0910   -3.4730    0.0000 N   0  0  0
   -0.5320    5.1040    0.0000 C   0  0  0
    3.4500   -4.0520    0.0000 C   0  0  0
    1.0630   -4.5720    0.0000 C   0  0  0
    4.7380   -3.3080    0.0000 O   0  0  0
    3.2840   -5.5410    0.0000 C   0  0  0
   -0.4250   -4.4070    0.0000 O   0  0  0
    1.8190   -5.8600    0.0000 C   0  0  0
  1  2  1
  1  3  1
  2  4  1
  2  5  2
  3  6  2
  4  7  1
  5  8  1
  7  9  2
  7 10  1
  8 11  2
  8 12  1
 10 13  1
 12 14  1
 13 15  1
 13 16  1
 15 17  2
 15 18  1
 16 19  2
 16 20  1
  5  6  1
 18 20  1
M  END
> <Acceptor>
5

> <CAS>
888412-90-6

> <Chemical_Name>
methyl 2-(2-(2,5-dioxopyrrolidin-1-yl)acetamido)thiophene-3-carboxylate

> <Collection>
General

> <Description>
solid

> <Donor>
1

> <FSP3>
0.33

> <HAC>
20

> <IDNUMBER>
F1358-0095

> <MW>
296.3

> <PriceCoeff>
1.

> <RotBonds>
5

> <TPSA>
121.02

> <clogP>
0.78

$$$$
F1800-0189
  MOLSOFT 10261716012D

 23 25  0  0  0  0  0  0  0  0999 V2000
    0.0000    0.0000    0.0000 S   0  0  0
   -1.1160   -1.0110    0.0000 C   0  0  3
    1.4180   -0.4070    0.0000 C   0  0  0
   -0.7790   -2.4640    0.0000 C   0  0  0
   -2.5570   -0.5460    0.0000 C   0  0  0
    1.7550   -1.8710    0.0000 C   0  0  0
   -1.8940   -3.4860    0.0000 O   0  0  0
    0.6390   -2.8940    0.0000 N   0  0  0
    3.1960   -2.2660    0.0000 O   0  0  0
    0.9760   -4.3230    0.0000 C   0  0  0
   -0.1280   -5.3460    0.0000 C   0  0  0
   -1.5920   -4.9040    0.0000 O   0  0  0
    0.1980   -6.7990    0.0000 N   0  0  0
   -0.8950   -7.8440    0.0000 C   0  0  0
   -0.5110   -9.2620    0.0000 C   0  0  0
   -2.3710   -7.4260    0.0000 C   0  0  0
   -1.5920  -10.3080    0.0000 C   0  0  0
   -3.4400   -8.4840    0.0000 C   0  0  0
   -1.1850  -11.7610    0.0000 O   0  0  0
   -3.0330   -9.9250    0.0000 C   0  0  0
   -2.2660  -12.8180    0.0000 C   0  0  0
   -4.0910  -10.9710    0.0000 O   0  0  0
   -3.7300  -12.4000    0.0000 C   0  0  0
  2  1  1
  1  3  1
  2  4  1
  2  5  1
  3  6  1
  4  7  2
  4  8  1
  6  9  2
  8 10  1
 10 11  1
 11 12  2
 11 13  1
 13 14  1
 14 15  2
 14 16  1
 15 17  1
 16 18  2
 17 19  1
 17 20  2
 19 21  1
 20 22  1
 21 23  1
  6  8  1
 18 20  1
 22 23  1
M  END
> <Acceptor>
5

> <CAS>
868216-10-8

> <Chemical_Name>
N-(2,3-dihydrobenzo[b][1,4]dioxin-6-yl)-2-(2-methyl-3,5-dioxothiomorpholino)acetamide

> <Collection>
General

> <Description>
solid

> <Donor>
1

> <FSP3>
0.4

> <HAC>
23

> <IDNUMBER>
F1800-0189

> <MW>
336.36

> <PriceCoeff>
1.

> <RotBonds>
3

> <TPSA>
110.24

> <clogP>
1.99

$$$$
F1800-0197
  MOLSOFT 10261716012D

 20 21  0  0  0  0  0  0  0  0999 V2000
    0.0000    0.0000    0.0000 S   0  0  0
   -0.7530    1.3180    0.0000 C   0  0  3
   -0.7530   -1.2710    0.0000 C   0  0  0
   -2.2600    1.3300    0.0000 C   0  0  0
   -0.0120    2.6250    0.0000 C   0  0  0
   -2.2600   -1.2590    0.0000 C   0  0  0
   -3.0370    2.6370    0.0000 O   0  0  0
   -3.0130    0.0350    0.0000 N   0  0  0
   -3.0370   -2.5540    0.0000 O   0  0  0
   -4.5200    0.0470    0.0000 C   0  0  0
   -5.2730    1.3420    0.0000 C   0  0  0
   -4.5320    2.6480    0.0000 O   0  0  0
   -6.7800    1.3540    0.0000 N   0  0  0
   -7.5330    2.6600    0.0000 C   0  0  0
   -9.0280    2.6720    0.0000 C   0  0  0
   -9.7820    1.3890    0.0000 C   0  0  0
   -9.7820    3.9430    0.0000 C   0  0  0
  -11.2880    1.4010    0.0000 C   0  0  0
  -11.2880    3.9550    0.0000 C   0  0  0
  -12.0420    2.7070    0.0000 C   0  0  0
  2  1  1
  1  3  1
  2  4  1
  2  5  1
  3  6  1
  4  7  2
  4  8  1
  6  9  2
  8 10  1
 10 11  1
 11 12  2
 11 13  1
 13 14  1
 14 15  1
 15 16  2
 15 17  1
 16 18  1
 17 19  2
 18 20  2
  6  8  1
 19 20  1
M  END
> <Acceptor>
3

> <CAS>
868216-16-4

> <Chemical_Name>
N-benzyl-2-(2-methyl-3,5-dioxothiomorpholino)acetamide

> <Collection>
General

> <Description>
solid

> <Donor>
1

> <FSP3>
0.36

> <HAC>
20

> <IDNUMBER>
F1800-0197

> <MW>
292.35

> <PriceCoeff>
1.

> <RotBonds>
4

> <TPSA>
91.78

> <clogP>
2.

$$$$
F1800-0163
  MOLSOFT 10261716012D

 20 21  0  0  0  0  0  0  0  0999 V2000
    0.0000    0.0000    0.0000 S   0  0  0
   -0.7510    1.3150    0.0000 C   0  0  3
   -0.7510   -1.2680    0.0000 C   0  0  0
   -2.2540    1.3260    0.0000 C   0  0  0
   -0.0120    2.6180    0.0000 C   0  0  0
   -2.2540   -1.2560    0.0000 C   0  0  0
   -3.0280    2.6290    0.0000 O   0  0  0
   -3.0050    0.0350    0.0000 N   0  0  0
   -3.0280   -2.5470    0.0000 O   0  0  0
   -4.5080    0.0470    0.0000 C   0  0  0
   -5.2590    1.3380    0.0000 C   0  0  0
   -4.5190    2.6410    0.0000 O   0  0  0
   -6.7610    1.3500    0.0000 N   0  0  0
   -7.5130    2.6410    0.0000 C   0  0  0
   -6.7730    3.9320    0.0000 C   0  0  0
   -9.0030    2.6650    0.0000 C   0  0  0
   -7.5240    5.2470    0.0000 C   0  0  0
   -9.7550    3.9320    0.0000 C   0  0  0
   -9.0150    5.2590    0.0000 C   0  0  0
   -9.8020    6.5730    0.0000 C   0  0  0
  2  1  1
  1  3  1
  2  4  1
  2  5  1
  3  6  1
  4  7  2
  4  8  1
  6  9  2
  8 10  1
 10 11  1
 11 12  2
 11 13  1
 13 14  1
 14 15  2
 14 16  1
 15 17  1
 16 18  2
 17 19  2
 19 20  1
  6  8  1
 18 19  1
M  END
> <Acceptor>
3

> <CAS>
868215-86-5

> <Chemical_Name>
2-(2-methyl-3,5-dioxothiomorpholino)-N-(p-tolyl)acetamide

> <Collection>
Advanced

> <Description>
solid

> <Donor>
1

> <FSP3>
0.36

> <HAC>
20

> <IDNUMBER>
F1800-0163

> <MW>
292.35

> <PriceCoeff>
1.5

> <RotBonds>
3

> <TPSA>
91.78

> <clogP>
2.47

$$$$
F1800-0006
  MOLSOFT 10261716012D

 18 19  0  0  0  0  0  0  0  0999 V2000
    0.0000    0.0000    0.0000 S   0  0  0
   -0.7380    1.3200    0.0000 C   0  0  0
   -0.7850   -1.2610    0.0000 C   0  0  0
   -2.2480    1.3680    0.0000 C   0  0  0
   -2.2840   -1.2370    0.0000 C   0  0  0
   -2.9980    2.6890    0.0000 O   0  0  0
   -3.0340    0.0830    0.0000 N   0  0  0
   -3.0570   -2.5220    0.0000 O   0  0  0
   -4.5440    0.1070    0.0000 C   0  0  0
   -5.3060   -1.1780    0.0000 C   0  0  0
   -6.8170   -1.1540    0.0000 O   0  0  0
   -4.5680   -2.4630    0.0000 N   0  0  0
   -5.3300   -3.7470    0.0000 C   0  0  0
   -4.5920   -5.0320    0.0000 C   0  0  0
   -6.8290   -3.7360    0.0000 C   0  0  0
   -5.3300   -6.3170    0.0000 C   0  0  0
   -7.5780   -5.0200    0.0000 C   0  0  0
   -6.8520   -6.3170    0.0000 C   0  0  0
  1  2  1
  1  3  1
  2  4  1
  3  5  1
  4  6  2
  4  7  1
  5  8  2
  7  9  1
  9 10  1
 10 11  2
 10 12  1
 12 13  1
 13 14  2
 13 15  1
 14 16  1
 15 17  2
 16 18  2
  5  7  1
 17 18  1
M  END
> <Acceptor>
3

> <CAS>
868215-00-3

> <Chemical_Name>
2-(3,5-dioxothiomorpholino)-N-phenylacetamide

> <Collection>
Advanced

> <Description>
solid

> <Donor>
1

> <FSP3>
0.25

> <HAC>
18

> <IDNUMBER>
F1800-0006

> <MW>
264.3

> <PriceCoeff>
1.5

> <RotBonds>
3

> <TPSA>
91.78

> <clogP>
1.45

$$$$
F3188-0113
  MOLSOFT 10261716012D

 25 28  0  0  0  0  0  0  0  0999 V2000
    0.0000    0.0000    0.0000 O   0  0  0
    0.4380    1.4430    0.0000 C   0  0  0
   -0.4610    2.6730    0.0000 N   0  0  0
    1.8570    1.9280    0.0000 C   0  0  3
    0.4020    3.9030    0.0000 C   0  0  0
   -1.9750    2.6730    0.0000 C   0  0  0
    3.0510    1.0760    0.0000 N   0  0  0
    1.8330    3.4420    0.0000 C   0  0  0
   -0.0830    5.3460    0.0000 O   0  0  0
   -2.8740    3.8910    0.0000 C   0  0  0
   -2.8620    1.4550    0.0000 C   0  0  0
    4.4000    1.7030    0.0000 C   0  0  0
   -4.3170    3.4300    0.0000 C   0  0  0
   -4.3050    1.9160    0.0000 C   0  0  0
    5.6060    0.8400    0.0000 C   0  0  0
    4.5300    3.1930    0.0000 C   0  0  0
    6.9550    1.4670    0.0000 C   0  0  0
    5.8780    3.8320    0.0000 C   0  0  0
    7.0850    2.9690    0.0000 C   0  0  0
    8.4330    3.6070    0.0000 N   0  0  0
    9.6390    2.7440    0.0000 C   0  0  0
    8.5630    5.1090    0.0000 C   0  0  0
   10.9760    3.3710    0.0000 C   0  0  0
    9.9110    5.7360    0.0000 C   0  0  0
   11.1180    4.8850    0.0000 O   0  0  0
  1  2  2
  2  3  1
  4  2  1
  3  5  1
  3  6  1
  4  7  1
  4  8  1
  5  9  2
  6 10  1
  6 11  1
  7 12  1
 10 13  1
 11 14  1
 12 15  2
 12 16  1
 15 17  1
 16 18  2
 17 19  2
 19 20  1
 20 21  1
 20 22  1
 21 23  1
 22 24  1
 23 25  1
  5  8  1
 13 14  1
 18 19  1
 24 25  1
M  END
> <Acceptor>
5

> <CAS>
1008251-36-2

> <Chemical_Name>
1-cyclopentyl-3-((4-morpholinophenyl)amino)pyrrolidine-2,5-dione

> <Collection>
General

> <Description>
solid

> <Donor>
2

> <FSP3>
0.58

> <HAC>
25

> <IDNUMBER>
F3188-0113

> <MW>
343.42

> <PriceCoeff>
1.

> <RotBonds>
4

> <TPSA>
61.88

> <clogP>
2.49

$$$$
F1800-0045
  MOLSOFT 10261716012D

 20 21  0  0  0  0  0  0  0  0999 V2000
    0.0000    0.0000    0.0000 S   0  0  0
   -0.7460    1.3140    0.0000 C   0  0  0
   -0.7810   -1.2670    0.0000 C   0  0  0
   -2.2610    1.3610    0.0000 C   0  0  0
   -2.2850   -1.2430    0.0000 C   0  0  0
   -3.0070    2.6760    0.0000 O   0  0  0
   -3.0430    0.0710    0.0000 N   0  0  0
   -3.0660   -2.5340    0.0000 O   0  0  0
   -4.5580    0.0950    0.0000 C   0  0  0
   -5.3160   -1.1960    0.0000 C   0  0  0
   -6.8310   -1.1720    0.0000 O   0  0  0
   -4.5930   -2.4860    0.0000 N   0  0  0
   -5.3390   -3.7770    0.0000 C   0  0  0
   -4.6170   -5.0790    0.0000 C   0  0  0
   -3.1250   -5.0790    0.0000 C   0  0  0
   -5.3990   -6.3460    0.0000 C   0  0  0
   -2.3910   -6.3810    0.0000 C   0  0  0
   -4.6650   -7.6480    0.0000 C   0  0  0
   -3.1730   -7.6480    0.0000 C   0  0  0
   -2.4510   -8.9620    0.0000 F   0  0  0
  1  2  1
  1  3  1
  2  4  1
  3  5  1
  4  6  2
  4  7  1
  5  8  2
  7  9  1
  9 10  1
 10 11  2
 10 12  1
 12 13  1
 13 14  1
 14 15  2
 14 16  1
 15 17  1
 16 18  2
 17 19  2
 19 20  1
  5  7  1
 18 19  1
M  END
> <Acceptor>
3

> <CAS>
868215-17-2

> <Chemical_Name>
2-(3,5-dioxothiomorpholino)-N-(4-fluorobenzyl)acetamide

> <Collection>
General

> <Description>
solid

> <Donor>
1

> <FSP3>
0.31

> <HAC>
20

> <IDNUMBER>
F1800-0045

> <MW>
296.32

> <PriceCoeff>
1.

> <RotBonds>
4

> <TPSA>
91.78

> <clogP>
1.62

$$$$
F3023-0981
  MOLSOFT 10261716012D

 22 24  0  0  0  0  0  0  0  0999 V2000
    0.0000    0.0000    0.0000 O   0  0  0
    0.4360    1.4380    0.0000 C   0  0  0
   -0.4600    2.6640    0.0000 N   0  0  0
    1.8510    1.9220    0.0000 C   0  0  3
    0.4130    3.8900    0.0000 C   0  0  0
   -1.9690    2.6640    0.0000 C   0  0  0
    3.0530    1.0610    0.0000 N   0  0  0
    1.8390    3.4190    0.0000 C   0  0  0
   -0.0710    5.3170    0.0000 O   0  0  0
   -2.7350    3.9730    0.0000 C   0  0  0
    4.4210    1.6860    0.0000 C   0  0  0
    4.5390    3.1830    0.0000 C   0  0  0
    5.6110    0.8130    0.0000 C   0  0  0
    5.9060    3.8080    0.0000 C   0  0  0
    6.9790    1.4380    0.0000 C   0  0  0
    7.1090    2.9470    0.0000 C   0  0  0
    8.4760    3.5720    0.0000 N   0  0  0
    9.6790    2.7000    0.0000 C   0  0  0
    8.6180    5.0690    0.0000 C   0  0  0
   11.0460    3.3360    0.0000 C   0  0  0
    9.9850    5.6940    0.0000 C   0  0  0
   11.1880    4.8330    0.0000 C   0  0  0
  1  2  2
  2  3  1
  4  2  1
  3  5  1
  3  6  1
  4  7  1
  4  8  1
  5  9  2
  6 10  1
  7 11  1
 11 12  2
 11 13  1
 12 14  1
 13 15  2
 14 16  2
 16 17  1
 17 18  1
 17 19  1
 18 20  1
 19 21  1
 20 22  1
  5  8  1
 15 16  1
 21 22  1
M  END
> <Acceptor>
4

> <CAS>
1009537-06-7

> <Chemical_Name>
1-ethyl-3-((4-(piperidin-1-yl)phenyl)amino)pyrrolidine-2,5-dione

> <Collection>
General

> <Description>
solid

> <Donor>
2

> <FSP3>
0.53

> <HAC>
22

> <IDNUMBER>
F3023-0981

> <MW>
301.38

> <PriceCoeff>
1.

> <RotBonds>
4

> <TPSA>
52.65

> <clogP>
3.02

$$$$
F0349-0676
  MOLSOFT 10261716012D

 20 22  0  0  0  0  0  0  0  0999 V2000
    0.0000    0.0000    0.0000 Br  0  0  0
    1.2880    0.7540    0.0000 C   0  0  0
    2.6010    0.0360    0.0000 C   0  0  0
    1.2760    2.3090    0.0000 C   0  0  0
    3.9020    0.7780    0.0000 C   0  0  0
    2.5890    3.0630    0.0000 C   0  0  0
    5.3480    0.3650    0.0000 S   0  0  0
    3.8900    2.3340    0.0000 C   0  0  0
    6.1500    1.6040    0.0000 C   0  0  0
    5.3360    2.8320    0.0000 N   0  0  0
    7.6700    1.6170    0.0000 N   0  0  0
    8.4110    0.3520    0.0000 C   0  0  0
    7.6460   -0.9360    0.0000 O   0  0  0
    9.8820    0.3650    0.0000 C   0  0  0
   10.6360   -0.9240    0.0000 N   0  0  0
   10.8790    1.4710    0.0000 C   0  0  0
   12.0700   -0.5710    0.0000 N   0  0  0
    9.9920   -2.3220    0.0000 C   0  0  0
   10.5750    2.9660    0.0000 Br  0  0  0
   12.2400    0.8630    0.0000 C   0  0  0
  1  2  1
  2  3  2
  2  4  1
  3  5  1
  4  6  2
  5  7  1
  5  8  2
  7  9  1
  8 10  1
  9 11  1
 11 12  1
 12 13  2
 12 14  1
 14 15  1
 14 16  2
 15 17  1
 15 18  1
 16 19  1
 16 20  1
  6  8  1
  9 10  2
 17 20  2
M  END
> <Acceptor>
3

> <CAS>
351521-04-5

> <Chemical_Name>
4-bromo-N-(6-bromobenzo[d]thiazol-2-yl)-1-methyl-1H-pyrazole-5-carboxamide

> <Collection>
General

> <Description>
solid

> <Donor>
1

> <FSP3>
0.08

> <HAC>
20

> <IDNUMBER>
F0349-0676

> <MW>
416.09

> <PriceCoeff>
1.

> <RotBonds>
2

> <TPSA>
88.05

> <clogP>
2.55

$$$$
F0700-0029
  MOLSOFT 10261716012D

 22 24  0  0  0  0  0  0  0  0999 V2000
    0.0000    0.0000    0.0000 S   0  0  0
   -0.0970   -1.4190    0.0000 C   0  0  0
   -1.4070    0.5460    0.0000 C   0  0  0
   -1.5530   -1.8200    0.0000 N   0  0  0
    1.1400   -2.3050    0.0000 N   0  0  0
   -2.3650   -0.5700    0.0000 C   0  0  0
    2.5110   -1.6860    0.0000 C   0  0  0
   -3.9180   -0.5580    0.0000 C   0  0  0
    2.5960   -0.2060    0.0000 O   0  0  0
    3.6630   -2.5590    0.0000 C   0  0  0
   -4.6940   -1.8070    0.0000 N   0  0  0
   -4.6220    0.7640    0.0000 C   0  0  0
    5.0830   -1.8920    0.0000 N   0  0  0
   -6.1740   -1.8320    0.0000 C   0  0  0
   -6.1740    0.7760    0.0000 C   0  0  0
    5.4710   -0.4490    0.0000 C   0  0  0
    6.2710   -2.7050    0.0000 C   0  0  0
   -6.9990   -0.4970    0.0000 C   0  0  0
    4.5490    0.8130    0.0000 O   0  0  0
    6.9990   -0.4370    0.0000 C   0  0  0
    6.2840   -4.2340    0.0000 O   0  0  0
    7.4240   -1.7590    0.0000 C   0  0  0
  1  2  1
  1  3  1
  2  4  2
  2  5  1
  3  6  2
  5  7  1
  6  8  1
  7  9  2
  7 10  1
  8 11  2
  8 12  1
 10 13  1
 11 14  1
 12 15  2
 13 16  1
 13 17  1
 14 18  2
 16 19  2
 16 20  1
 17 21  2
 17 22  1
  4  6  1
 15 18  1
 20 22  1
M  END
> <Acceptor>
5

> <CAS>
393835-13-7

> <Chemical_Name>
2-(2,5-dioxopyrrolidin-1-yl)-N-(4-(pyridin-2-yl)thiazol-2-yl)acetamide

> <Collection>
General

> <Description>
solid

> <Donor>
2

> <FSP3>
0.21

> <HAC>
22

> <IDNUMBER>
F0700-0029

> <MW>
316.34

> <PriceCoeff>
1.

> <RotBonds>
4

> <TPSA>
120.5

> <clogP>
0.77

$$$$
F1800-0193
  MOLSOFT 10261716012D

 24 25  0  0  0  0  0  0  0  0999 V2000
    0.0000    0.0000    0.0000 S   0  0  0
   -0.7520    1.3240    0.0000 C   0  0  3
   -0.7520   -1.2640    0.0000 C   0  0  0
   -2.2550    1.3360    0.0000 C   0  0  0
   -0.0120    2.6240    0.0000 C   0  0  0
   -2.2550   -1.2530    0.0000 C   0  0  0
   -3.0300    2.6360    0.0000 O   0  0  0
   -3.0060    0.0360    0.0000 N   0  0  0
   -3.0300   -2.5530    0.0000 O   0  0  0
   -4.5090    0.0480    0.0000 C   0  0  0
   -5.2610    1.3480    0.0000 C   0  0  0
   -4.5330    2.6480    0.0000 O   0  0  0
   -6.7640    1.3600    0.0000 N   0  0  0
   -7.5160    2.6600    0.0000 C   0  0  0
   -6.7880    3.9610    0.0000 C   0  0  0
   -9.0070    2.6720    0.0000 C   0  0  0
   -7.5400    5.2610    0.0000 C   0  0  0
   -9.7580    3.9370    0.0000 C   0  0  0
   -9.0310    5.2730    0.0000 C   0  0  0
   -9.7820    6.5730    0.0000 O   0  0  0
  -11.3090    6.6090    0.0000 C   0  0  0
  -11.2970    8.1120    0.0000 F   0  0  0
  -11.3210    5.1300    0.0000 F   0  0  0
  -12.8120    6.6330    0.0000 F   0  0  0
  2  1  1
  1  3  1
  2  4  1
  2  5  1
  3  6  1
  4  7  2
  4  8  1
  6  9  2
  8 10  1
 10 11  1
 11 12  2
 11 13  1
 13 14  1
 14 15  2
 14 16  1
 15 17  1
 16 18  2
 17 19  2
 19 20  1
 20 21  1
 21 22  1
 21 23  1
 21 24  1
  6  8  1
 18 19  1
M  END
> <Acceptor>
4

> <CAS>
868216-12-0

> <Chemical_Name>
2-(2-methyl-3,5-dioxothiomorpholino)-N-(4-(trifluoromethoxy)phenyl)acetamide

> <Collection>
General

> <Description>
solid

> <Donor>
1

> <FSP3>
0.36

> <HAC>
24

> <IDNUMBER>
F1800-0193

> <MW>
362.32

> <PriceCoeff>
1.

> <RotBonds>
4

> <TPSA>
101.01

> <clogP>
3.16

$$$$
F0466-0054
  MOLSOFT 10261716012D

 27 29  0  0  0  0  0  0  0  0999 V2000
    0.0000    0.0000    0.0000 Cl  0  0  0
    0.9800   -0.8710    0.0000 C   0  0  0
    0.4840   -2.2630    0.0000 C   0  0  0
    2.3970   -0.4960    0.0000 C   0  0  0
   -1.0050   -2.5420    0.0000 N   0  0  0
    1.4890   -3.3770    0.0000 C   0  0  0
    3.4980   -1.6100    0.0000 C   0  0  0
   -1.4770   -4.0060    0.0000 C   0  0  0
    2.9530   -3.0740    0.0000 C   0  0  0
   -0.4960   -5.0600    0.0000 O   0  0  0
   -3.0260   -4.3570    0.0000 C   0  0  0
    3.8370   -4.2240    0.0000 C   0  0  0
   -4.1030   -3.2320    0.0000 C   0  0  0
   -3.4620   -5.7490    0.0000 C   0  0  0
    3.3040   -5.6890    0.0000 F   0  0  0
    5.1930   -3.9460    0.0000 F   0  0  0
    4.8050   -5.3020    0.0000 F   0  0  0
   -5.5920   -3.6310    0.0000 C   0  0  0
   -4.9510   -6.1730    0.0000 C   0  0  0
   -6.6690   -2.6270    0.0000 N   0  0  0
   -6.0160   -5.0350    0.0000 C   0  0  0
   -8.1940   -2.8690    0.0000 C   0  0  0
   -6.4640   -1.1380    0.0000 C   0  0  0
   -8.8360   -4.3090    0.0000 O   0  0  0
   -8.8360   -1.5250    0.0000 C   0  0  0
   -5.1080   -0.4720    0.0000 O   0  0  0
   -7.8070   -0.4720    0.0000 C   0  0  0
  1  2  1
  2  3  2
  2  4  1
  3  5  1
  3  6  1
  4  7  2
  5  8  1
  6  9  2
  8 10  2
  8 11  1
  9 12  1
 11 13  2
 11 14  1
 12 15  1
 12 16  1
 12 17  1
 13 18  1
 14 19  2
 18 20  1
 18 21  2
 20 22  1
 20 23  1
 22 24  2
 22 25  1
 23 26  2
 23 27  1
  7  9  1
 19 21  1
 25 27  1
M  END
> <Acceptor>
3

> <CAS>
391867-80-4

> <Chemical_Name>
N-(2-chloro-5-(trifluoromethyl)phenyl)-3-(2,5-dioxopyrrolidin-1-yl)benzamide

> <Collection>
General

> <Description>
solid

> <Donor>
1

> <FSP3>
0.17

> <HAC>
27

> <IDNUMBER>
F0466-0054

> <MW>
396.75

> <PriceCoeff>
1.

> <RotBonds>
3

> <TPSA>
66.48

> <clogP>
2.08

$$$$
F2189-0119
  MOLSOFT 10261716012D

 22 24  0  0  0  0  0  0  0  0999 V2000
    0.0000    0.0000    0.0000 Br  0  0  0
    1.2900    0.7650    0.0000 C   0  0  0
    1.2780    2.2820    0.0000 C   0  0  0
    2.5810    0.0240    0.0000 C   0  0  0
    2.5690    3.0470    0.0000 C   0  0  0
    3.8710    0.7890    0.0000 C   0  0  0
    3.8590    2.3060    0.0000 C   0  0  0
    5.1500    3.0830    0.0000 C   0  0  0
    6.4520    2.3540    0.0000 C   0  0  0
    5.1380    4.6000    0.0000 C   0  0  0
    7.7430    3.1070    0.0000 C   0  0  0
    6.4400    5.3650    0.0000 C   0  0  0
    9.0330    2.3660    0.0000 O   0  0  0
    7.7310    4.6240    0.0000 N   0  0  0
    6.4160    6.8820    0.0000 O   0  0  0
    9.0210    5.3890    0.0000 C   0  0  0
   10.3120    4.6480    0.0000 C   0  0  0
   11.6020    5.4130    0.0000 C   0  0  0
   10.3000    3.1540    0.0000 C   0  0  0
   12.8930    4.6840    0.0000 C   0  0  0
   11.5900    2.4140    0.0000 C   0  0  0
   12.8810    3.1780    0.0000 C   0  0  0
  1  2  1
  2  3  2
  2  4  1
  3  5  1
  4  6  2
  5  7  2
  7  8  1
  8  9  1
  8 10  1
  9 11  1
 10 12  1
 11 13  2
 11 14  1
 12 15  2
 14 16  1
 16 17  1
 17 18  2
 17 19  1
 18 20  1
 19 21  2
 20 22  2
  6  7  1
 12 14  1
 21 22  1
M  END
> <Acceptor>
2

> <CAS>
68031-10-7

> <Chemical_Name>
1-benzyl-4-(4-bromophenyl)piperidine-2,6-dione

> <Collection>
General

> <Description>
solid

> <Donor>
0

> <FSP3>
0.22

> <HAC>
22

> <IDNUMBER>
F2189-0119

> <MW>
358.23

> <PriceCoeff>
1.

> <RotBonds>
3

> <TPSA>
37.38

> <clogP>
3.95

$$$$
F0440-0342
  MOLSOFT 10261716012D

 25 27  0  0  0  0  0  0  0  0999 V2000
    0.0000    0.0000    0.0000 S   0  0  0
    0.8060   -1.1310    0.0000 C   0  0  0
   -1.4680   -0.4690    0.0000 C   0  0  0
   -0.0240   -2.3470    0.0000 N   0  0  0
    2.2870   -0.9870    0.0000 N   0  0  0
   -1.4800   -1.8900    0.0000 C   0  0  0
    2.9850    0.3730    0.0000 C   0  0  0
   -2.8050   -2.6840    0.0000 C   0  0  0
    2.0940    1.6130    0.0000 O   0  0  0
    4.4540    0.4570    0.0000 C   0  0  0
   -4.1170   -1.8660    0.0000 C   0  0  0
   -2.8170   -4.1530    0.0000 C   0  0  0
    5.0920    1.8180    0.0000 N   0  0  0
   -5.4290   -2.6600    0.0000 C   0  0  0
   -4.1290   -0.3490    0.0000 C   0  0  0
   -4.1290   -4.8990    0.0000 C   0  0  0
   -1.4800   -4.9110    0.0000 C   0  0  0
    4.5740    3.2620    0.0000 C   0  0  0
    6.6080    1.9380    0.0000 C   0  0  0
   -5.4410   -4.1290    0.0000 C   0  0  0
    3.0690    3.6830    0.0000 O   0  0  0
    5.7170    4.1650    0.0000 C   0  0  0
    7.5470    0.8180    0.0000 O   0  0  0
    6.9330    3.3820    0.0000 C   0  0  0
   -6.7650   -4.8870    0.0000 C   0  0  0
  1  2  1
  1  3  1
  2  4  2
  2  5  1
  3  6  2
  5  7  1
  6  8  1
  7  9  2
  7 10  1
  8 11  2
  8 12  1
 10 13  1
 11 14  1
 11 15  1
 12 16  2
 12 17  1
 13 18  1
 13 19  1
 14 20  2
 18 21  2
 18 22  1
 19 23  2
 19 24  1
 20 25  1
  4  6  1
 16 20  1
 22 24  1
M  END
> <Acceptor>
4

> <CAS>
361167-73-9

> <Chemical_Name>
2-(2,5-dioxopyrrolidin-1-yl)-N-(4-mesitylthiazol-2-yl)acetamide

> <Collection>
General

> <Description>
solid

> <Donor>
1

> <FSP3>
0.33

> <HAC>
25

> <IDNUMBER>
F0440-0342

> <MW>
357.43

> <PriceCoeff>
1.

> <RotBonds>
4

> <TPSA>
107.61

> <clogP>
2.84

$$$$
F3188-0032
  MOLSOFT 10261716012D

 28 30  0  0  0  0  0  0  0  0999 V2000
    0.0000    0.0000    0.0000 F   0  0  0
   -0.7590   -1.2930    0.0000 C   0  0  0
   -2.2780   -1.2820    0.0000 F   0  0  0
   -0.0240   -2.5870    0.0000 O   0  0  0
   -0.7710   -3.8810    0.0000 C   0  0  0
   -0.0360   -5.1740    0.0000 C   0  0  0
   -2.2900   -3.8810    0.0000 C   0  0  0
    1.4600   -5.1620    0.0000 N   0  0  0
   -0.7950   -6.4800    0.0000 C   0  0  0
   -3.0500   -5.1740    0.0000 C   0  0  0
    2.3500   -6.3610    0.0000 C   0  0  0
    2.3260   -3.9160    0.0000 C   0  0  0
   -2.3020   -6.4800    0.0000 C   0  0  0
    1.8750   -7.7850    0.0000 O   0  0  0
    3.7740   -5.8740    0.0000 C   0  0  3
    1.8510   -2.4800    0.0000 O   0  0  0
    3.7500   -4.3550    0.0000 C   0  0  0
    4.9720   -6.7410    0.0000 N   0  0  0
    6.3250   -6.1120    0.0000 C   0  0  0
    4.8060   -8.2360    0.0000 C   0  0  0
    7.5360   -6.9780    0.0000 C   0  0  0
    6.0050   -9.1020    0.0000 C   0  0  0
    7.3810   -8.4730    0.0000 N   0  0  0
    8.5920   -9.3400    0.0000 C   0  0  0
    9.9450   -8.7220    0.0000 O   0  0  0
    8.4260  -10.8230    0.0000 O   0  0  0
    7.0490  -11.4280    0.0000 C   0  0  0
    6.8830  -12.9230    0.0000 C   0  0  0
  1  2  1
  2  3  1
  2  4  1
  4  5  1
  5  6  2
  5  7  1
  6  8  1
  6  9  1
  7 10  2
  8 11  1
  8 12  1
  9 13  2
 11 14  2
 15 11  1
 12 16  2
 12 17  1
 15 18  1
 18 19  1
 18 20  1
 19 21  1
 20 22  1
 21 23  1
 23 24  1
 24 25  2
 24 26  1
 26 27  1
 27 28  1
 10 13  1
 15 17  1
 22 23  1
M  END
> <Acceptor>
5

> <CAS>
857494-07-6

> <Chemical_Name>
ethyl 4-(1-(2-(difluoromethoxy)phenyl)-2,5-dioxopyrrolidin-3-yl)piperazine-1-carboxylate

> <Collection>
General

> <Description>
solid

> <Donor>
1

> <FSP3>
0.5

> <HAC>
28

> <IDNUMBER>
F3188-0032

> <MW>
397.37

> <PriceCoeff>
1.

> <RotBonds>
7

> <TPSA>
79.39

> <clogP>
2.91

$$$$
F2806-0037
  MOLSOFT 10261716012D

 25 28  0  0  0  0  0  0  0  0999 V2000
    0.0000    0.0000    0.0000 S   0  0  0
    1.2280   -0.8710    0.0000 C   0  0  0
   -1.1570   -0.8470    0.0000 C   0  0  0
    0.7390   -2.3020    0.0000 C   0  0  0
    2.6830   -0.5600    0.0000 C   0  0  0
   -0.7630   -2.3020    0.0000 N   0  0  0
    1.7410   -3.4110    0.0000 C   0  0  0
    3.6850   -1.6700    0.0000 C   0  0  0
    3.2080   -3.0890    0.0000 C   0  0  0
    5.1520   -1.3480    0.0000 N   0  0  0
    6.1540   -2.4570    0.0000 C   0  0  0
    5.6650   -3.8880    0.0000 O   0  0  0
    7.6210   -2.1230    0.0000 C   0  0  0
    8.6110   -3.2320    0.0000 C   0  0  0
    8.0860   -0.6680    0.0000 C   0  0  0
   10.0770   -2.9100    0.0000 C   0  0  0
    9.5530   -0.3580    0.0000 C   0  0  0
   10.5430   -1.4790    0.0000 C   0  0  0
   12.0100   -1.1570    0.0000 N   0  0  0
   12.5580    0.2500    0.0000 C   0  0  0
   13.1540   -2.1110    0.0000 C   0  0  0
   11.7470    1.5620    0.0000 O   0  0  0
   14.0610    0.1430    0.0000 C   0  0  0
   13.0470   -3.6140    0.0000 O   0  0  0
   14.4070   -1.3000    0.0000 C   0  0  0
  1  2  1
  1  3  1
  2  4  2
  2  5  1
  3  6  2
  4  7  1
  5  8  2
  7  9  2
  8 10  1
 10 11  1
 11 12  2
 11 13  1
 13 14  2
 13 15  1
 14 16  1
 15 17  2
 16 18  2
 18 19  1
 19 20  1
 19 21  1
 20 22  2
 20 23  1
 21 24  2
 21 25  1
  4  6  1
  8  9  1
 17 18  1
 23 25  1
M  END
> <Acceptor>
4

> <CAS>
922920-12-5

> <Chemical_Name>
N-(benzo[d]thiazol-6-yl)-4-(2,5-dioxopyrrolidin-1-yl)benzamide

> <Collection>
General

> <Description>
solid

> <Donor>
1

> <FSP3>
0.11

> <HAC>
25

> <IDNUMBER>
F2806-0037

> <MW>
351.38

> <PriceCoeff>
1.

> <RotBonds>
3

> <TPSA>
107.61

> <clogP>
1.4

$$$$
F1786-0002
  MOLSOFT 10261716012D

 18 19  0  0  0  0  0  0  0  0999 V2000
    0.0000    0.0000    0.0000 Cl  0  0  0
    0.7830   -1.2690    0.0000 C   0  0  0
    2.2780   -1.1860    0.0000 C   0  0  0
    0.0590   -2.5860    0.0000 C   0  0  0
    2.9780    0.1540    0.0000 O   0  0  0
    3.0610   -2.4560    0.0000 C   0  0  0
    0.8660   -3.8560    0.0000 C   0  0  0
    4.5560   -2.3730    0.0000 S   0  0  0
    2.3610   -3.7850    0.0000 C   0  0  0
    0.1540   -5.1850    0.0000 Cl  0  0  0
    4.5200   -0.8540    0.0000 O   0  0  0
    4.5910   -3.8680    0.0000 O   0  0  0
    6.0510   -2.3610    0.0000 N   0  0  0
    6.7860   -1.0440    0.0000 C   0  0  0
    6.7860   -3.6540    0.0000 C   0  0  0
    8.2810   -1.0320    0.0000 C   0  0  0
    8.2690   -3.6420    0.0000 C   0  0  0
    9.0290   -2.3250    0.0000 C   0  0  0
  1  2  1
  2  3  2
  2  4  1
  3  5  1
  3  6  1
  4  7  2
  6  8  1
  6  9  2
  7 10  1
  8 11  2
  8 12  2
  8 13  1
 13 14  1
 13 15  1
 14 16  1
 15 17  1
 16 18  1
  7  9  1
 17 18  1
M  END
> <Acceptor>
3

> <CAS>
55414-80-7

> <Chemical_Name>
2,4-dichloro-6-(piperidin-1-ylsulfonyl)phenol

> <Collection>
General

> <Description>
solid

> <Donor>
1

> <FSP3>
0.45

> <HAC>
18

> <IDNUMBER>
F1786-0002

> <MW>
310.2

> <PriceCoeff>
1.

> <RotBonds>
2

> <TPSA>
65.99

> <clogP>
3.88

$$$$
F1675-0067
  MOLSOFT 10261716012D

 21 22  0  0  0  0  0  0  0  0999 V2000
    0.0000    0.0000    0.0000 Cl  0  0  0
    0.7710   -1.2810    0.0000 C   0  0  0
    2.2650   -1.2220    0.0000 C   0  0  0
    0.0470   -2.5740    0.0000 C   0  0  0
    2.9770    0.1190    0.0000 O   0  0  0
    3.0480   -2.4910    0.0000 C   0  0  0
    0.8070   -3.8670    0.0000 C   0  0  0
    4.5430   -2.4430    0.0000 S   0  0  0
    2.3010   -3.8070    0.0000 C   0  0  0
    0.0830   -5.1830    0.0000 Cl  0  0  0
    4.5550   -3.9380    0.0000 O   0  0  0
    4.5070   -0.9250    0.0000 O   0  0  0
    6.0370   -2.4310    0.0000 N   0  0  0
    6.7730   -1.1030    0.0000 C   0  0  0
    6.7730   -3.7240    0.0000 C   0  0  0
    8.2670   -1.1030    0.0000 C   0  0  3
    8.2550   -3.7120    0.0000 C   0  0  0
    9.0020    0.2130    0.0000 C   0  0  0
    8.9910   -2.3960    0.0000 C   0  0  0
    8.2430    1.5420    0.0000 O   0  0  0
   10.4970    0.2130    0.0000 O   0  0  0
  1  2  1
  2  3  2
  2  4  1
  3  5  1
  3  6  1
  4  7  2
  6  8  1
  6  9  2
  7 10  1
  8 11  2
  8 12  2
  8 13  1
 13 14  1
 13 15  1
 16 14  1
 15 17  1
 16 18  1
 16 19  1
 18 20  2
 18 21  1
  7  9  1
 17 19  1
M  END
> <Acceptor>
5

> <CAS>
630049-61-5

> <Chemical_Name>
1-((3,5-dichloro-2-hydroxyphenyl)sulfonyl)piperidine-3-carboxylic acid

> <Collection>
General

> <Description>
solid

> <Donor>
1

> <FSP3>
0.42

> <HAC>
21

> <IDNUMBER>
F1675-0067

> <MW>
354.21

> <PriceCoeff>
1.

> <RotBonds>
3

> <TPSA>
103.29

> <clogP>
3.09

$$$$
F2019-0987
  MOLSOFT 10261716012D

 28 29  0  0  0  0  0  0  0  0999 V2000
    0.0000    0.0000    0.0000 Cl  0  0  0
  -10.1170    3.4040    0.0000 S   0  0  0
   -9.9760    1.9150    0.0000 C   0  0  0
  -11.6070    3.7110    0.0000 C   0  0  0
  -11.3580    1.3120    0.0000 N   0  0  0
   -8.6750    1.1580    0.0000 N   0  0  0
  -12.3630    2.4110    0.0000 C   0  0  0
  -12.3630    4.9880    0.0000 C   0  0  0
   -7.3870    1.9380    0.0000 C   0  0  0
   -8.6870   -0.3310    0.0000 C   0  0  0
  -13.8640    2.4230    0.0000 C   0  0  0
  -13.8760    5.0000    0.0000 C   0  0  0
   -7.3990    3.4390    0.0000 O   0  0  0
   -6.0990    1.1820    0.0000 C   0  0  0
  -10.0110   -1.0640    0.0000 C   0  0  0
  -14.6440    3.7230    0.0000 C   0  0  0
  -14.6440    1.1350    0.0000 C   0  0  0
   -4.8100    1.9620    0.0000 N   0  0  0
  -10.0230   -2.5530    0.0000 C   0  0  0
   -4.6690    3.4630    0.0000 C   0  0  0
   -3.4630    1.3590    0.0000 C   0  0  0
  -11.3350   -3.2860    0.0000 N   0  0  0
   -5.7680    4.4560    0.0000 O   0  0  0
   -3.2150    3.7820    0.0000 C   0  0  0
   -3.1560   -0.1060    0.0000 O   0  0  0
   -2.4580    2.4820    0.0000 C   0  0  0
  -12.6470   -2.5290    0.0000 C   0  0  0
  -11.3470   -4.7750    0.0000 C   0  0  0
  2  3  1
  2  4  1
  3  5  2
  3  6  1
  4  7  2
  4  8  1
  6  9  1
  6 10  1
  7 11  1
  8 12  2
  9 13  2
  9 14  1
 10 15  1
 11 16  2
 11 17  1
 14 18  1
 15 19  1
 18 20  1
 18 21  1
 19 22  1
 20 23  2
 20 24  1
 21 25  2
 21 26  1
 22 27  1
 22 28  1
  5  7  1
 12 16  1
 24 26  1
M  END
> <Acceptor>
4

> <CAS>
1215660-90-4

> <Chemical_Name>
N-(3-(dimethylamino)propyl)-2-(2,5-dioxopyrrolidin-1-yl)-N-(4-methylbenzo[d]thiazol-2-yl)acetamide hydrochloride

> <Collection>
General

> <Description>
solid

> <Donor>
1

> <FSP3>
0.47

> <HAC>
27

> <IDNUMBER>
F2019-0987

> <MW>
388.48

> <PriceCoeff>
1.

> <RotBonds>
8

> <TPSA>
102.06

> <clogP>
2.04

$$$$
F3115-0087
  MOLSOFT 10261716012D

 28 30  0  0  0  0  0  0  0  0999 V2000
    0.0000    0.0000    0.0000 O   0  0  0
    0.4410    1.4430    0.0000 C   0  0  0
   -0.4530    2.6600    0.0000 N   0  0  0
    1.8610    1.9200    0.0000 C   0  0  3
   -1.9680    2.6720    0.0000 C   0  0  0
    0.4170    3.9000    0.0000 C   0  0  0
    3.0540    1.0730    0.0000 N   0  0  0
    1.8370    3.4470    0.0000 C   0  0  0
   -2.7200    1.3720    0.0000 C   0  0  0
   -2.7320    3.9840    0.0000 C   0  0  0
   -0.0600    5.3320    0.0000 O   0  0  0
    4.4010    1.6940    0.0000 C   0  0  0
    2.8870   -0.4170    0.0000 C   0  0  0
   -4.2230    1.3720    0.0000 C   0  0  0
   -4.2460    3.9960    0.0000 C   0  0  0
    5.6060    0.8350    0.0000 C   0  0  0
    4.0910   -1.2760    0.0000 C   0  0  0
   -5.0100    2.6840    0.0000 C   0  0  0
    5.4390   -0.6560    0.0000 N   0  0  0
   -6.5250    2.6960    0.0000 N   0  0  0
    6.6320   -1.5270    0.0000 C   0  0  0
   -7.2760    1.3960    0.0000 C   0  0  0
    7.9800   -0.9060    0.0000 O   0  0  0
    6.4770   -3.0060    0.0000 O   0  0  0
   -6.5250    0.1070    0.0000 O   0  0  0
   -8.7910    1.3960    0.0000 C   0  0  0
    7.6820   -3.8650    0.0000 C   0  0  0
    7.5150   -5.3560    0.0000 C   0  0  0
  1  2  2
  2  3  1
  4  2  1
  3  5  1
  3  6  1
  4  7  1
  4  8  1
  5  9  2
  5 10  1
  6 11  2
  7 12  1
  7 13  1
  9 14  1
 10 15  2
 12 16  1
 13 17  1
 14 18  2
 16 19  1
 18 20  1
 19 21  1
 20 22  1
 21 23  2
 21 24  1
 22 25  2
 22 26  1
 24 27  1
 27 28  1
  6  8  1
 15 18  1
 17 19  1
M  END
> <Acceptor>
5

> <CAS>
847239-30-9

> <Chemical_Name>
ethyl 4-(1-(4-acetamidophenyl)-2,5-dioxopyrrolidin-3-yl)piperazine-1-carboxylate

> <Collection>
General

> <Description>
solid

> <Donor>
2

> <FSP3>
0.47

> <HAC>
28

> <IDNUMBER>
F3115-0087

> <MW>
388.42

> <PriceCoeff>
1.

> <RotBonds>
6

> <TPSA>
99.26

> <clogP>
1.4

$$$$
F3325-0024
  MOLSOFT 10261716012D

 20 21  0  0  0  0  0  0  0  0999 V2000
    0.0000    0.0000    0.0000 S   0  0  0
    1.2980    0.7670    0.0000 C   0  0  0
   -1.3100    0.7670    0.0000 C   0  0  3
    1.2980    2.2770    0.0000 N   0  0  0
    2.5840    0.0120    0.0000 C   0  0  0
   -2.7370    0.3300    0.0000 C   0  0  0
   -1.3100    2.2770    0.0000 C   0  0  0
    2.5840    3.0200    0.0000 C   0  0  0
    2.5600   -1.4750    0.0000 C   0  0  0
    3.8700    0.7790    0.0000 C   0  0  0
   -3.2210   -1.0850    0.0000 O   0  0  0
   -3.6220    1.5460    0.0000 N   0  0  0
   -2.7490    2.7490    0.0000 C   0  0  0
    3.8580    2.3010    0.0000 C   0  0  0
    3.8460   -2.1950    0.0000 O   0  0  0
    1.2510   -2.1950    0.0000 O   0  0  0
   -5.1320    1.5570    0.0000 C   0  0  0
   -3.2330    4.1890    0.0000 O   0  0  0
   -5.8760    2.8670    0.0000 C   0  0  0
   -7.3860    2.8790    0.0000 C   0  0  0
  1  2  1
  3  1  1
  2  4  2
  2  5  1
  3  6  1
  3  7  1
  4  8  1
  5  9  1
  5 10  2
  6 11  2
  6 12  1
  7 13  1
  8 14  2
  9 15  2
  9 16  1
 12 17  1
 13 18  2
 17 19  1
 19 20  2
 10 14  1
 12 13  1
M  END
> <Acceptor>
5

> <CAS>
881483-81-4

> <Chemical_Name>
2-((1-allyl-2,5-dioxopyrrolidin-3-yl)thio)nicotinic acid

> <Collection>
General

> <Description>
solid

> <Donor>
1

> <FSP3>
0.23

> <HAC>
20

> <IDNUMBER>
F3325-0024

> <MW>
292.31

> <PriceCoeff>
1.

> <RotBonds>
5

> <TPSA>
112.87

> <clogP>
1.45

$$$$
F1799-0540
  MOLSOFT 10261716012D

 18 19  0  0  0  0  0  0  0  0999 V2000
    0.0000    0.0000    0.0000 S   0  0  0
    1.3030   -0.8080    0.0000 C   0  0  3
   -0.0120    1.5080    0.0000 C   0  0  0
    2.6910   -0.2530    0.0000 C   0  0  0
    1.3880   -2.2570    0.0000 C   0  0  0
   -1.3270    2.2570    0.0000 C   0  0  0
    3.0770    1.2310    0.0000 O   0  0  0
    3.6080   -1.4240    0.0000 N   0  0  0
    2.8000   -2.6310    0.0000 C   0  0  0
   -1.3030    3.7890    0.0000 O   0  0  0
   -2.5940    1.5320    0.0000 O   0  0  0
    5.1290   -1.4120    0.0000 C   0  0  0
    3.2700   -4.0550    0.0000 O   0  0  0
    5.9010   -2.6430    0.0000 C   0  0  0
    5.8530   -0.0360    0.0000 C   0  0  0
    7.4210   -2.5820    0.0000 C   0  0  0
    7.3370    0.0120    0.0000 C   0  0  0
    8.1690   -1.2790    0.0000 C   0  0  0
  2  1  1
  1  3  1
  2  4  1
  2  5  1
  3  6  1
  4  7  2
  4  8  1
  5  9  1
  6 10  2
  6 11  1
  8 12  1
  9 13  2
 12 14  2
 12 15  1
 14 16  1
 15 17  2
 16 18  2
  8  9  1
 17 18  1
M  END
> <Acceptor>
4

> <Chemical_Name>
2-((2,5-dioxo-1-phenylpyrrolidin-3-yl)thio)acetic acid

> <Collection>
Advanced

> <Description>
solid

> <Donor>
0

> <FSP3>
0.25

> <HAC>
18

> <IDNUMBER>
F1799-0540

> <MW>
265.29

> <PriceCoeff>
1.5

> <RotBonds>
4

> <TPSA>
99.98

> <clogP>
0.92

$$$$
F1813-1163
  MOLSOFT 10261716012D

 27 30  0  0  0  0  0  0  0  0999 V2000
    0.0000    0.0000    0.0000 S   0  0  0
    1.3460   -0.5770    0.0000 C   0  0  0
   -1.0340   -1.0940    0.0000 C   0  0  0
    1.1780   -2.0670    0.0000 N   0  0  0
    2.6320    0.1560    0.0000 N   0  0  0
   -0.2880   -2.3920    0.0000 C   0  0  0
   -2.5240   -1.0820    0.0000 C   0  0  0
    3.9190   -0.5650    0.0000 C   0  0  0
   -1.0340   -3.6780    0.0000 C   0  0  0
   -3.3060   -2.3680    0.0000 C   0  0  0
    3.9070   -2.0430    0.0000 O   0  0  0
    5.2050    0.2040    0.0000 C   0  0  0
   -0.2880   -4.9640    0.0000 F   0  0  0
   -2.5720   -3.6660    0.0000 C   0  0  0
   -4.8200   -2.3680    0.0000 F   0  0  0
    6.4910   -0.5170    0.0000 C   0  0  0
    5.2050    1.7310    0.0000 C   0  0  0
    7.7770    0.2160    0.0000 C   0  0  0
    6.5030    2.5000    0.0000 C   0  0  0
    7.8010    1.7310    0.0000 C   0  0  0
    9.1000    2.4880    0.0000 N   0  0  0
    9.1960    4.0150    0.0000 C   0  0  0
   10.4820    1.9590    0.0000 C   0  0  0
    8.0060    5.0250    0.0000 O   0  0  0
   10.6500    4.3870    0.0000 C   0  0  0
   10.8300    0.4930    0.0000 O   0  0  0
   11.4320    3.1130    0.0000 C   0  0  0
  1  2  1
  1  3  1
  2  4  2
  2  5  1
  3  6  2
  3  7  1
  5  8  1
  6  9  1
  7 10  2
  8 11  2
  8 12  1
  9 13  1
  9 14  2
 10 15  1
 12 16  2
 12 17  1
 16 18  1
 17 19  2
 18 20  2
 20 21  1
 21 22  1
 21 23  1
 22 24  2
 22 25  1
 23 26  2
 23 27  1
  4  6  1
 10 14  1
 19 20  1
 25 27  1
M  END
> <Acceptor>
4

> <CAS>
897759-76-1

> <Chemical_Name>
N-(4,6-difluorobenzo[d]thiazol-2-yl)-4-(2,5-dioxopyrrolidin-1-yl)benzamide

> <Collection>
General

> <Description>
solid

> <Donor>
1

> <FSP3>
0.11

> <HAC>
27

> <IDNUMBER>
F1813-1163

> <MW>
387.36

> <PriceCoeff>
1.

> <RotBonds>
3

> <TPSA>
107.61

> <clogP>
1.92

$$$$
F3316-0241
  MOLSOFT 10261716012D

 23 24  0  0  0  0  0  0  0  0999 V2000
    0.0000    0.0000    0.0000 Cl  0  0  0
    0.0000   -1.5000    0.0000 C   0  0  0
   -1.2740   -2.3090    0.0000 C   0  0  0
    1.1550   -2.4400    0.0000 C   0  0  0
   -0.8930   -3.7610    0.0000 N   0  0  0
   -2.7500   -1.9040    0.0000 C   0  0  0
    0.6070   -3.8330    0.0000 N   0  0  0
    2.6070   -2.0240    0.0000 C   0  0  0
    1.3330   -5.1300    0.0000 C   0  0  0
    2.8330   -5.1180    0.0000 C   0  0  0
    3.5710   -6.4160    0.0000 N   0  0  0
    5.0710   -6.4040    0.0000 S   0  0  0
    5.0470   -4.8800    0.0000 O   0  0  0
    5.0470   -7.9040    0.0000 O   0  0  0
    6.5710   -6.3920    0.0000 C   0  0  0
    7.2970   -7.6890    0.0000 C   0  0  0
    7.3090   -5.0950    0.0000 C   0  0  0
    8.7850   -7.6780    0.0000 C   0  0  0
    6.5350   -8.9870    0.0000 C   0  0  0
    8.7850   -5.0830    0.0000 C   0  0  0
    6.5230   -3.7730    0.0000 C   0  0  0
    9.5230   -6.3800    0.0000 C   0  0  0
   11.0100   -6.3680    0.0000 C   0  0  0
  1  2  1
  2  3  1
  2  4  2
  3  5  2
  3  6  1
  4  7  1
  4  8  1
  7  9  1
  9 10  1
 10 11  1
 11 12  1
 12 13  2
 12 14  2
 12 15  1
 15 16  2
 15 17  1
 16 18  1
 16 19  1
 17 20  2
 17 21  1
 18 22  2
 22 23  1
  5  7  1
 20 22  1
M  END
> <Acceptor>
3

> <CAS>
1013991-31-5

> <Chemical_Name>
N-(2-(4-chloro-3,5-dimethyl-1H-pyrazol-1-yl)ethyl)-2,4,6-trimethylbenzenesulfonamide

> <Collection>
General

> <Description>
solid

> <Donor>
1

> <FSP3>
0.44

> <HAC>
23

> <IDNUMBER>
F3316-0241

> <MW>
355.88

> <PriceCoeff>
1.

> <RotBonds>
5

> <TPSA>
72.37

> <clogP>
4.12

$$$$
F3205-0026
  MOLSOFT 10261716012D

 20 21  0  0  0  0  0  0  0  0999 V2000
    0.0000    0.0000    0.0000 S   0  0  0
    1.3460    0.6260    0.0000 C   0  0  0
   -1.2160    0.8860    0.0000 C   0  0  3
    2.5510   -0.2240    0.0000 C   0  0  0
    1.4760    2.1260    0.0000 C   0  0  0
   -2.6570    0.4250    0.0000 C   0  0  0
   -1.2400    2.3970    0.0000 C   0  0  0
    2.3850   -1.7120    0.0000 C   0  0  0
    3.8970    0.4010    0.0000 C   0  0  0
    2.8220    2.7630    0.0000 C   0  0  0
   -3.1180   -0.9800    0.0000 O   0  0  0
   -3.5550    1.6530    0.0000 N   0  0  0
   -2.6810    2.8580    0.0000 C   0  0  0
    3.6020   -2.5860    0.0000 O   0  0  0
    1.0160   -2.3260    0.0000 O   0  0  0
    4.0270    1.9010    0.0000 C   0  0  0
   -5.0660    1.6530    0.0000 C   0  0  0
   -3.1650    4.2990    0.0000 O   0  0  0
   -5.9520    0.4370    0.0000 C   0  0  0
   -7.3930    0.8970    0.0000 C   0  0  0
  1  2  1
  3  1  1
  2  4  2
  2  5  1
  3  6  1
  3  7  1
  4  8  1
  4  9  1
  5 10  2
  6 11  2
  6 12  1
  7 13  1
  8 14  2
  8 15  1
  9 16  2
 12 17  1
 13 18  2
 17 19  1
 19 20  2
 10 16  1
 12 13  1
M  END
> <Acceptor>
4

> <CAS>
881483-57-4

> <Chemical_Name>
2-((1-allyl-2,5-dioxopyrrolidin-3-yl)thio)benzoic acid

> <Collection>
General

> <Description>
solid

> <Donor>
0

> <FSP3>
0.21

> <HAC>
20

> <IDNUMBER>
F3205-0026

> <MW>
291.32

> <PriceCoeff>
1.

> <RotBonds>
5

> <TPSA>
99.98

> <clogP>
2.01

$$$$
F1591-0812
  MOLSOFT 10261716012D

 31 34  0  0  0  0  0  0  0  0999 V2000
    0.0000    0.0000    0.0000 S   0  0  0
   -0.3850   -1.7380    0.0000 O   0  0  0
    0.2140    1.8240    0.0000 O   0  0  0
   -1.4390    0.3990    0.0000 N   0  0  0
    1.4670   -0.0140    0.0000 C   0  0  0
   -1.8240    1.8520    0.0000 C   0  0  0
   -2.5070   -0.6270    0.0000 C   0  0  0
    2.1940    1.2820    0.0000 C   0  0  0
    2.1940   -1.2820    0.0000 C   0  0  0
   -3.2630    2.2650    0.0000 C   0  0  0
   -3.9610   -0.1990    0.0000 C   0  0  0
    3.6620    1.2960    0.0000 C   0  0  0
    3.6470   -1.2820    0.0000 C   0  0  0
   -4.3450    1.2390    0.0000 O   0  0  0
    4.3880    0.0280    0.0000 C   0  0  0
    5.8560    0.0280    0.0000 N   0  0  0
    6.5960   -1.2390    0.0000 C   0  0  0
    5.8270   -2.5220    0.0000 O   0  0  0
    8.0640   -1.2250    0.0000 C   0  0  0
    8.7910    0.0710    0.0000 C   0  0  0
    8.7910   -2.5070    0.0000 C   0  0  0
   10.2440    0.1000    0.0000 C   0  0  0
   10.2580   -2.4930    0.0000 C   0  0  0
   10.9850   -1.1820    0.0000 C   0  0  0
   12.4520   -1.1680    0.0000 N   0  0  0
   13.3070    0.0570    0.0000 C   0  0  0
   13.3070   -2.3510    0.0000 C   0  0  0
   12.8230    1.4960    0.0000 O   0  0  0
   14.7180   -0.3850    0.0000 C   0  0  0
   12.8370   -3.7330    0.0000 O   0  0  0
   14.7180   -1.8660    0.0000 C   0  0  0
  1  2  2
  1  3  2
  1  4  1
  1  5  1
  4  6  1
  4  7  1
  5  8  2
  5  9  1
  6 10  1
  7 11  1
  8 12  1
  9 13  2
 10 14  1
 12 15  2
 15 16  1
 16 17  1
 17 18  2
 17 19  1
 19 20  2
 19 21  1
 20 22  1
 21 23  2
 22 24  2
 24 25  1
 25 26  1
 25 27  1
 26 28  2
 26 29  1
 27 30  2
 27 31  1
 11 14  1
 13 15  1
 23 24  1
 29 31  1
M  END
> <Acceptor>
6

> <CAS>
781656-74-4

> <Chemical_Name>
4-(2,5-dioxopyrrolidin-1-yl)-N-(4-(morpholinosulfonyl)phenyl)benzamide

> <Collection>
General

> <Description>
solid

> <Donor>
1

> <FSP3>
0.29

> <HAC>
31

> <IDNUMBER>
F1591-0812

> <MW>
443.47

> <PriceCoeff>
1.

> <RotBonds>
5

> <TPSA>
121.47

> <clogP>
0.39

$$$$
F2368-3114
  MOLSOFT 10261716012D

 31 34  0  0  0  0  0  0  0  0999 V2000
    0.0000    0.0000    0.0000 S   0  0  0
    0.1420    1.4990    0.0000 C   0  0  0
   -1.3690   -0.6020    0.0000 C   0  0  0
    1.5110    2.1130    0.0000 C   0  0  0
   -1.0740    2.3960    0.0000 C   0  0  0
   -1.5340   -2.0770    0.0000 C   0  0  0
    1.6520    3.6120    0.0000 C   0  0  0
   -0.9320    3.8950    0.0000 C   0  0  0
    0.4250    4.5200    0.0000 C   0  0  0
    0.7320    5.9840    0.0000 C   0  0  0
    2.1480    6.4680    0.0000 C   0  0  0
    3.3520    5.5940    0.0000 O   0  0  0
    2.5960    7.8960    0.0000 N   0  0  0
    4.5560    6.4910    0.0000 C   0  0  0
    4.0840    7.9080    0.0000 N   0  0  0
    5.9600    6.0310    0.0000 N   0  0  0
    7.0810    7.0460    0.0000 C   0  0  0
    5.6650    7.5650    0.0000 O   0  0  0
    8.2140    8.0610    0.0000 C   0  0  0
    7.9080    9.5360    0.0000 C   0  0  0
    9.6070    7.5770    0.0000 C   0  0  0
    9.0410   10.5160    0.0000 C   0  0  0
   10.7280    8.5330    0.0000 C   0  0  0
   10.4690   10.0080    0.0000 C   0  0  0
   11.5900   11.0120    0.0000 N   0  0  0
   13.0420   10.7400    0.0000 C   0  0  0
   11.4010   12.5110    0.0000 C   0  0  0
   13.6790    9.3950    0.0000 O   0  0  0
   13.7620   12.0740    0.0000 C   0  0  0
   10.0670   13.2900    0.0000 O   0  0  0
   12.7700   13.1600    0.0000 C   0  0  0
  1  2  1
  1  3  1
  2  4  2
  2  5  1
  3  6  1
  4  7  1
  5  8  2
  7  9  2
  9 10  1
 10 11  1
 11 12  1
 11 13  2
 12 14  1
 13 15  1
 14 16  1
 16 17  1
 17 18  2
 17 19  1
 19 20  2
 19 21  1
 20 22  1
 21 23  2
 22 24  2
 24 25  1
 25 26  1
 25 27  1
 26 28  2
 26 29  1
 27 30  2
 27 31  1
  8  9  1
 14 15  2
 23 24  1
 29 31  1
M  END
> <Acceptor>
6

> <CAS>
1172438-26-4

> <Chemical_Name>
4-(2,5-dioxopyrrolidin-1-yl)-N-(5-(4-(ethylthio)benzyl)-1,3,4-oxadiazol-2-yl)benzamide

> <Collection>
General

> <Description>
solid

> <Donor>
1

> <FSP3>
0.23

> <HAC>
31

> <IDNUMBER>
F2368-3114

> <MW>
436.48

> <PriceCoeff>
1.

> <RotBonds>
7

> <TPSA>
130.7

> <clogP>
1.64

$$$$
F1374-0054
  MOLSOFT 10261716012D

 28 31  0  0  0  0  0  0  0  0999 V2000
    0.0000    0.0000    0.0000 Cl  0  0  0
   -1.1260    1.0190    0.0000 C   0  0  0
   -0.8180    2.5130    0.0000 C   0  0  0
   -2.5600    0.5810    0.0000 C   0  0  0
    0.6040    2.9980    0.0000 C   0  0  0
   -1.9440    3.5320    0.0000 C   0  0  0
   -3.6500    1.6000    0.0000 C   0  0  0
    1.8130    2.1210    0.0000 O   0  0  0
    1.0670    4.4330    0.0000 N   0  0  0
   -3.3660    3.0700    0.0000 C   0  0  0
    3.0220    3.0220    0.0000 C   0  0  0
    2.5600    4.4440    0.0000 N   0  0  0
    4.4440    2.5600    0.0000 N   0  0  0
    4.7410    1.1140    0.0000 C   0  0  0
    3.6150    0.1070    0.0000 O   0  0  0
    6.1630    0.6520    0.0000 C   0  0  0
    6.4710   -0.8060    0.0000 C   0  0  0
    7.2890    1.6710    0.0000 C   0  0  0
    7.8700   -1.2560    0.0000 C   0  0  0
    8.6990    1.2330    0.0000 C   0  0  0
    8.1780   -2.7260    0.0000 N   0  0  0
    8.9960   -0.2370    0.0000 C   0  0  0
    9.5170   -3.3660    0.0000 C   0  0  0
    7.0990   -3.7690    0.0000 C   0  0  0
   10.8450   -2.6780    0.0000 O   0  0  0
    9.3040   -4.8470    0.0000 C   0  0  0
    5.6180   -3.5440    0.0000 O   0  0  0
    7.8220   -5.1080    0.0000 C   0  0  0
  1  2  1
  2  3  2
  2  4  1
  3  5  1
  3  6  1
  4  7  2
  5  8  1
  5  9  2
  6 10  2
  8 11  1
  9 12  1
 11 13  1
 13 14  1
 14 15  2
 14 16  1
 16 17  2
 16 18  1
 17 19  1
 18 20  2
 19 21  1
 19 22  2
 21 23  1
 21 24  1
 23 25  2
 23 26  1
 24 27  2
 24 28  1
  7 10  1
 11 12  2
 20 22  1
 26 28  1
M  END
> <Acceptor>
6

> <CAS>
865249-53-2

> <Chemical_Name>
N-(5-(2-chlorophenyl)-1,3,4-oxadiazol-2-yl)-3-(2,5-dioxopyrrolidin-1-yl)benzamide

> <Collection>
General

> <Description>
solid

> <Donor>
1

> <FSP3>
0.11

> <HAC>
28

> <IDNUMBER>
F1374-0054

> <MW>
396.78

> <PriceCoeff>
1.

> <RotBonds>
4

> <TPSA>
105.4

> <clogP>
1.06

$$$$
F5833-3365
  MOLSOFT 10261716012D

 28 30  0  0  0  0  0  0  0  0999 V2000
    0.0000    0.0000    0.0000 S   0  0  0
    0.7520   -1.2410    0.0000 O   0  0  0
   -0.7760    1.2890    0.0000 O   0  0  0
    1.2890    0.7640    0.0000 N   0  0  0
   -1.2890   -0.7400    0.0000 C   0  0  0
    1.2770    2.2790    0.0000 C   0  0  0
   -2.6020    0.0000    0.0000 C   0  0  0
    2.5540    3.0550    0.0000 C   0  0  0
   -0.0360    3.0430    0.0000 C   0  0  0
   -3.9030   -0.7520    0.0000 N   0  0  0
    2.5300    4.5710    0.0000 C   0  0  0
   -0.0720    4.5470    0.0000 C   0  0  0
   -3.8910   -2.2560    0.0000 C   0  0  0
   -5.2270   -0.0120    0.0000 C   0  0  0
    3.8070    5.3350    0.0000 N   0  0  0
    1.2170    5.3230    0.0000 C   0  0  0
   -2.6020   -2.9720    0.0000 O   0  0  0
   -5.1680   -3.0070    0.0000 C   0  0  0
   -5.2870    1.4800    0.0000 O   0  0  0
   -6.5280   -0.7880    0.0000 C   0  0  0
    5.0840    4.6190    0.0000 S   0  0  0
    3.7950    6.8380    0.0000 C   0  0  0
    1.1930    6.8380    0.0000 C   0  0  0
   -6.4920   -2.2910    0.0000 C   0  0  0
    5.8240    5.9200    0.0000 O   0  0  0
    4.3440    3.3060    0.0000 O   0  0  0
    6.3850    3.8790    0.0000 C   0  0  0
    2.4700    7.6020    0.0000 C   0  0  0
  1  2  2
  1  3  2
  1  4  1
  1  5  1
  4  6  1
  5  7  1
  6  8  2
  6  9  1
  7 10  1
  8 11  1
  9 12  2
 10 13  1
 10 14  1
 11 15  1
 11 16  2
 13 17  2
 13 18  1
 14 19  2
 14 20  1
 15 21  1
 15 22  1
 16 23  1
 18 24  1
 21 25  2
 21 26  2
 21 27  1
 22 28  1
 12 16  1
 20 24  1
 23 28  1
M  END
> <Acceptor>
8

> <CAS>
1206994-59-3

> <Chemical_Name>
2-(2,6-dioxopiperidin-1-yl)-N-(1-(methylsulfonyl)-1,2,3,4-tetrahydroquinolin-7-yl)ethane-1-sulfonamide

> <Collection>
General

> <Description>
solid

> <Donor>
1

> <FSP3>
0.53

> <HAC>
28

> <IDNUMBER>
F5833-3365

> <MW>
429.51

> <PriceCoeff>
1.

> <RotBonds>
6

> <TPSA>
137.69

> <clogP>
0.71

$$$$
F2019-1334
  MOLSOFT 10261716012D

 33 35  0  0  0  0  0  0  0  0999 V2000
    0.0000    0.0000    0.0000 Cl  0  0  0
  -10.3670    3.3600    0.0000 S   0  0  0
  -10.2230    1.8720    0.0000 C   0  0  0
  -11.8550    3.6720    0.0000 C   0  0  0
  -11.6030    1.2720    0.0000 N   0  0  0
   -8.9270    1.1160    0.0000 N   0  0  0
  -12.6230    2.4120    0.0000 C   0  0  0
  -12.5990    4.9670    0.0000 C   0  0  0
   -7.6430    1.8960    0.0000 C   0  0  0
   -8.9390   -0.3720    0.0000 C   0  0  0
  -14.1230    2.4000    0.0000 C   0  0  0
  -14.1110    4.9790    0.0000 C   0  0  0
   -7.6550    3.3960    0.0000 O   0  0  0
   -6.3590    1.1400    0.0000 C   0  0  0
  -10.2590   -1.1160    0.0000 C   0  0  0
  -14.9020    1.1160    0.0000 F   0  0  0
  -14.8780    3.7080    0.0000 C   0  0  0
   -6.3590   -0.3360    0.0000 C   0  0  0
   -5.0510    1.9200    0.0000 C   0  0  0
  -10.2710   -2.6040    0.0000 C   0  0  0
   -5.0750   -1.0800    0.0000 C   0  0  0
   -3.7680    1.1640    0.0000 C   0  0  0
  -11.5790   -3.3480    0.0000 N   0  0  0
   -5.0870   -2.5920    0.0000 N   0  0  0
   -3.7920   -0.3360    0.0000 C   0  0  0
  -11.5910   -4.8350    0.0000 C   0  0  0
  -12.8870   -2.5800    0.0000 C   0  0  0
   -3.9240   -3.5160    0.0000 C   0  0  0
   -6.3710   -3.3960    0.0000 C   0  0  0
   -2.4960   -3.1200    0.0000 O   0  0  0
   -4.4510   -4.9190    0.0000 C   0  0  0
   -7.7750   -2.8560    0.0000 O   0  0  0
   -5.9510   -4.8590    0.0000 C   0  0  0
  2  3  1
  2  4  1
  3  5  2
  3  6  1
  4  7  2
  4  8  1
  6  9  1
  6 10  1
  7 11  1
  8 12  2
  9 13  2
  9 14  1
 10 15  1
 11 16  1
 11 17  2
 14 18  2
 14 19  1
 15 20  1
 18 21  1
 19 22  2
 20 23  1
 21 24  1
 21 25  2
 23 26  1
 23 27  1
 24 28  1
 24 29  1
 28 30  2
 28 31  1
 29 32  2
 29 33  1
  5  7  1
 12 17  1
 22 25  1
 31 33  1
M  END
> <Acceptor>
4

> <CAS>
1217063-76-7

> <Chemical_Name>
N-(3-(dimethylamino)propyl)-3-(2,5-dioxopyrrolidin-1-yl)-N-(4-fluorobenzo[d]thiazol-2-yl)benzamide hydrochloride

> <Collection>
General

> <Description>
solid

> <Donor>
1

> <FSP3>
0.3

> <HAC>
32

> <IDNUMBER>
F2019-1334

> <MW>
454.52

> <PriceCoeff>
1.

> <RotBonds>
8

> <TPSA>
102.06

> <clogP>
1.56

$$$$
F3023-0836
  MOLSOFT 10261716012D

 24 26  0  0  0  0  0  0  0  0999 V2000
    0.0000    0.0000    0.0000 O   0  0  0
    0.4390    1.4360    0.0000 C   0  0  0
   -0.4510    2.6580    0.0000 N   0  0  0
    1.8510    1.9100    0.0000 C   0  0  3
   -1.9580    2.6700    0.0000 C   0  0  0
    0.4150    3.8800    0.0000 C   0  0  0
    3.0490    1.0440    0.0000 N   0  0  0
    1.8390    3.4290    0.0000 C   0  0  0
   -2.7170    3.9750    0.0000 C   0  0  0
   -2.7050    1.3640    0.0000 C   0  0  0
   -0.0710    5.3160    0.0000 O   0  0  0
    4.4140    1.6610    0.0000 C   0  0  0
   -4.2240    3.9750    0.0000 C   0  0  0
   -1.9930    5.2800    0.0000 C   0  0  0
   -4.2000    1.3640    0.0000 C   0  0  0
    4.5330    3.1680    0.0000 C   0  0  0
    5.6120    0.7950    0.0000 C   0  0  0
   -4.9720    2.6820    0.0000 C   0  0  0
    5.8970    3.7850    0.0000 C   0  0  0
    6.9770    1.4120    0.0000 C   0  0  0
    7.0950    2.9190    0.0000 C   0  0  0
    8.4600    3.5480    0.0000 O   0  0  0
    9.6580    2.6820    0.0000 C   0  0  0
   11.0230    3.3100    0.0000 C   0  0  0
  1  2  2
  2  3  1
  4  2  1
  3  5  1
  3  6  1
  4  7  1
  4  8  1
  5  9  2
  5 10  1
  6 11  2
  7 12  1
  9 13  1
  9 14  1
 10 15  2
 12 16  2
 12 17  1
 13 18  2
 16 19  1
 17 20  2
 19 21  2
 21 22  1
 22 23  1
 23 24  1
  6  8  1
 15 18  1
 20 21  1
M  END
> <Acceptor>
4

> <CAS>
1008695-28-0

> <Chemical_Name>
3-((4-ethoxyphenyl)amino)-1-(o-tolyl)pyrrolidine-2,5-dione

> <Collection>
General

> <Description>
solid

> <Donor>
1

> <FSP3>
0.26

> <HAC>
24

> <IDNUMBER>
F3023-0836

> <MW>
324.37

> <PriceCoeff>
1.

> <RotBonds>
5

> <TPSA>
58.64

> <clogP>
3.22

$$$$
F2100-0034
  MOLSOFT 10261716012D

 18 19  0  0  0  0  0  0  0  0999 V2000
    0.0000    0.0000    0.0000 Br  0  0  0
    1.2920    0.7750    0.0000 C   0  0  0
    2.3480   -0.2800    0.0000 C   0  0  3
    2.3270   -2.9940    0.0000 C   0  0  3
    2.6930   -1.6370    0.0000 C   0  0  3
    3.4040    0.8190    0.0000 C   0  0  0
    3.6840   -3.3390    0.0000 C   0  0  0
    0.9260   -3.3610    0.0000 C   0  0  0
    1.9170   -4.4380    0.0000 C   0  0  0
    4.0500   -1.9820    0.0000 C   0  0  0
    1.2920   -1.9820    0.0000 C   0  0  0
    4.3730   -4.5450    0.0000 O   0  0  0
    5.4070   -1.5940    0.0000 C   0  0  0
    6.2470   -2.6930    0.0000 O   0  0  0
    6.0750   -0.3450    0.0000 C   0  0  0
    5.3420    0.9050    0.0000 O   0  0  0
    7.4750   -0.3020    0.0000 O   0  0  0
    8.1640   -1.5080    0.0000 C   0  0  0
  1  2  1
  3  2  1
  3  4  1
  3  5  1
  3  6  1
  4  7  1
  4  8  1
  4  9  1
  5 10  1
  5 11  1
  7 12  2
 10 13  2
 13 14  1
 13 15  1
 15 16  2
 15 17  1
 17 18  1
  7 10  1
  8 11  1
M  END
> <Acceptor>
4

> <Chemical_Name>
(Z)-methyl 2-((1R,4S,7R)-7-(bromomethyl)-4,7-dimethyl-3-oxobicyclo[2.2.1]heptan-2-ylidene)-2-hydroxyacetate

> <Collection>
General

> <Description>
solid

> <Donor>
1

> <FSP3>
0.69

> <HAC>
18

> <IDNUMBER>
F2100-0034

> <MW>
317.18

> <PriceCoeff>
1.

> <RotBonds>
3

> <TPSA>
63.6

> <clogP>
2.21

$$$$
F3406-3516
  MOLSOFT 10261716012D

 29 32  0  0  0  0  0  0  0  0999 V2000
    0.0000    0.0000    0.0000 S   0  0  0
    1.2000   -0.8710    0.0000 C   0  0  0
   -1.2120   -0.8710    0.0000 C   0  0  0
    0.7290   -2.2820    0.0000 N   0  0  0
    2.6120   -0.4120    0.0000 N   0  0  0
   -0.7760   -2.2820    0.0000 C   0  0  0
   -2.6470   -0.4120    0.0000 C   0  0  0
    3.8000   -1.2820    0.0000 C   0  0  0
    3.0700    1.0230    0.0000 C   0  0  0
   -1.6590   -3.4820    0.0000 C   0  0  0
   -3.7760   -1.4000    0.0000 O   0  0  0
   -2.9760    1.0590    0.0000 N   0  0  0
    5.0120   -0.3880    0.0000 C   0  0  0
    4.5530    1.0230    0.0000 C   0  0  0
   -4.4120    1.5290    0.0000 C   0  0  0
   -1.8820    2.0470    0.0000 C   0  0  0
   -4.7410    2.9880    0.0000 C   0  0  0
   -2.2000    3.5290    0.0000 C   0  0  0
   -6.1530    3.4700    0.0000 O   0  0  0
   -3.6230    4.0230    0.0000 N   0  0  0
   -1.0940    4.5410    0.0000 O   0  0  0
   -3.9530    5.5060    0.0000 C   0  0  0
   -2.8590    6.5180    0.0000 C   0  0  0
   -3.1880    8.0000    0.0000 C   0  0  0
   -4.6120    8.4590    0.0000 C   0  0  0
   -2.0710    9.0120    0.0000 C   0  0  0
   -4.9530    9.9410    0.0000 C   0  0  0
   -2.4000   10.4940    0.0000 C   0  0  0
   -3.8350   10.9650    0.0000 C   0  0  0
  1  2  1
  1  3  1
  2  4  2
  2  5  1
  3  6  2
  3  7  1
  5  8  1
  5  9  1
  6 10  1
  7 11  2
  7 12  1
  8 13  2
  9 14  2
 12 15  1
 12 16  1
 15 17  1
 16 18  1
 17 19  2
 17 20  1
 18 21  2
 20 22  1
 22 23  1
 23 24  1
 24 25  2
 24 26  1
 25 27  1
 26 28  2
 27 29  2
  4  6  1
 13 14  1
 18 20  1
 28 29  1
M  END
> <Acceptor>
4

> <CAS>
1251689-84-5

> <Chemical_Name>
4-(4-methyl-2-(1H-pyrrol-1-yl)thiazole-5-carbonyl)-1-phenethylpiperazine-2,6-dione

> <Collection>
General

> <Description>
solid

> <Donor>
0

> <FSP3>
0.24

> <HAC>
29

> <IDNUMBER>
F3406-3516

> <MW>
408.47

> <PriceCoeff>
1.

> <RotBonds>
6

> <TPSA>
103.75

> <clogP>
3.63

$$$$
F3325-0002
  MOLSOFT 10261716012D

 22 24  0  0  0  0  0  0  0  0999 V2000
    0.0000    0.0000    0.0000 F   0  0  0
   -1.3170   -0.7350    0.0000 C   0  0  0
   -2.6100    0.0240    0.0000 C   0  0  0
   -1.3290   -2.2180    0.0000 C   0  0  0
   -3.9150   -0.7120    0.0000 C   0  0  0
   -2.6330   -2.9540    0.0000 C   0  0  0
   -3.9380   -2.1940    0.0000 C   0  0  0
   -5.2550   -2.9300    0.0000 N   0  0  0
   -6.5600   -2.1710    0.0000 C   0  0  3
   -7.9830   -2.6100    0.0000 C   0  0  0
   -6.5600   -0.6520    0.0000 C   0  0  0
   -8.4700   -4.0210    0.0000 O   0  0  0
   -8.8730   -1.3880    0.0000 N   0  0  0
   -7.9950   -0.1660    0.0000 C   0  0  0
  -10.3790   -1.3760    0.0000 C   0  0  0
   -8.4820    1.2810    0.0000 O   0  0  0
  -11.1390   -2.6450    0.0000 C   0  0  0
  -11.1390   -0.0710    0.0000 C   0  0  0
  -12.6210   -2.6330    0.0000 C   0  0  0
  -12.6210   -0.0590    0.0000 C   0  0  0
  -13.3690   -1.3290    0.0000 C   0  0  0
  -14.8750   -1.3050    0.0000 O   0  0  0
  1  2  1
  2  3  2
  2  4  1
  3  5  1
  4  6  2
  5  7  2
  7  8  1
  9  8  1
  9 10  1
  9 11  1
 10 12  2
 10 13  1
 11 14  1
 13 15  1
 14 16  2
 15 17  2
 15 18  1
 17 19  1
 18 20  2
 19 21  2
 21 22  1
  6  7  1
 13 14  1
 20 21  1
M  END
> <Acceptor>
4

> <CAS>
1008482-20-9

> <Chemical_Name>
3-((4-fluorophenyl)amino)-1-(4-hydroxyphenyl)pyrrolidine-2,5-dione

> <Collection>
General

> <Description>
solid

> <Donor>
2

> <FSP3>
0.12

> <HAC>
22

> <IDNUMBER>
F3325-0002

> <MW>
300.28

> <PriceCoeff>
1.

> <RotBonds>
3

> <TPSA>
69.64

> <clogP>
2.26

$$$$
F3171-0076
  MOLSOFT 10261716012D

 22 23  0  0  0  0  0  0  0  0999 V2000
    0.0000    0.0000    0.0000 Cl  0  0  0
    1.4830   -0.1300    0.0000 C   0  0  0
    2.2300   -1.4240    0.0000 C   0  0  0
    2.4790    0.9960    0.0000 C   0  0  0
    3.6900   -1.1030    0.0000 N   0  0  0
    1.6130   -2.8000    0.0000 C   0  0  0
    3.8560    0.3910    0.0000 N   0  0  0
    2.1590    2.4680    0.0000 C   0  0  0
    5.1490    1.1510    0.0000 C   0  0  0
    5.1250    2.6690    0.0000 O   0  0  0
    6.4420    0.4030    0.0000 C   0  0  0
    7.7350    1.1630    0.0000 C   0  0  0
    9.0280    0.4270    0.0000 C   0  0  0
    9.0160   -1.0680    0.0000 O   0  0  0
   10.3210    1.2100    0.0000 N   0  0  0
   10.4520    2.7170    0.0000 N   0  0  0
   11.6740    0.6050    0.0000 C   0  0  0
   11.9110    3.0370    0.0000 C   0  0  0
   12.6700    1.7320    0.0000 C   0  0  0
   11.9820   -0.8540    0.0000 C   0  0  0
   12.5040    4.4250    0.0000 C   0  0  0
   14.1530    1.5900    0.0000 Cl  0  0  0
  1  2  1
  2  3  1
  2  4  2
  3  5  2
  3  6  1
  4  7  1
  4  8  1
  7  9  1
  9 10  2
  9 11  1
 11 12  1
 12 13  1
 13 14  2
 13 15  1
 15 16  1
 15 17  1
 16 18  2
 17 19  2
 17 20  1
 18 21  1
 19 22  1
  5  7  1
 18 19  1
M  END
> <Acceptor>
4

> <Chemical_Name>
1,4-bis(4-chloro-3,5-dimethyl-1H-pyrazol-1-yl)butane-1,4-dione

> <Collection>
General

> <Description>
solid

> <Donor>
0

> <FSP3>
0.43

> <HAC>
22

> <IDNUMBER>
F3171-0076

> <MW>
343.21

> <PriceCoeff>
1.

> <RotBonds>
5

> <TPSA>
69.78

> <clogP>
4.15

$$$$
F3228-0103
  MOLSOFT 10261716012D

 19 20  0  0  0  0  0  0  0  0999 V2000
    0.0000    0.0000    0.0000 Cl  0  0  0
   -0.0120   -1.4940    0.0000 C   0  0  0
    1.2800   -2.2290    0.0000 C   0  0  0
   -1.3280   -2.2290    0.0000 C   0  0  0
    2.5720   -1.4580    0.0000 O   0  0  0
    1.2680   -3.7220    0.0000 C   0  0  0
   -1.3400   -3.7220    0.0000 C   0  0  0
    2.5720   -4.4690    0.0000 C   0  0  0
   -0.0470   -4.4690    0.0000 C   0  0  0
   -2.6550   -4.4690    0.0000 Cl  0  0  0
    2.5610   -5.9630    0.0000 O   0  0  0
    3.8650   -3.6990    0.0000 C   0  0  0
    5.1570   -4.4460    0.0000 C   0  0  0
    6.4490   -3.6750    0.0000 C   0  0  0
    7.7410   -4.4220    0.0000 N   0  0  0
    6.4250   -2.1580    0.0000 C   0  0  0
    9.0330   -3.6510    0.0000 C   0  0  0
    7.7170   -1.3990    0.0000 C   0  0  0
    9.0210   -2.1810    0.0000 C   0  0  0
  1  2  1
  2  3  2
  2  4  1
  3  5  1
  3  6  1
  4  7  2
  6  8  1
  6  9  2
  7 10  1
  8 11  2
  8 12  1
 12 13  2
 13 14  1
 14 15  2
 14 16  1
 15 17  1
 16 18  2
 17 19  2
  7  9  1
 18 19  1
M  END
> <Acceptor>
3

> <CAS>
5289-99-6

> <Chemical_Name>
(E)-1-(3,5-dichloro-2-hydroxyphenyl)-3-(pyridin-2-yl)prop-2-en-1-one

> <Collection>
General

> <Description>
solid

> <Donor>
2

> <FSP3>
0.

> <HAC>
19

> <IDNUMBER>
F3228-0103

> <MW>
294.13

> <PriceCoeff>
1.

> <RotBonds>
3

> <TPSA>
50.19

> <clogP>
3.73

$$$$
F3111-2313
  MOLSOFT 10261716012D

 15 16  0  0  0  0  0  0  0  0999 V2000
    0.0000    0.0000    0.0000 I   0  0  0
    1.2600    0.8520    0.0000 C   0  0  3
    2.6410    0.3240    0.0000 C   0  0  0
    1.3080    2.3530    0.0000 C   0  0  0
    3.0250   -1.1400    0.0000 O   0  0  0
    3.5650    1.4880    0.0000 N   0  0  0
    2.7490    2.7610    0.0000 C   0  0  0
    5.0770    1.5000    0.0000 C   0  0  0
    3.2770    4.1890    0.0000 O   0  0  0
    5.8100    2.8210    0.0000 C   0  0  0
    5.8340    0.2040    0.0000 C   0  0  0
    7.3100    2.8330    0.0000 C   0  0  0
    7.3340    0.2400    0.0000 C   0  0  0
    8.0420    1.5360    0.0000 C   0  0  0
    9.5190    1.5480    0.0000 C   0  0  0
  2  1  1
  2  3  1
  2  4  1
  3  5  2
  3  6  1
  4  7  1
  6  8  1
  7  9  2
  8 10  2
  8 11  1
 10 12  1
 11 13  2
 12 14  2
 14 15  1
  6  7  1
 13 14  1
M  END
> <Acceptor>
2

> <Chemical_Name>
3-iodo-1-(p-tolyl)pyrrolidine-2,5-dione

> <Collection>
General

> <Description>
solid

> <Donor>
0

> <FSP3>
0.27

> <HAC>
15

> <IDNUMBER>
F3111-2313

> <MW>
315.11

> <PriceCoeff>
1.

> <RotBonds>
1

> <TPSA>
37.38

> <clogP>
1.58

$$$$
F3205-0002
  MOLSOFT 10261716012D

 24 27  0  0  0  0  0  0  0  0999 V2000
    0.0000    0.0000    0.0000 O   0  0  0
    0.4490    1.4400    0.0000 C   0  0  0
   -0.4600    2.6680    0.0000 N   0  0  0
    1.8650    1.9240    0.0000 C   0  0  3
    0.4010    3.8960    0.0000 C   0  0  0
   -1.9600    2.6680    0.0000 C   0  0  0
    3.0570    1.0740    0.0000 N   0  0  0
    1.8420    3.4350    0.0000 C   0  0  0
   -0.0710    5.3360    0.0000 O   0  0  0
   -2.7270    3.9780    0.0000 C   0  0  0
    4.4030    1.7000    0.0000 C   0  0  0
   -4.2380    3.9660    0.0000 C   0  0  0
   -2.0070    5.2890    0.0000 C   0  0  0
    5.6070    0.8380    0.0000 C   0  0  0
    4.5330    3.1870    0.0000 C   0  0  0
   -5.0170    5.2770    0.0000 C   0  0  0
   -2.7620    6.5990    0.0000 C   0  0  0
    6.9530    1.4760    0.0000 C   0  0  0
    5.8790    3.8250    0.0000 C   0  0  0
   -4.2850    6.5870    0.0000 C   0  0  0
    8.3220    0.8850    0.0000 O   0  0  0
    7.0950    2.9630    0.0000 C   0  0  0
    9.2900    2.0300    0.0000 C   0  0  0
    8.5470    3.3050    0.0000 O   0  0  0
  1  2  2
  2  3  1
  4  2  1
  3  5  1
  3  6  1
  4  7  1
  4  8  1
  5  9  2
  6 10  1
  7 11  1
 10 12  2
 10 13  1
 11 14  2
 11 15  1
 12 16  1
 13 17  2
 14 18  1
 15 19  2
 16 20  2
 18 21  1
 18 22  2
 21 23  1
 22 24  1
  5  8  1
 17 20  1
 19 22  1
 23 24  1
M  END
> <Acceptor>
5

> <CAS>
1009489-21-7

> <Chemical_Name>
3-(benzo[d][1,3]dioxol-5-ylamino)-1-benzylpyrrolidine-2,5-dione

> <Collection>
General

> <Description>
solid

> <Donor>
1

> <FSP3>
0.22

> <HAC>
24

> <IDNUMBER>
F3205-0002

> <MW>
324.33

> <PriceCoeff>
1.

> <RotBonds>
4

> <TPSA>
67.87

> <clogP>
3.33

$$$$
F3023-0390
  MOLSOFT 10261716012D

 24 26  0  0  0  0  0  0  0  0999 V2000
    0.0000    0.0000    0.0000 O   0  0  0
   -0.4610    1.4320    0.0000 C   0  0  0
    0.4140    2.6620    0.0000 N   0  0  0
   -1.8930    1.9290    0.0000 C   0  0  3
    1.8930    2.6620    0.0000 C   0  0  0
   -0.4730    3.8810    0.0000 C   0  0  0
   -3.1120    1.0530    0.0000 N   0  0  0
   -1.9050    3.4310    0.0000 C   0  0  0
    2.6150    1.3730    0.0000 C   0  0  0
    2.6150    3.9640    0.0000 C   0  0  0
   -0.0120    5.3130    0.0000 O   0  0  0
   -4.4960    1.6920    0.0000 C   0  0  0
    4.0940    1.3730    0.0000 C   0  0  0
    4.1060    3.9760    0.0000 C   0  0  0
   -4.6380    3.1950    0.0000 C   0  0  0
   -5.7030    0.8280    0.0000 C   0  0  0
    4.8400    2.6860    0.0000 C   0  0  0
   -6.0110    3.8100    0.0000 C   0  0  0
   -7.0760    1.4550    0.0000 C   0  0  0
    6.3300    2.6860    0.0000 O   0  0  0
   -7.2530    2.9580    0.0000 C   0  0  0
    7.0520    1.4080    0.0000 C   0  0  0
   -8.6260    3.5970    0.0000 C   0  0  0
   -9.8680    2.7210    0.0000 C   0  0  0
  1  2  2
  2  3  1
  4  2  1
  3  5  1
  3  6  1
  4  7  1
  4  8  1
  5  9  2
  5 10  1
  6 11  2
  7 12  1
  9 13  1
 10 14  2
 12 15  2
 12 16  1
 13 17  2
 15 18  1
 16 19  2
 17 20  1
 18 21  2
 20 22  1
 21 23  1
 23 24  1
  6  8  1
 14 17  1
 19 21  1
M  END
> <Acceptor>
4

> <CAS>
1009251-79-9

> <Chemical_Name>
3-((4-ethylphenyl)amino)-1-(4-methoxyphenyl)pyrrolidine-2,5-dione

> <Collection>
General

> <Description>
solid

> <Donor>
1

> <FSP3>
0.26

> <HAC>
24

> <IDNUMBER>
F3023-0390

> <MW>
324.37

> <PriceCoeff>
1.

> <RotBonds>
5

> <TPSA>
58.64

> <clogP>
3.6

$$$$
F1175-0186
  MOLSOFT 10261716012D

 20 21  0  0  0  0  0  0  0  0999 V2000
    0.0000    0.0000    0.0000 Cl  0  0  0
   -0.7620    1.3090    0.0000 C   0  0  0
   -0.0240    2.6180    0.0000 C   0  0  0
   -2.2730    1.3210    0.0000 C   0  0  0
    1.4640    2.6420    0.0000 C   0  0  0
   -0.7850    3.9270    0.0000 C   0  0  0
   -3.0350    2.6300    0.0000 C   0  0  0
    2.1900    1.3570    0.0000 O   0  0  0
    2.2020    3.9510    0.0000 N   0  0  0
   -2.3090    3.9390    0.0000 C   0  0  0
   -4.5460    2.6420    0.0000 N   0  3  0
    3.6890    3.9510    0.0000 C   0  0  0
   -5.3080    1.3570    0.0000 O   0  0  0
   -5.3080    3.9510    0.0000 O   0  5  0
    4.4270    5.2600    0.0000 C   0  0  0
    4.4270    2.6660    0.0000 C   0  0  0
    5.9150    5.2720    0.0000 C   0  0  0
    5.9150    2.6780    0.0000 C   0  0  0
    6.6530    6.5810    0.0000 O   0  0  0
    6.6530    3.9870    0.0000 C   0  0  0
  1  2  1
  2  3  2
  2  4  1
  3  5  1
  3  6  1
  4  7  2
  5  8  2
  5  9  1
  6 10  2
  7 11  1
  9 12  1
 11 13  2
 11 14  1
 12 15  2
 12 16  1
 15 17  1
 16 18  2
 17 19  1
 17 20  2
  7 10  1
 18 20  1
M  CHG  2  11   1  14  -1
M  END
> <Acceptor>
4

> <CAS>
313960-74-6

> <Chemical_Name>
2-chloro-N-(3-hydroxyphenyl)-4-nitrobenzamide

> <Collection>
General

> <Description>
solid

> <Donor>
2

> <FSP3>
0.

> <HAC>
20

> <IDNUMBER>
F1175-0186

> <MW>
292.67

> <PriceCoeff>
1.

> <RotBonds>
3

> <TPSA>
92.47

> <clogP>
2.11

$$$$
F3145-4553
  MOLSOFT 10261716012D

 17 18  0  0  0  0  0  0  0  0999 V2000
    0.0000    0.0000    0.0000 Cl  0  0  0
   -0.0120   -1.4850    0.0000 C   0  0  0
   -1.2850   -2.2160    0.0000 C   0  0  0
    1.2850   -2.2160    0.0000 C   0  0  0
   -2.6170   -1.4380    0.0000 O   0  0  0
   -1.2960   -3.7010    0.0000 C   0  0  0
    1.2730   -3.6770    0.0000 C   0  0  0
   -0.0470   -4.4440    0.0000 C   0  0  0
   -2.6280   -4.4550    0.0000 C   0  0  0
    2.6050   -4.3850    0.0000 Cl  0  0  0
   -3.9600   -3.7010    0.0000 N   0  0  0
   -5.2450   -4.4550    0.0000 C   0  0  0
   -6.5770   -3.6890    0.0000 C   0  0  3
   -7.9910   -4.1490    0.0000 O   0  0  0
   -6.5890   -2.1920    0.0000 C   0  0  0
   -8.8870   -2.8990    0.0000 C   0  0  0
   -8.0270   -1.7210    0.0000 C   0  0  0
  1  2  1
  2  3  2
  2  4  1
  3  5  1
  3  6  1
  4  7  2
  6  8  2
  6  9  1
  7 10  1
  9 11  2
 11 12  1
 13 12  1
 13 14  1
 13 15  1
 14 16  1
 15 17  1
  7  8  1
 16 17  1
M  END
> <Acceptor>
3

> <Chemical_Name>
(E)-2,4-dichloro-6-((((tetrahydrofuran-2-yl)methyl)imino)methyl)phenol

> <Collection>
General

> <Description>
solid

> <Donor>
2

> <FSP3>
0.42

> <HAC>
17

> <IDNUMBER>
F3145-4553

> <MW>
274.14

> <PriceCoeff>
1.

> <RotBonds>
3

> <TPSA>
41.82

> <clogP>
2.93

$$$$
F1751-0035
  MOLSOFT 10261716012D

 29 32  0  0  0  0  0  0  0  0999 V2000
    0.0000    0.0000    0.0000 O   0  0  0
   -0.3220    1.4780    0.0000 C   0  0  0
   -1.7050    2.0860    0.0000 N   0  0  0
    0.6560    2.5990    0.0000 C   0  0  3
   -3.0040    1.3590    0.0000 C   0  0  0
   -1.5620    3.6000    0.0000 C   0  0  0
    2.1100    2.4680    0.0000 C   0  0  0
   -0.1070    3.9100    0.0000 C   0  0  0
   -4.3150    2.1100    0.0000 C   0  0  0
   -3.0160   -0.1430    0.0000 C   0  0  0
   -2.6940    4.6010    0.0000 O   0  0  0
    2.8610    3.7790    0.0000 C   0  0  0
   -5.6270    1.3590    0.0000 C   0  0  0
   -4.3270   -0.8820    0.0000 C   0  0  0
    4.3270    3.9700    0.0000 N   0  0  0
    2.2170    5.1500    0.0000 C   0  0  0
   -5.6380   -0.1310    0.0000 C   0  0  0
    4.6130    5.4480    0.0000 C   0  0  0
    5.3170    2.8850    0.0000 C   0  0  0
    3.3020    6.1750    0.0000 C   0  0  0
    1.8120    6.6280    0.0000 C   0  0  0
    0.7390    5.5550    0.0000 C   0  0  0
   -6.9380   -0.8820    0.0000 O   0  0  0
    5.8770    6.2110    0.0000 C   0  0  0
    3.2660    7.6770    0.0000 C   0  0  0
   -6.9500   -2.3600    0.0000 C   0  0  0
    5.8530    7.7130    0.0000 C   0  0  0
    4.5300    8.4520    0.0000 C   0  0  0
   -5.6740   -3.1110    0.0000 C   0  0  0
  1  2  2
  2  3  1
  4  2  1
  3  5  1
  3  6  1
  4  7  1
  4  8  1
  5  9  2
  5 10  1
  6 11  2
  7 12  2
  9 13  1
 10 14  2
 12 15  1
 12 16  1
 13 17  2
 15 18  1
 15 19  1
 16 20  1
 16 21  1
 16 22  1
 17 23  1
 18 24  2
 20 25  2
 23 26  1
 24 27  1
 25 28  1
 26 29  1
  6  8  1
 14 17  1
 18 20  1
 27 28  2
M  END
> <Acceptor>
4

> <CAS>
1164504-16-8

> <Chemical_Name>
(E)-1-(4-ethoxyphenyl)-3-((1,3,3-trimethylindolin-2-ylidene)methyl)pyrrolidine-2,5-dione

> <Collection>
General

> <Description>
solid

> <Donor>
1

> <FSP3>
0.33

> <HAC>
29

> <IDNUMBER>
F1751-0035

> <MW>
390.47

> <PriceCoeff>
1.

> <RotBonds>
4

> <TPSA>
49.85

> <clogP>
4.35

$$$$
F0921-4246
  MOLSOFT 10261716012D

 18 19  0  0  0  0  0  0  0  0999 V2000
    0.0000    0.0000    0.0000 Cl  0  0  0
    0.7730    1.3200    0.0000 C   0  0  0
    0.0120    2.6400    0.0000 C   0  0  0
    2.2590    1.3080    0.0000 C   0  0  0
   -1.4980    2.6640    0.0000 O   0  0  0
    0.7730    3.9480    0.0000 C   0  0  0
    3.0080    2.6160    0.0000 C   0  0  0
    2.2470    3.9600    0.0000 C   0  0  0
    4.5070    2.6160    0.0000 C   0  0  0
    5.2320    1.3200    0.0000 C   0  0  0
    4.6140   -0.0360    0.0000 N   0  0  0
    6.7060    1.1650    0.0000 C   0  0  0
    5.6960   -1.0230    0.0000 C   0  0  0
    7.7170    2.2950    0.0000 O   0  0  0
    7.0040   -0.2850    0.0000 N   0  0  0
    5.5170   -2.5210    0.0000 S   0  0  0
    8.3590   -0.9040    0.0000 C   0  0  0
    8.5020   -2.3900    0.0000 C   0  0  0
  1  2  1
  2  3  2
  2  4  1
  3  5  1
  3  6  1
  4  7  2
  6  8  2
  7  9  1
  9 10  2
 10 11  1
 10 12  1
 11 13  1
 12 14  2
 12 15  1
 13 16  2
 15 17  1
 17 18  1
  7  8  1
 13 15  1
M  END
> <Acceptor>
3

> <CAS>
690671-87-5

> <Chemical_Name>
(Z)-5-(3-chloro-4-hydroxybenzylidene)-3-ethyl-2-thioxoimidazolidin-4-one

> <Collection>
General

> <Description>
solid

> <Donor>
2

> <FSP3>
0.17

> <HAC>
18

> <IDNUMBER>
F0921-4246

> <MW>
282.75

> <PriceCoeff>
1.

> <RotBonds>
2

> <TPSA>
84.66

> <clogP>
2.01

$$$$
F1593-0042
  MOLSOFT 10261716012D

 32 35  0  0  0  0  0  0  0  0999 V2000
    0.0000    0.0000    0.0000 O   0  0  0
    1.0940    1.0220    0.0000 C   0  0  0
    0.9260    2.5240    0.0000 N   0  0  0
    2.5480    0.7210    0.0000 C   0  0  3
    2.2720    3.1500    0.0000 C   0  0  0
   -0.3850    3.2700    0.0000 C   0  0  0
    3.1500   -0.6250    0.0000 N   0  0  0
    3.2820    2.0320    0.0000 C   0  0  0
    2.5600    4.6280    0.0000 O   0  0  0
   -1.6830    2.5360    0.0000 C   0  0  0
    4.6280   -0.7690    0.0000 C   0  0  0
   -3.0170    3.3060    0.0000 C   0  0  0
    5.2290   -2.1160    0.0000 C   0  0  0
    5.4820    0.4450    0.0000 C   0  0  0
   -3.0290    4.8450    0.0000 C   0  0  0
   -4.3400    2.5600    0.0000 C   0  0  0
    6.7080   -2.2480    0.0000 C   0  0  0
    6.9600    0.3130    0.0000 C   0  0  0
   -4.3640    5.6260    0.0000 C   0  0  0
   -5.6740    3.3180    0.0000 C   0  0  0
    7.5610   -1.0220    0.0000 C   0  0  0
   -4.3760    7.1290    0.0000 O   0  0  0
   -5.6980    4.8690    0.0000 C   0  0  0
    9.0280   -1.1540    0.0000 N   0  0  0
   -5.6740    7.8860    0.0000 C   0  0  0
   -6.9960    5.6260    0.0000 O   0  0  0
    9.8810    0.0720    0.0000 C   0  0  0
    9.6410   -2.5120    0.0000 C   0  0  0
   -8.2950    4.8930    0.0000 C   0  0  0
   11.3600   -0.0720    0.0000 C   0  0  0
   11.1200   -2.6450    0.0000 C   0  0  0
   11.9730   -1.4180    0.0000 O   0  0  0
  1  2  2
  2  3  1
  4  2  1
  3  5  1
  3  6  1
  4  7  1
  4  8  1
  5  9  2
  6 10  1
  7 11  1
 10 12  1
 11 13  2
 11 14  1
 12 15  2
 12 16  1
 13 17  1
 14 18  2
 15 19  1
 16 20  2
 17 21  2
 19 22  1
 19 23  2
 21 24  1
 22 25  1
 23 26  1
 24 27  1
 24 28  1
 26 29  1
 27 30  1
 28 31  1
 30 32  1
  5  8  1
 18 21  1
 20 23  1
 31 32  1
M  END
> <Acceptor>
7

> <CAS>
1009278-47-0

> <Chemical_Name>
1-(3,4-dimethoxyphenethyl)-3-((4-morpholinophenyl)amino)pyrrolidine-2,5-dione

> <Collection>
General

> <Description>
solid

> <Donor>
2

> <FSP3>
0.42

> <HAC>
32

> <IDNUMBER>
F1593-0042

> <MW>
439.5

> <PriceCoeff>
1.

> <RotBonds>
8

> <TPSA>
80.34

> <clogP>
2.87

$$$$
F5581-0025
  MOLSOFT 10261716012D

 32 36  0  0  0  0  0  0  0  0999 V2000
    0.0000    0.0000    0.0000 S   0  0  0
    1.3520    0.6100    0.0000 C   0  0  0
   -1.0170    1.1240    0.0000 C   0  0  0
    1.1840    2.1290    0.0000 N   0  0  0
    2.6440   -0.1550    0.0000 N   0  0  0
   -0.2750    2.4160    0.0000 C   0  0  0
   -2.5360    1.1360    0.0000 C   0  0  0
    3.9360    0.6100    0.0000 C   0  0  0
    2.6200   -1.6630    0.0000 C   0  0  0
   -1.0410    3.7320    0.0000 C   0  0  0
   -3.3020    2.4280    0.0000 C   0  0  0
    3.9240    2.1290    0.0000 O   0  0  0
    5.2280   -0.1320    0.0000 C   0  0  0
    1.3160   -2.4040    0.0000 C   0  0  0
   -2.5600    3.7440    0.0000 C   0  0  0
    5.2160   -1.6270    0.0000 C   0  0  0
    6.5200    0.6340    0.0000 C   0  0  0
    1.3040   -3.9000    0.0000 N   0  0  0
    6.4960   -2.3690    0.0000 C   0  0  0
    7.8120   -0.1080    0.0000 C   0  0  0
    2.3930   -4.8930    0.0000 N   0  0  0
   -0.0120   -4.6420    0.0000 C   0  0  0
    6.4720   -3.8640    0.0000 N   0  0  0
    7.8000   -1.6030    0.0000 C   0  0  0
    1.7820   -6.2450    0.0000 C   0  0  0
    0.2990   -6.1130    0.0000 C   0  0  0
    7.6320   -4.7970    0.0000 C   0  0  0
    5.2040   -4.6890    0.0000 C   0  0  0
    9.0680   -4.3900    0.0000 O   0  0  0
    7.0820   -6.1850    0.0000 C   0  0  0
    3.7680   -4.1510    0.0000 O   0  0  0
    5.6230   -6.1250    0.0000 C   0  0  0
  1  2  1
  1  3  1
  2  4  2
  2  5  1
  3  6  2
  3  7  1
  5  8  1
  5  9  1
  6 10  1
  7 11  2
  8 12  2
  8 13  1
  9 14  1
 10 15  2
 13 16  2
 13 17  1
 14 18  1
 16 19  1
 17 20  2
 18 21  1
 18 22  1
 19 23  1
 19 24  2
 21 25  2
 22 26  2
 23 27  1
 23 28  1
 27 29  2
 27 30  1
 28 31  2
 28 32  1
  4  6  1
 11 15  1
 20 24  1
 25 26  1
 30 32  1
M  END
> <Acceptor>
5

> <CAS>
1171152-89-8

> <Chemical_Name>
N-(2-(1H-pyrazol-1-yl)ethyl)-N-(benzo[d]thiazol-2-yl)-3-(2,5-dioxopyrrolidin-1-yl)benzamide

> <Collection>
General

> <Description>
solid

> <Donor>
0

> <FSP3>
0.17

> <HAC>
32

> <IDNUMBER>
F5581-0025

> <MW>
445.49

> <PriceCoeff>
1.

> <RotBonds>
7

> <TPSA>
116.64

> <clogP>
1.08

$$$$
F2409-1278
  MOLSOFT 10261716012D

 35 39  0  0  0  0  0  0  0  0999 V2000
    0.0000    0.0000    0.0000 S   0  0  0
   -1.3940    0.5960    0.0000 C   0  0  0
    0.9890    1.1200    0.0000 C   0  0  0
   -1.2390    2.0980    0.0000 N   0  0  0
   -2.6940   -0.1430    0.0000 N   0  0  0
    0.2260    2.4190    0.0000 C   0  0  0
    2.4670    1.1200    0.0000 C   0  0  0
   -4.0050    0.6080    0.0000 C   0  0  0
   -2.7050   -1.5970    0.0000 C   0  0  0
    0.9420    3.7070    0.0000 C   0  0  0
    3.1820    2.4310    0.0000 C   0  0  0
   -4.0170    2.1210    0.0000 O   0  0  0
   -5.3160   -0.1190    0.0000 C   0  0  0
   -1.4420   -2.4080    0.0000 C   0  0  0
    2.4190    3.7420    0.0000 C   0  0  0
    0.1790    5.0180    0.0000 C   0  0  0
   -6.6270    0.6320    0.0000 C   0  0  0
   -5.3280   -1.5970    0.0000 C   0  0  0
   -0.1310   -1.7040    0.0000 C   0  0  0
   -1.5260   -3.8970    0.0000 C   0  0  0
    0.9060    6.3530    0.0000 C   0  0  0
   -1.3350    5.0300    0.0000 C   0  0  0
   -7.9380   -0.0950    0.0000 C   0  0  0
   -6.6390   -2.3480    0.0000 C   0  0  0
    1.1320   -2.4910    0.0000 N   0  0  0
   -0.2860   -4.7080    0.0000 C   0  0  0
   -9.2370    0.6670    0.0000 N   0  0  0
   -7.9500   -1.5730    0.0000 C   0  0  0
    1.0610   -3.9930    0.0000 C   0  0  0
  -10.6430    0.1430    0.0000 C   0  0  0
   -9.3200    2.1690    0.0000 C   0  0  0
  -11.0490   -1.3110    0.0000 O   0  0  0
  -11.6090    1.2630    0.0000 C   0  0  0
   -8.2000    3.1350    0.0000 O   0  0  0
  -10.8100    2.5510    0.0000 C   0  0  0
  1  2  1
  1  3  1
  2  4  2
  2  5  1
  3  6  2
  3  7  1
  5  8  1
  5  9  1
  6 10  1
  7 11  2
  8 12  2
  8 13  1
  9 14  1
 10 15  2
 10 16  1
 13 17  2
 13 18  1
 14 19  2
 14 20  1
 16 21  1
 16 22  1
 17 23  1
 18 24  2
 19 25  1
 20 26  2
 23 27  1
 23 28  2
 25 29  2
 27 30  1
 27 31  1
 30 32  2
 30 33  1
 31 34  2
 31 35  1
  4  6  1
 11 15  1
 24 28  1
 26 29  1
 33 35  1
M  END
> <Acceptor>
5

> <CAS>
955749-21-0

> <Chemical_Name>
3-(2,5-dioxopyrrolidin-1-yl)-N-(4-isopropylbenzo[d]thiazol-2-yl)-N-(pyridin-3-ylmethyl)benzamide

> <Collection>
General

> <Description>
solid

> <Donor>
1

> <FSP3>
0.22

> <HAC>
35

> <IDNUMBER>
F2409-1278

> <MW>
484.57

> <PriceCoeff>
1.

> <RotBonds>
7

> <TPSA>
111.71

> <clogP>
3.23

$$$$
F3023-0438
  MOLSOFT 10261716012D

 28 33  0  0  0  0  0  0  0  0999 V2000
    0.0000    0.0000    0.0000 O   0  0  0
    0.4200    1.4430    0.0000 C   0  0  0
   -0.4900    2.6480    0.0000 N   0  0  0
    1.8080    1.9480    0.0000 C   0  0  3
    0.3500    3.8820    0.0000 C   0  0  0
   -1.9900    2.6200    0.0000 C   0  0  0
    2.8030    1.0090    0.0000 N   0  0  0
    1.7660    3.4470    0.0000 C   0  0  0
   -0.1540    5.2970    0.0000 O   0  0  0
   -2.7750    3.9100    0.0000 C   0  0  0
    4.3440    1.7660    0.0000 C   0  0  0
   -4.2740    3.8820    0.0000 C   0  0  0
   -2.0740    5.2130    0.0000 C   0  0  0
    5.5490    0.9250    0.0000 C   0  0  0
    3.5870    0.4900    0.0000 C   0  0  0
    4.4420    3.2510    0.0000 C   0  0  0
   -5.0590    5.1570    0.0000 C   0  0  0
   -2.8590    6.5020    0.0000 C   0  0  0
    6.8800    1.5690    0.0000 C   0  0  0
    4.9050    0.7290    0.0000 C   0  0  0
    5.7730    3.8960    0.0000 C   0  0  0
   -6.5300    5.4510    0.0000 O   0  0  0
   -4.3580    6.4740    0.0000 C   0  0  0
    6.1240    0.2800    0.0000 C   0  0  0
    7.0070    3.0550    0.0000 C   0  0  0
    4.8630    2.5220    0.0000 C   0  0  0
   -6.7260    6.9500    0.0000 C   0  0  0
   -5.3810    7.5810    0.0000 O   0  0  0
  1  2  2
  2  3  1
  4  2  1
  3  5  1
  3  6  1
  4  7  1
  4  8  1
  5  9  2
  6 10  1
  7 11  1
 10 12  2
 10 13  1
 11 14  1
 11 15  1
 11 16  1
 12 17  1
 13 18  2
 14 19  1
 15 20  1
 16 21  1
 17 22  1
 17 23  2
 19 24  1
 19 25  1
 20 26  1
 22 27  1
 23 28  1
  5  8  1
 18 23  1
 20 24  1
 21 25  1
 21 26  1
 27 28  1
M  END
> <Acceptor>
4

> <CAS>
1008990-93-9

> <Chemical_Name>
3-(((3s,5s,7s)-adamantan-1-yl)amino)-1-(benzo[d][1,3]dioxol-5-ylmethyl)pyrrolidine-2,5-dione

> <Collection>
General

> <Description>
solid

> <Donor>
1

> <FSP3>
0.64

> <HAC>
28

> <IDNUMBER>
F3023-0438

> <MW>
382.45

> <PriceCoeff>
1.

> <RotBonds>
4

> <TPSA>
67.87

> <clogP>
4.31

$$$$
F0882-1056
  MOLSOFT 10261716012D

 31 35  0  0  0  0  0  0  0  0999 V2000
    0.0000    0.0000    0.0000 S   0  0  0
    1.3360   -0.5960    0.0000 C   0  0  0
   -1.0260   -1.1210    0.0000 C   0  0  0
    1.1810   -2.0750    0.0000 N   0  0  0
    2.5520    0.2860    0.0000 C   0  0  0
   -0.2860   -2.4090    0.0000 C   0  0  0
   -2.5410   -1.1090    0.0000 C   0  0  0
    3.9240   -0.3220    0.0000 C   0  0  0
    2.3970    1.8010    0.0000 C   0  0  0
   -1.0500   -3.6970    0.0000 C   0  0  0
   -3.3040   -2.3970    0.0000 C   0  0  0
    4.0550   -1.8130    0.0000 N   0  0  0
    5.1410    0.5720    0.0000 C   0  0  0
    3.6020    2.6960    0.0000 C   0  0  0
   -2.5640   -3.6860    0.0000 C   0  0  0
    5.4270   -2.4090    0.0000 C   0  0  0
    4.9740    2.0870    0.0000 C   0  0  0
    6.6320   -1.5270    0.0000 O   0  0  0
    5.5700   -3.9000    0.0000 C   0  0  0
    4.3300   -4.7710    0.0000 C   0  0  0
    6.9300   -4.5200    0.0000 C   0  0  0
    4.4610   -6.2620    0.0000 C   0  0  0
    7.0730   -6.0110    0.0000 C   0  0  0
    5.8320   -6.8580    0.0000 C   0  0  0
    5.9760   -8.3610    0.0000 N   0  0  0
    4.7950   -9.2910    0.0000 C   0  0  0
    7.2160   -9.1720    0.0000 C   0  0  0
    3.3280   -8.8980    0.0000 O   0  0  0
    5.3200  -10.6870    0.0000 C   0  0  0
    8.6240   -8.6350    0.0000 O   0  0  0
    6.7990  -10.6030    0.0000 C   0  0  0
  1  2  1
  1  3  1
  2  4  2
  2  5  1
  3  6  2
  3  7  1
  5  8  2
  5  9  1
  6 10  1
  7 11  2
  8 12  1
  8 13  1
  9 14  2
 10 15  2
 12 16  1
 13 17  2
 16 18  2
 16 19  1
 19 20  2
 19 21  1
 20 22  1
 21 23  2
 22 24  2
 24 25  1
 25 26  1
 25 27  1
 26 28  2
 26 29  1
 27 30  2
 27 31  1
  4  6  1
 11 15  1
 14 17  1
 23 24  1
 29 31  1
M  END
> <Acceptor>
4

> <CAS>
448240-54-8

> <Chemical_Name>
N-(2-(benzo[d]thiazol-2-yl)phenyl)-4-(2,5-dioxopyrrolidin-1-yl)benzamide

> <Collection>
General

> <Description>
solid

> <Donor>
1

> <FSP3>
0.08

> <HAC>
31

> <IDNUMBER>
F0882-1056

> <MW>
427.48

> <PriceCoeff>
1.

> <RotBonds>
4

> <TPSA>
107.61

> <clogP>
1.98

$$$$
F0239-0139
  MOLSOFT 10261716012D

 20 21  0  0  0  0  0  0  0  0999 V2000
    0.0000    0.0000    0.0000 Cl  0  0  0
    1.0000    1.1040    0.0000 C   0  0  0
    2.4640    0.8490    0.0000 C   0  0  0
    0.5000    2.5460    0.0000 C   0  0  0
    2.9180   -0.5580    0.0000 N   0  3  0
    3.4410    2.0230    0.0000 C   0  0  0
    1.4300    3.7080    0.0000 C   0  0  0
    4.3590   -0.8140    0.0000 O   0  0  0
    1.8950   -1.6620    0.0000 O   0  5  0
    2.9410    3.4170    0.0000 C   0  0  0
    3.9870    4.5680    0.0000 C   0  0  0
    5.4280    4.2540    0.0000 O   0  0  0
    3.5570    6.0450    0.0000 N   0  0  0
    2.0920    6.3820    0.0000 C   0  0  0
    0.8830    5.6030    0.0000 S   0  0  0
    1.6620    7.8350    0.0000 C   0  0  0
   -0.3250    6.5210    0.0000 C   0  0  0
    2.5460    9.1020    0.0000 C   0  0  0
    0.1980    7.8460    0.0000 C   0  0  0
    3.4170   10.3690    0.0000 N   0  0  0
  1  2  1
  2  3  2
  2  4  1
  3  5  1
  3  6  1
  4  7  2
  5  8  2
  5  9  1
  6 10  2
 10 11  1
 11 12  2
 11 13  1
 13 14  1
 14 15  1
 14 16  2
 15 17  1
 16 18  1
 16 19  1
 18 20  3
  7 10  1
 17 19  2
M  CHG  2   5   1   9  -1
M  END
> <Acceptor>
4

> <CAS>
300569-45-3

> <Chemical_Name>
4-chloro-N-(3-cyanothiophen-2-yl)-3-nitrobenzamide

> <Collection>
General

> <Description>
solid

> <Donor>
1

> <FSP3>
0.

> <HAC>
20

> <IDNUMBER>
F0239-0139

> <MW>
307.71

> <PriceCoeff>
1.

> <RotBonds>
3

> <TPSA>
124.27

> <clogP>
2.15

$$$$
F1751-0009
  MOLSOFT 10261716012D

 23 25  0  0  0  0  0  0  0  0999 V2000
    0.0000    0.0000    0.0000 O   0  0  0
    0.8720    1.2310    0.0000 C   0  0  0
    0.4060    2.6640    0.0000 N   0  0  0
    2.3660    1.2430    0.0000 C   0  0  3
   -1.0280    3.1420    0.0000 C   0  0  0
    1.6130    3.5610    0.0000 C   0  0  0
    3.2500    0.0360    0.0000 N   0  0  0
    2.8320    2.6760    0.0000 C   0  0  0
   -1.3620    4.6240    0.0000 C   0  0  0
   -2.1510    2.1510    0.0000 C   0  0  0
    1.6010    5.0900    0.0000 O   0  0  0
    4.7440    0.1070    0.0000 N   0  0  0
   -2.7840    5.1020    0.0000 C   0  0  0
   -3.5850    2.6290    0.0000 C   0  0  0
    5.5320   -1.1470    0.0000 C   0  0  0
   -3.9190    4.0980    0.0000 C   0  0  0
    7.0020   -1.0630    0.0000 C   0  0  0
    4.8150   -2.4610    0.0000 C   0  0  0
   -5.3650    4.5640    0.0000 O   0  0  0
    7.7900   -2.2940    0.0000 C   0  0  0
    5.5920   -3.7160    0.0000 C   0  0  0
   -6.4880    3.5850    0.0000 C   0  0  0
    7.0740   -3.6200    0.0000 C   0  0  0
  1  2  2
  2  3  1
  4  2  1
  3  5  1
  3  6  1
  4  7  1
  4  8  1
  5  9  2
  5 10  1
  6 11  2
  7 12  1
  9 13  1
 10 14  2
 12 15  1
 13 16  2
 15 17  2
 15 18  1
 16 19  1
 17 20  1
 18 21  2
 19 22  1
 20 23  2
  6  8  1
 14 16  1
 21 23  1
M  END
> <Acceptor>
4

> <CAS>
956611-58-8

> <Chemical_Name>
1-(4-methoxyphenyl)-3-(2-phenylhydrazinyl)pyrrolidine-2,5-dione

> <Collection>
General

> <Description>
solid

> <Donor>
2

> <FSP3>
0.18

> <HAC>
23

> <IDNUMBER>
F1751-0009

> <MW>
311.34

> <PriceCoeff>
1.

> <RotBonds>
5

> <TPSA>
70.67

> <clogP>
2.14

$$$$
F0779-0616
  MOLSOFT 10261716012D

 25 28  0  0  0  0  0  0  0  0999 V2000
    0.0000    0.0000    0.0000 S   0  0  0
    1.2730   -0.5680    0.0000 C   0  0  0
   -0.9760   -1.1000    0.0000 C   0  0  0
    1.2110   -2.0880    0.0000 N   0  0  0
    2.4710    0.2840    0.0000 C   0  0  0
   -0.2590   -2.4220    0.0000 C   0  0  0
   -2.5210   -1.0630    0.0000 C   0  0  0
    3.8680   -0.1850    0.0000 N   0  0  0
    2.5210    1.8040    0.0000 C   0  0  0
   -1.0130   -3.7190    0.0000 C   0  0  0
   -3.3240   -2.3600    0.0000 C   0  0  0
    4.7330    1.0380    0.0000 C   0  0  0
    3.9420    2.2610    0.0000 S   0  0  0
   -2.5580   -3.7440    0.0000 C   0  0  0
    6.2280    1.0500    0.0000 N   0  0  0
    6.9810   -0.2590    0.0000 C   0  0  0
    8.5010   -0.2100    0.0000 O   0  0  0
    6.2650   -1.4950    0.0000 C   0  0  0
    6.9940   -2.7800    0.0000 N   0  0  0
    6.4380   -4.1520    0.0000 C   0  0  0
    8.4520   -2.9410    0.0000 C   0  0  0
    4.8560   -4.5720    0.0000 O   0  0  0
    7.5130   -5.1030    0.0000 C   0  0  0
    9.5150   -1.7790    0.0000 O   0  0  0
    8.8100   -4.3740    0.0000 C   0  0  0
  1  2  1
  1  3  1
  2  4  2
  2  5  1
  3  6  2
  3  7  1
  5  8  1
  5  9  2
  6 10  1
  7 11  2
  8 12  2
  9 13  1
 10 14  2
 12 15  1
 15 16  1
 16 17  2
 16 18  1
 18 19  1
 19 20  1
 19 21  1
 20 22  2
 20 23  1
 21 24  2
 21 25  1
  4  6  1
 11 14  1
 12 13  1
 23 25  1
M  END
> <Acceptor>
5

> <CAS>
477486-57-0

> <Chemical_Name>
N-(4-(benzo[d]thiazol-2-yl)thiazol-2-yl)-2-(2,5-dioxopyrrolidin-1-yl)acetamide

> <Collection>
General

> <Description>
solid

> <Donor>
1

> <FSP3>
0.19

> <HAC>
25

> <IDNUMBER>
F0779-0616

> <MW>
372.42

> <PriceCoeff>
1.

> <RotBonds>
4

> <TPSA>
148.74

> <clogP>
2.18

$$$$
F3264-0150
  MOLSOFT 10261716012D

 27 30  0  0  0  0  0  0  0  0999 V2000
    0.0000    0.0000    0.0000 S   0  0  0
    1.2390    0.8020    0.0000 C   0  0  0
   -1.3330    0.6960    0.0000 C   0  0  0
    2.6670    0.4250    0.0000 N   0  0  0
    1.1680    2.3130    0.0000 C   0  0  0
   -1.4160    2.2070    0.0000 C   0  0  3
    3.4930    1.6880    0.0000 C   0  0  0
    2.5370    2.8560    0.0000 S   0  0  0
   -0.1650    3.0090    0.0000 C   0  0  3
   -2.7610    1.5110    0.0000 C   0  0  0
   -1.6880    3.7060    0.0000 C   0  0  0
    4.9680    1.7700    0.0000 O   0  0  0
   -0.2240    4.4840    0.0000 C   0  0  0
   -2.9860    0.0350    0.0000 O   0  0  0
   -3.8470    2.5840    0.0000 N   0  0  0
   -3.1740    3.9180    0.0000 C   0  0  0
    1.0150    5.2870    0.0000 C   0  0  0
   -1.5580    5.2160    0.0000 C   0  0  0
   -5.3340    2.3370    0.0000 C   0  0  0
   -3.8940    5.2520    0.0000 O   0  0  0
    2.3370    4.5910    0.0000 O   0  0  0
    0.9680    6.7860    0.0000 C   0  0  0
   -1.6170    6.7030    0.0000 C   0  0  0
   -6.3140    3.4930    0.0000 C   0  0  0
   -0.3660    7.5060    0.0000 C   0  0  0
   -5.8060    4.9090    0.0000 O   0  0  0
   -7.8010    3.2570    0.0000 O   0  0  0
  1  2  1
  1  3  1
  2  4  1
  2  5  2
  6  3  1
  4  7  1
  5  8  1
  9  5  1
  6 10  1
  6 11  1
  7 12  2
  9 13  1
 10 14  2
 10 15  1
 11 16  1
 13 17  2
 13 18  1
 15 19  1
 16 20  2
 17 21  1
 17 22  1
 18 23  2
 19 24  1
 22 25  2
 24 26  2
 24 27  1
  6  9  1
  7  8  1
 15 16  1
 23 25  1
M  END
> <Acceptor>
6

> <CAS>
898638-43-2

> <Chemical_Name>
2-(7'-(2-hydroxyphenyl)-2,2',5-trioxo-3',7'-dihydro-2'H,5'H-spiro[pyrrolidine-3,6'-thiopyrano[2,3-d]thiazol]-1-yl)acetic acid

> <Collection>
General

> <Description>
solid

> <Donor>
2

> <FSP3>
0.29

> <HAC>
27

> <IDNUMBER>
F3264-0150

> <MW>
406.43

> <PriceCoeff>
1.

> <RotBonds>
3

> <TPSA>
174.61

> <clogP>
0.45

$$$$
F1065-0144
  MOLSOFT 10261716012D

 25 27  0  0  0  0  0  0  0  0999 V2000
    0.0000    0.0000    0.0000 S   0  0  0
    1.4700    0.0120    0.0000 C   0  0  0
   -0.7470    1.3140    0.0000 C   0  0  3
    2.1930   -1.2770    0.0000 C   0  0  0
    2.1930    1.3260    0.0000 C   0  0  0
   -2.2900    1.3260    0.0000 C   0  0  0
   -0.3250    2.7720    0.0000 C   0  0  0
    1.4220   -2.5670    0.0000 C   0  0  0
    3.7000   -1.2650    0.0000 C   0  0  0
    3.7000    1.3380    0.0000 C   0  0  0
   -3.2060    0.1330    0.0000 O   0  0  0
   -2.7360    2.7840    0.0000 N   0  0  0
   -1.5670    3.6150    0.0000 C   0  0  0
    2.1690   -3.8560    0.0000 O   0  0  0
   -0.0480   -2.5550    0.0000 O   0  0  0
    4.4590    0.0480    0.0000 C   0  0  0
   -4.0730    3.4950    0.0000 C   0  0  0
   -1.5790    5.1340    0.0000 O   0  0  0
   -5.3260    2.6750    0.0000 C   0  0  0
   -4.1700    4.9650    0.0000 C   0  0  0
   -6.7000    3.3620    0.0000 C   0  0  0
   -5.1820    1.2050    0.0000 C   0  0  0
   -5.5190    5.6880    0.0000 C   0  0  0
   -6.7480    4.8810    0.0000 C   0  0  0
   -7.9660    2.5790    0.0000 C   0  0  0
  1  2  1
  3  1  1
  2  4  2
  2  5  1
  3  6  1
  3  7  1
  4  8  1
  4  9  1
  5 10  2
  6 11  2
  6 12  1
  7 13  1
  8 14  2
  8 15  1
  9 16  2
 12 17  1
 13 18  2
 17 19  2
 17 20  1
 19 21  1
 19 22  1
 20 23  2
 21 24  2
 21 25  1
 10 16  1
 12 13  1
 23 24  1
M  END
> <Acceptor>
4

> <CAS>
314278-90-5

> <Chemical_Name>
2-((1-(2,3-dimethylphenyl)-2,5-dioxopyrrolidin-3-yl)thio)benzoic acid

> <Collection>
General

> <Description>
solid

> <Donor>
0

> <FSP3>
0.21

> <HAC>
25

> <IDNUMBER>
F1065-0144

> <MW>
355.41

> <PriceCoeff>
1.

> <RotBonds>
4

> <TPSA>
99.98

> <clogP>
2.62

$$$$
F0270-0021
  MOLSOFT 10261716012D

 23 25  0  0  0  0  0  0  0  0999 V2000
    0.0000    0.0000    0.0000 S   0  0  0
    0.9100    1.2220    0.0000 C   0  0  0
   -1.5090    0.2040    0.0000 C   0  0  3
    2.3720    1.0300    0.0000 C   0  0  0
    0.3230    2.6000    0.0000 C   0  0  0
   -2.5520   -0.8390    0.0000 C   0  0  0
   -2.1920    1.5210    0.0000 C   0  0  0
    2.8990   -0.3350    0.0000 C   0  0  0
    3.2820    2.2160    0.0000 C   0  0  0
    1.2100    3.7860    0.0000 C   0  0  0
   -2.3000   -2.3480    0.0000 O   0  0  0
   -3.8930   -0.1560    0.0000 N   0  0  0
   -3.6780    1.3180    0.0000 C   0  0  0
    4.3610   -0.5630    0.0000 O   0  0  0
    2.0130   -1.5330    0.0000 O   0  0  0
    2.6950    3.5820    0.0000 C   0  0  0
   -5.2110   -0.8980    0.0000 C   0  0  0
   -4.7080    2.4080    0.0000 O   0  0  0
   -5.2230   -2.3840    0.0000 C   0  0  0
   -6.5290   -0.1320    0.0000 C   0  0  0
   -6.5410   -3.1510    0.0000 C   0  0  0
   -7.8590   -0.8740    0.0000 C   0  0  0
   -7.8710   -2.3600    0.0000 C   0  0  0
  1  2  1
  3  1  1
  2  4  2
  2  5  1
  3  6  1
  3  7  1
  4  8  1
  4  9  1
  5 10  2
  6 11  2
  6 12  1
  7 13  1
  8 14  2
  8 15  1
  9 16  2
 12 17  1
 13 18  2
 17 19  2
 17 20  1
 19 21  1
 20 22  2
 21 23  2
 10 16  1
 12 13  1
 22 23  1
M  END
> <Acceptor>
4

> <CAS>
301229-04-9

> <Chemical_Name>
2-((2,5-dioxo-1-phenylpyrrolidin-3-yl)thio)benzoic acid

> <Collection>
General

> <Description>
solid

> <Donor>
0

> <FSP3>
0.12

> <HAC>
23

> <IDNUMBER>
F0270-0021

> <MW>
327.35

> <PriceCoeff>
1.

> <RotBonds>
4

> <TPSA>
99.98

> <clogP>
2.07

$$$$
F1277-0114
  MOLSOFT 10261716012D

 25 27  0  0  0  0  0  0  0  0999 V2000
    0.0000    0.0000    0.0000 S   0  0  0
   -0.8980    1.2290    0.0000 C   0  0  3
   -0.6260   -1.3590    0.0000 C   0  0  0
   -0.4370    2.6700    0.0000 C   0  0  0
   -2.4110    1.2410    0.0000 C   0  0  0
    0.2360   -2.5520    0.0000 C   0  0  0
    0.9810    3.1310    0.0000 O   0  0  0
   -1.6660    3.5570    0.0000 N   0  0  0
   -2.8710    2.6820    0.0000 C   0  0  0
   -0.3900   -3.9230    0.0000 O   0  0  0
    1.7130   -2.3870    0.0000 N   0  0  0
   -1.6780    5.0690    0.0000 C   0  0  0
   -4.3130    3.1430    0.0000 O   0  0  0
    2.5880   -3.6040    0.0000 C   0  0  0
   -2.9900    5.8250    0.0000 C   0  0  0
   -0.3900    5.8490    0.0000 C   0  0  0
    1.9610   -4.9510    0.0000 C   0  0  0
    4.0530   -3.4390    0.0000 C   0  0  0
   -3.0130    7.3260    0.0000 C   0  0  0
   -0.4020    7.3500    0.0000 C   0  0  0
    2.8240   -6.1560    0.0000 C   0  0  0
    4.9270   -4.6320    0.0000 C   0  0  0
   -1.7250    8.0940    0.0000 C   0  0  0
    4.3010   -5.9910    0.0000 C   0  0  0
   -1.7490    9.6070    0.0000 C   0  0  0
  2  1  1
  1  3  1
  2  4  1
  2  5  1
  3  6  1
  4  7  2
  4  8  1
  5  9  1
  6 10  2
  6 11  1
  8 12  1
  9 13  2
 11 14  1
 12 15  2
 12 16  1
 14 17  2
 14 18  1
 15 19  1
 16 20  2
 17 21  1
 18 22  2
 19 23  2
 21 24  2
 23 25  1
  8  9  1
 20 23  1
 22 24  1
M  END
> <Acceptor>
3

> <CAS>
540761-19-1

> <Chemical_Name>
2-((2,5-dioxo-1-(p-tolyl)pyrrolidin-3-yl)thio)-N-phenylacetamide

> <Collection>
General

> <Description>
solid

> <Donor>
1

> <FSP3>
0.21

> <HAC>
25

> <IDNUMBER>
F1277-0114

> <MW>
354.42

> <PriceCoeff>
1.

> <RotBonds>
5

> <TPSA>
91.78

> <clogP>
2.73

$$$$
F0806-0876
  MOLSOFT 10261716012D

 27 29  0  0  0  0  0  0  0  0999 V2000
    0.0000    0.0000    0.0000 S   0  0  0
   -0.4970    1.4170    0.0000 C   0  0  0
   -0.9820   -1.1060    0.0000 C   0  0  0
    0.4470    2.5980    0.0000 C   0  0  0
   -1.9640    1.6280    0.0000 C   0  0  0
   -2.4730   -0.7950    0.0000 C   0  0  0
    1.8890    2.3620    0.0000 N   0  0  0
   -0.1120    4.0270    0.0000 C   0  0  0
   -2.5360    3.0580    0.0000 C   0  0  0
   -3.4930   -1.9510    0.0000 C   0  0  0
    2.8340    3.5420    0.0000 C   0  0  0
   -1.5790    4.2760    0.0000 C   0  0  0
   -4.5000   -3.0950    0.0000 N   0  0  0
    2.2750    4.9350    0.0000 O   0  0  0
    4.3010    3.3810    0.0000 C   0  0  0
    4.8230    2.0140    0.0000 C   0  0  0
    5.2080    4.5620    0.0000 C   0  0  0
    6.3140    1.8020    0.0000 C   0  0  0
    6.6750    4.3630    0.0000 C   0  0  0
    7.2470    2.9960    0.0000 C   0  0  0
    8.7010    2.8090    0.0000 N   0  0  0
    9.7450    3.8530    0.0000 C   0  0  0
    9.4340    1.5540    0.0000 C   0  0  0
    9.4470    5.4440    0.0000 O   0  0  0
   11.0620    3.2440    0.0000 C   0  0  0
    8.8000    0.0870    0.0000 O   0  0  0
   10.8510    1.8270    0.0000 C   0  0  0
  1  2  1
  1  3  1
  2  4  2
  2  5  1
  3  6  1
  4  7  1
  4  8  1
  5  9  2
  6 10  1
  7 11  1
  8 12  2
 10 13  3
 11 14  2
 11 15  1
 15 16  2
 15 17  1
 16 18  1
 17 19  2
 18 20  2
 20 21  1
 21 22  1
 21 23  1
 22 24  2
 22 25  1
 23 26  2
 23 27  1
  9 12  1
 19 20  1
 25 27  1
M  END
> <Acceptor>
4

> <CAS>
397280-58-9

> <Chemical_Name>
N-(2-((2-cyanoethyl)thio)phenyl)-4-(2,5-dioxopyrrolidin-1-yl)benzamide

> <Collection>
General

> <Description>
solid

> <Donor>
1

> <FSP3>
0.2

> <HAC>
27

> <IDNUMBER>
F0806-0876

> <MW>
379.43

> <PriceCoeff>
1.

> <RotBonds>
6

> <TPSA>
115.57

> <clogP>
0.46

$$$$
F1065-0143
  MOLSOFT 10261716012D

 24 26  0  0  0  0  0  0  0  0999 V2000
    0.0000    0.0000    0.0000 S   0  0  0
    1.5050    0.0120    0.0000 C   0  0  0
   -0.7410    1.2900    0.0000 C   0  0  3
    2.2340   -1.2660    0.0000 C   0  0  0
    2.2340    1.3020    0.0000 C   0  0  0
   -2.2460    1.4690    0.0000 C   0  0  0
   -0.1550    2.6760    0.0000 C   0  0  0
    1.4570   -2.5680    0.0000 C   0  0  0
    3.7270   -1.2540    0.0000 C   0  0  0
    3.7270    1.2900    0.0000 C   0  0  0
   -3.2730    0.3580    0.0000 O   0  0  0
   -2.5800    2.9390    0.0000 N   0  0  0
   -1.2780    3.6910    0.0000 C   0  0  0
    2.1980   -3.8580    0.0000 O   0  0  0
   -0.0600   -2.5560    0.0000 O   0  0  0
    4.4560    0.0480    0.0000 C   0  0  0
   -3.8700    3.7150    0.0000 C   0  0  0
   -1.1110    5.2080    0.0000 O   0  0  0
   -5.1720    2.9980    0.0000 C   0  0  0
   -5.1960    1.4930    0.0000 C   0  0  0
   -6.4630    3.7750    0.0000 C   0  0  0
   -6.5220    0.7880    0.0000 C   0  0  0
   -7.8010    3.0340    0.0000 C   0  0  0
   -7.8360    1.5650    0.0000 C   0  0  0
  1  2  1
  3  1  1
  2  4  2
  2  5  1
  3  6  1
  3  7  1
  4  8  1
  4  9  1
  5 10  2
  6 11  2
  6 12  1
  7 13  1
  8 14  2
  8 15  1
  9 16  2
 12 17  1
 13 18  2
 17 19  1
 19 20  2
 19 21  1
 20 22  1
 21 23  2
 22 24  2
 10 16  1
 12 13  1
 23 24  1
M  END
> <Acceptor>
4

> <CAS>
308293-16-5

> <Chemical_Name>
2-((1-benzyl-2,5-dioxopyrrolidin-3-yl)thio)benzoic acid

> <Collection>
General

> <Description>
solid

> <Donor>
0

> <FSP3>
0.17

> <HAC>
24

> <IDNUMBER>
F1065-0143

> <MW>
341.38

> <PriceCoeff>
1.

> <RotBonds>
5

> <TPSA>
99.98

> <clogP>
2.82

$$$$
F3048-0084
  MOLSOFT 10261716012D

 30 32  0  0  0  0  0  0  0  0999 V2000
    0.0000    0.0000    0.0000 S   0  0  0
   -1.2280   -0.8620    0.0000 C   0  0  3
    1.3460   -0.5900    0.0000 C   0  0  0
   -2.6680   -0.3900    0.0000 C   0  0  0
   -1.2400   -2.3490    0.0000 C   0  0  0
    2.5620    0.2950    0.0000 C   0  0  0
   -3.1400    1.0510    0.0000 O   0  0  0
   -3.5650   -1.5820    0.0000 N   0  0  0
   -2.6800   -2.8100    0.0000 C   0  0  0
    2.3960    1.8060    0.0000 O   0  0  0
    3.9190   -0.2950    0.0000 N   0  0  0
   -5.0760   -1.5700    0.0000 C   0  0  0
   -3.1520   -4.2260    0.0000 O   0  0  0
    5.1120    0.5900    0.0000 C   0  0  0
   -5.8320   -2.8570    0.0000 C   0  0  0
   -5.8320   -0.2600    0.0000 C   0  0  0
    6.4690    0.0000    0.0000 C   0  0  0
    4.9460    2.0900    0.0000 C   0  0  0
   -7.3430   -2.8450    0.0000 C   0  0  0
   -7.3430   -0.2480    0.0000 C   0  0  0
    7.6740    0.8850    0.0000 C   0  0  0
    6.1510    2.9750    0.0000 C   0  0  0
   -8.0990   -1.5350    0.0000 C   0  0  0
    7.4960    2.3610    0.0000 C   0  0  0
    9.0310    0.2830    0.0000 C   0  0  0
   -9.6100   -1.5230    0.0000 C   0  0  0
    8.7120    3.2580    0.0000 C   0  0  0
  -10.3650   -2.8100    0.0000 O   0  0  0
  -10.3650   -0.2120    0.0000 O   0  0  0
  -11.8760   -0.2010    0.0000 C   0  0  0
  2  1  1
  1  3  1
  2  4  1
  2  5  1
  3  6  1
  4  7  2
  4  8  1
  5  9  1
  6 10  2
  6 11  1
  8 12  1
  9 13  2
 11 14  1
 12 15  2
 12 16  1
 14 17  2
 14 18  1
 15 19  1
 16 20  2
 17 21  1
 18 22  2
 19 23  2
 21 24  2
 21 25  1
 23 26  1
 24 27  1
 26 28  2
 26 29  1
 29 30  1
  8  9  1
 20 23  1
 22 24  1
M  END
> <Acceptor>
5

> <CAS>
714262-68-7

> <Chemical_Name>
methyl 4-(3-((2-((3,4-dimethylphenyl)amino)-2-oxoethyl)thio)-2,5-dioxopyrrolidin-1-yl)benzoate

> <Collection>
General

> <Description>
solid

> <Donor>
1

> <FSP3>
0.27

> <HAC>
30

> <IDNUMBER>
F3048-0084

> <MW>
426.49

> <PriceCoeff>
1.

> <RotBonds>
7

> <TPSA>
118.08

> <clogP>
3.66

$$$$
F0779-0604
  MOLSOFT 10261716012D

 30 34  0  0  0  0  0  0  0  0999 V2000
    0.0000    0.0000    0.0000 S   0  0  0
   -0.0990   -1.3840    0.0000 C   0  0  0
   -1.3720    0.5440    0.0000 C   0  0  0
   -1.5700   -1.8420    0.0000 N   0  0  0
    1.1000   -2.2000    0.0000 C   0  0  0
   -2.3610   -0.5930    0.0000 C   0  0  0
   -1.8790    1.9900    0.0000 C   0  0  0
    2.5460   -1.7060    0.0000 N   0  0  0
    1.1870   -3.7080    0.0000 C   0  0  0
   -3.8940   -0.3340    0.0000 C   0  0  0
   -3.3740    2.2870    0.0000 C   0  0  0
    3.3990   -2.8430    0.0000 C   0  0  0
    2.6450   -4.0790    0.0000 S   0  0  0
   -4.4370    1.1120    0.0000 C   0  0  0
    4.8820   -2.8310    0.0000 N   0  0  0
    5.5380   -1.5080    0.0000 C   0  0  0
    4.7710   -0.1730    0.0000 O   0  0  0
    7.0830   -1.4090    0.0000 C   0  0  0
    7.7500   -0.0740    0.0000 C   0  0  0
    7.8610   -2.6820    0.0000 C   0  0  0
    9.2460   -0.0120    0.0000 C   0  0  0
    9.3450   -2.5960    0.0000 C   0  0  0
   10.0370   -1.3230    0.0000 C   0  0  0
   11.5200   -1.3350    0.0000 N   0  0  0
   12.4350   -0.1360    0.0000 C   0  0  0
   12.4350   -2.4720    0.0000 C   0  0  0
   11.9780    1.4090    0.0000 O   0  0  0
   13.8440   -0.6060    0.0000 C   0  0  0
   11.9400   -4.0300    0.0000 O   0  0  0
   13.7700   -2.0270    0.0000 C   0  0  0
  1  2  1
  1  3  1
  2  4  2
  2  5  1
  3  6  2
  3  7  1
  5  8  1
  5  9  2
  6 10  1
  7 11  2
  8 12  2
  9 13  1
 10 14  2
 12 15  1
 15 16  1
 16 17  2
 16 18  1
 18 19  2
 18 20  1
 19 21  1
 20 22  2
 21 23  2
 23 24  1
 24 25  1
 24 26  1
 25 27  2
 25 28  1
 26 29  2
 26 30  1
  4  6  1
 11 14  1
 12 13  1
 22 23  1
 28 30  1
M  END
> <Acceptor>
5

> <CAS>
396725-00-1

> <Chemical_Name>
N-(4-(benzo[d]thiazol-2-yl)thiazol-2-yl)-4-(2,5-dioxopyrrolidin-1-yl)benzamide

> <Collection>
General

> <Description>
solid

> <Donor>
1

> <FSP3>
0.1

> <HAC>
30

> <IDNUMBER>
F0779-0604

> <MW>
434.49

> <PriceCoeff>
1.

> <RotBonds>
4

> <TPSA>
148.74

> <clogP>
2.36

$$$$
F0286-0291
  MOLSOFT 10261716012D

 27 29  0  0  0  0  0  0  0  0999 V2000
    0.0000    0.0000    0.0000 Cl  0  0  0
    1.3390   -0.8010    0.0000 C   0  0  0
    1.3270   -2.3080    0.0000 C   0  0  0
    2.6310   -0.0360    0.0000 C   0  0  0
   -0.0360   -3.0370    0.0000 N   0  3  0
    2.6190   -3.0370    0.0000 C   0  0  0
    3.9100   -0.7290    0.0000 C   0  0  0
    0.0240   -4.5440    0.0000 O   0  0  0
   -1.3270   -2.2840    0.0000 O   0  5  0
    3.8980   -2.2840    0.0000 C   0  0  0
    5.1900   -3.0850    0.0000 C   0  0  0
    6.4700   -2.3680    0.0000 O   0  0  0
    5.0580   -4.5800    0.0000 N   0  0  0
    6.3500   -5.4170    0.0000 C   0  0  0
    6.2780   -6.8880    0.0000 C   0  0  0
    7.7370   -4.9990    0.0000 C   0  0  0
    4.9750   -7.7610    0.0000 O   0  0  0
    7.6770   -7.3310    0.0000 N   0  0  0
    8.5980   -6.2070    0.0000 N   0  0  0
    8.2630   -3.4680    0.0000 C   0  0  0
    8.2040   -8.7540    0.0000 C   0  0  0
   10.0690   -6.2420    0.0000 C   0  0  0
    7.2230   -9.8300    0.0000 C   0  0  0
    9.6150   -9.0170    0.0000 C   0  0  0
    7.6890  -11.2410    0.0000 C   0  0  0
   10.1410  -10.4280    0.0000 C   0  0  0
    9.1480  -11.5520    0.0000 C   0  0  0
  1  2  1
  2  3  2
  2  4  1
  3  5  1
  3  6  1
  4  7  2
  5  8  2
  5  9  1
  6 10  2
 10 11  1
 11 12  2
 11 13  1
 13 14  1
 14 15  1
 14 16  2
 15 17  2
 15 18  1
 16 19  1
 16 20  1
 18 21  1
 19 22  1
 21 23  2
 21 24  1
 23 25  1
 24 26  2
 25 27  2
  7 10  1
 18 19  1
 26 27  1
M  CHG  2   5   1   9  -1
M  END
> <Acceptor>
4

> <CAS>
303225-97-0

> <Chemical_Name>
4-chloro-N-(1,5-dimethyl-3-oxo-2-phenyl-2,3-dihydro-1H-pyrazol-4-yl)-3-nitrobenzamide

> <Collection>
General

> <Description>
solid

> <Donor>
2

> <FSP3>
0.11

> <HAC>
27

> <IDNUMBER>
F0286-0291

> <MW>
386.79

> <PriceCoeff>
1.

> <RotBonds>
4

> <TPSA>
95.79

> <clogP>
1.82

$$$$
F0020-1956
  MOLSOFT 10261716012D

 21 23  0  0  0  0  0  0  0  0999 V2000
    0.0000    0.0000    0.0000 Cl  0  0  0
   -1.3410    0.7650    0.0000 C   0  0  0
   -2.6470    0.0590    0.0000 C   0  0  0
   -2.6590   -1.4120    0.0000 O   0  0  0
   -3.9530    0.8470    0.0000 N   0  0  0
   -5.2590    0.0820    0.0000 C   0  0  0
   -6.5650    0.8710    0.0000 C   0  0  0
   -5.2710   -1.3880    0.0000 C   0  0  0
   -7.8710    0.1060    0.0000 C   0  0  0
   -6.5770   -2.1060    0.0000 C   0  0  0
   -9.1770    0.8940    0.0000 C   0  0  0
   -7.8820   -1.3650    0.0000 C   0  0  0
   -9.1880    2.4000    0.0000 O   0  0  0
  -10.4830    0.1290    0.0000 C   0  0  0
   -9.1880   -2.0820    0.0000 C   0  0  0
  -10.4940   -1.3410    0.0000 C   0  0  0
  -11.7880    0.9180    0.0000 C   0  0  0
   -9.2000   -3.5650    0.0000 O   0  0  0
  -11.8000   -2.0590    0.0000 C   0  0  0
  -13.0940    0.1530    0.0000 C   0  0  0
  -13.1060   -1.3180    0.0000 C   0  0  0
  1  2  1
  2  3  1
  3  4  2
  3  5  1
  5  6  1
  6  7  2
  6  8  1
  7  9  1
  8 10  2
  9 11  1
  9 12  2
 11 13  2
 11 14  1
 12 15  1
 14 16  2
 14 17  1
 15 18  2
 16 19  1
 17 20  2
 19 21  2
 10 12  1
 15 16  1
 20 21  1
M  END
> <Acceptor>
3

> <Chemical_Name>
2-chloro-N-(9,10-dioxo-9,10-dihydroanthracen-2-yl)acetamide

> <Collection>
General

> <Description>
solid

> <Donor>
1

> <FSP3>
0.06

> <HAC>
21

> <IDNUMBER>
F0020-1956

> <MW>
299.71

> <PriceCoeff>
1.

> <RotBonds>
2

> <TPSA>
63.24

> <clogP>
3.53

$$$$
F3111-2122
  MOLSOFT 10261716012D

 30 33  0  0  0  0  0  0  0  0999 V2000
    0.0000    0.0000    0.0000 Cl  0  0  0
   -1.5100    0.1660    0.0000 C   0  0  0
   -2.4020   -1.0340    0.0000 C   0  0  0
   -2.1170    1.5580    0.0000 C   0  0  0
   -3.9120   -0.8560    0.0000 C   0  0  0
   -3.6390    1.7360    0.0000 C   0  0  0
   -4.8160   -2.0570    0.0000 N   0  0  0
   -4.5180    0.5350    0.0000 C   0  0  0
   -4.3640   -3.4720    0.0000 C   0  0  0
   -6.3380   -2.0330    0.0000 C   0  0  0
   -2.9490   -3.9360    0.0000 O   0  0  0
   -5.6010   -4.3400    0.0000 C   0  0  3
   -7.2060   -0.8090    0.0000 O   0  0  0
   -6.8130   -3.4480    0.0000 C   0  0  0
   -5.6120   -5.8380    0.0000 N   0  0  0
   -6.9320   -6.5640    0.0000 C   0  0  0
   -4.3280   -6.5870    0.0000 C   0  0  0
   -6.9440   -8.0500    0.0000 C   0  0  0
   -8.2400   -5.7910    0.0000 C   0  0  0
   -3.0440   -5.8260    0.0000 O   0  0  0
   -4.3520   -8.0740    0.0000 C   0  0  0
   -8.2520   -8.7870    0.0000 C   0  0  0
   -9.5480   -6.5160    0.0000 C   0  0  0
   -5.6720   -8.7870    0.0000 C   0  0  0
   -3.0920   -8.8110    0.0000 C   0  0  0
   -8.2760  -10.2740    0.0000 Cl  0  0  0
   -9.5720   -8.0140    0.0000 C   0  0  0
   -5.6960  -10.2740    0.0000 C   0  0  0
   -3.1030  -10.2860    0.0000 C   0  0  0
   -4.4110  -11.0230    0.0000 N   0  0  0
  1  2  1
  2  3  2
  2  4  1
  3  5  1
  4  6  2
  5  7  1
  5  8  2
  7  9  1
  7 10  1
  9 11  2
 12  9  1
 10 13  2
 10 14  1
 12 15  1
 15 16  1
 15 17  1
 16 18  2
 16 19  1
 17 20  2
 17 21  1
 18 22  1
 19 23  2
 21 24  2
 21 25  1
 22 26  1
 22 27  2
 24 28  1
 25 29  2
 28 30  2
  6  8  1
 12 14  1
 23 27  1
 29 30  1
M  END
> <Acceptor>
4

> <Chemical_Name>
N-(3-chlorophenyl)-N-(1-(3-chlorophenyl)-2,5-dioxopyrrolidin-3-yl)isonicotinamide

> <Collection>
General

> <Description>
solid

> <Donor>
1

> <FSP3>
0.09

> <HAC>
30

> <IDNUMBER>
F3111-2122

> <MW>
440.28

> <PriceCoeff>
1.

> <RotBonds>
5

> <TPSA>
70.58

> <clogP>
4.41

$$$$
F3111-3610
  MOLSOFT 10261716012D

 23 25  0  0  0  0  0  0  0  0999 V2000
    0.0000    0.0000    0.0000 Br  0  0  0
   -1.3040   -0.7350    0.0000 C   0  0  0
   -2.6080    0.0120    0.0000 C   0  0  0
   -1.3160   -2.2290    0.0000 C   0  0  0
   -3.9000   -0.7230    0.0000 C   0  0  0
   -2.6200   -2.9640    0.0000 C   0  0  0
   -3.9120   -2.1810    0.0000 C   0  0  0
   -5.2160   -2.9160    0.0000 O   0  0  0
   -6.5200   -2.1580    0.0000 C   0  0  0
   -7.8250   -2.9050    0.0000 C   0  0  0
   -7.8360   -4.3860    0.0000 O   0  0  0
   -9.1290   -2.1460    0.0000 C   0  0  0
   -9.1400   -0.6280    0.0000 C   0  0  0
  -10.4330   -2.8810    0.0000 C   0  0  0
   -7.8600    0.1190    0.0000 O   0  0  0
  -10.4450    0.1300    0.0000 O   0  0  0
  -10.4560   -4.3630    0.0000 O   0  0  0
  -11.7490   -2.1100    0.0000 C   0  0  0
  -11.7490   -0.6050    0.0000 C   0  0  0
  -13.0530   -2.8570    0.0000 C   0  0  0
  -13.0650    0.1540    0.0000 C   0  0  0
  -14.3570   -2.0980    0.0000 C   0  0  0
  -14.3690   -0.5930    0.0000 C   0  0  0
  1  2  1
  2  3  2
  2  4  1
  3  5  1
  4  6  2
  5  7  2
  7  8  1
  8  9  1
  9 10  1
 10 11  2
 10 12  1
 12 13  1
 12 14  2
 13 15  2
 13 16  1
 14 17  1
 14 18  1
 16 19  1
 18 20  2
 19 21  2
 20 22  1
 21 23  1
  6  7  1
 18 19  1
 22 23  2
M  END
> <Acceptor>
5

> <Chemical_Name>
3-(2-(4-bromophenoxy)acetyl)-4-hydroxy-2H-chromen-2-one

> <Collection>
General

> <Description>
solid

> <Donor>
1

> <FSP3>
0.06

> <HAC>
23

> <IDNUMBER>
F3111-3610

> <MW>
375.17

> <PriceCoeff>
1.

> <RotBonds>
4

> <TPSA>
72.83

> <clogP>
4.35

$$$$
F0327-0349
  MOLSOFT 10261716012D

 35 39  0  0  0  0  0  0  0  0999 V2000
    0.0000    0.0000    0.0000 S   0  0  0
    0.8500   -1.1900    0.0000 C   0  0  0
   -1.4570   -0.4370    0.0000 C   0  0  0
   -0.0360   -2.4050    0.0000 N   0  0  0
    2.3070   -1.1780    0.0000 N   0  0  0
   -1.4690   -1.9670    0.0000 C   0  0  0
   -2.6470    0.4860    0.0000 C   0  0  0
    3.0600   -2.4770    0.0000 C   0  0  0
   -2.6350   -2.8660    0.0000 C   0  0  0
   -4.0560   -0.0360    0.0000 O   0  0  0
   -2.4290    1.9550    0.0000 C   0  0  0
    2.2830   -3.7530    0.0000 O   0  0  0
    4.5540   -2.4650    0.0000 C   0  0  0
   -2.4410   -4.3480    0.0000 C   0  0  0
   -4.0560   -2.2950    0.0000 C   0  0  0
   -1.0440    2.5140    0.0000 C   0  0  0
   -3.6310    2.9150    0.0000 C   0  0  0
    5.2950   -3.7400    0.0000 C   0  0  0
    5.2950   -1.1420    0.0000 C   0  0  0
   -3.6430   -5.2710    0.0000 C   0  0  0
   -5.2710   -3.2060    0.0000 C   0  0  0
   -0.8260    4.0080    0.0000 C   0  0  0
   -3.3880    4.3960    0.0000 C   0  0  0
    6.8010   -3.7280    0.0000 C   0  0  0
    6.8010   -1.1290    0.0000 C   0  0  0
   -5.0640   -4.6880    0.0000 C   0  0  0
   -2.0160    4.9790    0.0000 C   0  0  0
    7.5420   -2.4290    0.0000 C   0  0  0
    9.0360   -2.4170    0.0000 N   0  0  0
    9.8610   -3.6310    0.0000 C   0  0  0
    9.8860   -1.2750    0.0000 C   0  0  0
    9.3270   -5.0280    0.0000 O   0  0  0
   11.3070   -3.1940    0.0000 C   0  0  0
    9.3760    0.1940    0.0000 O   0  0  0
   11.3070   -1.7120    0.0000 C   0  0  0
  1  2  1
  1  3  1
  2  4  2
  2  5  1
  3  6  2
  3  7  1
  5  8  1
  6  9  1
  7 10  2
  7 11  1
  8 12  2
  8 13  1
  9 14  2
  9 15  1
 11 16  2
 11 17  1
 13 18  2
 13 19  1
 14 20  1
 15 21  2
 16 22  1
 17 23  2
 18 24  1
 19 25  2
 20 26  2
 22 27  2
 24 28  2
 28 29  1
 29 30  1
 29 31  1
 30 32  2
 30 33  1
 31 34  2
 31 35  1
  4  6  1
 21 26  1
 23 27  1
 25 28  1
 33 35  1
M  END
> <Acceptor>
5

> <CAS>
325720-26-1

> <Chemical_Name>
N-(5-benzoyl-4-phenylthiazol-2-yl)-4-(2,5-dioxopyrrolidin-1-yl)benzamide

> <Collection>
General

> <Description>
solid

> <Donor>
1

> <FSP3>
0.07

> <HAC>
35

> <IDNUMBER>
F0327-0349

> <MW>
481.52

> <PriceCoeff>
1.

> <RotBonds>
6

> <TPSA>
124.68

> <clogP>
3.56

$$$$
F2224-0262
  MOLSOFT 10261716012D

 32 35  0  0  0  0  0  0  0  0999 V2000
    0.0000    0.0000    0.0000 Cl  0  0  0
   -1.3130   -0.7400    0.0000 C   0  0  0
   -1.3250   -2.2200    0.0000 C   0  0  0
   -2.6260    0.0120    0.0000 C   0  0  0
   -0.0360   -2.9600    0.0000 N   0  3  0
   -2.6380   -2.9370    0.0000 C   0  0  0
   -3.9390   -0.7400    0.0000 C   0  0  0
    1.2530   -2.1960    0.0000 O   0  0  0
   -0.0480   -4.4530    0.0000 O   0  5  0
   -3.9390   -2.1850    0.0000 C   0  0  0
   -5.2290   -2.9130    0.0000 C   0  0  0
   -5.2400   -4.4170    0.0000 O   0  0  0
   -6.5540   -2.1610    0.0000 N   0  0  0
   -7.8670   -2.8890    0.0000 C   0  0  0
   -7.8790   -4.3930    0.0000 C   0  0  0
   -9.1560   -2.1370    0.0000 C   0  0  0
   -6.5890   -5.1450    0.0000 F   0  0  0
   -9.1800   -5.1210    0.0000 C   0  0  0
  -10.4690   -2.8650    0.0000 C   0  0  0
  -10.4930   -4.3570    0.0000 C   0  0  0
  -11.7580   -2.1010    0.0000 N   0  0  0
  -11.7700   -0.5970    0.0000 C   0  0  0
  -13.0710   -2.8410    0.0000 C   0  0  0
  -10.4810    0.1430    0.0000 O   0  0  0
  -13.0830    0.1670    0.0000 C   0  0  0
  -14.3850   -2.0650    0.0000 N   0  0  0
  -13.1070   -4.3090    0.0000 C   0  0  0
  -14.3970   -0.5730    0.0000 C   0  0  0
  -13.0830    1.6830    0.0000 C   0  0  0
  -15.7100    0.1910    0.0000 N   0  0  0
  -14.3970    2.4230    0.0000 C   0  0  0
  -15.7220    1.6830    0.0000 C   0  0  0
  1  2  1
  2  3  2
  2  4  1
  3  5  1
  3  6  1
  4  7  2
  5  8  2
  5  9  1
  6 10  2
 10 11  1
 11 12  2
 11 13  1
 13 14  1
 14 15  2
 14 16  1
 15 17  1
 15 18  1
 16 19  2
 18 20  2
 19 21  1
 21 22  1
 21 23  1
 22 24  2
 22 25  1
 23 26  2
 23 27  1
 25 28  2
 25 29  1
 28 30  1
 29 31  2
 30 32  2
  7 10  1
 19 20  1
 26 28  1
 31 32  1
M  CHG  2   5   1   9  -1
M  END
> <Acceptor>
6

> <CAS>
921522-93-2

> <Chemical_Name>
4-chloro-N-(2-fluoro-5-(2-methyl-4-oxopyrido[2,3-d]pyrimidin-3(4H)-yl)phenyl)-3-nitrobenzamide

> <Collection>
General

> <Description>
solid

> <Donor>
2

> <FSP3>
0.05

> <HAC>
32

> <IDNUMBER>
F2224-0262

> <MW>
453.81

> <PriceCoeff>
1.

> <RotBonds>
4

> <TPSA>
117.8

> <clogP>
2.97

$$$$
F1649-0519
  MOLSOFT 10261716012D

 31 34  0  0  0  0  0  0  0  0999 V2000
    0.0000    0.0000    0.0000 S   0  0  0
   -1.4300    0.4840    0.0000 C   0  0  0
    1.0990    1.0160    0.0000 C   0  0  3
   -2.6580   -0.3900    0.0000 O   0  0  0
   -1.8900    1.9260    0.0000 N   0  0  0
    2.5520    0.7090    0.0000 C   0  0  0
    0.9330    2.5280    0.0000 C   0  0  0
   -3.8750    0.5080    0.0000 C   0  0  0
   -3.4030    1.9380    0.0000 N   0  0  0
    3.1430   -0.6620    0.0000 O   0  0  0
    3.2850    2.0200    0.0000 N   0  0  0
    2.3040    3.1310    0.0000 C   0  0  0
   -5.3170    0.0710    0.0000 C   0  0  0
    4.7620    2.1860    0.0000 C   0  0  0
    2.5990    4.6200    0.0000 O   0  0  0
   -6.4280    1.1110    0.0000 C   0  0  0
   -5.6360   -1.3710    0.0000 C   0  0  0
    5.3640    3.5560    0.0000 C   0  0  0
    5.6240    0.9690    0.0000 C   0  0  0
   -6.1200    2.5760    0.0000 O   0  0  0
   -7.8690    0.6500    0.0000 C   0  0  0
   -7.0770   -1.8310    0.0000 C   0  0  0
    6.8410    3.7220    0.0000 C   0  0  0
    7.1010    1.1340    0.0000 C   0  0  0
   -8.2000   -0.8030    0.0000 C   0  0  0
    7.7150    2.5050    0.0000 C   0  0  0
    9.1920    2.6700    0.0000 C   0  0  0
    9.7950    4.0410    0.0000 O   0  0  0
   10.0430    1.4530    0.0000 O   0  0  0
   11.5320    1.6190    0.0000 C   0  0  0
   12.4060    0.4130    0.0000 C   0  0  0
  1  2  1
  3  1  1
  2  4  1
  2  5  2
  3  6  1
  3  7  1
  4  8  1
  5  9  1
  6 10  2
  6 11  1
  7 12  1
  8 13  1
 11 14  1
 12 15  2
 13 16  2
 13 17  1
 14 18  2
 14 19  1
 16 20  1
 16 21  1
 17 22  2
 18 23  1
 19 24  2
 21 25  2
 23 26  2
 26 27  1
 27 28  2
 27 29  1
 29 30  1
 30 31  1
  8  9  2
 11 12  1
 22 25  1
 24 26  1
M  END
> <Acceptor>
8

> <CAS>
710987-50-1

> <Chemical_Name>
ethyl 4-(3-((5-(2-hydroxyphenyl)-1,3,4-oxadiazol-2-yl)thio)-2,5-dioxopyrrolidin-1-yl)benzoate

> <Collection>
General

> <Description>
solid

> <Donor>
1

> <FSP3>
0.19

> <HAC>
31

> <IDNUMBER>
F1649-0519

> <MW>
439.44

> <PriceCoeff>
1.

> <RotBonds>
7

> <TPSA>
148.13

> <clogP>
2.11

$$$$
F0549-0283
  MOLSOFT 10261716012D

 29 31  0  0  0  0  0  0  0  0999 V2000
    0.0000    0.0000    0.0000 Cl  0  0  0
    0.8530   -1.2130    0.0000 C   0  0  0
    0.2280   -2.5700    0.0000 C   0  0  0
    2.3660   -1.0570    0.0000 C   0  0  0
   -1.2730   -2.7140    0.0000 N   0  3  0
    1.1050   -3.7830    0.0000 C   0  0  0
    3.2300   -2.2580    0.0000 C   0  0  0
   -1.8850   -4.0950    0.0000 O   0  0  0
   -2.1620   -1.4890    0.0000 O   0  5  0
    2.6060   -3.6270    0.0000 C   0  0  0
    3.4830   -4.8400    0.0000 C   0  0  0
    2.8580   -6.1970    0.0000 O   0  0  0
    4.9720   -4.6720    0.0000 O   0  0  0
    5.8490   -5.8850    0.0000 C   0  0  0
    5.3680   -7.3140    0.0000 N   0  0  0
    7.3260   -5.8730    0.0000 C   0  0  0
    6.5810   -8.1780    0.0000 N   0  0  0
    7.7940   -7.3020    0.0000 C   0  0  0
    6.5690   -9.6790    0.0000 S   0  0  0
    9.2110   -7.7580    0.0000 N   0  0  0
    5.0320   -9.7030    0.0000 O   0  0  0
    8.0460   -9.6550    0.0000 O   0  0  0
    6.5810  -11.1810    0.0000 C   0  0  0
    5.2720  -11.9490    0.0000 C   0  0  0
    7.8780  -11.9010    0.0000 C   0  0  0
    5.2840  -13.4500    0.0000 C   0  0  0
    7.8900  -13.4140    0.0000 C   0  0  0
    6.5810  -14.1710    0.0000 C   0  0  0
    6.5930  -15.6720    0.0000 C   0  0  0
  1  2  1
  2  3  2
  2  4  1
  3  5  1
  3  6  1
  4  7  2
  5  8  2
  5  9  1
  6 10  2
 10 11  1
 11 12  2
 11 13  1
 13 14  1
 14 15  2
 14 16  1
 15 17  1
 16 18  2
 17 19  1
 18 20  1
 19 21  2
 19 22  2
 19 23  1
 23 24  2
 23 25  1
 24 26  1
 25 27  2
 26 28  2
 28 29  1
  7 10  1
 17 18  1
 27 28  1
M  CHG  2   5   1   9  -1
M  END
> <Acceptor>
7

> <CAS>
442679-04-1

> <Chemical_Name>
5-amino-1-tosyl-1H-pyrazol-3-yl 4-chloro-3-nitrobenzoate

> <Collection>
General

> <Description>
solid

> <Donor>
1

> <FSP3>
0.06

> <HAC>
29

> <IDNUMBER>
F0549-0283

> <MW>
436.83

> <PriceCoeff>
1.

> <RotBonds>
6

> <TPSA>
155.8

> <clogP>
1.73

$$$$
F0588-0121
  MOLSOFT 10261716012D

 27 29  0  0  0  0  0  0  0  0999 V2000
    0.0000    0.0000    0.0000 Cl  0  0  0
    1.4870   -0.0830    0.0000 C   0  0  0
    2.3490    1.1450    0.0000 C   0  0  0
    2.1250   -1.4400    0.0000 C   0  0  0
    1.6880    2.5620    0.0000 N   0  3  0
    3.8370    1.0270    0.0000 C   0  0  0
    3.6120   -1.5580    0.0000 C   0  0  0
    2.5620    3.8010    0.0000 O   0  0  0
    0.1770    2.7030    0.0000 O   0  5  0
    4.4510   -0.3310    0.0000 C   0  0  0
    5.9380   -0.4490    0.0000 C   0  0  0
    6.8000    0.7790    0.0000 O   0  0  0
    6.5640   -1.8060    0.0000 N   0  0  0
    5.6780   -3.0220    0.0000 C   0  0  0
    6.1390   -4.4390    0.0000 C   0  0  0
    4.1790   -3.0220    0.0000 C   0  0  0
    4.9230   -5.3120    0.0000 N   0  0  0
    7.5550   -4.8640    0.0000 C   0  0  0
    3.7070   -4.4390    0.0000 C   0  0  0
    3.1640   -1.8890    0.0000 C   0  0  0
    8.6420   -3.8370    0.0000 O   0  0  0
    7.8980   -6.3040    0.0000 O   0  0  0
    2.2310   -4.7580    0.0000 C   0  0  0
    1.6880   -2.2080    0.0000 C   0  0  0
    6.7880   -7.3080    0.0000 C   0  0  0
    1.2160   -3.6240    0.0000 C   0  0  0
    7.1190   -8.7480    0.0000 C   0  0  0
  1  2  1
  2  3  2
  2  4  1
  3  5  1
  3  6  1
  4  7  2
  5  8  2
  5  9  1
  6 10  2
 10 11  1
 11 12  2
 11 13  1
 13 14  1
 14 15  2
 14 16  1
 15 17  1
 15 18  1
 16 19  2
 16 20  1
 18 21  2
 18 22  1
 19 23  1
 20 24  2
 22 25  1
 23 26  2
 25 27  1
  7 10  1
 17 19  1
 24 26  1
M  CHG  2   5   1   9  -1
M  END
> <Acceptor>
5

> <CAS>
850929-56-5

> <Chemical_Name>
ethyl 3-(4-chloro-3-nitrobenzamido)-1H-indole-2-carboxylate

> <Collection>
General

> <Description>
solid

> <Donor>
2

> <FSP3>
0.11

> <HAC>
27

> <IDNUMBER>
F0588-0121

> <MW>
387.77

> <PriceCoeff>
1.

> <RotBonds>
6

> <TPSA>
114.33

> <clogP>
4.21

$$$$
