Compound 1
Actelion Java MolfileCreator 2.0

  0  0  0  0  0  0              0 V3000
M  V30 BEGIN CTAB
M  V30 COUNTS 33 35 0 0 0
M  V30 BEGIN ATOM
M  V30 1 O 0.0 0.0 0.0 0
M  V30 2 N -1.3908 0.7965 0.0 0 CHG=1
M  V30 3 O -2.7816 0.1137 0.0 0 CHG=-1
M  V30 4 C -1.5046 2.4023 0.0 0
M  V30 5 C -2.8954 3.1989 0.0 0
M  V30 6 C -0.3413 3.1989 0.0 0
M  V30 7 C -3.0092 4.8047 0.0 0
M  V30 8 C -0.4551 4.8047 0.0 0
M  V30 9 C -1.846 5.6139 0.0 0
M  V30 10 N -1.9598 7.2197 0.0 0
M  V30 11 N -3.2621 8.168 0.0 0
M  V30 12 C -0.885 8.168 0.0 0
M  V30 13 C -2.8828 9.6979 0.0 0
M  V30 14 C 0.4172 7.7887 0.0 0
M  V30 15 C -1.4919 9.6979 0.0 0
M  V30 16 C -3.8311 11.0003 0.0 0
M  V30 17 O 0.6322 6.4484 0.0 0
M  V30 18 O 1.3782 8.8634 0.0 0
M  V30 19 C -3.2874 12.467 0.0 0
M  V30 20 C -5.4242 10.9497 0.0 0
M  V30 21 C 2.6805 8.4841 0.0 0
M  V30 22 C -4.2357 13.7693 0.0 0
M  V30 23 C -6.3725 12.252 0.0 0
M  V30 24 C 3.6414 9.5588 0.0 0
M  V30 25 C -5.8289 13.7187 0.0 0
M  V30 26 C 4.9438 9.1795 0.0 0
M  V30 27 C 5.9047 10.2543 0.0 0
M  V30 28 C 5.1587 7.8393 0.0 0
M  V30 29 C 7.2071 9.875 0.0 0
M  V30 30 C 8.168 10.9497 0.0 0
M  V30 31 C 9.4703 10.5704 0.0 0
M  V30 32 C 10.4313 11.6451 0.0 0
M  V30 33 C 9.6853 9.2301 0.0 0
M  V30 END ATOM
M  V30 BEGIN BOND
M  V30 1 2 1 2
M  V30 2 1 2 3
M  V30 3 1 2 4
M  V30 4 2 4 5
M  V30 5 1 4 6
M  V30 6 1 5 7
M  V30 7 2 6 8
M  V30 8 2 7 9
M  V30 9 1 9 10
M  V30 10 1 10 11
M  V30 11 1 10 12
M  V30 12 2 11 13
M  V30 13 1 12 14
M  V30 14 2 12 15
M  V30 15 1 13 16
M  V30 16 2 14 17
M  V30 17 1 14 18
M  V30 18 2 16 19
M  V30 19 1 16 20
M  V30 20 1 18 21
M  V30 21 1 19 22
M  V30 22 2 20 23
M  V30 23 1 21 24
M  V30 24 2 22 25
M  V30 25 2 24 26
M  V30 26 1 26 27
M  V30 27 1 26 28
M  V30 28 1 27 29
M  V30 29 1 29 30
M  V30 30 2 30 31
M  V30 31 1 31 32
M  V30 32 1 31 33
M  V30 33 1 8 9
M  V30 34 1 13 15
M  V30 35 1 23 25
M  V30 END BOND
M  V30 END CTAB
M  END
>  <Molecule Name>
[(2E)-3,7-dimethylocta-2,6-dienyl] 2-(4-nitrophenyl)-5-phenylpyrazole-3-carboxylate

>  <Database>
Pubchem

>  <Reference DOI>
10.1021/jf104712c

>  <Molecular Target>
Acyrthosiphon pisum

>  <PubChem CID>
52920578

>  <Smiles>
CC(C)=CCC/C(\C)=C/COC(c1cc(-c2ccccc2)n[n]1-c(cc1)ccc1[N+]([O-])=O)=O

>  <Molecular Formula>
C26H27N3O4

>  <Activity>
1

$$$$
Compound 2
Actelion Java MolfileCreator 2.0

  0  0  0  0  0  0              0 V3000
M  V30 BEGIN CTAB
M  V30 COUNTS 30 31 0 0 0
M  V30 BEGIN ATOM
M  V30 1 O 0.0 0.0 0.0 0
M  V30 2 N -1.4632 0.838 0.0 0 CHG=1
M  V30 3 O -2.9264 0.1729 0.0 0 CHG=-1
M  V30 4 C -1.6494 2.5274 0.0 0
M  V30 5 C -3.1127 3.3787 0.0 0
M  V30 6 C -0.5586 3.3787 0.0 0
M  V30 7 C -3.2989 5.0681 0.0 0
M  V30 8 C -0.7449 5.0681 0.0 0
M  V30 9 C -2.2081 5.9194 0.0 0
M  V30 10 N -2.3943 7.6088 0.0 0
M  V30 11 N -3.7645 8.6064 0.0 0
M  V30 12 C -1.3967 8.6064 0.0 0
M  V30 13 C -3.4319 10.216 0.0 0
M  V30 14 C -0.1596 8.2739 0.0 0
M  V30 15 C -2.1017 10.216 0.0 0
M  V30 16 C -4.4296 11.5861 0.0 0
M  V30 17 O 0.0 6.9969 0.0 0
M  V30 18 O 0.7183 9.4046 0.0 0
M  V30 19 C -3.9241 13.1292 0.0 0
M  V30 20 C -6.1056 11.5994 0.0 0
M  V30 21 C 1.9554 9.072 0.0 0
M  V30 22 C 2.8333 10.2027 0.0 0
M  V30 23 C 4.0704 9.8701 0.0 0
M  V30 24 C 4.9483 11.0008 0.0 0
M  V30 25 C 4.23 8.5931 0.0 0
M  V30 26 C 6.1854 10.6683 0.0 0
M  V30 27 C 7.0634 11.799 0.0 0
M  V30 28 C 8.3005 11.4664 0.0 0
M  V30 29 C 9.1784 12.5971 0.0 0
M  V30 30 C 8.4601 10.1894 0.0 0
M  V30 END ATOM
M  V30 BEGIN BOND
M  V30 1 2 1 2
M  V30 2 1 2 3
M  V30 3 1 2 4
M  V30 4 2 4 5
M  V30 5 1 4 6
M  V30 6 1 5 7
M  V30 7 2 6 8
M  V30 8 2 7 9
M  V30 9 1 9 10
M  V30 10 1 10 11
M  V30 11 1 10 12
M  V30 12 2 11 13
M  V30 13 1 12 14
M  V30 14 2 12 15
M  V30 15 1 13 16
M  V30 16 2 14 17
M  V30 17 1 14 18
M  V30 18 1 16 19
M  V30 19 1 16 20
M  V30 20 1 18 21
M  V30 21 1 21 22
M  V30 22 2 22 23
M  V30 23 1 23 24
M  V30 24 1 23 25
M  V30 25 1 24 26
M  V30 26 1 26 27
M  V30 27 2 27 28
M  V30 28 1 28 29
M  V30 29 1 28 30
M  V30 30 1 8 9
M  V30 31 1 13 15
M  V30 END BOND
M  V30 END CTAB
M  END
>  <Molecule Name>
[(2E)-3,7-dimethylocta-2,6-dienyl] 2-(4-nitrophenyl)-5-propan-2-ylpyrazole-3-carboxylate

>  <Database>
Pubchem

>  <Reference DOI>
10.1021/jf104712c

>  <Molecular Target>
Acyrthosiphon pisum

>  <PubChem CID>
52920575

>  <Smiles>
CC(C)c(cc1C(OC/C=C(\C)/CCC=C(C)C)=O)n[n]1-c(cc1)ccc1[N+]([O-])=O

>  <Molecular Formula>
C23H29N3O4

>  <Activity>
1

$$$$
Compound 3
Actelion Java MolfileCreator 2.0

  0  0  0  0  0  0              0 V3000
M  V30 BEGIN CTAB
M  V30 COUNTS 22 21 0 0 0
M  V30 BEGIN ATOM
M  V30 1 O 0.0 0.0 0.0 0
M  V30 2 C -0.0238 1.5148 0.0 0
M  V30 3 O 1.2404 2.2781 0.0 0
M  V30 4 C -1.3359 2.2781 0.0 0
M  V30 5 C 1.2166 3.793 0.0 0
M  V30 6 O -1.3597 0.811 0.0 0
M  V30 7 C -0.0715 3.0415 0.0 0
M  V30 8 C -2.6479 3.0415 0.0 0
M  V30 9 C 2.4809 4.5563 0.0 0
M  V30 10 C -0.0954 4.5563 0.0 0
M  V30 11 C -3.96 2.3139 0.0 0
M  V30 12 C 2.4571 6.0712 0.0 0
M  V30 13 O -1.4074 5.3197 0.0 0
M  V30 14 O 1.1689 5.3197 0.0 0
M  V30 15 O -3.9838 0.8468 0.0 0
M  V30 16 O -5.272 3.0773 0.0 0
M  V30 17 C 1.145 6.8345 0.0 0
M  V30 18 C -6.5841 2.3497 0.0 0
M  V30 19 C 2.4094 7.5979 0.0 0
M  V30 20 C -7.8961 3.1131 0.0 0
M  V30 21 C 2.3855 9.1127 0.0 0
M  V30 22 C -9.2082 2.3855 0.0 0
M  V30 END ATOM
M  V30 BEGIN BOND
M  V30 1 2 1 2
M  V30 2 1 2 3
M  V30 3 1 2 4
M  V30 4 1 3 5
M  V30 5 1 4 6
M  V30 6 1 4 7
M  V30 7 1 4 8
M  V30 8 1 5 9
M  V30 9 1 7 10
M  V30 10 1 8 11
M  V30 11 1 9 12
M  V30 12 2 10 13
M  V30 13 1 10 14
M  V30 14 2 11 15
M  V30 15 1 11 16
M  V30 16 1 14 17
M  V30 17 1 16 18
M  V30 18 1 17 19
M  V30 19 1 18 20
M  V30 20 1 19 21
M  V30 21 1 20 22
M  V30 END BOND
M  V30 END CTAB
M  END
>  <Molecule Name>
Citric acid, tri-n-propyl ester

>  <Database>
Pubchem

>  <Reference DOI>
10.3390/toxics11100837

>  <Molecular Target>
Aedes aegypti

>  <PubChem CID>
74113

>  <Smiles>
CCCOC(CC(CC(OCCC)=O)(C(OCCC)=O)O)=O

>  <Molecular Formula>
C15H26O7

>  <Activity>
1

$$$$
Compound 4
Actelion Java MolfileCreator 2.0

  0  0  0  0  0  0              0 V3000
M  V30 BEGIN CTAB
M  V30 COUNTS 16 15 0 0 0
M  V30 BEGIN ATOM
M  V30 1 O 0.0 0.0 0.0 0
M  V30 2 C -0.024 -1.4789 0.0 0
M  V30 3 O 1.2505 -2.2244 0.0 0
M  V30 4 N -1.3467 -2.2244 0.0 0
M  V30 5 C 2.525 -1.4428 0.0 0
M  V30 6 C -1.3707 -3.7034 0.0 0
M  V30 7 C -2.6693 -1.4428 0.0 0
M  V30 8 C 3.7996 -2.1883 0.0 0
M  V30 9 O -2.6934 -4.4369 0.0 0
M  V30 10 O -0.0961 -4.4369 0.0 0
M  V30 11 O -2.6934 0.0841 0.0 0
M  V30 12 O -3.992 -2.1883 0.0 0
M  V30 13 C -0.1202 -5.9158 0.0 0
M  V30 14 C -5.3146 -1.4068 0.0 0
M  V30 15 C 1.1543 -6.6613 0.0 0
M  V30 16 C -6.6373 -2.1523 0.0 0
M  V30 END ATOM
M  V30 BEGIN BOND
M  V30 1 2 1 2
M  V30 2 1 2 3
M  V30 3 1 2 4
M  V30 4 1 3 5
M  V30 5 1 4 6
M  V30 6 1 4 7
M  V30 7 1 5 8
M  V30 8 2 6 9
M  V30 9 1 6 10
M  V30 10 2 7 11
M  V30 11 1 7 12
M  V30 12 1 10 13
M  V30 13 1 12 14
M  V30 14 1 13 15
M  V30 15 1 14 16
M  V30 END BOND
M  V30 END CTAB
M  END
>  <Molecule Name>
Dicarboethoxyurethane

>  <Database>
Pubchem

>  <Reference DOI>
10.3390/toxics11100837

>  <Molecular Target>
Aedes aegypti

>  <PubChem CID>
76671

>  <Smiles>
CCOC(N(C(OCC)=O)C(OCC)=O)=O

>  <Molecular Formula>
C9H15NO6

>  <Activity>
1

$$$$
Compound 5
Actelion Java MolfileCreator 2.0

  0  0  0  0  0  0              0 V3000
M  V30 BEGIN CTAB
M  V30 COUNTS 28 30 0 0 0
M  V30 BEGIN ATOM
M  V30 1 Cl 0.0 0.0 0.0 0
M  V30 2 C -1.3514 0.774 0.0 0
M  V30 3 Cl -1.4128 2.3343 0.0 0
M  V30 4 C -2.7029 0.0614 0.0 0
M  V30 5 C -4.0543 0.8477 0.0 0
M  V30 6 C -4.8406 2.1991 0.0 0
M  V30 7 C -5.6146 0.9091 0.0 0
M  V30 8 C -3.612 2.9854 0.0 0
M  V30 9 C -6.1921 2.9854 0.0 0
M  V30 10 C -6.9661 0.1965 0.0 0
M  V30 11 O -8.3176 0.9828 0.0 0
M  V30 12 O -7.0275 -1.2408 0.0 0
M  V30 13 C -8.379 -1.9534 0.0 0
M  V30 14 C -9.7304 -1.1671 0.0 0
M  V30 15 C -8.4404 -3.3909 0.0 0
M  V30 16 N -11.0819 -0.3808 0.0 0
M  V30 17 C -9.7919 -4.1035 0.0 0
M  V30 18 C -7.2118 -4.1035 0.0 0
M  V30 19 C -9.8533 -5.5409 0.0 0
M  V30 20 C -7.2733 -5.5409 0.0 0
M  V30 21 O -11.2048 -6.2535 0.0 0
M  V30 22 C -8.6247 -6.2535 0.0 0
M  V30 23 C -11.2662 -7.691 0.0 0
M  V30 24 C -12.6177 -8.4036 0.0 0
M  V30 25 C -10.0376 -8.4036 0.0 0
M  V30 26 C -12.6791 -9.841 0.0 0
M  V30 27 C -10.099 -9.841 0.0 0
M  V30 28 C -11.4505 -10.5536 0.0 0
M  V30 END ATOM
M  V30 BEGIN BOND
M  V30 1 1 1 2
M  V30 2 1 2 3
M  V30 3 2 2 4
M  V30 4 1 4 5
M  V30 5 1 5 6
M  V30 6 1 5 7
M  V30 7 1 6 8
M  V30 8 1 6 9
M  V30 9 1 7 10
M  V30 10 2 10 11
M  V30 11 1 10 12
M  V30 12 1 12 13
M  V30 13 1 13 14
M  V30 14 1 13 15
M  V30 15 3 14 16
M  V30 16 2 15 17
M  V30 17 1 15 18
M  V30 18 1 17 19
M  V30 19 2 18 20
M  V30 20 1 19 21
M  V30 21 2 19 22
M  V30 22 1 21 23
M  V30 23 2 23 24
M  V30 24 1 23 25
M  V30 25 1 24 26
M  V30 26 2 25 27
M  V30 27 2 26 28
M  V30 28 1 6 7
M  V30 29 1 20 22
M  V30 30 1 27 28
M  V30 END BOND
M  V30 END CTAB
M  END
>  <Molecule Name>
Cypermethrin

>  <Database>
Pubchem

>  <Reference DOI>
10.1002/ps.2780120407

>  <Molecular Target>
Simulium spp.

>  <PubChem CID>
2912

>  <Smiles>
CC(C)(C1C=C(Cl)Cl)C1C(OC(c1cc(Oc2ccccc2)ccc1)C#N)=O

>  <Molecular Formula>
C22H19NO3Cl2

>  <Activity>
1

$$$$
Compound 6
Actelion Java MolfileCreator 2.0

  0  0  0  0  0  0              0 V3000
M  V30 BEGIN CTAB
M  V30 COUNTS 12 11 0 0 0
M  V30 BEGIN ATOM
M  V30 1 Cl 0.0 0.0 0.0 0
M  V30 2 C -1.3104 -0.7386 0.0 0
M  V30 3 C -2.6208 0.0119 0.0 0
M  V30 4 O -2.6446 1.5248 0.0 0
M  V30 5 O -3.9312 -0.7147 0.0 0
M  V30 6 C -5.2416 0.0357 0.0 0
M  V30 7 C -6.5521 -0.7028 0.0 0
M  V30 8 N -7.8625 0.0476 0.0 0 CHG=1
M  V30 9 C -7.3145 -1.9656 0.0 0
M  V30 10 C -5.8135 -1.9656 0.0 0
M  V30 11 O -7.8863 1.5605 0.0 0
M  V30 12 O -9.1729 -0.679 0.0 0 CHG=-1
M  V30 END ATOM
M  V30 BEGIN BOND
M  V30 1 1 1 2
M  V30 2 1 2 3
M  V30 3 2 3 4
M  V30 4 1 3 5
M  V30 5 1 5 6
M  V30 6 1 6 7
M  V30 7 1 7 8
M  V30 8 1 7 9
M  V30 9 1 7 10
M  V30 10 2 8 11
M  V30 11 1 8 12
M  V30 END BOND
M  V30 END CTAB
M  END
>  <Molecule Name>
beta-Diethylaminocrotonic acid, methyl ester

>  <Database>
PubChem

>  <Reference DOI>
10.3390/toxics11100837

>  <Molecular Target>
Aedes aegypti

>  <PubChem CID>
154346602

>  <Smiles>
CC(C)(COC(CCl)=O)[N+]([O-])=O

>  <Molecular Formula>
C6H10NO4Cl

>  <Activity>
1

$$$$
Compound 7
Actelion Java MolfileCreator 2.0

  0  0  0  0  0  0              0 V3000
M  V30 BEGIN CTAB
M  V30 COUNTS 29 33 0 0 0
M  V30 BEGIN ATOM
M  V30 1 O 0.0 0.0 0.0 0
M  V30 2 C 1.155 -0.693 0.0 0
M  V30 3 C 1.0463 -2.0655 0.0 0
M  V30 4 C 2.3101 0.163 0.0 0 CFG=1
M  V30 5 C 2.2014 -2.7585 0.0 0
M  V30 6 C -0.4076 -2.7585 0.0 0
M  V30 7 C 2.1742 1.8209 0.0 0
M  V30 8 C 3.4651 -0.5299 0.0 0 CFG=2
M  V30 9 O 3.3564 -1.8888 0.0 0
M  V30 10 C 2.1198 -4.1989 0.0 0
M  V30 11 C -0.5299 -4.1989 0.0 0
M  V30 12 C 3.3836 2.6906 0.0 0
M  V30 13 C 0.6658 2.6906 0.0 0
M  V30 14 C 4.7017 0.3261 0.0 0
M  V30 15 C 0.693 -4.9327 0.0 0
M  V30 16 C 3.1254 -5.0822 0.0 0
M  V30 17 O 4.6066 1.9704 0.0 0
M  V30 18 C 3.2885 4.4164 0.0 0
M  V30 19 C 0.5299 4.4164 0.0 0
M  V30 20 O 0.9376 -6.3188 0.0 0
M  V30 21 C 2.3508 -6.3732 0.0 0 CFG=1
M  V30 22 C 1.7937 5.2861 0.0 0
M  V30 23 O -0.8561 5.2861 0.0 0
M  V30 24 C 3.0439 -7.5282 0.0 0
M  V30 25 O 1.685 6.876 0.0 0
M  V30 26 C -0.9784 6.876 0.0 0
M  V30 27 C 4.4164 -7.4059 0.0 0
M  V30 28 C 2.1742 -8.6969 0.0 0
M  V30 29 C 2.84 7.7457 0.0 0
M  V30 END ATOM
M  V30 BEGIN BOND
M  V30 1 2 1 2
M  V30 2 1 2 3
M  V30 3 1 4 2 CFG=1
M  V30 4 2 3 5
M  V30 5 1 3 6
M  V30 6 1 4 7
M  V30 7 1 4 8
M  V30 8 1 5 9
M  V30 9 1 5 10
M  V30 10 2 6 11
M  V30 11 2 7 12
M  V30 12 1 7 13
M  V30 13 1 8 14
M  V30 14 2 10 15
M  V30 15 1 10 16
M  V30 16 1 12 17
M  V30 17 1 12 18
M  V30 18 2 13 19
M  V30 19 1 15 20
M  V30 20 1 16 21
M  V30 21 2 18 22
M  V30 22 1 19 23
M  V30 23 1 21 24 CFG=3
M  V30 24 1 22 25
M  V30 25 1 23 26
M  V30 26 2 24 27
M  V30 27 1 24 28
M  V30 28 1 25 29
M  V30 29 1 8 9 CFG=1
M  V30 30 1 11 15
M  V30 31 1 14 17
M  V30 32 1 19 22
M  V30 33 1 20 21
M  V30 END BOND
M  V30 BEGIN COLLECTION
M  V30 MDLV30/STEABS ATOMS=(3 4 8 21)
M  V30 END COLLECTION
M  V30 END CTAB
M  END
>  <Molecule Name>
Rotenone

>  <Database>
Pubchem

>  <Reference DOI>
10.1186/s13071-017-2122-8

>  <Molecular Target>
Anopheles spp.

>  <PubChem CID>
6758

>  <Smiles>
CC([C@@H](C1)Oc(cc2)c1c(O[C@H]1[C@@H]3c(cc(c(OC)c4)OC)c4OC1)c2C3=O)=C

>  <Molecular Formula>
C23H22O6

>  <Activity>
1

$$$$
Compound 8
Actelion Java MolfileCreator 2.0

  0  0  0  0  0  0              0 V3000
M  V30 BEGIN CTAB
M  V30 COUNTS 19 18 0 0 0
M  V30 BEGIN ATOM
M  V30 1 O 0.0 0.0 0.0 0
M  V30 2 C -0.0241 -1.483 0.0 0
M  V30 3 O -1.3504 -2.2306 0.0 0
M  V30 4 N 1.2539 -2.2306 0.0 0
M  V30 5 C -2.6767 -1.4589 0.0 0
M  V30 6 C 2.532 -1.4589 0.0 0
M  V30 7 C -4.003 -2.2065 0.0 0
M  V30 8 O 2.5079 0.0723 0.0 0
M  V30 9 C 3.8101 -2.2065 0.0 0
M  V30 10 C -5.3293 -1.4348 0.0 0
M  V30 11 O 5.0882 -1.4348 0.0 0
M  V30 12 C -6.6556 -2.1823 0.0 0
M  V30 13 C 6.3663 -2.1823 0.0 0
M  V30 14 C 7.6444 -1.4107 0.0 0
M  V30 15 O 8.9224 -2.1582 0.0 0
M  V30 16 C 10.2005 -1.3866 0.0 0
M  V30 17 C 11.4786 -2.1341 0.0 0
M  V30 18 C 12.7567 -1.3624 0.0 0
M  V30 19 C 14.0348 -2.11 0.0 0
M  V30 END ATOM
M  V30 BEGIN BOND
M  V30 1 2 1 2
M  V30 2 1 2 3
M  V30 3 1 2 4
M  V30 4 1 3 5
M  V30 5 1 4 6
M  V30 6 1 5 7
M  V30 7 2 6 8
M  V30 8 1 6 9
M  V30 9 1 7 10
M  V30 10 1 9 11
M  V30 11 1 10 12
M  V30 12 1 11 13
M  V30 13 1 13 14
M  V30 14 1 14 15
M  V30 15 1 15 16
M  V30 16 1 16 17
M  V30 17 1 17 18
M  V30 18 1 18 19
M  V30 END BOND
M  V30 END CTAB
M  END
>  <Molecule Name>
beta-Butoxyethoxyacetylcarbamic acid, butyl ester

>  <Database>
No information

>  <Reference DOI>
10.3390/toxics11100837

>  <Molecular Target>
Aedes aegypti

>  <PubChem CID>


>  <Smiles>
CCCCOCCOCC(NC(OCCCC)=O)=O

>  <Molecular Formula>
C13H25NO5

>  <Activity>
1

$$$$
Compound 9
Actelion Java MolfileCreator 2.0

  0  0  0  0  0  0              0 V3000
M  V30 BEGIN CTAB
M  V30 COUNTS 14 15 0 0 0
M  V30 BEGIN ATOM
M  V30 1 O 0.0 0.0 0.0 0
M  V30 2 N -1.3238 0.7581 0.0 0 CHG=1
M  V30 3 O -1.3478 2.2866 0.0 0 CHG=-1
M  V30 4 C -2.6476 0.012 0.0 0
M  V30 5 C -2.6717 -1.4682 0.0 0
M  V30 6 C -3.9714 0.7822 0.0 0
M  V30 7 C -1.5885 -2.443 0.0 0
M  V30 8 C -3.9955 -2.2023 0.0 0
M  V30 9 C -5.2953 0.0481 0.0 0
M  V30 10 O -0.1444 -2.106 0.0 0
M  V30 11 N -2.2384 -3.7909 0.0 0
M  V30 12 C -3.7067 -3.6465 0.0 0
M  V30 13 C -5.3193 -1.4321 0.0 0
M  V30 14 O -4.7296 -4.7296 0.0 0
M  V30 END ATOM
M  V30 BEGIN BOND
M  V30 1 2 1 2
M  V30 2 1 2 3
M  V30 3 1 2 4
M  V30 4 2 4 5
M  V30 5 1 4 6
M  V30 6 1 5 7
M  V30 7 1 5 8
M  V30 8 2 6 9
M  V30 9 2 7 10
M  V30 10 1 7 11
M  V30 11 1 8 12
M  V30 12 2 8 13
M  V30 13 2 12 14
M  V30 14 1 9 13
M  V30 15 1 11 12
M  V30 END BOND
M  V30 END CTAB
M  END
>  <Molecule Name>
3-Nitrophthalimide

>  <Database>
PubChem

>  <Reference DOI>
10.3390/toxics11100837

>  <Molecular Target>
Aedes aegypti

>  <PubChem CID>
11779

>  <Smiles>
[O-][N+](c(cccc1C(N2)=O)c1C2=O)=O

>  <Molecular Formula>
C8H4N2O4

>  <Activity>
1

$$$$
Compound 10
Actelion Java MolfileCreator 2.0

  0  0  0  0  0  0              0 V3000
M  V30 BEGIN CTAB
M  V30 COUNTS 27 30 0 0 0
M  V30 BEGIN ATOM
M  V30 1 O 0.0 0.0 0.0 0
M  V30 2 C -1.4331 -0.4276 0.0 0
M  V30 3 C 0.8552 -1.1788 0.0 0
M  V30 4 C -1.4562 -1.8953 0.0 0
M  V30 5 C -2.7506 0.3467 0.0 0
M  V30 6 O -0.0462 -2.3576 0.0 0
M  V30 7 C -2.7737 -2.6119 0.0 0
M  V30 8 C -4.0681 -0.3698 0.0 0
M  V30 9 C -4.0912 -1.8376 0.0 0
M  V30 10 C -5.3856 0.4045 0.0 0
M  V30 11 C -6.7032 -0.312 0.0 0
M  V30 12 C -8.0207 0.4507 0.0 0
M  V30 13 C -9.3382 -0.2658 0.0 0
M  V30 14 O -10.6558 0.4969 0.0 0
M  V30 15 C -11.9733 -0.2195 0.0 0
M  V30 16 C -13.2908 0.5431 0.0 0
M  V30 17 C -14.6084 -0.1733 0.0 0
M  V30 18 C -15.9259 0.5894 0.0 0
M  V30 19 C -17.2434 -0.1271 0.0 0
M  V30 20 C -18.561 0.6356 0.0 0
M  V30 21 C -17.2665 -1.5949 0.0 0
M  V30 22 C -19.8785 -0.0809 0.0 0
M  V30 23 C -18.5841 -2.3345 0.0 0
M  V30 24 O -21.3116 0.3929 0.0 0
M  V30 25 C -19.9016 -1.5486 0.0 0
M  V30 26 C -22.2131 -0.7858 0.0 0
M  V30 27 O -21.3347 -1.9762 0.0 0
M  V30 END ATOM
M  V30 BEGIN BOND
M  V30 1 1 1 2
M  V30 2 1 1 3
M  V30 3 2 2 4
M  V30 4 1 2 5
M  V30 5 1 3 6
M  V30 6 1 4 7
M  V30 7 2 5 8
M  V30 8 2 7 9
M  V30 9 1 8 10
M  V30 10 1 10 11
M  V30 11 1 11 12
M  V30 12 1 12 13
M  V30 13 1 13 14
M  V30 14 1 14 15
M  V30 15 1 15 16
M  V30 16 1 16 17
M  V30 17 1 17 18
M  V30 18 1 18 19
M  V30 19 2 19 20
M  V30 20 1 19 21
M  V30 21 1 20 22
M  V30 22 2 21 23
M  V30 23 1 22 24
M  V30 24 2 22 25
M  V30 25 1 24 26
M  V30 26 1 25 27
M  V30 27 1 4 6
M  V30 28 1 8 9
M  V30 29 1 23 25
M  V30 30 1 26 27
M  V30 END BOND
M  V30 END CTAB
M  END
>  <Molecule Name>
5-[4-[4-(1,3-benzodioxol-5-yl)butoxy]butyl]-1,3-benzodioxole

>  <Database>
Pubchem

>  <Reference DOI>
10.1371/annotation/1dc83f26-8045-4b63-8a86-24c7b71a7f79

>  <Molecular Target>
Aedes aegypti

>  <PubChem CID>
141224260

>  <Smiles>
C(CCOCCCCc(cc1)cc2c1OCO2)Cc(cc1)cc2c1OCO2

>  <Molecular Formula>
C22H26O5

>  <Activity>
1

$$$$
Compound 11
Actelion Java MolfileCreator 2.0

  0  0  0  0  0  0              0 V3000
M  V30 BEGIN CTAB
M  V30 COUNTS 26 28 0 0 0
M  V30 BEGIN ATOM
M  V30 1 Cl 0.0 0.0 0.0 0
M  V30 2 C -1.3524 0.7745 0.0 0
M  V30 3 Cl -2.7048 0.0614 0.0 0
M  V30 4 C -1.4262 2.336 0.0 0
M  V30 5 C -2.7786 3.1229 0.0 0
M  V30 6 C -4.3401 3.1966 0.0 0
M  V30 7 C -3.5655 4.4753 0.0 0
M  V30 8 C -4.4138 1.7827 0.0 0
M  V30 9 C -5.6925 3.9835 0.0 0
M  V30 10 C -3.6393 6.0368 0.0 0
M  V30 11 O -4.9917 6.8237 0.0 0
M  V30 12 O -2.4344 6.8237 0.0 0
M  V30 13 C -2.5081 8.3851 0.0 0
M  V30 14 C -1.3032 9.172 0.0 0
M  V30 15 C -1.377 10.7334 0.0 0
M  V30 16 C -0.0983 8.4589 0.0 0
M  V30 17 C -0.1721 11.5203 0.0 0
M  V30 18 C 1.1065 9.2458 0.0 0
M  V30 19 O -0.2458 13.0818 0.0 0
M  V30 20 C 1.0327 10.8072 0.0 0
M  V30 21 C 0.959 13.8687 0.0 0
M  V30 22 C 0.8852 15.4301 0.0 0
M  V30 23 C 2.1639 13.1556 0.0 0
M  V30 24 C 2.0901 16.217 0.0 0
M  V30 25 C 3.3688 13.9424 0.0 0
M  V30 26 C 3.295 15.5039 0.0 0
M  V30 END ATOM
M  V30 BEGIN BOND
M  V30 1 1 1 2
M  V30 2 1 2 3
M  V30 3 2 2 4
M  V30 4 1 4 5
M  V30 5 1 5 6
M  V30 6 1 5 7
M  V30 7 1 6 8
M  V30 8 1 6 9
M  V30 9 1 7 10
M  V30 10 2 10 11
M  V30 11 1 10 12
M  V30 12 1 12 13
M  V30 13 1 13 14
M  V30 14 2 14 15
M  V30 15 1 14 16
M  V30 16 1 15 17
M  V30 17 2 16 18
M  V30 18 1 17 19
M  V30 19 2 17 20
M  V30 20 1 19 21
M  V30 21 2 21 22
M  V30 22 1 21 23
M  V30 23 1 22 24
M  V30 24 2 23 25
M  V30 25 2 24 26
M  V30 26 1 6 7
M  V30 27 1 18 20
M  V30 28 1 25 26
M  V30 END BOND
M  V30 END CTAB
M  END
>  <Molecule Name>
Permethrin

>  <Database>
Pubchem

>  <Reference DOI>
10.1093/milmed/163.5.324

>  <Molecular Target>
Aleurocanthus Woglumi Ashby

>  <PubChem CID>
40326

>  <Smiles>
CC(C)(C1C=C(Cl)Cl)C1C(OCc1cc(Oc2ccccc2)ccc1)=O

>  <Molecular Formula>
C21H20O3Cl2

>  <Activity>
1

$$$$
Compound 12
Actelion Java MolfileCreator 2.0

  0  0  0  0  0  0              0 V3000
M  V30 BEGIN CTAB
M  V30 COUNTS 27 28 0 0 0
M  V30 BEGIN ATOM
M  V30 1 O 0.0 0.0 0.0 0
M  V30 2 C -1.4614 -0.4348 0.0 0
M  V30 3 C -2.7054 0.471 0.0 0
M  V30 4 C -1.9686 -1.8237 0.0 0
M  V30 5 C -3.9494 -0.3623 0.0 0
M  V30 6 C -2.7416 2.0049 0.0 0
M  V30 7 C -3.5025 -1.7875 0.0 0 CFG=1
M  V30 8 C -5.4108 0.1449 0.0 0
M  V30 9 C -1.4855 2.7658 0.0 0
M  V30 10 O -4.4084 -2.959 0.0 0
M  V30 11 C -1.5218 4.2997 0.0 0
M  V30 12 C -3.8166 -4.2876 0.0 0
M  V30 13 C -0.2657 5.0727 0.0 0
M  V30 14 O -2.3672 -4.4084 0.0 0
M  V30 15 C -4.7224 -5.4591 0.0 0 CFG=1
M  V30 16 C -0.3019 6.6065 0.0 0
M  V30 17 C -4.9156 -6.9085 0.0 0
M  V30 18 C -6.1234 -6.051 0.0 0 CFG=2
M  V30 19 C -5.8215 -8.08 0.0 0
M  V30 20 C -3.4663 -7.0293 0.0 0
M  V30 21 C -7.6452 -5.8577 0.0 0
M  V30 22 C -8.5511 -7.0293 0.0 0
M  V30 23 C -10.0729 -6.836 0.0 0
M  V30 24 C -7.9593 -8.3578 0.0 0
M  V30 25 O -10.7372 -5.435 0.0 0
M  V30 26 O -10.9787 -8.0076 0.0 0
M  V30 27 C -12.5005 -7.8143 0.0 0
M  V30 END ATOM
M  V30 BEGIN BOND
M  V30 1 2 1 2
M  V30 2 1 2 3
M  V30 3 1 2 4
M  V30 4 2 3 5
M  V30 5 1 3 6
M  V30 6 1 4 7
M  V30 7 1 5 8
M  V30 8 1 6 9
M  V30 9 1 7 10 CFG=3
M  V30 10 2 9 11
M  V30 11 1 10 12
M  V30 12 1 11 13
M  V30 13 2 12 14
M  V30 14 1 15 12 CFG=1
M  V30 15 2 13 16
M  V30 16 1 15 17
M  V30 17 1 15 18
M  V30 18 1 17 19
M  V30 19 1 17 20
M  V30 20 1 18 21 CFG=3
M  V30 21 2 21 22
M  V30 22 1 22 23
M  V30 23 1 22 24
M  V30 24 2 23 25
M  V30 25 1 23 26
M  V30 26 1 26 27
M  V30 27 1 5 7
M  V30 28 1 17 18
M  V30 END BOND
M  V30 BEGIN COLLECTION
M  V30 MDLV30/STEABS ATOMS=(3 7 15 18)
M  V30 END COLLECTION
M  V30 END CTAB
M  END
>  <Molecule Name>
Pyrethrin

>  <Database>
Pubchem

>  <Reference DOI>
10.1038/s41467-021-22847-0

>  <Molecular Target>
Aedes aegypti

>  <PubChem CID>
6433155

>  <Smiles>
CC(C)([C@@H]1/C=C(\C)/C(OC)=O)[C@@H]1C(O[C@@H](C1)C(C)=C(C/C=C/C=C)C1=O)=O

>  <Molecular Formula>
C22H28O5

>  <Activity>
1

$$$$
Compound 13
Actelion Java MolfileCreator 2.0

  0  0  0  0  0  0              0 V3000
M  V30 BEGIN CTAB
M  V30 COUNTS 13 13 0 0 0
M  V30 BEGIN ATOM
M  V30 1 O 0.0 0.0 0.0 0
M  V30 2 N -1.3085 -0.7256 0.0 0 CHG=1
M  V30 3 O -1.3323 -2.1888 0.0 0 CHG=-1
M  V30 4 C -2.617 0.0237 0.0 0
M  V30 5 C -2.6408 1.5345 0.0 0
M  V30 6 C -3.9255 -0.7018 0.0 0
M  V30 7 C -2.6408 -1.4393 0.0 0
M  V30 8 O -3.9493 2.2958 0.0 0
M  V30 9 O -5.2341 0.0475 0.0 0
M  V30 10 C -5.2578 1.5702 0.0 0
M  V30 11 C -6.5664 2.3196 0.0 0
M  V30 12 C -6.5902 3.8304 0.0 0
M  V30 13 C -7.8749 1.5821 0.0 0
M  V30 END ATOM
M  V30 BEGIN BOND
M  V30 1 2 1 2
M  V30 2 1 2 3
M  V30 3 1 2 4
M  V30 4 1 4 5
M  V30 5 1 4 6
M  V30 6 1 4 7
M  V30 7 1 5 8
M  V30 8 1 6 9
M  V30 9 1 8 10
M  V30 10 1 10 11
M  V30 11 1 11 12
M  V30 12 1 11 13
M  V30 13 1 9 10
M  V30 END BOND
M  V30 END CTAB
M  END
>  <Molecule Name>
5-Methyl-5-nitro-2-iso-propyl-m-dioxane

>  <Database>
PubChem

>  <Reference DOI>
10.3390/toxics11100837

>  <Molecular Target>
Aedes aegypti

>  <PubChem CID>
13040515

>  <Smiles>
CC(C)C(OC1)OCC1(C)[N+]([O-])=O

>  <Molecular Formula>
C8H15NO4

>  <Activity>
1

$$$$
Compound 14
Actelion Java MolfileCreator 2.0

  0  0  0  0  0  0              0 V3000
M  V30 BEGIN CTAB
M  V30 COUNTS 16 15 0 0 0
M  V30 BEGIN ATOM
M  V30 1 O 0.0 0.0 0.0 0
M  V30 2 C -0.024 -1.4775 0.0 0
M  V30 3 O 1.2492 -2.2223 0.0 0
M  V30 4 C -1.3453 -2.2223 0.0 0 CFG=1
M  V30 5 C 2.5226 -1.4535 0.0 0
M  V30 6 O -2.1141 -3.4956 0.0 0
M  V30 7 C -2.6667 -1.4535 0.0 0
M  V30 8 C -0.6006 -3.4956 0.0 0
M  V30 9 C 3.7959 -2.1982 0.0 0
M  V30 10 O -3.9881 -2.1982 0.0 0
M  V30 11 C 5.0692 -1.4294 0.0 0
M  V30 12 C -5.3095 -1.4294 0.0 0
M  V30 13 C 6.3425 -2.1742 0.0 0
M  V30 14 C 5.0452 0.096 0.0 0
M  V30 15 O -6.6308 -2.1742 0.0 0
M  V30 16 C -5.3335 0.096 0.0 0
M  V30 END ATOM
M  V30 BEGIN BOND
M  V30 1 2 1 2
M  V30 2 1 2 3
M  V30 3 1 2 4
M  V30 4 1 3 5
M  V30 5 1 4 6 CFG=1
M  V30 6 1 4 7
M  V30 7 1 4 8
M  V30 8 1 5 9
M  V30 9 1 7 10
M  V30 10 1 9 11
M  V30 11 1 10 12
M  V30 12 1 11 13
M  V30 13 1 11 14
M  V30 14 2 12 15
M  V30 15 1 12 16
M  V30 END BOND
M  V30 BEGIN COLLECTION
M  V30 MDLV30/STERAC1 ATOMS=(1 4)
M  V30 END COLLECTION
M  V30 END CTAB
M  END
>  <Molecule Name>
alpha-Hydroxy-beta-acetoxy-isobutyric acid, iso-amyl ester

>  <Database>
No information

>  <Reference DOI>
10.3390/toxics11100837

>  <Molecular Target>
Aedes aegypti

>  <PubChem CID>


>  <Smiles>
CC(C)CCOC(C(C)(COC(C)=O)O)=O

>  <Molecular Formula>
C11H20O5

>  <Activity>
1

$$$$
Compound 15
Actelion Java MolfileCreator 2.0

  0  0  0  0  0  0              0 V3000
M  V30 BEGIN CTAB
M  V30 COUNTS 32 32 0 0 0
M  V30 BEGIN ATOM
M  V30 1 Cl 0.0 0.0 0.0 0
M  V30 2 C -1.3664 -0.6956 0.0 0
M  V30 3 C -2.7329 0.0993 0.0 0
M  V30 4 C -4.0994 -0.5838 0.0 0
M  V30 5 C -5.4658 0.2111 0.0 0
M  V30 6 O -5.5652 1.7888 0.0 0
M  V30 7 O -6.8323 -0.4844 0.0 0
M  V30 8 N -8.1988 0.3105 0.0 0
M  V30 9 C -9.5653 -0.385 0.0 0
M  V30 10 C -9.8261 -1.7515 0.0 0
M  V30 11 C -11.0063 0.3602 0.0 0
M  V30 12 C -11.3665 -1.9751 0.0 0
M  V30 13 C -8.8572 -2.6087 0.0 0
M  V30 14 C -12.0622 -0.6087 0.0 0
M  V30 15 C -12.1119 -3.2174 0.0 0
M  V30 16 C -7.5528 -2.0248 0.0 0
M  V30 17 C -13.6771 -3.2795 0.0 0
M  V30 18 C -6.5839 -2.882 0.0 0
M  V30 19 O -14.4225 -4.5217 0.0 0
M  V30 20 C -14.6088 -2.0 0.0 0
M  V30 21 C -5.2795 -2.2981 0.0 0
M  V30 22 C -15.9877 -4.5839 0.0 0
M  V30 23 C -4.3106 -3.1553 0.0 0
M  V30 24 C -16.7331 -5.8261 0.0 0
M  V30 25 C -18.2983 -5.8882 0.0 0
M  V30 26 C -19.0436 -7.1305 0.0 0
M  V30 27 C -19.23 -4.6087 0.0 0
M  V30 28 C -20.6089 -7.1926 0.0 0
M  V30 29 C -21.3542 -8.4348 0.0 0
M  V30 30 C -22.9195 -8.4969 0.0 0
M  V30 31 C -23.6648 -9.7392 0.0 0
M  V30 32 C -23.8511 -7.2174 0.0 0
M  V30 END ATOM
M  V30 BEGIN BOND
M  V30 1 1 1 2
M  V30 2 1 2 3
M  V30 3 1 3 4
M  V30 4 1 4 5
M  V30 5 2 5 6
M  V30 6 1 5 7
M  V30 7 1 7 8
M  V30 8 2 8 9
M  V30 9 1 9 10
M  V30 10 1 9 11
M  V30 11 1 10 12
M  V30 12 1 10 13
M  V30 13 1 11 14
M  V30 14 1 12 15
M  V30 15 1 13 16
M  V30 16 1 15 17
M  V30 17 1 16 18
M  V30 18 1 17 19
M  V30 19 2 17 20
M  V30 20 1 18 21
M  V30 21 1 19 22
M  V30 22 1 21 23
M  V30 23 1 22 24
M  V30 24 2 24 25
M  V30 25 1 25 26
M  V30 26 1 25 27
M  V30 27 1 26 28
M  V30 28 1 28 29
M  V30 29 2 29 30
M  V30 30 1 30 31
M  V30 31 1 30 32
M  V30 32 1 12 14
M  V30 END BOND
M  V30 END CTAB
M  END
>  <Molecule Name>
9

>  <Database>
No information

>  <Reference DOI>
10.1021/acs.jafc.2c04126

>  <Molecular Target>
Acyrthosiphon pisum

>  <PubChem CID>


>  <Smiles>
CCCCCC(C(CC(OC/C=C(\C)/CCC=C(C)C)=C)CC1)/C\1=N\OC(CCCCl)=O

>  <Molecular Formula>
C27H44NO3Cl

>  <Activity>
1

$$$$
Compound 16
Actelion Java MolfileCreator 2.0

  0  0  0  0  0  0              0 V3000
M  V30 BEGIN CTAB
M  V30 COUNTS 17 16 0 0 0
M  V30 BEGIN ATOM
M  V30 1 O 0.0 0.0 0.0 0
M  V30 2 C -0.0233 -1.4803 0.0 0
M  V30 3 O -1.3521 -2.2146 0.0 0
M  V30 4 C 1.2588 -2.2146 0.0 0 CFG=1
M  V30 5 C -2.6809 -1.4337 0.0 0
M  V30 6 O 1.2355 -3.695 0.0 0
M  V30 7 C 2.541 -1.4337 0.0 0
M  V30 8 C -4.0097 -2.168 0.0 0
M  V30 9 C 3.8232 -2.168 0.0 0
M  V30 10 C -5.3385 -1.387 0.0 0
M  V30 11 O 3.7999 -3.6483 0.0 0
M  V30 12 O 5.1053 -1.387 0.0 0
M  V30 13 C -6.6673 -2.133 0.0 0
M  V30 14 C 6.3875 -2.133 0.0 0
M  V30 15 C 7.6697 -1.3521 0.0 0
M  V30 16 C 8.9519 -2.0747 0.0 0
M  V30 17 C 10.2341 -1.2938 0.0 0
M  V30 END ATOM
M  V30 BEGIN BOND
M  V30 1 2 1 2
M  V30 2 1 2 3
M  V30 3 1 2 4
M  V30 4 1 3 5
M  V30 5 1 4 6 CFG=3
M  V30 6 1 4 7
M  V30 7 1 5 8
M  V30 8 1 7 9
M  V30 9 1 8 10
M  V30 10 2 9 11
M  V30 11 1 9 12
M  V30 12 1 10 13
M  V30 13 1 12 14
M  V30 14 1 14 15
M  V30 15 1 15 16
M  V30 16 1 16 17
M  V30 END BOND
M  V30 BEGIN COLLECTION
M  V30 MDLV30/STERAC1 ATOMS=(1 4)
M  V30 END COLLECTION
M  V30 END CTAB
M  END
>  <Molecule Name>
dl-Malic acid, di-n-butyl ester

>  <Database>
Pubchem

>  <Reference DOI>
10.3390/toxics11100837

>  <Molecular Target>
Aedes aegypti

>  <PubChem CID>
95385

>  <Smiles>
CCCCOC(CC(C(OCCCC)=O)O)=O

>  <Molecular Formula>
C12H22O5

>  <Activity>
1

$$$$
Compound 17
Actelion Java MolfileCreator 2.0

  0  0  0  0  0  0              0 V3000
M  V30 BEGIN CTAB
M  V30 COUNTS 17 16 0 0 0
M  V30 BEGIN ATOM
M  V30 1 P 0.0 0.0 0.0 0
M  V30 2 O -0.024 -1.4763 0.0 0
M  V30 3 O 1.2722 -0.7441 0.0 0
M  V30 4 O -0.024 1.5243 0.0 0
M  V30 5 O -1.3202 -0.7441 0.0 0
M  V30 6 C 2.5445 0.012 0.0 0
M  V30 7 C 1.2482 2.2924 0.0 0
M  V30 8 C -2.6405 0.012 0.0 0
M  V30 9 C 3.8167 -0.7321 0.0 0
M  V30 10 C 1.2242 3.8167 0.0 0
M  V30 11 C -3.9608 -0.7321 0.0 0
M  V30 12 C 5.089 0.024 0.0 0
M  V30 13 C 2.4965 4.5969 0.0 0
M  V30 14 C -5.2811 0.024 0.0 0
M  V30 15 C 6.3613 -0.7201 0.0 0
M  V30 16 C 2.4725 6.1212 0.0 0
M  V30 17 C -6.6013 -0.7201 0.0 0
M  V30 END ATOM
M  V30 BEGIN BOND
M  V30 1 2 1 2
M  V30 2 1 1 3
M  V30 3 1 1 4
M  V30 4 1 1 5
M  V30 5 1 3 6
M  V30 6 1 4 7
M  V30 7 1 5 8
M  V30 8 1 6 9
M  V30 9 1 7 10
M  V30 10 1 8 11
M  V30 11 1 9 12
M  V30 12 1 10 13
M  V30 13 1 11 14
M  V30 14 1 12 15
M  V30 15 1 13 16
M  V30 16 1 14 17
M  V30 END BOND
M  V30 END CTAB
M  END
>  <Molecule Name>
Phosphoric acid, tributyl ester

>  <Database>
Pubchem

>  <Reference DOI>
10.3390/toxics11100837

>  <Molecular Target>
Aedes aegypti

>  <PubChem CID>
31357

>  <Smiles>
CCCCOP(OCCCC)(OCCCC)=O

>  <Molecular Formula>
C12H27O4P

>  <Activity>
1

$$$$
Compound 18
Actelion Java MolfileCreator 2.0

  0  0  0  0  0  0              0 V3000
M  V30 BEGIN CTAB
M  V30 COUNTS 18 18 0 0 0
M  V30 BEGIN ATOM
M  V30 1 O 0.0 0.0 0.0 0
M  V30 2 C -1.3395 0.7793 0.0 0
M  V30 3 O -1.437 2.3259 0.0 0
M  V30 4 C -2.6791 0.1096 0.0 0
M  V30 5 C -2.7765 3.1053 0.0 0
M  V30 6 N -4.0187 0.8889 0.0 0
M  V30 7 C -2.7765 -1.2421 0.0 0
M  V30 8 C -2.874 4.6519 0.0 0
M  V30 9 C -5.3583 0.2192 0.0 0
M  V30 10 C -4.1161 -1.9119 0.0 0
M  V30 11 C -4.2135 5.4313 0.0 0
M  V30 12 C -5.4557 -1.1325 0.0 0
M  V30 13 C -6.7953 -1.8023 0.0 0
M  V30 14 O -6.8927 -3.1541 0.0 0
M  V30 15 O -8.1348 -1.0229 0.0 0
M  V30 16 C -9.4744 -1.6927 0.0 0
M  V30 17 C -10.814 -0.9133 0.0 0
M  V30 18 C -12.1536 -1.5831 0.0 0
M  V30 END ATOM
M  V30 BEGIN BOND
M  V30 1 2 1 2
M  V30 2 1 2 3
M  V30 3 1 2 4
M  V30 4 1 3 5
M  V30 5 2 4 6
M  V30 6 1 4 7
M  V30 7 1 5 8
M  V30 8 1 6 9
M  V30 9 2 7 10
M  V30 10 1 8 11
M  V30 11 2 9 12
M  V30 12 1 12 13
M  V30 13 2 13 14
M  V30 14 1 13 15
M  V30 15 1 15 16
M  V30 16 1 16 17
M  V30 17 1 17 18
M  V30 18 1 10 12
M  V30 END BOND
M  V30 END CTAB
M  END
>  <Molecule Name>
Dipropyl Isocinchomeronate (MGK repellent 326)

>  <Database>
Pubchem

>  <Reference DOI>
10.1039/A704850E

>  <Molecular Target>
Musca domestica

>  <PubChem CID>
8693

>  <Smiles>
CCCOC(c(cc1)cnc1C(OCCC)=O)=O

>  <Molecular Formula>
C13H17NO4

>  <Activity>
1

$$$$
Compound 19
Actelion Java MolfileCreator 2.0

  0  0  0  0  0  0              0 V3000
M  V30 BEGIN CTAB
M  V30 COUNTS 15 14 0 0 0
M  V30 BEGIN ATOM
M  V30 1 O 0.0 0.0 0.0 0
M  V30 2 C -1.3119 -0.7394 0.0 0
M  V30 3 O -1.3357 -2.2063 0.0 0
M  V30 4 C -2.6238 0.0238 0.0 0
M  V30 5 C -2.6476 -2.9458 0.0 0
M  V30 6 C -3.9357 -0.7036 0.0 0
M  V30 7 C -2.6476 1.5385 0.0 0
M  V30 8 C -2.6715 -4.4127 0.0 0
M  V30 9 N -5.2476 -1.4311 0.0 0
M  V30 10 C -3.9595 2.2898 0.0 0
M  V30 11 C -1.3834 2.2898 0.0 0
M  V30 12 O -3.9834 3.8045 0.0 0
M  V30 13 O -5.2714 1.5504 0.0 0
M  V30 14 C -6.5833 2.3017 0.0 0
M  V30 15 C -7.8952 1.5623 0.0 0
M  V30 END ATOM
M  V30 BEGIN BOND
M  V30 1 2 1 2
M  V30 2 1 2 3
M  V30 3 1 2 4
M  V30 4 1 3 5
M  V30 5 1 4 6
M  V30 6 1 4 7
M  V30 7 1 5 8
M  V30 8 3 6 9
M  V30 9 1 7 10
M  V30 10 1 7 11
M  V30 11 2 10 12
M  V30 12 1 10 13
M  V30 13 1 13 14
M  V30 14 1 14 15
M  V30 END BOND
M  V30 END CTAB
M  END
>  <Molecule Name>
Beta-methylcyanosuccinic acid, diethyl ester

>  <Database>
PubChem

>  <Reference DOI>
10.3390/toxics11100837

>  <Molecular Target>
Aedes aegypti

>  <PubChem CID>
249809

>  <Smiles>
CCOC(C(C)C(C(OCC)=O)C#N)=O

>  <Molecular Formula>
C10H15NO4

>  <Activity>
1

$$$$
Compound 20
Actelion Java MolfileCreator 2.0

  0  0  0  0  0  0              0 V3000
M  V30 BEGIN CTAB
M  V30 COUNTS 16 16 0 0 0
M  V30 BEGIN ATOM
M  V30 1 O 0.0 0.0 0.0 0
M  V30 2 C -0.0238 -1.4794 0.0 0
M  V30 3 O 1.2527 -2.2191 0.0 0
M  V30 4 C -1.3481 -2.2191 0.0 0
M  V30 5 C 2.5293 -1.4555 0.0 0
M  V30 6 C -2.6725 -1.4555 0.0 0
M  V30 7 C 3.8059 -2.1952 0.0 0
M  V30 8 C -3.9968 -2.1952 0.0 0
M  V30 9 O -4.1757 -3.6627 0.0 0
M  V30 10 O -5.3927 -1.551 0.0 0
M  V30 11 C -2.756 -2.9827 0.0 0
M  V30 12 C -5.6671 -3.9491 0.0 0
M  V30 13 C -6.4187 -2.6367 0.0 0
M  V30 14 C -6.3114 -5.2972 0.0 0
M  V30 15 O -7.8266 -5.4285 0.0 0
M  V30 16 C -8.4708 -6.7767 0.0 0
M  V30 END ATOM
M  V30 BEGIN BOND
M  V30 1 2 1 2
M  V30 2 1 2 3
M  V30 3 1 2 4
M  V30 4 1 3 5
M  V30 5 1 4 6
M  V30 6 1 5 7
M  V30 7 1 6 8
M  V30 8 1 8 9
M  V30 9 1 8 10
M  V30 10 1 8 11
M  V30 11 1 9 12
M  V30 12 1 10 13
M  V30 13 1 12 14
M  V30 14 1 14 15
M  V30 15 1 15 16
M  V30 16 1 12 13
M  V30 END BOND
M  V30 END CTAB
M  END
>  <Molecule Name>
4-Methoxymethyl-2-methyl-1,3-dioxolane-2-propionic acid, ethyl ester

>  <Database>
PubChem

>  <Reference DOI>
10.3390/toxics11100837

>  <Molecular Target>
Aedes aegypti

>  <PubChem CID>
245458

>  <Smiles>
CCOC(CCC1(C)OC(COC)CO1)=O

>  <Molecular Formula>
C11H20O5

>  <Activity>
1

$$$$
Compound 21
Actelion Java MolfileCreator 2.0

  0  0  0  0  0  0              0 V3000
M  V30 BEGIN CTAB
M  V30 COUNTS 13 13 0 0 0
M  V30 BEGIN ATOM
M  V30 1 Cl 0.0 0.0 0.0 0
M  V30 2 C -0.024 -1.4781 0.0 0
M  V30 3 C -1.3459 -2.2232 0.0 0
M  V30 4 C 1.2498 -2.2112 0.0 0
M  V30 5 C -1.37 -3.7014 0.0 0
M  V30 6 C -2.6679 -1.4421 0.0 0 CFG=1
M  V30 7 C 1.2258 -3.6894 0.0 0
M  V30 8 C -0.0961 -4.4345 0.0 0
M  V30 9 O -2.6919 0.0841 0.0 0
M  V30 10 C -3.9898 -2.1752 0.0 0
M  V30 11 Cl -4.759 -0.8532 0.0 0
M  V30 12 Cl -5.3118 -2.9082 0.0 0
M  V30 13 Cl -3.2447 -3.449 0.0 0
M  V30 END ATOM
M  V30 BEGIN BOND
M  V30 1 1 1 2
M  V30 2 2 2 3
M  V30 3 1 2 4
M  V30 4 1 3 5
M  V30 5 1 3 6
M  V30 6 2 4 7
M  V30 7 2 5 8
M  V30 8 1 6 9 CFG=3
M  V30 9 1 6 10
M  V30 10 1 10 11
M  V30 11 1 10 12
M  V30 12 1 10 13
M  V30 13 1 7 8
M  V30 END BOND
M  V30 BEGIN COLLECTION
M  V30 MDLV30/STERAC1 ATOMS=(1 6)
M  V30 END COLLECTION
M  V30 END CTAB
M  END
>  <Molecule Name>
o-Chloro-alpha-(trichloromethyl)benzyl alcohol

>  <Database>
PubChem

>  <Reference DOI>
10.3390/toxics11100837

>  <Molecular Target>
Aedes aegypti

>  <PubChem CID>
221276

>  <Smiles>
OC(C(Cl)(Cl)Cl)c(cccc1)c1Cl

>  <Molecular Formula>
C8H6OCl4

>  <Activity>
1

$$$$
Compound 22
Actelion Java MolfileCreator 2.0

  0  0  0  0  0  0              0 V3000
M  V30 BEGIN CTAB
M  V30 COUNTS 28 29 0 0 0
M  V30 BEGIN ATOM
M  V30 1 O 0.0 0.0 0.0 0
M  V30 2 C 0.5235 -1.2081 0.0 0
M  V30 3 O 1.8659 -1.2081 0.0 0
M  V30 4 C -0.4832 -2.2418 0.0 0
M  V30 5 C 2.6177 0.1745 0.0 0
M  V30 6 N -2.1881 -2.0673 0.0 0
M  V30 7 C -0.1342 -3.5171 0.0 0
M  V30 8 C 3.9601 0.1745 0.0 0
M  V30 9 N -2.8861 -3.3426 0.0 0
M  V30 10 C -3.1949 -0.6846 0.0 0
M  V30 11 C -1.5169 -4.2822 0.0 0
M  V30 12 C 4.7252 1.5571 0.0 0
M  V30 13 C -4.2017 0.698 0.0 0
M  V30 14 C -4.5776 -1.4498 0.0 0
M  V30 15 C -2.1612 0.3221 0.0 0
M  V30 16 C -1.6914 -5.6381 0.0 0
M  V30 17 C 6.0676 1.5571 0.0 0
M  V30 18 C 3.8795 3.1143 0.0 0
M  V30 19 C -3.168 -6.3227 0.0 0
M  V30 20 C -0.5638 -6.3227 0.0 0
M  V30 21 C 6.8194 2.9398 0.0 0
M  V30 22 C -3.3426 -7.6785 0.0 0
M  V30 23 C -0.7383 -7.6785 0.0 0
M  V30 24 C 8.1618 2.9398 0.0 0
M  V30 25 C -2.2149 -8.3632 0.0 0
M  V30 26 C 8.927 4.3225 0.0 0
M  V30 27 C 10.2694 4.3225 0.0 0
M  V30 28 C 8.0678 5.8797 0.0 0
M  V30 END ATOM
M  V30 BEGIN BOND
M  V30 1 2 1 2
M  V30 2 1 2 3
M  V30 3 1 2 4
M  V30 4 1 3 5
M  V30 5 1 4 6
M  V30 6 2 4 7
M  V30 7 1 5 8
M  V30 8 1 6 9
M  V30 9 1 6 10
M  V30 10 1 7 11
M  V30 11 2 8 12
M  V30 12 1 10 13
M  V30 13 1 10 14
M  V30 14 1 10 15
M  V30 15 1 11 16
M  V30 16 1 12 17
M  V30 17 1 12 18
M  V30 18 2 16 19
M  V30 19 1 16 20
M  V30 20 1 17 21
M  V30 21 1 19 22
M  V30 22 2 20 23
M  V30 23 1 21 24
M  V30 24 2 22 25
M  V30 25 2 24 26
M  V30 26 1 26 27
M  V30 27 1 26 28
M  V30 28 2 9 11
M  V30 29 1 23 25
M  V30 END BOND
M  V30 END CTAB
M  END
>  <Molecule Name>
[(2E)-3,7-dimethylocta-2,6-dienyl] 2-tert-butyl-5-phenylpyrazole-3-carboxylate

>  <Database>
Pubchem

>  <Reference DOI>
10.1021/jf104712c

>  <Molecular Target>
Acyrthosiphon pisum

>  <PubChem CID>
52920576

>  <Smiles>
CC(C)(C)[n](c(C(OC/C=C(\C)/CCC=C(C)C)=O)c1)nc1-c1ccccc1

>  <Molecular Formula>
C24H32N2O2

>  <Activity>
1

$$$$
Compound 23
Actelion Java MolfileCreator 2.0

  0  0  0  0  0  0              0 V3000
M  V30 BEGIN CTAB
M  V30 COUNTS 23 23 0 0 0
M  V30 BEGIN ATOM
M  V30 1 O 0.0 0.0 0.0 0
M  V30 2 C 0.0809 1.6721 0.0 0
M  V30 3 O -1.1866 2.8183 0.0 0
M  V30 4 C 1.1731 2.4677 0.0 0
M  V30 5 C -2.8183 2.5621 0.0 0
M  V30 6 N 2.0362 1.8069 0.0 0
M  V30 7 C 1.4294 4.0994 0.0 0
M  V30 8 C -4.0859 3.7083 0.0 0
M  V30 9 N 2.8992 2.8183 0.0 0
M  V30 10 C 1.7665 0.6337 0.0 0
M  V30 11 C 2.6026 4.3691 0.0 0
M  V30 12 C -5.7176 3.4521 0.0 0
M  V30 13 C 1.4968 -0.5394 0.0 0
M  V30 14 C 2.9397 0.9034 0.0 0
M  V30 15 C 0.0539 0.9034 0.0 0
M  V30 16 C 3.2768 5.7581 0.0 0
M  V30 17 C -6.9852 4.5983 0.0 0
M  V30 18 C -6.3379 2.3194 0.0 0
M  V30 19 C -8.6169 4.3421 0.0 0
M  V30 20 C -9.8845 5.4884 0.0 0
M  V30 21 C -11.5162 5.2321 0.0 0
M  V30 22 C -12.7838 6.3784 0.0 0
M  V30 23 C -12.1365 4.0994 0.0 0
M  V30 END ATOM
M  V30 BEGIN BOND
M  V30 1 2 1 2
M  V30 2 1 2 3
M  V30 3 1 2 4
M  V30 4 1 3 5
M  V30 5 1 4 6
M  V30 6 2 4 7
M  V30 7 1 5 8
M  V30 8 1 6 9
M  V30 9 1 6 10
M  V30 10 1 7 11
M  V30 11 2 8 12
M  V30 12 1 10 13
M  V30 13 1 10 14
M  V30 14 1 10 15
M  V30 15 1 11 16
M  V30 16 1 12 17
M  V30 17 1 12 18
M  V30 18 1 17 19
M  V30 19 1 19 20
M  V30 20 2 20 21
M  V30 21 1 21 22
M  V30 22 1 21 23
M  V30 23 2 9 11
M  V30 END BOND
M  V30 END CTAB
M  END
>  <Molecule Name>
[(2E)-3,7-dimethylocta-2,6-dienyl] 2-tert-butyl-5-methylpyrazole-3-carboxylate

>  <Database>
Pubchem

>  <Reference DOI>
10.1021/jf104712c

>  <Molecular Target>
Acyrthosiphon pisum

>  <PubChem CID>
52921547

>  <Smiles>
CC(C)(C)[n]1nc(C)cc1C(OC/C=C(\C)/CCC=C(C)C)=O

>  <Molecular Formula>
C19H30N2O2

>  <Activity>
1

$$$$
Compound 24
Actelion Java MolfileCreator 2.0

  0  0  0  0  0  0              0 V3000
M  V30 BEGIN CTAB
M  V30 COUNTS 22 22 0 0 0
M  V30 BEGIN ATOM
M  V30 1 O 0.0 0.0 0.0 0
M  V30 2 C -1.3775 -0.7013 0.0 0
M  V30 3 N -2.7551 0.0876 0.0 0
M  V30 4 C -1.4777 -2.0913 0.0 0
M  V30 5 C -2.8553 1.6781 0.0 0
M  V30 6 C -0.3005 -2.7926 0.0 0
M  V30 7 C -4.2328 2.4796 0.0 0
M  V30 8 C -0.4007 -4.1827 0.0 0
M  V30 9 C -4.333 4.07 0.0 0
M  V30 10 C -5.6104 1.7783 0.0 0
M  V30 11 C 0.7764 -4.884 0.0 0
M  V30 12 C -5.7106 4.8715 0.0 0
M  V30 13 C -6.9879 2.5797 0.0 0
M  V30 14 C 0.6762 -6.2741 0.0 0
M  V30 15 O -5.8107 6.4619 0.0 0
M  V30 16 C -7.0881 4.1702 0.0 0
M  V30 17 C 1.8534 -6.9754 0.0 0
M  V30 18 C -4.6336 7.2634 0.0 0
M  V30 19 O -8.4657 4.9717 0.0 0
M  V30 20 C 1.7532 -8.3655 0.0 0
M  V30 21 C 2.9304 -9.0668 0.0 0
M  V30 22 C 0.3756 -9.0668 0.0 0
M  V30 END ATOM
M  V30 BEGIN BOND
M  V30 1 2 1 2
M  V30 2 1 2 3
M  V30 3 1 2 4
M  V30 4 1 3 5
M  V30 5 1 4 6
M  V30 6 1 5 7
M  V30 7 1 6 8
M  V30 8 2 7 9
M  V30 9 1 7 10
M  V30 10 1 8 11
M  V30 11 1 9 12
M  V30 12 2 10 13
M  V30 13 1 11 14
M  V30 14 1 12 15
M  V30 15 2 12 16
M  V30 16 2 14 17
M  V30 17 1 15 18
M  V30 18 1 16 19
M  V30 19 1 17 20
M  V30 20 1 20 21
M  V30 21 1 20 22
M  V30 22 1 13 16
M  V30 END BOND
M  V30 END CTAB
M  END
>  <Molecule Name>
Capsaicin
2-methoxy-4-[[[(E)-8-methylnon-6-enyl]amino]methyl]phenol

>  <Database>
Pubchem

>  <Reference DOI>
10.1038/s41598-020-66900-2

>  <Molecular Target>
Drosophila melanogaster

>  <PubChem CID>
548943

>  <Smiles>
CC(C)/C=C/CCCCC(NCc(cc1)cc(OC)c1O)=O

>  <Molecular Formula>
C18H27NO3

>  <Activity>
1

$$$$
Compound 25
Actelion Java MolfileCreator 2.0

  0  0  0  0  0  0              0 V3000
M  V30 BEGIN CTAB
M  V30 COUNTS 21 21 0 0 0
M  V30 BEGIN ATOM
M  V30 1 F 0.0 0.0 0.0 0
M  V30 2 C -1.4402 -0.563 0.0 0
M  V30 3 C -2.8805 0.2618 0.0 0
M  V30 4 C -1.7152 -1.6759 0.0 0
M  V30 5 C -4.3208 -0.3011 0.0 0
M  V30 6 C -3.1554 1.9247 0.0 0
M  V30 7 C -3.1554 -2.2389 0.0 0
M  V30 8 F -5.761 0.5237 0.0 0
M  V30 9 C -4.5957 -1.414 0.0 0
M  V30 10 O -4.5957 2.7757 0.0 0
M  V30 11 O -2.2651 2.7757 0.0 0
M  V30 12 C -2.5401 4.4386 0.0 0
M  V30 13 C -1.6497 5.2897 0.0 0
M  V30 14 C -1.9247 6.9525 0.0 0
M  V30 15 C -1.0343 7.8036 0.0 0
M  V30 16 C -3.3649 7.8036 0.0 0
M  V30 17 C -1.3093 9.4664 0.0 0
M  V30 18 C -0.4189 10.3175 0.0 0
M  V30 19 C -0.6939 11.9804 0.0 0
M  V30 20 C 0.1964 12.8183 0.0 0
M  V30 21 C -2.1342 12.8183 0.0 0
M  V30 END ATOM
M  V30 BEGIN BOND
M  V30 1 1 1 2
M  V30 2 2 2 3
M  V30 3 1 2 4
M  V30 4 1 3 5
M  V30 5 1 3 6
M  V30 6 2 4 7
M  V30 7 1 5 8
M  V30 8 2 5 9
M  V30 9 2 6 10
M  V30 10 1 6 11
M  V30 11 1 11 12
M  V30 12 1 12 13
M  V30 13 2 13 14
M  V30 14 1 14 15
M  V30 15 1 14 16
M  V30 16 1 15 17
M  V30 17 1 17 18
M  V30 18 2 18 19
M  V30 19 1 19 20
M  V30 20 1 19 21
M  V30 21 1 7 9
M  V30 END BOND
M  V30 END CTAB
M  END
>  <Molecule Name>
[(2E)-3,7-dimethylocta-2,6-dienyl] 2,6-difluorobenzoate

>  <Database>
Pubchem

>  <Reference DOI>
10.1021/jf104712c

>  <Molecular Target>
Acyrthosiphon pisum

>  <PubChem CID>
52920640

>  <Smiles>
CC(C)=CCC/C(\C)=C/COC(c(c(F)ccc1)c1F)=O

>  <Molecular Formula>
C17H20O2F2

>  <Activity>
1

$$$$
Compound 26
Actelion Java MolfileCreator 2.0

  0  0  0  0  0  0              0 V3000
M  V30 BEGIN CTAB
M  V30 COUNTS 30 32 0 0 0
M  V30 BEGIN ATOM
M  V30 1 O 0.0 0.0 0.0 0
M  V30 2 C -0.4626 1.5934 0.0 0
M  V30 3 O 0.4883 2.6857 0.0 0
M  V30 4 C -2.0175 2.2231 0.0 0
M  V30 5 C 1.7862 2.313 0.0 0
M  V30 6 N -3.3411 1.4649 0.0 0
M  V30 7 C -2.6471 3.778 0.0 0
M  V30 8 C 2.7371 3.4053 0.0 0
M  V30 9 N -4.6647 2.4287 0.0 0
M  V30 10 C -3.4696 0.0899 0.0 0
M  V30 11 C -4.2792 3.9065 0.0 0
M  V30 12 C 4.035 3.0327 0.0 0
M  V30 13 C -4.8831 -0.6039 0.0 0
M  V30 14 C -2.313 -0.6039 0.0 0
M  V30 15 C -5.2429 5.2301 0.0 0
M  V30 16 C 4.9859 4.125 0.0 0
M  V30 17 C 4.2406 1.6962 0.0 0
M  V30 18 C -5.0116 -1.9789 0.0 0
M  V30 19 C -2.4415 -1.9789 0.0 0
M  V30 20 C -6.8621 5.1915 0.0 0
M  V30 21 C -4.7032 6.7207 0.0 0
M  V30 22 C 6.2838 3.7523 0.0 0
M  V30 23 C -3.8551 -2.6728 0.0 0
M  V30 24 C -7.8259 6.5151 0.0 0
M  V30 25 C -5.667 8.0443 0.0 0
M  V30 26 C 7.2348 4.8446 0.0 0
M  V30 27 C -7.2862 8.0058 0.0 0
M  V30 28 C 8.5327 4.4719 0.0 0
M  V30 29 C 9.4836 5.5642 0.0 0
M  V30 30 C 8.7383 3.1355 0.0 0
M  V30 END ATOM
M  V30 BEGIN BOND
M  V30 1 2 1 2
M  V30 2 1 2 3
M  V30 3 1 2 4
M  V30 4 1 3 5
M  V30 5 1 4 6
M  V30 6 2 4 7
M  V30 7 1 5 8
M  V30 8 1 6 9
M  V30 9 1 6 10
M  V30 10 1 7 11
M  V30 11 2 8 12
M  V30 12 2 10 13
M  V30 13 1 10 14
M  V30 14 1 11 15
M  V30 15 1 12 16
M  V30 16 1 12 17
M  V30 17 1 13 18
M  V30 18 2 14 19
M  V30 19 2 15 20
M  V30 20 1 15 21
M  V30 21 1 16 22
M  V30 22 2 18 23
M  V30 23 1 20 24
M  V30 24 2 21 25
M  V30 25 1 22 26
M  V30 26 2 24 27
M  V30 27 2 26 28
M  V30 28 1 28 29
M  V30 29 1 28 30
M  V30 30 2 9 11
M  V30 31 1 19 23
M  V30 32 1 25 27
M  V30 END BOND
M  V30 END CTAB
M  END
>  <Molecule Name>
[(2E)-3,7-dimethylocta-2,6-dienyl] 2,5-diphenylpyrazole-3-carboxylate

>  <Database>
Pubchem

>  <Reference DOI>
10.1021/jf104712c

>  <Molecular Target>
Acyrthosiphon pisum

>  <PubChem CID>
52920577

>  <Smiles>
CC(C)=CCC/C(\C)=C/COC(c1cc(-c2ccccc2)n[n]1-c1ccccc1)=O

>  <Molecular Formula>
C26H28N2O2

>  <Activity>
1

$$$$
Compound 27
Actelion Java MolfileCreator 2.0

  0  0  0  0  0  0              0 V3000
M  V30 BEGIN CTAB
M  V30 COUNTS 25 26 0 0 0
M  V30 BEGIN ATOM
M  V30 1 O 0.0 0.0 0.0 0
M  V30 2 C -0.6425 1.7706 0.0 0
M  V30 3 O 0.2141 2.9844 0.0 0
M  V30 4 C -2.3704 2.5989 0.0 0
M  V30 5 C 1.3994 2.6988 0.0 0
M  V30 6 N -3.8412 1.8706 0.0 0
M  V30 7 C -3.1986 4.3267 0.0 0
M  V30 8 C 2.2561 3.9126 0.0 0
M  V30 9 N -5.312 2.9416 0.0 0
M  V30 10 C -4.1125 0.5997 0.0 0
M  V30 11 C -5.0121 4.598 0.0 0
M  V30 12 C 3.4414 3.627 0.0 0
M  V30 13 C -3.0844 -0.0428 0.0 0
M  V30 14 C -5.6833 -0.0428 0.0 0
M  V30 15 C -6.0831 6.0688 0.0 0
M  V30 16 C 4.2981 4.8408 0.0 0
M  V30 17 C 3.5413 2.3989 0.0 0
M  V30 18 C -3.3557 -1.3137 0.0 0
M  V30 19 C -5.9546 -1.3137 0.0 0
M  V30 20 C 5.4834 4.5552 0.0 0
M  V30 21 C -4.9264 -1.9563 0.0 0
M  V30 22 C 6.3401 5.7689 0.0 0
M  V30 23 C 7.5253 5.4834 0.0 0
M  V30 24 C 8.3821 6.6971 0.0 0
M  V30 25 C 7.6253 4.2553 0.0 0
M  V30 END ATOM
M  V30 BEGIN BOND
M  V30 1 2 1 2
M  V30 2 1 2 3
M  V30 3 1 2 4
M  V30 4 1 3 5
M  V30 5 1 4 6
M  V30 6 2 4 7
M  V30 7 1 5 8
M  V30 8 1 6 9
M  V30 9 1 6 10
M  V30 10 1 7 11
M  V30 11 2 8 12
M  V30 12 2 10 13
M  V30 13 1 10 14
M  V30 14 1 11 15
M  V30 15 1 12 16
M  V30 16 1 12 17
M  V30 17 1 13 18
M  V30 18 2 14 19
M  V30 19 1 16 20
M  V30 20 2 18 21
M  V30 21 1 20 22
M  V30 22 2 22 23
M  V30 23 1 23 24
M  V30 24 1 23 25
M  V30 25 2 9 11
M  V30 26 1 19 21
M  V30 END BOND
M  V30 END CTAB
M  END
>  <Molecule Name>
[(2E)-3,7-dimethylocta-2,6-dienyl] 5-methyl-2-phenylpyrazole-3-carboxylate

>  <Database>
Pubchem

>  <Reference DOI>
10.1021/jf104712c

>  <Molecular Target>
Acyrthosiphon pisum

>  <PubChem CID>
52921548

>  <Smiles>
CC(C)=CCC/C(\C)=C/COC(c1cc(C)n[n]1-c1ccccc1)=O

>  <Molecular Formula>
C21H26N2O2

>  <Activity>
1

$$$$
Compound 28
Actelion Java MolfileCreator 2.0

  0  0  0  0  0  0              0 V3000
M  V30 BEGIN CTAB
M  V30 COUNTS 17 16 0 0 0
M  V30 BEGIN ATOM
M  V30 1 O 0.0 0.0 0.0 0
M  V30 2 C -0.024 -1.4816 0.0 0
M  V30 3 O -1.3491 -2.2164 0.0 0
M  V30 4 C 1.2527 -2.2164 0.0 0
M  V30 5 C -2.6741 -1.4455 0.0 0
M  V30 6 C 2.5296 -1.4455 0.0 0
M  V30 7 C -2.6982 0.0843 0.0 0
M  V30 8 C -3.9992 -2.1803 0.0 0
M  V30 9 C 3.8064 -2.1803 0.0 0
M  V30 10 O 3.7824 -3.6619 0.0 0
M  V30 11 N 5.0833 -1.4093 0.0 0
M  V30 12 C 6.3602 -2.1441 0.0 0
M  V30 13 C 5.0592 0.1204 0.0 0
M  V30 14 C 7.637 -1.3611 0.0 0
M  V30 15 C 6.3361 -3.6258 0.0 0
M  V30 16 C 6.3361 0.8913 0.0 0
M  V30 17 C 3.7342 0.9034 0.0 0
M  V30 END ATOM
M  V30 BEGIN BOND
M  V30 1 2 1 2
M  V30 2 1 2 3
M  V30 3 1 2 4
M  V30 4 1 3 5
M  V30 5 1 4 6
M  V30 6 1 5 7
M  V30 7 1 5 8
M  V30 8 1 6 9
M  V30 9 2 9 10
M  V30 10 1 9 11
M  V30 11 1 11 12
M  V30 12 1 11 13
M  V30 13 1 12 14
M  V30 14 1 12 15
M  V30 15 1 13 16
M  V30 16 1 13 17
M  V30 END BOND
M  V30 END CTAB
M  END
>  <Molecule Name>
N,N-Di-iso-propylsuccinamic acid, iso-propyl ester

>  <Database>
Pubchem

>  <Reference DOI>
10.3390/toxics11100837

>  <Molecular Target>
Aedes aegypti

>  <PubChem CID>
249227

>  <Smiles>
CC(C)N(C(C)C)C(CCC(OC(C)C)=O)=O

>  <Molecular Formula>
C13H25NO3

>  <Activity>
1

$$$$
Compound 29
Actelion Java MolfileCreator 2.0

  0  0  0  0  0  0              0 V3000
M  V30 BEGIN CTAB
M  V30 COUNTS 17 16 0 0 0
M  V30 BEGIN ATOM
M  V30 1 O 0.0 0.0 0.0 0
M  V30 2 C -0.0241 1.5327 0.0 0
M  V30 3 O -1.3516 2.305 0.0 0
M  V30 4 C 1.2551 2.305 0.0 0
M  V30 5 C -2.6792 1.5689 0.0 0
M  V30 6 C 2.5343 1.5689 0.0 0
M  V30 7 C 3.8136 2.3292 0.0 0
M  V30 8 C 5.0929 1.593 0.0 0
M  V30 9 C 6.3721 2.3533 0.0 0
M  V30 10 O 6.348 3.886 0.0 0
M  V30 11 N 7.6514 1.6171 0.0 0
M  V30 12 C 8.9306 2.3895 0.0 0
M  V30 13 C 7.6272 0.1327 0.0 0
M  V30 14 C 10.2099 1.6533 0.0 0
M  V30 15 C 8.9065 3.9222 0.0 0
M  V30 16 C 6.2997 -0.6034 0.0 0
M  V30 17 C 8.9065 -0.6034 0.0 0
M  V30 END ATOM
M  V30 BEGIN BOND
M  V30 1 2 1 2
M  V30 2 1 2 3
M  V30 3 1 2 4
M  V30 4 1 3 5
M  V30 5 1 4 6
M  V30 6 1 6 7
M  V30 7 1 7 8
M  V30 8 1 8 9
M  V30 9 2 9 10
M  V30 10 1 9 11
M  V30 11 1 11 12
M  V30 12 1 11 13
M  V30 13 1 12 14
M  V30 14 1 12 15
M  V30 15 1 13 16
M  V30 16 1 13 17
M  V30 END BOND
M  V30 END CTAB
M  END
>  <Molecule Name>
N,N-Di-iso-propyladipamic acid, methyl ester

>  <Database>
Pubchem

>  <Reference DOI>
10.3390/toxics11100837

>  <Molecular Target>
Aedes aegypti

>  <PubChem CID>
245404

>  <Smiles>
CC(C)N(C(C)C)C(CCCCC(OC)=O)=O

>  <Molecular Formula>
C13H25NO3

>  <Activity>
1

$$$$
Compound 30
Actelion Java MolfileCreator 2.0

  0  0  0  0  0  0              0 V3000
M  V30 BEGIN CTAB
M  V30 COUNTS 27 28 0 0 0
M  V30 BEGIN ATOM
M  V30 1 O 0.0 0.0 0.0 0
M  V30 2 C -0.559 1.6907 0.0 0
M  V30 3 O 0.3136 2.8496 0.0 0
M  V30 4 C -2.2088 2.427 0.0 0
M  V30 5 C 1.5543 2.5224 0.0 0
M  V30 6 N -3.6132 1.677 0.0 0
M  V30 7 C -2.9451 4.0768 0.0 0
M  V30 8 C 2.427 3.6814 0.0 0
M  V30 9 N -5.0176 2.6997 0.0 0
M  V30 10 C -3.8177 0.3545 0.0 0
M  V30 11 C -4.6767 4.2813 0.0 0
M  V30 12 C 3.6677 3.3541 0.0 0
M  V30 13 C -5.3176 -0.2999 0.0 0
M  V30 14 C -2.7269 -0.2999 0.0 0
M  V30 15 C -5.6993 5.6857 0.0 0
M  V30 16 C 4.5404 4.5131 0.0 0
M  V30 17 C 3.8177 2.0725 0.0 0
M  V30 18 C -5.5221 -1.6225 0.0 0
M  V30 19 C -2.9315 -1.6225 0.0 0
M  V30 20 C -5.1948 7.2674 0.0 0
M  V30 21 C -7.4173 5.713 0.0 0
M  V30 22 C 5.7811 4.1859 0.0 0
M  V30 23 C -4.4313 -2.277 0.0 0
M  V30 24 C 6.6538 5.3448 0.0 0
M  V30 25 C 7.8946 5.0176 0.0 0
M  V30 26 C 8.7672 6.1766 0.0 0
M  V30 27 C 8.0445 3.7359 0.0 0
M  V30 END ATOM
M  V30 BEGIN BOND
M  V30 1 2 1 2
M  V30 2 1 2 3
M  V30 3 1 2 4
M  V30 4 1 3 5
M  V30 5 1 4 6
M  V30 6 2 4 7
M  V30 7 1 5 8
M  V30 8 1 6 9
M  V30 9 1 6 10
M  V30 10 1 7 11
M  V30 11 2 8 12
M  V30 12 2 10 13
M  V30 13 1 10 14
M  V30 14 1 11 15
M  V30 15 1 12 16
M  V30 16 1 12 17
M  V30 17 1 13 18
M  V30 18 2 14 19
M  V30 19 1 15 20
M  V30 20 1 15 21
M  V30 21 1 16 22
M  V30 22 2 18 23
M  V30 23 1 22 24
M  V30 24 2 24 25
M  V30 25 1 25 26
M  V30 26 1 25 27
M  V30 27 2 9 11
M  V30 28 1 19 23
M  V30 END BOND
M  V30 END CTAB
M  END
>  <Molecule Name>
[(2E)-3,7-dimethylocta-2,6-dienyl] 2-phenyl-5-propan-2-ylpyrazole-3-carboxylate

>  <Database>
Pubchem

>  <Reference DOI>
10.1021/jf104712c

>  <Molecular Target>
Acyrthosiphon pisum

>  <PubChem CID>
52920574

>  <Smiles>
CC(C)c(cc1C(OC/C=C(\C)/CCC=C(C)C)=O)n[n]1-c1ccccc1

>  <Molecular Formula>
C23H30N2O2

>  <Activity>
1

$$$$
Compound 31
Actelion Java MolfileCreator 2.0

  0  0  0  0  0  0              0 V3000
M  V30 BEGIN CTAB
M  V30 COUNTS 25 25 0 0 0
M  V30 BEGIN ATOM
M  V30 1 O 0.0 0.0 0.0 0
M  V30 2 C 0.1316 1.6327 0.0 0
M  V30 3 O -1.106 2.752 0.0 0
M  V30 4 C 1.3035 2.3569 0.0 0
M  V30 5 C -2.6993 2.4491 0.0 0
M  V30 6 N 2.2384 1.6459 0.0 0
M  V30 7 C 1.6064 3.9502 0.0 0
M  V30 8 C -3.9371 3.5684 0.0 0
M  V30 9 N 3.1733 2.6335 0.0 0
M  V30 10 C 2.0278 0.395 0.0 0
M  V30 11 C 2.8573 4.1609 0.0 0
M  V30 12 C -5.5303 3.2655 0.0 0
M  V30 13 C 1.8171 -0.8558 0.0 0
M  V30 14 C 3.2787 0.6057 0.0 0
M  V30 15 C 0.3555 0.6057 0.0 0
M  V30 16 C 3.5684 5.5172 0.0 0
M  V30 17 C -6.7681 4.3848 0.0 0
M  V30 18 C -6.0834 2.0541 0.0 0
M  V30 19 C 2.7256 7.0446 0.0 0
M  V30 20 C 4.8061 5.5567 0.0 0
M  V30 21 C -8.3614 4.0819 0.0 0
M  V30 22 C -9.5991 5.2011 0.0 0
M  V30 23 C -11.1924 4.8983 0.0 0
M  V30 24 C -12.4301 6.0175 0.0 0
M  V30 25 C -11.7454 3.6869 0.0 0
M  V30 END ATOM
M  V30 BEGIN BOND
M  V30 1 2 1 2
M  V30 2 1 2 3
M  V30 3 1 2 4
M  V30 4 1 3 5
M  V30 5 1 4 6
M  V30 6 2 4 7
M  V30 7 1 5 8
M  V30 8 1 6 9
M  V30 9 1 6 10
M  V30 10 1 7 11
M  V30 11 2 8 12
M  V30 12 1 10 13
M  V30 13 1 10 14
M  V30 14 1 10 15
M  V30 15 1 11 16
M  V30 16 1 12 17
M  V30 17 1 12 18
M  V30 18 1 16 19
M  V30 19 1 16 20
M  V30 20 1 17 21
M  V30 21 1 21 22
M  V30 22 2 22 23
M  V30 23 1 23 24
M  V30 24 1 23 25
M  V30 25 2 9 11
M  V30 END BOND
M  V30 END CTAB
M  END
>  <Molecule Name>
[(2E)-3,7-dimethylocta-2,6-dienyl] 2-tert-butyl-5-propan-2-ylpyrazole-3-carboxylate

>  <Database>
Pubchem

>  <Reference DOI>
10.1021/jf104712c

>  <Molecular Target>
Acyrthosiphon pisum

>  <PubChem CID>
52921551

>  <Smiles>
CC(C)c1n[n](C(C)(C)C)c(C(OC/C=C(\C)/CCC=C(C)C)=O)c1

>  <Molecular Formula>
C21H34N2O2

>  <Activity>
1

$$$$
Compound 32
Actelion Java MolfileCreator 2.0

  0  0  0  0  0  0              0 V3000
M  V30 BEGIN CTAB
M  V30 COUNTS 14 14 0 0 0
M  V30 BEGIN ATOM
M  V30 1 O 0.0 0.0 0.0 0
M  V30 2 C -1.3175 -0.7425 0.0 0
M  V30 3 O -2.635 0.0239 0.0 0
M  V30 4 C -1.3414 -2.2158 0.0 0
M  V30 5 C -3.9525 -0.7186 0.0 0
M  V30 6 O -2.6589 -1.4612 0.0 0
M  V30 7 C -2.6589 -2.9584 0.0 0
M  V30 8 C -0.0718 -2.9464 0.0 0
M  V30 9 C -5.27 0.0479 0.0 0
M  V30 10 C -2.6829 -4.4316 0.0 0
M  V30 11 C -0.0958 -4.4196 0.0 0
M  V30 12 O -5.294 1.569 0.0 0
M  V30 13 C -6.5875 -0.6946 0.0 0
M  V30 14 C -1.4133 -5.1622 0.0 0
M  V30 END ATOM
M  V30 BEGIN BOND
M  V30 1 2 1 2
M  V30 2 1 2 3
M  V30 3 1 2 4
M  V30 4 1 3 5
M  V30 5 1 4 6
M  V30 6 1 4 7
M  V30 7 1 4 8
M  V30 8 1 5 9
M  V30 9 1 7 10
M  V30 10 1 8 11
M  V30 11 2 9 12
M  V30 12 1 9 13
M  V30 13 1 10 14
M  V30 14 1 11 14
M  V30 END BOND
M  V30 END CTAB
M  END
>  <Molecule Name>
1-Hydroxycyclohexanecarboxylic acid, acetonyl ester

>  <Database>
PubChem

>  <Reference DOI>
10.3390/toxics11100837

>  <Molecular Target>
Aedes aegypti

>  <PubChem CID>
55601701

>  <Smiles>
CC(COC(C1(CCCCC1)O)=O)=O

>  <Molecular Formula>
C10H16O4

>  <Activity>
1

$$$$
Compound 33
Actelion Java MolfileCreator 2.0

  0  0  0  0  0  0              0 V3000
M  V30 BEGIN CTAB
M  V30 COUNTS 16 17 0 0 0
M  V30 BEGIN ATOM
M  V30 1 O 0.0 0.0 0.0 0
M  V30 2 C -0.0241 1.5305 0.0 0
M  V30 3 O 1.2533 2.3017 0.0 0
M  V30 4 C -1.3497 2.3017 0.0 0
M  V30 5 C 2.5307 1.5546 0.0 0
M  V30 6 C -2.6753 1.5546 0.0 0
M  V30 7 C 2.5066 0.0723 0.0 0
M  V30 8 C 3.8081 2.3258 0.0 0
M  V30 9 O -4.0733 2.2053 0.0 0
M  V30 10 O -2.8561 0.0843 0.0 0
M  V30 11 C -1.434 0.7712 0.0 0
M  V30 12 C 3.784 -0.6748 0.0 0
M  V30 13 C 5.0856 1.5787 0.0 0
M  V30 14 C -5.0976 1.1207 0.0 0
M  V30 15 C -4.3504 -0.2048 0.0 0
M  V30 16 C 5.0615 0.0843 0.0 0
M  V30 END ATOM
M  V30 BEGIN BOND
M  V30 1 2 1 2
M  V30 2 1 2 3
M  V30 3 1 2 4
M  V30 4 1 3 5
M  V30 5 1 4 6
M  V30 6 1 5 7
M  V30 7 1 5 8
M  V30 8 1 6 9
M  V30 9 1 6 10
M  V30 10 1 6 11
M  V30 11 1 7 12
M  V30 12 1 8 13
M  V30 13 1 9 14
M  V30 14 1 10 15
M  V30 15 1 12 16
M  V30 16 1 13 16
M  V30 17 1 14 15
M  V30 END BOND
M  V30 END CTAB
M  END
>  <Molecule Name>
2-Methyl-1,3-dioxolane-2-acetic acid, cyclohexyl ester

>  <Database>
No information

>  <Reference DOI>
10.3390/toxics11100837

>  <Molecular Target>
Aedes aegypti

>  <PubChem CID>


>  <Smiles>
CC1(CC(OC2CCCCC2)=O)OCCO1

>  <Molecular Formula>
C12H20O4

>  <Activity>
1

$$$$
Compound 34
Actelion Java MolfileCreator 2.0

  0  0  0  0  0  0              0 V3000
M  V30 BEGIN CTAB
M  V30 COUNTS 18 17 0 0 0
M  V30 BEGIN ATOM
M  V30 1 O 0.0 0.0 0.0 0
M  V30 2 C -0.024 1.5278 0.0 0
M  V30 3 O -1.3474 2.2978 0.0 0
M  V30 4 C 1.2511 2.2978 0.0 0
M  V30 5 C -2.6707 1.5639 0.0 0 CFG=2
M  V30 6 C 2.5264 1.5639 0.0 0
M  V30 7 C -3.9941 2.3339 0.0 0
M  V30 8 C -2.6948 0.0842 0.0 0
M  V30 9 C 3.8016 2.3339 0.0 0
M  V30 10 C -5.3174 1.6 0.0 0
M  V30 11 O 3.7775 3.8617 0.0 0
M  V30 12 N 5.0768 1.6 0.0 0
M  V30 13 C 6.352 2.37 0.0 0
M  V30 14 C 5.0528 0.1203 0.0 0
M  V30 15 C 7.6273 1.6361 0.0 0
M  V30 16 C 6.328 3.8978 0.0 0
M  V30 17 C 3.7294 -0.6135 0.0 0
M  V30 18 C 6.328 -0.6135 0.0 0
M  V30 END ATOM
M  V30 BEGIN BOND
M  V30 1 2 1 2
M  V30 2 1 2 3
M  V30 3 1 2 4
M  V30 4 1 3 5
M  V30 5 1 4 6
M  V30 6 1 5 7
M  V30 7 1 5 8 CFG=1
M  V30 8 1 6 9
M  V30 9 1 7 10
M  V30 10 2 9 11
M  V30 11 1 9 12
M  V30 12 1 12 13
M  V30 13 1 12 14
M  V30 14 1 13 15
M  V30 15 1 13 16
M  V30 16 1 14 17
M  V30 17 1 14 18
M  V30 END BOND
M  V30 BEGIN COLLECTION
M  V30 MDLV30/STERAC1 ATOMS=(1 5)
M  V30 END COLLECTION
M  V30 END CTAB
M  END
>  <Molecule Name>
N,N-Di-iso-propylsuccinamic acid, sec-butyl ester

>  <Database>
No information

>  <Reference DOI>
10.3390/toxics11100837

>  <Molecular Target>
Aedes aegypti

>  <PubChem CID>


>  <Smiles>
CCC(C)OC(CCC(N(C(C)C)C(C)C)=O)=O

>  <Molecular Formula>
C14H27NO3

>  <Activity>
1

$$$$
Compound 35
Actelion Java MolfileCreator 2.0

  0  0  0  0  0  0              0 V3000
M  V30 BEGIN CTAB
M  V30 COUNTS 16 15 0 0 0
M  V30 BEGIN ATOM
M  V30 1 O 0.0 0.0 0.0 0
M  V30 2 C -0.024 1.5294 0.0 0
M  V30 3 O -1.3487 2.3001 0.0 0
M  V30 4 C 1.2524 2.3001 0.0 0
M  V30 5 C -2.6734 1.5655 0.0 0 CFG=2
M  V30 6 C 2.5289 1.5655 0.0 0
M  V30 7 C -3.9981 2.3483 0.0 0
M  V30 8 C -2.6975 0.0842 0.0 0
M  V30 9 C 3.8054 2.3483 0.0 0
M  V30 10 C -5.3228 1.6137 0.0 0
M  V30 11 O 3.7813 3.8777 0.0 0
M  V30 12 N 5.0819 1.6137 0.0 0
M  V30 13 C 6.3585 2.3964 0.0 0
M  V30 14 C 5.0579 0.1324 0.0 0
M  V30 15 C 7.635 1.6618 0.0 0
M  V30 16 C 6.3344 -0.6021 0.0 0
M  V30 END ATOM
M  V30 BEGIN BOND
M  V30 1 2 1 2
M  V30 2 1 2 3
M  V30 3 1 2 4
M  V30 4 1 3 5
M  V30 5 1 4 6
M  V30 6 1 5 7
M  V30 7 1 5 8 CFG=1
M  V30 8 1 6 9
M  V30 9 1 7 10
M  V30 10 2 9 11
M  V30 11 1 9 12
M  V30 12 1 12 13
M  V30 13 1 12 14
M  V30 14 1 13 15
M  V30 15 1 14 16
M  V30 END BOND
M  V30 BEGIN COLLECTION
M  V30 MDLV30/STERAC1 ATOMS=(1 5)
M  V30 END COLLECTION
M  V30 END CTAB
M  END
>  <Molecule Name>
N,N-Diethylsuccinamic acid, sec-butyl ester

>  <Database>
No information

>  <Reference DOI>
10.3390/toxics11100837

>  <Molecular Target>
Aedes aegypti

>  <PubChem CID>


>  <Smiles>
CCC(C)OC(CCC(N(CC)CC)=O)=O

>  <Molecular Formula>
C12H23NO3

>  <Activity>
1

$$$$
Compound 36
Actelion Java MolfileCreator 2.0

  0  0  0  0  0  0              0 V3000
M  V30 BEGIN CTAB
M  V30 COUNTS 16 16 0 0 0
M  V30 BEGIN ATOM
M  V30 1 O 0.0 0.0 0.0 0
M  V30 2 C 1.1765 0.801 0.0 0
M  V30 3 O 2.353 0.1001 0.0 0
M  V30 4 N 1.0764 2.3906 0.0 0
M  V30 5 C 2.2529 -1.2891 0.0 0
M  V30 6 C -0.3003 3.2041 0.0 0
M  V30 7 C 2.2529 3.2041 0.0 0
M  V30 8 C 3.4294 -1.9901 0.0 0
M  V30 9 C 0.8761 -1.9901 0.0 0
M  V30 10 C -0.4005 4.7937 0.0 0
M  V30 11 C -1.6771 2.5032 0.0 0
M  V30 12 C 2.1528 4.7937 0.0 0
M  V30 13 C 3.3293 -3.3794 0.0 0
M  V30 14 C 0.776 5.5948 0.0 0
M  V30 15 C -3.0539 3.3043 0.0 0
M  V30 16 O -4.4308 2.6034 0.0 0
M  V30 END ATOM
M  V30 BEGIN BOND
M  V30 1 2 1 2
M  V30 2 1 2 3
M  V30 3 1 2 4
M  V30 4 1 3 5
M  V30 5 1 4 6
M  V30 6 1 4 7
M  V30 7 1 5 8
M  V30 8 1 5 9
M  V30 9 1 6 10
M  V30 10 1 6 11
M  V30 11 1 7 12
M  V30 12 1 8 13
M  V30 13 1 10 14
M  V30 14 1 11 15
M  V30 15 1 15 16
M  V30 16 1 12 14
M  V30 END BOND
M  V30 END CTAB
M  END
>  <Molecule Name>
butan-2-yl 2-(2-hydroxyethyl)piperidine-1-carboxylate

>  <Database>
Pubchem

>  <Reference DOI>
10.1021/acs.jafc.2c05537

>  <Molecular Target>
Aedes albopictus

>  <PubChem CID>
125098

>  <Smiles>
CCC(C)OC(N1C(CCO)CCCC1)=O

>  <Molecular Formula>
C12H23NO3

>  <Activity>
1

$$$$
Compound 37
Actelion Java MolfileCreator 2.0

  0  0  0  0  0  0              0 V3000
M  V30 BEGIN CTAB
M  V30 COUNTS 15 15 0 0 0
M  V30 BEGIN ATOM
M  V30 1 O 0.0 0.0 0.0 0
M  V30 2 C 1.2863 -0.7523 0.0 0
M  V30 3 O 2.5727 0.0121 0.0 0
M  V30 4 C 1.262 -2.245 0.0 0
M  V30 5 C 2.5484 1.5533 0.0 0
M  V30 6 C 2.5484 -2.9974 0.0 0
M  V30 7 C -0.0728 -2.9853 0.0 0
M  V30 8 O 3.8347 -2.2329 0.0 0
M  V30 9 C 2.5241 -4.49 0.0 0
M  V30 10 C -0.097 -4.4779 0.0 0
M  V30 11 C 5.1211 -2.9731 0.0 0
M  V30 12 C 1.1892 -5.2303 0.0 0
M  V30 13 O 5.0968 -4.4658 0.0 0
M  V30 14 C 6.4074 -2.1965 0.0 0
M  V30 15 C 7.6938 -2.9367 0.0 0
M  V30 END ATOM
M  V30 BEGIN BOND
M  V30 1 2 1 2
M  V30 2 1 2 3
M  V30 3 1 2 4
M  V30 4 1 3 5
M  V30 5 2 4 6
M  V30 6 1 4 7
M  V30 7 1 6 8
M  V30 8 1 6 9
M  V30 9 2 7 10
M  V30 10 1 8 11
M  V30 11 2 9 12
M  V30 12 2 11 13
M  V30 13 1 11 14
M  V30 14 1 14 15
M  V30 15 1 10 12
M  V30 END BOND
M  V30 END CTAB
M  END
>  <Molecule Name>
Propionylsalicylic acid, methyl ester

>  <Database>
PubChem

>  <Reference DOI>
10.3390/toxics11100837

>  <Molecular Target>
Aedes aegypti

>  <PubChem CID>
836916

>  <Smiles>
CCC(Oc(cccc1)c1C(OC)=O)=O

>  <Molecular Formula>
C11H12O4

>  <Activity>
1

$$$$
Compound 38
Actelion Java MolfileCreator 2.0

  0  0  0  0  0  0              0 V3000
M  V30 BEGIN CTAB
M  V30 COUNTS 16 15 0 0 0
M  V30 BEGIN ATOM
M  V30 1 O 0.0 0.0 0.0 0
M  V30 2 C -0.0241 -1.4853 0.0 0
M  V30 3 O 1.2559 -2.2341 0.0 0
M  V30 4 C -1.3525 -2.2341 0.0 0
M  V30 5 C 2.536 -1.4612 0.0 0
M  V30 6 C -2.6809 -1.4612 0.0 0
M  V30 7 C 3.816 -2.2099 0.0 0
M  V30 8 C -4.0093 -2.2099 0.0 0
M  V30 9 N 5.0961 -1.437 0.0 0
M  V30 10 C 6.3762 -2.1857 0.0 0
M  V30 11 C 5.072 0.0966 0.0 0
M  V30 12 O 6.352 -3.6711 0.0 0
M  V30 13 C 7.6563 -1.4129 0.0 0
M  V30 14 C 6.352 0.8694 0.0 0
M  V30 15 C 8.9364 -2.1616 0.0 0
M  V30 16 C 10.2164 -1.3887 0.0 0
M  V30 END ATOM
M  V30 BEGIN BOND
M  V30 1 2 1 2
M  V30 2 1 2 3
M  V30 3 1 2 4
M  V30 4 1 3 5
M  V30 5 1 4 6
M  V30 6 1 5 7
M  V30 7 1 6 8
M  V30 8 1 7 9
M  V30 9 1 9 10
M  V30 10 1 9 11
M  V30 11 2 10 12
M  V30 12 1 10 13
M  V30 13 1 11 14
M  V30 14 1 13 15
M  V30 15 1 15 16
M  V30 END BOND
M  V30 END CTAB
M  END
>  <Molecule Name>
N-Ethyl-N-(2-butyroxy-ethyl)butyramide

>  <Database>
Pubchem

>  <Reference DOI>
10.3390/toxics11100837

>  <Molecular Target>
Aedes aegypti

>  <PubChem CID>
245382

>  <Smiles>
CCCC(N(CC)CCOC(CCC)=O)=O

>  <Molecular Formula>
C12H23NO3

>  <Activity>
1

$$$$
Compound 39
Actelion Java MolfileCreator 2.0

  0  0  0  0  0  0              0 V3000
M  V30 BEGIN CTAB
M  V30 COUNTS 33 33 0 0 0
M  V30 BEGIN ATOM
M  V30 1 O 0.0 0.0 0.0 0
M  V30 2 C 0.7918 1.3283 0.0 0
M  V30 3 O 2.2096 1.2644 0.0 0
M  V30 4 C 0.0255 2.8227 0.0 0
M  V30 5 N 2.7716 -0.0255 0.0 0
M  V30 6 C -0.7407 4.317 0.0 0
M  V30 7 C 1.3155 3.589 0.0 0
M  V30 8 C -1.4688 2.2607 0.0 0
M  V30 9 C 4.1893 -0.0894 0.0 0
M  V30 10 C -2.3628 4.5852 0.0 0
M  V30 11 C 5.0834 1.1239 0.0 0
M  V30 12 C 4.9046 -1.3027 0.0 0
M  V30 13 C 6.3734 0.5619 0.0 0
M  V30 14 C 4.6491 2.7205 0.0 0
M  V30 15 C 6.2967 -0.8685 0.0 0
M  V30 16 C 7.5868 1.3794 0.0 0
M  V30 17 C 3.0909 3.3208 0.0 0
M  V30 18 C 8.8001 0.6769 0.0 0
M  V30 19 C 2.6566 4.9173 0.0 0
M  V30 20 O 10.0135 1.4943 0.0 0
M  V30 21 C 8.698 -0.7535 0.0 0
M  V30 22 C 1.0984 5.5176 0.0 0
M  V30 23 C 11.2269 0.7918 0.0 0
M  V30 24 C 0.6641 7.1142 0.0 0
M  V30 25 C 12.4403 1.6093 0.0 0
M  V30 26 C 13.6536 0.9068 0.0 0
M  V30 27 C 14.867 1.7242 0.0 0
M  V30 28 C 13.5515 -0.5236 0.0 0
M  V30 29 C 16.0804 1.0217 0.0 0
M  V30 30 C 17.2938 1.8392 0.0 0
M  V30 31 C 18.5072 1.1367 0.0 0
M  V30 32 C 19.7205 1.9541 0.0 0
M  V30 33 C 18.405 -0.2937 0.0 0
M  V30 END ATOM
M  V30 BEGIN BOND
M  V30 1 2 1 2
M  V30 2 1 2 3
M  V30 3 1 2 4
M  V30 4 1 3 5
M  V30 5 1 4 6
M  V30 6 1 4 7
M  V30 7 1 4 8
M  V30 8 2 5 9
M  V30 9 1 6 10
M  V30 10 1 9 11
M  V30 11 1 9 12
M  V30 12 1 11 13
M  V30 13 1 11 14
M  V30 14 1 12 15
M  V30 15 1 13 16
M  V30 16 1 14 17
M  V30 17 1 16 18
M  V30 18 1 17 19
M  V30 19 1 18 20
M  V30 20 2 18 21
M  V30 21 1 19 22
M  V30 22 1 20 23
M  V30 23 1 22 24
M  V30 24 1 23 25
M  V30 25 2 25 26
M  V30 26 1 26 27
M  V30 27 1 26 28
M  V30 28 1 27 29
M  V30 29 1 29 30
M  V30 30 2 30 31
M  V30 31 1 31 32
M  V30 32 1 31 33
M  V30 33 1 13 15
M  V30 END BOND
M  V30 END CTAB
M  END
>  <Molecule Name>


>  <Database>
No information

>  <Reference DOI>
10.1021/acs.jafc.2c04126

>  <Molecular Target>
Acyrthosiphon pisum

>  <PubChem CID>


>  <Smiles>
CCCCCC(C(CC(OC/C=C(\C)/CCC=C(C)C)=C)CC1)/C\1=N\OC(C(C)(C)CC)=O

>  <Molecular Formula>
C29H49NO3

>  <Activity>
1

$$$$
Compound 40
Actelion Java MolfileCreator 2.0

  0  0  0  0  0  0              0 V3000
M  V30 BEGIN CTAB
M  V30 COUNTS 31 32 0 0 0
M  V30 BEGIN ATOM
M  V30 1 O 0.0 0.0 0.0 0
M  V30 2 C 0.7925 1.3294 0.0 0
M  V30 3 O 2.2114 1.2655 0.0 0
M  V30 4 C 0.0255 2.825 0.0 0
M  V30 5 N 2.7739 -0.0255 0.0 0
M  V30 6 C -1.3038 3.7965 0.0 0
M  V30 7 C 0.0894 4.4484 0.0 0
M  V30 8 C 4.1928 -0.0894 0.0 0
M  V30 9 C 5.0876 1.1249 0.0 0
M  V30 10 C 4.9086 -1.3038 0.0 0
M  V30 11 C 6.3787 0.5624 0.0 0
M  V30 12 C 4.653 2.7227 0.0 0
M  V30 13 C 6.302 -0.8692 0.0 0
M  V30 14 C 7.593 1.3933 0.0 0
M  V30 15 C 3.0934 3.3235 0.0 0
M  V30 16 C 8.8074 0.6774 0.0 0
M  V30 17 C 2.6588 4.9214 0.0 0
M  V30 18 O 10.0218 1.5083 0.0 0
M  V30 19 C 8.7052 -0.7541 0.0 0
M  V30 20 C 1.0993 5.5222 0.0 0
M  V30 21 C 11.2362 0.7925 0.0 0
M  V30 22 C 0.6647 7.1201 0.0 0
M  V30 23 C 12.4506 1.6234 0.0 0
M  V30 24 C 13.6649 0.9075 0.0 0
M  V30 25 C 14.8793 1.7384 0.0 0
M  V30 26 C 13.5627 -0.5241 0.0 0
M  V30 27 C 16.0937 1.0226 0.0 0
M  V30 28 C 17.3081 1.8535 0.0 0
M  V30 29 C 18.5225 1.1376 0.0 0
M  V30 30 C 19.7369 1.9685 0.0 0
M  V30 31 C 18.4202 -0.294 0.0 0
M  V30 END ATOM
M  V30 BEGIN BOND
M  V30 1 2 1 2
M  V30 2 1 2 3
M  V30 3 1 2 4
M  V30 4 1 3 5
M  V30 5 1 4 6
M  V30 6 1 4 7
M  V30 7 2 5 8
M  V30 8 1 8 9
M  V30 9 1 8 10
M  V30 10 1 9 11
M  V30 11 1 9 12
M  V30 12 1 10 13
M  V30 13 1 11 14
M  V30 14 1 12 15
M  V30 15 1 14 16
M  V30 16 1 15 17
M  V30 17 1 16 18
M  V30 18 2 16 19
M  V30 19 1 17 20
M  V30 20 1 18 21
M  V30 21 1 20 22
M  V30 22 1 21 23
M  V30 23 2 23 24
M  V30 24 1 24 25
M  V30 25 1 24 26
M  V30 26 1 25 27
M  V30 27 1 27 28
M  V30 28 2 28 29
M  V30 29 1 29 30
M  V30 30 1 29 31
M  V30 31 1 6 7
M  V30 32 1 11 13
M  V30 END BOND
M  V30 END CTAB
M  END
>  <Molecule Name>
6

>  <Database>
No information

>  <Reference DOI>
10.1021/acs.jafc.2c04126

>  <Molecular Target>
Acyrthosiphon pisum

>  <PubChem CID>


>  <Smiles>
CCCCCC(C(CC(OC/C=C(\C)/CCC=C(C)C)=C)CC1)/C\1=N\OC(C1CC1)=O

>  <Molecular Formula>
C27H43NO3

>  <Activity>
1

$$$$
Compound 41
Actelion Java MolfileCreator 2.0

  0  0  0  0  0  0              0 V3000
M  V30 BEGIN CTAB
M  V30 COUNTS 32 33 0 0 0
M  V30 BEGIN ATOM
M  V30 1 O 0.0 0.0 0.0 0
M  V30 2 C 0.787 1.3242 0.0 0
M  V30 3 O 2.1987 1.2617 0.0 0
M  V30 4 C 0.0374 2.8108 0.0 0
M  V30 5 N 2.7484 -0.0249 0.0 0
M  V30 6 C -1.4866 3.4855 0.0 0
M  V30 7 C 0.5122 4.335 0.0 0
M  V30 8 C 4.1601 -0.0874 0.0 0
M  V30 9 C -1.0119 5.0096 0.0 0
M  V30 10 C 5.0596 1.1243 0.0 0
M  V30 11 C 4.8722 -1.2992 0.0 0
M  V30 12 C 6.3463 0.5746 0.0 0
M  V30 13 C 4.6348 2.7109 0.0 0
M  V30 14 C 6.2589 -0.8744 0.0 0
M  V30 15 C 7.5581 1.3991 0.0 0
M  V30 16 C 3.0857 3.2981 0.0 0
M  V30 17 C 8.7699 0.6871 0.0 0
M  V30 18 C 2.6609 4.8847 0.0 0
M  V30 19 O 9.9817 1.5116 0.0 0
M  V30 20 C 8.67 -0.737 0.0 0
M  V30 21 C 1.1118 5.4718 0.0 0
M  V30 22 C 11.1935 0.812 0.0 0
M  V30 23 C 0.6871 7.0584 0.0 0
M  V30 24 C 12.4054 1.6365 0.0 0
M  V30 25 C 13.6172 0.9369 0.0 0
M  V30 26 C 14.829 1.7614 0.0 0
M  V30 27 C 13.5172 -0.4872 0.0 0
M  V30 28 C 16.0408 1.0493 0.0 0
M  V30 29 C 17.2526 1.8739 0.0 0
M  V30 30 C 18.4644 1.1743 0.0 0
M  V30 31 C 19.6762 1.9988 0.0 0
M  V30 32 C 18.3644 -0.2498 0.0 0
M  V30 END ATOM
M  V30 BEGIN BOND
M  V30 1 2 1 2
M  V30 2 1 2 3
M  V30 3 1 2 4
M  V30 4 1 3 5
M  V30 5 1 4 6
M  V30 6 1 4 7
M  V30 7 2 5 8
M  V30 8 1 6 9
M  V30 9 1 8 10
M  V30 10 1 8 11
M  V30 11 1 10 12
M  V30 12 1 10 13
M  V30 13 1 11 14
M  V30 14 1 12 15
M  V30 15 1 13 16
M  V30 16 1 15 17
M  V30 17 1 16 18
M  V30 18 1 17 19
M  V30 19 2 17 20
M  V30 20 1 18 21
M  V30 21 1 19 22
M  V30 22 1 21 23
M  V30 23 1 22 24
M  V30 24 2 24 25
M  V30 25 1 25 26
M  V30 26 1 25 27
M  V30 27 1 26 28
M  V30 28 1 28 29
M  V30 29 2 29 30
M  V30 30 1 30 31
M  V30 31 1 30 32
M  V30 32 1 7 9
M  V30 33 1 12 14
M  V30 END BOND
M  V30 END CTAB
M  END
>  <Molecule Name>


>  <Database>
No information

>  <Reference DOI>
10.1021/acs.jafc.2c04126

>  <Molecular Target>
Acyrthosiphon pisum

>  <PubChem CID>


>  <Smiles>
CCCCCC(C(CC(OC/C=C(\C)/CCC=C(C)C)=C)CC1)/C\1=N\OC(C1CCC1)=O

>  <Molecular Formula>
C28H45NO3

>  <Activity>
1

$$$$
Compound 42
Actelion Java MolfileCreator 2.0

  0  0  0  0  0  0              0 V3000
M  V30 BEGIN CTAB
M  V30 COUNTS 33 34 0 0 0
M  V30 BEGIN ATOM
M  V30 1 O 0.0 0.0 0.0 0
M  V30 2 C 0.7886 1.3229 0.0 0
M  V30 3 O 2.2007 1.2593 0.0 0
M  V30 4 C 0.0254 2.8113 0.0 0
M  V30 5 N 2.7604 -0.0254 0.0 0
M  V30 6 C 0.725 4.2233 0.0 0
M  V30 7 C -1.5646 3.2438 0.0 0
M  V30 8 C 4.1724 -0.089 0.0 0
M  V30 9 C -0.3689 5.4318 0.0 0
M  V30 10 C -1.8318 4.8593 0.0 0
M  V30 11 C 5.0629 1.1194 0.0 0
M  V30 12 C 4.8848 -1.2975 0.0 0
M  V30 13 C 6.3477 0.5597 0.0 0
M  V30 14 C 4.6304 2.7095 0.0 0
M  V30 15 C 6.2713 -0.865 0.0 0
M  V30 16 C 7.5562 1.3738 0.0 0
M  V30 17 C 3.0784 3.3074 0.0 0
M  V30 18 C 8.7646 0.6614 0.0 0
M  V30 19 C 2.6459 4.8975 0.0 0
M  V30 20 O 9.9731 1.4756 0.0 0
M  V30 21 C 8.6629 -0.7632 0.0 0
M  V30 22 C 1.0939 5.4954 0.0 0
M  V30 23 C 11.1816 0.7632 0.0 0
M  V30 24 C 0.6614 7.0855 0.0 0
M  V30 25 C 12.3901 1.5773 0.0 0
M  V30 26 C 13.5986 0.865 0.0 0
M  V30 27 C 14.8071 1.6791 0.0 0
M  V30 28 C 13.4968 -0.5597 0.0 0
M  V30 29 C 16.0155 0.9667 0.0 0
M  V30 30 C 17.224 1.7809 0.0 0
M  V30 31 C 18.4325 1.0685 0.0 0
M  V30 32 C 19.641 1.8826 0.0 0
M  V30 33 C 18.3307 -0.3561 0.0 0
M  V30 END ATOM
M  V30 BEGIN BOND
M  V30 1 2 1 2
M  V30 2 1 2 3
M  V30 3 1 2 4
M  V30 4 1 3 5
M  V30 5 1 4 6
M  V30 6 1 4 7
M  V30 7 2 5 8
M  V30 8 1 6 9
M  V30 9 1 7 10
M  V30 10 1 8 11
M  V30 11 1 8 12
M  V30 12 1 11 13
M  V30 13 1 11 14
M  V30 14 1 12 15
M  V30 15 1 13 16
M  V30 16 1 14 17
M  V30 17 1 16 18
M  V30 18 1 17 19
M  V30 19 1 18 20
M  V30 20 2 18 21
M  V30 21 1 19 22
M  V30 22 1 20 23
M  V30 23 1 22 24
M  V30 24 1 23 25
M  V30 25 2 25 26
M  V30 26 1 26 27
M  V30 27 1 26 28
M  V30 28 1 27 29
M  V30 29 1 29 30
M  V30 30 2 30 31
M  V30 31 1 31 32
M  V30 32 1 31 33
M  V30 33 1 9 10
M  V30 34 1 13 15
M  V30 END BOND
M  V30 END CTAB
M  END
>  <Molecule Name>


>  <Database>
No information

>  <Reference DOI>
10.1021/acs.jafc.2c04126

>  <Molecular Target>
Acyrthosiphon pisum

>  <PubChem CID>


>  <Smiles>
CCCCCC(C(CC(OC/C=C(\C)/CCC=C(C)C)=C)CC1)/C\1=N\OC(C1CCCC1)=O

>  <Molecular Formula>
C29H47NO3

>  <Activity>
1

$$$$
Compound 43
Actelion Java MolfileCreator 2.0

  0  0  0  0  0  0              0 V3000
M  V30 BEGIN CTAB
M  V30 COUNTS 30 30 0 0 0
M  V30 BEGIN ATOM
M  V30 1 O 0.0 0.0 0.0 0
M  V30 2 C 0.5693 -1.3069 0.0 0
M  V30 3 O 2.0057 -1.3716 0.0 0
M  V30 4 C -0.414 -2.4457 0.0 0
M  V30 5 N 2.5751 -2.6786 0.0 0
M  V30 6 C -2.0574 -2.1739 0.0 0
M  V30 7 C 4.0114 -2.7433 0.0 0
M  V30 8 C 4.9172 -1.514 0.0 0
M  V30 9 C 4.7231 -3.9726 0.0 0
M  V30 10 C 6.2242 -2.0833 0.0 0
M  V30 11 C 4.4773 0.1035 0.0 0
M  V30 12 C 6.1336 -3.5326 0.0 0
M  V30 13 C 7.4535 -1.2552 0.0 0
M  V30 14 C 2.8986 0.7117 0.0 0
M  V30 15 C 8.6828 -1.9798 0.0 0
M  V30 16 C 2.4586 2.3292 0.0 0
M  V30 17 O 9.9122 -1.1516 0.0 0
M  V30 18 C 8.5793 -3.4291 0.0 0
M  V30 19 C 0.8799 2.9374 0.0 0
M  V30 20 C 11.1415 -1.8763 0.0 0
M  V30 21 C 0.4399 4.5549 0.0 0
M  V30 22 C 12.3708 -1.0481 0.0 0
M  V30 23 C 13.6001 -1.7728 0.0 0
M  V30 24 C 14.8294 -0.9446 0.0 0
M  V30 25 C 13.4966 -3.2221 0.0 0
M  V30 26 C 16.0588 -1.6692 0.0 0
M  V30 27 C 17.2881 -0.8411 0.0 0
M  V30 28 C 18.5174 -1.5657 0.0 0
M  V30 29 C 19.7467 -0.7375 0.0 0
M  V30 30 C 18.4139 -3.015 0.0 0
M  V30 END ATOM
M  V30 BEGIN BOND
M  V30 1 2 1 2
M  V30 2 1 2 3
M  V30 3 1 2 4
M  V30 4 1 3 5
M  V30 5 1 4 6
M  V30 6 2 5 7
M  V30 7 1 7 8
M  V30 8 1 7 9
M  V30 9 1 8 10
M  V30 10 1 8 11
M  V30 11 1 9 12
M  V30 12 1 10 13
M  V30 13 1 11 14
M  V30 14 1 13 15
M  V30 15 1 14 16
M  V30 16 1 15 17
M  V30 17 2 15 18
M  V30 18 1 16 19
M  V30 19 1 17 20
M  V30 20 1 19 21
M  V30 21 1 20 22
M  V30 22 2 22 23
M  V30 23 1 23 24
M  V30 24 1 23 25
M  V30 25 1 24 26
M  V30 26 1 26 27
M  V30 27 2 27 28
M  V30 28 1 28 29
M  V30 29 1 28 30
M  V30 30 1 10 12
M  V30 END BOND
M  V30 END CTAB
M  END
>  <Molecule Name>
5

>  <Database>
No information

>  <Reference DOI>
10.1021/acs.jafc.2c04126

>  <Molecular Target>
Acyrthosiphon pisum

>  <PubChem CID>


>  <Smiles>
CCCCCC(C(CC(OC/C=C(\C)/CCC=C(C)C)=C)CC1)/C\1=N\OC(CC)=O

>  <Molecular Formula>
C26H43NO3

>  <Activity>
1

$$$$
Compound 44
Actelion Java MolfileCreator 2.0

  0  0  0  0  0  0              0 V3000
M  V30 BEGIN CTAB
M  V30 COUNTS 31 31 0 0 0
M  V30 BEGIN ATOM
M  V30 1 O 0.0 0.0 0.0 0
M  V30 2 C 1.1614 0.7908 0.0 0
M  V30 3 O 1.0626 2.36 0.0 0
M  V30 4 C 2.3229 0.0988 0.0 0
M  V30 5 N 2.2241 3.1508 0.0 0
M  V30 6 C 3.4844 0.8896 0.0 0
M  V30 7 C 2.1252 4.7201 0.0 0
M  V30 8 C 3.3856 2.4589 0.0 0
M  V30 9 C 0.8525 5.6468 0.0 0
M  V30 10 C 3.2002 5.6468 0.0 0
M  V30 11 C 1.2356 7.1419 0.0 0
M  V30 12 C -0.6425 5.2637 0.0 0
M  V30 13 C 2.6195 7.1419 0.0 0
M  V30 14 C 0.3089 8.4146 0.0 0
M  V30 15 C -1.0626 3.9293 0.0 0
M  V30 16 C 0.8525 9.8479 0.0 0
M  V30 17 C -2.5577 3.5462 0.0 0
M  V30 18 O -0.0741 11.1206 0.0 0
M  V30 19 C 2.2117 10.1074 0.0 0
M  V30 20 C -2.9778 2.2117 0.0 0
M  V30 21 C 0.4695 12.554 0.0 0
M  V30 22 C -4.4729 1.8287 0.0 0
M  V30 23 C -0.4571 13.8267 0.0 0
M  V30 24 C 0.0864 15.26 0.0 0
M  V30 25 C -0.8402 16.5327 0.0 0
M  V30 26 C 1.4456 15.5195 0.0 0
M  V30 27 C -0.2965 17.966 0.0 0
M  V30 28 C -1.2232 19.2387 0.0 0
M  V30 29 C -0.6795 20.6721 0.0 0
M  V30 30 C -1.6063 21.9448 0.0 0
M  V30 31 C 0.6795 20.9316 0.0 0
M  V30 END ATOM
M  V30 BEGIN BOND
M  V30 1 2 1 2
M  V30 2 1 2 3
M  V30 3 1 2 4
M  V30 4 1 3 5
M  V30 5 1 4 6
M  V30 6 2 5 7
M  V30 7 2 6 8
M  V30 8 1 7 9
M  V30 9 1 7 10
M  V30 10 1 9 11
M  V30 11 1 9 12
M  V30 12 1 10 13
M  V30 13 1 11 14
M  V30 14 1 12 15
M  V30 15 1 14 16
M  V30 16 1 15 17
M  V30 17 1 16 18
M  V30 18 2 16 19
M  V30 19 1 17 20
M  V30 20 1 18 21
M  V30 21 1 20 22
M  V30 22 1 21 23
M  V30 23 2 23 24
M  V30 24 1 24 25
M  V30 25 1 24 26
M  V30 26 1 25 27
M  V30 27 1 27 28
M  V30 28 2 28 29
M  V30 29 1 29 30
M  V30 30 1 29 31
M  V30 31 1 11 13
M  V30 END BOND
M  V30 END CTAB
M  END
>  <Molecule Name>
7

>  <Database>
No information

>  <Reference DOI>
10.1021/acs.jafc.2c04126

>  <Molecular Target>
Acyrthosiphon pisum

>  <PubChem CID>


>  <Smiles>
CCCCCC(C(CC(OC/C=C(\C)/CCC=C(C)C)=C)CC1)/C\1=N\OC(CC=C)=O

>  <Molecular Formula>
C27H43NO3

>  <Activity>
1

$$$$
Compound 45
Actelion Java MolfileCreator 2.0

  0  0  0  0  0  0              0 V3000
M  V30 BEGIN CTAB
M  V30 COUNTS 32 32 0 0 0
M  V30 BEGIN ATOM
M  V30 1 O 0.0 0.0 0.0 0
M  V30 2 C -0.1003 -1.4047 0.0 0
M  V30 3 O -1.4925 -2.107 0.0 0
M  V30 4 C 1.0911 -2.107 0.0 0
M  V30 5 N -2.8846 -1.2918 0.0 0
M  V30 6 C 2.2826 -1.2918 0.0 0
M  V30 7 C -4.2768 -1.9941 0.0 0
M  V30 8 C 3.4741 -1.9941 0.0 0
M  V30 9 C -4.5402 -3.3863 0.0 0
M  V30 10 C -5.7442 -1.2416 0.0 0
M  V30 11 C 4.6656 -1.1789 0.0 0
M  V30 12 C -6.108 -3.6121 0.0 0
M  V30 13 C -3.5494 -4.2643 0.0 0
M  V30 14 C -6.8229 -2.2324 0.0 0
M  V30 15 C -6.8605 -4.8788 0.0 0
M  V30 16 C -2.2199 -3.6748 0.0 0
M  V30 17 C -8.4533 -4.9416 0.0 0
M  V30 18 C -1.2291 -4.5527 0.0 0
M  V30 19 O -9.2059 -6.2083 0.0 0
M  V30 20 C -9.4065 -3.6372 0.0 0
M  V30 21 C 0.1003 -3.9633 0.0 0
M  V30 22 C -10.7987 -6.271 0.0 0
M  V30 23 C 1.0911 -4.8412 0.0 0
M  V30 24 C -11.5513 -7.5378 0.0 0
M  V30 25 C -13.1441 -7.6005 0.0 0
M  V30 26 C -13.8966 -8.8672 0.0 0
M  V30 27 C -14.0973 -6.2961 0.0 0
M  V30 28 C -15.4895 -8.9299 0.0 0
M  V30 29 C -16.242 -10.1967 0.0 0
M  V30 30 C -17.8349 -10.2594 0.0 0
M  V30 31 C -18.5874 -11.5262 0.0 0
M  V30 32 C -18.7881 -8.955 0.0 0
M  V30 END ATOM
M  V30 BEGIN BOND
M  V30 1 2 1 2
M  V30 2 1 2 3
M  V30 3 1 2 4
M  V30 4 1 3 5
M  V30 5 1 4 6
M  V30 6 2 5 7
M  V30 7 1 6 8
M  V30 8 1 7 9
M  V30 9 1 7 10
M  V30 10 2 8 11
M  V30 11 1 9 12
M  V30 12 1 9 13
M  V30 13 1 10 14
M  V30 14 1 12 15
M  V30 15 1 13 16
M  V30 16 1 15 17
M  V30 17 1 16 18
M  V30 18 1 17 19
M  V30 19 2 17 20
M  V30 20 1 18 21
M  V30 21 1 19 22
M  V30 22 1 21 23
M  V30 23 1 22 24
M  V30 24 2 24 25
M  V30 25 1 25 26
M  V30 26 1 25 27
M  V30 27 1 26 28
M  V30 28 1 28 29
M  V30 29 2 29 30
M  V30 30 1 30 31
M  V30 31 1 30 32
M  V30 32 1 12 14
M  V30 END BOND
M  V30 END CTAB
M  END
>  <Molecule Name>
8

>  <Database>
No information

>  <Reference DOI>
10.1021/acs.jafc.2c04126

>  <Molecular Target>
Acyrthosiphon pisum

>  <PubChem CID>


>  <Smiles>
CCCCCC(C(CC(OC/C=C(\C)/CCC=C(C)C)=C)CC1)/C\1=N\OC(CCC=C)=O

>  <Molecular Formula>
C28H45NO3

>  <Activity>
1

$$$$
Compound 46
Actelion Java MolfileCreator 2.0

  0  0  0  0  0  0              0 V3000
M  V30 BEGIN CTAB
M  V30 COUNTS 33 33 0 0 0
M  V30 BEGIN ATOM
M  V30 1 O 0.0 0.0 0.0 0
M  V30 2 C -0.0986 1.5665 0.0 0
M  V30 3 O -1.4555 2.356 0.0 0
M  V30 4 C 1.0608 2.356 0.0 0
M  V30 5 N -1.5542 3.9226 0.0 0
M  V30 6 C 2.2203 1.6776 0.0 0
M  V30 7 C -2.9111 4.7244 0.0 0
M  V30 8 C 3.3798 2.467 0.0 0
M  V30 9 C -4.342 4.1816 0.0 0
M  V30 10 C -3.1701 6.2786 0.0 0
M  V30 11 C 4.5394 1.7886 0.0 0
M  V30 12 C -5.3905 5.3412 0.0 0
M  V30 13 C -4.7614 2.8494 0.0 0
M  V30 14 C -4.6997 6.698 0.0 0
M  V30 15 C 5.6989 2.578 0.0 0
M  V30 16 C -6.9447 5.2795 0.0 0
M  V30 17 C -3.7992 1.9983 0.0 0
M  V30 18 C -7.8699 6.55 0.0 0
M  V30 19 C -4.2186 0.6661 0.0 0
M  V30 20 O -9.4241 6.4883 0.0 0
M  V30 21 C -7.3271 7.9809 0.0 0
M  V30 22 C -3.2565 -0.185 0.0 0
M  V30 23 C -10.3493 7.7589 0.0 0
M  V30 24 C -3.6759 -1.5172 0.0 0
M  V30 25 C -11.9035 7.6972 0.0 0
M  V30 26 C -12.8287 8.9677 0.0 0
M  V30 27 C -14.383 8.9061 0.0 0
M  V30 28 C -12.2859 10.3986 0.0 0
M  V30 29 C -15.3081 10.1766 0.0 0
M  V30 30 C -16.8624 10.1149 0.0 0
M  V30 31 C -17.7875 11.3855 0.0 0
M  V30 32 C -19.3418 11.3238 0.0 0
M  V30 33 C -17.2447 12.8164 0.0 0
M  V30 END ATOM
M  V30 BEGIN BOND
M  V30 1 2 1 2
M  V30 2 1 2 3
M  V30 3 1 2 4
M  V30 4 1 3 5
M  V30 5 1 4 6
M  V30 6 2 5 7
M  V30 7 1 6 8
M  V30 8 1 7 9
M  V30 9 1 7 10
M  V30 10 1 8 11
M  V30 11 1 9 12
M  V30 12 1 9 13
M  V30 13 1 10 14
M  V30 14 1 11 15
M  V30 15 1 12 16
M  V30 16 1 13 17
M  V30 17 1 16 18
M  V30 18 1 17 19
M  V30 19 1 18 20
M  V30 20 2 18 21
M  V30 21 1 19 22
M  V30 22 1 20 23
M  V30 23 1 22 24
M  V30 24 1 23 25
M  V30 25 2 25 26
M  V30 26 1 26 27
M  V30 27 1 26 28
M  V30 28 1 27 29
M  V30 29 1 29 30
M  V30 30 2 30 31
M  V30 31 1 31 32
M  V30 32 1 31 33
M  V30 33 1 12 14
M  V30 END BOND
M  V30 END CTAB
M  END
>  <Molecule Name>


>  <Database>
No information

>  <Reference DOI>
10.1021/acs.jafc.2c04126

>  <Molecular Target>
Acyrthosiphon pisum

>  <PubChem CID>


>  <Smiles>
CCCCCC(C(CC(OC/C=C(\C)/CCC=C(C)C)=C)CC1)/C\1=N\OC(CCCCC)=O

>  <Molecular Formula>
C29H49NO3

>  <Activity>
1

$$$$
Compound 47
Actelion Java MolfileCreator 2.0

  0  0  0  0  0  0              0 V3000
M  V30 BEGIN CTAB
M  V30 COUNTS 34 35 0 0 0
M  V30 BEGIN ATOM
M  V30 1 O 0.0 0.0 0.0 0
M  V30 2 C 0.7862 1.3188 0.0 0
M  V30 3 O 2.1937 1.2554 0.0 0
M  V30 4 C 0.0253 2.8024 0.0 0
M  V30 5 N 2.7517 -0.0253 0.0 0
M  V30 6 C 0.8242 4.1212 0.0 0
M  V30 7 C -1.5851 3.0687 0.0 0
M  V30 8 C 4.1593 -0.0887 0.0 0
M  V30 9 C 0.0634 5.6049 0.0 0
M  V30 10 C -2.3459 4.5524 0.0 0
M  V30 11 C 5.0469 1.1159 0.0 0
M  V30 12 C 4.8694 -1.2934 0.0 0
M  V30 13 C -1.547 5.8712 0.0 0
M  V30 14 C 6.3277 0.5579 0.0 0
M  V30 15 C 4.6158 2.701 0.0 0
M  V30 16 C 6.2516 -0.8622 0.0 0
M  V30 17 C 7.5324 1.3695 0.0 0
M  V30 18 C 3.0687 3.297 0.0 0
M  V30 19 C 8.737 0.6594 0.0 0
M  V30 20 C 2.6376 4.8821 0.0 0
M  V30 21 O 9.9417 1.4709 0.0 0
M  V30 22 C 8.6356 -0.7608 0.0 0
M  V30 23 C 1.0905 5.4781 0.0 0
M  V30 24 C 11.1464 0.7608 0.0 0
M  V30 25 C 0.6594 7.0632 0.0 0
M  V30 26 C 12.3511 1.5724 0.0 0
M  V30 27 C 13.5557 0.8622 0.0 0
M  V30 28 C 14.7604 1.6738 0.0 0
M  V30 29 C 13.4543 -0.5579 0.0 0
M  V30 30 C 15.9651 0.9637 0.0 0
M  V30 31 C 17.1698 1.7879 0.0 0
M  V30 32 C 18.3745 1.0778 0.0 0
M  V30 33 C 19.5791 1.9021 0.0 0
M  V30 34 C 18.273 -0.3423 0.0 0
M  V30 END ATOM
M  V30 BEGIN BOND
M  V30 1 2 1 2
M  V30 2 1 2 3
M  V30 3 1 2 4
M  V30 4 1 3 5
M  V30 5 2 4 6
M  V30 6 1 4 7
M  V30 7 2 5 8
M  V30 8 1 6 9
M  V30 9 2 7 10
M  V30 10 1 8 11
M  V30 11 1 8 12
M  V30 12 2 9 13
M  V30 13 1 11 14
M  V30 14 1 11 15
M  V30 15 1 12 16
M  V30 16 1 14 17
M  V30 17 1 15 18
M  V30 18 1 17 19
M  V30 19 1 18 20
M  V30 20 1 19 21
M  V30 21 2 19 22
M  V30 22 1 20 23
M  V30 23 1 21 24
M  V30 24 1 23 25
M  V30 25 1 24 26
M  V30 26 2 26 27
M  V30 27 1 27 28
M  V30 28 1 27 29
M  V30 29 1 28 30
M  V30 30 1 30 31
M  V30 31 2 31 32
M  V30 32 1 32 33
M  V30 33 1 32 34
M  V30 34 1 10 13
M  V30 35 1 14 16
M  V30 END BOND
M  V30 END CTAB
M  END
>  <Molecule Name>


>  <Database>
No information

>  <Reference DOI>
10.1021/acs.jafc.2c04126

>  <Molecular Target>
Acyrthosiphon pisum

>  <PubChem CID>


>  <Smiles>
CCCCCC(C(CC(OC/C=C(\C)/CCC=C(C)C)=C)CC1)/C\1=N\OC(c1ccccc1)=O

>  <Molecular Formula>
C30H43NO3

>  <Activity>
1

$$$$
Compound 48
Actelion Java MolfileCreator 2.0

  0  0  0  0  0  0              0 V3000
M  V30 BEGIN CTAB
M  V30 COUNTS 15 14 0 0 0
M  V30 BEGIN ATOM
M  V30 1 O 0.0 0.0 0.0 0
M  V30 2 C -0.0886 -1.407 0.0 0
M  V30 3 O 1.1301 -2.0275 0.0 0
M  V30 4 C -1.4846 -2.0275 0.0 0
M  V30 5 C 2.3488 -1.1522 0.0 0
M  V30 6 C -2.8806 -1.1522 0.0 0
M  V30 7 C 3.5675 -1.7727 0.0 0
M  V30 8 N -4.2766 -1.7727 0.0 0
M  V30 9 C -4.3652 -3.1797 0.0 0
M  V30 10 C -5.6726 -0.8974 0.0 0
M  V30 11 O -5.7613 -3.7891 0.0 0
M  V30 12 C -3.1465 -3.8002 0.0 0
M  V30 13 C -7.0686 -1.5178 0.0 0
M  V30 14 C -8.4646 -0.6426 0.0 0
M  V30 15 C -9.8606 -1.263 0.0 0
M  V30 END ATOM
M  V30 BEGIN BOND
M  V30 1 2 1 2
M  V30 2 1 2 3
M  V30 3 1 2 4
M  V30 4 1 3 5
M  V30 5 1 4 6
M  V30 6 1 5 7
M  V30 7 1 6 8
M  V30 8 1 8 9
M  V30 9 1 8 10
M  V30 10 2 9 11
M  V30 11 1 9 12
M  V30 12 1 10 13
M  V30 13 1 13 14
M  V30 14 1 14 15
M  V30 END BOND
M  V30 END CTAB
M  END
>  <Molecule Name>
Ethyl butylacetylaminopropionate (IR3535)

>  <Database>
Pubchem

>  <Reference DOI>
10.1371/journal.pntd.0003326
10.1016/j.cub.2019.09.007

>  <Molecular Target>
An. dirus sl, An. minimus sl, An. maculatus sl, Anopheles barbirostris sl, Ae. aegypti e Ae. albopictus

>  <PubChem CID>
104150

>  <Smiles>
CCCCN(CCC(OCC)=O)C(C)=O

>  <Molecular Formula>
C11H21NO3

>  <Activity>
1

$$$$
Compound 49
Actelion Java MolfileCreator 2.0

  0  0  0  0  0  0              0 V3000
M  V30 BEGIN CTAB
M  V30 COUNTS 16 15 0 0 0
M  V30 BEGIN ATOM
M  V30 1 O 0.0 0.0 0.0 0
M  V30 2 C -0.024 1.5294 0.0 0
M  V30 3 O 1.2524 2.2881 0.0 0
M  V30 4 C -1.3488 2.2881 0.0 0
M  V30 5 C 2.529 1.5415 0.0 0
M  V30 6 C -2.6735 1.5415 0.0 0
M  V30 7 C 3.8055 2.3122 0.0 0
M  V30 8 N 5.0821 1.5655 0.0 0
M  V30 9 C 6.3587 2.3363 0.0 0
M  V30 10 C 5.058 0.0843 0.0 0
M  V30 11 O 6.3346 3.8658 0.0 0
M  V30 12 C 7.6352 1.5896 0.0 0
M  V30 13 C 3.7333 -0.6623 0.0 0
M  V30 14 C 8.9118 2.3483 0.0 0
M  V30 15 C 3.7092 -2.1436 0.0 0
M  V30 16 C 2.3845 -2.8903 0.0 0
M  V30 END ATOM
M  V30 BEGIN BOND
M  V30 1 2 1 2
M  V30 2 1 2 3
M  V30 3 1 2 4
M  V30 4 1 3 5
M  V30 5 1 4 6
M  V30 6 1 5 7
M  V30 7 1 7 8
M  V30 8 1 8 9
M  V30 9 1 8 10
M  V30 10 2 9 11
M  V30 11 1 9 12
M  V30 12 1 10 13
M  V30 13 1 12 14
M  V30 14 1 13 15
M  V30 15 1 15 16
M  V30 END BOND
M  V30 END CTAB
M  END
>  <Molecule Name>
CCCCN(CCOC(CC)=O)C(CC)=O

>  <Database>
Pubchem

>  <Reference DOI>
10.1371/annotation/1dc83f26-8045-4b63-8a86-24c7b71a7f79

>  <Molecular Target>
Aedes aegypti

>  <PubChem CID>
245384

>  <Smiles>
CCCCN(CCOC(CC)=O)C(CC)=O

>  <Molecular Formula>
C12H23NO3

>  <Activity>
1

$$$$
Compound 50
Actelion Java MolfileCreator 2.0

  0  0  0  0  0  0              0 V3000
M  V30 BEGIN CTAB
M  V30 COUNTS 16 15 0 0 0
M  V30 BEGIN ATOM
M  V30 1 O 0.0 0.0 0.0 0
M  V30 2 C -0.0232 -1.4733 0.0 0
M  V30 3 O 1.2529 -2.2042 0.0 0
M  V30 4 C -1.3457 -2.2042 0.0 0
M  V30 5 C 2.5291 -1.4269 0.0 0
M  V30 6 C -2.6683 -1.4269 0.0 0
M  V30 7 C 3.8052 -2.1462 0.0 0
M  V30 8 C -3.9909 -2.1462 0.0 0
M  V30 9 C 5.0814 -1.3689 0.0 0
M  V30 10 O -4.0141 -3.6196 0.0 0
M  V30 11 O -5.3134 -1.3689 0.0 0
M  V30 12 C 6.3576 -2.0882 0.0 0
M  V30 13 C -6.636 -2.0882 0.0 0
M  V30 14 C -7.9586 -1.3109 0.0 0
M  V30 15 C -9.2811 -2.0302 0.0 0
M  V30 16 C -10.6037 -1.2529 0.0 0
M  V30 END ATOM
M  V30 BEGIN BOND
M  V30 1 2 1 2
M  V30 2 1 2 3
M  V30 3 1 2 4
M  V30 4 1 3 5
M  V30 5 2 4 6
M  V30 6 1 5 7
M  V30 7 1 6 8
M  V30 8 1 7 9
M  V30 9 2 8 10
M  V30 10 1 8 11
M  V30 11 1 9 12
M  V30 12 1 11 13
M  V30 13 1 13 14
M  V30 14 1 14 15
M  V30 15 1 15 16
M  V30 END BOND
M  V30 END CTAB
M  END
>  <Molecule Name>
Dibutyl fumarate

>  <Database>
Pubchem

>  <Reference DOI>
10.1186/s13071-017-2122-8

>  <Molecular Target>
Anopheles spp.

>  <PubChem CID>
5271570

>  <Smiles>
CCCCOC(/C=C/C(OCCCC)=O)=O

>  <Molecular Formula>
C12H20O4

>  <Activity>
1

$$$$
Compound 51
Actelion Java MolfileCreator 2.0

  0  0  0  0  0  0              0 V3000
M  V30 BEGIN CTAB
M  V30 COUNTS 16 16 0 0 0
M  V30 BEGIN ATOM
M  V30 1 O 0.0 0.0 0.0 0
M  V30 2 C -1.3551 -0.6899 0.0 0
M  V30 3 C -2.7103 0.0862 0.0 0
M  V30 4 C -1.4537 -2.0573 0.0 0
M  V30 5 C -4.0654 -0.5913 0.0 0
M  V30 6 C -2.8088 -2.7472 0.0 0
M  V30 7 O -4.164 -1.9588 0.0 0
M  V30 8 C -5.4206 0.1971 0.0 0
M  V30 9 C -3.6096 -3.9053 0.0 0
M  V30 10 C -2.1189 -3.9053 0.0 0
M  V30 11 O -5.5192 1.7617 0.0 0
M  V30 12 O -6.7758 -0.4804 0.0 0
M  V30 13 C -8.1309 0.2956 0.0 0
M  V30 14 C -9.4861 -0.3942 0.0 0
M  V30 15 C -10.8413 0.3942 0.0 0
M  V30 16 C -12.1964 -0.2833 0.0 0
M  V30 END ATOM
M  V30 BEGIN BOND
M  V30 1 2 1 2
M  V30 2 1 2 3
M  V30 3 1 2 4
M  V30 4 2 3 5
M  V30 5 1 4 6
M  V30 6 1 5 7
M  V30 7 1 5 8
M  V30 8 1 6 9
M  V30 9 1 6 10
M  V30 10 2 8 11
M  V30 11 1 8 12
M  V30 12 1 12 13
M  V30 13 1 13 14
M  V30 14 1 14 15
M  V30 15 1 15 16
M  V30 16 1 6 7
M  V30 END BOND
M  V30 END CTAB
M  END
>  <Molecule Name>
Indalone

>  <Database>
Pubchem

>  <Reference DOI>
10.1111/j.1365-2915.2003.00453.x.

>  <Molecular Target>
Acari: Ixodidae

>  <PubChem CID>
10760

>  <Smiles>
CCCCOC(C(OC(C)(C)C1)=CC1=O)=O

>  <Molecular Formula>
C12H18O4

>  <Activity>
1

$$$$
Compound 52
Actelion Java MolfileCreator 2.0

  0  0  0  0  0  0              0 V3000
M  V30 BEGIN CTAB
M  V30 COUNTS 14 14 0 0 0
M  V30 BEGIN ATOM
M  V30 1 O 0.0 0.0 0.0 0
M  V30 2 C -0.0239 -1.4749 0.0 0
M  V30 3 O -1.343 -2.2183 0.0 0
M  V30 4 C 1.247 -2.2183 0.0 0
M  V30 5 C -2.662 -1.4509 0.0 0
M  V30 6 N 2.5181 -1.4509 0.0 0
M  V30 7 C -3.981 -2.1943 0.0 0
M  V30 8 C 3.7892 -2.1943 0.0 0
M  V30 9 C 2.4941 0.0719 0.0 0
M  V30 10 C -5.3001 -1.4269 0.0 0
M  V30 11 C 5.0602 -1.4269 0.0 0
M  V30 12 C 3.7652 0.8513 0.0 0
M  V30 13 C -6.6191 -2.1704 0.0 0
M  V30 14 O 5.0363 0.0959 0.0 0
M  V30 END ATOM
M  V30 BEGIN BOND
M  V30 1 2 1 2
M  V30 2 1 2 3
M  V30 3 1 2 4
M  V30 4 1 3 5
M  V30 5 1 4 6
M  V30 6 1 5 7
M  V30 7 1 6 8
M  V30 8 1 6 9
M  V30 9 1 7 10
M  V30 10 1 8 11
M  V30 11 1 9 12
M  V30 12 1 10 13
M  V30 13 1 11 14
M  V30 14 1 12 14
M  V30 END BOND
M  V30 END CTAB
M  END
>  <Molecule Name>
4-Morpholineacetic acid, butyl ester

>  <Database>
PubChem

>  <Reference DOI>
10.3390/toxics11100837

>  <Molecular Target>
Aedes aegypti

>  <PubChem CID>
59204117

>  <Smiles>
CCCCOC(CN1CCOCC1)=O

>  <Molecular Formula>
C10H19NO3

>  <Activity>
1

$$$$
Compound 53
Actelion Java MolfileCreator 2.0

  0  0  0  0  0  0              0 V3000
M  V30 BEGIN CTAB
M  V30 COUNTS 16 16 0 0 0
M  V30 BEGIN ATOM
M  V30 1 O 0.0 0.0 0.0 0
M  V30 2 C -1.3156 -0.727 0.0 0
M  V30 3 O -2.6312 0.0577 0.0 0
M  V30 4 C -1.3387 -2.1927 0.0 0
M  V30 5 C -3.9468 -0.6578 0.0 0
M  V30 6 O -0.0346 -1.5002 0.0 0
M  V30 7 C -2.5735 -3.0582 0.0 0
M  V30 8 C -0.15 -3.0582 0.0 0
M  V30 9 C -5.2625 0.1269 0.0 0
M  V30 10 C -2.1465 -4.4546 0.0 0
M  V30 11 C -0.6231 -4.4546 0.0 0
M  V30 12 O -6.5781 -0.5885 0.0 0
M  V30 13 C -7.8937 0.1961 0.0 0
M  V30 14 C -9.2094 -0.5193 0.0 0
M  V30 15 C -10.525 0.2654 0.0 0
M  V30 16 C -11.8406 -0.45 0.0 0
M  V30 END ATOM
M  V30 BEGIN BOND
M  V30 1 2 1 2
M  V30 2 1 2 3
M  V30 3 1 2 4
M  V30 4 1 3 5
M  V30 5 1 4 6
M  V30 6 1 4 7
M  V30 7 1 4 8
M  V30 8 1 5 9
M  V30 9 1 7 10
M  V30 10 1 8 11
M  V30 11 1 9 12
M  V30 12 1 12 13
M  V30 13 1 13 14
M  V30 14 1 14 15
M  V30 15 1 15 16
M  V30 16 1 10 11
M  V30 END BOND
M  V30 END CTAB
M  END
>  <Molecule Name>
1-Hydroxycyclopentanecarboxylic acid, 2-butoxyethyl ester

>  <Database>
PubChem

>  <Reference DOI>
10.3390/toxics11100837

>  <Molecular Target>
Aedes aegypti

>  <PubChem CID>
245377

>  <Smiles>
CCCCOCCOC(C1(CCCC1)O)=O

>  <Molecular Formula>
C12H22O4

>  <Activity>
1

$$$$
Compound 54
Actelion Java MolfileCreator 2.0

  0  0  0  0  0  0              0 V3000
M  V30 BEGIN CTAB
M  V30 COUNTS 17 17 0 0 0
M  V30 BEGIN ATOM
M  V30 1 O 0.0 0.0 0.0 0
M  V30 2 C -1.3227 -0.7077 0.0 0
M  V30 3 O -2.6454 0.058 0.0 0
M  V30 4 C -1.3459 -2.1813 0.0 0
M  V30 5 C -3.9681 -0.6497 0.0 0
M  V30 6 O -2.6686 -1.4039 0.0 0
M  V30 7 C -2.6686 -2.9006 0.0 0
M  V30 8 C -0.0696 -2.889 0.0 0
M  V30 9 C -5.2908 0.116 0.0 0
M  V30 10 C -2.6918 -4.3742 0.0 0
M  V30 11 C -0.0928 -4.3626 0.0 0
M  V30 12 O -6.6135 -0.5917 0.0 0
M  V30 13 C -1.4155 -5.0819 0.0 0
M  V30 14 C -7.9362 0.174 0.0 0
M  V30 15 C -9.2589 -0.5337 0.0 0
M  V30 16 C -10.5816 0.232 0.0 0
M  V30 17 C -11.9044 -0.4757 0.0 0
M  V30 END ATOM
M  V30 BEGIN BOND
M  V30 1 2 1 2
M  V30 2 1 2 3
M  V30 3 1 2 4
M  V30 4 1 3 5
M  V30 5 1 4 6
M  V30 6 1 4 7
M  V30 7 1 4 8
M  V30 8 1 5 9
M  V30 9 1 7 10
M  V30 10 1 8 11
M  V30 11 1 9 12
M  V30 12 1 10 13
M  V30 13 1 12 14
M  V30 14 1 14 15
M  V30 15 1 15 16
M  V30 16 1 16 17
M  V30 17 1 11 13
M  V30 END BOND
M  V30 END CTAB
M  END
>  <Molecule Name>
1-Hydroxycyclohexanecarboxylic acid, 2-butoxyethyl ester

>  <Database>
Pubchem

>  <Reference DOI>
10.3390/toxics11100837

>  <Molecular Target>
Aedes aegypti

>  <PubChem CID>
248371

>  <Smiles>
CCCCOCCOC(C1(CCCCC1)O)=O

>  <Molecular Formula>
C13H24O4

>  <Activity>
1

$$$$
Compound 55
Actelion Java MolfileCreator 2.0

  0  0  0  0  0  0              0 V3000
M  V30 BEGIN CTAB
M  V30 COUNTS 18 17 0 0 0
M  V30 BEGIN ATOM
M  V30 1 O 0.0 0.0 0.0 0
M  V30 2 C -0.024 1.5278 0.0 0
M  V30 3 O -1.3474 2.2978 0.0 0
M  V30 4 C 1.2511 2.2978 0.0 0
M  V30 5 C -2.6707 1.5519 0.0 0 CFG=2
M  V30 6 C 2.5263 1.5519 0.0 0
M  V30 7 C -3.9941 2.3218 0.0 0
M  V30 8 C -2.6948 0.0721 0.0 0
M  V30 9 C 3.8016 2.3218 0.0 0
M  V30 10 C -5.3174 1.5759 0.0 0
M  V30 11 O 3.7775 3.8497 0.0 0
M  V30 12 N 5.0768 1.5759 0.0 0
M  V30 13 C 6.352 2.3459 0.0 0
M  V30 14 C 5.0527 0.0962 0.0 0
M  V30 15 C 7.6273 1.6 0.0 0
M  V30 16 C 3.7294 -0.6376 0.0 0
M  V30 17 C 8.9025 2.37 0.0 0
M  V30 18 C 3.7053 -2.1173 0.0 0
M  V30 END ATOM
M  V30 BEGIN BOND
M  V30 1 2 1 2
M  V30 2 1 2 3
M  V30 3 1 2 4
M  V30 4 1 3 5
M  V30 5 1 4 6
M  V30 6 1 5 7
M  V30 7 1 5 8 CFG=1
M  V30 8 1 6 9
M  V30 9 1 7 10
M  V30 10 2 9 11
M  V30 11 1 9 12
M  V30 12 1 12 13
M  V30 13 1 12 14
M  V30 14 1 13 15
M  V30 15 1 14 16
M  V30 16 1 15 17
M  V30 17 1 16 18
M  V30 END BOND
M  V30 BEGIN COLLECTION
M  V30 MDLV30/STERAC1 ATOMS=(1 5)
M  V30 END COLLECTION
M  V30 END CTAB
M  END
>  <Molecule Name>
N,N-Dipropylsuccinamic acid, sec-butyl ester

>  <Database>
Pubchem

>  <Reference DOI>
10.3390/toxics11100837

>  <Molecular Target>
Aedes aegypti

>  <PubChem CID>
245414

>  <Smiles>
CCCN(CCC)C(CCC(OC(C)CC)=O)=O

>  <Molecular Formula>
C14H27NO3

>  <Activity>
1

$$$$
Compound 56
Actelion Java MolfileCreator 2.0

  0  0  0  0  0  0              0 V3000
M  V30 BEGIN CTAB
M  V30 COUNTS 16 15 0 0 0
M  V30 BEGIN ATOM
M  V30 1 O 0.0 0.0 0.0 0
M  V30 2 C -0.0241 -1.4832 0.0 0
M  V30 3 O -1.3505 -2.2308 0.0 0
M  V30 4 C 1.2541 -2.2308 0.0 0
M  V30 5 C -2.677 -1.4591 0.0 0
M  V30 6 C 2.5323 -1.4591 0.0 0
M  V30 7 C -4.0035 -2.2067 0.0 0
M  V30 8 C 3.8106 -2.2067 0.0 0
M  V30 9 O 3.7864 -3.69 0.0 0
M  V30 10 N 5.0888 -1.435 0.0 0
M  V30 11 C 6.367 -2.1826 0.0 0
M  V30 12 C 5.0647 0.0964 0.0 0
M  V30 13 C 7.6453 -1.4229 0.0 0
M  V30 14 C 6.3429 0.8682 0.0 0
M  V30 15 C 8.9235 -2.1705 0.0 0
M  V30 16 C 6.3188 2.3997 0.0 0
M  V30 END ATOM
M  V30 BEGIN BOND
M  V30 1 2 1 2
M  V30 2 1 2 3
M  V30 3 1 2 4
M  V30 4 1 3 5
M  V30 5 1 4 6
M  V30 6 1 5 7
M  V30 7 1 6 8
M  V30 8 2 8 9
M  V30 9 1 8 10
M  V30 10 1 10 11
M  V30 11 1 10 12
M  V30 12 1 11 13
M  V30 13 1 12 14
M  V30 14 1 13 15
M  V30 15 1 14 16
M  V30 END BOND
M  V30 END CTAB
M  END
>  <Molecule Name>
N,N-Dipropylsuccinamic acid, ethyl ester

>  <Database>
Pubchem

>  <Reference DOI>
10.3390/toxics11100837

>  <Molecular Target>
Aedes aegypti

>  <PubChem CID>
82404

>  <Smiles>
CCCN(CCC)C(CCC(OCC)=O)=O

>  <Molecular Formula>
C12H23NO3

>  <Activity>
1

$$$$
Compound 57
Actelion Java MolfileCreator 2.0

  0  0  0  0  0  0              0 V3000
M  V30 BEGIN CTAB
M  V30 COUNTS 17 16 0 0 0
M  V30 BEGIN ATOM
M  V30 1 O 0.0 0.0 0.0 0
M  V30 2 C -0.024 1.5289 0.0 0
M  V30 3 O -1.3483 2.2873 0.0 0
M  V30 4 C 1.252 2.2873 0.0 0
M  V30 5 C -2.6726 1.5409 0.0 0
M  V30 6 C 2.5281 1.5409 0.0 0
M  V30 7 C -3.9968 2.2994 0.0 0
M  V30 8 C 3.8042 2.2994 0.0 0
M  V30 9 C -5.3211 1.553 0.0 0
M  V30 10 O 3.7801 3.8283 0.0 0
M  V30 11 N 5.0803 1.553 0.0 0
M  V30 12 C 6.3565 2.3114 0.0 0
M  V30 13 C 5.0563 0.0722 0.0 0
M  V30 14 C 7.6326 1.565 0.0 0
M  V30 15 C 3.732 -0.6621 0.0 0
M  V30 16 C 8.9087 2.3234 0.0 0
M  V30 17 C 3.7079 -2.1429 0.0 0
M  V30 END ATOM
M  V30 BEGIN BOND
M  V30 1 2 1 2
M  V30 2 1 2 3
M  V30 3 1 2 4
M  V30 4 1 3 5
M  V30 5 1 4 6
M  V30 6 1 5 7
M  V30 7 1 6 8
M  V30 8 1 7 9
M  V30 9 2 8 10
M  V30 10 1 8 11
M  V30 11 1 11 12
M  V30 12 1 11 13
M  V30 13 1 12 14
M  V30 14 1 13 15
M  V30 15 1 14 16
M  V30 16 1 15 17
M  V30 END BOND
M  V30 END CTAB
M  END
>  <Molecule Name>
N,N-Di-n-propylsuccinamic acid, n-propyl ester

>  <Database>
Pubchem

>  <Reference DOI>
10.3390/toxics11100837

>  <Molecular Target>
Aedes aegypti

>  <PubChem CID>
245404

>  <Smiles>
CCCN(CCC)C(CCC(OCCC)=O)=O

>  <Molecular Formula>
C13H25NO3

>  <Activity>
1

$$$$
Compound 58
Actelion Java MolfileCreator 2.0

  0  0  0  0  0  0              0 V3000
M  V30 BEGIN CTAB
M  V30 COUNTS 17 16 0 0 0
M  V30 BEGIN ATOM
M  V30 1 O 0.0 0.0 0.0 0
M  V30 2 C -0.0241 -1.4848 0.0 0
M  V30 3 O -1.352 -2.2332 0.0 0
M  V30 4 C 1.2554 -2.2332 0.0 0
M  V30 5 C -2.6799 -1.4606 0.0 0
M  V30 6 C 2.535 -1.4606 0.0 0
M  V30 7 C -4.0078 -2.2091 0.0 0
M  V30 8 C 3.8146 -2.2091 0.0 0
M  V30 9 C 5.0942 -1.4486 0.0 0
M  V30 10 O 5.0701 0.0845 0.0 0
M  V30 11 N 6.3738 -2.197 0.0 0
M  V30 12 C 7.6534 -1.4244 0.0 0
M  V30 13 C 6.3497 -3.6818 0.0 0
M  V30 14 C 8.933 -2.1729 0.0 0
M  V30 15 C 5.0218 -4.4303 0.0 0
M  V30 16 C 10.2126 -1.4003 0.0 0
M  V30 17 C 4.9976 -5.9151 0.0 0
M  V30 END ATOM
M  V30 BEGIN BOND
M  V30 1 2 1 2
M  V30 2 1 2 3
M  V30 3 1 2 4
M  V30 4 1 3 5
M  V30 5 1 4 6
M  V30 6 1 5 7
M  V30 7 1 6 8
M  V30 8 1 8 9
M  V30 9 2 9 10
M  V30 10 1 9 11
M  V30 11 1 11 12
M  V30 12 1 11 13
M  V30 13 1 12 14
M  V30 14 1 13 15
M  V30 15 1 14 16
M  V30 16 1 15 17
M  V30 END BOND
M  V30 END CTAB
M  END
>  <Molecule Name>
N,N-Dipropylglutaramic acid, ethyl ester

>  <Database>
Pubchem

>  <Reference DOI>
10.3390/toxics11100837

>  <Molecular Target>
Aedes aegypti

>  <PubChem CID>
245403

>  <Smiles>
CCCN(CCC)C(CCCC(OCC)=O)=O

>  <Molecular Formula>
C13H25NO3

>  <Activity>
1

$$$$
Compound 59
Actelion Java MolfileCreator 2.0

  0  0  0  0  0  0              0 V3000
M  V30 BEGIN CTAB
M  V30 COUNTS 17 16 0 0 0
M  V30 BEGIN ATOM
M  V30 1 O 0.0 0.0 0.0 0
M  V30 2 C -0.024 1.5285 0.0 0
M  V30 3 O -1.3479 2.2867 0.0 0
M  V30 4 C 1.2516 2.2867 0.0 0
M  V30 5 C -2.6718 1.5525 0.0 0
M  V30 6 C 2.5274 1.5525 0.0 0
M  V30 7 C -3.9958 2.3108 0.0 0
M  V30 8 C 3.8032 2.3108 0.0 0
M  V30 9 C -5.3197 1.5766 0.0 0
M  V30 10 O 3.7791 3.8393 0.0 0
M  V30 11 N 5.079 1.5766 0.0 0
M  V30 12 C 6.3547 2.3469 0.0 0
M  V30 13 C 5.0549 0.0962 0.0 0
M  V30 14 C 7.6305 1.6127 0.0 0
M  V30 15 C 6.3307 3.8754 0.0 0
M  V30 16 C 3.731 -0.6258 0.0 0
M  V30 17 C 6.3307 -0.6378 0.0 0
M  V30 END ATOM
M  V30 BEGIN BOND
M  V30 1 2 1 2
M  V30 2 1 2 3
M  V30 3 1 2 4
M  V30 4 1 3 5
M  V30 5 1 4 6
M  V30 6 1 5 7
M  V30 7 1 6 8
M  V30 8 1 7 9
M  V30 9 2 8 10
M  V30 10 1 8 11
M  V30 11 1 11 12
M  V30 12 1 11 13
M  V30 13 1 12 14
M  V30 14 1 12 15
M  V30 15 1 13 16
M  V30 16 1 13 17
M  V30 END BOND
M  V30 END CTAB
M  END
>  <Molecule Name>
N,N-Di-iso-propyl succinamic acid, propyl ester

>  <Database>
Pubchem

>  <Reference DOI>
10.3390/toxics11100837

>  <Molecular Target>
Aedes aegypti

>  <PubChem CID>
249228

>  <Smiles>
CCCOC(CCC(N(C(C)C)C(C)C)=O)=O

>  <Molecular Formula>
C13H25NO3

>  <Activity>
1

$$$$
Compound 60
Actelion Java MolfileCreator 2.0

  0  0  0  0  0  0              0 V3000
M  V30 BEGIN CTAB
M  V30 COUNTS 15 14 0 0 0
M  V30 BEGIN ATOM
M  V30 1 O 0.0 0.0 0.0 0
M  V30 2 C -0.024 1.5289 0.0 0
M  V30 3 O -1.3483 2.2994 0.0 0
M  V30 4 C 1.252 2.2994 0.0 0
M  V30 5 C -2.6727 1.565 0.0 0
M  V30 6 C 2.5282 1.565 0.0 0
M  V30 7 C -3.997 2.3356 0.0 0
M  V30 8 C 3.8043 2.3356 0.0 0
M  V30 9 C -5.3213 1.6012 0.0 0
M  V30 10 O 3.7803 3.8645 0.0 0
M  V30 11 N 5.0805 1.6012 0.0 0
M  V30 12 C 6.3566 2.3717 0.0 0
M  V30 13 C 5.0564 0.1203 0.0 0
M  V30 14 C 7.6328 1.6373 0.0 0
M  V30 15 C 6.3326 -0.626 0.0 0
M  V30 END ATOM
M  V30 BEGIN BOND
M  V30 1 2 1 2
M  V30 2 1 2 3
M  V30 3 1 2 4
M  V30 4 1 3 5
M  V30 5 1 4 6
M  V30 6 1 5 7
M  V30 7 1 6 8
M  V30 8 1 7 9
M  V30 9 2 8 10
M  V30 10 1 8 11
M  V30 11 1 11 12
M  V30 12 1 11 13
M  V30 13 1 12 14
M  V30 14 1 13 15
M  V30 END BOND
M  V30 END CTAB
M  END
>  <Molecule Name>
N,N-Diethylsuccinamic acid, n-propyl ester

>  <Database>
PubChem

>  <Reference DOI>
10.3390/toxics11100837

>  <Molecular Target>
Aedes aegypti

>  <PubChem CID>
79913

>  <Smiles>
CCCOC(CCC(N(CC)CC)=O)=O

>  <Molecular Formula>
C11H21NO3

>  <Activity>
1

$$$$
Compound 61
Actelion Java MolfileCreator 2.0

  0  0  0  0  0  0              0 V3000
M  V30 BEGIN CTAB
M  V30 COUNTS 27 28 0 0 0
M  V30 BEGIN ATOM
M  V30 1 O 0.0 0.0 0.0 0
M  V30 2 C -1.4206 0.8136 0.0 0
M  V30 3 O -2.8413 0.1937 0.0 0
M  V30 4 C -1.6273 2.4539 0.0 0
M  V30 5 C -4.262 1.0203 0.0 0
M  V30 6 N -0.7103 3.4225 0.0 0
M  V30 7 C -2.9576 3.4225 0.0 0
M  V30 8 C -5.6827 0.4003 0.0 0
M  V30 9 N -1.4206 4.9853 0.0 0
M  V30 10 C 0.4391 3.1255 0.0 0
M  V30 11 C -2.6605 4.9853 0.0 0
M  V30 12 C -7.1034 1.2269 0.0 0
M  V30 13 C 0.5682 1.9373 0.0 0
M  V30 14 C 1.2527 4.2233 0.0 0
M  V30 15 C -3.6292 6.3156 0.0 0
M  V30 16 C -8.5241 0.607 0.0 0
M  V30 17 C -7.3101 2.8672 0.0 0
M  V30 18 C 1.7177 1.6402 0.0 0
M  V30 19 C 2.4022 3.9262 0.0 0
M  V30 20 C -3.1642 7.8138 0.0 0
M  V30 21 C -9.9448 1.4336 0.0 0
M  V30 22 C 2.5314 2.738 0.0 0
M  V30 23 C -4.1329 9.1441 0.0 0
M  V30 24 C -11.3655 0.8136 0.0 0
M  V30 25 C -12.7862 1.6531 0.0 0
M  V30 26 C -14.2069 1.0332 0.0 0
M  V30 27 C -12.9929 3.2934 0.0 0
M  V30 END ATOM
M  V30 BEGIN BOND
M  V30 1 2 1 2
M  V30 2 1 2 3
M  V30 3 1 2 4
M  V30 4 1 3 5
M  V30 5 1 4 6
M  V30 6 2 4 7
M  V30 7 1 5 8
M  V30 8 1 6 9
M  V30 9 1 6 10
M  V30 10 1 7 11
M  V30 11 2 8 12
M  V30 12 2 10 13
M  V30 13 1 10 14
M  V30 14 1 11 15
M  V30 15 1 12 16
M  V30 16 1 12 17
M  V30 17 1 13 18
M  V30 18 2 14 19
M  V30 19 1 15 20
M  V30 20 1 16 21
M  V30 21 2 18 22
M  V30 22 1 20 23
M  V30 23 1 21 24
M  V30 24 2 24 25
M  V30 25 1 25 26
M  V30 26 1 25 27
M  V30 27 2 9 11
M  V30 28 1 19 22
M  V30 END BOND
M  V30 END CTAB
M  END
>  <Molecule Name>
[(2E)-3,7-dimethylocta-2,6-dienyl] 2-phenyl-5-propylpyrazole-3-carboxylate

>  <Database>
Pubchem

>  <Reference DOI>
10.1021/jf104712c

>  <Molecular Target>
Acyrthosiphon pisum

>  <PubChem CID>
52921550

>  <Smiles>
CCCc(cc1C(OC/C=C(\C)/CCC=C(C)C)=O)n[n]1-c1ccccc1

>  <Molecular Formula>
C23H30N2O2

>  <Activity>
1

$$$$
Compound 62
Actelion Java MolfileCreator 2.0

  0  0  0  0  0  0              0 V3000
M  V30 BEGIN CTAB
M  V30 COUNTS 25 25 0 0 0
M  V30 BEGIN ATOM
M  V30 1 O 0.0 0.0 0.0 0
M  V30 2 C 0.1057 1.6392 0.0 0
M  V30 3 O -1.1369 2.7629 0.0 0
M  V30 4 C 1.2294 2.3927 0.0 0
M  V30 5 C -2.7365 2.4853 0.0 0
M  V30 6 N 2.1151 1.7053 0.0 0
M  V30 7 C 1.507 3.9923 0.0 0
M  V30 8 C -3.9791 3.609 0.0 0
M  V30 9 N 3.0009 2.6968 0.0 0
M  V30 10 C 1.8772 0.5023 0.0 0
M  V30 11 C 2.71 4.2303 0.0 0
M  V30 12 C -5.5787 3.3313 0.0 0
M  V30 13 C 1.6392 -0.7006 0.0 0
M  V30 14 C 3.0802 0.7403 0.0 0
M  V30 15 C 0.1982 0.7403 0.0 0
M  V30 16 C 3.3842 5.5919 0.0 0
M  V30 17 C -6.8214 4.455 0.0 0
M  V30 18 C -6.1604 2.168 0.0 0
M  V30 19 C 2.5382 7.1254 0.0 0
M  V30 20 C -8.421 4.1774 0.0 0
M  V30 21 C 3.2256 8.4871 0.0 0
M  V30 22 C -9.6636 5.3011 0.0 0
M  V30 23 C -11.2632 5.0235 0.0 0
M  V30 24 C -12.5059 6.1472 0.0 0
M  V30 25 C -11.8449 3.8601 0.0 0
M  V30 END ATOM
M  V30 BEGIN BOND
M  V30 1 2 1 2
M  V30 2 1 2 3
M  V30 3 1 2 4
M  V30 4 1 3 5
M  V30 5 1 4 6
M  V30 6 2 4 7
M  V30 7 1 5 8
M  V30 8 1 6 9
M  V30 9 1 6 10
M  V30 10 1 7 11
M  V30 11 2 8 12
M  V30 12 1 10 13
M  V30 13 1 10 14
M  V30 14 1 10 15
M  V30 15 1 11 16
M  V30 16 1 12 17
M  V30 17 1 12 18
M  V30 18 1 16 19
M  V30 19 1 17 20
M  V30 20 1 19 21
M  V30 21 1 20 22
M  V30 22 2 22 23
M  V30 23 1 23 24
M  V30 24 1 23 25
M  V30 25 2 9 11
M  V30 END BOND
M  V30 END CTAB
M  END
>  <Molecule Name>
[(2E)-3,7-dimethylocta-2,6-dienyl] 2-tert-butyl-5-propyl-pyrazole-3-carboxylate

>  <Database>
Pubchem

>  <Reference DOI>
10.1021/jf104712c

>  <Molecular Target>
Acyrthosiphon pisum

>  <PubChem CID>
52921549

>  <Smiles>
CCCc1n[n](C(C)(C)C)c(C(OC/C=C(\C)/CCC=C(C)C)=O)c1

>  <Molecular Formula>
C21H34N2O2

>  <Activity>
1

$$$$
Compound 63
Actelion Java MolfileCreator 2.0

  0  0  0  0  0  0              0 V3000
M  V30 BEGIN CTAB
M  V30 COUNTS 14 13 0 0 0
M  V30 BEGIN ATOM
M  V30 1 O 0.0 0.0 0.0 0
M  V30 2 C -1.3227 0.7695 0.0 0
M  V30 3 O -2.6454 0.036 0.0 0
M  V30 4 C -1.3467 2.2966 0.0 0
M  V30 5 C -2.6694 -1.4429 0.0 0
M  V30 6 C -0.0721 3.0542 0.0 0
M  V30 7 C -3.9921 -2.1884 0.0 0
M  V30 8 C 1.2024 2.3207 0.0 0
M  V30 9 O 1.1784 0.8417 0.0 0
M  V30 10 N 2.477 3.0903 0.0 0
M  V30 11 C 3.7516 2.3568 0.0 0
M  V30 12 C 2.453 4.6174 0.0 0
M  V30 13 C 5.0262 3.1143 0.0 0
M  V30 14 C 1.1303 5.387 0.0 0
M  V30 END ATOM
M  V30 BEGIN BOND
M  V30 1 2 1 2
M  V30 2 1 2 3
M  V30 3 1 2 4
M  V30 4 1 3 5
M  V30 5 2 4 6
M  V30 6 1 5 7
M  V30 7 1 6 8
M  V30 8 2 8 9
M  V30 9 1 8 10
M  V30 10 1 10 11
M  V30 11 1 10 12
M  V30 12 1 11 13
M  V30 13 1 12 14
M  V30 END BOND
M  V30 END CTAB
M  END
>  <Molecule Name>
N,N-Diethylmaleamic acid, ethyl ester

>  <Database>
No information

>  <Reference DOI>
10.3390/toxics11100837

>  <Molecular Target>
Aedes aegypti

>  <PubChem CID>


>  <Smiles>
CCN(CC)C(/C=C\C(OCC)=O)=O

>  <Molecular Formula>
C10H17NO3

>  <Activity>
1

$$$$
Compound 64
Actelion Java MolfileCreator 2.0

  0  0  0  0  0  0              0 V3000
M  V30 BEGIN CTAB
M  V30 COUNTS 15 14 0 0 0
M  V30 BEGIN ATOM
M  V30 1 O 0.0 0.0 0.0 0
M  V30 2 C -0.024 -1.4806 0.0 0
M  V30 3 O -1.3482 -2.2149 0.0 0
M  V30 4 C 1.2519 -2.2149 0.0 0
M  V30 5 C -2.6723 -1.4445 0.0 0
M  V30 6 C 2.5279 -1.4445 0.0 0
M  V30 7 C -2.6964 0.0842 0.0 0
M  V30 8 C -3.9965 -2.1788 0.0 0
M  V30 9 C 3.8039 -2.1788 0.0 0
M  V30 10 O 3.7798 -3.6594 0.0 0
M  V30 11 N 5.0799 -1.4084 0.0 0
M  V30 12 C 6.3559 -2.1427 0.0 0
M  V30 13 C 5.0558 0.1203 0.0 0
M  V30 14 C 7.6319 -1.3722 0.0 0
M  V30 15 C 3.7316 0.8907 0.0 0
M  V30 END ATOM
M  V30 BEGIN BOND
M  V30 1 2 1 2
M  V30 2 1 2 3
M  V30 3 1 2 4
M  V30 4 1 3 5
M  V30 5 1 4 6
M  V30 6 1 5 7
M  V30 7 1 5 8
M  V30 8 1 6 9
M  V30 9 2 9 10
M  V30 10 1 9 11
M  V30 11 1 11 12
M  V30 12 1 11 13
M  V30 13 1 12 14
M  V30 14 1 13 15
M  V30 END BOND
M  V30 END CTAB
M  END
>  <Molecule Name>
N,N-Diethylsuccinamic acid, iso-propyl ester

>  <Database>
No information

>  <Reference DOI>
10.3390/toxics11100837

>  <Molecular Target>
Aedes aegypti

>  <PubChem CID>


>  <Smiles>
CCN(CC)C(CCC(OC(C)C)=O)=O

>  <Molecular Formula>
C11H21NO3

>  <Activity>
1

$$$$
Compound 65
Actelion Java MolfileCreator 2.0

  0  0  0  0  0  0              0 V3000
M  V30 BEGIN CTAB
M  V30 COUNTS 14 13 0 0 0
M  V30 BEGIN ATOM
M  V30 1 O 0.0 0.0 0.0 0
M  V30 2 C -0.0241 -1.4828 0.0 0
M  V30 3 O -1.3502 -2.2182 0.0 0
M  V30 4 C 1.2537 -2.2182 0.0 0
M  V30 5 C -2.6763 -1.4466 0.0 0
M  V30 6 C 2.5316 -1.4466 0.0 0
M  V30 7 C -4.0024 -2.182 0.0 0
M  V30 8 C 3.8095 -2.182 0.0 0
M  V30 9 O 3.7854 -3.6649 0.0 0
M  V30 10 N 5.0874 -1.4105 0.0 0
M  V30 11 C 6.3653 -2.1459 0.0 0
M  V30 12 C 5.0633 0.1205 0.0 0
M  V30 13 C 7.6432 -1.3743 0.0 0
M  V30 14 C 3.7372 0.8921 0.0 0
M  V30 END ATOM
M  V30 BEGIN BOND
M  V30 1 2 1 2
M  V30 2 1 2 3
M  V30 3 1 2 4
M  V30 4 1 3 5
M  V30 5 1 4 6
M  V30 6 1 5 7
M  V30 7 1 6 8
M  V30 8 2 8 9
M  V30 9 1 8 10
M  V30 10 1 10 11
M  V30 11 1 10 12
M  V30 12 1 11 13
M  V30 13 1 12 14
M  V30 END BOND
M  V30 END CTAB
M  END
>  <Molecule Name>
N,N-Diethylsuccinamic acid, ethyl ester

>  <Database>
PubChem

>  <Reference DOI>
10.3390/toxics11100837

>  <Molecular Target>
Aedes aegypti

>  <PubChem CID>
347845

>  <Smiles>
CCN(CC)C(CCC(OCC)=O)=O

>  <Molecular Formula>
C10H19NO3

>  <Activity>
1

$$$$
Compound 66
Actelion Java MolfileCreator 2.0

  0  0  0  0  0  0              0 V3000
M  V30 BEGIN CTAB
M  V30 COUNTS 14 13 0 0 0
M  V30 BEGIN ATOM
M  V30 1 O 0.0 0.0 0.0 0
M  V30 2 C -0.024 1.5296 0.0 0
M  V30 3 O -1.3489 2.3004 0.0 0
M  V30 4 C 1.2526 2.3004 0.0 0
M  V30 5 C -2.6738 1.5657 0.0 0
M  V30 6 C 2.5292 1.5657 0.0 0
M  V30 7 C 3.8059 2.3365 0.0 0
M  V30 8 C 5.0826 1.6018 0.0 0
M  V30 9 O 5.0585 0.1204 0.0 0
M  V30 10 N 6.3593 2.3606 0.0 0
M  V30 11 C 7.636 1.6259 0.0 0
M  V30 12 C 6.3352 3.8902 0.0 0
M  V30 13 C 8.9127 2.3968 0.0 0
M  V30 14 C 5.0104 4.6611 0.0 0
M  V30 END ATOM
M  V30 BEGIN BOND
M  V30 1 2 1 2
M  V30 2 1 2 3
M  V30 3 1 2 4
M  V30 4 1 3 5
M  V30 5 1 4 6
M  V30 6 1 6 7
M  V30 7 1 7 8
M  V30 8 2 8 9
M  V30 9 1 8 10
M  V30 10 1 10 11
M  V30 11 1 10 12
M  V30 12 1 11 13
M  V30 13 1 12 14
M  V30 END BOND
M  V30 END CTAB
M  END
>  <Molecule Name>
N,N-Diethylglutaramic acid, methyl ester

>  <Database>
PubChem

>  <Reference DOI>
10.3390/toxics11100837

>  <Molecular Target>
Aedes aegypti

>  <PubChem CID>
12618393

>  <Smiles>
CCN(CC)C(CCCC(OC)=O)=O

>  <Molecular Formula>
C10H19NO3

>  <Activity>
1

$$$$
Compound 67
Actelion Java MolfileCreator 2.0

  0  0  0  0  0  0              0 V3000
M  V30 BEGIN CTAB
M  V30 COUNTS 16 15 0 0 0
M  V30 BEGIN ATOM
M  V30 1 O 0.0 0.0 0.0 0
M  V30 2 C -0.0241 -1.485 0.0 0
M  V30 3 O -1.3522 -2.2214 0.0 0
M  V30 4 C 1.2556 -2.2214 0.0 0
M  V30 5 C -2.6802 -1.4487 0.0 0
M  V30 6 C 2.5353 -1.4487 0.0 0
M  V30 7 C -4.0083 -2.1852 0.0 0
M  V30 8 C 3.8151 -2.1852 0.0 0
M  V30 9 C 5.0949 -1.4125 0.0 0
M  V30 10 C 6.3746 -2.149 0.0 0
M  V30 11 O 6.3505 -3.634 0.0 0
M  V30 12 N 7.6544 -1.3763 0.0 0
M  V30 13 C 8.9342 -2.1128 0.0 0
M  V30 14 C 7.6302 0.1569 0.0 0
M  V30 15 C 10.2139 -1.3401 0.0 0
M  V30 16 C 6.3022 0.9296 0.0 0
M  V30 END ATOM
M  V30 BEGIN BOND
M  V30 1 2 1 2
M  V30 2 1 2 3
M  V30 3 1 2 4
M  V30 4 1 3 5
M  V30 5 1 4 6
M  V30 6 1 5 7
M  V30 7 1 6 8
M  V30 8 1 8 9
M  V30 9 1 9 10
M  V30 10 2 10 11
M  V30 11 1 10 12
M  V30 12 1 12 13
M  V30 13 1 12 14
M  V30 14 1 13 15
M  V30 15 1 14 16
M  V30 END BOND
M  V30 END CTAB
M  END
>  <Molecule Name>
N,N-Diethyladipamic acid, ethyl ester

>  <Database>
Pubchem

>  <Reference DOI>
10.3390/toxics11100837

>  <Molecular Target>
Aedes aegypti

>  <PubChem CID>
245385

>  <Smiles>
CCN(CC)C(CCCCC(OCC)=O)=O

>  <Molecular Formula>
C12H23NO3

>  <Activity>
1

$$$$
Compound 68
Actelion Java MolfileCreator 2.0

  0  0  0  0  0  0              0 V3000
M  V30 BEGIN CTAB
M  V30 COUNTS 14 14 0 0 0
M  V30 BEGIN ATOM
M  V30 1 O 0.0 0.0 0.0 0
M  V30 2 C 1.2767 -0.7347 0.0 0
M  V30 3 C 1.2526 -2.2163 0.0 0 CFG=2
M  V30 4 C 2.5535 0.0361 0.0 0
M  V30 5 C -0.0722 -2.9631 0.0 0
M  V30 6 C 2.5294 -2.951 0.0 0
M  V30 7 C 3.8303 -0.6986 0.0 0
M  V30 8 O -0.0963 -4.4446 0.0 0
M  V30 9 C -1.3972 -2.2042 0.0 0
M  V30 10 C 3.8062 -2.1801 0.0 0
M  V30 11 O -1.4213 -0.6745 0.0 0
M  V30 12 O -2.7222 -2.951 0.0 0
M  V30 13 C -4.0471 -2.1801 0.0 0
M  V30 14 C -5.3721 -2.9269 0.0 0
M  V30 END ATOM
M  V30 BEGIN BOND
M  V30 1 2 1 2
M  V30 2 1 2 3
M  V30 3 1 2 4
M  V30 4 1 3 5 CFG=1
M  V30 5 1 3 6
M  V30 6 1 4 7
M  V30 7 2 5 8
M  V30 8 1 5 9
M  V30 9 1 6 10
M  V30 10 2 9 11
M  V30 11 1 9 12
M  V30 12 1 12 13
M  V30 13 1 13 14
M  V30 14 1 7 10
M  V30 END BOND
M  V30 BEGIN COLLECTION
M  V30 MDLV30/STERAC1 ATOMS=(1 3)
M  V30 END COLLECTION
M  V30 END CTAB
M  END
>  <Molecule Name>
2-Ketocyclohexylglyoxalic acid, ethyl ester

>  <Database>
PubChem

>  <Reference DOI>
10.3390/toxics11100837

>  <Molecular Target>
Aedes aegypti

>  <PubChem CID>
219637

>  <Smiles>
CCOC(C(C(CCCC1)C1=O)=O)=O

>  <Molecular Formula>
C10H14O4

>  <Activity>
1

$$$$
Compound 69
Actelion Java MolfileCreator 2.0

  0  0  0  0  0  0              0 V3000
M  V30 BEGIN CTAB
M  V30 COUNTS 14 14 0 0 0
M  V30 BEGIN ATOM
M  V30 1 O 0.0 0.0 0.0 0
M  V30 2 C -0.0242 -1.4906 0.0 0
M  V30 3 C 1.2604 -2.2421 0.0 0
M  V30 4 C -1.3573 -2.2421 0.0 0
M  V30 5 C 1.2361 -3.7327 0.0 0
M  V30 6 C -1.3816 -3.7327 0.0 0
M  V30 7 O -0.0969 -4.4842 0.0 0
M  V30 8 C 2.5208 -4.4842 0.0 0
M  V30 9 C -2.9207 -3.7085 0.0 0
M  V30 10 C -2.1451 -5.0174 0.0 0
M  V30 11 O 2.4966 -5.9749 0.0 0
M  V30 12 O 3.8055 -3.7206 0.0 0
M  V30 13 C 5.0901 -4.472 0.0 0
M  V30 14 C 6.3748 -3.7085 0.0 0
M  V30 END ATOM
M  V30 BEGIN BOND
M  V30 1 2 1 2
M  V30 2 1 2 3
M  V30 3 1 2 4
M  V30 4 2 3 5
M  V30 5 1 4 6
M  V30 6 1 5 7
M  V30 7 1 5 8
M  V30 8 1 6 9
M  V30 9 1 6 10
M  V30 10 2 8 11
M  V30 11 1 8 12
M  V30 12 1 12 13
M  V30 13 1 13 14
M  V30 14 1 6 7
M  V30 END BOND
M  V30 END CTAB
M  END
>  <Molecule Name>
ethyl 2,2-dimethyl-4-oxo-3H-pyran-6-carboxylate

>  <Database>
Pubchem

>  <Reference DOI>
10.1371/annotation/1dc83f26-8045-4b63-8a86-24c7b71a7f79

>  <Molecular Target>
Aedes aegypti

>  <PubChem CID>
225938

>  <Smiles>
CCOC(C(OC(C)(C)C1)=CC1=O)=O

>  <Molecular Formula>
C10H14O4

>  <Activity>
1

$$$$
Compound 70
Actelion Java MolfileCreator 2.0

  0  0  0  0  0  0              0 V3000
M  V30 BEGIN CTAB
M  V30 COUNTS 17 18 0 0 0
M  V30 BEGIN ATOM
M  V30 1 O 0.0 0.0 0.0 0
M  V30 2 C -0.0308 -1.4323 0.0 0
M  V30 3 O -1.3245 -2.11 0.0 0
M  V30 4 C 1.2013 -2.11 0.0 0
M  V30 5 C -2.6182 -1.3707 0.0 0
M  V30 6 C 2.5104 -1.4939 0.0 0
M  V30 7 C 1.3245 -3.5269 0.0 0
M  V30 8 C -3.912 -2.0484 0.0 0
M  V30 9 C 3.4345 -2.5566 0.0 0
M  V30 10 C 4.4664 -1.7095 0.0 0
M  V30 11 C 0.2002 -4.451 0.0 0
M  V30 12 C 2.726 -3.7888 0.0 0
M  V30 13 C 4.5897 -3.1265 0.0 0
M  V30 14 O -1.2167 -3.9736 0.0 0
M  V30 15 O 0.462 -5.8526 0.0 0
M  V30 16 C -0.6622 -6.7767 0.0 0
M  V30 17 C -0.4004 -8.1782 0.0 0
M  V30 END ATOM
M  V30 BEGIN BOND
M  V30 1 2 1 2
M  V30 2 1 2 3
M  V30 3 1 2 4
M  V30 4 1 3 5
M  V30 5 2 4 6
M  V30 6 1 4 7
M  V30 7 1 5 8
M  V30 8 1 6 9
M  V30 9 1 6 10
M  V30 10 1 7 11
M  V30 11 1 7 12
M  V30 12 1 10 13
M  V30 13 2 11 14
M  V30 14 1 11 15
M  V30 15 1 15 16
M  V30 16 1 16 17
M  V30 17 1 9 12
M  V30 18 1 12 13
M  V30 END BOND
M  V30 END CTAB
M  END
>  <Molecule Name>
Bicyclo-(2,2,1)heptene-2,3-dicarboxylic acid, diethyl ester

>  <Database>
Pubchem

>  <Reference DOI>
10.3390/toxics11100837

>  <Molecular Target>
Aedes aegypti

>  <PubChem CID>
19795045

>  <Smiles>
CCOC(C1C(C(OCC)=O)=C2CC1CC2)=O

>  <Molecular Formula>
C13H18O4

>  <Activity>
1

$$$$
Compound 71
Actelion Java MolfileCreator 2.0

  0  0  0  0  0  0              0 V3000
M  V30 BEGIN CTAB
M  V30 COUNTS 17 16 0 0 0
M  V30 BEGIN ATOM
M  V30 1 O 0.0 0.0 0.0 0
M  V30 2 C -0.0241 -1.4848 0.0 0
M  V30 3 O -1.352 -2.2211 0.0 0
M  V30 4 C 1.2554 -2.2211 0.0 0
M  V30 5 C -2.6798 -1.4485 0.0 0
M  V30 6 C 2.535 -1.4485 0.0 0
M  V30 7 C -4.0077 -2.1849 0.0 0
M  V30 8 C 3.8146 -2.1849 0.0 0
M  V30 9 C 5.0942 -1.4123 0.0 0
M  V30 10 O 5.07 0.1207 0.0 0
M  V30 11 N 6.3738 -2.1487 0.0 0
M  V30 12 C 7.6534 -1.3761 0.0 0
M  V30 13 C 6.3496 -3.6335 0.0 0
M  V30 14 C 8.9329 -2.1125 0.0 0
M  V30 15 C 7.6292 0.1569 0.0 0
M  V30 16 C 5.0217 -4.3699 0.0 0
M  V30 17 C 7.6292 -4.3819 0.0 0
M  V30 END ATOM
M  V30 BEGIN BOND
M  V30 1 2 1 2
M  V30 2 1 2 3
M  V30 3 1 2 4
M  V30 4 1 3 5
M  V30 5 1 4 6
M  V30 6 1 5 7
M  V30 7 1 6 8
M  V30 8 1 8 9
M  V30 9 2 9 10
M  V30 10 1 9 11
M  V30 11 1 11 12
M  V30 12 1 11 13
M  V30 13 1 12 14
M  V30 14 1 12 15
M  V30 15 1 13 16
M  V30 16 1 13 17
M  V30 END BOND
M  V30 END CTAB
M  END
>  <Molecule Name>
N,N-Di-iso-propylglutaramic acid, ethyl ester

>  <Database>
Pubchem

>  <Reference DOI>
10.3390/toxics11100837

>  <Molecular Target>
Aedes aegypti

>  <PubChem CID>
245405

>  <Smiles>
CCOC(CCCC(N(C(C)C)C(C)C)=O)=O

>  <Molecular Formula>
C13H25NO3

>  <Activity>
1

$$$$
Compound 72
Actelion Java MolfileCreator 2.0

  0  0  0  0  0  0              0 V3000
M  V30 BEGIN CTAB
M  V30 COUNTS 15 15 0 0 0
M  V30 BEGIN ATOM
M  V30 1 O 0.0 0.0 0.0 0
M  V30 2 C -0.024 -1.4815 0.0 0
M  V30 3 O -1.349 -2.2162 0.0 0
M  V30 4 C 1.2526 -2.2162 0.0 0
M  V30 5 C -2.6739 -1.4453 0.0 0
M  V30 6 C 2.5294 -1.4453 0.0 0
M  V30 7 C 1.2285 -3.6977 0.0 0
M  V30 8 C -3.9988 -2.1801 0.0 0
M  V30 9 C 2.5053 0.0843 0.0 0
M  V30 10 C 3.8061 -2.1921 0.0 0
M  V30 11 C 2.5053 -4.4445 0.0 0
M  V30 12 O 1.1803 0.8551 0.0 0
M  V30 13 O 3.782 0.8431 0.0 0
M  V30 14 C 3.782 -3.6736 0.0 0
M  V30 15 C 3.7579 2.3728 0.0 0
M  V30 END ATOM
M  V30 BEGIN BOND
M  V30 1 2 1 2
M  V30 2 1 2 3
M  V30 3 1 2 4
M  V30 4 1 3 5
M  V30 5 2 4 6
M  V30 6 1 4 7
M  V30 7 1 5 8
M  V30 8 1 6 9
M  V30 9 1 6 10
M  V30 10 2 7 11
M  V30 11 2 9 12
M  V30 12 1 9 13
M  V30 13 2 10 14
M  V30 14 1 13 15
M  V30 15 1 11 14
M  V30 END BOND
M  V30 END CTAB
M  END
>  <Molecule Name>
Phthalic acid, methyl ethyl ester

>  <Database>
PubChem

>  <Reference DOI>
10.3390/toxics11100837

>  <Molecular Target>
Aedes aegypti

>  <PubChem CID>
36656

>  <Smiles>
CCOC(c(cccc1)c1C(OC)=O)=O

>  <Molecular Formula>
C11H12O4

>  <Activity>
1

$$$$
Compound 73
Actelion Java MolfileCreator 2.0

  0  0  0  0  0  0              0 V3000
M  V30 BEGIN CTAB
M  V30 COUNTS 15 15 0 0 0
M  V30 BEGIN ATOM
M  V30 1 O 0.0 0.0 0.0 0
M  V30 2 C -1.322 -0.7189 0.0 0
M  V30 3 O -2.644 0.0695 0.0 0
M  V30 4 C -1.3452 -2.1917 0.0 0
M  V30 5 C -3.966 -0.6494 0.0 0
M  V30 6 O -0.0695 -1.4147 0.0 0
M  V30 7 C -2.6672 -2.8991 0.0 0
M  V30 8 C -0.0695 -2.9107 0.0 0
M  V30 9 C -5.288 0.1391 0.0 0
M  V30 10 C -2.6904 -4.3719 0.0 0
M  V30 11 C -0.0927 -4.3835 0.0 0
M  V30 12 O -6.61 -0.5798 0.0 0
M  V30 13 C -1.4147 -5.1141 0.0 0
M  V30 14 C -7.932 0.2087 0.0 0
M  V30 15 C -9.2541 -0.5102 0.0 0
M  V30 END ATOM
M  V30 BEGIN BOND
M  V30 1 2 1 2
M  V30 2 1 2 3
M  V30 3 1 2 4
M  V30 4 1 3 5
M  V30 5 1 4 6
M  V30 6 1 4 7
M  V30 7 1 4 8
M  V30 8 1 5 9
M  V30 9 1 7 10
M  V30 10 1 8 11
M  V30 11 1 9 12
M  V30 12 1 10 13
M  V30 13 1 12 14
M  V30 14 1 14 15
M  V30 15 1 11 13
M  V30 END BOND
M  V30 END CTAB
M  END
>  <Molecule Name>
1-Hydroxycyclohexanecarboxylic acid, 2-ethoxyethyl ester

>  <Database>
PubChem

>  <Reference DOI>
10.3390/toxics11100837

>  <Molecular Target>
Aedes aegypti

>  <PubChem CID>
245457

>  <Smiles>
CCOCCOC(C1(CCCCC1)O)=O

>  <Molecular Formula>
C11H20O4

>  <Activity>
1

$$$$
Compound 74
Actelion Java MolfileCreator 2.0

  0  0  0  0  0  0              0 V3000
M  V30 BEGIN CTAB
M  V30 COUNTS 15 16 0 0 0
M  V30 BEGIN ATOM
M  V30 1 O 0.0 0.0 0.0 0
M  V30 2 C -0.0253 1.4548 0.0 0
M  V30 3 O -1.2904 2.2139 0.0 0
M  V30 4 C 1.1892 2.2139 0.0 0
M  V30 5 C -2.5555 1.5055 0.0 0
M  V30 6 C 1.3157 3.6688 0.0 0
M  V30 7 C 2.467 1.6446 0.0 0 CFG=1
M  V30 8 C 2.6947 3.9978 0.0 0
M  V30 9 C 2.4796 5.2755 0.0 0
M  V30 10 C 2.7453 0.2656 0.0 0
M  V30 11 C 3.3905 2.7326 0.0 0 CFG=1
M  V30 12 C 3.7574 4.7062 0.0 0
M  V30 13 O 4.0863 -0.1644 0.0 0
M  V30 14 O 1.6573 -0.6578 0.0 0
M  V30 15 C 1.9356 -2.0368 0.0 0
M  V30 END ATOM
M  V30 BEGIN BOND
M  V30 1 2 1 2
M  V30 2 1 2 3
M  V30 3 1 2 4
M  V30 4 1 3 5
M  V30 5 2 4 6
M  V30 6 1 4 7
M  V30 7 1 6 8
M  V30 8 1 6 9
M  V30 9 1 7 10 CFG=3
M  V30 10 1 7 11
M  V30 11 1 9 12
M  V30 12 2 10 13
M  V30 13 1 10 14
M  V30 14 1 14 15
M  V30 15 1 11 8 CFG=3
M  V30 16 1 11 12
M  V30 END BOND
M  V30 BEGIN COLLECTION
M  V30 MDLV30/STEABS ATOMS=(2 7 11)
M  V30 END COLLECTION
M  V30 END CTAB
M  END
>  <Molecule Name>
cis-Bicyclo-(2,2,1)heptene-2,3-dicarboxylic acid, dimethyl ester

>  <Database>
No information

>  <Reference DOI>
10.3390/toxics11100837

>  <Molecular Target>
Aedes aegypti

>  <PubChem CID>


>  <Smiles>
COC([C@@H]1C(C(OC)=O)=C2C[C@H]1CC2)=O

>  <Molecular Formula>
C11H14O4

>  <Activity>
1

$$$$
Compound 75
Actelion Java MolfileCreator 2.0

  0  0  0  0  0  0              0 V3000
M  V30 BEGIN CTAB
M  V30 COUNTS 15 16 0 0 0
M  V30 BEGIN ATOM
M  V30 1 O 0.0 0.0 0.0 0
M  V30 2 C 1.3167 0.5536 0.0 0
M  V30 3 O 1.4813 2.1547 0.0 0
M  V30 4 C 2.3492 -0.2543 0.0 0 CFG=2
M  V30 5 C 2.7981 2.7083 0.0 0
M  V30 6 C 2.0799 -1.631 0.0 0 CFG=2
M  V30 7 C 3.7109 0.1496 0.0 0 CFG=1
M  V30 8 C 0.6434 -2.1996 0.0 0
M  V30 9 C 3.3517 -2.0799 0.0 0 CFG=1
M  V30 10 C 5.5214 -0.3591 0.0 0
M  V30 11 C 4.2795 -1.0474 0.0 0
M  V30 12 O -0.793 -1.3915 0.0 0
M  V30 13 O 0.5237 -3.5912 0.0 0
M  V30 14 C 5.2521 -1.7207 0.0 0
M  V30 15 C -0.9127 -4.1598 0.0 0
M  V30 END ATOM
M  V30 BEGIN BOND
M  V30 1 2 1 2
M  V30 2 1 2 3
M  V30 3 1 4 2 CFG=1
M  V30 4 1 3 5
M  V30 5 1 4 6
M  V30 6 1 4 7
M  V30 7 1 6 8 CFG=1
M  V30 8 1 6 9
M  V30 9 1 7 10 CFG=1
M  V30 10 1 7 11
M  V30 11 2 8 12
M  V30 12 1 8 13
M  V30 13 1 9 14 CFG=1
M  V30 14 1 13 15
M  V30 15 1 9 11
M  V30 16 2 10 14
M  V30 END BOND
M  V30 BEGIN COLLECTION
M  V30 MDLV30/STEABS ATOMS=(4 4 6 7 9)
M  V30 END COLLECTION
M  V30 END CTAB
M  END
>  <Molecule Name>
Dimethyl carbate (DMC)

>  <Database>
Pubchem

>  <Reference DOI>
10.1186/s13071-017-2122-8

>  <Molecular Target>
Anopheles spp.

>  <PubChem CID>
10921747

>  <Smiles>
COC([C@H]([C@@H]1C=C[C@H]2C1)[C@H]2C(OC)=O)=O

>  <Molecular Formula>
C11H14O4

>  <Activity>
1

$$$$
Compound 76
Actelion Java MolfileCreator 2.0

  0  0  0  0  0  0              0 V3000
M  V30 BEGIN CTAB
M  V30 COUNTS 14 14 0 0 0
M  V30 BEGIN ATOM
M  V30 1 O 0.0 0.0 0.0 0
M  V30 2 C 1.2193 0.8302 0.0 0
M  V30 3 O 1.1155 2.4776 0.0 0
M  V30 4 C 2.4387 0.1037 0.0 0
M  V30 5 C 2.3349 3.3078 0.0 0
M  V30 6 C 2.3349 -1.3361 0.0 0
M  V30 7 C 3.6581 0.9339 0.0 0
M  V30 8 C 0.908 -2.0625 0.0 0
M  V30 9 C 3.5543 -2.0625 0.0 0
M  V30 10 C 4.8775 0.2205 0.0 0
M  V30 11 O -0.5188 -1.2323 0.0 0
M  V30 12 O 0.8042 -3.5024 0.0 0
M  V30 13 C 4.7737 -1.2323 0.0 0
M  V30 14 C -0.6226 -4.2288 0.0 0
M  V30 END ATOM
M  V30 BEGIN BOND
M  V30 1 2 1 2
M  V30 2 1 2 3
M  V30 3 1 2 4
M  V30 4 1 3 5
M  V30 5 2 4 6
M  V30 6 1 4 7
M  V30 7 1 6 8
M  V30 8 1 6 9
M  V30 9 2 7 10
M  V30 10 2 8 11
M  V30 11 1 8 12
M  V30 12 2 9 13
M  V30 13 1 12 14
M  V30 14 1 10 13
M  V30 END BOND
M  V30 END CTAB
M  END
>  <Molecule Name>
Dimethyl phthalate (DBP)

>  <Database>
Pubchem

>  <Reference DOI>
10.1186/s12936-019-3064-8

>  <Molecular Target>
Anopheles spp.

>  <PubChem CID>
8554

>  <Smiles>
COC(c(cccc1)c1C(OC)=O)=O

>  <Molecular Formula>
C10H10O4

>  <Activity>
1

$$$$
Compound 77
Actelion Java MolfileCreator 2.0

  0  0  0  0  0  0              0 V3000
M  V30 BEGIN CTAB
M  V30 COUNTS 6 5 0 0 0
M  V30 BEGIN ATOM
M  V30 1 O 0.0 0.0 0.0 0
M  V30 2 C -0.0608 1.5455 0.0 0
M  V30 3 O -1.3994 2.3243 0.0 0
M  V30 4 C 1.1561 2.3243 0.0 0
M  V30 5 O 1.0952 3.8699 0.0 0
M  V30 6 N 2.373 1.6063 0.0 0
M  V30 END ATOM
M  V30 BEGIN BOND
M  V30 1 2 1 2
M  V30 2 1 2 3
M  V30 3 1 2 4
M  V30 4 2 4 5
M  V30 5 1 4 6
M  V30 END BOND
M  V30 END CTAB
M  END
>  <Molecule Name>
Oxamic acid

>  <Database>
Pubchem

>  <Reference DOI>
10.1186/s13071-017-2122-8

>  <Molecular Target>
Anopheles spp.

>  <PubChem CID>
974

>  <Smiles>
NC(C(O)=O)=O

>  <Molecular Formula>
C2H3NO3

>  <Activity>
1

$$$$
Compound 78
Actelion Java MolfileCreator 2.0

  0  0  0  0  0  0              0 V3000
M  V30 BEGIN CTAB
M  V30 COUNTS 12 12 0 0 0
M  V30 BEGIN ATOM
M  V30 1 Cl 0.0 0.0 0.0 0
M  V30 2 C -1.3083 0.7493 0.0 0
M  V30 3 C -2.6167 0.0118 0.0 0
M  V30 4 C -3.925 0.7612 0.0 0
M  V30 5 O -3.9488 2.2717 0.0 0
M  V30 6 O -5.2334 0.0237 0.0 0
M  V30 7 C -6.5417 0.7731 0.0 0
M  V30 8 C -7.8501 0.0356 0.0 0 CFG=2
M  V30 9 O -8.0285 -1.4154 0.0 0
M  V30 10 C -9.2298 0.6779 0.0 0
M  V30 11 C -9.5034 -1.7008 0.0 0
M  V30 12 C -10.2408 -0.3925 0.0 0
M  V30 END ATOM
M  V30 BEGIN BOND
M  V30 1 1 1 2
M  V30 2 1 2 3
M  V30 3 1 3 4
M  V30 4 2 4 5
M  V30 5 1 4 6
M  V30 6 1 6 7
M  V30 7 1 8 7 CFG=3
M  V30 8 1 8 9
M  V30 9 1 8 10
M  V30 10 1 9 11
M  V30 11 1 10 12
M  V30 12 1 11 12
M  V30 END BOND
M  V30 BEGIN COLLECTION
M  V30 MDLV30/STERAC1 ATOMS=(1 8)
M  V30 END COLLECTION
M  V30 END CTAB
M  END
>  <Molecule Name>
beta-Chloropropionic acid, tetrahydrofurfuryl ester

>  <Database>
PubChem

>  <Reference DOI>
10.3390/toxics11100837

>  <Molecular Target>
Aedes aegypti

>  <PubChem CID>
551317

>  <Smiles>
O=C(CCCl)OCC1OCCC1

>  <Molecular Formula>
C8H13O3Cl

>  <Activity>
1

$$$$
Compound 79
Actelion Java MolfileCreator 2.0

  0  0  0  0  0  0              0 V3000
M  V30 BEGIN CTAB
M  V30 COUNTS 14 14 0 0 0
M  V30 BEGIN ATOM
M  V30 1 Cl 0.0 0.0 0.0 0
M  V30 2 C 1.2869 0.7648 0.0 0
M  V30 3 C 1.2626 2.3068 0.0 0
M  V30 4 C 2.5739 0.0121 0.0 0
M  V30 5 O 3.8608 0.7891 0.0 0
M  V30 6 C 5.1478 0.0364 0.0 0
M  V30 7 O 5.1235 -1.4569 0.0 0
M  V30 8 C 6.4348 0.8134 0.0 0
M  V30 9 C 7.7217 0.0607 0.0 0
M  V30 10 C 7.6975 -1.4326 0.0 0
M  V30 11 C 9.0087 0.8377 0.0 0
M  V30 12 C 8.9844 -2.1854 0.0 0
M  V30 13 C 10.2957 0.0971 0.0 0
M  V30 14 C 10.2714 -1.4205 0.0 0
M  V30 END ATOM
M  V30 BEGIN BOND
M  V30 1 1 1 2
M  V30 2 2 2 3
M  V30 3 1 2 4
M  V30 4 1 4 5
M  V30 5 1 5 6
M  V30 6 2 6 7
M  V30 7 1 6 8
M  V30 8 1 8 9
M  V30 9 2 9 10
M  V30 10 1 9 11
M  V30 11 1 10 12
M  V30 12 2 11 13
M  V30 13 2 12 14
M  V30 14 1 13 14
M  V30 END BOND
M  V30 END CTAB
M  END
>  <Molecule Name>
Phenylacetic acid, beta-chloroallyl ester

>  <Database>
PubChem

>  <Reference DOI>
10.3390/toxics11100837

>  <Molecular Target>
Aedes aegypti

>  <PubChem CID>
139889166

>  <Smiles>
C=C(COC(Cc1ccccc1)=O)Cl

>  <Molecular Formula>
C11H11O2Cl

>  <Activity>
1

$$$$
Compound 80
Actelion Java MolfileCreator 2.0

  0  0  0  0  0  0              0 V3000
M  V30 BEGIN CTAB
M  V30 COUNTS 9 8 0 0 0
M  V30 BEGIN ATOM
M  V30 1 S 0.0 0.0 0.0 0 CFG=2
M  V30 2 S 1.2194 0.8757 0.0 0
M  V30 3 O -0.0886 -1.4078 0.0 0
M  V30 4 C -1.3967 0.8757 0.0 0
M  V30 5 C 2.4388 0.2327 0.0 0
M  V30 6 C -2.7935 0.2327 0.0 0
M  V30 7 C 3.6582 1.1085 0.0 0
M  V30 8 C -4.1903 1.1085 0.0 0
M  V30 9 C 4.8776 0.4766 0.0 0
M  V30 END ATOM
M  V30 BEGIN BOND
M  V30 1 1 1 2 CFG=3
M  V30 2 2 1 3
M  V30 3 1 1 4
M  V30 4 1 2 5
M  V30 5 1 4 6
M  V30 6 1 5 7
M  V30 7 2 6 8
M  V30 8 2 7 9
M  V30 END BOND
M  V30 BEGIN COLLECTION
M  V30 MDLV30/STERAC1 ATOMS=(1 1)
M  V30 END COLLECTION
M  V30 END CTAB
M  END
>  <Molecule Name>
Allicin

>  <Database>
Pubchem

>  <Reference DOI>
10.1080/09670874.2015.1120363
10.1584/jpestics.25.247

>  <Molecular Target>
Musca domestica L.

>  <PubChem CID>
65036

>  <Smiles>
C=CCSS(CC=C)=O

>  <Molecular Formula>
C6H10OS2

>  <Activity>
1

$$$$
Compound 81
Actelion Java MolfileCreator 2.0

  0  0  0  0  0  0              0 V3000
M  V30 BEGIN CTAB
M  V30 COUNTS 22 23 0 0 0
M  V30 BEGIN ATOM
M  V30 1 O 0.0 0.0 0.0 0
M  V30 2 C -0.8991 1.2347 0.0 0
M  V30 3 C -2.4216 1.2707 0.0 0
M  V30 4 C -0.4675 2.6853 0.0 0
M  V30 5 C -2.9251 2.7213 0.0 0
M  V30 6 C -3.3207 0.1078 0.0 0
M  V30 7 C -1.7023 3.5844 0.0 0
M  V30 8 C -4.3756 3.2248 0.0 0
M  V30 9 C -2.7333 -1.2108 0.0 0
M  V30 10 O -1.7382 5.1069 0.0 0
M  V30 11 C -3.6324 -2.3736 0.0 0
M  V30 12 C -0.4915 5.8622 0.0 0
M  V30 13 O 0.7552 5.1429 0.0 0
M  V30 14 C -0.5274 7.3847 0.0 0
M  V30 15 C 0.1918 8.7034 0.0 0
M  V30 16 C -1.2947 8.7034 0.0 0
M  V30 17 C 0.1558 10.2259 0.0 0
M  V30 18 C 1.4385 7.9841 0.0 0
M  V30 19 C -2.6134 9.4706 0.0 0
M  V30 20 C -2.6493 10.9931 0.0 0
M  V30 21 C -3.968 11.7603 0.0 0
M  V30 22 C -1.4026 11.7603 0.0 0
M  V30 END ATOM
M  V30 BEGIN BOND
M  V30 1 2 1 2
M  V30 2 1 2 3
M  V30 3 1 2 4
M  V30 4 2 3 5
M  V30 5 1 3 6
M  V30 6 1 4 7
M  V30 7 1 5 8
M  V30 8 1 6 9
M  V30 9 1 7 10
M  V30 10 2 9 11
M  V30 11 1 10 12
M  V30 12 2 12 13
M  V30 13 1 12 14
M  V30 14 1 14 15
M  V30 15 1 14 16
M  V30 16 1 15 17
M  V30 17 1 15 18
M  V30 18 1 16 19
M  V30 19 2 19 20
M  V30 20 1 20 21
M  V30 21 1 20 22
M  V30 22 1 5 7
M  V30 23 1 15 16
M  V30 END BOND
M  V30 END CTAB
M  END
>  <Molecule Name>
Allethrin
Pynamin
Esbiothrin

>  <Database>
Pubchem

>  <Reference DOI>
10.1093/jme/tjv065

>  <Molecular Target>
Aedes atlanticus Dyar e Knab, Psorophora ferox Humboldt, Psorophora columbiae Dyar e Knab e Aedes taeniorhynchus Wiedemann

>  <PubChem CID>
11442

>  <Smiles>
CC(C)(C1C=C(C)C)C1C(OC(C1)C(C)=C(CC=C)C1=O)=O

>  <Molecular Formula>
C19H26O3

>  <Activity>
1

$$$$
Compound 82
Actelion Java MolfileCreator 2.0

  0  0  0  0  0  0              0 V3000
M  V30 BEGIN CTAB
M  V30 COUNTS 14 15 0 0 0
M  V30 BEGIN ATOM
M  V30 1 O 0.0 0.0 0.0 0
M  V30 2 C -0.331 1.4776 0.0 0
M  V30 3 O 0.6383 2.6007 0.0 0
M  V30 4 C -1.7141 2.116 0.0 0 CFG=2
M  V30 5 C -0.1182 3.9129 0.0 0
M  V30 6 O -1.584 3.6173 0.0 0
M  V30 7 C -3.0263 1.3949 0.0 0
M  V30 8 C 1.0639 4.8113 0.0 0
M  V30 9 C -0.2955 5.4142 0.0 0
M  V30 10 C -4.3385 2.1633 0.0 0
M  V30 11 C -3.0499 -0.0709 0.0 0
M  V30 12 C -5.6507 1.4422 0.0 0
M  V30 13 C -4.3621 -0.792 0.0 0
M  V30 14 C -5.6743 -0.0236 0.0 0
M  V30 END ATOM
M  V30 BEGIN BOND
M  V30 1 2 1 2
M  V30 2 1 2 3
M  V30 3 1 2 4
M  V30 4 1 3 5
M  V30 5 1 4 6
M  V30 6 1 4 7 CFG=1
M  V30 7 1 5 8
M  V30 8 1 5 9
M  V30 9 2 7 10
M  V30 10 1 7 11
M  V30 11 1 10 12
M  V30 12 2 11 13
M  V30 13 2 12 14
M  V30 14 1 5 6
M  V30 15 1 13 14
M  V30 END BOND
M  V30 BEGIN COLLECTION
M  V30 MDLV30/STERAC1 ATOMS=(1 4)
M  V30 END COLLECTION
M  V30 END CTAB
M  END
>  <Molecule Name>
2,2-Dimethyl-5-phenyl-1,3-dioxolan-4-one

>  <Database>
PubChem

>  <Reference DOI>
10.3390/toxics11100837

>  <Molecular Target>
Aedes aegypti

>  <PubChem CID>
236010

>  <Smiles>
CC(C)(OC1c2ccccc2)OC1=O

>  <Molecular Formula>
C11H12O3

>  <Activity>
1

$$$$
Compound 83
Actelion Java MolfileCreator 2.0

  0  0  0  0  0  0              0 V3000
M  V30 BEGIN CTAB
M  V30 COUNTS 20 20 0 0 0
M  V30 BEGIN ATOM
M  V30 1 Br 0.0 0.0 0.0 0
M  V30 2 C -0.2995 1.6542 0.0 0
M  V30 3 C -1.7324 2.4879 0.0 0
M  V30 4 C 0.534 2.4879 0.0 0
M  V30 5 C -2.032 4.1422 0.0 0
M  V30 6 C 0.2344 4.1422 0.0 0
M  V30 7 C -1.1983 4.9758 0.0 0
M  V30 8 C -1.4979 6.6301 0.0 0
M  V30 9 O -2.9308 7.4637 0.0 0
M  V30 10 O -0.6643 7.4637 0.0 0
M  V30 11 C -0.9639 9.118 0.0 0
M  V30 12 C -0.1302 9.9517 0.0 0
M  V30 13 C -0.4298 11.6059 0.0 0
M  V30 14 C 0.4037 12.4396 0.0 0
M  V30 15 C -1.8626 12.4396 0.0 0
M  V30 16 C 0.1042 14.0939 0.0 0
M  V30 17 C 0.9378 14.9405 0.0 0
M  V30 18 C 0.6382 16.5948 0.0 0
M  V30 19 C 1.4719 17.4285 0.0 0
M  V30 20 C -0.7945 17.4285 0.0 0
M  V30 END ATOM
M  V30 BEGIN BOND
M  V30 1 1 1 2
M  V30 2 2 2 3
M  V30 3 1 2 4
M  V30 4 1 3 5
M  V30 5 2 4 6
M  V30 6 2 5 7
M  V30 7 1 7 8
M  V30 8 2 8 9
M  V30 9 1 8 10
M  V30 10 1 10 11
M  V30 11 1 11 12
M  V30 12 2 12 13
M  V30 13 1 13 14
M  V30 14 1 13 15
M  V30 15 1 14 16
M  V30 16 1 16 17
M  V30 17 2 17 18
M  V30 18 1 18 19
M  V30 19 1 18 20
M  V30 20 1 6 7
M  V30 END BOND
M  V30 END CTAB
M  END
>  <Molecule Name>
[(2E)-3,7-dimethylocta-2,6-dienyl] 4-bromobenzoate

>  <Database>
Pubchem

>  <Reference DOI>
10.1021/jf104712c

>  <Molecular Target>
Acyrthosiphon pisum

>  <PubChem CID>
52920580

>  <Smiles>
CC(C)=CCC/C(\C)=C/COC(c(cc1)ccc1Br)=O

>  <Molecular Formula>
C17H21O2Br

>  <Activity>
1

$$$$
Compound 84
Actelion Java MolfileCreator 2.0

  0  0  0  0  0  0              0 V3000
M  V30 BEGIN CTAB
M  V30 COUNTS 16 16 0 0 0
M  V30 BEGIN ATOM
M  V30 1 O 0.0 0.0 0.0 0
M  V30 2 C -0.024 1.5277 0.0 0
M  V30 3 O 1.251 2.3096 0.0 0
M  V30 4 C -1.3473 2.3096 0.0 0
M  V30 5 C 2.5262 1.5758 0.0 0
M  V30 6 C -2.6705 1.5758 0.0 0
M  V30 7 C 3.8013 2.3457 0.0 0
M  V30 8 O -1.3954 0.83 0.0 0
M  V30 9 C -3.9938 2.3457 0.0 0
M  V30 10 C -2.6946 0.0962 0.0 0
M  V30 11 C 5.0764 1.6119 0.0 0
M  V30 12 C -5.317 1.6119 0.0 0
M  V30 13 C -4.0178 -0.6375 0.0 0
M  V30 14 C 6.3515 2.3818 0.0 0
M  V30 15 C 5.0524 0.1323 0.0 0
M  V30 16 C -5.3411 0.1323 0.0 0
M  V30 END ATOM
M  V30 BEGIN BOND
M  V30 1 2 1 2
M  V30 2 1 2 3
M  V30 3 1 2 4
M  V30 4 1 3 5
M  V30 5 1 4 6
M  V30 6 1 5 7
M  V30 7 1 6 8
M  V30 8 1 6 9
M  V30 9 1 6 10
M  V30 10 1 7 11
M  V30 11 1 9 12
M  V30 12 1 10 13
M  V30 13 1 11 14
M  V30 14 1 11 15
M  V30 15 1 12 16
M  V30 16 1 13 16
M  V30 END BOND
M  V30 END CTAB
M  END
>  <Molecule Name>
1-Hydroxycyclohexaneacetic acid, iso-amyl ester

>  <Database>
PubChem

>  <Reference DOI>
10.3390/toxics11100837

>  <Molecular Target>
Aedes aegypti

>  <PubChem CID>
81376

>  <Smiles>
CC(C)CCOC(CC1(CCCCC1)O)=O

>  <Molecular Formula>
C13H24O3

>  <Activity>
1

$$$$
Compound 85
Actelion Java MolfileCreator 2.0

  0  0  0  0  0  0              0 V3000
M  V30 BEGIN CTAB
M  V30 COUNTS 11 10 0 0 0
M  V30 BEGIN ATOM
M  V30 1 O 0.0 0.0 0.0 0
M  V30 2 C -1.3217 0.757 0.0 0
M  V30 3 C 1.2737 0.757 0.0 0
M  V30 4 C -2.6435 0.012 0.0 0 CFG=1
M  V30 5 C 2.5474 0.012 0.0 0
M  V30 6 O -2.6675 -1.4659 0.0 0
M  V30 7 C -3.9653 0.769 0.0 0
M  V30 8 C 3.8211 0.769 0.0 0
M  V30 9 O -5.2871 0.024 0.0 0
M  V30 10 C 5.0948 0.024 0.0 0
M  V30 11 C 3.7971 2.295 0.0 0
M  V30 END ATOM
M  V30 BEGIN BOND
M  V30 1 1 1 2
M  V30 2 1 1 3
M  V30 3 1 2 4
M  V30 4 1 3 5
M  V30 5 1 4 6 CFG=1
M  V30 6 1 4 7
M  V30 7 1 5 8
M  V30 8 1 7 9
M  V30 9 1 8 10
M  V30 10 1 8 11
M  V30 END BOND
M  V30 BEGIN COLLECTION
M  V30 MDLV30/STERAC1 ATOMS=(1 4)
M  V30 END COLLECTION
M  V30 END CTAB
M  END
>  <Molecule Name>
Glycerol mono-iso-amyl ether

>  <Database>
PubChem

>  <Reference DOI>
10.3390/toxics11100837

>  <Molecular Target>
Aedes aegypti

>  <PubChem CID>
95650

>  <Smiles>
CC(C)CCOCC(CO)O

>  <Molecular Formula>
C8H18O3

>  <Activity>
1

$$$$
Compound 86
Actelion Java MolfileCreator 2.0

  0  0  0  0  0  0              0 V3000
M  V30 BEGIN CTAB
M  V30 COUNTS 16 17 0 0 0
M  V30 BEGIN ATOM
M  V30 1 O 0.0 0.0 0.0 0
M  V30 2 C -1.124 1.0164 0.0 0
M  V30 3 N -0.9925 2.5231 0.0 0
M  V30 4 C -2.6068 0.7294 0.0 0
M  V30 5 C -2.3796 3.1688 0.0 0
M  V30 6 C 0.275 3.2765 0.0 0
M  V30 7 C -3.3721 2.0448 0.0 0
M  V30 8 C -3.3721 -0.5381 0.0 0
M  V30 9 O -2.7144 4.6516 0.0 0
M  V30 10 C 1.5425 2.5351 0.0 0
M  V30 11 C -4.8908 2.0687 0.0 0
M  V30 12 C -4.8908 -0.5141 0.0 0
M  V30 13 C 2.8101 3.2884 0.0 0
M  V30 14 C 1.5186 1.0642 0.0 0
M  V30 15 C -5.6561 0.8011 0.0 0
M  V30 16 C -5.6561 -1.7817 0.0 0
M  V30 END ATOM
M  V30 BEGIN BOND
M  V30 1 2 1 2
M  V30 2 1 2 3
M  V30 3 1 2 4
M  V30 4 1 3 5
M  V30 5 1 3 6
M  V30 6 1 4 7
M  V30 7 1 4 8
M  V30 8 2 5 9
M  V30 9 1 6 10
M  V30 10 1 7 11
M  V30 11 1 8 12
M  V30 12 1 10 13
M  V30 13 1 10 14
M  V30 14 1 11 15
M  V30 15 1 12 16
M  V30 16 1 5 7
M  V30 17 1 12 15
M  V30 END BOND
M  V30 END CTAB
M  END
>  <Molecule Name>
N-iso-Butyl-4-methylhexahydrophthalimide

>  <Database>
Pubchem

>  <Reference DOI>
10.3390/toxics11100837

>  <Molecular Target>
Aedes aegypti

>  <PubChem CID>
18740204

>  <Smiles>
CC(C)CN(C(C1C2CC(C)CC1)=O)C2=O

>  <Molecular Formula>
C13H21NO2

>  <Activity>
1

$$$$
Compound 87
Actelion Java MolfileCreator 2.0

  0  0  0  0  0  0              0 V3000
M  V30 BEGIN CTAB
M  V30 COUNTS 15 16 0 0 0
M  V30 BEGIN ATOM
M  V30 1 O 0.0 0.0 0.0 0
M  V30 2 C -1.1225 1.0151 0.0 0
M  V30 3 N -0.9912 2.5198 0.0 0
M  V30 4 C -2.6034 0.7284 0.0 0
M  V30 5 C -2.3765 3.1647 0.0 0
M  V30 6 C 0.2746 3.2841 0.0 0
M  V30 7 C -3.3677 2.0421 0.0 0
M  V30 8 C -3.3677 -0.5374 0.0 0
M  V30 9 O -2.7109 4.6455 0.0 0
M  V30 10 C 1.5405 2.5437 0.0 0
M  V30 11 C -4.8844 2.066 0.0 0
M  V30 12 C -4.8844 -0.5135 0.0 0
M  V30 13 C 2.8064 3.308 0.0 0
M  V30 14 C 1.5166 1.0748 0.0 0
M  V30 15 C -5.6487 0.8001 0.0 0
M  V30 END ATOM
M  V30 BEGIN BOND
M  V30 1 2 1 2
M  V30 2 1 2 3
M  V30 3 1 2 4
M  V30 4 1 3 5
M  V30 5 1 3 6
M  V30 6 1 4 7
M  V30 7 1 4 8
M  V30 8 2 5 9
M  V30 9 1 6 10
M  V30 10 1 7 11
M  V30 11 1 8 12
M  V30 12 1 10 13
M  V30 13 1 10 14
M  V30 14 1 11 15
M  V30 15 1 5 7
M  V30 16 2 12 15
M  V30 END BOND
M  V30 END CTAB
M  END
>  <Molecule Name>
N-iso-Butyl-1,2,3,6-tetrahydrophthalimide

>  <Database>
PubChem

>  <Reference DOI>
10.3390/toxics11100837

>  <Molecular Target>
Aedes aegypti

>  <PubChem CID>
5003903

>  <Smiles>
CC(C)CN(C(C1C2CC=CC1)=O)C2=O

>  <Molecular Formula>
C12H17NO2

>  <Activity>
1

$$$$
Compound 88
Actelion Java MolfileCreator 2.0

  0  0  0  0  0  0              0 V3000
M  V30 BEGIN CTAB
M  V30 COUNTS 15 16 0 0 0
M  V30 BEGIN ATOM
M  V30 1 O 0.0 0.0 0.0 0
M  V30 2 C -1.1225 1.0151 0.0 0
M  V30 3 N -0.9912 2.5198 0.0 0
M  V30 4 C -2.6034 0.7284 0.0 0
M  V30 5 C -2.3765 3.1647 0.0 0
M  V30 6 C 0.2746 3.2841 0.0 0
M  V30 7 C -3.3677 2.0421 0.0 0
M  V30 8 C -3.3677 -0.5374 0.0 0
M  V30 9 O -2.7109 4.6455 0.0 0
M  V30 10 C 1.5405 2.5437 0.0 0
M  V30 11 C -4.8844 2.066 0.0 0
M  V30 12 C -4.8844 -0.5135 0.0 0
M  V30 13 C 2.8064 3.308 0.0 0
M  V30 14 C 1.5166 1.0748 0.0 0
M  V30 15 C -5.6487 0.8001 0.0 0
M  V30 END ATOM
M  V30 BEGIN BOND
M  V30 1 2 1 2
M  V30 2 1 2 3
M  V30 3 1 2 4
M  V30 4 1 3 5
M  V30 5 1 3 6
M  V30 6 1 4 7
M  V30 7 1 4 8
M  V30 8 2 5 9
M  V30 9 1 6 10
M  V30 10 1 7 11
M  V30 11 1 8 12
M  V30 12 1 10 13
M  V30 13 1 10 14
M  V30 14 1 11 15
M  V30 15 1 5 7
M  V30 16 1 12 15
M  V30 END BOND
M  V30 END CTAB
M  END
>  <Molecule Name>
N-iso-Butylhexahydrophthalimide

>  <Database>
PubChem

>  <Reference DOI>
10.3390/toxics11100837

>  <Molecular Target>
Aedes aegypti

>  <PubChem CID>
17296588

>  <Smiles>
CC(C)CN(C(C1C2CCCC1)=O)C2=O

>  <Molecular Formula>
C12H19NO2

>  <Activity>
1

$$$$
Compound 89
Actelion Java MolfileCreator 2.0

  0  0  0  0  0  0              0 V3000
M  V30 BEGIN CTAB
M  V30 COUNTS 17 17 0 0 0
M  V30 BEGIN ATOM
M  V30 1 O 0.0 0.0 0.0 0
M  V30 2 C -0.0232 -1.4763 0.0 0
M  V30 3 N 1.2554 -2.1854 0.0 0
M  V30 4 C -1.3484 -2.1854 0.0 0
M  V30 5 C 2.5341 -1.4065 0.0 0
M  V30 6 O -2.6736 -1.4065 0.0 0
M  V30 7 C 3.8128 -2.1156 0.0 0
M  V30 8 C -3.9988 -2.1156 0.0 0
M  V30 9 C 5.0915 -1.3368 0.0 0
M  V30 10 C 3.7895 -3.5919 0.0 0
M  V30 11 C -5.324 -1.3368 0.0 0
M  V30 12 C -6.6492 -2.0459 0.0 0
M  V30 13 C -7.9744 -1.2554 0.0 0
M  V30 14 C -6.6724 -3.5222 0.0 0
M  V30 15 C -9.2996 -1.9645 0.0 0
M  V30 16 C -7.9976 -4.2313 0.0 0
M  V30 17 C -9.3228 -3.4408 0.0 0
M  V30 END ATOM
M  V30 BEGIN BOND
M  V30 1 2 1 2
M  V30 2 1 2 3
M  V30 3 1 2 4
M  V30 4 1 3 5
M  V30 5 1 4 6
M  V30 6 1 5 7
M  V30 7 1 6 8
M  V30 8 1 7 9
M  V30 9 1 7 10
M  V30 10 1 8 11
M  V30 11 1 11 12
M  V30 12 2 12 13
M  V30 13 1 12 14
M  V30 14 1 13 15
M  V30 15 2 14 16
M  V30 16 2 15 17
M  V30 17 1 16 17
M  V30 END BOND
M  V30 END CTAB
M  END
>  <Molecule Name>
N-iso-Butylphenethoxyacetamide

>  <Database>
Pubchem

>  <Reference DOI>
10.3390/toxics11100837

>  <Molecular Target>
Aedes aegypti

>  <PubChem CID>
154133407

>  <Smiles>
CC(C)CNC(COCCc1ccccc1)=O

>  <Molecular Formula>
C14H21NO2

>  <Activity>
1

$$$$
Compound 90
Actelion Java MolfileCreator 2.0

  0  0  0  0  0  0              0 V3000
M  V30 BEGIN CTAB
M  V30 COUNTS 15 15 0 0 0
M  V30 BEGIN ATOM
M  V30 1 O 0.0 0.0 0.0 0
M  V30 2 C -0.0237 1.5111 0.0 0
M  V30 3 O -1.3326 2.2726 0.0 0
M  V30 4 C 1.2374 2.2726 0.0 0 CFG=2
M  V30 5 C -2.6415 1.5349 0.0 0
M  V30 6 O 2.4987 1.5349 0.0 0
M  V30 7 C 1.2136 3.7838 0.0 0
M  V30 8 C -3.9504 2.2964 0.0 0
M  V30 9 C 2.4749 4.5453 0.0 0
M  V30 10 C -0.0951 4.5453 0.0 0
M  V30 11 C -3.9742 3.8076 0.0 0
M  V30 12 C -5.2592 1.5587 0.0 0
M  V30 13 C 2.4511 6.0565 0.0 0
M  V30 14 C -0.1189 6.0565 0.0 0
M  V30 15 C 1.1422 6.818 0.0 0
M  V30 END ATOM
M  V30 BEGIN BOND
M  V30 1 2 1 2
M  V30 2 1 2 3
M  V30 3 1 2 4
M  V30 4 1 3 5
M  V30 5 1 4 6 CFG=1
M  V30 6 1 4 7
M  V30 7 1 5 8
M  V30 8 2 7 9
M  V30 9 1 7 10
M  V30 10 1 8 11
M  V30 11 1 8 12
M  V30 12 1 9 13
M  V30 13 2 10 14
M  V30 14 2 13 15
M  V30 15 1 14 15
M  V30 END BOND
M  V30 BEGIN COLLECTION
M  V30 MDLV30/STERAC1 ATOMS=(1 4)
M  V30 END COLLECTION
M  V30 END CTAB
M  END
>  <Molecule Name>
Mandelic acid, iso-butyl ester

>  <Database>
PubChem

>  <Reference DOI>
10.3390/toxics11100837

>  <Molecular Target>
Aedes aegypti

>  <PubChem CID>
224763

>  <Smiles>
CC(C)COC(C(c1ccccc1)O)=O

>  <Molecular Formula>
C12H16O3

>  <Activity>
1

$$$$
Compound 91
Actelion Java MolfileCreator 2.0

  0  0  0  0  0  0              0 V3000
M  V30 BEGIN CTAB
M  V30 COUNTS 17 17 0 0 0
M  V30 BEGIN ATOM
M  V30 1 O 0.0 0.0 0.0 0
M  V30 2 C -0.0239 1.5217 0.0 0
M  V30 3 N 1.2461 2.3006 0.0 0
M  V30 4 C -1.342 2.3006 0.0 0
M  V30 5 C 2.5163 1.5697 0.0 0
M  V30 6 C 1.2222 3.8224 0.0 0
M  V30 7 C -2.6601 1.5697 0.0 0
M  V30 8 C 3.7864 2.3365 0.0 0
M  V30 9 C 2.4923 0.0958 0.0 0
M  V30 10 C 2.4923 4.6012 0.0 0
M  V30 11 C -0.0958 4.6012 0.0 0
M  V30 12 O -1.3899 0.8267 0.0 0
M  V30 13 C -3.9782 2.3365 0.0 0
M  V30 14 C -2.684 0.0958 0.0 0
M  V30 15 C -5.2962 1.6056 0.0 0
M  V30 16 C -4.0021 -0.635 0.0 0
M  V30 17 C -5.3202 0.1318 0.0 0
M  V30 END ATOM
M  V30 BEGIN BOND
M  V30 1 2 1 2
M  V30 2 1 2 3
M  V30 3 1 2 4
M  V30 4 1 3 5
M  V30 5 1 3 6
M  V30 6 1 4 7
M  V30 7 1 5 8
M  V30 8 1 5 9
M  V30 9 1 6 10
M  V30 10 1 6 11
M  V30 11 1 7 12
M  V30 12 1 7 13
M  V30 13 1 7 14
M  V30 14 1 13 15
M  V30 15 1 14 16
M  V30 16 1 15 17
M  V30 17 1 16 17
M  V30 END BOND
M  V30 END CTAB
M  END
>  <Molecule Name>
N,N-Di-iso-propyl-1-hydroxy-cyclohexaneacetamide

>  <Database>
Pubchem

>  <Reference DOI>
10.3390/toxics11100837

>  <Molecular Target>
Aedes aegypti

>  <PubChem CID>
245412

>  <Smiles>
CC(C)N(C(C)C)C(CC1(CCCCC1)O)=O

>  <Molecular Formula>
C14H27NO2

>  <Activity>
1

$$$$
Compound 92
Actelion Java MolfileCreator 2.0

  0  0  0  0  0  0              0 V3000
M  V30 BEGIN CTAB
M  V30 COUNTS 14 13 0 0 0
M  V30 BEGIN ATOM
M  V30 1 O 0.0 0.0 0.0 0
M  V30 2 C -0.0239 1.5177 0.0 0
M  V30 3 N 1.2429 2.2707 0.0 0
M  V30 4 C -1.3385 2.2707 0.0 0
M  V30 5 C 2.5097 1.5297 0.0 0
M  V30 6 C 1.219 3.7885 0.0 0
M  V30 7 C -2.6531 1.5297 0.0 0
M  V30 8 C 3.7765 2.2946 0.0 0
M  V30 9 C 2.4858 0.0597 0.0 0
M  V30 10 C 2.4858 4.5533 0.0 0
M  V30 11 C -0.0956 4.5533 0.0 0
M  V30 12 C -3.9677 2.2946 0.0 0
M  V30 13 O -3.9916 3.8124 0.0 0
M  V30 14 C -5.2823 1.5536 0.0 0
M  V30 END ATOM
M  V30 BEGIN BOND
M  V30 1 2 1 2
M  V30 2 1 2 3
M  V30 3 1 2 4
M  V30 4 1 3 5
M  V30 5 1 3 6
M  V30 6 1 4 7
M  V30 7 1 5 8
M  V30 8 1 5 9
M  V30 9 1 6 10
M  V30 10 1 6 11
M  V30 11 1 7 12
M  V30 12 2 12 13
M  V30 13 1 12 14
M  V30 END BOND
M  V30 END CTAB
M  END
>  <Molecule Name>
N,N-Di-iso-propyllevulinamide

>  <Database>
PubChem

>  <Reference DOI>
10.3390/toxics11100837

>  <Molecular Target>
Aedes aegypti

>  <PubChem CID>
245460

>  <Smiles>
CC(C)N(C(C)C)C(CCC(C)=O)=O

>  <Molecular Formula>
C11H21NO2

>  <Activity>
1

$$$$
Compound 93
Actelion Java MolfileCreator 2.0

  0  0  0  0  0  0              0 V3000
M  V30 BEGIN CTAB
M  V30 COUNTS 15 16 0 0 0
M  V30 BEGIN ATOM
M  V30 1 O 0.0 0.0 0.0 0
M  V30 2 C -1.1203 1.013 0.0 0
M  V30 3 N -0.9892 2.5148 0.0 0
M  V30 4 C -2.5982 0.727 0.0 0
M  V30 5 C -2.3718 3.1584 0.0 0
M  V30 6 C 0.2741 3.2776 0.0 0
M  V30 7 C -3.361 2.038 0.0 0
M  V30 8 C -3.361 -0.5363 0.0 0
M  V30 9 O -2.7055 4.6363 0.0 0
M  V30 10 C 1.5375 2.5386 0.0 0
M  V30 11 C 0.2502 4.7912 0.0 0
M  V30 12 C -4.8747 2.0619 0.0 0
M  V30 13 C -4.8747 -0.5125 0.0 0
M  V30 14 C -5.6375 0.7985 0.0 0
M  V30 15 C -5.6375 -1.7758 0.0 0
M  V30 END ATOM
M  V30 BEGIN BOND
M  V30 1 2 1 2
M  V30 2 1 2 3
M  V30 3 1 2 4
M  V30 4 1 3 5
M  V30 5 1 3 6
M  V30 6 1 4 7
M  V30 7 1 4 8
M  V30 8 2 5 9
M  V30 9 1 6 10
M  V30 10 1 6 11
M  V30 11 1 7 12
M  V30 12 1 8 13
M  V30 13 1 12 14
M  V30 14 1 13 15
M  V30 15 1 5 7
M  V30 16 1 13 14
M  V30 END BOND
M  V30 END CTAB
M  END
>  <Molecule Name>
N-iso-Propyl-4-methylhexahydrophthalimide

>  <Database>
PubChem

>  <Reference DOI>
10.3390/toxics11100837

>  <Molecular Target>
Aedes aegypti

>  <PubChem CID>
11820405

>  <Smiles>
CC(C)N(C(C1C2CC(C)CC1)=O)C2=O

>  <Molecular Formula>
C12H19NO2

>  <Activity>
1

$$$$
Compound 94
Actelion Java MolfileCreator 2.0

  0  0  0  0  0  0              0 V3000
M  V30 BEGIN CTAB
M  V30 COUNTS 14 14 0 0 0
M  V30 BEGIN ATOM
M  V30 1 O 0.0 0.0 0.0 0
M  V30 2 C -0.0241 -1.4834 0.0 0
M  V30 3 O -1.3507 -2.2191 0.0 0
M  V30 4 C 1.2543 -2.2191 0.0 0 CFG=2
M  V30 5 C -2.6774 -1.4472 0.0 0
M  V30 6 O 2.5327 -1.4472 0.0 0
M  V30 7 C 1.2301 -3.7026 0.0 0
M  V30 8 C -2.7015 0.0844 0.0 0
M  V30 9 C -4.0041 -2.1829 0.0 0
M  V30 10 C -0.0964 -4.4383 0.0 0
M  V30 11 C 2.5086 -4.4503 0.0 0
M  V30 12 C -0.1206 -5.9218 0.0 0
M  V30 13 C 2.4845 -5.9338 0.0 0
M  V30 14 C 1.1578 -6.6695 0.0 0
M  V30 END ATOM
M  V30 BEGIN BOND
M  V30 1 2 1 2
M  V30 2 1 2 3
M  V30 3 1 2 4
M  V30 4 1 3 5
M  V30 5 1 4 6 CFG=3
M  V30 6 1 4 7
M  V30 7 1 5 8
M  V30 8 1 5 9
M  V30 9 2 7 10
M  V30 10 1 7 11
M  V30 11 1 10 12
M  V30 12 2 11 13
M  V30 13 2 12 14
M  V30 14 1 13 14
M  V30 END BOND
M  V30 BEGIN COLLECTION
M  V30 MDLV30/STERAC1 ATOMS=(1 4)
M  V30 END COLLECTION
M  V30 END CTAB
M  END
>  <Molecule Name>
Mandelic acid, iso-propyl ester

>  <Database>
PubChem

>  <Reference DOI>
10.3390/toxics11100837

>  <Molecular Target>
Aedes aegypti

>  <PubChem CID>
20071

>  <Smiles>
CC(C)OC(C(c1ccccc1)O)=O

>  <Molecular Formula>
C11H14O3

>  <Activity>
1

$$$$
Compound 95
Actelion Java MolfileCreator 2.0

  0  0  0  0  0  0              0 V3000
M  V30 BEGIN CTAB
M  V30 COUNTS 16 16 0 0 0
M  V30 BEGIN ATOM
M  V30 1 O 0.0 0.0 0.0 0
M  V30 2 C -0.024 -1.4815 0.0 0
M  V30 3 O -1.349 -2.2282 0.0 0
M  V30 4 C 1.2526 -2.2282 0.0 0
M  V30 5 C -2.6739 -1.4574 0.0 0
M  V30 6 C 2.5293 -1.4574 0.0 0 CFG=2
M  V30 7 C -2.698 0.0722 0.0 0
M  V30 8 C -3.9988 -2.2041 0.0 0
M  V30 9 O 1.7585 -0.1324 0.0 0
M  V30 10 C 3.8061 -2.2041 0.0 0
M  V30 11 C 3.2761 -0.1324 0.0 0
M  V30 12 C 3.782 -3.6856 0.0 0
M  V30 13 C 5.0828 -1.4333 0.0 0
M  V30 14 C 5.0587 -4.4324 0.0 0
M  V30 15 C 6.3596 -2.168 0.0 0
M  V30 16 C 6.3355 -3.6616 0.0 0
M  V30 END ATOM
M  V30 BEGIN BOND
M  V30 1 2 1 2
M  V30 2 1 2 3
M  V30 3 1 2 4
M  V30 4 1 3 5
M  V30 5 1 4 6
M  V30 6 1 5 7
M  V30 7 1 5 8
M  V30 8 1 6 9 CFG=3
M  V30 9 1 6 10
M  V30 10 1 6 11
M  V30 11 2 10 12
M  V30 12 1 10 13
M  V30 13 1 12 14
M  V30 14 2 13 15
M  V30 15 2 14 16
M  V30 16 1 15 16
M  V30 END BOND
M  V30 BEGIN COLLECTION
M  V30 MDLV30/STERAC1 ATOMS=(1 6)
M  V30 END COLLECTION
M  V30 END CTAB
M  END
>  <Molecule Name>
beta-Phenyl-beta-hydroxybutyric acid, iso-propyl ester

>  <Database>
PubChem

>  <Reference DOI>
10.3390/toxics11100837

>  <Molecular Target>
Aedes aegypti

>  <PubChem CID>
24976045

>  <Smiles>
CC(C)OC(CC(C)(c1ccccc1)O)=O

>  <Molecular Formula>
C13H18O3

>  <Activity>
1

$$$$
Compound 96
Actelion Java MolfileCreator 2.0

  0  0  0  0  0  0              0 V3000
M  V30 BEGIN CTAB
M  V30 COUNTS 14 14 0 0 0
M  V30 BEGIN ATOM
M  V30 1 O 0.0 0.0 0.0 0
M  V30 2 C -0.0241 -1.4852 0.0 0
M  V30 3 O -1.3524 -2.2339 0.0 0
M  V30 4 C 1.2558 -2.2339 0.0 0
M  V30 5 C -2.6807 -1.4611 0.0 0
M  V30 6 C 1.2317 -3.7192 0.0 0
M  V30 7 C 2.5358 -1.4611 0.0 0
M  V30 8 C -2.7049 0.0724 0.0 0
M  V30 9 C -4.009 -2.2098 0.0 0
M  V30 10 C 2.5117 -4.4679 0.0 0
M  V30 11 C 3.8158 -2.2098 0.0 0
M  V30 12 C 3.7917 -3.6951 0.0 0
M  V30 13 O 5.0717 -4.4437 0.0 0
M  V30 14 C 6.3517 -3.6588 0.0 0
M  V30 END ATOM
M  V30 BEGIN BOND
M  V30 1 2 1 2
M  V30 2 1 2 3
M  V30 3 1 2 4
M  V30 4 1 3 5
M  V30 5 2 4 6
M  V30 6 1 4 7
M  V30 7 1 5 8
M  V30 8 1 5 9
M  V30 9 1 6 10
M  V30 10 2 7 11
M  V30 11 2 10 12
M  V30 12 1 12 13
M  V30 13 1 13 14
M  V30 14 1 11 12
M  V30 END BOND
M  V30 END CTAB
M  END
>  <Molecule Name>
Anisic acid, iso-propyl ester

>  <Database>
PubChem

>  <Reference DOI>
10.3390/toxics11100837

>  <Molecular Target>
Aedes aegypti

>  <PubChem CID>
243786

>  <Smiles>
CC(C)OC(c(cc1)ccc1OC)=O

>  <Molecular Formula>
C11H14O3

>  <Activity>
1

$$$$
Compound 97
Actelion Java MolfileCreator 2.0

  0  0  0  0  0  0              0 V3000
M  V30 BEGIN CTAB
M  V30 COUNTS 13 13 0 0 0
M  V30 BEGIN ATOM
M  V30 1 O 0.0 0.0 0.0 0
M  V30 2 C -0.0241 -1.4831 0.0 0
M  V30 3 O -1.3504 -2.2306 0.0 0
M  V30 4 C 1.254 -2.2306 0.0 0
M  V30 5 C -2.6768 -1.4589 0.0 0
M  V30 6 C 1.2298 -3.7137 0.0 0
M  V30 7 C 2.5321 -1.4589 0.0 0
M  V30 8 C -2.7009 0.0723 0.0 0
M  V30 9 C -4.0031 -2.2065 0.0 0
M  V30 10 N -0.0964 -4.4493 0.0 0
M  V30 11 C 2.508 -4.4613 0.0 0
M  V30 12 C 3.8102 -2.2065 0.0 0
M  V30 13 C 3.7861 -3.6776 0.0 0
M  V30 END ATOM
M  V30 BEGIN BOND
M  V30 1 2 1 2
M  V30 2 1 2 3
M  V30 3 1 2 4
M  V30 4 1 3 5
M  V30 5 2 4 6
M  V30 6 1 4 7
M  V30 7 1 5 8
M  V30 8 1 5 9
M  V30 9 1 6 10
M  V30 10 1 6 11
M  V30 11 2 7 12
M  V30 12 2 11 13
M  V30 13 1 12 13
M  V30 END BOND
M  V30 END CTAB
M  END
>  <Molecule Name>
Anthranilic acid, iso-propyl ester

>  <Database>
PubChem

>  <Reference DOI>
10.3390/toxics11100837

>  <Molecular Target>
Aedes aegypti

>  <PubChem CID>
87499

>  <Smiles>
CC(C)OC(c(cccc1)c1N)=O

>  <Molecular Formula>
C10H13NO2

>  <Activity>
1

$$$$
Compound 98
Actelion Java MolfileCreator 2.0

  0  0  0  0  0  0              0 V3000
M  V30 BEGIN CTAB
M  V30 COUNTS 13 13 0 0 0
M  V30 BEGIN ATOM
M  V30 1 O 0.0 0.0 0.0 0
M  V30 2 C -0.0238 1.5148 0.0 0
M  V30 3 O -1.3359 2.2663 0.0 0
M  V30 4 C 1.2405 2.2663 0.0 0
M  V30 5 C -2.648 1.5387 0.0 0
M  V30 6 C 1.2166 3.7811 0.0 0
M  V30 7 C -3.9601 2.3021 0.0 0
M  V30 8 C -2.6718 0.0715 0.0 0
M  V30 9 N 1.1928 5.296 0.0 0
M  V30 10 C -5.2721 1.5744 0.0 0
M  V30 11 C -3.9839 -0.656 0.0 0
M  V30 12 C -5.296 0.1073 0.0 0
M  V30 13 C -6.6081 -0.6202 0.0 0
M  V30 END ATOM
M  V30 BEGIN BOND
M  V30 1 2 1 2
M  V30 2 1 2 3
M  V30 3 1 2 4
M  V30 4 1 3 5
M  V30 5 1 4 6
M  V30 6 1 5 7
M  V30 7 1 5 8
M  V30 8 3 6 9
M  V30 9 1 7 10
M  V30 10 1 8 11
M  V30 11 1 10 12
M  V30 12 1 12 13
M  V30 13 1 11 12
M  V30 END BOND
M  V30 END CTAB
M  END
>  <Molecule Name>
Cyanoacetic acid, 4-methyl-cyclohexyl ester

>  <Database>
PubChem

>  <Reference DOI>
10.3390/toxics11100837

>  <Molecular Target>
Aedes aegypti

>  <PubChem CID>
347844

>  <Smiles>
CC(CC1)CCC1OC(CC#N)=O

>  <Molecular Formula>
C10H15NO2

>  <Activity>
1

$$$$
Compound 99
Actelion Java MolfileCreator 2.0

  0  0  0  0  0  0              0 V3000
M  V30 BEGIN CTAB
M  V30 COUNTS 13 13 0 0 0
M  V30 BEGIN ATOM
M  V30 1 O 0.0 0.0 0.0 0
M  V30 2 C -0.0238 1.5134 0.0 0
M  V30 3 O -1.3347 2.2642 0.0 0
M  V30 4 C 1.2393 2.2642 0.0 0
M  V30 5 C -2.6456 1.5373 0.0 0
M  V30 6 C 1.2155 3.7777 0.0 0
M  V30 7 C -3.9565 2.3 0.0 0
M  V30 8 C -2.6694 0.0715 0.0 0
M  V30 9 N 1.1917 5.2912 0.0 0
M  V30 10 C -5.2674 1.573 0.0 0
M  V30 11 C -3.9803 -0.6554 0.0 0
M  V30 12 C -5.2912 0.1072 0.0 0
M  V30 13 C -6.5783 2.3357 0.0 0
M  V30 END ATOM
M  V30 BEGIN BOND
M  V30 1 2 1 2
M  V30 2 1 2 3
M  V30 3 1 2 4
M  V30 4 1 3 5
M  V30 5 1 4 6
M  V30 6 1 5 7
M  V30 7 1 5 8
M  V30 8 3 6 9
M  V30 9 1 7 10
M  V30 10 1 8 11
M  V30 11 1 10 12
M  V30 12 1 10 13
M  V30 13 1 11 12
M  V30 END BOND
M  V30 END CTAB
M  END
>  <Molecule Name>
Cyanoacetic acid, 3-methyl-cyclohexyl ester

>  <Database>
PubChem

>  <Reference DOI>
10.3390/toxics11100837

>  <Molecular Target>
Aedes aegypti

>  <PubChem CID>
144135633

>  <Smiles>
CC(CCC1)CC1OC(CC#N)=O

>  <Molecular Formula>
C10H15NO2

>  <Activity>
1

$$$$
Compound 100
Actelion Java MolfileCreator 2.0

  0  0  0  0  0  0              0 V3000
M  V30 BEGIN CTAB
M  V30 COUNTS 15 14 0 0 0
M  V30 BEGIN ATOM
M  V30 1 O 0.0 0.0 0.0 0
M  V30 2 C -1.325 -0.709 0.0 0
M  V30 3 C 1.2785 -0.709 0.0 0
M  V30 4 O -1.3482 -2.1851 0.0 0
M  V30 5 C -2.65 0.0697 0.0 0
M  V30 6 C -0.0697 -2.9057 0.0 0
M  V30 7 C -3.975 -0.6392 0.0 0 CFG=2
M  V30 8 C -5.3001 0.1278 0.0 0
M  V30 9 C -3.9983 -2.1153 0.0 0
M  V30 10 C -6.6251 -0.5811 0.0 0
M  V30 11 C -7.9501 0.1975 0.0 0
M  V30 12 C -9.2751 -0.5114 0.0 0
M  V30 13 O -10.0539 0.8136 0.0 0
M  V30 14 C -8.5661 -1.7899 0.0 0
M  V30 15 C -10.6002 -1.2204 0.0 0
M  V30 END ATOM
M  V30 BEGIN BOND
M  V30 1 1 1 2
M  V30 2 1 1 3
M  V30 3 1 2 4
M  V30 4 1 2 5
M  V30 5 1 4 6
M  V30 6 1 5 7
M  V30 7 1 7 8
M  V30 8 1 7 9 CFG=1
M  V30 9 1 8 10
M  V30 10 1 10 11
M  V30 11 1 11 12
M  V30 12 1 12 13
M  V30 13 1 12 14
M  V30 14 1 12 15
M  V30 END BOND
M  V30 BEGIN COLLECTION
M  V30 MDLV30/STERAC1 ATOMS=(1 7)
M  V30 END COLLECTION
M  V30 END CTAB
M  END
>  <Molecule Name>
Hydroxycitronellal dimethyl acetal

>  <Database>
PubChem

>  <Reference DOI>
10.3390/toxics11100837

>  <Molecular Target>
Aedes aegypti

>  <PubChem CID>
8863

>  <Smiles>
CC(CCCC(C)(C)O)CC(OC)OC

>  <Molecular Formula>
C12H26O3

>  <Activity>
1

$$$$
Compound 101
Actelion Java MolfileCreator 2.0

  0  0  0  0  0  0              0 V3000
M  V30 BEGIN CTAB
M  V30 COUNTS 7 6 0 0 0
M  V30 BEGIN ATOM
M  V30 1 O 0.0 0.0 0.0 0
M  V30 2 C 0.6866 -1.2752 0.0 0
M  V30 3 C 1.9618 -0.4795 0.0 0
M  V30 4 C -0.6975 -1.9727 0.0 0
M  V30 5 C 1.3733 -2.5504 0.0 0
M  V30 6 O 3.2371 -1.1771 0.0 0
M  V30 7 O -2.0817 -1.1771 0.0 0
M  V30 END ATOM
M  V30 BEGIN BOND
M  V30 1 1 1 2
M  V30 2 1 2 3
M  V30 3 1 2 4
M  V30 4 1 2 5
M  V30 5 1 3 6
M  V30 6 1 4 7
M  V30 END BOND
M  V30 END CTAB
M  END
>  <Molecule Name>
2-methylpropane-1,2,3-triol

>  <Database>
Pubchem

>  <Reference DOI>
10.1021/acs.jafc.2c05537

>  <Molecular Target>
Aedes albopictus

>  <PubChem CID>
345901

>  <Smiles>
CC(CO)(CO)O

>  <Molecular Formula>
C4H10O3

>  <Activity>
1

$$$$
Compound 102
Actelion Java MolfileCreator 2.0

  0  0  0  0  0  0              0 V3000
M  V30 BEGIN CTAB
M  V30 COUNTS 14 14 0 0 0
M  V30 BEGIN ATOM
M  V30 1 O 0.0 0.0 0.0 0
M  V30 2 C -0.024 1.5241 0.0 0
M  V30 3 O -1.3441 2.2802 0.0 0
M  V30 4 C 1.2481 2.2802 0.0 0
M  V30 5 C -2.6643 1.5361 0.0 0
M  V30 6 C 2.5203 1.5361 0.0 0
M  V30 7 C 1.2241 3.8044 0.0 0
M  V30 8 C -3.9844 2.2922 0.0 0
M  V30 9 O 3.8644 2.1842 0.0 0
M  V30 10 C 2.6523 0.072 0.0 0
M  V30 11 C -5.3046 1.5481 0.0 0
M  V30 12 C -4.0084 3.8164 0.0 0
M  V30 13 C 4.8365 1.1041 0.0 0
M  V30 14 C 4.0925 -0.216 0.0 0
M  V30 END ATOM
M  V30 BEGIN BOND
M  V30 1 2 1 2
M  V30 2 1 2 3
M  V30 3 1 2 4
M  V30 4 1 3 5
M  V30 5 1 4 6
M  V30 6 2 4 7
M  V30 7 1 5 8
M  V30 8 1 6 9
M  V30 9 2 6 10
M  V30 10 2 8 11
M  V30 11 1 8 12
M  V30 12 1 9 13
M  V30 13 1 10 14
M  V30 14 2 13 14
M  V30 END BOND
M  V30 END CTAB
M  END
>  <Molecule Name>
Furylacrylic acid, methallyl ester

>  <Database>
No information

>  <Reference DOI>
10.3390/toxics11100837

>  <Molecular Target>
Aedes aegypti

>  <PubChem CID>


>  <Smiles>
CC(COC(C(c1ccc[o]1)=C)=O)=C

>  <Molecular Formula>
C11H12O3

>  <Activity>
1

$$$$
Compound 103
Actelion Java MolfileCreator 2.0

  0  0  0  0  0  0              0 V3000
M  V30 BEGIN CTAB
M  V30 COUNTS 14 14 0 0 0
M  V30 BEGIN ATOM
M  V30 1 O 0.0 0.0 0.0 0
M  V30 2 C -1.3074 -0.7369 0.0 0
M  V30 3 C -0.0237 1.5095 0.0 0
M  V30 4 C -2.6148 0.0237 0.0 0
M  V30 5 C -1.3312 -2.1988 0.0 0
M  V30 6 C -1.3312 2.2702 0.0 0
M  V30 7 C 1.2361 2.2702 0.0 0
M  V30 8 C -2.6386 1.5332 0.0 0
M  V30 9 C -3.9223 -0.7131 0.0 0
M  V30 10 O -5.2297 0.0356 0.0 0
M  V30 11 C -6.5372 -0.6893 0.0 0
M  V30 12 C -7.8446 0.0594 0.0 0
M  V30 13 O -9.1521 -0.6774 0.0 0
M  V30 14 C -7.8684 1.5689 0.0 0
M  V30 END ATOM
M  V30 BEGIN BOND
M  V30 1 1 1 2
M  V30 2 1 1 3
M  V30 3 1 2 4
M  V30 4 1 2 5
M  V30 5 1 3 6
M  V30 6 1 3 7
M  V30 7 1 4 8
M  V30 8 1 4 9
M  V30 9 1 9 10
M  V30 10 1 10 11
M  V30 11 1 11 12
M  V30 12 1 12 13
M  V30 13 1 12 14
M  V30 14 1 6 8
M  V30 END BOND
M  V30 END CTAB
M  END
>  <Molecule Name>
2,6-Dimethyl-3(2-hydroxypropoxymethyl) tetrahydropyran

>  <Database>
No information

>  <Reference DOI>
10.3390/toxics11100837

>  <Molecular Target>
Aedes aegypti

>  <PubChem CID>


>  <Smiles>
CC(COCC1C(C)OC(C)CC1)O

>  <Molecular Formula>
C11H22O3

>  <Activity>
1

$$$$
Compound 104
Actelion Java MolfileCreator 2.0

  0  0  0  0  0  0              0 V3000
M  V30 BEGIN CTAB
M  V30 COUNTS 13 13 0 0 0
M  V30 BEGIN ATOM
M  V30 1 O 0.0 0.0 0.0 0
M  V30 2 C -0.0239 1.5177 0.0 0
M  V30 3 O -1.3384 2.2706 0.0 0
M  V30 4 C 1.2428 2.2706 0.0 0
M  V30 5 C -2.653 1.5297 0.0 0
M  V30 6 C 1.2189 3.7884 0.0 0
M  V30 7 C 2.5096 1.5297 0.0 0
M  V30 8 C -0.0956 4.5532 0.0 0
M  V30 9 C 2.4857 4.5532 0.0 0
M  V30 10 C 3.7764 2.2826 0.0 0
M  V30 11 O -1.4102 3.8242 0.0 0
M  V30 12 C -0.1195 6.071 0.0 0
M  V30 13 C 3.7525 3.8242 0.0 0
M  V30 END ATOM
M  V30 BEGIN BOND
M  V30 1 2 1 2
M  V30 2 1 2 3
M  V30 3 1 2 4
M  V30 4 1 3 5
M  V30 5 2 4 6
M  V30 6 1 4 7
M  V30 7 1 6 8
M  V30 8 1 6 9
M  V30 9 2 7 10
M  V30 10 2 8 11
M  V30 11 1 8 12
M  V30 12 2 9 13
M  V30 13 1 10 13
M  V30 END BOND
M  V30 END CTAB
M  END
>  <Molecule Name>
o-Acetylbenzoic acid, methyl ester

>  <Database>
No information

>  <Reference DOI>
10.3390/toxics11100837

>  <Molecular Target>
Aedes aegypti

>  <PubChem CID>


>  <Smiles>
CC(c(cccc1)c1C(OC)=O)=O

>  <Molecular Formula>
C10H10O3

>  <Activity>
1

$$$$
Compound 105
Actelion Java MolfileCreator 2.0

  0  0  0  0  0  0              0 V3000
M  V30 BEGIN CTAB
M  V30 COUNTS 13 13 0 0 0
M  V30 BEGIN ATOM
M  V30 1 O 0.0 0.0 0.0 0
M  V30 2 C -1.3073 -0.7368 0.0 0
M  V30 3 C -0.0237 1.5093 0.0 0
M  V30 4 C -2.6146 0.0237 0.0 0
M  V30 5 C -1.331 -2.1986 0.0 0
M  V30 6 C -1.331 2.2699 0.0 0
M  V30 7 C 1.236 2.2699 0.0 0
M  V30 8 C -2.6383 1.5331 0.0 0
M  V30 9 C -3.9219 -0.713 0.0 0
M  V30 10 O -5.2292 0.0356 0.0 0
M  V30 11 C -6.5365 -0.7011 0.0 0
M  V30 12 C -7.8438 0.0594 0.0 0
M  V30 13 O -9.1511 -0.6774 0.0 0
M  V30 END ATOM
M  V30 BEGIN BOND
M  V30 1 1 1 2
M  V30 2 1 1 3
M  V30 3 1 2 4
M  V30 4 1 2 5
M  V30 5 1 3 6
M  V30 6 1 3 7
M  V30 7 1 4 8
M  V30 8 1 4 9
M  V30 9 1 9 10
M  V30 10 1 10 11
M  V30 11 1 11 12
M  V30 12 1 12 13
M  V30 13 1 6 8
M  V30 END BOND
M  V30 END CTAB
M  END
>  <Molecule Name>
2,6-Dimethyl-3-(2-hydroxyethoxymethyl)tetrahydropyran

>  <Database>
No information

>  <Reference DOI>
10.3390/toxics11100837

>  <Molecular Target>
Aedes aegypti

>  <PubChem CID>


>  <Smiles>
CC1OC(C)C(COCCO)CC1

>  <Molecular Formula>
C10H20O3

>  <Activity>
1

$$$$
Compound 106
Actelion Java MolfileCreator 2.0

  0  0  0  0  0  0              0 V3000
M  V30 BEGIN CTAB
M  V30 COUNTS 15 16 0 0 0
M  V30 BEGIN ATOM
M  V30 1 O 0.0 0.0 0.0 0
M  V30 2 C -1.4463 -0.4422 0.0 0
M  V30 3 N -2.6774 0.4542 0.0 0
M  V30 4 C -1.9364 -1.8407 0.0 0
M  V30 5 C -3.9086 -0.3944 0.0 0
M  V30 6 C -2.7014 1.9722 0.0 0
M  V30 7 C -3.4544 -1.8168 0.0 0
M  V30 8 C -1.1953 -3.1078 0.0 0
M  V30 9 O -5.3549 0.0956 0.0 0
M  V30 10 C -4.0162 2.7372 0.0 0
M  V30 11 C -1.4343 2.7372 0.0 0
M  V30 12 C -4.2194 -3.0839 0.0 0
M  V30 13 C -1.9603 -4.3748 0.0 0
M  V30 14 C -5.331 1.9961 0.0 0
M  V30 15 C -3.4903 -4.3509 0.0 0
M  V30 END ATOM
M  V30 BEGIN BOND
M  V30 1 2 1 2
M  V30 2 1 2 3
M  V30 3 1 2 4
M  V30 4 1 3 5
M  V30 5 1 3 6
M  V30 6 1 4 7
M  V30 7 1 4 8
M  V30 8 2 5 9
M  V30 9 1 6 10
M  V30 10 1 6 11
M  V30 11 1 7 12
M  V30 12 1 8 13
M  V30 13 1 10 14
M  V30 14 1 12 15
M  V30 15 1 5 7
M  V30 16 2 13 15
M  V30 END BOND
M  V30 END CTAB
M  END
>  <Molecule Name>
N-sec-Butyl-1,2,3,6-tetrahydrophthalimide

>  <Database>
No information

>  <Reference DOI>
10.3390/toxics11100837

>  <Molecular Target>
Aedes aegypti

>  <PubChem CID>


>  <Smiles>
CCC(C)N(C(C1C2CC=CC1)=O)C2=O

>  <Molecular Formula>
C12H17NO2

>  <Activity>
1

$$$$
Compound 107
Actelion Java MolfileCreator 2.0

  0  0  0  0  0  0              0 V3000
M  V30 BEGIN CTAB
M  V30 COUNTS 15 16 0 0 0
M  V30 BEGIN ATOM
M  V30 1 O 0.0 0.0 0.0 0
M  V30 2 C -1.4463 -0.4422 0.0 0
M  V30 3 N -2.6774 0.4542 0.0 0
M  V30 4 C -1.9364 -1.8407 0.0 0
M  V30 5 C -3.9086 -0.3944 0.0 0
M  V30 6 C -2.7014 1.9722 0.0 0
M  V30 7 C -3.4544 -1.8168 0.0 0
M  V30 8 C -1.1953 -3.1078 0.0 0
M  V30 9 O -5.3549 0.0956 0.0 0
M  V30 10 C -4.0162 2.7372 0.0 0
M  V30 11 C -1.4343 2.7372 0.0 0
M  V30 12 C -4.2194 -3.0839 0.0 0
M  V30 13 C -1.9603 -4.3748 0.0 0
M  V30 14 C -5.331 1.9961 0.0 0
M  V30 15 C -3.4903 -4.3509 0.0 0
M  V30 END ATOM
M  V30 BEGIN BOND
M  V30 1 2 1 2
M  V30 2 1 2 3
M  V30 3 1 2 4
M  V30 4 1 3 5
M  V30 5 1 3 6
M  V30 6 1 4 7
M  V30 7 1 4 8
M  V30 8 2 5 9
M  V30 9 1 6 10
M  V30 10 1 6 11
M  V30 11 1 7 12
M  V30 12 1 8 13
M  V30 13 1 10 14
M  V30 14 1 12 15
M  V30 15 1 5 7
M  V30 16 1 13 15
M  V30 END BOND
M  V30 END CTAB
M  END
>  <Molecule Name>
N-sec-Butylhexahydrophthalimide

>  <Database>
PubChem

>  <Reference DOI>
10.3390/toxics11100837

>  <Molecular Target>
Aedes aegypti

>  <PubChem CID>
12400405

>  <Smiles>
CCC(C)N(C(C1C2CCCC1)=O)C2=O

>  <Molecular Formula>
C12H19NO2

>  <Activity>
1

$$$$
Compound 108
Actelion Java MolfileCreator 2.0

  0  0  0  0  0  0              0 V3000
M  V30 BEGIN CTAB
M  V30 COUNTS 15 16 0 0 0
M  V30 BEGIN ATOM
M  V30 1 O 0.0 0.0 0.0 0
M  V30 2 C -1.4463 -0.4422 0.0 0
M  V30 3 N -2.6774 0.4542 0.0 0
M  V30 4 C -1.9364 -1.8407 0.0 0
M  V30 5 C -3.9086 -0.3944 0.0 0
M  V30 6 C -2.7014 1.9722 0.0 0 CFG=2
M  V30 7 C -3.4544 -1.8168 0.0 0
M  V30 8 C -1.1953 -3.1078 0.0 0
M  V30 9 O -5.3549 0.0956 0.0 0
M  V30 10 C -4.0162 2.7372 0.0 0
M  V30 11 C -1.4343 2.7372 0.0 0
M  V30 12 C -4.2194 -3.0839 0.0 0
M  V30 13 C -1.9603 -4.3748 0.0 0
M  V30 14 C -5.331 1.9961 0.0 0
M  V30 15 C -3.4903 -4.3509 0.0 0
M  V30 END ATOM
M  V30 BEGIN BOND
M  V30 1 2 1 2
M  V30 2 1 2 3
M  V30 3 1 2 4
M  V30 4 1 3 5
M  V30 5 1 3 6
M  V30 6 2 4 7
M  V30 7 1 4 8
M  V30 8 2 5 9
M  V30 9 1 6 10
M  V30 10 1 6 11 CFG=3
M  V30 11 1 7 12
M  V30 12 2 8 13
M  V30 13 1 10 14
M  V30 14 2 12 15
M  V30 15 1 5 7
M  V30 16 1 13 15
M  V30 END BOND
M  V30 BEGIN COLLECTION
M  V30 MDLV30/STERAC1 ATOMS=(1 6)
M  V30 END COLLECTION
M  V30 END CTAB
M  END
>  <Molecule Name>
N-sec-Butylphthalimide

>  <Database>
PubChem

>  <Reference DOI>
10.3390/toxics11100837

>  <Molecular Target>
Aedes aegypti

>  <PubChem CID>
95380

>  <Smiles>
CCC(C)N(C(c1c2cccc1)=O)C2=O

>  <Molecular Formula>
C12H13NO2

>  <Activity>
1

$$$$
Compound 109
Actelion Java MolfileCreator 2.0

  0  0  0  0  0  0              0 V3000
M  V30 BEGIN CTAB
M  V30 COUNTS 14 14 0 0 0
M  V30 BEGIN ATOM
M  V30 1 O 0.0 0.0 0.0 0
M  V30 2 C -0.0239 1.5237 0.0 0
M  V30 3 O -1.3438 2.2916 0.0 0
M  V30 4 C 1.2478 2.2916 0.0 0
M  V30 5 C -2.6636 1.5477 0.0 0 CFG=2
M  V30 6 C 2.5196 1.5477 0.0 0
M  V30 7 C -3.9834 2.3156 0.0 0
M  V30 8 C -2.6876 0.0719 0.0 0
M  V30 9 C 3.7914 2.3156 0.0 0
M  V30 10 C -5.3032 1.5717 0.0 0
M  V30 11 O 3.9234 3.8274 0.0 0
M  V30 12 C 5.1352 1.7157 0.0 0
M  V30 13 C 5.3632 4.1633 0.0 0
M  V30 14 C 6.1071 2.8435 0.0 0
M  V30 END ATOM
M  V30 BEGIN BOND
M  V30 1 2 1 2
M  V30 2 1 2 3
M  V30 3 1 2 4
M  V30 4 1 3 5
M  V30 5 2 4 6 CFG=2
M  V30 6 1 5 7
M  V30 7 1 5 8 CFG=1
M  V30 8 1 6 9
M  V30 9 1 7 10
M  V30 10 1 9 11
M  V30 11 2 9 12
M  V30 12 1 11 13
M  V30 13 1 12 14
M  V30 14 2 13 14
M  V30 END BOND
M  V30 BEGIN COLLECTION
M  V30 MDLV30/STERAC1 ATOMS=(1 5)
M  V30 END COLLECTION
M  V30 END CTAB
M  END
>  <Molecule Name>
Furfurylideneacetic acid, sec-butyl ester

>  <Database>
No information

>  <Reference DOI>
10.3390/toxics11100837

>  <Molecular Target>
Aedes aegypti

>  <PubChem CID>


>  <Smiles>
CCC(C)OC(C=Cc1ccc[o]1)=O

>  <Molecular Formula>
C11H14O3

>  <Activity>
1

$$$$
Compound 110
Actelion Java MolfileCreator 2.0

  0  0  0  0  0  0              0 V3000
M  V30 BEGIN CTAB
M  V30 COUNTS 15 15 0 0 0
M  V30 BEGIN ATOM
M  V30 1 O 0.0 0.0 0.0 0
M  V30 2 C -1.3043 0.747 0.0 0
M  V30 3 C -1.328 2.2529 0.0 0
M  V30 4 C -2.6086 0.0237 0.0 0
M  V30 5 C -2.6323 2.9999 0.0 0
M  V30 6 C -3.9129 0.7825 0.0 0
M  V30 7 C -3.9366 2.2766 0.0 0
M  V30 8 C -2.656 4.5058 0.0 0
M  V30 9 C -5.2172 0.0474 0.0 0
M  V30 10 C -5.2409 3.0236 0.0 0
M  V30 11 C -6.5216 0.7944 0.0 0
M  V30 12 O -5.2647 4.5295 0.0 0
M  V30 13 O -6.5453 2.3003 0.0 0
M  V30 14 C -7.8496 3.0473 0.0 0
M  V30 15 C -9.1539 2.324 0.0 0
M  V30 END ATOM
M  V30 BEGIN BOND
M  V30 1 2 1 2
M  V30 2 1 2 3
M  V30 3 1 2 4
M  V30 4 2 3 5
M  V30 5 1 4 6
M  V30 6 1 5 7
M  V30 7 1 5 8
M  V30 8 1 6 9
M  V30 9 1 7 10
M  V30 10 1 9 11
M  V30 11 2 10 12
M  V30 12 1 10 13
M  V30 13 1 13 14
M  V30 14 1 14 15
M  V30 15 1 6 7
M  V30 END BOND
M  V30 END CTAB
M  END
>  <Molecule Name>
6-ethyl-2-methyl-4-oxo-2-cyclohexene-1-carboxylic acid, ethyl ester

>  <Database>
PubChem

>  <Reference DOI>
10.3390/toxics11100837

>  <Molecular Target>
Aedes aegypti

>  <PubChem CID>
221293

>  <Smiles>
CCC(C1)C(C(OCC)=O)C(C)=CC1=O

>  <Molecular Formula>
C12H18O3

>  <Activity>
1

$$$$
Compound 111
Actelion Java MolfileCreator 2.0

  0  0  0  0  0  0              0 V3000
M  V30 BEGIN CTAB
M  V30 COUNTS 9 8 0 0 0
M  V30 BEGIN ATOM
M  V30 1 O 0.0 0.0 0.0 0
M  V30 2 C -1.342 0.7714 0.0 0
M  V30 3 C -2.6841 0.1056 0.0 0
M  V30 4 C -4.0262 -0.56 0.0 0
M  V30 5 C -3.4556 1.4477 0.0 0
M  V30 6 C -2.0184 -1.1307 0.0 0
M  V30 7 O -5.3683 0.2113 0.0 0
M  V30 8 O -2.7898 2.7898 0.0 0
M  V30 9 C -2.7898 -2.3671 0.0 0
M  V30 END ATOM
M  V30 BEGIN BOND
M  V30 1 1 1 2
M  V30 2 1 2 3
M  V30 3 1 3 4
M  V30 4 1 3 5
M  V30 5 1 3 6
M  V30 6 1 4 7
M  V30 7 1 5 8
M  V30 8 1 6 9
M  V30 END BOND
M  V30 END CTAB
M  END
>  <Molecule Name>
2-ethyl-2-(hydroxymethyl)propane-1,3-diol

>  <Database>
Pubchem

>  <Reference DOI>
10.1021/acs.jafc.2c05537

>  <Molecular Target>
Aedes albopictus

>  <PubChem CID>
6510

>  <Smiles>
CCC(CO)(CO)CO

>  <Molecular Formula>
C6H14O3

>  <Activity>
1

$$$$
Compound 112
Actelion Java MolfileCreator 2.0

  0  0  0  0  0  0              0 V3000
M  V30 BEGIN CTAB
M  V30 COUNTS 14 14 0 0 0
M  V30 BEGIN ATOM
M  V30 1 O 0.0 0.0 0.0 0
M  V30 2 C -0.0238 1.5176 0.0 0
M  V30 3 O -1.3383 2.2704 0.0 0
M  V30 4 C 1.2427 2.2704 0.0 0
M  V30 5 C -2.6528 1.5415 0.0 0
M  V30 6 C 2.5094 1.5415 0.0 0
M  V30 7 C -3.9673 2.3063 0.0 0 CFG=2
M  V30 8 O -3.9912 3.8239 0.0 0
M  V30 9 C -5.2818 1.5773 0.0 0
M  V30 10 C -6.5962 2.3421 0.0 0
M  V30 11 C -5.3057 0.1075 0.0 0
M  V30 12 C -7.9107 1.6132 0.0 0
M  V30 13 C -6.6201 -0.6213 0.0 0
M  V30 14 C -7.9346 0.1433 0.0 0
M  V30 END ATOM
M  V30 BEGIN BOND
M  V30 1 2 1 2
M  V30 2 1 2 3
M  V30 3 1 2 4
M  V30 4 1 3 5
M  V30 5 1 4 6
M  V30 6 1 5 7
M  V30 7 1 7 8 CFG=1
M  V30 8 1 7 9
M  V30 9 2 9 10
M  V30 10 1 9 11
M  V30 11 1 10 12
M  V30 12 2 11 13
M  V30 13 2 12 14
M  V30 14 1 13 14
M  V30 END BOND
M  V30 BEGIN COLLECTION
M  V30 MDLV30/STERAC1 ATOMS=(1 7)
M  V30 END COLLECTION
M  V30 END CTAB
M  END
>  <Molecule Name>
propionic acid, 2-phenyl-2-hydroxyethyl ester

>  <Database>
PubChem

>  <Reference DOI>
10.3390/toxics11100837

>  <Molecular Target>
Aedes aegypti

>  <PubChem CID>
14193827

>  <Smiles>
CCC(OCC(c1ccccc1)O)=O

>  <Molecular Formula>
C11H14O3

>  <Activity>
1

$$$$
Compound 113
Actelion Java MolfileCreator 2.0

  0  0  0  0  0  0              0 V3000
M  V30 BEGIN CTAB
M  V30 COUNTS 14 14 0 0 0
M  V30 BEGIN ATOM
M  V30 1 O 0.0 0.0 0.0 0
M  V30 2 C -0.0232 -1.476 0.0 0
M  V30 3 O -1.3482 -2.185 0.0 0
M  V30 4 C 1.2552 -2.185 0.0 0
M  V30 5 C -2.6731 -1.4063 0.0 0
M  V30 6 C 2.5337 -1.4063 0.0 0
M  V30 7 C -3.9981 -2.1153 0.0 0
M  V30 8 C -5.3231 -1.3249 0.0 0
M  V30 9 C -4.0214 -3.5913 0.0 0
M  V30 10 C -6.6481 -2.0339 0.0 0
M  V30 11 C -5.3463 -4.3003 0.0 0
M  V30 12 C -6.6713 -3.51 0.0 0
M  V30 13 O -7.9963 -4.219 0.0 0
M  V30 14 C -8.0195 -5.695 0.0 0
M  V30 END ATOM
M  V30 BEGIN BOND
M  V30 1 2 1 2
M  V30 2 1 2 3
M  V30 3 1 2 4
M  V30 4 1 3 5
M  V30 5 1 4 6
M  V30 6 1 5 7
M  V30 7 2 7 8
M  V30 8 1 7 9
M  V30 9 1 8 10
M  V30 10 2 9 11
M  V30 11 2 10 12
M  V30 12 1 12 13
M  V30 13 1 13 14
M  V30 14 1 11 12
M  V30 END BOND
M  V30 END CTAB
M  END
>  <Molecule Name>
Propionic acid, p-methoxybenzyl ester

>  <Database>
PubChem

>  <Reference DOI>
10.3390/toxics11100837

>  <Molecular Target>
Aedes aegypti

>  <PubChem CID>
61417

>  <Smiles>
CCC(OCc(cc1)ccc1OC)=O

>  <Molecular Formula>
C11H14O3

>  <Activity>
1

$$$$
Compound 114
Actelion Java MolfileCreator 2.0

  0  0  0  0  0  0              0 V3000
M  V30 BEGIN CTAB
M  V30 COUNTS 15 14 0 0 0
M  V30 BEGIN ATOM
M  V30 1 O 0.0 0.0 0.0 0
M  V30 2 C -0.0239 -1.4737 0.0 0
M  V30 3 O -1.3419 -2.2166 0.0 0
M  V30 4 C 1.2461 -2.2166 0.0 0
M  V30 5 C -2.6599 -1.4378 0.0 0
M  V30 6 C 2.5161 -1.4378 0.0 0
M  V30 7 C -3.9779 -2.1806 0.0 0
M  V30 8 C 3.7862 -2.1806 0.0 0
M  V30 9 C -5.2959 -1.4138 0.0 0
M  V30 10 C -4.0019 -3.6544 0.0 0
M  V30 11 O -5.3198 0.1078 0.0 0
M  V30 12 C -6.6139 -2.1567 0.0 0
M  V30 13 C -2.7318 -4.3853 0.0 0
M  V30 14 C -7.9319 -1.3898 0.0 0
M  V30 15 C -9.2499 -2.1327 0.0 0
M  V30 END ATOM
M  V30 BEGIN BOND
M  V30 1 2 1 2
M  V30 2 1 2 3
M  V30 3 1 2 4
M  V30 4 1 3 5
M  V30 5 1 4 6
M  V30 6 1 5 7
M  V30 7 1 6 8
M  V30 8 1 7 9
M  V30 9 1 7 10
M  V30 10 1 9 11
M  V30 11 1 9 12
M  V30 12 1 10 13
M  V30 13 1 12 14
M  V30 14 1 14 15
M  V30 END BOND
M  V30 END CTAB
M  END
>  <Molecule Name>
n-Butyric acid, 2-ethyl-3-hydroxyhexyl ester

>  <Database>
PubChem

>  <Reference DOI>
10.3390/toxics11100837

>  <Molecular Target>
Aedes aegypti

>  <PubChem CID>
347867

>  <Smiles>
CCCC(C(CC)COC(CCC)=O)O

>  <Molecular Formula>
C12H24O3

>  <Activity>
1

$$$$
Compound 115
Actelion Java MolfileCreator 2.0

  0  0  0  0  0  0              0 V3000
M  V30 BEGIN CTAB
M  V30 COUNTS 13 13 0 0 0
M  V30 BEGIN ATOM
M  V30 1 O 0.0 0.0 0.0 0
M  V30 2 C -0.0235 -1.4935 0.0 0
M  V30 3 C 1.2701 -2.2344 0.0 0 CFG=1
M  V30 4 C -1.3641 -2.2109 0.0 0
M  V30 5 O 2.5637 -1.4465 0.0 0
M  V30 6 C 1.2465 -3.7279 0.0 0
M  V30 7 C -1.3877 -3.7044 0.0 0
M  V30 8 C 3.8573 -2.1638 0.0 0
M  V30 9 C -0.094 -4.4453 0.0 0
M  V30 10 O 3.8338 -3.6574 0.0 0
M  V30 11 C 5.1509 -1.3759 0.0 0
M  V30 12 C 6.4445 -2.0933 0.0 0
M  V30 13 C 7.7382 -1.3053 0.0 0
M  V30 END ATOM
M  V30 BEGIN BOND
M  V30 1 2 1 2
M  V30 2 1 2 3
M  V30 3 1 2 4
M  V30 4 1 3 5 CFG=1
M  V30 5 1 3 6
M  V30 6 1 4 7
M  V30 7 1 5 8
M  V30 8 1 6 9
M  V30 9 2 8 10
M  V30 10 1 8 11
M  V30 11 1 11 12
M  V30 12 1 12 13
M  V30 13 1 7 9
M  V30 END BOND
M  V30 BEGIN COLLECTION
M  V30 MDLV30/STERAC1 ATOMS=(1 3)
M  V30 END COLLECTION
M  V30 END CTAB
M  END
>  <Molecule Name>
Butyric acid, 2-cyclohexanonyl ester

>  <Database>
PubChem

>  <Reference DOI>
10.3390/toxics11100837

>  <Molecular Target>
Aedes aegypti

>  <PubChem CID>
53812450

>  <Smiles>
CCCC(OC(CCCC1)C1=O)=O

>  <Molecular Formula>
C10H16O3

>  <Activity>
1

$$$$
Compound 116
Actelion Java MolfileCreator 2.0

  0  0  0  0  0  0              0 V3000
M  V30 BEGIN CTAB
M  V30 COUNTS 14 13 0 0 0
M  V30 BEGIN ATOM
M  V30 1 O 0.0 0.0 0.0 0
M  V30 2 C -1.3041 0.7587 0.0 0
M  V30 3 O -1.3278 2.2645 0.0 0
M  V30 4 C -2.6083 0.0237 0.0 0
M  V30 5 C -3.9125 0.7825 0.0 0
M  V30 6 C -5.2167 0.0474 0.0 0 CFG=1
M  V30 7 C -5.2404 -1.4108 0.0 0
M  V30 8 C -6.5208 0.8062 0.0 0
M  V30 9 C -5.2404 1.5531 0.0 0
M  V30 10 O -6.5446 -2.1459 0.0 0
M  V30 11 C -7.825 0.0711 0.0 0
M  V30 12 C -6.5446 2.3119 0.0 0
M  V30 13 C -9.1292 0.8299 0.0 0
M  V30 14 C -10.4334 0.0948 0.0 0
M  V30 END ATOM
M  V30 BEGIN BOND
M  V30 1 2 1 2
M  V30 2 1 2 3
M  V30 3 1 2 4
M  V30 4 1 4 5
M  V30 5 1 5 6
M  V30 6 1 6 7
M  V30 7 1 6 8
M  V30 8 1 6 9 CFG=3
M  V30 9 2 7 10
M  V30 10 1 8 11
M  V30 11 1 9 12
M  V30 12 1 11 13
M  V30 13 1 13 14
M  V30 END BOND
M  V30 BEGIN COLLECTION
M  V30 MDLV30/STERAC1 ATOMS=(1 6)
M  V30 END COLLECTION
M  V30 END CTAB
M  END
>  <Molecule Name>
2-(beta-Carboxyethyl)-2-ethyl-hexanal

>  <Database>
PubChem

>  <Reference DOI>
10.3390/toxics11100837

>  <Molecular Target>
Aedes aegypti

>  <PubChem CID>
121216957

>  <Smiles>
CCCCC(CC)(CCC(O)=O)C=O

>  <Molecular Formula>
C11H20O3

>  <Activity>
1

$$$$
Compound 117
Actelion Java MolfileCreator 2.0

  0  0  0  0  0  0              0 V3000
M  V30 BEGIN CTAB
M  V30 COUNTS 20 22 0 0 0
M  V30 BEGIN ATOM
M  V30 1 O 0.0 0.0 0.0 0
M  V30 2 C -0.1412 1.3313 0.0 0
M  V30 3 N -1.3111 2.1583 0.0 0
M  V30 4 C 0.7866 2.2188 0.0 0
M  V30 5 C -1.0489 3.4493 0.0 0
M  V30 6 C -2.6021 1.8154 0.0 0
M  V30 7 C 0.242 3.5098 0.0 0
M  V30 8 C 2.4004 3.0862 0.0 0
M  V30 9 O -1.9566 4.5789 0.0 0
M  V30 10 C -2.9248 0.6454 0.0 0
M  V30 11 C 2.6424 4.4175 0.0 0
M  V30 12 C 4.0545 2.5214 0.0 0
M  V30 13 C 1.6742 5.648 0.0 0
M  V30 14 C -4.2158 0.3025 0.0 0
M  V30 15 C -2.0373 -0.0806 0.0 0
M  V30 16 C 4.2965 3.8527 0.0 0
M  V30 17 C -4.5386 -0.8673 0.0 0
M  V30 18 C -2.36 -1.2506 0.0 0
M  V30 19 C -5.8296 -1.2102 0.0 0
M  V30 20 C -6.1523 -2.3802 0.0 0
M  V30 END ATOM
M  V30 BEGIN BOND
M  V30 1 2 1 2
M  V30 2 1 2 3
M  V30 3 1 2 4
M  V30 4 1 3 5
M  V30 5 1 3 6
M  V30 6 1 4 7
M  V30 7 1 4 8
M  V30 8 2 5 9
M  V30 9 1 6 10
M  V30 10 1 7 11
M  V30 11 1 8 12
M  V30 12 1 8 13
M  V30 13 1 10 14
M  V30 14 1 10 15
M  V30 15 1 11 16
M  V30 16 1 14 17
M  V30 17 1 15 18
M  V30 18 1 17 19
M  V30 19 1 19 20
M  V30 20 1 5 7
M  V30 21 1 11 13
M  V30 22 2 12 16
M  V30 END BOND
M  V30 END CTAB
M  END
>  <Molecule Name>
N-(2-Ethylhexyl)-5-norbornene-2,3-dicarboximide
MGK-264

>  <Database>
Pubchem

>  <Reference DOI>
10.1007/978-3-031-07434-9_5

>  <Molecular Target>
Acyrthosiphon pisum

>  <PubChem CID>
8227

>  <Smiles>
CCCCC(CC)CN(C(C1C2C3C=CC1C3)=O)C2=O

>  <Molecular Formula>
C17H25NO2

>  <Activity>
1

$$$$
Compound 118
Actelion Java MolfileCreator 2.0

  0  0  0  0  0  0              0 V3000
M  V30 BEGIN CTAB
M  V30 COUNTS 14 13 0 0 0
M  V30 BEGIN ATOM
M  V30 1 O 0.0 0.0 0.0 0
M  V30 2 C 1.2768 0.7777 0.0 0
M  V30 3 C -1.3233 0.7777 0.0 0
M  V30 4 C 2.5537 0.0464 0.0 0
M  V30 5 C -2.6466 0.0464 0.0 0
M  V30 6 O 2.5305 -1.4278 0.0 0
M  V30 7 C 3.8306 0.8241 0.0 0
M  V30 8 C -3.9699 0.8241 0.0 0
M  V30 9 C -2.6698 -1.4278 0.0 0
M  V30 10 O 5.1075 0.0812 0.0 0
M  V30 11 C -5.2933 0.0812 0.0 0
M  V30 12 C -1.3929 -2.1359 0.0 0
M  V30 13 C -6.6166 0.859 0.0 0
M  V30 14 C -7.9399 0.116 0.0 0
M  V30 END ATOM
M  V30 BEGIN BOND
M  V30 1 1 1 2
M  V30 2 1 1 3
M  V30 3 1 2 4
M  V30 4 1 3 5
M  V30 5 1 4 6
M  V30 6 1 4 7
M  V30 7 1 5 8
M  V30 8 1 5 9
M  V30 9 1 7 10
M  V30 10 1 8 11
M  V30 11 1 9 12
M  V30 12 1 11 13
M  V30 13 1 13 14
M  V30 END BOND
M  V30 END CTAB
M  END
>  <Molecule Name>
2-Ethylhexyl glyceryl ether

>  <Database>
PubChem

>  <Reference DOI>
10.3390/toxics11100837

>  <Molecular Target>
Aedes aegypti

>  <PubChem CID>
9859093

>  <Smiles>
CCCCC(CC)COCC(CO)O

>  <Molecular Formula>
C11H24O3

>  <Activity>
1

$$$$
Compound 119
Actelion Java MolfileCreator 2.0

  0  0  0  0  0  0              0 V3000
M  V30 BEGIN CTAB
M  V30 COUNTS 12 11 0 0 0
M  V30 BEGIN ATOM
M  V30 1 O 0.0 0.0 0.0 0
M  V30 2 C -0.0232 -1.4755 0.0 0
M  V30 3 O -1.3477 -2.2191 0.0 0
M  V30 4 C 1.2548 -2.2191 0.0 0
M  V30 5 C -2.6722 -1.4407 0.0 0
M  V30 6 C 2.5328 -1.4407 0.0 0
M  V30 7 C -3.9968 -2.161 0.0 0
M  V30 8 C 3.8109 -2.161 0.0 0
M  V30 9 C -5.3213 -1.3826 0.0 0
M  V30 10 C 5.0889 -1.3826 0.0 0
M  V30 11 O -6.6458 -2.1146 0.0 0
M  V30 12 C 6.367 -2.1146 0.0 0
M  V30 END ATOM
M  V30 BEGIN BOND
M  V30 1 2 1 2
M  V30 2 1 2 3
M  V30 3 1 2 4
M  V30 4 1 3 5
M  V30 5 1 4 6
M  V30 6 1 5 7
M  V30 7 1 6 8
M  V30 8 1 7 9
M  V30 9 1 8 10
M  V30 10 1 9 11
M  V30 11 1 10 12
M  V30 END BOND
M  V30 END CTAB
M  END
>  <Molecule Name>
Caproic acid, 3-hydroxypropyl ester

>  <Database>
PubChem

>  <Reference DOI>
10.3390/toxics11100837

>  <Molecular Target>
Aedes aegypti

>  <PubChem CID>
243665

>  <Smiles>
CCCCCC(OCCCO)=O

>  <Molecular Formula>
C9H18O3

>  <Activity>
1

$$$$
Compound 120
Actelion Java MolfileCreator 2.0

  0  0  0  0  0  0              0 V3000
M  V30 BEGIN CTAB
M  V30 COUNTS 15 14 0 0 0
M  V30 BEGIN ATOM
M  V30 1 O 0.0 0.0 0.0 0
M  V30 2 C -0.0231 -1.4709 0.0 0
M  V30 3 O 1.2508 -2.2005 0.0 0
M  V30 4 C -1.3435 -2.2005 0.0 0 CFG=1
M  V30 5 C 2.5248 -1.4129 0.0 0
M  V30 6 O -1.3666 -3.6714 0.0 0
M  V30 7 C -2.6638 -1.4129 0.0 0
M  V30 8 C 3.7988 -2.1426 0.0 0
M  V30 9 C -3.9841 -2.1426 0.0 0
M  V30 10 C 5.0728 -1.355 0.0 0
M  V30 11 C -5.3045 -1.355 0.0 0
M  V30 12 C 6.3468 -2.0963 0.0 0
M  V30 13 C -6.6248 -2.0963 0.0 0
M  V30 14 C -7.9451 -1.3087 0.0 0
M  V30 15 C -9.2655 -2.0384 0.0 0
M  V30 END ATOM
M  V30 BEGIN BOND
M  V30 1 2 1 2
M  V30 2 1 2 3
M  V30 3 1 2 4
M  V30 4 1 3 5
M  V30 5 1 4 6 CFG=1
M  V30 6 1 4 7
M  V30 7 1 5 8
M  V30 8 1 7 9
M  V30 9 1 8 10
M  V30 10 1 9 11
M  V30 11 1 10 12
M  V30 12 1 11 13
M  V30 13 1 13 14
M  V30 14 1 14 15
M  V30 END BOND
M  V30 BEGIN COLLECTION
M  V30 MDLV30/STERAC1 ATOMS=(1 4)
M  V30 END COLLECTION
M  V30 END CTAB
M  END
>  <Molecule Name>
2-Hydroxycaprylic acid, n-butyl ester

>  <Database>
PubChem

>  <Reference DOI>
10.3390/toxics11100837

>  <Molecular Target>
Aedes aegypti

>  <PubChem CID>
347866

>  <Smiles>
CCCCCCC(C(OCCCC)=O)O

>  <Molecular Formula>
C12H24O3

>  <Activity>
1

$$$$
Compound 121
Actelion Java MolfileCreator 2.0

  0  0  0  0  0  0              0 V3000
M  V30 BEGIN CTAB
M  V30 COUNTS 19 18 0 0 0
M  V30 BEGIN ATOM
M  V30 1 O 0.0 0.0 0.0 0
M  V30 2 C -0.0239 -1.4726 0.0 0
M  V30 3 O -1.3409 -2.2149 0.0 0
M  V30 4 C 1.2451 -2.2149 0.0 0
M  V30 5 C -2.6579 -1.4367 0.0 0
M  V30 6 C 2.5142 -1.4367 0.0 0
M  V30 7 O -2.6818 0.0838 0.0 0
M  V30 8 C -3.9748 -2.179 0.0 0
M  V30 9 C 3.7833 -2.179 0.0 0
M  V30 10 C -5.2918 -1.4007 0.0 0
M  V30 11 C 5.0524 -1.4007 0.0 0
M  V30 12 C -6.6088 -2.143 0.0 0
M  V30 13 C 6.3215 -2.143 0.0 0
M  V30 14 C -7.9258 -1.3768 0.0 0
M  V30 15 C 7.5906 -1.3768 0.0 0
M  V30 16 C -9.2428 -2.1191 0.0 0
M  V30 17 C 8.8597 -2.1191 0.0 0
M  V30 18 C -10.5598 -1.3529 0.0 0
M  V30 19 C -11.8767 -2.0951 0.0 0
M  V30 END ATOM
M  V30 BEGIN BOND
M  V30 1 2 1 2
M  V30 2 1 2 3
M  V30 3 1 2 4
M  V30 4 1 3 5
M  V30 5 1 4 6
M  V30 6 2 5 7
M  V30 7 1 5 8
M  V30 8 1 6 9
M  V30 9 1 8 10
M  V30 10 1 9 11
M  V30 11 1 10 12
M  V30 12 1 11 13
M  V30 13 1 12 14
M  V30 14 1 13 15
M  V30 15 1 14 16
M  V30 16 1 15 17
M  V30 17 1 16 18
M  V30 18 1 18 19
M  V30 END BOND
M  V30 END CTAB
M  END
>  <Molecule Name>
Caprylic anhydride

>  <Database>
Pubchem

>  <Reference DOI>
10.3390/toxics11100837

>  <Molecular Target>
Aedes aegypti

>  <PubChem CID>
69340

>  <Smiles>
CCCCCCCC(OC(CCCCCCC)=O)=O

>  <Molecular Formula>
C16H30O3

>  <Activity>
1

$$$$
Compound 122
Actelion Java MolfileCreator 2.0

  0  0  0  0  0  0              0 V3000
M  V30 BEGIN CTAB
M  V30 COUNTS 15 15 0 0 0
M  V30 BEGIN ATOM
M  V30 1 O 0.0 0.0 0.0 0
M  V30 2 C 0.2916 -1.4581 0.0 0
M  V30 3 N 1.6564 -2.0413 0.0 0
M  V30 4 C -0.7465 -2.5662 0.0 0
M  V30 5 C 1.4814 -3.5227 0.0 0
M  V30 6 C 2.9512 -1.2481 0.0 0
M  V30 7 C -0.0233 -3.861 0.0 0
M  V30 8 O 2.5896 -4.5143 0.0 0
M  V30 9 C 4.246 -1.9713 0.0 0
M  V30 10 C 5.5408 -1.1781 0.0 0
M  V30 11 C 6.8356 -1.9013 0.0 0
M  V30 12 C 8.1304 -1.1081 0.0 0
M  V30 13 C 9.4252 -1.8313 0.0 0
M  V30 14 C 10.72 -1.0381 0.0 0
M  V30 15 C 12.0148 -1.7613 0.0 0
M  V30 END ATOM
M  V30 BEGIN BOND
M  V30 1 2 1 2
M  V30 2 1 2 3
M  V30 3 1 2 4
M  V30 4 1 3 5
M  V30 5 1 3 6
M  V30 6 1 4 7
M  V30 7 2 5 8
M  V30 8 1 6 9
M  V30 9 1 9 10
M  V30 10 1 10 11
M  V30 11 1 11 12
M  V30 12 1 12 13
M  V30 13 1 13 14
M  V30 14 1 14 15
M  V30 15 1 5 7
M  V30 END BOND
M  V30 END CTAB
M  END
>  <Molecule Name>
N-n-Octylsuccinimide

>  <Database>
PubChem

>  <Reference DOI>
10.3390/toxics11100837

>  <Molecular Target>
Aedes aegypti

>  <PubChem CID>
256601

>  <Smiles>
CCCCCCCCN(C(CC1)=O)C1=O

>  <Molecular Formula>
C12H21NO2

>  <Activity>
1

$$$$
Compound 123
Actelion Java MolfileCreator 2.0

  0  0  0  0  0  0              0 V3000
M  V30 BEGIN CTAB
M  V30 COUNTS 17 17 0 0 0
M  V30 BEGIN ATOM
M  V30 1 O 0.0 0.0 0.0 0
M  V30 2 C -0.0233 -1.4803 0.0 0
M  V30 3 O -1.3521 -2.1914 0.0 0
M  V30 4 C 1.2589 -2.1914 0.0 0 CFG=2
M  V30 5 C -2.681 -1.4104 0.0 0
M  V30 6 O 2.5411 -1.4104 0.0 0
M  V30 7 C 1.2355 -3.6718 0.0 0
M  V30 8 C -4.0098 -2.1214 0.0 0
M  V30 9 C -0.0932 -4.3945 0.0 0
M  V30 10 C 2.5178 -4.3828 0.0 0
M  V30 11 C -5.3386 -1.3405 0.0 0
M  V30 12 C -0.1165 -5.8748 0.0 0
M  V30 13 C 2.4944 -5.8632 0.0 0
M  V30 14 C -6.6675 -2.0515 0.0 0
M  V30 15 C 1.1656 -6.5859 0.0 0
M  V30 16 C -7.9963 -1.2705 0.0 0
M  V30 17 C -9.3252 -1.9816 0.0 0
M  V30 END ATOM
M  V30 BEGIN BOND
M  V30 1 2 1 2
M  V30 2 1 2 3
M  V30 3 1 2 4
M  V30 4 1 3 5
M  V30 5 1 4 6 CFG=3
M  V30 6 1 4 7
M  V30 7 1 5 8
M  V30 8 2 7 9
M  V30 9 1 7 10
M  V30 10 1 8 11
M  V30 11 1 9 12
M  V30 12 2 10 13
M  V30 13 1 11 14
M  V30 14 2 12 15
M  V30 15 1 14 16
M  V30 16 1 16 17
M  V30 17 1 13 15
M  V30 END BOND
M  V30 BEGIN COLLECTION
M  V30 MDLV30/STERAC1 ATOMS=(1 4)
M  V30 END COLLECTION
M  V30 END CTAB
M  END
>  <Molecule Name>
Mandelic acid, n-hexyl ester

>  <Database>
Pubchem

>  <Reference DOI>
10.3390/toxics11100837

>  <Molecular Target>
Aedes aegypti

>  <PubChem CID>
21565

>  <Smiles>
CCCCCCOC(C(c1ccccc1)O)=O

>  <Molecular Formula>
C14H20O3

>  <Activity>
1

$$$$
Compound 124
Actelion Java MolfileCreator 2.0

  0  0  0  0  0  0              0 V3000
M  V30 BEGIN CTAB
M  V30 COUNTS 12 11 0 0 0
M  V30 BEGIN ATOM
M  V30 1 O 0.0 0.0 0.0 0
M  V30 2 C 1.2686 0.7842 0.0 0
M  V30 3 C -1.3148 0.7842 0.0 0
M  V30 4 C 2.5373 0.0461 0.0 0 CFG=1
M  V30 5 C -2.6296 0.0461 0.0 0
M  V30 6 O 2.5143 -1.4186 0.0 0
M  V30 7 C 3.806 0.8304 0.0 0
M  V30 8 C -3.9444 0.8304 0.0 0
M  V30 9 O 5.0747 0.0922 0.0 0
M  V30 10 C -5.2592 0.0922 0.0 0
M  V30 11 C -6.574 0.8765 0.0 0
M  V30 12 C -7.8889 0.1384 0.0 0
M  V30 END ATOM
M  V30 BEGIN BOND
M  V30 1 1 1 2
M  V30 2 1 1 3
M  V30 3 1 2 4
M  V30 4 1 3 5
M  V30 5 1 4 6 CFG=3
M  V30 6 1 4 7
M  V30 7 1 5 8
M  V30 8 1 7 9
M  V30 9 1 8 10
M  V30 10 1 10 11
M  V30 11 1 11 12
M  V30 END BOND
M  V30 BEGIN COLLECTION
M  V30 MDLV30/STERAC1 ATOMS=(1 4)
M  V30 END COLLECTION
M  V30 END CTAB
M  END
>  <Molecule Name>
n-Hexyl glyceryl ether

>  <Database>
No information

>  <Reference DOI>
10.3390/toxics11100837

>  <Molecular Target>
Aedes aegypti

>  <PubChem CID>


>  <Smiles>
CCCCCCOCC(CO)O

>  <Molecular Formula>
C9H20O3

>  <Activity>
1

$$$$
Compound 125
Actelion Java MolfileCreator 2.0

  0  0  0  0  0  0              0 V3000
M  V30 BEGIN CTAB
M  V30 COUNTS 12 12 0 0 0
M  V30 BEGIN ATOM
M  V30 1 O 0.0 0.0 0.0 0
M  V30 2 C 0.2913 -1.4568 0.0 0
M  V30 3 N 1.655 -2.0396 0.0 0
M  V30 4 C -0.7459 -2.564 0.0 0
M  V30 5 C 1.4801 -3.5197 0.0 0
M  V30 6 C 2.9486 -1.247 0.0 0
M  V30 7 C -0.0233 -3.8577 0.0 0
M  V30 8 O 2.5873 -4.5104 0.0 0
M  V30 9 C 4.2423 -1.9696 0.0 0
M  V30 10 C 5.536 -1.1771 0.0 0
M  V30 11 C 6.8297 -1.8997 0.0 0
M  V30 12 C 8.1234 -1.1072 0.0 0
M  V30 END ATOM
M  V30 BEGIN BOND
M  V30 1 2 1 2
M  V30 2 1 2 3
M  V30 3 1 2 4
M  V30 4 1 3 5
M  V30 5 1 3 6
M  V30 6 1 4 7
M  V30 7 2 5 8
M  V30 8 1 6 9
M  V30 9 1 9 10
M  V30 10 1 10 11
M  V30 11 1 11 12
M  V30 12 1 5 7
M  V30 END BOND
M  V30 END CTAB
M  END
>  <Molecule Name>
N-(n-Amyl) succinimide

>  <Database>
PubChem

>  <Reference DOI>
10.3390/toxics11100837

>  <Molecular Target>
Aedes aegypti

>  <PubChem CID>
79245

>  <Smiles>
CCCCCN(C(CC1)=O)C1=O

>  <Molecular Formula>
C9H15NO2

>  <Activity>
1

$$$$
Compound 126
Actelion Java MolfileCreator 2.0

  0  0  0  0  0  0              0 V3000
M  V30 BEGIN CTAB
M  V30 COUNTS 15 16 0 0 0
M  V30 BEGIN ATOM
M  V30 1 O 0.0 0.0 0.0 0
M  V30 2 C -1.1227 1.0152 0.0 0
M  V30 3 N -0.9913 2.5201 0.0 0
M  V30 4 C -2.6037 0.7285 0.0 0
M  V30 5 C -2.3767 3.165 0.0 0
M  V30 6 C 0.2747 3.2845 0.0 0
M  V30 7 C -3.3681 2.0423 0.0 0
M  V30 8 C -3.3681 -0.5374 0.0 0
M  V30 9 O -2.7112 4.646 0.0 0
M  V30 10 C 1.5407 2.5439 0.0 0
M  V30 11 C -4.8849 2.0662 0.0 0
M  V30 12 C -4.8849 -0.5135 0.0 0
M  V30 13 C 2.8067 3.3083 0.0 0
M  V30 14 C -5.6493 0.8002 0.0 0
M  V30 15 C 4.0727 2.5678 0.0 0
M  V30 END ATOM
M  V30 BEGIN BOND
M  V30 1 2 1 2
M  V30 2 1 2 3
M  V30 3 1 2 4
M  V30 4 1 3 5
M  V30 5 1 3 6
M  V30 6 1 4 7
M  V30 7 1 4 8
M  V30 8 2 5 9
M  V30 9 1 6 10
M  V30 10 1 7 11
M  V30 11 1 8 12
M  V30 12 1 10 13
M  V30 13 1 11 14
M  V30 14 1 13 15
M  V30 15 1 5 7
M  V30 16 2 12 14
M  V30 END BOND
M  V30 END CTAB
M  END
>  <Molecule Name>
N-Butyl-1,2,3,6-tetrahydrophthalimide

>  <Database>
PubChem

>  <Reference DOI>
10.3390/toxics11100837

>  <Molecular Target>
Aedes aegypti

>  <PubChem CID>
95074

>  <Smiles>
CCCCN(C(C1C2CC=CC1)=O)C2=O

>  <Molecular Formula>
C12H17NO2

>  <Activity>
1

$$$$
Compound 127
Actelion Java MolfileCreator 2.0

  0  0  0  0  0  0              0 V3000
M  V30 BEGIN CTAB
M  V30 COUNTS 15 16 0 0 0
M  V30 BEGIN ATOM
M  V30 1 O 0.0 0.0 0.0 0
M  V30 2 C -1.1227 1.0152 0.0 0
M  V30 3 N -0.9913 2.5201 0.0 0
M  V30 4 C -2.6037 0.7285 0.0 0
M  V30 5 C -2.3767 3.165 0.0 0
M  V30 6 C 0.2747 3.2845 0.0 0
M  V30 7 C -3.3681 2.0423 0.0 0
M  V30 8 C -3.3681 -0.5374 0.0 0
M  V30 9 O -2.7112 4.646 0.0 0
M  V30 10 C 1.5407 2.5439 0.0 0
M  V30 11 C -4.8849 2.0662 0.0 0
M  V30 12 C -4.8849 -0.5135 0.0 0
M  V30 13 C 2.8067 3.3083 0.0 0
M  V30 14 C -5.6493 0.8002 0.0 0
M  V30 15 C 4.0727 2.5678 0.0 0
M  V30 END ATOM
M  V30 BEGIN BOND
M  V30 1 2 1 2
M  V30 2 1 2 3
M  V30 3 1 2 4
M  V30 4 1 3 5
M  V30 5 1 3 6
M  V30 6 1 4 7
M  V30 7 1 4 8
M  V30 8 2 5 9
M  V30 9 1 6 10
M  V30 10 1 7 11
M  V30 11 1 8 12
M  V30 12 1 10 13
M  V30 13 1 11 14
M  V30 14 1 13 15
M  V30 15 1 5 7
M  V30 16 1 12 14
M  V30 END BOND
M  V30 END CTAB
M  END
>  <Molecule Name>
N-n-Butyl hexahydrophthalimide

>  <Database>
PubChem

>  <Reference DOI>
10.3390/toxics11100837

>  <Molecular Target>
Aedes aegypti

>  <PubChem CID>
45133407

>  <Smiles>
CCCCN(C(C1C2CCCC1)=O)C2=O

>  <Molecular Formula>
C12H19NO2

>  <Activity>
1

$$$$
Compound 128
Actelion Java MolfileCreator 2.0

  0  0  0  0  0  0              0 V3000
M  V30 BEGIN CTAB
M  V30 COUNTS 15 14 0 0 0
M  V30 BEGIN ATOM
M  V30 1 O 0.0 0.0 0.0 0
M  V30 2 C -0.0734 -1.4082 0.0 0
M  V30 3 N -1.4204 -2.1184 0.0 0
M  V30 4 C 1.1265 -2.1184 0.0 0
M  V30 5 C -2.7674 -1.3347 0.0 0
M  V30 6 C -1.4939 -3.5267 0.0 0
M  V30 7 C -4.1145 -2.045 0.0 0
M  V30 8 C -2.8409 -4.2369 0.0 0
M  V30 9 C -5.4615 -1.2612 0.0 0
M  V30 10 C -2.9144 -5.6451 0.0 0
M  V30 11 O -6.8085 -1.9715 0.0 0
M  V30 12 C -5.5349 0.2938 0.0 0
M  V30 13 C -4.2614 -6.3554 0.0 0
M  V30 14 C -8.1555 -1.1755 0.0 0
M  V30 15 C -9.5025 -1.8858 0.0 0
M  V30 END ATOM
M  V30 BEGIN BOND
M  V30 1 2 1 2
M  V30 2 1 2 3
M  V30 3 1 2 4
M  V30 4 1 3 5
M  V30 5 1 3 6
M  V30 6 1 5 7
M  V30 7 1 6 8
M  V30 8 1 7 9
M  V30 9 1 8 10
M  V30 10 1 9 11
M  V30 11 2 9 12
M  V30 12 1 10 13
M  V30 13 1 11 14
M  V30 14 1 14 15
M  V30 END BOND
M  V30 END CTAB
M  END
>  <Molecule Name>
N-butyl-N-(3-ethoxybut-3-enyl)acetamide

>  <Database>
Pubchem

>  <Reference DOI>
10.1021/acs.jafc.2c05537

>  <Molecular Target>
Aedes albopictus

>  <PubChem CID>
144051127

>  <Smiles>
CCCCN(CCC(OCC)=C)C(C)=O

>  <Molecular Formula>
C12H23NO2

>  <Activity>
1

$$$$
Compound 129
Actelion Java MolfileCreator 2.0

  0  0  0  0  0  0              0 V3000
M  V30 BEGIN CTAB
M  V30 COUNTS 15 15 0 0 0
M  V30 BEGIN ATOM
M  V30 1 O 0.0 0.0 0.0 0
M  V30 2 C -0.0233 -1.4802 0.0 0
M  V30 3 O -1.352 -2.2261 0.0 0
M  V30 4 C 1.2587 -2.2261 0.0 0 CFG=2
M  V30 5 C -2.6806 -1.4452 0.0 0
M  V30 6 O 2.5408 -1.4452 0.0 0
M  V30 7 C 1.2354 -3.7063 0.0 0
M  V30 8 C -4.0093 -2.1795 0.0 0
M  V30 9 C -0.0932 -4.4173 0.0 0
M  V30 10 C 2.5175 -4.4289 0.0 0
M  V30 11 C -5.338 -1.3986 0.0 0
M  V30 12 C -0.1165 -5.8975 0.0 0
M  V30 13 C 2.4942 -5.9091 0.0 0
M  V30 14 C -6.6667 -2.1212 0.0 0
M  V30 15 C 1.1655 -6.6201 0.0 0
M  V30 END ATOM
M  V30 BEGIN BOND
M  V30 1 2 1 2
M  V30 2 1 2 3
M  V30 3 1 2 4
M  V30 4 1 3 5
M  V30 5 1 4 6 CFG=3
M  V30 6 1 4 7
M  V30 7 1 5 8
M  V30 8 2 7 9
M  V30 9 1 7 10
M  V30 10 1 8 11
M  V30 11 1 9 12
M  V30 12 2 10 13
M  V30 13 1 11 14
M  V30 14 2 12 15
M  V30 15 1 13 15
M  V30 END BOND
M  V30 BEGIN COLLECTION
M  V30 MDLV30/STERAC1 ATOMS=(1 4)
M  V30 END COLLECTION
M  V30 END CTAB
M  END
>  <Molecule Name>
Mandelic acid, butyl ester

>  <Database>
PubChem

>  <Reference DOI>
10.3390/toxics11100837

>  <Molecular Target>
Aedes aegypti

>  <PubChem CID>
85668

>  <Smiles>
CCCCOC(C(c1ccccc1)O)=O

>  <Molecular Formula>
C12H16O3

>  <Activity>
1

$$$$
Compound 130
Actelion Java MolfileCreator 2.0

  0  0  0  0  0  0              0 V3000
M  V30 BEGIN CTAB
M  V30 COUNTS 15 15 0 0 0
M  V30 BEGIN ATOM
M  V30 1 O 0.0 0.0 0.0 0
M  V30 2 C -0.024 1.5276 0.0 0
M  V30 3 O 1.2509 2.2974 0.0 0
M  V30 4 C -1.3472 2.2974 0.0 0
M  V30 5 C 2.526 1.5637 0.0 0
M  V30 6 C -2.6703 1.5637 0.0 0
M  V30 7 C 3.801 2.3335 0.0 0
M  V30 8 O -1.3953 0.8179 0.0 0
M  V30 9 C -3.9935 2.3335 0.0 0
M  V30 10 C -2.6944 0.0842 0.0 0
M  V30 11 C 5.076 1.5998 0.0 0
M  V30 12 C -5.3166 1.5998 0.0 0
M  V30 13 C -4.0175 -0.6495 0.0 0
M  V30 14 C 6.3511 2.3576 0.0 0
M  V30 15 C -5.3407 0.1202 0.0 0
M  V30 END ATOM
M  V30 BEGIN BOND
M  V30 1 2 1 2
M  V30 2 1 2 3
M  V30 3 1 2 4
M  V30 4 1 3 5
M  V30 5 1 4 6
M  V30 6 1 5 7
M  V30 7 1 6 8
M  V30 8 1 6 9
M  V30 9 1 6 10
M  V30 10 1 7 11
M  V30 11 1 9 12
M  V30 12 1 10 13
M  V30 13 1 11 14
M  V30 14 1 12 15
M  V30 15 1 13 15
M  V30 END BOND
M  V30 END CTAB
M  END
>  <Molecule Name>
1-Hydroxycyclohexylacetic acid, n-butyl ester

>  <Database>
PubChem

>  <Reference DOI>
10.3390/toxics11100837

>  <Molecular Target>
Aedes aegypti

>  <PubChem CID>
245376

>  <Smiles>
CCCCOC(CC1(CCCCC1)O)=O

>  <Molecular Formula>
C12H22O3

>  <Activity>
1

$$$$
Compound 131
Actelion Java MolfileCreator 2.0

  0  0  0  0  0  0              0 V3000
M  V30 BEGIN CTAB
M  V30 COUNTS 16 16 0 0 0
M  V30 BEGIN ATOM
M  V30 1 O 0.0 0.0 0.0 0
M  V30 2 C -0.024 -1.4783 0.0 0
M  V30 3 O -1.3461 -2.2234 0.0 0
M  V30 4 C 1.2499 -2.2234 0.0 0
M  V30 5 C -2.6681 -1.4542 0.0 0
M  V30 6 N 2.5239 -1.4542 0.0 0
M  V30 7 C -3.9902 -2.1994 0.0 0
M  V30 8 C 3.7979 -2.1994 0.0 0
M  V30 9 C -5.3122 -1.4302 0.0 0
M  V30 10 C 5.0719 -1.4302 0.0 0
M  V30 11 C -6.6343 -2.1753 0.0 0
M  V30 12 C 6.3459 -2.1753 0.0 0
M  V30 13 C 5.0478 0.0961 0.0 0
M  V30 14 C 7.6199 -1.4061 0.0 0
M  V30 15 C 6.3218 0.8653 0.0 0
M  V30 16 C 7.5958 0.1201 0.0 0
M  V30 END ATOM
M  V30 BEGIN BOND
M  V30 1 2 1 2
M  V30 2 1 2 3
M  V30 3 1 2 4
M  V30 4 1 3 5
M  V30 5 1 4 6
M  V30 6 1 5 7
M  V30 7 1 6 8
M  V30 8 1 7 9
M  V30 9 1 8 10
M  V30 10 1 9 11
M  V30 11 2 10 12
M  V30 12 1 10 13
M  V30 13 1 12 14
M  V30 14 2 13 15
M  V30 15 2 14 16
M  V30 16 1 15 16
M  V30 END BOND
M  V30 END CTAB
M  END
>  <Molecule Name>
N-Benzylglycine, butyl ester

>  <Database>
PubChem

>  <Reference DOI>
10.3390/toxics11100837

>  <Molecular Target>
Aedes aegypti

>  <PubChem CID>
53974441

>  <Smiles>
CCCCOC(CNCc1ccccc1)=O

>  <Molecular Formula>
C13H19NO2

>  <Activity>
1

$$$$
Compound 132
Actelion Java MolfileCreator 2.0

  0  0  0  0  0  0              0 V3000
M  V30 BEGIN CTAB
M  V30 COUNTS 14 14 0 0 0
M  V30 BEGIN ATOM
M  V30 1 O 0.0 0.0 0.0 0
M  V30 2 C 1.2452 -0.7347 0.0 0
M  V30 3 O 2.4905 0.0498 0.0 0
M  V30 4 C 1.1829 -2.1916 0.0 0
M  V30 5 C 2.4282 1.6312 0.0 0
M  V30 6 C -0.1867 -2.9263 0.0 0
M  V30 7 C 2.4282 -2.9263 0.0 0
M  V30 8 C 3.6735 2.4282 0.0 0
M  V30 9 N -1.5565 -2.1293 0.0 0
M  V30 10 C -0.249 -4.3833 0.0 0
M  V30 11 C 2.3659 -4.3833 0.0 0
M  V30 12 C 3.6112 4.0097 0.0 0
M  V30 13 C 0.9962 -5.118 0.0 0
M  V30 14 C 4.8565 4.8067 0.0 0
M  V30 END ATOM
M  V30 BEGIN BOND
M  V30 1 2 1 2
M  V30 2 1 2 3
M  V30 3 1 2 4
M  V30 4 1 3 5
M  V30 5 2 4 6
M  V30 6 1 4 7
M  V30 7 1 5 8
M  V30 8 1 6 9
M  V30 9 1 6 10
M  V30 10 2 7 11
M  V30 11 1 8 12
M  V30 12 2 10 13
M  V30 13 1 12 14
M  V30 14 1 11 13
M  V30 END BOND
M  V30 END CTAB
M  END
>  <Molecule Name>
Butyl anthranilate

>  <Database>
Pubchem

>  <Reference DOI>
10.1016/j.actatropica.2019.105171

>  <Molecular Target>
Aedes albopictus Skuse

>  <PubChem CID>
24433

>  <Smiles>
CCCCOC(c(cccc1)c1N)=O

>  <Molecular Formula>
C11H15NO2

>  <Activity>
1

$$$$
Compound 133
Actelion Java MolfileCreator 2.0

  0  0  0  0  0  0              0 V3000
M  V30 BEGIN CTAB
M  V30 COUNTS 14 15 0 0 0
M  V30 BEGIN ATOM
M  V30 1 O 0.0 0.0 0.0 0
M  V30 2 C -1.121 1.0137 0.0 0
M  V30 3 N -0.9898 2.5163 0.0 0
M  V30 4 C -2.5998 0.7274 0.0 0
M  V30 5 C -2.3732 3.1603 0.0 0
M  V30 6 C 0.2742 3.2796 0.0 0
M  V30 7 C -3.3631 2.0393 0.0 0
M  V30 8 C -3.3631 -0.5366 0.0 0
M  V30 9 O -2.7071 4.6392 0.0 0
M  V30 10 C 1.5384 2.5402 0.0 0
M  V30 11 C -4.8777 2.0631 0.0 0
M  V30 12 C -4.8777 -0.5128 0.0 0
M  V30 13 C 2.8026 3.3034 0.0 0
M  V30 14 C -5.6409 0.799 0.0 0
M  V30 END ATOM
M  V30 BEGIN BOND
M  V30 1 2 1 2
M  V30 2 1 2 3
M  V30 3 1 2 4
M  V30 4 1 3 5
M  V30 5 1 3 6
M  V30 6 1 4 7
M  V30 7 1 4 8
M  V30 8 2 5 9
M  V30 9 1 6 10
M  V30 10 1 7 11
M  V30 11 1 8 12
M  V30 12 1 10 13
M  V30 13 1 11 14
M  V30 14 1 5 7
M  V30 15 2 12 14
M  V30 END BOND
M  V30 END CTAB
M  END
>  <Molecule Name>
N-n-Propyl-1,2,3,6-tetrahydrophthalimide

>  <Database>
PubChem

>  <Reference DOI>
10.3390/toxics11100837

>  <Molecular Target>
Aedes aegypti

>  <PubChem CID>
16236

>  <Smiles>
CCCN(C(C1C2CC=CC1)=O)C2=O

>  <Molecular Formula>
C11H15NO2

>  <Activity>
1

$$$$
Compound 134
Actelion Java MolfileCreator 2.0

  0  0  0  0  0  0              0 V3000
M  V30 BEGIN CTAB
M  V30 COUNTS 14 15 0 0 0
M  V30 BEGIN ATOM
M  V30 1 O 0.0 0.0 0.0 0
M  V30 2 C -1.121 1.0137 0.0 0
M  V30 3 N -0.9898 2.5163 0.0 0
M  V30 4 C -2.5998 0.7274 0.0 0
M  V30 5 C -2.3732 3.1603 0.0 0
M  V30 6 C 0.2742 3.2796 0.0 0
M  V30 7 C -3.3631 2.0393 0.0 0
M  V30 8 C -3.3631 -0.5366 0.0 0
M  V30 9 O -2.7071 4.6392 0.0 0
M  V30 10 C 1.5384 2.5402 0.0 0
M  V30 11 C -4.8777 2.0631 0.0 0
M  V30 12 C -4.8777 -0.5128 0.0 0
M  V30 13 C 2.8026 3.3034 0.0 0
M  V30 14 C -5.6409 0.799 0.0 0
M  V30 END ATOM
M  V30 BEGIN BOND
M  V30 1 2 1 2
M  V30 2 1 2 3
M  V30 3 1 2 4
M  V30 4 1 3 5
M  V30 5 1 3 6
M  V30 6 1 4 7
M  V30 7 1 4 8
M  V30 8 2 5 9
M  V30 9 1 6 10
M  V30 10 1 7 11
M  V30 11 1 8 12
M  V30 12 1 10 13
M  V30 13 1 11 14
M  V30 14 1 5 7
M  V30 15 1 12 14
M  V30 END BOND
M  V30 END CTAB
M  END
>  <Molecule Name>
N-n-Propylhexahydrophthalimide

>  <Database>
PubChem

>  <Reference DOI>
10.3390/toxics11100837

>  <Molecular Target>
Aedes aegypti

>  <PubChem CID>
17296589

>  <Smiles>
CCCN(C(C1C2CCCC1)=O)C2=O

>  <Molecular Formula>
C11H17NO2

>  <Activity>
1

$$$$
Compound 135
Actelion Java MolfileCreator 2.0

  0  0  0  0  0  0              0 V3000
M  V30 BEGIN CTAB
M  V30 COUNTS 15 14 0 0 0
M  V30 BEGIN ATOM
M  V30 1 O 0.0 0.0 0.0 0
M  V30 2 C -0.0239 1.5224 0.0 0
M  V30 3 N 1.2467 2.2896 0.0 0
M  V30 4 C -1.3426 2.2896 0.0 0
M  V30 5 C 2.5174 1.5464 0.0 0
M  V30 6 C 1.2227 3.812 0.0 0
M  V30 7 C -2.6612 1.5464 0.0 0 CFG=1
M  V30 8 C 3.788 2.3136 0.0 0
M  V30 9 C 2.4934 4.5792 0.0 0
M  V30 10 O -1.918 0.2757 0.0 0
M  V30 11 C -3.9798 2.3136 0.0 0
M  V30 12 C -3.4284 0.2757 0.0 0
M  V30 13 C 5.0587 1.5703 0.0 0
M  V30 14 C 2.4694 6.1017 0.0 0
M  V30 15 C -5.2985 1.5703 0.0 0
M  V30 END ATOM
M  V30 BEGIN BOND
M  V30 1 2 1 2
M  V30 2 1 2 3
M  V30 3 1 2 4
M  V30 4 1 3 5
M  V30 5 1 3 6
M  V30 6 1 4 7
M  V30 7 1 5 8
M  V30 8 1 6 9
M  V30 9 1 7 10 CFG=1
M  V30 10 1 7 11
M  V30 11 1 7 12
M  V30 12 1 8 13
M  V30 13 1 9 14
M  V30 14 1 11 15
M  V30 END BOND
M  V30 BEGIN COLLECTION
M  V30 MDLV30/STERAC1 ATOMS=(1 7)
M  V30 END COLLECTION
M  V30 END CTAB
M  END
>  <Molecule Name>
N,N-Dipropyl-3-hydroxy-3-methylvaleramide

>  <Database>
PubChem

>  <Reference DOI>
10.3390/toxics11100837

>  <Molecular Target>
Aedes aegypti

>  <PubChem CID>
347869

>  <Smiles>
CCCN(CCC)C(CC(C)(CC)O)=O

>  <Molecular Formula>
C12H25NO2

>  <Activity>
1

$$$$
Compound 136
Actelion Java MolfileCreator 2.0

  0  0  0  0  0  0              0 V3000
M  V30 BEGIN CTAB
M  V30 COUNTS 14 13 0 0 0
M  V30 BEGIN ATOM
M  V30 1 O 0.0 0.0 0.0 0
M  V30 2 C -0.0239 1.5191 0.0 0
M  V30 3 N 1.244 2.2727 0.0 0
M  V30 4 C -1.3397 2.2727 0.0 0
M  V30 5 C 2.512 1.5311 0.0 0
M  V30 6 C 1.2201 3.7919 0.0 0
M  V30 7 C -2.6555 1.5311 0.0 0
M  V30 8 C 3.7799 2.2847 0.0 0
M  V30 9 C 2.488 4.5574 0.0 0
M  V30 10 C -3.9713 2.2847 0.0 0
M  V30 11 C 5.0479 1.543 0.0 0
M  V30 12 C 2.4641 6.0766 0.0 0
M  V30 13 O -3.9952 3.8038 0.0 0
M  V30 14 C -5.2871 1.543 0.0 0
M  V30 END ATOM
M  V30 BEGIN BOND
M  V30 1 2 1 2
M  V30 2 1 2 3
M  V30 3 1 2 4
M  V30 4 1 3 5
M  V30 5 1 3 6
M  V30 6 1 4 7
M  V30 7 1 5 8
M  V30 8 1 6 9
M  V30 9 1 7 10
M  V30 10 1 8 11
M  V30 11 1 9 12
M  V30 12 2 10 13
M  V30 13 1 10 14
M  V30 END BOND
M  V30 END CTAB
M  END
>  <Molecule Name>
N,N-Dipropyllevulinamide

>  <Database>
PubChem

>  <Reference DOI>
10.3390/toxics11100837

>  <Molecular Target>
Aedes aegypti

>  <PubChem CID>
245459

>  <Smiles>
CCCN(CCC)C(CCC(C)=O)=O

>  <Molecular Formula>
C11H21NO2

>  <Activity>
1

$$$$
Compound 137
Actelion Java MolfileCreator 2.0

  0  0  0  0  0  0              0 V3000
M  V30 BEGIN CTAB
M  V30 COUNTS 14 14 0 0 0
M  V30 BEGIN ATOM
M  V30 1 O 0.0 0.0 0.0 0
M  V30 2 C -0.024 1.5264 0.0 0
M  V30 3 O 1.2499 2.2956 0.0 0
M  V30 4 C -1.3461 2.2956 0.0 0
M  V30 5 C 2.5239 1.5624 0.0 0
M  V30 6 C -2.6682 1.5624 0.0 0
M  V30 7 C 3.798 2.3316 0.0 0
M  V30 8 O -1.3942 0.8172 0.0 0
M  V30 9 C -3.9903 2.3316 0.0 0
M  V30 10 C -2.6922 0.0841 0.0 0
M  V30 11 C 5.072 1.5985 0.0 0
M  V30 12 C -5.3124 1.5985 0.0 0
M  V30 13 C -4.0143 -0.649 0.0 0
M  V30 14 C -5.3364 0.1201 0.0 0
M  V30 END ATOM
M  V30 BEGIN BOND
M  V30 1 2 1 2
M  V30 2 1 2 3
M  V30 3 1 2 4
M  V30 4 1 3 5
M  V30 5 1 4 6
M  V30 6 1 5 7
M  V30 7 1 6 8
M  V30 8 1 6 9
M  V30 9 1 6 10
M  V30 10 1 7 11
M  V30 11 1 9 12
M  V30 12 1 10 13
M  V30 13 1 12 14
M  V30 14 1 13 14
M  V30 END BOND
M  V30 END CTAB
M  END
>  <Molecule Name>
1-Hydroxycyclohexylacetic acid, n-propyl ester

>  <Database>
PubChem

>  <Reference DOI>
10.3390/toxics11100837

>  <Molecular Target>
Aedes aegypti

>  <PubChem CID>
245456

>  <Smiles>
CCCOC(CC1(CCCCC1)O)=O

>  <Molecular Formula>
C11H20O3

>  <Activity>
1

$$$$
Compound 138
Actelion Java MolfileCreator 2.0

  0  0  0  0  0  0              0 V3000
M  V30 BEGIN CTAB
M  V30 COUNTS 14 15 0 0 0
M  V30 BEGIN ATOM
M  V30 1 O 0.0 0.0 0.0 0
M  V30 2 C 0.2873 1.4845 0.0 0
M  V30 3 C -1.5084 -0.1316 0.0 0
M  V30 4 C -1.0295 2.2507 0.0 0
M  V30 5 C 1.5563 2.2387 0.0 0
M  V30 6 O -2.1549 1.257 0.0 0
M  V30 7 C -1.0535 3.7711 0.0 0
M  V30 8 C 1.5324 3.7591 0.0 0
M  V30 9 C 0.2154 4.5373 0.0 0
M  V30 10 C 2.8014 4.5253 0.0 0
M  V30 11 O 4.0704 3.7831 0.0 0
M  V30 12 C 5.3394 4.5493 0.0 0
M  V30 13 C 6.6085 3.807 0.0 0
M  V30 14 C 7.8775 4.5732 0.0 0
M  V30 END ATOM
M  V30 BEGIN BOND
M  V30 1 1 1 2
M  V30 2 1 1 3
M  V30 3 2 2 4
M  V30 4 1 2 5
M  V30 5 1 3 6
M  V30 6 1 4 7
M  V30 7 2 5 8
M  V30 8 2 7 9
M  V30 9 1 8 10
M  V30 10 1 10 11
M  V30 11 1 11 12
M  V30 12 1 12 13
M  V30 13 1 13 14
M  V30 14 1 4 6
M  V30 15 1 8 9
M  V30 END BOND
M  V30 END CTAB
M  END
>  <Molecule Name>
3,4-Methylenedioxybenzyl n-propyl ether

>  <Database>
PubChem

>  <Reference DOI>
10.3390/toxics11100837

>  <Molecular Target>
Aedes aegypti

>  <PubChem CID>
10262036

>  <Smiles>
CCCOCc(cc1)cc2c1OCO2

>  <Molecular Formula>
C11H14O3

>  <Activity>
1

$$$$
Compound 139
Actelion Java MolfileCreator 2.0

  0  0  0  0  0  0              0 V3000
M  V30 BEGIN CTAB
M  V30 COUNTS 9 8 0 0 0
M  V30 BEGIN ATOM
M  V30 1 S 0.0 0.0 0.0 0
M  V30 2 O 0.7189 1.3232 0.0 0
M  V30 3 O -0.7606 1.3232 0.0 0
M  V30 4 C 1.2816 -0.7189 0.0 0
M  V30 5 C -1.3232 -0.7189 0.0 0
M  V30 6 C 2.5632 0.0416 0.0 0
M  V30 7 C -2.6465 0.0416 0.0 0
M  V30 8 C 3.8448 -0.6772 0.0 0
M  V30 9 C -3.9698 -0.6772 0.0 0
M  V30 END ATOM
M  V30 BEGIN BOND
M  V30 1 2 1 2
M  V30 2 2 1 3
M  V30 3 1 1 4
M  V30 4 1 1 5
M  V30 5 1 4 6
M  V30 6 1 5 7
M  V30 7 1 6 8
M  V30 8 1 7 9
M  V30 END BOND
M  V30 END CTAB
M  END
>  <Molecule Name>
Di-n-propyl sulfone

>  <Database>
PubChem

>  <Reference DOI>
10.3390/toxics11100837

>  <Molecular Target>
Aedes aegypti

>  <PubChem CID>
11709

>  <Smiles>
CCCS(CCC)(=O)=O

>  <Molecular Formula>
C6H14O2S

>  <Activity>
1

$$$$
Compound 140
Actelion Java MolfileCreator 2.0

  0  0  0  0  0  0              0 V3000
M  V30 BEGIN CTAB
M  V30 COUNTS 12 11 0 0 0
M  V30 BEGIN ATOM
M  V30 1 O 0.0 0.0 0.0 0
M  V30 2 C 1.2844 -0.7391 0.0 0
M  V30 3 O 2.5688 0.0363 0.0 0
M  V30 4 C 1.2601 -2.2295 0.0 0
M  V30 5 C 2.5445 1.5752 0.0 0
M  V30 6 C 2.5445 -2.9808 0.0 0
M  V30 7 N 3.829 -2.2174 0.0 0
M  V30 8 C 2.5203 -4.4712 0.0 0
M  V30 9 C 5.1134 -2.9686 0.0 0
M  V30 10 C 3.8047 -0.6785 0.0 0
M  V30 11 C 6.3978 -2.2053 0.0 0
M  V30 12 C 5.0891 0.0848 0.0 0
M  V30 END ATOM
M  V30 BEGIN BOND
M  V30 1 2 1 2
M  V30 2 1 2 3
M  V30 3 1 2 4
M  V30 4 1 3 5
M  V30 5 2 4 6
M  V30 6 1 6 7
M  V30 7 1 6 8
M  V30 8 1 7 9
M  V30 9 1 7 10
M  V30 10 1 9 11
M  V30 11 1 10 12
M  V30 END BOND
M  V30 END CTAB
M  END
>  <Molecule Name>
beta-Diethylaminocrotonic acid, methyl ester

>  <Database>
No information

>  <Reference DOI>
10.3390/toxics11100837

>  <Molecular Target>
Aedes aegypti

>  <PubChem CID>


>  <Smiles>
CCN(CC)/C(\C)=C\C(OC)=O

>  <Molecular Formula>
C9H17NO2

>  <Activity>
1

$$$$
Compound 141
Actelion Java MolfileCreator 2.0

  0  0  0  0  0  0              0 V3000
M  V30 BEGIN CTAB
M  V30 COUNTS 15 15 0 0 0
M  V30 BEGIN ATOM
M  V30 1 O 0.0 0.0 0.0 0
M  V30 2 C 1.2829 -0.7503 0.0 0
M  V30 3 N 2.5658 0.0121 0.0 0
M  V30 4 C 1.2587 -2.239 0.0 0
M  V30 5 C 2.5416 1.5491 0.0 0
M  V30 6 C 3.8487 -0.7261 0.0 0
M  V30 7 O -0.0726 -2.9894 0.0 0
M  V30 8 C 3.8245 2.3237 0.0 0
M  V30 9 C 5.1317 0.0363 0.0 0
M  V30 10 C -0.0968 -4.4781 0.0 0
M  V30 11 C -1.4281 -5.2285 0.0 0
M  V30 12 C 1.1861 -5.2285 0.0 0
M  V30 13 C -1.4523 -6.7172 0.0 0
M  V30 14 C 1.1618 -6.7172 0.0 0
M  V30 15 C -0.1694 -7.4676 0.0 0
M  V30 END ATOM
M  V30 BEGIN BOND
M  V30 1 2 1 2
M  V30 2 1 2 3
M  V30 3 1 2 4
M  V30 4 1 3 5
M  V30 5 1 3 6
M  V30 6 1 4 7
M  V30 7 1 5 8
M  V30 8 1 6 9
M  V30 9 1 7 10
M  V30 10 1 10 11
M  V30 11 1 10 12
M  V30 12 1 11 13
M  V30 13 1 12 14
M  V30 14 1 13 15
M  V30 15 1 14 15
M  V30 END BOND
M  V30 END CTAB
M  END
>  <Molecule Name>
2-cyclohexyloxy-N,N-diethylacetamide

>  <Database>
Pubchem

>  <Reference DOI>
10.1371/annotation/1dc83f26-8045-4b63-8a86-24c7b71a7f79

>  <Molecular Target>
Aedes aegypti

>  <PubChem CID>
245381

>  <Smiles>
CCN(CC)C(COC1CCCCC1)=O

>  <Molecular Formula>
C12H23NO2

>  <Activity>
1

$$$$
Compound 142
Actelion Java MolfileCreator 2.0

  0  0  0  0  0  0              0 V3000
M  V30 BEGIN CTAB
M  V30 COUNTS 19 19 0 0 0
M  V30 BEGIN ATOM
M  V30 1 O 0.0 0.0 0.0 0
M  V30 2 C -0.024 -1.4817 0.0 0
M  V30 3 C 1.2769 0.7589 0.0 0
M  V30 4 C 1.2528 -2.2287 0.0 0
M  V30 5 C -1.3492 -2.2287 0.0 0
M  V30 6 C 1.2528 2.2889 0.0 0
M  V30 7 O 2.5298 -1.4576 0.0 0
M  V30 8 C 1.2288 -3.7105 0.0 0
M  V30 9 C -1.3733 -3.7105 0.0 0
M  V30 10 C -2.6744 -1.4576 0.0 0
M  V30 11 N 2.5298 3.0599 0.0 0
M  V30 12 C 3.8068 -2.2046 0.0 0
M  V30 13 C -0.0963 -4.4574 0.0 0
M  V30 14 C -3.9996 -2.2046 0.0 0
M  V30 15 C 2.5057 4.5899 0.0 0
M  V30 16 C 3.8068 2.313 0.0 0
M  V30 17 C -5.3248 -1.4456 0.0 0
M  V30 18 C 3.7827 5.3609 0.0 0
M  V30 19 C 5.0838 3.084 0.0 0
M  V30 END ATOM
M  V30 BEGIN BOND
M  V30 1 1 1 2
M  V30 2 1 1 3
M  V30 3 2 2 4
M  V30 4 1 2 5
M  V30 5 1 3 6
M  V30 6 1 4 7
M  V30 7 1 4 8
M  V30 8 2 5 9
M  V30 9 1 5 10
M  V30 10 1 6 11
M  V30 11 1 7 12
M  V30 12 2 8 13
M  V30 13 1 10 14
M  V30 14 1 11 15
M  V30 15 1 11 16
M  V30 16 2 14 17
M  V30 17 1 15 18
M  V30 18 1 16 19
M  V30 19 1 9 13
M  V30 END BOND
M  V30 END CTAB
M  END
>  <Molecule Name>
N,N-diethyl-2-(2-methoxy-6-prop-2-enylphenoxy)ethanamine

>  <Database>
Pubchem

>  <Reference DOI>
10.1371/annotation/1dc83f26-8045-4b63-8a86-24c7b71a7f79

>  <Molecular Target>
Aedes aegypti

>  <PubChem CID>
80104

>  <Smiles>
CCN(CC)CCOc(c(CC=C)ccc1)c1OC

>  <Molecular Formula>
C16H25NO2

>  <Activity>
1

$$$$
Compound 143
Actelion Java MolfileCreator 2.0

  0  0  0  0  0  0              0 V3000
M  V30 BEGIN CTAB
M  V30 COUNTS 15 15 0 0 0
M  V30 BEGIN ATOM
M  V30 1 O 0.0 0.0 0.0 0
M  V30 2 C -0.0239 -1.4756 0.0 0
M  V30 3 O 1.2476 -2.2074 0.0 0
M  V30 4 C -1.3436 -2.2074 0.0 0
M  V30 5 C 2.5193 -1.4396 0.0 0
M  V30 6 C -2.6633 -1.4396 0.0 0
M  V30 7 C -1.3676 -3.683 0.0 0
M  V30 8 C 3.791 -2.1714 0.0 0
M  V30 9 O -3.9829 -2.1714 0.0 0
M  V30 10 C -2.6873 0.0839 0.0 0
M  V30 11 C -1.4156 0.8397 0.0 0
M  V30 12 C -4.0069 0.8397 0.0 0
M  V30 13 C -1.4396 2.3633 0.0 0
M  V30 14 C -4.0309 2.3633 0.0 0
M  V30 15 C -2.7592 3.1311 0.0 0
M  V30 END ATOM
M  V30 BEGIN BOND
M  V30 1 2 1 2
M  V30 2 1 2 3
M  V30 3 1 2 4
M  V30 4 1 3 5
M  V30 5 1 4 6
M  V30 6 1 4 7
M  V30 7 1 5 8
M  V30 8 1 6 9
M  V30 9 1 6 10
M  V30 10 2 10 11
M  V30 11 1 10 12
M  V30 12 1 11 13
M  V30 13 2 12 14
M  V30 14 2 13 15
M  V30 15 1 14 15
M  V30 END BOND
M  V30 END CTAB
M  END
>  <Molecule Name>
alpha-Methyl-beta-hydroxy-beta-phenylpropionic acid, ethyl ester

>  <Database>
PubChem

>  <Reference DOI>
10.3390/toxics11100837

>  <Molecular Target>
Aedes aegypti

>  <PubChem CID>
249268

>  <Smiles>
CCOC(C(C)C(c1ccccc1)O)=O

>  <Molecular Formula>
C12H16O3

>  <Activity>
1

$$$$
Compound 144
Actelion Java MolfileCreator 2.0

  0  0  0  0  0  0              0 V3000
M  V30 BEGIN CTAB
M  V30 COUNTS 14 14 0 0 0
M  V30 BEGIN ATOM
M  V30 1 O 0.0 0.0 0.0 0
M  V30 2 C -1.3061 0.748 0.0 0
M  V30 3 O -2.6122 0.0118 0.0 0
M  V30 4 C -1.3298 2.256 0.0 0 CFG=1
M  V30 5 C -3.9183 0.7599 0.0 0
M  V30 6 C -0.0712 3.0159 0.0 0
M  V30 7 C -2.636 3.004 0.0 0
M  V30 8 C -5.2245 0.0237 0.0 0
M  V30 9 N 1.1873 3.7758 0.0 0
M  V30 10 C -2.6597 4.512 0.0 0
M  V30 11 C -3.9421 2.2679 0.0 0
M  V30 12 C -3.9658 5.272 0.0 0
M  V30 13 C -5.2482 3.0278 0.0 0
M  V30 14 C -5.272 4.5358 0.0 0
M  V30 END ATOM
M  V30 BEGIN BOND
M  V30 1 2 1 2
M  V30 2 1 2 3
M  V30 3 1 2 4
M  V30 4 1 3 5
M  V30 5 1 4 6 CFG=3
M  V30 6 1 4 7
M  V30 7 1 5 8
M  V30 8 3 6 9
M  V30 9 1 7 10
M  V30 10 1 7 11
M  V30 11 1 10 12
M  V30 12 1 11 13
M  V30 13 1 12 14
M  V30 14 1 13 14
M  V30 END BOND
M  V30 BEGIN COLLECTION
M  V30 MDLV30/STERAC1 ATOMS=(1 4)
M  V30 END COLLECTION
M  V30 END CTAB
M  END
>  <Molecule Name>
Cyclohexylcyanoacetic acid, ethyl ester

>  <Database>
PubChem

>  <Reference DOI>
10.3390/toxics11100837

>  <Molecular Target>
Aedes aegypti

>  <PubChem CID>
239612

>  <Smiles>
CCOC(C(C1CCCCC1)C#N)=O

>  <Molecular Formula>
C11H17NO2

>  <Activity>
1

$$$$
Compound 145
Actelion Java MolfileCreator 2.0

  0  0  0  0  0  0              0 V3000
M  V30 BEGIN CTAB
M  V30 COUNTS 13 13 0 0 0
M  V30 BEGIN ATOM
M  V30 1 O 0.0 0.0 0.0 0
M  V30 2 C -0.0241 -1.483 0.0 0
M  V30 3 O -1.3504 -2.2185 0.0 0
M  V30 4 C 1.2539 -2.2185 0.0 0
M  V30 5 C -2.6767 -1.4468 0.0 0
M  V30 6 O 1.2298 -3.7016 0.0 0
M  V30 7 C 2.532 -1.4468 0.0 0
M  V30 8 C -4.003 -2.1824 0.0 0
M  V30 9 C 3.8101 -2.1824 0.0 0
M  V30 10 C 2.5079 0.0844 0.0 0
M  V30 11 C 5.0882 -1.4107 0.0 0
M  V30 12 C 3.786 0.856 0.0 0
M  V30 13 C 5.0641 0.1205 0.0 0
M  V30 END ATOM
M  V30 BEGIN BOND
M  V30 1 2 1 2
M  V30 2 1 2 3
M  V30 3 1 2 4
M  V30 4 1 3 5
M  V30 5 2 4 6
M  V30 6 1 4 7
M  V30 7 1 5 8
M  V30 8 2 7 9
M  V30 9 1 7 10
M  V30 10 1 9 11
M  V30 11 2 10 12
M  V30 12 2 11 13
M  V30 13 1 12 13
M  V30 END BOND
M  V30 END CTAB
M  END
>  <Molecule Name>
Benzoylformic acid, ethyl ester

>  <Database>
PubChem

>  <Reference DOI>
10.3390/toxics11100837

>  <Molecular Target>
Aedes aegypti

>  <PubChem CID>
15349

>  <Smiles>
CCOC(C(c1ccccc1)=O)=O

>  <Molecular Formula>
C10H10O3

>  <Activity>
1

$$$$
Compound 146
Actelion Java MolfileCreator 2.0

  0  0  0  0  0  0              0 V3000
M  V30 BEGIN CTAB
M  V30 COUNTS 13 13 0 0 0
M  V30 BEGIN ATOM
M  V30 1 O 0.0 0.0 0.0 0
M  V30 2 C -0.0234 -1.486 0.0 0
M  V30 3 O -1.3572 -2.1997 0.0 0
M  V30 4 C 1.2636 -2.1997 0.0 0 CFG=2
M  V30 5 C -2.6911 -1.4157 0.0 0
M  V30 6 O 2.5507 -1.4157 0.0 0
M  V30 7 C 1.2402 -3.6857 0.0 0
M  V30 8 C -4.025 -2.1295 0.0 0
M  V30 9 C -0.0936 -4.3995 0.0 0
M  V30 10 C 2.5273 -4.4229 0.0 0
M  V30 11 C -0.117 -5.8855 0.0 0
M  V30 12 C 2.5039 -5.9089 0.0 0
M  V30 13 C 1.17 -6.6343 0.0 0
M  V30 END ATOM
M  V30 BEGIN BOND
M  V30 1 2 1 2
M  V30 2 1 2 3
M  V30 3 1 2 4
M  V30 4 1 3 5
M  V30 5 1 4 6 CFG=3
M  V30 6 1 4 7
M  V30 7 1 5 8
M  V30 8 2 7 9
M  V30 9 1 7 10
M  V30 10 1 9 11
M  V30 11 2 10 12
M  V30 12 2 11 13
M  V30 13 1 12 13
M  V30 END BOND
M  V30 BEGIN COLLECTION
M  V30 MDLV30/STERAC1 ATOMS=(1 4)
M  V30 END COLLECTION
M  V30 END CTAB
M  END
>  <Molecule Name>
Mandelic acid, ethyl ester

>  <Database>
PubChem

>  <Reference DOI>
10.3390/toxics11100837

>  <Molecular Target>
Aedes aegypti

>  <PubChem CID>
13050

>  <Smiles>
CCOC(C(c1ccccc1)O)=O

>  <Molecular Formula>
C10H12O3

>  <Activity>
1

$$$$
Compound 147
Actelion Java MolfileCreator 2.0

  0  0  0  0  0  0              0 V3000
M  V30 BEGIN CTAB
M  V30 COUNTS 15 15 0 0 0
M  V30 BEGIN ATOM
M  V30 1 O 0.0 0.0 0.0 0
M  V30 2 C -0.0233 -1.4815 0.0 0
M  V30 3 O -1.3531 -2.2281 0.0 0
M  V30 4 C 1.2598 -2.2281 0.0 0
M  V30 5 C -2.683 -1.4465 0.0 0
M  V30 6 C 2.543 -1.4465 0.0 0 CFG=2
M  V30 7 C -4.0129 -2.1697 0.0 0
M  V30 8 O 1.7614 -0.1166 0.0 0
M  V30 9 C 3.8262 -2.1697 0.0 0
M  V30 10 C 3.2663 -0.1166 0.0 0
M  V30 11 C 3.8029 -3.6513 0.0 0
M  V30 12 C 5.1094 -1.3881 0.0 0
M  V30 13 C 5.0861 -4.3745 0.0 0
M  V30 14 C 6.3927 -2.0997 0.0 0
M  V30 15 C 6.3693 -3.5929 0.0 0
M  V30 END ATOM
M  V30 BEGIN BOND
M  V30 1 2 1 2
M  V30 2 1 2 3
M  V30 3 1 2 4
M  V30 4 1 3 5
M  V30 5 1 4 6
M  V30 6 1 5 7
M  V30 7 1 6 8 CFG=3
M  V30 8 1 6 9
M  V30 9 1 6 10
M  V30 10 2 9 11
M  V30 11 1 9 12
M  V30 12 1 11 13
M  V30 13 2 12 14
M  V30 14 2 13 15
M  V30 15 1 14 15
M  V30 END BOND
M  V30 BEGIN COLLECTION
M  V30 MDLV30/STERAC1 ATOMS=(1 6)
M  V30 END COLLECTION
M  V30 END CTAB
M  END
>  <Molecule Name>
beta-Phenyl-beta-hydroxybutyric acid, ethyl ester

>  <Database>
PubChem

>  <Reference DOI>
10.3390/toxics11100837

>  <Molecular Target>
Aedes aegypti

>  <PubChem CID>
220801

>  <Smiles>
CCOC(CC(C)(c1ccccc1)O)=O

>  <Molecular Formula>
C12H16O3

>  <Activity>
1

$$$$
Compound 148
Actelion Java MolfileCreator 2.0

  0  0  0  0  0  0              0 V3000
M  V30 BEGIN CTAB
M  V30 COUNTS 13 13 0 0 0
M  V30 BEGIN ATOM
M  V30 1 O 0.0 0.0 0.0 0
M  V30 2 C -0.024 1.524 0.0 0
M  V30 3 O 1.248 2.2921 0.0 0
M  V30 4 C -1.344 2.2921 0.0 0
M  V30 5 C 2.5201 1.56 0.0 0
M  V30 6 C -2.6641 1.56 0.0 0
M  V30 7 C 3.7921 2.3281 0.0 0
M  V30 8 O -1.392 0.816 0.0 0
M  V30 9 C -3.9841 2.3281 0.0 0
M  V30 10 C -2.6881 0.084 0.0 0
M  V30 11 C -5.3042 1.596 0.0 0
M  V30 12 C -4.0081 -0.648 0.0 0
M  V30 13 C -5.3282 0.12 0.0 0
M  V30 END ATOM
M  V30 BEGIN BOND
M  V30 1 2 1 2
M  V30 2 1 2 3
M  V30 3 1 2 4
M  V30 4 1 3 5
M  V30 5 1 4 6
M  V30 6 1 5 7
M  V30 7 1 6 8
M  V30 8 1 6 9
M  V30 9 1 6 10
M  V30 10 1 9 11
M  V30 11 1 10 12
M  V30 12 1 11 13
M  V30 13 1 12 13
M  V30 END BOND
M  V30 END CTAB
M  END
>  <Molecule Name>
1-Hydroxycyclohexylacetic acid, ethyl ester

>  <Database>
PubChem

>  <Reference DOI>
10.3390/toxics11100837

>  <Molecular Target>
Aedes aegypti

>  <PubChem CID>
219250

>  <Smiles>
CCOC(CC1(CCCCC1)O)=O

>  <Molecular Formula>
C10H18O3

>  <Activity>
1

$$$$
Compound 149
Actelion Java MolfileCreator 2.0

  0  0  0  0  0  0              0 V3000
M  V30 BEGIN CTAB
M  V30 COUNTS 12 12 0 0 0
M  V30 BEGIN ATOM
M  V30 1 O 0.0 0.0 0.0 0
M  V30 2 C -0.0234 -1.4878 0.0 0
M  V30 3 O -1.3589 -2.2141 0.0 0
M  V30 4 C 1.2652 -2.2141 0.0 0
M  V30 5 C -2.6944 -1.4409 0.0 0
M  V30 6 C 1.2417 -3.7019 0.0 0
M  V30 7 C 2.5538 -1.4409 0.0 0
M  V30 8 C -4.0299 -2.1672 0.0 0
M  V30 9 N -0.0937 -4.4165 0.0 0
M  V30 10 C 2.5304 -4.4282 0.0 0
M  V30 11 C 3.8425 -2.1672 0.0 0
M  V30 12 C 3.819 -3.6433 0.0 0
M  V30 END ATOM
M  V30 BEGIN BOND
M  V30 1 2 1 2
M  V30 2 1 2 3
M  V30 3 1 2 4
M  V30 4 1 3 5
M  V30 5 2 4 6
M  V30 6 1 4 7
M  V30 7 1 5 8
M  V30 8 1 6 9
M  V30 9 1 6 10
M  V30 10 2 7 11
M  V30 11 2 10 12
M  V30 12 1 11 12
M  V30 END BOND
M  V30 END CTAB
M  END
>  <Molecule Name>
Anthranilic acid, ethyl ester

>  <Database>
PubChem

>  <Reference DOI>
10.3390/toxics11100837

>  <Molecular Target>
Aedes aegypti

>  <PubChem CID>
6877

>  <Smiles>
CCOC(c(cccc1)c1N)=O

>  <Molecular Formula>
C9H11NO2

>  <Activity>
1

$$$$
Compound 150
Actelion Java MolfileCreator 2.0

  0  0  0  0  0  0              0 V3000
M  V30 BEGIN CTAB
M  V30 COUNTS 12 12 0 0 0
M  V30 BEGIN ATOM
M  V30 1 O 0.0 0.0 0.0 0
M  V30 2 C -0.0233 -1.4849 0.0 0
M  V30 3 O -1.3563 -2.2215 0.0 0
M  V30 4 C 1.2627 -2.2215 0.0 0
M  V30 5 C -2.6892 -1.4381 0.0 0
M  V30 6 C 2.5489 -1.4381 0.0 0
M  V30 7 C 1.2394 -3.7065 0.0 0
M  V30 8 C -4.0222 -2.1748 0.0 0
M  V30 9 C 3.8351 -2.1748 0.0 0
M  V30 10 C 2.5255 -4.4314 0.0 0
M  V30 11 N 5.1213 -1.3914 0.0 0
M  V30 12 C 3.8117 -3.6597 0.0 0
M  V30 END ATOM
M  V30 BEGIN BOND
M  V30 1 2 1 2
M  V30 2 1 2 3
M  V30 3 1 2 4
M  V30 4 1 3 5
M  V30 5 2 4 6
M  V30 6 1 4 7
M  V30 7 1 5 8
M  V30 8 1 6 9
M  V30 9 2 7 10
M  V30 10 1 9 11
M  V30 11 2 9 12
M  V30 12 1 10 12
M  V30 END BOND
M  V30 END CTAB
M  END
>  <Molecule Name>
m-Aminobenzoic acid, ethyl ester

>  <Database>
PubChem

>  <Reference DOI>
10.3390/toxics11100837

>  <Molecular Target>
Aedes aegypti

>  <PubChem CID>
11400

>  <Smiles>
CCOC(c1cc(N)ccc1)=O

>  <Molecular Formula>
C9H11NO2

>  <Activity>
1

$$$$
Compound 151
Actelion Java MolfileCreator 2.0

  0  0  0  0  0  0              0 V3000
M  V30 BEGIN CTAB
M  V30 COUNTS 13 13 0 0 0
M  V30 BEGIN ATOM
M  V30 1 O 0.0 0.0 0.0 0
M  V30 2 C 1.2848 -0.7515 0.0 0
M  V30 3 O 2.5696 0.0121 0.0 0
M  V30 4 C 1.2605 -2.2423 0.0 0
M  V30 5 C 2.5454 1.5514 0.0 0
M  V30 6 C 2.5454 -2.9939 0.0 0
M  V30 7 C -0.0727 -2.9817 0.0 0
M  V30 8 O 3.8302 -2.2302 0.0 0
M  V30 9 C 2.5211 -4.4847 0.0 0
M  V30 10 C -0.0969 -4.4726 0.0 0
M  V30 11 C 5.115 -2.9696 0.0 0
M  V30 12 C 1.1878 -5.2241 0.0 0
M  V30 13 C 6.3999 -2.1939 0.0 0
M  V30 END ATOM
M  V30 BEGIN BOND
M  V30 1 2 1 2
M  V30 2 1 2 3
M  V30 3 1 2 4
M  V30 4 1 3 5
M  V30 5 2 4 6
M  V30 6 1 4 7
M  V30 7 1 6 8
M  V30 8 1 6 9
M  V30 9 2 7 10
M  V30 10 1 8 11
M  V30 11 2 9 12
M  V30 12 1 11 13
M  V30 13 1 10 12
M  V30 END BOND
M  V30 END CTAB
M  END
>  <Molecule Name>
o-Ethoxybenzoic acid, methyl ester

>  <Database>
PubChem

>  <Reference DOI>
10.3390/toxics11100837

>  <Molecular Target>
Aedes aegypti

>  <PubChem CID>
347794

>  <Smiles>
CCOc(cccc1)c1C(OC)=O

>  <Molecular Formula>
C10H12O3

>  <Activity>
1

$$$$
Compound 152
Actelion Java MolfileCreator 2.0

  0  0  0  0  0  0              0 V3000
M  V30 BEGIN CTAB
M  V30 COUNTS 11 11 0 0 0
M  V30 BEGIN ATOM
M  V30 1 O 0.0 0.0 0.0 0
M  V30 2 C -0.024 1.5266 0.0 0
M  V30 3 O -1.3463 2.2839 0.0 0
M  V30 4 C 1.2501 2.2839 0.0 0
M  V30 5 C -2.6685 1.5386 0.0 0
M  V30 6 C 2.5243 1.5506 0.0 0
M  V30 7 C 1.226 3.8105 0.0 0
M  V30 8 N 2.5002 0.0721 0.0 0
M  V30 9 C 3.7984 2.3199 0.0 0
M  V30 10 C 2.5002 4.5798 0.0 0
M  V30 11 C 3.7744 3.8465 0.0 0
M  V30 END ATOM
M  V30 BEGIN BOND
M  V30 1 2 1 2
M  V30 2 1 2 3
M  V30 3 1 2 4
M  V30 4 1 3 5
M  V30 5 2 4 6
M  V30 6 1 4 7
M  V30 7 1 6 8
M  V30 8 1 6 9
M  V30 9 2 7 10
M  V30 10 2 9 11
M  V30 11 1 10 11
M  V30 END BOND
M  V30 END CTAB
M  END
>  <Molecule Name>
Anthranilic acid, methyl ester

>  <Database>
PubChem

>  <Reference DOI>
10.3390/toxics11100837

>  <Molecular Target>
Aedes aegypti

>  <PubChem CID>
8635

>  <Smiles>
COC(c(cccc1)c1N)=O

>  <Molecular Formula>
C8H9NO2

>  <Activity>
1

$$$$
Compound 153
Actelion Java MolfileCreator 2.0

  0  0  0  0  0  0              0 V3000
M  V30 BEGIN CTAB
M  V30 COUNTS 12 12 0 0 0
M  V30 BEGIN ATOM
M  V30 1 O 0.0 0.0 0.0 0
M  V30 2 C -0.0356 1.5072 0.0 0
M  V30 3 C -1.3411 2.2549 0.0 0
M  V30 4 C -1.3767 3.7622 0.0 0
M  V30 5 C -2.6466 1.531 0.0 0
M  V30 6 C -2.6822 4.5217 0.0 0
M  V30 7 C -3.9521 2.2786 0.0 0
M  V30 8 O -2.7178 6.029 0.0 0
M  V30 9 C -3.9877 3.7978 0.0 0
M  V30 10 C -1.4835 6.7886 0.0 0
M  V30 11 O -5.2932 4.5573 0.0 0
M  V30 12 C -6.5987 3.8334 0.0 0
M  V30 END ATOM
M  V30 BEGIN BOND
M  V30 1 2 1 2
M  V30 2 1 2 3
M  V30 3 2 3 4
M  V30 4 1 3 5
M  V30 5 1 4 6
M  V30 6 2 5 7
M  V30 7 1 6 8
M  V30 8 2 6 9
M  V30 9 1 8 10
M  V30 10 1 9 11
M  V30 11 1 11 12
M  V30 12 1 7 9
M  V30 END BOND
M  V30 END CTAB
M  END
>  <Molecule Name>
3,4-Dimethoxy Benzaldehyde

>  <Database>
Pubchem

>  <Reference DOI>
10.3390/app11114861

>  <Molecular Target>
Culex pipiens pallens; Aedes albopictus; Haemaphysalis longicornis

>  <PubChem CID>
8419

>  <Smiles>
COc(ccc(C=O)c1)c1OC

>  <Molecular Formula>
C9H10O3

>  <Activity>
1

$$$$
Compound 154
Actelion Java MolfileCreator 2.0

  0  0  0  0  0  0              0 V3000
M  V30 BEGIN CTAB
M  V30 COUNTS 12 12 0 0 0
M  V30 BEGIN ATOM
M  V30 1 O 0.0 0.0 0.0 0
M  V30 2 C -0.0238 1.5158 0.0 0
M  V30 3 O -1.3368 2.2678 0.0 0
M  V30 4 C 1.2413 2.2678 0.0 0
M  V30 5 C -2.6497 1.5397 0.0 0
M  V30 6 C 1.2174 3.7837 0.0 0
M  V30 7 C -3.9627 2.3036 0.0 0
M  V30 8 C -2.6736 0.0716 0.0 0
M  V30 9 N 1.1936 5.2995 0.0 0
M  V30 10 C -5.2757 1.5755 0.0 0
M  V30 11 C -3.9866 -0.6445 0.0 0
M  V30 12 C -5.2995 0.1074 0.0 0
M  V30 END ATOM
M  V30 BEGIN BOND
M  V30 1 2 1 2
M  V30 2 1 2 3
M  V30 3 1 2 4
M  V30 4 1 3 5
M  V30 5 1 4 6
M  V30 6 1 5 7
M  V30 7 1 5 8
M  V30 8 3 6 9
M  V30 9 1 7 10
M  V30 10 1 8 11
M  V30 11 1 10 12
M  V30 12 1 11 12
M  V30 END BOND
M  V30 END CTAB
M  END
>  <Molecule Name>
alpha-Cyanoacetic acid, cyclohexyl ester

>  <Database>
PubChem

>  <Reference DOI>
10.3390/toxics11100837

>  <Molecular Target>
Aedes aegypti

>  <PubChem CID>
96357

>  <Smiles>
N#CCC(OC1CCCCC1)=O

>  <Molecular Formula>
C9H13NO2

>  <Activity>
1

$$$$
Compound 155
Actelion Java MolfileCreator 2.0

  0  0  0  0  0  0              0 V3000
M  V30 BEGIN CTAB
M  V30 COUNTS 14 15 0 0 0
M  V30 BEGIN ATOM
M  V30 1 O 0.0 0.0 0.0 0
M  V30 2 C 1.0945 -0.9886 0.0 0
M  V30 3 C 0.918 -2.4598 0.0 0 CFG=2
M  V30 4 C 2.5422 -0.6591 0.0 0
M  V30 5 C -0.4119 -3.2013 0.0 0
M  V30 6 C 2.2715 -3.0483 0.0 0
M  V30 7 C 3.272 -1.942 0.0 0
M  V30 8 O -0.4354 -4.6843 0.0 0
M  V30 9 O -1.7419 -2.4245 0.0 0
M  V30 10 C -3.0719 -3.1543 0.0 0
M  V30 11 C -4.4725 -2.5187 0.0 0
M  V30 12 C -3.2484 -4.6255 0.0 0
M  V30 13 C -5.5082 -3.6133 0.0 0
M  V30 14 C -4.7432 -4.908 0.0 0
M  V30 END ATOM
M  V30 BEGIN BOND
M  V30 1 2 1 2
M  V30 2 1 2 3
M  V30 3 1 2 4
M  V30 4 1 3 5 CFG=1
M  V30 5 1 3 6
M  V30 6 1 4 7
M  V30 7 2 5 8
M  V30 8 1 5 9
M  V30 9 1 9 10
M  V30 10 1 10 11
M  V30 11 1 10 12
M  V30 12 1 11 13
M  V30 13 1 12 14
M  V30 14 1 6 7
M  V30 15 1 13 14
M  V30 END BOND
M  V30 BEGIN COLLECTION
M  V30 MDLV30/STERAC1 ATOMS=(1 3)
M  V30 END COLLECTION
M  V30 END CTAB
M  END
>  <Molecule Name>
2-Oxocyclopentanecarboxylic acid, cyclopentyl ester

>  <Database>
PubChem

>  <Reference DOI>
10.3390/toxics11100837

>  <Molecular Target>
Aedes aegypti

>  <PubChem CID>
245446

>  <Smiles>
O=C(C(CCC1)C1=O)OC1CCCC1

>  <Molecular Formula>
C11H16O3

>  <Activity>
1

$$$$
Compound 156
Actelion Java MolfileCreator 2.0

  0  0  0  0  0  0              0 V3000
M  V30 BEGIN CTAB
M  V30 COUNTS 14 16 0 0 0
M  V30 BEGIN ATOM
M  V30 1 O 0.0 0.0 0.0 0
M  V30 2 C 1.2675 -0.6398 0.0 0
M  V30 3 O 2.5954 0.3138 0.0 0
M  V30 4 C 1.1709 -2.1729 0.0 0
M  V30 5 C 3.9113 -0.3863 0.0 0
M  V30 6 C 2.4989 -2.8369 0.0 0
M  V30 7 C 3.8147 -1.859 0.0 0
M  V30 8 C 5.1909 0.507 0.0 0
M  V30 9 C 5.0944 -2.4989 0.0 0
M  V30 10 C 6.4706 -0.1327 0.0 0
M  V30 11 C 6.374 -1.5693 0.0 0
M  V30 12 O 7.8589 0.4104 0.0 0
M  V30 13 C 7.7623 -1.9194 0.0 0
M  V30 14 C 8.716 -0.7726 0.0 0
M  V30 END ATOM
M  V30 BEGIN BOND
M  V30 1 2 1 2
M  V30 2 1 2 3
M  V30 3 1 2 4
M  V30 4 1 3 5
M  V30 5 2 4 6
M  V30 6 2 5 7
M  V30 7 1 5 8
M  V30 8 1 7 9
M  V30 9 2 8 10
M  V30 10 2 9 11
M  V30 11 1 10 12
M  V30 12 1 11 13
M  V30 13 1 12 14
M  V30 14 1 6 7
M  V30 15 1 10 11
M  V30 16 2 13 14
M  V30 END BOND
M  V30 END CTAB
M  END
>  <Molecule Name>
Psoralen

>  <Database>
Pubchem

>  <Reference DOI>
10.1186/s13071-017-2122-8

>  <Molecular Target>
Anopheles spp.

>  <PubChem CID>
6199

>  <Smiles>
O=C(C=C1)Oc2c1cc(cc[o]1)c1c2

>  <Molecular Formula>
C11H6O3

>  <Activity>
1

$$$$
Compound 157
Actelion Java MolfileCreator 2.0

  0  0  0  0  0  0              0 V3000
M  V30 BEGIN CTAB
M  V30 COUNTS 14 15 0 0 0
M  V30 BEGIN ATOM
M  V30 1 O 0.0 0.0 0.0 0
M  V30 2 C -0.024 1.5272 0.0 0
M  V30 3 O -1.3468 2.2969 0.0 0
M  V30 4 C 1.2506 2.2969 0.0 0
M  V30 5 C -2.6697 1.5513 0.0 0
M  V30 6 N 2.5254 1.5513 0.0 0
M  V30 7 C -4.0647 2.2007 0.0 0
M  V30 8 C -2.8501 0.0841 0.0 0
M  V30 9 C 2.6577 0.0841 0.0 0
M  V30 10 C 3.8723 2.2007 0.0 0
M  V30 11 C -5.0869 1.1184 0.0 0
M  V30 12 C -4.3413 -0.2044 0.0 0
M  V30 13 C 4.1008 -0.2044 0.0 0
M  V30 14 C 4.8464 1.1184 0.0 0
M  V30 END ATOM
M  V30 BEGIN BOND
M  V30 1 2 1 2
M  V30 2 1 2 3
M  V30 3 1 2 4
M  V30 4 1 3 5
M  V30 5 1 4 6
M  V30 6 1 5 7
M  V30 7 1 5 8
M  V30 8 1 6 9
M  V30 9 1 6 10
M  V30 10 1 7 11
M  V30 11 1 8 12
M  V30 12 2 9 13
M  V30 13 2 10 14
M  V30 14 1 11 12
M  V30 15 1 13 14
M  V30 END BOND
M  V30 END CTAB
M  END
>  <Molecule Name>
1-Pyrrolacetic acid, cyclopentyl ester

>  <Database>
PubChem

>  <Reference DOI>
10.3390/toxics11100837

>  <Molecular Target>
Aedes aegypti

>  <PubChem CID>
245442

>  <Smiles>
O=C(C[n]1cccc1)OC1CCCC1

>  <Molecular Formula>
C11H15NO2

>  <Activity>
1

$$$$
Compound 158
Actelion Java MolfileCreator 2.0

  0  0  0  0  0  0              0 V3000
M  V30 BEGIN CTAB
M  V30 COUNTS 15 16 0 0 0
M  V30 BEGIN ATOM
M  V30 1 Cl 0.0 0.0 0.0 0
M  V30 2 C -1.3121 -0.7395 0.0 0
M  V30 3 C -2.6243 0.0119 0.0 0
M  V30 4 C -1.336 -2.2068 0.0 0
M  V30 5 C -3.9365 -0.7157 0.0 0
M  V30 6 C -2.6481 -2.9464 0.0 0
M  V30 7 C -3.9603 -2.1829 0.0 0
M  V30 8 C -5.2725 -2.9225 0.0 0
M  V30 9 C -6.5847 -2.171 0.0 0 CFG=2
M  V30 10 O -6.6085 -0.656 0.0 0
M  V30 11 C -7.8968 -2.9106 0.0 0
M  V30 12 O -9.2806 -2.2664 0.0 0
M  V30 13 C -8.0758 -4.3659 0.0 0
M  V30 14 C -10.2945 -3.34 0.0 0
M  V30 15 C -9.5549 -4.6522 0.0 0
M  V30 END ATOM
M  V30 BEGIN BOND
M  V30 1 1 1 2
M  V30 2 2 2 3
M  V30 3 1 2 4
M  V30 4 1 3 5
M  V30 5 2 4 6
M  V30 6 2 5 7
M  V30 7 1 7 8
M  V30 8 1 8 9
M  V30 9 1 9 10 CFG=1
M  V30 10 1 9 11
M  V30 11 1 11 12
M  V30 12 2 11 13
M  V30 13 1 12 14
M  V30 14 1 13 15
M  V30 15 1 6 7
M  V30 16 2 14 15
M  V30 END BOND
M  V30 BEGIN COLLECTION
M  V30 MDLV30/STERAC1 ATOMS=(1 9)
M  V30 END COLLECTION
M  V30 END CTAB
M  END
>  <Molecule Name>
p-Chlorobenzylfurylcarbinol

>  <Database>
PubChem

>  <Reference DOI>
10.3390/toxics11100837

>  <Molecular Target>
Aedes aegypti

>  <PubChem CID>
62717146

>  <Smiles>
OC(Cc(cc1)ccc1Cl)c1ccc[o]1

>  <Molecular Formula>
C12H11O2Cl

>  <Activity>
1

$$$$
Compound 159
Actelion Java MolfileCreator 2.0

  0  0  0  0  0  0              0 V3000
M  V30 BEGIN CTAB
M  V30 COUNTS 16 17 0 0 0
M  V30 BEGIN ATOM
M  V30 1 O 0.0 0.0 0.0 0
M  V30 2 C -0.024 1.5292 0.0 0
M  V30 3 O 1.2523 2.2999 0.0 0
M  V30 4 C -1.3486 2.2999 0.0 0
M  V30 5 C 2.5287 1.5654 0.0 0
M  V30 6 C -2.6732 1.5654 0.0 0
M  V30 7 C 2.6611 0.0963 0.0 0
M  V30 8 C 3.8773 2.2156 0.0 0
M  V30 9 O -1.3968 0.8188 0.0 0
M  V30 10 C -3.9977 2.336 0.0 0
M  V30 11 C -2.6973 0.0842 0.0 0
M  V30 12 C 4.1061 -0.1926 0.0 0
M  V30 13 C 4.8527 1.1319 0.0 0
M  V30 14 C -5.3223 1.6015 0.0 0
M  V30 15 C -4.0218 -0.6502 0.0 0
M  V30 16 C -5.3464 0.1204 0.0 0
M  V30 END ATOM
M  V30 BEGIN BOND
M  V30 1 2 1 2
M  V30 2 1 2 3
M  V30 3 1 2 4
M  V30 4 1 3 5
M  V30 5 1 4 6
M  V30 6 1 5 7
M  V30 7 1 5 8
M  V30 8 1 6 9
M  V30 9 1 6 10
M  V30 10 1 6 11
M  V30 11 1 7 12
M  V30 12 1 8 13
M  V30 13 1 10 14
M  V30 14 1 11 15
M  V30 15 1 14 16
M  V30 16 1 12 13
M  V30 17 1 15 16
M  V30 END BOND
M  V30 END CTAB
M  END
>  <Molecule Name>
1-Hydroxycyclohexaneacetic acid, cyclopentyl ester

>  <Database>
Pubchem

>  <Reference DOI>
10.3390/toxics11100837

>  <Molecular Target>
Aedes aegypti

>  <PubChem CID>
245396

>  <Smiles>
OC1(CC(OC2CCCC2)=O)CCCCC1

>  <Molecular Formula>
C13H22O3

>  <Activity>
1

$$$$
Compound 160
Actelion Java MolfileCreator 2.0

  0  0  0  0  0  0              0 V3000
M  V30 BEGIN CTAB
M  V30 COUNTS 16 17 0 0 0
M  V30 BEGIN ATOM
M  V30 1 O 0.0 0.0 0.0 0
M  V30 2 C -0.0241 1.5305 0.0 0
M  V30 3 O 1.2533 2.3017 0.0 0
M  V30 4 C -1.3497 2.3017 0.0 0
M  V30 5 C 2.5307 1.5546 0.0 0
M  V30 6 C -2.6753 1.5546 0.0 0
M  V30 7 C 2.5066 0.0723 0.0 0
M  V30 8 C 3.8081 2.3258 0.0 0
M  V30 9 O -1.434 0.7712 0.0 0
M  V30 10 C -4.0733 2.2053 0.0 0
M  V30 11 C -2.8561 0.0843 0.0 0
M  V30 12 C 3.784 -0.6748 0.0 0
M  V30 13 C 5.0856 1.5787 0.0 0
M  V30 14 C -5.0976 1.1207 0.0 0
M  V30 15 C -4.3504 -0.2048 0.0 0
M  V30 16 C 5.0615 0.0843 0.0 0
M  V30 END ATOM
M  V30 BEGIN BOND
M  V30 1 2 1 2
M  V30 2 1 2 3
M  V30 3 1 2 4
M  V30 4 1 3 5
M  V30 5 1 4 6
M  V30 6 1 5 7
M  V30 7 1 5 8
M  V30 8 1 6 9
M  V30 9 1 6 10
M  V30 10 1 6 11
M  V30 11 1 7 12
M  V30 12 1 8 13
M  V30 13 1 10 14
M  V30 14 1 11 15
M  V30 15 1 12 16
M  V30 16 1 13 16
M  V30 17 1 14 15
M  V30 END BOND
M  V30 END CTAB
M  END
>  <Molecule Name>
1-Hydroxycyclopentaneacetic acid, cyclohexyl ester

>  <Database>
PubChem

>  <Reference DOI>
10.3390/toxics11100837

>  <Molecular Target>
Aedes aegypti

>  <PubChem CID>
245397

>  <Smiles>
OC1(CC(OC2CCCCC2)=O)CCCC1

>  <Molecular Formula>
C13H22O3

>  <Activity>
1

$$$$
Compound 161
Actelion Java MolfileCreator 2.0

  0  0  0  0  0  0              0 V3000
M  V30 BEGIN CTAB
M  V30 COUNTS 14 15 0 0 0
M  V30 BEGIN ATOM
M  V30 1 O 0.0 0.0 0.0 0
M  V30 2 C -1.3235 -0.7261 0.0 0
M  V30 3 O -2.647 0.0468 0.0 0
M  V30 4 C -1.3469 -2.2019 0.0 0
M  V30 5 C -3.9705 -0.6793 0.0 0
M  V30 6 O -0.0351 -1.4991 0.0 0
M  V30 7 C -2.5884 -3.0686 0.0 0
M  V30 8 C -0.1522 -3.0686 0.0 0
M  V30 9 C -5.3643 -0.0468 0.0 0
M  V30 10 C -4.1462 -2.1433 0.0 0
M  V30 11 C -2.155 -4.4741 0.0 0
M  V30 12 C -0.6324 -4.4741 0.0 0
M  V30 13 C -6.395 -1.1361 0.0 0
M  V30 14 C -5.6337 -2.4244 0.0 0
M  V30 END ATOM
M  V30 BEGIN BOND
M  V30 1 2 1 2
M  V30 2 1 2 3
M  V30 3 1 2 4
M  V30 4 1 3 5
M  V30 5 1 4 6
M  V30 6 1 4 7
M  V30 7 1 4 8
M  V30 8 1 5 9
M  V30 9 1 5 10
M  V30 10 1 7 11
M  V30 11 1 8 12
M  V30 12 1 9 13
M  V30 13 1 10 14
M  V30 14 1 11 12
M  V30 15 1 13 14
M  V30 END BOND
M  V30 END CTAB
M  END
>  <Molecule Name>
Cyclopentan-1-ol-1-carboxylic acid, cyclopentyl ester

>  <Database>
No information

>  <Reference DOI>
10.3390/toxics11100837

>  <Molecular Target>
Aedes aegypti

>  <PubChem CID>


>  <Smiles>
OC1(CCCC1)C(OC1CCCC1)=O

>  <Molecular Formula>
C11H18O3

>  <Activity>
1

$$$$
Compound 162
Actelion Java MolfileCreator 2.0

  0  0  0  0  0  0              0 V3000
M  V30 BEGIN CTAB
M  V30 COUNTS 15 16 0 0 0
M  V30 BEGIN ATOM
M  V30 1 O 0.0 0.0 0.0 0
M  V30 2 C -1.3231 -0.708 0.0 0
M  V30 3 O -2.6463 0.058 0.0 0
M  V30 4 C -1.3463 -2.182 0.0 0
M  V30 5 C -3.9695 -0.6499 0.0 0
M  V30 6 O -0.0348 -1.4856 0.0 0
M  V30 7 C -2.5883 -3.0526 0.0 0
M  V30 8 C -0.1508 -3.0526 0.0 0
M  V30 9 C -5.2927 0.1392 0.0 0
M  V30 10 C -3.9927 -2.124 0.0 0
M  V30 11 C -2.1588 -4.457 0.0 0
M  V30 12 C -0.6267 -4.457 0.0 0
M  V30 13 C -6.6159 -0.5687 0.0 0
M  V30 14 C -5.3159 -2.832 0.0 0
M  V30 15 C -6.6391 -2.0428 0.0 0
M  V30 END ATOM
M  V30 BEGIN BOND
M  V30 1 2 1 2
M  V30 2 1 2 3
M  V30 3 1 2 4
M  V30 4 1 3 5
M  V30 5 1 4 6
M  V30 6 1 4 7
M  V30 7 1 4 8
M  V30 8 1 5 9
M  V30 9 1 5 10
M  V30 10 1 7 11
M  V30 11 1 8 12
M  V30 12 1 9 13
M  V30 13 1 10 14
M  V30 14 1 13 15
M  V30 15 1 11 12
M  V30 16 1 14 15
M  V30 END BOND
M  V30 END CTAB
M  END
>  <Molecule Name>
Cyclopentan-1-ol-1-carboxylic acid, cyclohexyl ester

>  <Database>
PubChem

>  <Reference DOI>
10.3390/toxics11100837

>  <Molecular Target>
Aedes aegypti

>  <PubChem CID>
245370

>  <Smiles>
OC1(CCCC1)C(OC1CCCCC1)=O

>  <Molecular Formula>
C12H20O3

>  <Activity>
1

$$$$
Compound 163
Actelion Java MolfileCreator 2.0

  0  0  0  0  0  0              0 V3000
M  V30 BEGIN CTAB
M  V30 COUNTS 15 16 0 0 0
M  V30 BEGIN ATOM
M  V30 1 O 0.0 0.0 0.0 0
M  V30 2 C -1.3272 -0.7164 0.0 0
M  V30 3 O -2.6544 0.0587 0.0 0
M  V30 4 C -1.3507 -2.1963 0.0 0
M  V30 5 C -3.9816 -0.6577 0.0 0
M  V30 6 O -0.0704 -1.4211 0.0 0
M  V30 7 C -2.6779 -2.9128 0.0 0
M  V30 8 C -0.0704 -2.9128 0.0 0
M  V30 9 C -5.3793 -0.0234 0.0 0
M  V30 10 C -4.1578 -2.1258 0.0 0
M  V30 11 C -2.7014 -4.3927 0.0 0
M  V30 12 C -0.0939 -4.3927 0.0 0
M  V30 13 C -6.4128 -1.1157 0.0 0
M  V30 14 C -5.6494 -2.4077 0.0 0
M  V30 15 C -1.4211 -5.1326 0.0 0
M  V30 END ATOM
M  V30 BEGIN BOND
M  V30 1 2 1 2
M  V30 2 1 2 3
M  V30 3 1 2 4
M  V30 4 1 3 5
M  V30 5 1 4 6
M  V30 6 1 4 7
M  V30 7 1 4 8
M  V30 8 1 5 9
M  V30 9 1 5 10
M  V30 10 1 7 11
M  V30 11 1 8 12
M  V30 12 1 9 13
M  V30 13 1 10 14
M  V30 14 1 11 15
M  V30 15 1 12 15
M  V30 16 1 13 14
M  V30 END BOND
M  V30 END CTAB
M  END
>  <Molecule Name>
Cyclohexane-1-ol-1-carboxylic acid, cyclopentyl ester

>  <Database>
PubChem

>  <Reference DOI>
10.3390/toxics11100837

>  <Molecular Target>
Aedes aegypti

>  <PubChem CID>
347864

>  <Smiles>
OC1(CCCCC1)C(OC1CCCC1)=O

>  <Molecular Formula>
C12H20O3

>  <Activity>
1

$$$$
Compound 164
Actelion Java MolfileCreator 2.0

  0  0  0  0  0  0              0 V3000
M  V30 BEGIN CTAB
M  V30 COUNTS 16 17 0 0 0
M  V30 BEGIN ATOM
M  V30 1 O 0.0 0.0 0.0 0
M  V30 2 C -1.3277 -0.7104 0.0 0
M  V30 3 O -2.6555 0.0582 0.0 0
M  V30 4 C -1.351 -2.1896 0.0 0
M  V30 5 C -3.9833 -0.6522 0.0 0
M  V30 6 O -0.0698 -1.4093 0.0 0
M  V30 7 C -2.6788 -2.9001 0.0 0
M  V30 8 C -0.0698 -2.9001 0.0 0
M  V30 9 C -5.3111 0.1397 0.0 0
M  V30 10 C -4.0066 -2.1314 0.0 0
M  V30 11 C -2.7021 -4.3793 0.0 0
M  V30 12 C -0.0931 -4.3793 0.0 0
M  V30 13 C -6.6388 -0.5707 0.0 0
M  V30 14 C -5.3343 -2.8419 0.0 0
M  V30 15 C -1.4209 -5.1014 0.0 0
M  V30 16 C -6.6621 -2.0498 0.0 0
M  V30 END ATOM
M  V30 BEGIN BOND
M  V30 1 2 1 2
M  V30 2 1 2 3
M  V30 3 1 2 4
M  V30 4 1 3 5
M  V30 5 1 4 6
M  V30 6 1 4 7
M  V30 7 1 4 8
M  V30 8 1 5 9
M  V30 9 1 5 10
M  V30 10 1 7 11
M  V30 11 1 8 12
M  V30 12 1 9 13
M  V30 13 1 10 14
M  V30 14 1 11 15
M  V30 15 1 13 16
M  V30 16 1 12 15
M  V30 17 1 14 16
M  V30 END BOND
M  V30 END CTAB
M  END
>  <Molecule Name>
Cyclohexan-1-ol-1-carboxylic acid, cyclohexyl ester

>  <Database>
No information

>  <Reference DOI>
10.3390/toxics11100837

>  <Molecular Target>
Aedes aegypti

>  <PubChem CID>


>  <Smiles>
OC1(CCCCC1)C(OC1CCCCC1)=O

>  <Molecular Formula>
C13H22O3

>  <Activity>
1

$$$$
Compound 165
Actelion Java MolfileCreator 2.0

  0  0  0  0  0  0              0 V3000
M  V30 BEGIN CTAB
M  V30 COUNTS 6 5 0 0 0
M  V30 BEGIN ATOM
M  V30 1 O 0.0 0.0 0.0 0
M  V30 2 C -0.061 1.551 0.0 0
M  V30 3 C 1.1602 2.3449 0.0 0
M  V30 4 C -1.4045 2.3449 0.0 0
M  V30 5 O 2.3815 1.6365 0.0 0
M  V30 6 O -2.7479 1.6365 0.0 0
M  V30 END ATOM
M  V30 BEGIN BOND
M  V30 1 1 1 2
M  V30 2 1 2 3
M  V30 3 1 2 4
M  V30 4 1 3 5
M  V30 5 1 4 6
M  V30 END BOND
M  V30 END CTAB
M  END
>  <Molecule Name>
propane-1,2,3-triol

>  <Database>
Pubchem

>  <Reference DOI>
10.1021/acs.jafc.2c05537

>  <Molecular Target>
Aedes albopictus

>  <PubChem CID>
753

>  <Smiles>
OCC(CO)O

>  <Molecular Formula>
C3H8O3

>  <Activity>
1

$$$$
Compound 166
Actelion Java MolfileCreator 2.0

  0  0  0  0  0  0              0 V3000
M  V30 BEGIN CTAB
M  V30 COUNTS 11 11 0 0 0
M  V30 BEGIN ATOM
M  V30 1 Cl 0.0 0.0 0.0 0
M  V30 2 C -1.3002 0.7564 0.0 0
M  V30 3 C -1.3238 2.2576 0.0 0
M  V30 4 C -2.6004 0.0236 0.0 0
M  V30 5 C -2.624 3.0141 0.0 0
M  V30 6 C -3.9006 0.7683 0.0 0
M  V30 7 C -3.9242 2.2812 0.0 0
M  V30 8 O -5.2244 3.0377 0.0 0
M  V30 9 C -6.5246 2.3049 0.0 0
M  V30 10 C -7.8249 3.0614 0.0 0
M  V30 11 O -9.1251 2.3285 0.0 0
M  V30 END ATOM
M  V30 BEGIN BOND
M  V30 1 1 1 2
M  V30 2 2 2 3
M  V30 3 1 2 4
M  V30 4 1 3 5
M  V30 5 2 4 6
M  V30 6 2 5 7
M  V30 7 1 7 8
M  V30 8 1 8 9
M  V30 9 1 9 10
M  V30 10 1 10 11
M  V30 11 1 6 7
M  V30 END BOND
M  V30 END CTAB
M  END
>  <Molecule Name>
2-(4-chlorophenoxy)ethanol

>  <Database>
PubChem

>  <Reference DOI>
10.3390/toxics11100837

>  <Molecular Target>
Aedes aegypti

>  <PubChem CID>
15907

>  <Smiles>
OCCOc(cc1)ccc1Cl

>  <Molecular Formula>
C8H9O2Cl

>  <Activity>
1

$$$$
Compound 167
Actelion Java MolfileCreator 2.0

  0  0  0  0  0  0              0 V3000
M  V30 BEGIN CTAB
M  V30 COUNTS 15 15 0 0 0
M  V30 BEGIN ATOM
M  V30 1 O 0.0 0.0 0.0 0
M  V30 2 C -0.0239 1.5189 0.0 0
M  V30 3 O -1.3395 2.2725 0.0 0
M  V30 4 C 1.2439 2.2725 0.0 0
M  V30 5 C -2.6552 1.5429 0.0 0
M  V30 6 C 2.5117 1.5429 0.0 0
M  V30 7 C 1.2199 3.7915 0.0 0
M  V30 8 C -3.9709 2.3083 0.0 0
M  V30 9 C 3.7795 2.3083 0.0 0
M  V30 10 C -5.2865 1.5788 0.0 0
M  V30 11 C -6.6022 2.3442 0.0 0
M  V30 12 C -5.3105 0.1076 0.0 0
M  V30 13 C -7.9179 1.6146 0.0 0
M  V30 14 C -6.6261 -0.6219 0.0 0
M  V30 15 C -7.9418 0.1435 0.0 0
M  V30 END ATOM
M  V30 BEGIN BOND
M  V30 1 2 1 2
M  V30 2 1 2 3
M  V30 3 1 2 4
M  V30 4 1 3 5
M  V30 5 2 4 6
M  V30 6 1 4 7
M  V30 7 1 5 8
M  V30 8 1 6 9
M  V30 9 1 8 10
M  V30 10 2 10 11
M  V30 11 1 10 12
M  V30 12 1 11 13
M  V30 13 2 12 14
M  V30 14 2 13 15
M  V30 15 1 14 15
M  V30 END BOND
M  V30 END CTAB
M  END
>  <Molecule Name>
Tiglic acid, phenethyl ester

>  <Database>
PubChem

>  <Reference DOI>
10.3390/toxics11100837

>  <Molecular Target>
Aedes aegypti

>  <PubChem CID>
5357002

>  <Smiles>
C/C=C(\C)/C(OCCc1ccccc1)=O

>  <Molecular Formula>
C13H16O2

>  <Activity>
1

$$$$
Compound 168
Actelion Java MolfileCreator 2.0

  0  0  0  0  0  0              0 V3000
M  V30 BEGIN CTAB
M  V30 COUNTS 13 13 0 0 0
M  V30 BEGIN ATOM
M  V30 1 O 0.0 0.0 0.0 0
M  V30 2 C -0.0234 -1.486 0.0 0
M  V30 3 N 1.2636 -2.1997 0.0 0
M  V30 4 C -1.3572 -2.1997 0.0 0
M  V30 5 C 1.2402 -3.6857 0.0 0
M  V30 6 C 2.5507 -1.4157 0.0 0
M  V30 7 C -2.6911 -1.4157 0.0 0
M  V30 8 C -0.0936 -4.3995 0.0 0
M  V30 9 C 2.5273 -4.4229 0.0 0
M  V30 10 C -4.025 -2.1295 0.0 0
M  V30 11 C -0.117 -5.8855 0.0 0
M  V30 12 C 2.5039 -5.9089 0.0 0
M  V30 13 C 1.17 -6.6343 0.0 0
M  V30 END ATOM
M  V30 BEGIN BOND
M  V30 1 2 1 2
M  V30 2 1 2 3
M  V30 3 1 2 4
M  V30 4 1 3 5
M  V30 5 1 3 6
M  V30 6 2 4 7
M  V30 7 2 5 8
M  V30 8 1 5 9
M  V30 9 1 7 10
M  V30 10 1 8 11
M  V30 11 2 9 12
M  V30 12 2 11 13
M  V30 13 1 12 13
M  V30 END BOND
M  V30 END CTAB
M  END
>  <Molecule Name>
N-Methylcrotonanilide

>  <Database>
PubChem

>  <Reference DOI>
10.3390/toxics11100837

>  <Molecular Target>
Aedes aegypti

>  <PubChem CID>
6474175

>  <Smiles>
C/C=C/C(N(C)c1ccccc1)=O

>  <Molecular Formula>
C11H13NO

>  <Activity>
1

$$$$
Compound 169
Actelion Java MolfileCreator 2.0

  0  0  0  0  0  0              0 V3000
M  V30 BEGIN CTAB
M  V30 COUNTS 11 11 0 0 0
M  V30 BEGIN ATOM
M  V30 1 O 0.0 0.0 0.0 0
M  V30 2 N 1.2829 0.7625 0.0 0
M  V30 3 C 2.5659 0.0121 0.0 0
M  V30 4 C 3.8489 0.7867 0.0 0
M  V30 5 C 2.5417 -1.4766 0.0 0
M  V30 6 C 5.1318 0.0363 0.0 0
M  V30 7 C 3.8247 2.3238 0.0 0
M  V30 8 C 3.8247 -2.227 0.0 0
M  V30 9 C 5.1076 -1.4524 0.0 0
M  V30 10 C 5.1076 3.0984 0.0 0
M  V30 11 C 5.0834 4.6356 0.0 0
M  V30 END ATOM
M  V30 BEGIN BOND
M  V30 1 1 1 2
M  V30 2 2 2 3
M  V30 3 1 3 4
M  V30 4 1 3 5
M  V30 5 1 4 6
M  V30 6 1 4 7
M  V30 7 1 5 8
M  V30 8 1 6 9
M  V30 9 1 7 10
M  V30 10 2 10 11
M  V30 11 1 8 9
M  V30 END BOND
M  V30 END CTAB
M  END
>  <Molecule Name>
NZ)-N-(2-prop-2-enylcyclohexylidene)hydroxylamine

>  <Database>
Pubchem

>  <Reference DOI>
10.1371/annotation/1dc83f26-8045-4b63-8a86-24c7b71a7f79

>  <Molecular Target>
Aedes aegypti

>  <PubChem CID>
12255463

>  <Smiles>
C=CCC(CCCC1)/C\1=N/O

>  <Molecular Formula>
C9H15NO

>  <Activity>
1

$$$$
Compound 170
Actelion Java MolfileCreator 2.0

  0  0  0  0  0  0              0 V3000
M  V30 BEGIN CTAB
M  V30 COUNTS 13 12 0 0 0
M  V30 BEGIN ATOM
M  V30 1 O 0.0 0.0 0.0 0
M  V30 2 C -0.0234 -1.4891 0.0 0
M  V30 3 O -1.3601 -2.2161 0.0 0
M  V30 4 C 1.2663 -2.2161 0.0 0
M  V30 5 C 2.5561 -1.4305 0.0 0
M  V30 6 C 3.8459 -2.1575 0.0 0
M  V30 7 C 5.1358 -1.3718 0.0 0
M  V30 8 C 6.4256 -2.1223 0.0 0
M  V30 9 C 7.7154 -1.3367 0.0 0
M  V30 10 C 9.0052 -2.0871 0.0 0
M  V30 11 C 10.295 -1.3015 0.0 0
M  V30 12 C 11.5848 -2.0519 0.0 0
M  V30 13 C 12.8746 -1.2663 0.0 0
M  V30 END ATOM
M  V30 BEGIN BOND
M  V30 1 2 1 2
M  V30 2 1 2 3
M  V30 3 1 2 4
M  V30 4 1 4 5
M  V30 5 1 5 6
M  V30 6 1 6 7
M  V30 7 1 7 8
M  V30 8 1 8 9
M  V30 9 1 9 10
M  V30 10 1 10 11
M  V30 11 1 11 12
M  V30 12 2 12 13
M  V30 END BOND
M  V30 END CTAB
M  END
>  <Molecule Name>
Undecylenic acid

>  <Database>
PubChem

>  <Reference DOI>
10.3390/toxics11100837

>  <Molecular Target>
Aedes aegypti

>  <PubChem CID>
5634

>  <Smiles>
C=CCCCCCCCCC(O)=O

>  <Molecular Formula>
C11H20O2

>  <Activity>
1

$$$$
Compound 171
Actelion Java MolfileCreator 2.0

  0  0  0  0  0  0              0 V3000
M  V30 BEGIN CTAB
M  V30 COUNTS 14 14 0 0 0
M  V30 BEGIN ATOM
M  V30 1 O 0.0 0.0 0.0 0
M  V30 2 C -0.0239 1.5233 0.0 0
M  V30 3 O -1.3433 2.2909 0.0 0
M  V30 4 C 1.2474 2.2909 0.0 0
M  V30 5 C -2.6628 1.5473 0.0 0
M  V30 6 C 2.5188 1.5473 0.0 0
M  V30 7 C -3.9822 2.3029 0.0 0
M  V30 8 C 3.7902 2.3029 0.0 0
M  V30 9 C -5.3016 1.5593 0.0 0
M  V30 10 C 5.0617 1.5593 0.0 0
M  V30 11 C 3.7663 3.8262 0.0 0
M  V30 12 C 6.3331 2.3149 0.0 0
M  V30 13 C 5.0377 4.5939 0.0 0
M  V30 14 C 6.3091 3.8382 0.0 0
M  V30 END ATOM
M  V30 BEGIN BOND
M  V30 1 2 1 2
M  V30 2 1 2 3
M  V30 3 1 2 4
M  V30 4 1 3 5
M  V30 5 2 4 6 CFG=2
M  V30 6 1 5 7
M  V30 7 1 6 8
M  V30 8 2 7 9
M  V30 9 2 8 10
M  V30 10 1 8 11
M  V30 11 1 10 12
M  V30 12 2 11 13
M  V30 13 2 12 14
M  V30 14 1 13 14
M  V30 END BOND
M  V30 END CTAB
M  END
>  <Molecule Name>
Cinnamic acid, allyl ester

>  <Database>
PubChem

>  <Reference DOI>
10.3390/toxics11100837

>  <Molecular Target>
Aedes aegypti

>  <PubChem CID>
15834

>  <Smiles>
C=CCOC(C=Cc1ccccc1)=O

>  <Molecular Formula>
C12H12O2

>  <Activity>
1

$$$$
Compound 172
Actelion Java MolfileCreator 2.0

  0  0  0  0  0  0              0 V3000
M  V30 BEGIN CTAB
M  V30 COUNTS 12 13 0 0 0
M  V30 BEGIN ATOM
M  V30 1 O 0.0 0.0 0.0 0
M  V30 2 C -1.4908 -0.3639 0.0 0
M  V30 3 C 0.763 -1.0917 0.0 0
M  V30 4 C -1.5847 -1.749 0.0 0
M  V30 5 C -2.8642 0.446 0.0 0
M  V30 6 O -0.1878 -2.1834 0.0 0
M  V30 7 C -2.9581 -2.4064 0.0 0
M  V30 8 C -4.2376 -0.2112 0.0 0
M  V30 9 C -4.3316 -1.5847 0.0 0
M  V30 10 C -5.6111 0.5986 0.0 0
M  V30 11 C -6.9845 -0.0586 0.0 0
M  V30 12 C -8.358 0.763 0.0 0
M  V30 END ATOM
M  V30 BEGIN BOND
M  V30 1 1 1 2
M  V30 2 1 1 3
M  V30 3 2 2 4
M  V30 4 1 2 5
M  V30 5 1 3 6
M  V30 6 1 4 7
M  V30 7 2 5 8
M  V30 8 2 7 9
M  V30 9 1 8 10
M  V30 10 1 10 11
M  V30 11 2 11 12
M  V30 12 1 4 6
M  V30 13 1 8 9
M  V30 END BOND
M  V30 END CTAB
M  END
>  <Molecule Name>
Safrole

>  <Database>
Pubchem

>  <Reference DOI>
10.1186/s13071-017-2122-8

>  <Molecular Target>
Anopheles spp.

>  <PubChem CID>
5144

>  <Smiles>
C=CCc(cc1)cc2c1OCO2

>  <Molecular Formula>
C10H10O2

>  <Activity>
1

$$$$
Compound 173
Actelion Java MolfileCreator 2.0

  0  0  0  0  0  0              0 V3000
M  V30 BEGIN CTAB
M  V30 COUNTS 12 13 0 0 0
M  V30 BEGIN ATOM
M  V30 1 O 0.0 0.0 0.0 0
M  V30 2 C -0.7851 1.2058 0.0 0
M  V30 3 C -2.033 1.9208 0.0 0
M  V30 4 C 0.7711 2.4116 0.0 0
M  V30 5 C -1.4301 -0.028 0.0 0
M  V30 6 O -3.2809 1.2618 0.0 0
M  V30 7 C -2.061 3.351 0.0 0
M  V30 8 C 1.0936 3.7996 0.0 0
M  V30 9 C -0.6169 2.7901 0.0 0
M  V30 10 C -0.2804 4.1502 0.0 0
M  V30 11 C 2.4676 3.8277 0.0 0
M  V30 12 C 1.7526 5.0475 0.0 0
M  V30 END ATOM
M  V30 BEGIN BOND
M  V30 1 1 1 2
M  V30 2 1 2 3
M  V30 3 1 2 4
M  V30 4 1 2 5
M  V30 5 1 3 6
M  V30 6 1 3 7
M  V30 7 1 4 8
M  V30 8 1 4 9
M  V30 9 1 7 10
M  V30 10 1 8 11
M  V30 11 1 8 12
M  V30 12 1 8 10
M  V30 13 1 9 10
M  V30 END BOND
M  V30 END CTAB
M  END
>  <Molecule Name>
2,6,6-Trimethyl-2,3-bicyclo-(3,1,1) heptanediol

>  <Database>
PubChem

>  <Reference DOI>
10.3390/toxics11100837

>  <Molecular Target>
Aedes aegypti

>  <PubChem CID>
62044

>  <Smiles>
CC(C)(C(C1)CC2O)C1C2(C)O

>  <Molecular Formula>
C10H18O2

>  <Activity>
1

$$$$
Compound 174
Actelion Java MolfileCreator 2.0

  0  0  0  0  0  0              0 V3000
M  V30 BEGIN CTAB
M  V30 COUNTS 23 23 0 0 0
M  V30 BEGIN ATOM
M  V30 1 O 0.0 0.0 0.0 0
M  V30 2 C -1.5002 0.8592 0.0 0
M  V30 3 O -3.0004 0.2727 0.0 0
M  V30 4 C -1.7866 2.5913 0.0 0
M  V30 5 C -3.2868 -0.8864 0.0 0
M  V30 6 C -3.2868 3.4641 0.0 0
M  V30 7 C -0.8592 3.4641 0.0 0
M  V30 8 C -4.787 -1.4729 0.0 0
M  V30 9 C -3.5732 5.1962 0.0 0
M  V30 10 C -1.1456 5.1962 0.0 0
M  V30 11 C -5.0734 -2.6322 0.0 0
M  V30 12 C -2.6458 6.069 0.0 0
M  V30 13 C -6.5737 -3.2186 0.0 0
M  V30 14 C -4.146 -3.2186 0.0 0
M  V30 15 C -2.9322 7.8011 0.0 0
M  V30 16 C -6.8601 -4.3779 0.0 0
M  V30 17 C -3.2186 9.5332 0.0 0
M  V30 18 C -1.7729 8.0875 0.0 0
M  V30 19 C -4.6643 8.0875 0.0 0
M  V30 20 C -8.3603 -4.9643 0.0 0
M  V30 21 C -8.6467 -6.1236 0.0 0
M  V30 22 C -10.1469 -6.7101 0.0 0
M  V30 23 C -7.7193 -6.7101 0.0 0
M  V30 END ATOM
M  V30 BEGIN BOND
M  V30 1 2 1 2
M  V30 2 1 2 3
M  V30 3 1 2 4
M  V30 4 1 3 5
M  V30 5 2 4 6
M  V30 6 1 4 7
M  V30 7 1 5 8
M  V30 8 1 6 9
M  V30 9 2 7 10
M  V30 10 2 8 11
M  V30 11 2 9 12
M  V30 12 1 11 13
M  V30 13 1 11 14
M  V30 14 1 12 15
M  V30 15 1 13 16
M  V30 16 1 15 17
M  V30 17 1 15 18
M  V30 18 1 15 19
M  V30 19 1 16 20
M  V30 20 2 20 21
M  V30 21 1 21 22
M  V30 22 1 21 23
M  V30 23 1 10 12
M  V30 END BOND
M  V30 END CTAB
M  END
>  <Molecule Name>
[(2E)-3,7-dimethylocta-2,6-dienyl] 4-tert-butylbenzoate

>  <Database>
Pubchem

>  <Reference DOI>
10.1021/jf104712c

>  <Molecular Target>
Acyrthosiphon pisum

>  <PubChem CID>
52920579

>  <Smiles>
CC(C)(C)c(cc1)ccc1C(OC/C=C(\C)/CCC=C(C)C)=O

>  <Molecular Formula>
C21H30O2

>  <Activity>
1

$$$$
Compound 175
Actelion Java MolfileCreator 2.0

  0  0  0  0  0  0              0 V3000
M  V30 BEGIN CTAB
M  V30 COUNTS 12 11 0 0 0
M  V30 BEGIN ATOM
M  V30 1 O 0.0 0.0 0.0 0
M  V30 2 C -0.0241 -1.4851 0.0 0
M  V30 3 O -1.3523 -2.2337 0.0 0
M  V30 4 C 1.2557 -2.2337 0.0 0
M  V30 5 C 2.5356 -1.461 0.0 0
M  V30 6 C 3.8155 -2.2096 0.0 0
M  V30 7 C 2.5115 0.0724 0.0 0
M  V30 8 C 5.0954 -1.4248 0.0 0
M  V30 9 C 6.3753 -2.1734 0.0 0
M  V30 10 C 7.6552 -1.4006 0.0 0
M  V30 11 C 8.9351 -2.1492 0.0 0
M  V30 12 C 7.6311 0.1328 0.0 0
M  V30 END ATOM
M  V30 BEGIN BOND
M  V30 1 2 1 2
M  V30 2 1 2 3
M  V30 3 1 2 4
M  V30 4 2 4 5
M  V30 5 1 5 6
M  V30 6 1 5 7
M  V30 7 1 6 8
M  V30 8 1 8 9
M  V30 9 2 9 10
M  V30 10 1 10 11
M  V30 11 1 10 12
M  V30 END BOND
M  V30 END CTAB
M  END
>  <Molecule Name>
Geranic acid

>  <Database>
PubChem

>  <Reference DOI>
10.3390/toxics11100837

>  <Molecular Target>
Aedes aegypti

>  <PubChem CID>
5275520

>  <Smiles>
CC(C)=CCC/C(\C)=C/C(O)=O

>  <Molecular Formula>
C10H16O2

>  <Activity>
1

$$$$
Compound 176
Actelion Java MolfileCreator 2.0

  0  0  0  0  0  0              0 V3000
M  V30 BEGIN CTAB
M  V30 COUNTS 14 13 0 0 0
M  V30 BEGIN ATOM
M  V30 1 O 0.0 0.0 0.0 0
M  V30 2 C -0.0765 1.6199 0.0 0
M  V30 3 O 1.1735 2.4491 0.0 0
M  V30 4 C -1.4796 2.4491 0.0 0
M  V30 5 C 2.4236 1.7092 0.0 0
M  V30 6 C 3.6736 2.5384 0.0 0
M  V30 7 C 4.9237 1.7985 0.0 0
M  V30 8 C 6.1738 2.6276 0.0 0
M  V30 9 C 4.8472 0.3316 0.0 0
M  V30 10 C 7.4238 1.8878 0.0 0
M  V30 11 C 8.6739 2.7169 0.0 0
M  V30 12 C 9.924 1.9771 0.0 0
M  V30 13 C 11.174 2.8062 0.0 0
M  V30 14 C 9.8474 0.5102 0.0 0
M  V30 END ATOM
M  V30 BEGIN BOND
M  V30 1 2 1 2
M  V30 2 1 2 3
M  V30 3 1 2 4
M  V30 4 1 3 5
M  V30 5 1 5 6
M  V30 6 2 6 7
M  V30 7 1 7 8
M  V30 8 1 7 9
M  V30 9 1 8 10
M  V30 10 1 10 11
M  V30 11 2 11 12
M  V30 12 1 12 13
M  V30 13 1 12 14
M  V30 END BOND
M  V30 END CTAB
M  END
>  <Molecule Name>
Geranyl acetate

>  <Database>
Pubchem

>  <Reference DOI>
10.1038/s41598-022-24923-x

>  <Molecular Target>
Aedes aegypti

>  <PubChem CID>
1549026

>  <Smiles>
CC(C)=CCC/C(\C)=C/COC(C)=O

>  <Molecular Formula>
C12H20O2

>  <Activity>
1

$$$$
Compound 177
Actelion Java MolfileCreator 2.0

  0  0  0  0  0  0              0 V3000
M  V30 BEGIN CTAB
M  V30 COUNTS 11 10 0 0 0
M  V30 BEGIN ATOM
M  V30 1 O 0.0 0.0 0.0 0
M  V30 2 C -0.0239 1.5184 0.0 0
M  V30 3 C 1.2434 2.2836 0.0 0
M  V30 4 C -1.3391 2.2836 0.0 0
M  V30 5 C 2.5108 1.5423 0.0 0
M  V30 6 C 1.9847 3.5988 0.0 0
M  V30 7 C 0.4782 3.5988 0.0 0
M  V30 8 C -1.363 3.8021 0.0 0
M  V30 9 C -2.6543 1.5423 0.0 0
M  V30 10 O 2.4869 0.0717 0.0 0
M  V30 11 C 3.7782 2.3075 0.0 0
M  V30 END ATOM
M  V30 BEGIN BOND
M  V30 1 1 1 2
M  V30 2 1 2 3
M  V30 3 1 2 4
M  V30 4 1 3 5
M  V30 5 1 3 6
M  V30 6 1 3 7
M  V30 7 1 4 8
M  V30 8 1 4 9
M  V30 9 1 5 10
M  V30 10 1 5 11
M  V30 END BOND
M  V30 END CTAB
M  END
>  <Molecule Name>
3,3,5-Trimethyl-2,4-hexanediol

>  <Database>
PubChem

>  <Reference DOI>
10.3390/toxics11100837

>  <Molecular Target>
Aedes aegypti

>  <PubChem CID>
57276440

>  <Smiles>
CC(C)C(C(C)(C)C(C)O)O

>  <Molecular Formula>
C9H20O2

>  <Activity>
1

$$$$
Compound 178
Actelion Java MolfileCreator 2.0

  0  0  0  0  0  0              0 V3000
M  V30 BEGIN CTAB
M  V30 COUNTS 9 8 0 0 0
M  V30 BEGIN ATOM
M  V30 1 O 0.0 0.0 0.0 0
M  V30 2 C -0.024 -1.4767 0.0 0
M  V30 3 C 1.2486 -2.2211 0.0 0
M  V30 4 C -1.3447 -2.2211 0.0 0
M  V30 5 C 2.5213 -1.4527 0.0 0
M  V30 6 C 1.2246 -3.6979 0.0 0
M  V30 7 C -2.6654 -1.4527 0.0 0
M  V30 8 O -3.986 -2.1971 0.0 0
M  V30 9 C -2.6894 0.072 0.0 0
M  V30 END ATOM
M  V30 BEGIN BOND
M  V30 1 1 1 2
M  V30 2 1 2 3
M  V30 3 1 2 4
M  V30 4 1 3 5
M  V30 5 1 3 6
M  V30 6 1 4 7
M  V30 7 1 7 8
M  V30 8 1 7 9
M  V30 END BOND
M  V30 END CTAB
M  END
>  <Molecule Name>
5-Methyl-2,4-hexanediol

>  <Database>
PubChem

>  <Reference DOI>
10.3390/toxics11100837

>  <Molecular Target>
Aedes aegypti

>  <PubChem CID>
4914394

>  <Smiles>
CC(C)C(CC(C)O)O

>  <Molecular Formula>
C7H16O2

>  <Activity>
1

$$$$
Compound 179
Actelion Java MolfileCreator 2.0

  0  0  0  0  0  0              0 V3000
M  V30 BEGIN CTAB
M  V30 COUNTS 12 11 0 0 0
M  V30 BEGIN ATOM
M  V30 1 O 0.0 0.0 0.0 0
M  V30 2 C -0.024 -1.4796 0.0 0
M  V30 3 C 1.2511 -2.2255 0.0 0
M  V30 4 C -1.3473 -2.2255 0.0 0
M  V30 5 C 2.5262 -1.4556 0.0 0
M  V30 6 C 1.227 -3.7051 0.0 0
M  V30 7 C -2.6706 -1.4556 0.0 0
M  V30 8 C 3.8014 -2.2014 0.0 0
M  V30 9 C 2.5022 0.0721 0.0 0
M  V30 10 O 2.5022 -4.439 0.0 0
M  V30 11 C -2.6946 0.0721 0.0 0
M  V30 12 C -3.9939 -2.2014 0.0 0
M  V30 END ATOM
M  V30 BEGIN BOND
M  V30 1 1 1 2
M  V30 2 1 2 3
M  V30 3 1 2 4
M  V30 4 1 3 5
M  V30 5 1 3 6
M  V30 6 1 4 7
M  V30 7 1 5 8
M  V30 8 1 5 9
M  V30 9 1 6 10
M  V30 10 1 7 11
M  V30 11 1 7 12
M  V30 END BOND
M  V30 END CTAB
M  END
>  <Molecule Name>
2-iso-Propyl-5-methyl-1,3-hexanediol

>  <Database>
PubChem

>  <Reference DOI>
10.3390/toxics11100837

>  <Molecular Target>
Aedes aegypti

>  <PubChem CID>
13695602

>  <Smiles>
CC(C)CC(C(CO)C(C)C)O

>  <Molecular Formula>
C10H22O2

>  <Activity>
1

$$$$
Compound 180
Actelion Java MolfileCreator 2.0

  0  0  0  0  0  0              0 V3000
M  V30 BEGIN CTAB
M  V30 COUNTS 10 9 0 0 0
M  V30 BEGIN ATOM
M  V30 1 O 0.0 0.0 0.0 0
M  V30 2 C -0.0239 -1.4743 0.0 0
M  V30 3 C -1.3424 -2.2174 0.0 0
M  V30 4 C 1.2465 -2.2174 0.0 0
M  V30 5 C -2.6609 -1.4503 0.0 0
M  V30 6 C 2.5171 -1.4503 0.0 0
M  V30 7 O -3.9794 -2.1935 0.0 0
M  V30 8 C -2.6849 0.0719 0.0 0
M  V30 9 C 3.7877 -2.1935 0.0 0
M  V30 10 C 2.4931 0.0719 0.0 0
M  V30 END ATOM
M  V30 BEGIN BOND
M  V30 1 1 1 2
M  V30 2 1 2 3
M  V30 3 1 2 4
M  V30 4 1 3 5
M  V30 5 1 4 6
M  V30 6 1 5 7
M  V30 7 1 5 8
M  V30 8 1 6 9
M  V30 9 1 6 10
M  V30 END BOND
M  V30 END CTAB
M  END
>  <Molecule Name>
6-Methyl-2,4-heptanediol

>  <Database>
PubChem

>  <Reference DOI>
10.3390/toxics11100837

>  <Molecular Target>
Aedes aegypti

>  <PubChem CID>
349983

>  <Smiles>
CC(C)CC(CC(C)O)O

>  <Molecular Formula>
C8H18O2

>  <Activity>
1

$$$$
Compound 181
Actelion Java MolfileCreator 2.0

  0  0  0  0  0  0              0 V3000
M  V30 BEGIN CTAB
M  V30 COUNTS 11 10 0 0 0
M  V30 BEGIN ATOM
M  V30 1 O 0.0 0.0 0.0 0
M  V30 2 C -0.024 -1.4787 0.0 0
M  V30 3 C -1.3465 -2.2241 0.0 0
M  V30 4 C 1.2503 -2.2241 0.0 0
M  V30 5 C -2.669 -1.4427 0.0 0
M  V30 6 C 2.5247 -1.4427 0.0 0
M  V30 7 O -3.9915 -2.1881 0.0 0
M  V30 8 C -2.693 0.0841 0.0 0
M  V30 9 C 3.7991 -2.1881 0.0 0
M  V30 10 C 5.0735 -1.4066 0.0 0
M  V30 11 C 3.7751 -3.6669 0.0 0
M  V30 END ATOM
M  V30 BEGIN BOND
M  V30 1 1 1 2
M  V30 2 1 2 3
M  V30 3 1 2 4
M  V30 4 1 3 5
M  V30 5 1 4 6
M  V30 6 1 5 7
M  V30 7 1 5 8
M  V30 8 1 6 9
M  V30 9 1 9 10
M  V30 10 1 9 11
M  V30 END BOND
M  V30 END CTAB
M  END
>  <Molecule Name>
7-Methyl-2,4-octanediol

>  <Database>
PubChem

>  <Reference DOI>
10.3390/toxics11100837

>  <Molecular Target>
Aedes aegypti

>  <PubChem CID>
349984

>  <Smiles>
CC(C)CCC(CC(C)O)O

>  <Molecular Formula>
C9H20O2

>  <Activity>
1

$$$$
Compound 182
Actelion Java MolfileCreator 2.0

  0  0  0  0  0  0              0 V3000
M  V30 BEGIN CTAB
M  V30 COUNTS 15 15 0 0 0
M  V30 BEGIN ATOM
M  V30 1 O 0.0 0.0 0.0 0
M  V30 2 C 1.2832 0.7626 0.0 0
M  V30 3 N 2.5664 0.0121 0.0 0
M  V30 4 C 1.259 2.3001 0.0 0
M  V30 5 C 2.5422 -1.4769 0.0 0
M  V30 6 C 3.8497 0.7747 0.0 0
M  V30 7 C 1.2106 -2.2154 0.0 0
M  V30 8 C 3.8255 -2.2275 0.0 0
M  V30 9 C 5.1329 0.0242 0.0 0
M  V30 10 C 1.1863 -3.7044 0.0 0
M  V30 11 C 3.8013 -3.7165 0.0 0
M  V30 12 C 6.4162 0.7868 0.0 0
M  V30 13 C 2.4696 -4.455 0.0 0
M  V30 14 C 7.6994 0.0363 0.0 0
M  V30 15 C 6.392 2.3243 0.0 0
M  V30 END ATOM
M  V30 BEGIN BOND
M  V30 1 2 1 2
M  V30 2 1 2 3
M  V30 3 1 2 4
M  V30 4 1 3 5
M  V30 5 1 3 6
M  V30 6 2 5 7
M  V30 7 1 5 8
M  V30 8 1 6 9
M  V30 9 1 7 10
M  V30 10 2 8 11
M  V30 11 1 9 12
M  V30 12 2 10 13
M  V30 13 1 12 14
M  V30 14 1 12 15
M  V30 15 1 11 13
M  V30 END BOND
M  V30 END CTAB
M  END
>  <Molecule Name>
N-iso-Amylacetanilide

>  <Database>
PubChem

>  <Reference DOI>
10.3390/toxics11100837

>  <Molecular Target>
Aedes aegypti

>  <PubChem CID>
221837

>  <Smiles>
CC(C)CCN(C(C)=O)c1ccccc1

>  <Molecular Formula>
C13H19NO

>  <Activity>
1

$$$$
Compound 183
Actelion Java MolfileCreator 2.0

  0  0  0  0  0  0              0 V3000
M  V30 BEGIN CTAB
M  V30 COUNTS 14 13 0 0 0
M  V30 BEGIN ATOM
M  V30 1 O 0.0 0.0 0.0 0
M  V30 2 C -1.3132 0.764 0.0 0
M  V30 3 N -1.337 2.2802 0.0 0
M  V30 4 C -2.6264 0.0358 0.0 0
M  V30 5 C -0.0716 3.0442 0.0 0
M  V30 6 C -2.6503 3.0442 0.0 0
M  V30 7 C 1.1938 2.3041 0.0 0
M  V30 8 C -3.9635 2.3041 0.0 0
M  V30 9 C 2.4593 3.0562 0.0 0
M  V30 10 C -5.2767 3.0562 0.0 0
M  V30 11 C 3.7247 2.316 0.0 0
M  V30 12 C 2.4354 4.5723 0.0 0
M  V30 13 C -5.3006 4.5723 0.0 0
M  V30 14 C -6.5899 2.316 0.0 0
M  V30 END ATOM
M  V30 BEGIN BOND
M  V30 1 2 1 2
M  V30 2 1 2 3
M  V30 3 1 2 4
M  V30 4 1 3 5
M  V30 5 1 3 6
M  V30 6 1 5 7
M  V30 7 1 6 8
M  V30 8 1 7 9
M  V30 9 1 8 10
M  V30 10 1 9 11
M  V30 11 1 9 12
M  V30 12 1 10 13
M  V30 13 1 10 14
M  V30 END BOND
M  V30 END CTAB
M  END
>  <Molecule Name>
N,N-Di-iso-amylacetamide

>  <Database>
PubChem

>  <Reference DOI>
10.3390/toxics11100837

>  <Molecular Target>
Aedes aegypti

>  <PubChem CID>
347868

>  <Smiles>
CC(C)CCN(CCC(C)C)C(C)=O

>  <Molecular Formula>
C12H25NO

>  <Activity>
1

$$$$
Compound 184
Actelion Java MolfileCreator 2.0

  0  0  0  0  0  0              0 V3000
M  V30 BEGIN CTAB
M  V30 COUNTS 14 14 0 0 0
M  V30 BEGIN ATOM
M  V30 1 O 0.0 0.0 0.0 0
M  V30 2 C -1.3308 -0.7121 0.0 0
M  V30 3 C 1.2841 -0.7121 0.0 0
M  V30 4 C -2.6617 0.0817 0.0 0
M  V30 5 C -1.3542 -2.1947 0.0 0
M  V30 6 C 2.5683 0.0583 0.0 0
M  V30 7 C -3.9925 -0.6304 0.0 0
M  V30 8 C -2.685 -2.9068 0.0 0
M  V30 9 C 3.8524 -0.6537 0.0 0
M  V30 10 C -4.0159 -2.113 0.0 0
M  V30 11 C 5.1366 0.1167 0.0 0
M  V30 12 C 3.8291 -2.1363 0.0 0
M  V30 13 C -5.3467 -2.8251 0.0 0
M  V30 14 O -5.3701 -4.3077 0.0 0
M  V30 END ATOM
M  V30 BEGIN BOND
M  V30 1 1 1 2
M  V30 2 1 1 3
M  V30 3 2 2 4
M  V30 4 1 2 5
M  V30 5 1 3 6
M  V30 6 1 4 7
M  V30 7 2 5 8
M  V30 8 1 6 9
M  V30 9 2 7 10
M  V30 10 1 9 11
M  V30 11 1 9 12
M  V30 12 1 10 13
M  V30 13 1 13 14
M  V30 14 1 8 10
M  V30 END BOND
M  V30 END CTAB
M  END
>  <Molecule Name>
p-iso-Pentoxybenzyl alcohol

>  <Database>
PubChem

>  <Reference DOI>
10.3390/toxics11100837

>  <Molecular Target>
Aedes aegypti

>  <PubChem CID>
28561523

>  <Smiles>
CC(C)CCOc1ccc(CO)cc1

>  <Molecular Formula>
C12H18O2

>  <Activity>
1

$$$$
Compound 185
Actelion Java MolfileCreator 2.0

  0  0  0  0  0  0              0 V3000
M  V30 BEGIN CTAB
M  V30 COUNTS 14 14 0 0 0
M  V30 BEGIN ATOM
M  V30 1 O 0.0 0.0 0.0 0
M  V30 2 C -0.0241 -1.4853 0.0 0
M  V30 3 O -1.3524 -2.2339 0.0 0
M  V30 4 C 1.2558 -2.2339 0.0 0
M  V30 5 C -2.6807 -1.4611 0.0 0
M  V30 6 C 2.5358 -1.4611 0.0 0
M  V30 7 C -2.7049 0.0724 0.0 0
M  V30 8 C -4.0091 -2.2098 0.0 0
M  V30 9 C 3.8159 -2.2098 0.0 0
M  V30 10 C 3.7917 -3.6951 0.0 0
M  V30 11 C 5.0959 -1.437 0.0 0
M  V30 12 C 5.0717 -4.4438 0.0 0
M  V30 13 C 6.3759 -2.1736 0.0 0
M  V30 14 C 6.3517 -3.671 0.0 0
M  V30 END ATOM
M  V30 BEGIN BOND
M  V30 1 2 1 2
M  V30 2 1 2 3
M  V30 3 1 2 4
M  V30 4 1 3 5
M  V30 5 2 4 6 CFG=2
M  V30 6 1 5 7
M  V30 7 1 5 8
M  V30 8 1 6 9
M  V30 9 2 9 10
M  V30 10 1 9 11
M  V30 11 1 10 12
M  V30 12 2 11 13
M  V30 13 2 12 14
M  V30 14 1 13 14
M  V30 END BOND
M  V30 END CTAB
M  END
>  <Molecule Name>
Cinnamic acid, iso-propyl ester

>  <Database>
PubChem

>  <Reference DOI>
10.3390/toxics11100837

>  <Molecular Target>
Aedes aegypti

>  <PubChem CID>
24521

>  <Smiles>
CC(C)OC(C=Cc1ccccc1)=O

>  <Molecular Formula>
C12H14O2

>  <Activity>
1

$$$$
Compound 186
Actelion Java MolfileCreator 2.0

  0  0  0  0  0  0              0 V3000
M  V30 BEGIN CTAB
M  V30 COUNTS 12 12 0 0 0
M  V30 BEGIN ATOM
M  V30 1 O 0.0 0.0 0.0 0
M  V30 2 C -0.0241 1.5346 0.0 0
M  V30 3 C 1.2567 2.308 0.0 0
M  V30 4 C 1.2325 3.8427 0.0 0
M  V30 5 C 2.5376 1.5709 0.0 0
M  V30 6 C 2.5134 4.616 0.0 0
M  V30 7 C 3.8185 2.3442 0.0 0
M  V30 8 C 3.7943 3.8668 0.0 0
M  V30 9 O 5.0752 4.6402 0.0 0
M  V30 10 C 6.3561 3.9031 0.0 0
M  V30 11 C 7.637 4.6765 0.0 0
M  V30 12 C 6.332 2.4167 0.0 0
M  V30 END ATOM
M  V30 BEGIN BOND
M  V30 1 2 1 2
M  V30 2 1 2 3
M  V30 3 2 3 4
M  V30 4 1 3 5
M  V30 5 1 4 6
M  V30 6 2 5 7
M  V30 7 2 6 8
M  V30 8 1 8 9
M  V30 9 1 9 10
M  V30 10 1 10 11
M  V30 11 1 10 12
M  V30 12 1 7 8
M  V30 END BOND
M  V30 END CTAB
M  END
>  <Molecule Name>
p-iso-Propoxybenzaldehyde

>  <Database>
PubChem

>  <Reference DOI>
10.3390/toxics11100837

>  <Molecular Target>
Aedes aegypti

>  <PubChem CID>
250077

>  <Smiles>
CC(C)Oc1ccc(C=O)cc1

>  <Molecular Formula>
C10H12O2

>  <Activity>
1

$$$$
Compound 187
Actelion Java MolfileCreator 2.0

  0  0  0  0  0  0              0 V3000
M  V30 BEGIN CTAB
M  V30 COUNTS 13 13 0 0 0
M  V30 BEGIN ATOM
M  V30 1 O 0.0 0.0 0.0 0
M  V30 2 C -1.3229 -0.7079 0.0 0
M  V30 3 C 1.2765 -0.7079 0.0 0
M  V30 4 C -2.6459 0.0812 0.0 0
M  V30 5 C -1.3461 -2.1817 0.0 0
M  V30 6 C 2.553 0.0696 0.0 0
M  V30 7 C 1.2533 -2.1817 0.0 0
M  V30 8 C -3.9688 -0.6266 0.0 0
M  V30 9 C -2.6691 -2.8896 0.0 0
M  V30 10 C -3.992 -2.1004 0.0 0
M  V30 11 C -5.315 -2.8083 0.0 0
M  V30 12 C -6.638 -2.0192 0.0 0
M  V30 13 O -7.9609 -2.7271 0.0 0
M  V30 END ATOM
M  V30 BEGIN BOND
M  V30 1 1 1 2
M  V30 2 1 1 3
M  V30 3 2 2 4
M  V30 4 1 2 5
M  V30 5 1 3 6
M  V30 6 1 3 7
M  V30 7 1 4 8
M  V30 8 2 5 9
M  V30 9 2 8 10
M  V30 10 1 10 11
M  V30 11 1 11 12
M  V30 12 1 12 13
M  V30 13 1 9 10
M  V30 END BOND
M  V30 END CTAB
M  END
>  <Molecule Name>
p-iso-Propoxyphenethyl alcohol

>  <Database>
PubChem

>  <Reference DOI>
10.3390/toxics11100837

>  <Molecular Target>
Aedes aegypti

>  <PubChem CID>
228096

>  <Smiles>
CC(C)Oc1ccc(CCO)cc1

>  <Molecular Formula>
C11H16O2

>  <Activity>
1

$$$$
Compound 188
Actelion Java MolfileCreator 2.0

  0  0  0  0  0  0              0 V3000
M  V30 BEGIN CTAB
M  V30 COUNTS 11 11 0 0 0
M  V30 BEGIN ATOM
M  V30 1 O 0.0 0.0 0.0 0
M  V30 2 N 1.2734 0.7568 0.0 0
M  V30 3 C 2.5469 0.024 0.0 0
M  V30 4 C 3.8203 0.7808 0.0 0 CFG=1
M  V30 5 C 3.7963 2.3066 0.0 0
M  V30 6 C 5.0938 0.048 0.0 0
M  V30 7 C 5.0698 3.0635 0.0 0
M  V30 8 C 2.4748 3.0635 0.0 0
M  V30 9 C 5.0457 4.5892 0.0 0
M  V30 10 C 2.4508 4.5892 0.0 0
M  V30 11 C 3.7242 5.3581 0.0 0
M  V30 END ATOM
M  V30 BEGIN BOND
M  V30 1 1 1 2
M  V30 2 2 2 3 CFG=2
M  V30 3 1 3 4
M  V30 4 1 4 5
M  V30 5 1 4 6 CFG=1
M  V30 6 2 5 7
M  V30 7 1 5 8
M  V30 8 1 7 9
M  V30 9 2 8 10
M  V30 10 2 9 11
M  V30 11 1 10 11
M  V30 END BOND
M  V30 BEGIN COLLECTION
M  V30 MDLV30/STERAC1 ATOMS=(1 4)
M  V30 END COLLECTION
M  V30 END CTAB
M  END
>  <Molecule Name>
Methyl phenyl acetaldehyde oxime

>  <Database>
PubChem

>  <Reference DOI>
10.3390/toxics11100837

>  <Molecular Target>
Aedes aegypti

>  <PubChem CID>
98005

>  <Smiles>
CC(C=NO)c1ccccc1

>  <Molecular Formula>
C9H11NO

>  <Activity>
1

$$$$
Compound 189
Actelion Java MolfileCreator 2.0

  0  0  0  0  0  0              0 V3000
M  V30 BEGIN CTAB
M  V30 COUNTS 9 9 0 0 0
M  V30 BEGIN ATOM
M  V30 1 O 0.0 0.0 0.0 0
M  V30 2 N 1.2918 0.7868 0.0 0
M  V30 3 C 2.5837 0.0352 0.0 0
M  V30 4 C 3.8755 0.8338 0.0 0
M  V30 5 C 2.5602 -1.4562 0.0 0
M  V30 6 C 5.1674 0.0822 0.0 0
M  V30 7 C 3.852 -2.1961 0.0 0
M  V30 8 C 5.1439 -1.4093 0.0 0
M  V30 9 C 6.4358 -2.1609 0.0 0
M  V30 END ATOM
M  V30 BEGIN BOND
M  V30 1 1 1 2
M  V30 2 2 2 3 CFG=2
M  V30 3 1 3 4
M  V30 4 1 3 5
M  V30 5 1 4 6
M  V30 6 1 5 7
M  V30 7 1 6 8
M  V30 8 1 8 9
M  V30 9 1 7 8
M  V30 END BOND
M  V30 END CTAB
M  END
>  <Molecule Name>
4-Methyl cyclohexanone oxime

>  <Database>
PubChem

>  <Reference DOI>
10.3390/toxics11100837

>  <Molecular Target>
Aedes aegypti

>  <PubChem CID>
236590

>  <Smiles>
CC(CC1)CCC1=NO

>  <Molecular Formula>
C7H13NO

>  <Activity>
1

$$$$
Compound 190
Actelion Java MolfileCreator 2.0

  0  0  0  0  0  0              0 V3000
M  V30 BEGIN CTAB
M  V30 COUNTS 11 11 0 0 0
M  V30 BEGIN ATOM
M  V30 1 O 0.0 0.0 0.0 0
M  V30 2 N 1.2794 0.7604 0.0 0
M  V30 3 C 2.5589 0.012 0.0 0
M  V30 4 C 3.8384 0.7725 0.0 0
M  V30 5 C 5.1178 0.0241 0.0 0
M  V30 6 C 3.8142 2.3054 0.0 0
M  V30 7 C 6.3973 0.7966 0.0 0
M  V30 8 C 5.0937 -1.4605 0.0 0
M  V30 9 C 5.0937 3.0779 0.0 0
M  V30 10 C 2.4865 3.0779 0.0 0
M  V30 11 C 6.3731 2.3295 0.0 0
M  V30 END ATOM
M  V30 BEGIN BOND
M  V30 1 1 1 2
M  V30 2 2 2 3 CFG=2
M  V30 3 1 3 4
M  V30 4 1 4 5
M  V30 5 1 4 6
M  V30 6 1 5 7
M  V30 7 1 5 8
M  V30 8 1 6 9
M  V30 9 1 6 10
M  V30 10 2 7 11
M  V30 11 1 9 11
M  V30 END BOND
M  V30 END CTAB
M  END
>  <Molecule Name>
2,6-Dimethyl-1,2,3,6-tetrahydrobenzaldehyde oxime

>  <Database>
No information

>  <Reference DOI>
10.3390/toxics11100837

>  <Molecular Target>
Aedes aegypti

>  <PubChem CID>


>  <Smiles>
CC(CC=CC1C)C1C=NO

>  <Molecular Formula>
C9H15NO

>  <Activity>
1

$$$$
Compound 191
Actelion Java MolfileCreator 2.0

  0  0  0  0  0  0              0 V3000
M  V30 BEGIN CTAB
M  V30 COUNTS 14 14 0 0 0
M  V30 BEGIN ATOM
M  V30 1 O 0.0 0.0 0.0 0
M  V30 2 C -0.0233 -1.4846 0.0 0
M  V30 3 C -1.356 -2.1977 0.0 0
M  V30 4 C 1.2625 -2.1977 0.0 0
M  V30 5 C -2.6887 -1.4028 0.0 0
M  V30 6 C -1.3794 -3.6824 0.0 0
M  V30 7 C 2.5484 -1.4145 0.0 0
M  V30 8 C -4.0214 -2.1159 0.0 0
M  V30 9 C -2.7121 -4.3955 0.0 0
M  V30 10 C 3.8344 -2.1276 0.0 0 CFG=1
M  V30 11 C -4.0448 -3.6005 0.0 0
M  V30 12 O 5.1203 -1.3443 0.0 0
M  V30 13 C 3.811 -3.6122 0.0 0
M  V30 14 C 6.4062 -2.0574 0.0 0
M  V30 END ATOM
M  V30 BEGIN BOND
M  V30 1 2 1 2
M  V30 2 1 2 3
M  V30 3 1 2 4
M  V30 4 2 3 5
M  V30 5 1 3 6
M  V30 6 1 4 7
M  V30 7 1 5 8
M  V30 8 2 6 9
M  V30 9 1 7 10
M  V30 10 2 8 11
M  V30 11 1 10 12
M  V30 12 1 10 13 CFG=1
M  V30 13 1 12 14
M  V30 14 1 9 11
M  V30 END BOND
M  V30 BEGIN COLLECTION
M  V30 MDLV30/STERAC1 ATOMS=(1 10)
M  V30 END COLLECTION
M  V30 END CTAB
M  END
>  <Molecule Name>
4-Methoxyvalerophenone

>  <Database>
PubChem

>  <Reference DOI>
10.3390/toxics11100837

>  <Molecular Target>
Aedes aegypti

>  <PubChem CID>
21612360

>  <Smiles>
CC(CCC(c1ccccc1)=O)OC

>  <Molecular Formula>
C12H16O2

>  <Activity>
1

$$$$
Compound 192
Actelion Java MolfileCreator 2.0

  0  0  0  0  0  0              0 V3000
M  V30 BEGIN CTAB
M  V30 COUNTS 12 12 0 0 0
M  V30 BEGIN ATOM
M  V30 1 O 0.0 0.0 0.0 0
M  V30 2 C 0.6925 -1.1837 0.0 0
M  V30 3 C -0.6925 -1.8763 0.0 0
M  V30 4 C 1.8763 -0.3651 0.0 0
M  V30 5 C 1.3851 -2.3674 0.0 0
M  V30 6 C -2.0777 -1.0577 0.0 0
M  V30 7 C -0.7933 -3.274 0.0 0
M  V30 8 O -2.1785 0.5414 0.0 0
M  V30 9 C -3.4629 -1.7503 0.0 0
M  V30 10 C -2.1785 -3.9666 0.0 0
M  V30 11 C -3.5637 -3.1481 0.0 0
M  V30 12 C -4.9489 -3.8407 0.0 0
M  V30 END ATOM
M  V30 BEGIN BOND
M  V30 1 1 1 2
M  V30 2 1 2 3
M  V30 3 1 2 4
M  V30 4 1 2 5
M  V30 5 1 3 6
M  V30 6 1 3 7
M  V30 7 1 6 8
M  V30 8 1 6 9
M  V30 9 1 7 10
M  V30 10 1 9 11
M  V30 11 1 11 12
M  V30 12 1 10 11
M  V30 END BOND
M  V30 END CTAB
M  END
>  <Molecule Name>
p-Menthane-3,8-diol

>  <Database>
Pubchem

>  <Reference DOI>
10.1603/0022-2585-39.5.736

>  <Molecular Target>
Anopheles gambiae

>  <PubChem CID>
556998

>  <Smiles>
CC(CCC1C(C)(C)O)CC1O

>  <Molecular Formula>
C10H20O2

>  <Activity>
1

$$$$
Compound 193
Actelion Java MolfileCreator 2.0

  0  0  0  0  0  0              0 V3000
M  V30 BEGIN CTAB
M  V30 COUNTS 12 13 0 0 0
M  V30 BEGIN ATOM
M  V30 1 O 0.0 0.0 0.0 0
M  V30 2 C -0.0611 1.5531 0.0 0
M  V30 3 N -1.4064 2.3358 0.0 0
M  V30 4 C 1.1618 2.3358 0.0 0
M  V30 5 C -1.4675 3.889 0.0 0
M  V30 6 C 1.1006 3.889 0.0 0
M  V30 7 C 2.5071 1.92 0.0 0
M  V30 8 C -0.2445 4.6717 0.0 0
M  V30 9 C 2.4459 4.4271 0.0 0
M  V30 10 C 3.2898 3.1675 0.0 0
M  V30 11 C 2.9229 0.5625 0.0 0
M  V30 12 C -0.3057 6.2249 0.0 0
M  V30 END ATOM
M  V30 BEGIN BOND
M  V30 1 2 1 2
M  V30 2 1 2 3
M  V30 3 1 2 4
M  V30 4 1 3 5
M  V30 5 1 4 6
M  V30 6 1 4 7
M  V30 7 2 5 8
M  V30 8 1 6 9
M  V30 9 1 7 10
M  V30 10 1 7 11
M  V30 11 1 8 12
M  V30 12 1 6 8
M  V30 13 1 9 10
M  V30 END BOND
M  V30 END CTAB
M  END
>  <Molecule Name>
Nepetalactam

>  <Database>
Pubchem

>  <Reference DOI>
10.1111/j.1365-2915.2011.00949.x

>  <Molecular Target>
Aedes aegypti

>  <PubChem CID>
14133657

>  <Smiles>
CC(CCC1C(C)=CN2)C1C2=O

>  <Molecular Formula>
C10H15NO

>  <Activity>
1

$$$$
Compound 194
Actelion Java MolfileCreator 2.0

  0  0  0  0  0  0              0 V3000
M  V30 BEGIN CTAB
M  V30 COUNTS 12 11 0 0 0
M  V30 BEGIN ATOM
M  V30 1 O 0.0 0.0 0.0 0
M  V30 2 C -0.0241 -1.4851 0.0 0
M  V30 3 O -1.3523 -2.2337 0.0 0
M  V30 4 C 1.2557 -2.2337 0.0 0
M  V30 5 C 2.5356 -1.461 0.0 0 CFG=2
M  V30 6 C 3.8155 -2.2096 0.0 0
M  V30 7 C 2.5115 0.0724 0.0 0
M  V30 8 C 5.0954 -1.4248 0.0 0
M  V30 9 C 6.3753 -2.1734 0.0 0
M  V30 10 C 7.6552 -1.4006 0.0 0
M  V30 11 C 8.9351 -2.1492 0.0 0
M  V30 12 C 7.6311 0.1328 0.0 0
M  V30 END ATOM
M  V30 BEGIN BOND
M  V30 1 2 1 2
M  V30 2 1 2 3
M  V30 3 1 2 4
M  V30 4 1 4 5
M  V30 5 1 5 6
M  V30 6 1 5 7 CFG=1
M  V30 7 1 6 8
M  V30 8 1 8 9
M  V30 9 2 9 10
M  V30 10 1 10 11
M  V30 11 1 10 12
M  V30 END BOND
M  V30 BEGIN COLLECTION
M  V30 MDLV30/STERAC1 ATOMS=(1 5)
M  V30 END COLLECTION
M  V30 END CTAB
M  END
>  <Molecule Name>
Citronellic acid

>  <Database>
PubChem

>  <Reference DOI>
10.3390/toxics11100837

>  <Molecular Target>
Aedes aegypti

>  <PubChem CID>
10402

>  <Smiles>
CC(CCC=C(C)C)CC(O)=O

>  <Molecular Formula>
C10H18O2

>  <Activity>
1

$$$$
Compound 195
Actelion Java MolfileCreator 2.0

  0  0  0  0  0  0              0 V3000
M  V30 BEGIN CTAB
M  V30 COUNTS 12 11 0 0 0
M  V30 BEGIN ATOM
M  V30 1 O 0.0 0.0 0.0 0
M  V30 2 C 1.2826 0.7744 0.0 0
M  V30 3 C 2.5653 0.0242 0.0 0
M  V30 4 C 3.8479 0.7986 0.0 0 CFG=2
M  V30 5 C 5.1306 0.0484 0.0 0
M  V30 6 C 3.8237 2.3353 0.0 0
M  V30 7 C 6.4132 0.8228 0.0 0
M  V30 8 C 7.6959 0.0726 0.0 0
M  V30 9 C 8.9785 0.847 0.0 0
M  V30 10 O 9.7167 -0.4356 0.0 0
M  V30 11 C 8.2041 2.178 0.0 0
M  V30 12 C 10.2612 1.6093 0.0 0
M  V30 END ATOM
M  V30 BEGIN BOND
M  V30 1 2 1 2
M  V30 2 1 2 3
M  V30 3 1 3 4
M  V30 4 1 4 5
M  V30 5 1 4 6 CFG=1
M  V30 6 1 5 7
M  V30 7 1 7 8
M  V30 8 1 8 9
M  V30 9 1 9 10
M  V30 10 1 9 11
M  V30 11 1 9 12
M  V30 END BOND
M  V30 BEGIN COLLECTION
M  V30 MDLV30/STERAC1 ATOMS=(1 4)
M  V30 END COLLECTION
M  V30 END CTAB
M  END
>  <Molecule Name>
Hydroxycitronellal

>  <Database>
PubChem

>  <Reference DOI>
10.3390/toxics11100837

>  <Molecular Target>
Aedes aegypti

>  <PubChem CID>
7888

>  <Smiles>
CC(CCCC(C)(C)O)CC=O

>  <Molecular Formula>
C10H20O2

>  <Activity>
1

$$$$
Compound 196
Actelion Java MolfileCreator 2.0

  0  0  0  0  0  0              0 V3000
M  V30 BEGIN CTAB
M  V30 COUNTS 15 16 0 0 0
M  V30 BEGIN ATOM
M  V30 1 O 0.0 0.0 0.0 0
M  V30 2 C -1.3563 0.7891 0.0 0
M  V30 3 N -1.4549 2.355 0.0 0
M  V30 4 C -2.7126 0.1109 0.0 0
M  V30 5 C -0.2959 3.1441 0.0 0
M  V30 6 C -2.8112 3.1441 0.0 0
M  V30 7 C -4.0689 0.9 0.0 0
M  V30 8 C -2.8112 -1.2576 0.0 0
M  V30 9 C -0.3945 4.7101 0.0 0
M  V30 10 C 0.8631 2.4536 0.0 0
M  V30 11 C -2.9099 4.7101 0.0 0
M  V30 12 C -5.4252 0.2219 0.0 0
M  V30 13 C -4.1675 -1.9358 0.0 0
M  V30 14 C -1.7508 5.4992 0.0 0
M  V30 15 C -5.5238 -1.1467 0.0 0
M  V30 END ATOM
M  V30 BEGIN BOND
M  V30 1 2 1 2
M  V30 2 1 2 3
M  V30 3 1 2 4
M  V30 4 1 3 5
M  V30 5 1 3 6
M  V30 6 1 4 7
M  V30 7 1 4 8
M  V30 8 1 5 9
M  V30 9 1 5 10
M  V30 10 1 6 11
M  V30 11 1 7 12
M  V30 12 1 8 13
M  V30 13 1 9 14
M  V30 14 2 12 15
M  V30 15 1 11 14
M  V30 16 1 13 15
M  V30 END BOND
M  V30 END CTAB
M  END
>  <Molecule Name>
(1S)-3-Cyclohexen-1-yl[(2S)-2-methyl-1-piperidinyl]methanone (SS220)

>  <Database>
Pubchem

>  <Reference DOI>
10.1603/0022-2585-40.3.293

>  <Molecular Target>
Anopheles stephensi: Aedes aegypti

>  <PubChem CID>
90567

>  <Smiles>
CC(CCCC1)N1C(C1CC=CCC1)=O

>  <Molecular Formula>
C13H21NO

>  <Activity>
1

$$$$
Compound 197
Actelion Java MolfileCreator 2.0

  0  0  0  0  0  0              0 V3000
M  V30 BEGIN CTAB
M  V30 COUNTS 15 15 0 0 0
M  V30 BEGIN ATOM
M  V30 1 O 0.0 0.0 0.0 0
M  V30 2 C 1.2733 0.7568 0.0 0
M  V30 3 C -1.3214 0.7568 0.0 0
M  V30 4 C 2.5467 0.012 0.0 0
M  V30 5 C -2.6428 0.012 0.0 0
M  V30 6 C 2.5226 -1.4655 0.0 0
M  V30 7 C 3.82 0.7808 0.0 0
M  V30 8 O -3.9642 0.7808 0.0 0
M  V30 9 C 3.796 -2.2103 0.0 0
M  V30 10 C 5.0934 0.048 0.0 0
M  V30 11 C -5.2856 0.036 0.0 0
M  V30 12 C 5.0694 -1.4415 0.0 0
M  V30 13 C -6.607 0.8048 0.0 0
M  V30 14 C -7.9284 0.06 0.0 0
M  V30 15 C -6.631 2.3304 0.0 0
M  V30 END ATOM
M  V30 BEGIN BOND
M  V30 1 1 1 2
M  V30 2 1 1 3
M  V30 3 1 2 4
M  V30 4 1 3 5
M  V30 5 2 4 6
M  V30 6 1 4 7
M  V30 7 1 5 8
M  V30 8 1 6 9
M  V30 9 2 7 10
M  V30 10 1 8 11
M  V30 11 2 9 12
M  V30 12 1 11 13
M  V30 13 2 13 14
M  V30 14 1 13 15
M  V30 15 1 10 12
M  V30 END BOND
M  V30 END CTAB
M  END
>  <Molecule Name>
Methallyl beta-benzyloxyethyl ether

>  <Database>
No information

>  <Reference DOI>
10.3390/toxics11100837

>  <Molecular Target>
Aedes aegypti

>  <PubChem CID>


>  <Smiles>
CC(COCCOCc1ccccc1)=C

>  <Molecular Formula>
C13H18O2

>  <Activity>
1

$$$$
Compound 198
Actelion Java MolfileCreator 2.0

  0  0  0  0  0  0              0 V3000
M  V30 BEGIN CTAB
M  V30 COUNTS 14 14 0 0 0
M  V30 BEGIN ATOM
M  V30 1 O 0.0 0.0 0.0 0
M  V30 2 C 1.2678 0.7535 0.0 0
M  V30 3 C -1.3157 0.7535 0.0 0
M  V30 4 C 2.5357 0.0119 0.0 0
M  V30 5 C 1.2439 2.2726 0.0 0
M  V30 6 C -2.6314 0.0119 0.0 0
M  V30 7 C 3.8036 0.7655 0.0 0
M  V30 8 C 2.5118 3.0261 0.0 0
M  V30 9 O -3.9472 0.7655 0.0 0
M  V30 10 C 3.7797 2.2845 0.0 0
M  V30 11 C -5.2629 0.0239 0.0 0
M  V30 12 C -6.5786 0.7774 0.0 0
M  V30 13 C -7.8944 0.0358 0.0 0
M  V30 14 C -6.6025 2.2965 0.0 0
M  V30 END ATOM
M  V30 BEGIN BOND
M  V30 1 1 1 2
M  V30 2 1 1 3
M  V30 3 2 2 4
M  V30 4 1 2 5
M  V30 5 1 3 6
M  V30 6 1 4 7
M  V30 7 2 5 8
M  V30 8 1 6 9
M  V30 9 2 7 10
M  V30 10 1 9 11
M  V30 11 1 11 12
M  V30 12 2 12 13
M  V30 13 1 12 14
M  V30 14 1 8 10
M  V30 END BOND
M  V30 END CTAB
M  END
>  <Molecule Name>
Methallyl beta-phenoxyethyl ether

>  <Database>
No information

>  <Reference DOI>
10.3390/toxics11100837

>  <Molecular Target>
Aedes aegypti

>  <PubChem CID>


>  <Smiles>
CC(COCCOc1ccccc1)=C

>  <Molecular Formula>
C12H16O2

>  <Activity>
1

$$$$
Compound 199
Actelion Java MolfileCreator 2.0

  0  0  0  0  0  0              0 V3000
M  V30 BEGIN CTAB
M  V30 COUNTS 13 14 0 0 0
M  V30 BEGIN ATOM
M  V30 1 O 0.0 0.0 0.0 0
M  V30 2 C -0.0233 -1.4829 0.0 0
M  V30 3 N -1.3544 -2.2068 0.0 0
M  V30 4 C 1.261 -2.2068 0.0 0
M  V30 5 C -1.3778 -3.6897 0.0 0
M  V30 6 C -2.6855 -1.4128 0.0 0
M  V30 7 C -2.7089 -4.402 0.0 0
M  V30 8 C -0.0934 -4.4253 0.0 0
M  V30 9 C -4.0166 -2.1251 0.0 0
M  V30 10 C -2.7322 -5.8849 0.0 0
M  V30 11 C -4.04 -3.6196 0.0 0
M  V30 12 C -0.1167 -5.9082 0.0 0
M  V30 13 C -1.4478 -6.6205 0.0 0
M  V30 END ATOM
M  V30 BEGIN BOND
M  V30 1 2 1 2
M  V30 2 1 2 3
M  V30 3 1 2 4
M  V30 4 1 3 5
M  V30 5 1 3 6
M  V30 6 2 5 7
M  V30 7 1 5 8
M  V30 8 1 6 9
M  V30 9 1 7 10
M  V30 10 1 7 11
M  V30 11 2 8 12
M  V30 12 2 10 13
M  V30 13 1 9 11
M  V30 14 1 12 13
M  V30 END BOND
M  V30 END CTAB
M  END
>  <Molecule Name>
N-Acetyl-1,2,3,4-tetrahydroquinoline

>  <Database>
PubChem

>  <Reference DOI>
10.3390/toxics11100837

>  <Molecular Target>
Aedes aegypti

>  <PubChem CID>
347850

>  <Smiles>
CC(N(CCC1)c2c1cccc2)=O

>  <Molecular Formula>
C11H13NO

>  <Activity>
1

$$$$
Compound 200
Actelion Java MolfileCreator 2.0

  0  0  0  0  0  0              0 V3000
M  V30 BEGIN CTAB
M  V30 COUNTS 11 11 0 0 0
M  V30 BEGIN ATOM
M  V30 1 O 0.0 0.0 0.0 0
M  V30 2 C -1.323 -0.7079 0.0 0
M  V30 3 C 1.2766 -0.7079 0.0 0
M  V30 4 C -2.646 0.0812 0.0 0
M  V30 5 C -1.3462 -2.1818 0.0 0
M  V30 6 C -3.9691 -0.6267 0.0 0
M  V30 7 C -2.6693 -2.8898 0.0 0
M  V30 8 C -3.9923 -2.1006 0.0 0
M  V30 9 C -5.3154 -2.8085 0.0 0 CFG=1
M  V30 10 O -5.3386 -4.2824 0.0 0
M  V30 11 C -6.6384 -2.0309 0.0 0
M  V30 END ATOM
M  V30 BEGIN BOND
M  V30 1 1 1 2
M  V30 2 1 1 3
M  V30 3 2 2 4
M  V30 4 1 2 5
M  V30 5 1 4 6
M  V30 6 2 5 7
M  V30 7 2 6 8
M  V30 8 1 8 9
M  V30 9 1 9 10 CFG=1
M  V30 10 1 9 11
M  V30 11 1 7 8
M  V30 END BOND
M  V30 BEGIN COLLECTION
M  V30 MDLV30/STERAC1 ATOMS=(1 9)
M  V30 END COLLECTION
M  V30 END CTAB
M  END
>  <Molecule Name>
1- (p-methoxyphenyl) ethanol

>  <Database>
PubChem

>  <Reference DOI>
10.3390/toxics11100837

>  <Molecular Target>
Aedes aegypti

>  <PubChem CID>
101148

>  <Smiles>
CC(c(cc1)ccc1OC)O

>  <Molecular Formula>
C9H12O2

>  <Activity>
1

$$$$
Compound 201
Actelion Java MolfileCreator 2.0

  0  0  0  0  0  0              0 V3000
M  V30 BEGIN CTAB
M  V30 COUNTS 13 14 0 0 0
M  V30 BEGIN ATOM
M  V30 1 O 0.0 0.0 0.0 0
M  V30 2 C 1.1957 -0.8575 0.0 0
M  V30 3 C 0.4468 1.4614 0.0 0
M  V30 4 N 2.3914 0.0483 0.0 0
M  V30 5 C 1.1715 -2.3431 0.0 0
M  V30 6 C 1.9325 1.4856 0.0 0
M  V30 7 C -0.157 -3.092 0.0 0
M  V30 8 C 2.4518 -3.092 0.0 0
M  V30 9 C 1.9083 3.0195 0.0 0
M  V30 10 C 3.3456 1.9808 0.0 0
M  V30 11 C -0.1811 -4.5776 0.0 0
M  V30 12 C 2.4277 -4.5776 0.0 0
M  V30 13 C 1.0991 -5.3264 0.0 0
M  V30 END ATOM
M  V30 BEGIN BOND
M  V30 1 1 1 2
M  V30 2 1 1 3
M  V30 3 1 2 4
M  V30 4 1 2 5
M  V30 5 1 3 6
M  V30 6 2 5 7
M  V30 7 1 5 8
M  V30 8 1 6 9
M  V30 9 1 6 10
M  V30 10 1 7 11
M  V30 11 2 8 12
M  V30 12 2 11 13
M  V30 13 1 4 6
M  V30 14 1 12 13
M  V30 END BOND
M  V30 END CTAB
M  END
>  <Molecule Name>
4,4-dimethyl-2-phenyl-1,3-oxazolidine

>  <Database>
Pubchem

>  <Reference DOI>
10.1371/annotation/1dc83f26-8045-4b63-8a86-24c7b71a7f79

>  <Molecular Target>
Aedes aegypti

>  <PubChem CID>
589827

>  <Smiles>
CC1(C)NC(c2ccccc2)OC1

>  <Molecular Formula>
C11H15NO

>  <Activity>
1

$$$$
Compound 202
Actelion Java MolfileCreator 2.0

  0  0  0  0  0  0              0 V3000
M  V30 BEGIN CTAB
M  V30 COUNTS 6 6 0 0 0
M  V30 BEGIN ATOM
M  V30 1 S 0.0 0.0 0.0 0
M  V30 2 C 1.186 0.8895 0.0 0
M  V30 3 C -1.2316 0.8895 0.0 0
M  V30 4 N 0.6956 2.3378 0.0 0
M  V30 5 C 2.5887 0.4447 0.0 0
M  V30 6 C -0.7868 2.3378 0.0 0
M  V30 END ATOM
M  V30 BEGIN BOND
M  V30 1 1 1 2
M  V30 2 1 1 3
M  V30 3 2 2 4
M  V30 4 1 2 5
M  V30 5 1 3 6
M  V30 6 1 4 6
M  V30 END BOND
M  V30 END CTAB
M  END
>  <Molecule Name>
2-Methyl-2-thiazoline

>  <Database>
Pubchem

>  <Reference DOI>
10.1186/s13071-017-2122-8

>  <Molecular Target>
Anopheles spp.

>  <PubChem CID>
16867

>  <Smiles>
CC1=NCCS1

>  <Molecular Formula>
C4H7NS

>  <Activity>
1

$$$$
Compound 203
Actelion Java MolfileCreator 2.0

  0  0  0  0  0  0              0 V3000
M  V30 BEGIN CTAB
M  V30 COUNTS 12 11 0 0 0
M  V30 BEGIN ATOM
M  V30 1 O 0.0 0.0 0.0 0
M  V30 2 C -0.0238 1.5159 0.0 0
M  V30 3 C -1.3369 2.268 0.0 0
M  V30 4 C 1.2414 2.268 0.0 0
M  V30 5 C -2.65 1.5279 0.0 0
M  V30 6 C -0.5968 3.5811 0.0 0
M  V30 7 C -2.0889 3.5811 0.0 0
M  V30 8 C 2.5067 1.5279 0.0 0
M  V30 9 C 1.2175 3.784 0.0 0
M  V30 10 O -2.6738 0.0596 0.0 0
M  V30 11 C -3.963 2.2799 0.0 0
M  V30 12 C -5.2761 1.5398 0.0 0
M  V30 END ATOM
M  V30 BEGIN BOND
M  V30 1 1 1 2
M  V30 2 1 2 3
M  V30 3 1 2 4
M  V30 4 1 3 5
M  V30 5 1 3 6
M  V30 6 1 3 7
M  V30 7 1 4 8
M  V30 8 1 4 9
M  V30 9 1 5 10
M  V30 10 1 5 11
M  V30 11 1 11 12
M  V30 END BOND
M  V30 END CTAB
M  END
>  <Molecule Name>
2,4,4-Trimethyl-3,5-heptanediol

>  <Database>
PubChem

>  <Reference DOI>
10.3390/toxics11100837

>  <Molecular Target>
Aedes aegypti

>  <PubChem CID>
221283

>  <Smiles>
CCC(C(C)(C)C(C(C)C)O)O

>  <Molecular Formula>
C10H22O2

>  <Activity>
1

$$$$
Compound 204
Actelion Java MolfileCreator 2.0

  0  0  0  0  0  0              0 V3000
M  V30 BEGIN CTAB
M  V30 COUNTS 11 10 0 0 0
M  V30 BEGIN ATOM
M  V30 1 O 0.0 0.0 0.0 0
M  V30 2 C -0.0238 1.5164 0.0 0
M  V30 3 C -1.3373 2.2686 0.0 0
M  V30 4 C 1.2418 2.2686 0.0 0
M  V30 5 C -2.6507 1.5283 0.0 0
M  V30 6 C -1.3612 3.7851 0.0 0
M  V30 7 C 2.5074 1.5283 0.0 0
M  V30 8 C 1.2179 3.7851 0.0 0
M  V30 9 O -2.6746 0.0597 0.0 0
M  V30 10 C -3.9642 2.2806 0.0 0
M  V30 11 C -5.2776 1.5403 0.0 0
M  V30 END ATOM
M  V30 BEGIN BOND
M  V30 1 1 1 2
M  V30 2 1 2 3
M  V30 3 1 2 4
M  V30 4 1 3 5
M  V30 5 1 3 6
M  V30 6 1 4 7
M  V30 7 1 4 8
M  V30 8 1 5 9
M  V30 9 1 5 10
M  V30 10 1 10 11
M  V30 END BOND
M  V30 END CTAB
M  END
>  <Molecule Name>
2,4-Dimethyl-3,5-heptanediol

>  <Database>
PubChem

>  <Reference DOI>
10.3390/toxics11100837

>  <Molecular Target>
Aedes aegypti

>  <PubChem CID>
14027629

>  <Smiles>
CCC(C(C)C(C(C)C)O)O

>  <Molecular Formula>
C9H20O2

>  <Activity>
1

$$$$
Compound 205
Actelion Java MolfileCreator 2.0

  0  0  0  0  0  0              0 V3000
M  V30 BEGIN CTAB
M  V30 COUNTS 9 8 0 0 0
M  V30 BEGIN ATOM
M  V30 1 O 0.0 0.0 0.0 0
M  V30 2 C -0.0239 1.5224 0.0 0
M  V30 3 C 1.2467 2.2896 0.0 0
M  V30 4 C -1.3426 2.2896 0.0 0
M  V30 5 C 2.5174 1.5464 0.0 0
M  V30 6 C 1.2227 3.812 0.0 0
M  V30 7 C -2.6612 1.5464 0.0 0
M  V30 8 O 2.4934 0.0719 0.0 0
M  V30 9 C 3.7881 2.3136 0.0 0
M  V30 END ATOM
M  V30 BEGIN BOND
M  V30 1 1 1 2
M  V30 2 1 2 3
M  V30 3 1 2 4
M  V30 4 1 3 5
M  V30 5 1 3 6
M  V30 6 1 4 7
M  V30 7 1 5 8
M  V30 8 1 5 9
M  V30 END BOND
M  V30 END CTAB
M  END
>  <Molecule Name>
3-Methyl-2,4-hexanediol

>  <Database>
Pubchem

>  <Reference DOI>
10.3390/toxics11100837

>  <Molecular Target>
Aedes aegypti

>  <PubChem CID>
22245660

>  <Smiles>
CCC(C(C)C(C)O)O

>  <Molecular Formula>
C7H16O2

>  <Activity>
1

$$$$
Compound 206
Actelion Java MolfileCreator 2.0

  0  0  0  0  0  0              0 V3000
M  V30 BEGIN CTAB
M  V30 COUNTS 10 9 0 0 0
M  V30 BEGIN ATOM
M  V30 1 O 0.0 0.0 0.0 0
M  V30 2 C 0.7452 1.3222 0.0 0
M  V30 3 C 2.0194 2.0915 0.0 0
M  V30 4 C -0.5769 2.0915 0.0 0
M  V30 5 C 1.4905 0.048 0.0 0
M  V30 6 C 3.2936 1.3462 0.0 0
M  V30 7 C 1.9954 3.6181 0.0 0
M  V30 8 C -1.8992 1.3462 0.0 0
M  V30 9 O 3.2695 -0.1322 0.0 0
M  V30 10 C 4.5677 2.1156 0.0 0
M  V30 END ATOM
M  V30 BEGIN BOND
M  V30 1 1 1 2
M  V30 2 1 2 3
M  V30 3 1 2 4
M  V30 4 1 2 5
M  V30 5 1 3 6
M  V30 6 1 3 7
M  V30 7 1 4 8
M  V30 8 1 6 9
M  V30 9 1 6 10
M  V30 END BOND
M  V30 END CTAB
M  END
>  <Molecule Name>
3,4-Dimethyl-2,4-hexanediol

>  <Database>
PubChem

>  <Reference DOI>
10.3390/toxics11100837

>  <Molecular Target>
Aedes aegypti

>  <PubChem CID>
22323953

>  <Smiles>
CCC(C)(C(C)C(C)O)O

>  <Molecular Formula>
C8H18O2

>  <Activity>
1

$$$$
Compound 207
Actelion Java MolfileCreator 2.0

  0  0  0  0  0  0              0 V3000
M  V30 BEGIN CTAB
M  V30 COUNTS 13 13 0 0 0
M  V30 BEGIN ATOM
M  V30 1 O 0.0 0.0 0.0 0
M  V30 2 C -1.3306 -0.712 0.0 0
M  V30 3 C 1.2839 -0.712 0.0 0 CFG=2
M  V30 4 C -2.6613 0.0817 0.0 0
M  V30 5 C -1.354 -2.1944 0.0 0
M  V30 6 C 2.5679 0.0583 0.0 0
M  V30 7 C 1.2606 -2.1944 0.0 0
M  V30 8 C -3.992 -0.6303 0.0 0
M  V30 9 C -2.6847 -2.9065 0.0 0
M  V30 10 C 3.8519 -0.6536 0.0 0
M  V30 11 C -4.0154 -2.1127 0.0 0
M  V30 12 C -5.346 -2.8247 0.0 0
M  V30 13 O -5.3694 -4.3072 0.0 0
M  V30 END ATOM
M  V30 BEGIN BOND
M  V30 1 1 1 2
M  V30 2 1 1 3
M  V30 3 2 2 4
M  V30 4 1 2 5
M  V30 5 1 3 6
M  V30 6 1 3 7 CFG=3
M  V30 7 1 4 8
M  V30 8 2 5 9
M  V30 9 1 6 10
M  V30 10 2 8 11
M  V30 11 1 11 12
M  V30 12 1 12 13
M  V30 13 1 9 11
M  V30 END BOND
M  V30 BEGIN COLLECTION
M  V30 MDLV30/STERAC1 ATOMS=(1 3)
M  V30 END COLLECTION
M  V30 END CTAB
M  END
>  <Molecule Name>
p-sec-Butoxybenzyl alcohol

>  <Database>
No information

>  <Reference DOI>
10.3390/toxics11100837

>  <Molecular Target>
Aedes aegypti

>  <PubChem CID>


>  <Smiles>
CCC(C)Oc1ccc(CO)cc1

>  <Molecular Formula>
C11H16O2

>  <Activity>
1

$$$$
Compound 208
Actelion Java MolfileCreator 2.0

  0  0  0  0  0  0              0 V3000
M  V30 BEGIN CTAB
M  V30 COUNTS 14 14 0 0 0
M  V30 BEGIN ATOM
M  V30 1 O 0.0 0.0 0.0 0
M  V30 2 C 1.2818 -0.7497 0.0 0
M  V30 3 C -1.3302 -0.7497 0.0 0
M  V30 4 C 2.5637 0.0241 0.0 0
M  V30 5 C 1.2576 -2.2372 0.0 0
M  V30 6 C -2.6604 0.012 0.0 0
M  V30 7 C 3.8455 -0.7134 0.0 0
M  V30 8 C 2.5395 -2.9748 0.0 0
M  V30 9 O -3.9906 -0.7255 0.0 0
M  V30 10 C 3.8213 -2.2009 0.0 0
M  V30 11 C 5.1032 -2.9506 0.0 0 CFG=2
M  V30 12 C 6.385 -2.1767 0.0 0
M  V30 13 C 5.079 -4.4381 0.0 0
M  V30 14 C 6.3609 -0.6409 0.0 0
M  V30 END ATOM
M  V30 BEGIN BOND
M  V30 1 1 1 2
M  V30 2 1 1 3
M  V30 3 2 2 4
M  V30 4 1 2 5
M  V30 5 1 3 6
M  V30 6 1 4 7
M  V30 7 2 5 8
M  V30 8 1 6 9
M  V30 9 2 7 10
M  V30 10 1 10 11
M  V30 11 1 11 12
M  V30 12 1 11 13 CFG=3
M  V30 13 1 12 14
M  V30 14 1 8 10
M  V30 END BOND
M  V30 BEGIN COLLECTION
M  V30 MDLV30/STERAC1 ATOMS=(1 11)
M  V30 END COLLECTION
M  V30 END CTAB
M  END
>  <Molecule Name>
2-(4-sec-Butylphenoxy)ethanol

>  <Database>
PubChem

>  <Reference DOI>
10.3390/toxics11100837

>  <Molecular Target>
Aedes aegypti

>  <PubChem CID>
95317

>  <Smiles>
CCC(C)c(cc1)ccc1OCCO

>  <Molecular Formula>
C12H18O2

>  <Activity>
1

$$$$
Compound 209
Actelion Java MolfileCreator 2.0

  0  0  0  0  0  0              0 V3000
M  V30 BEGIN CTAB
M  V30 COUNTS 11 10 0 0 0
M  V30 BEGIN ATOM
M  V30 1 O 0.0 0.0 0.0 0
M  V30 2 C -0.0239 1.5233 0.0 0
M  V30 3 C -1.3433 2.2909 0.0 0
M  V30 4 C 1.2474 2.2909 0.0 0
M  V30 5 C -2.6628 1.5473 0.0 0
M  V30 6 C 2.5188 1.5473 0.0 0
M  V30 7 O -2.6867 0.0719 0.0 0
M  V30 8 C -3.9822 2.3149 0.0 0
M  V30 9 C 3.7903 2.3149 0.0 0
M  V30 10 C 2.4948 0.0719 0.0 0
M  V30 11 C -5.3016 1.5712 0.0 0
M  V30 END ATOM
M  V30 BEGIN BOND
M  V30 1 1 1 2
M  V30 2 1 2 3
M  V30 3 1 2 4
M  V30 4 1 3 5
M  V30 5 1 4 6
M  V30 6 1 5 7
M  V30 7 1 5 8
M  V30 8 1 6 9
M  V30 9 1 6 10
M  V30 10 1 8 11
M  V30 END BOND
M  V30 END CTAB
M  END
>  <Molecule Name>
2-Methyloctane-4,6-diol

>  <Database>
PubChem

>  <Reference DOI>
10.3390/toxics11100837

>  <Molecular Target>
Aedes aegypti

>  <PubChem CID>
20072255

>  <Smiles>
CCC(CC(CC(C)C)O)O

>  <Molecular Formula>
C9H20O2

>  <Activity>
1

$$$$
Compound 210
Actelion Java MolfileCreator 2.0

  0  0  0  0  0  0              0 V3000
M  V30 BEGIN CTAB
M  V30 COUNTS 11 10 0 0 0
M  V30 BEGIN ATOM
M  V30 1 O 0.0 0.0 0.0 0
M  V30 2 C 1.2792 0.7603 0.0 0
M  V30 3 C 1.2551 2.2929 0.0 0
M  V30 4 C 2.5343 3.0532 0.0 0
M  V30 5 C 2.5343 1.5447 0.0 0
M  V30 6 C -0.0724 3.0532 0.0 0
M  V30 7 C 3.8135 2.305 0.0 0
M  V30 8 C 2.5102 0.0603 0.0 0
M  V30 9 C -1.3999 2.305 0.0 0
M  V30 10 C 5.0928 3.0774 0.0 0
M  V30 11 N 6.372 3.8497 0.0 0
M  V30 END ATOM
M  V30 BEGIN BOND
M  V30 1 2 1 2
M  V30 2 1 2 3
M  V30 3 1 3 4
M  V30 4 1 3 5
M  V30 5 1 3 6
M  V30 6 1 4 7
M  V30 7 1 5 8
M  V30 8 1 6 9
M  V30 9 1 7 10
M  V30 10 3 10 11
M  V30 END BOND
M  V30 END CTAB
M  END
>  <Molecule Name>
2-(beta-Cyanoethyl)-2-ethyl-butyraldehyde

>  <Database>
PubChem

>  <Reference DOI>
10.3390/toxics11100837

>  <Molecular Target>
Aedes aegypti

>  <PubChem CID>
76248

>  <Smiles>
CCC(CC)(CCC#N)C=O

>  <Molecular Formula>
C9H15NO

>  <Activity>
1

$$$$
Compound 211
Actelion Java MolfileCreator 2.0

  0  0  0  0  0  0              0 V3000
M  V30 BEGIN CTAB
M  V30 COUNTS 11 10 0 0 0
M  V30 BEGIN ATOM
M  V30 1 O 0.0 0.0 0.0 0
M  V30 2 C -0.0241 -1.4824 0.0 0
M  V30 3 C 1.2534 -2.2296 0.0 0
M  V30 4 C -1.3498 -2.2296 0.0 0
M  V30 5 C 2.5309 -1.4583 0.0 0
M  V30 6 C 1.2293 -3.7121 0.0 0
M  V30 7 C -2.6756 -1.4583 0.0 0
M  V30 8 C 3.8085 -2.2055 0.0 0
M  V30 9 C 2.5068 -4.4473 0.0 0
M  V30 10 O -4.0013 -2.2055 0.0 0
M  V30 11 C -2.6997 0.0723 0.0 0
M  V30 END ATOM
M  V30 BEGIN BOND
M  V30 1 1 1 2
M  V30 2 1 2 3
M  V30 3 1 2 4
M  V30 4 1 3 5
M  V30 5 1 3 6
M  V30 6 1 4 7
M  V30 7 1 5 8
M  V30 8 1 6 9
M  V30 9 1 7 10
M  V30 10 1 7 11
M  V30 END BOND
M  V30 END CTAB
M  END
>  <Molecule Name>
5-Ethyl-2,4-heptanediol

>  <Database>
PubChem

>  <Reference DOI>
10.3390/toxics11100837

>  <Molecular Target>
Aedes aegypti

>  <PubChem CID>
87867419

>  <Smiles>
CCC(CC)C(CC(C)O)O

>  <Molecular Formula>
C9H20O2

>  <Activity>
1

$$$$
Compound 212
Actelion Java MolfileCreator 2.0

  0  0  0  0  0  0              0 V3000
M  V30 BEGIN CTAB
M  V30 COUNTS 15 16 0 0 0
M  V30 BEGIN ATOM
M  V30 1 O 0.0 0.0 0.0 0
M  V30 2 C -0.024 -1.4815 0.0 0
M  V30 3 N -1.349 -2.2283 0.0 0
M  V30 4 C 1.2527 -2.2283 0.0 0
M  V30 5 C -1.3731 -3.7099 0.0 0
M  V30 6 C -2.674 -1.4574 0.0 0 CFG=2
M  V30 7 C 2.5295 -1.4574 0.0 0
M  V30 8 C -2.6981 -4.4447 0.0 0
M  V30 9 C -0.0963 -4.4567 0.0 0
M  V30 10 C -3.999 -2.1922 0.0 0
M  V30 11 C -2.6981 0.0722 0.0 0
M  V30 12 C -2.7222 -5.9263 0.0 0
M  V30 13 C -4.0231 -3.6738 0.0 0
M  V30 14 C -0.1204 -5.9383 0.0 0
M  V30 15 C -1.4454 -6.6731 0.0 0
M  V30 END ATOM
M  V30 BEGIN BOND
M  V30 1 2 1 2
M  V30 2 1 2 3
M  V30 3 1 2 4
M  V30 4 1 3 5
M  V30 5 1 3 6
M  V30 6 1 4 7
M  V30 7 2 5 8
M  V30 8 1 5 9
M  V30 9 1 6 10
M  V30 10 1 6 11 CFG=3
M  V30 11 1 8 12
M  V30 12 1 8 13
M  V30 13 2 9 14
M  V30 14 2 12 15
M  V30 15 1 10 13
M  V30 16 1 14 15
M  V30 END BOND
M  V30 BEGIN COLLECTION
M  V30 MDLV30/STERAC1 ATOMS=(1 6)
M  V30 END COLLECTION
M  V30 END CTAB
M  END
>  <Molecule Name>
N-Propionyl-1,2,3,4-tetrahydro-quinaldine

>  <Database>
PubChem

>  <Reference DOI>
10.3390/toxics11100837

>  <Molecular Target>
Aedes aegypti

>  <PubChem CID>
60630484

>  <Smiles>
CCC(N(C(C)CC1)c2c1cccc2)=O

>  <Molecular Formula>
C13H17NO

>  <Activity>
1

$$$$
Compound 213
Actelion Java MolfileCreator 2.0

  0  0  0  0  0  0              0 V3000
M  V30 BEGIN CTAB
M  V30 COUNTS 13 12 0 0 0
M  V30 BEGIN ATOM
M  V30 1 O 0.0 0.0 0.0 0
M  V30 2 C -0.024 -1.4763 0.0 0
M  V30 3 C -1.3443 -2.2205 0.0 0
M  V30 4 C 1.2483 -2.2205 0.0 0
M  V30 5 C -2.6646 -1.4523 0.0 0
M  V30 6 C -2.1125 -3.4928 0.0 0
M  V30 7 C -0.6001 -3.4928 0.0 0
M  V30 8 C 2.5206 -1.4523 0.0 0
M  V30 9 C 1.2243 -3.6969 0.0 0
M  V30 10 O -2.6886 0.072 0.0 0
M  V30 11 C -3.9849 -2.1965 0.0 0
M  V30 12 C -5.3053 -1.4283 0.0 0
M  V30 13 C -6.6256 -2.1725 0.0 0
M  V30 END ATOM
M  V30 BEGIN BOND
M  V30 1 1 1 2
M  V30 2 1 2 3
M  V30 3 1 2 4
M  V30 4 1 3 5
M  V30 5 1 3 6
M  V30 6 1 3 7
M  V30 7 1 4 8
M  V30 8 1 4 9
M  V30 9 1 5 10
M  V30 10 1 5 11
M  V30 11 1 11 12
M  V30 12 1 12 13
M  V30 END BOND
M  V30 END CTAB
M  END
>  <Molecule Name>
2,4,4-Trimethyl-3,5-octanediol

>  <Database>
PubChem

>  <Reference DOI>
10.3390/toxics11100837

>  <Molecular Target>
Aedes aegypti

>  <PubChem CID>
153826087

>  <Smiles>
CCCC(C(C)(C)C(C(C)C)O)O

>  <Molecular Formula>
C11H24O2

>  <Activity>
1

$$$$
Compound 214
Actelion Java MolfileCreator 2.0

  0  0  0  0  0  0              0 V3000
M  V30 BEGIN CTAB
M  V30 COUNTS 12 11 0 0 0
M  V30 BEGIN ATOM
M  V30 1 O 0.0 0.0 0.0 0
M  V30 2 C -0.024 -1.4788 0.0 0
M  V30 3 C 1.2503 -2.2242 0.0 0
M  V30 4 C -1.3465 -2.2242 0.0 0
M  V30 5 C 2.5248 -1.4547 0.0 0
M  V30 6 C 1.2263 -3.703 0.0 0
M  V30 7 C -2.6691 -1.4547 0.0 0
M  V30 8 O 2.5007 0.0721 0.0 0
M  V30 9 C 3.7992 -2.2002 0.0 0
M  V30 10 C -0.0961 -4.4485 0.0 0
M  V30 11 C -3.9916 -2.2002 0.0 0
M  V30 12 C 5.0737 -1.4307 0.0 0
M  V30 END ATOM
M  V30 BEGIN BOND
M  V30 1 1 1 2
M  V30 2 1 2 3
M  V30 3 1 2 4
M  V30 4 1 3 5
M  V30 5 1 3 6
M  V30 6 1 4 7
M  V30 7 1 5 8
M  V30 8 1 5 9
M  V30 9 1 6 10
M  V30 10 1 7 11
M  V30 11 1 9 12
M  V30 END BOND
M  V30 END CTAB
M  END
>  <Molecule Name>
4-Ethyl-3,5-octanediol

>  <Database>
PubChem

>  <Reference DOI>
10.3390/toxics11100837

>  <Molecular Target>
Aedes aegypti

>  <PubChem CID>
20312665

>  <Smiles>
CCCC(C(CC)C(CC)O)O

>  <Molecular Formula>
C10H22O2

>  <Activity>
1

$$$$
Compound 215
Actelion Java MolfileCreator 2.0

  0  0  0  0  0  0              0 V3000
M  V30 BEGIN CTAB
M  V30 COUNTS 10 9 0 0 0
M  V30 BEGIN ATOM
M  V30 1 O 0.0 0.0 0.0 0
M  V30 2 C -0.091 -1.4455 0.0 0
M  V30 3 C 1.161 -2.0943 0.0 0
M  V30 4 C -1.5252 -2.0943 0.0 0
M  V30 5 C 2.413 -1.1951 0.0 0
M  V30 6 C 1.0699 -3.5399 0.0 0
M  V30 7 C -2.9594 -1.1951 0.0 0
M  V30 8 O 3.6651 -1.8325 0.0 0
M  V30 9 C 2.322 -4.1887 0.0 0
M  V30 10 C -4.3935 -1.8325 0.0 0
M  V30 END ATOM
M  V30 BEGIN BOND
M  V30 1 1 1 2
M  V30 2 1 2 3
M  V30 3 1 2 4
M  V30 4 1 3 5
M  V30 5 1 3 6
M  V30 6 1 4 7
M  V30 7 1 5 8
M  V30 8 1 6 9
M  V30 9 1 7 10
M  V30 END BOND
M  V30 END CTAB
M  END
>  <Molecule Name>
Ethohexadiol(Rutgers 612)

>  <Database>
Pubchem

>  <Reference DOI>
10.1007/978-981-15-9456-4_8

>  <Molecular Target>
Aedes aegypti

>  <PubChem CID>
7211

>  <Smiles>
CCCC(C(CC)CO)O

>  <Molecular Formula>
C8H18O2

>  <Activity>
1

$$$$
Compound 216
Actelion Java MolfileCreator 2.0

  0  0  0  0  0  0              0 V3000
M  V30 BEGIN CTAB
M  V30 COUNTS 13 13 0 0 0
M  V30 BEGIN ATOM
M  V30 1 O 0.0 0.0 0.0 0
M  V30 2 C -0.0234 -1.486 0.0 0
M  V30 3 N 1.2636 -2.1997 0.0 0
M  V30 4 C -1.3572 -2.1997 0.0 0
M  V30 5 C 1.2402 -3.6857 0.0 0
M  V30 6 C 2.5507 -1.4157 0.0 0
M  V30 7 C -2.6911 -1.4157 0.0 0
M  V30 8 C -0.0936 -4.3995 0.0 0
M  V30 9 C 2.5273 -4.4229 0.0 0
M  V30 10 C -4.025 -2.1295 0.0 0
M  V30 11 C -0.117 -5.8855 0.0 0
M  V30 12 C 2.5039 -5.9089 0.0 0
M  V30 13 C 1.17 -6.6343 0.0 0
M  V30 END ATOM
M  V30 BEGIN BOND
M  V30 1 2 1 2
M  V30 2 1 2 3
M  V30 3 1 2 4
M  V30 4 1 3 5
M  V30 5 1 3 6
M  V30 6 1 4 7
M  V30 7 2 5 8
M  V30 8 1 5 9
M  V30 9 1 7 10
M  V30 10 1 8 11
M  V30 11 2 9 12
M  V30 12 2 11 13
M  V30 13 1 12 13
M  V30 END BOND
M  V30 END CTAB
M  END
>  <Molecule Name>
N-Methyl-n-butyranilide

>  <Database>
PubChem

>  <Reference DOI>
10.3390/toxics11100837

>  <Molecular Target>
Aedes aegypti

>  <PubChem CID>
221441

>  <Smiles>
CCCC(N(C)c1ccccc1)=O

>  <Molecular Formula>
C11H15NO

>  <Activity>
1

$$$$
Compound 217
Actelion Java MolfileCreator 2.0

  0  0  0  0  0  0              0 V3000
M  V30 BEGIN CTAB
M  V30 COUNTS 16 17 0 0 0
M  V30 BEGIN ATOM
M  V30 1 O 0.0 0.0 0.0 0
M  V30 2 C -0.0239 1.5202 0.0 0
M  V30 3 O -1.3407 2.2744 0.0 0
M  V30 4 C 1.2449 2.2744 0.0 0
M  V30 5 C -2.6574 1.5442 0.0 0 CFG=2
M  V30 6 C 2.5138 1.5442 0.0 0
M  V30 7 C -3.9742 2.3103 0.0 0
M  V30 8 C -2.6814 0.0718 0.0 0
M  V30 9 C 3.7827 2.3103 0.0 0
M  V30 10 C -5.291 1.5801 0.0 0
M  V30 11 C -3.9981 -0.6583 0.0 0
M  V30 12 C -5.3149 0.1077 0.0 0
M  V30 13 C -6.6077 2.3462 0.0 0
M  V30 14 C -6.6317 -0.6224 0.0 0
M  V30 15 C -7.9245 1.616 0.0 0
M  V30 16 C -7.9484 0.1436 0.0 0
M  V30 END ATOM
M  V30 BEGIN BOND
M  V30 1 2 1 2
M  V30 2 1 2 3
M  V30 3 1 2 4
M  V30 4 1 5 3 CFG=1
M  V30 5 1 4 6
M  V30 6 1 5 7
M  V30 7 1 5 8
M  V30 8 1 6 9
M  V30 9 1 7 10
M  V30 10 1 8 11
M  V30 11 2 10 12
M  V30 12 1 10 13
M  V30 13 1 12 14
M  V30 14 2 13 15
M  V30 15 2 14 16
M  V30 16 1 11 12
M  V30 17 1 15 16
M  V30 END BOND
M  V30 BEGIN COLLECTION
M  V30 MDLV30/STERAC1 ATOMS=(1 5)
M  V30 END COLLECTION
M  V30 END CTAB
M  END
>  <Molecule Name>
n-Butyric acid, 1,2,3,4-tetra-hydro-2-naphthyl ester

>  <Database>
No information

>  <Reference DOI>
10.3390/toxics11100837

>  <Molecular Target>
Aedes aegypti

>  <PubChem CID>


>  <Smiles>
CCCC(OC(CC1)Cc2c1cccc2)=O

>  <Molecular Formula>
C14H18O2

>  <Activity>
1

$$$$
Compound 218
Actelion Java MolfileCreator 2.0

  0  0  0  0  0  0              0 V3000
M  V30 BEGIN CTAB
M  V30 COUNTS 15 15 0 0 0
M  V30 BEGIN ATOM
M  V30 1 O 0.0 0.0 0.0 0
M  V30 2 C -0.0232 -1.4745 0.0 0
M  V30 3 O -1.3468 -2.1828 0.0 0
M  V30 4 C 1.2539 -2.1828 0.0 0
M  V30 5 C -2.6705 -1.4049 0.0 0
M  V30 6 C 2.5311 -1.4049 0.0 0
M  V30 7 C -3.9941 -2.1131 0.0 0
M  V30 8 C 3.8083 -2.1131 0.0 0
M  V30 9 C -5.3178 -1.3352 0.0 0
M  V30 10 C -6.6414 -2.0435 0.0 0
M  V30 11 C -7.9651 -1.2539 0.0 0
M  V30 12 C -6.6646 -3.5181 0.0 0
M  V30 13 C -9.2887 -1.9622 0.0 0
M  V30 14 C -7.9883 -4.2263 0.0 0
M  V30 15 C -9.3119 -3.4368 0.0 0
M  V30 END ATOM
M  V30 BEGIN BOND
M  V30 1 2 1 2
M  V30 2 1 2 3
M  V30 3 1 2 4
M  V30 4 1 3 5
M  V30 5 1 4 6
M  V30 6 1 5 7
M  V30 7 1 6 8
M  V30 8 1 7 9
M  V30 9 1 9 10
M  V30 10 2 10 11
M  V30 11 1 10 12
M  V30 12 1 11 13
M  V30 13 2 12 14
M  V30 14 2 13 15
M  V30 15 1 14 15
M  V30 END BOND
M  V30 END CTAB
M  END
>  <Molecule Name>
n-Butyric acid, 3-phenylpropyl ester

>  <Database>
PubChem

>  <Reference DOI>
10.3390/toxics11100837

>  <Molecular Target>
Aedes aegypti

>  <PubChem CID>
81894

>  <Smiles>
CCCC(OCCCc1ccccc1)=O

>  <Molecular Formula>
C13H18O2

>  <Activity>
1

$$$$
Compound 219
Actelion Java MolfileCreator 2.0

  0  0  0  0  0  0              0 V3000
M  V30 BEGIN CTAB
M  V30 COUNTS 10 9 0 0 0
M  V30 BEGIN ATOM
M  V30 1 O 0.0 0.0 0.0 0
M  V30 2 C -0.0239 1.5205 0.0 0
M  V30 3 C 1.2451 2.2868 0.0 0
M  V30 4 C -1.3409 2.2868 0.0 0
M  V30 5 C 2.5143 1.5445 0.0 0
M  V30 6 C -2.6579 1.5445 0.0 0
M  V30 7 O 2.4903 0.0718 0.0 0
M  V30 8 C 3.7834 2.3107 0.0 0
M  V30 9 C -3.975 2.3107 0.0 0
M  V30 10 C -5.292 1.5684 0.0 0
M  V30 END ATOM
M  V30 BEGIN BOND
M  V30 1 1 1 2
M  V30 2 1 2 3
M  V30 3 1 2 4
M  V30 4 1 3 5
M  V30 5 1 4 6
M  V30 6 1 5 7
M  V30 7 1 5 8
M  V30 8 1 6 9
M  V30 9 1 9 10
M  V30 END BOND
M  V30 END CTAB
M  END
>  <Molecule Name>
2,4-Octanediol

>  <Database>
PubChem

>  <Reference DOI>
10.3390/toxics11100837

>  <Molecular Target>
Aedes aegypti

>  <PubChem CID>
3494075

>  <Smiles>
CCCCC(CC(C)O)O

>  <Molecular Formula>
C8H18O2

>  <Activity>
1

$$$$
Compound 220
Actelion Java MolfileCreator 2.0

  0  0  0  0  0  0              0 V3000
M  V30 BEGIN CTAB
M  V30 COUNTS 13 12 0 0 0
M  V30 BEGIN ATOM
M  V30 1 O 0.0 0.0 0.0 0
M  V30 2 C 1.2678 0.7654 0.0 0
M  V30 3 C 1.2439 2.2845 0.0 0 CFG=2
M  V30 4 C 2.5117 3.038 0.0 0
M  V30 5 C -0.0717 3.038 0.0 0
M  V30 6 C 1.2199 3.8035 0.0 0
M  V30 7 C 3.7795 2.2964 0.0 0
M  V30 8 C -1.3874 2.2964 0.0 0
M  V30 9 C -0.0956 4.569 0.0 0
M  V30 10 C 5.0474 3.0619 0.0 0
M  V30 11 C -2.7031 3.0619 0.0 0
M  V30 12 N 6.3152 3.8154 0.0 0
M  V30 13 C -4.0188 2.3203 0.0 0
M  V30 END ATOM
M  V30 BEGIN BOND
M  V30 1 2 1 2
M  V30 2 1 2 3
M  V30 3 1 3 4
M  V30 4 1 3 5
M  V30 5 1 3 6 CFG=3
M  V30 6 1 4 7
M  V30 7 1 5 8
M  V30 8 1 6 9
M  V30 9 1 7 10
M  V30 10 1 8 11
M  V30 11 3 10 12
M  V30 12 1 11 13
M  V30 END BOND
M  V30 BEGIN COLLECTION
M  V30 MDLV30/STERAC1 ATOMS=(1 3)
M  V30 END COLLECTION
M  V30 END CTAB
M  END
>  <Molecule Name>
2-(beta-Cyanoethyl)-2-ethyl-hexanal

>  <Database>
PubChem

>  <Reference DOI>
10.3390/toxics11100837

>  <Molecular Target>
Aedes aegypti

>  <PubChem CID>
220544

>  <Smiles>
CCCCC(CC)(CCC#N)C=O

>  <Molecular Formula>
C11H19NO

>  <Activity>
1

$$$$
Compound 221
Actelion Java MolfileCreator 2.0

  0  0  0  0  0  0              0 V3000
M  V30 BEGIN CTAB
M  V30 COUNTS 11 10 0 0 0
M  V30 BEGIN ATOM
M  V30 1 O 0.0 0.0 0.0 0
M  V30 2 C -1.3297 0.7615 0.0 0
M  V30 3 C -2.6595 0.0846 0.0 0
M  V30 4 C -2.7562 -1.2572 0.0 0
M  V30 5 C -3.9892 0.8582 0.0 0
M  V30 6 C -2.7562 1.6198 0.0 0
M  V30 7 O -4.0859 -1.9341 0.0 0
M  V30 8 C -5.319 0.1813 0.0 0
M  V30 9 C -4.0859 2.3935 0.0 0
M  V30 10 C -6.6487 0.955 0.0 0
M  V30 11 C -7.9785 0.278 0.0 0
M  V30 END ATOM
M  V30 BEGIN BOND
M  V30 1 1 1 2
M  V30 2 1 2 3
M  V30 3 1 3 4
M  V30 4 1 3 5
M  V30 5 1 3 6
M  V30 6 1 4 7
M  V30 7 1 5 8
M  V30 8 1 6 9
M  V30 9 1 8 10
M  V30 10 1 10 11
M  V30 END BOND
M  V30 END CTAB
M  END
>  <Molecule Name>
2-Ethyl-2-butyl-1,3-propanediol

>  <Database>
Pubchem

>  <Reference DOI>
10.1186/s13071-017-2122-8

>  <Molecular Target>
Anopheles spp.

>  <PubChem CID>
61038

>  <Smiles>
CCCCC(CC)(CO)CO

>  <Molecular Formula>
C9H20O2

>  <Activity>
1

$$$$
Compound 222
Actelion Java MolfileCreator 2.0

  0  0  0  0  0  0              0 V3000
M  V30 BEGIN CTAB
M  V30 COUNTS 11 10 0 0 0
M  V30 BEGIN ATOM
M  V30 1 O 0.0 0.0 0.0 0
M  V30 2 N -1.3156 0.7535 0.0 0
M  V30 3 C -1.3396 2.2725 0.0 0
M  V30 4 C -2.6553 3.038 0.0 0
M  V30 5 C -0.0717 3.038 0.0 0
M  V30 6 C -3.971 2.2964 0.0 0
M  V30 7 C 1.196 2.2964 0.0 0
M  V30 8 C -5.2866 3.0619 0.0 0
M  V30 9 C 2.4639 3.0619 0.0 0
M  V30 10 C -6.6023 2.3204 0.0 0
M  V30 11 C 3.7317 2.3204 0.0 0
M  V30 END ATOM
M  V30 BEGIN BOND
M  V30 1 1 1 2
M  V30 2 2 2 3
M  V30 3 1 3 4
M  V30 4 1 3 5
M  V30 5 1 4 6
M  V30 6 1 5 7
M  V30 7 1 6 8
M  V30 8 1 7 9
M  V30 9 1 8 10
M  V30 10 1 9 11
M  V30 END BOND
M  V30 END CTAB
M  END
>  <Molecule Name>
5-Nonanone oxime

>  <Database>
PubChem

>  <Reference DOI>
10.3390/toxics11100837

>  <Molecular Target>
Aedes aegypti

>  <PubChem CID>
333893

>  <Smiles>
CCCCC(CCCC)=NO

>  <Molecular Formula>
C9H19NO

>  <Activity>
1

$$$$
Compound 223
Actelion Java MolfileCreator 2.0

  0  0  0  0  0  0              0 V3000
M  V30 BEGIN CTAB
M  V30 COUNTS 10 9 0 0 0
M  V30 BEGIN ATOM
M  V30 1 O 0.0 0.0 0.0 0
M  V30 2 C -0.0231 -1.4706 0.0 0
M  V30 3 C 1.2506 -2.2118 0.0 0
M  V30 4 C -1.3432 -2.2118 0.0 0
M  V30 5 O 1.2274 -3.6824 0.0 0
M  V30 6 C 2.5244 -1.4359 0.0 0
M  V30 7 C -2.6634 -1.4359 0.0 0
M  V30 8 C -3.9835 -2.1654 0.0 0
M  V30 9 C -5.3036 -1.3896 0.0 0
M  V30 10 C -6.6238 -2.1191 0.0 0
M  V30 END ATOM
M  V30 BEGIN BOND
M  V30 1 1 1 2
M  V30 2 1 2 3
M  V30 3 1 2 4
M  V30 4 1 3 5
M  V30 5 1 3 6
M  V30 6 1 4 7
M  V30 7 1 7 8
M  V30 8 1 8 9
M  V30 9 1 9 10
M  V30 END BOND
M  V30 END CTAB
M  END
>  <Molecule Name>
2,3-Octanediol

>  <Database>
PubChem

>  <Reference DOI>
10.3390/toxics11100837

>  <Molecular Target>
Aedes aegypti

>  <PubChem CID>
242928

>  <Smiles>
CCCCCC(C(C)O)O

>  <Molecular Formula>
C8H18O2

>  <Activity>
1

$$$$
Compound 224
Actelion Java MolfileCreator 2.0

  0  0  0  0  0  0              0 V3000
M  V30 BEGIN CTAB
M  V30 COUNTS 11 10 0 0 0
M  V30 BEGIN ATOM
M  V30 1 O 0.0 0.0 0.0 0
M  V30 2 C -0.0239 -1.4727 0.0 0
M  V30 3 C 1.2452 -2.215 0.0 0
M  V30 4 C -1.341 -2.215 0.0 0
M  V30 5 C 2.5143 -1.4487 0.0 0
M  V30 6 C -2.658 -1.4487 0.0 0
M  V30 7 O 2.4904 0.0718 0.0 0
M  V30 8 C 3.7835 -2.1911 0.0 0
M  V30 9 C -3.9751 -2.1911 0.0 0
M  V30 10 C -5.2921 -1.4248 0.0 0
M  V30 11 C -6.6092 -2.1671 0.0 0
M  V30 END ATOM
M  V30 BEGIN BOND
M  V30 1 1 1 2
M  V30 2 1 2 3
M  V30 3 1 2 4
M  V30 4 1 3 5
M  V30 5 1 4 6
M  V30 6 1 5 7
M  V30 7 1 5 8
M  V30 8 1 6 9
M  V30 9 1 9 10
M  V30 10 1 10 11
M  V30 END BOND
M  V30 END CTAB
M  END
>  <Molecule Name>
2,4-Nonanediol

>  <Database>
PubChem

>  <Reference DOI>
10.3390/toxics11100837

>  <Molecular Target>
Aedes aegypti

>  <PubChem CID>
347838

>  <Smiles>
CCCCCC(CC(C)O)O

>  <Molecular Formula>
C9H20O2

>  <Activity>
1

$$$$
Compound 225
Actelion Java MolfileCreator 2.0

  0  0  0  0  0  0              0 V3000
M  V30 BEGIN CTAB
M  V30 COUNTS 10 9 0 0 0
M  V30 BEGIN ATOM
M  V30 1 O 0.0 0.0 0.0 0
M  V30 2 C -0.024 1.5302 0.0 0 CFG=2
M  V30 3 C -1.3494 2.3013 0.0 0
M  V30 4 C 1.2531 2.3013 0.0 0
M  V30 5 O -2.6748 1.5543 0.0 0
M  V30 6 C 2.5303 1.5543 0.0 0
M  V30 7 C 3.8075 2.3254 0.0 0
M  V30 8 C 5.0847 1.5784 0.0 0
M  V30 9 C 6.3619 2.3495 0.0 0
M  V30 10 C 7.6391 1.6025 0.0 0
M  V30 END ATOM
M  V30 BEGIN BOND
M  V30 1 1 2 1 CFG=3
M  V30 2 1 2 3
M  V30 3 1 2 4
M  V30 4 1 3 5
M  V30 5 1 4 6
M  V30 6 1 6 7
M  V30 7 1 7 8
M  V30 8 1 8 9
M  V30 9 1 9 10
M  V30 END BOND
M  V30 BEGIN COLLECTION
M  V30 MDLV30/STERAC1 ATOMS=(1 2)
M  V30 END COLLECTION
M  V30 END CTAB
M  END
>  <Molecule Name>
1,2-Octanediol

>  <Database>
PubChem

>  <Reference DOI>
10.3390/toxics11100837

>  <Molecular Target>
Aedes aegypti

>  <PubChem CID>
14231

>  <Smiles>
CCCCCCC(CO)O

>  <Molecular Formula>
C8H18O2

>  <Activity>
1

$$$$
Compound 226
Actelion Java MolfileCreator 2.0

  0  0  0  0  0  0              0 V3000
M  V30 BEGIN CTAB
M  V30 COUNTS 15 15 0 0 0
M  V30 BEGIN ATOM
M  V30 1 O 0.0 0.0 0.0 0
M  V30 2 C 1.2762 0.7585 0.0 0
M  V30 3 N 1.2521 2.2876 0.0 0
M  V30 4 C 2.5525 0.012 0.0 0
M  V30 5 C -0.0722 3.0462 0.0 0
M  V30 6 C 2.5284 3.0462 0.0 0
M  V30 7 C 2.5284 -1.4689 0.0 0
M  V30 8 C -0.0963 4.5753 0.0 0
M  V30 9 C 2.5043 4.5753 0.0 0
M  V30 10 C 3.8047 -2.2154 0.0 0
M  V30 11 C 1.1799 5.3338 0.0 0
M  V30 12 C -1.4207 5.3338 0.0 0
M  V30 13 C 3.7806 -3.6963 0.0 0
M  V30 14 C 5.0569 -4.4428 0.0 0
M  V30 15 C 5.0328 -5.9238 0.0 0
M  V30 END ATOM
M  V30 BEGIN BOND
M  V30 1 2 1 2
M  V30 2 1 2 3
M  V30 3 1 2 4
M  V30 4 1 3 5
M  V30 5 1 3 6
M  V30 6 1 4 7
M  V30 7 1 5 8
M  V30 8 1 6 9
M  V30 9 1 7 10
M  V30 10 1 8 11
M  V30 11 1 8 12
M  V30 12 1 10 13
M  V30 13 1 13 14
M  V30 14 1 14 15
M  V30 15 1 9 11
M  V30 END BOND
M  V30 END CTAB
M  END
>  <Molecule Name>
1-(3-metilpiperidin-1-il)heptan-1-ona​

>  <Database>
Pubchem

>  <Reference DOI>
10.1186/s13071-017-2122-8

>  <Molecular Target>
Anopheles spp.

>  <PubChem CID>
303108

>  <Smiles>
CCCCCCC(N1CC(C)CCC1)=O

>  <Molecular Formula>
C13H25NO

>  <Activity>
1

$$$$
Compound 227
Actelion Java MolfileCreator 2.0

  0  0  0  0  0  0              0 V3000
M  V30 BEGIN CTAB
M  V30 COUNTS 13 13 0 0 0
M  V30 BEGIN ATOM
M  V30 1 O 0.0 0.0 0.0 0
M  V30 2 C -0.6296 -1.3409 0.0 0
M  V30 3 O -2.1105 -1.6324 0.0 0
M  V30 4 C 0.0932 -2.6119 0.0 0
M  V30 5 C -2.2854 -3.09 0.0 0 CFG=2
M  V30 6 C -0.9211 -3.6964 0.0 0
M  V30 7 C -3.6031 -3.813 0.0 0
M  V30 8 C -4.9208 -3.0434 0.0 0
M  V30 9 C -6.2384 -3.7663 0.0 0
M  V30 10 C -7.5561 -2.9967 0.0 0
M  V30 11 C -8.8737 -3.7314 0.0 0
M  V30 12 C -10.1914 -2.9618 0.0 0
M  V30 13 C -11.509 -3.6964 0.0 0
M  V30 END ATOM
M  V30 BEGIN BOND
M  V30 1 2 1 2
M  V30 2 1 2 3
M  V30 3 1 2 4
M  V30 4 1 3 5
M  V30 5 1 4 6
M  V30 6 1 5 7 CFG=3
M  V30 7 1 7 8
M  V30 8 1 8 9
M  V30 9 1 9 10
M  V30 10 1 10 11
M  V30 11 1 11 12
M  V30 12 1 12 13
M  V30 13 1 5 6
M  V30 END BOND
M  V30 BEGIN COLLECTION
M  V30 MDLV30/STERAC1 ATOMS=(1 5)
M  V30 END COLLECTION
M  V30 END CTAB
M  END
>  <Molecule Name>
undecalactone

>  <Database>
PubChem

>  <Reference DOI>
10.3390/toxics11100837

>  <Molecular Target>
Aedes aegypti

>  <PubChem CID>
7714

>  <Smiles>
CCCCCCCC(CC1)OC1=O

>  <Molecular Formula>
C11H20O2

>  <Activity>
1

$$$$
Compound 228
Actelion Java MolfileCreator 2.0

  0  0  0  0  0  0              0 V3000
M  V30 BEGIN CTAB
M  V30 COUNTS 11 10 0 0 0
M  V30 BEGIN ATOM
M  V30 1 O 0.0 0.0 0.0 0
M  V30 2 C -0.0234 -1.4871 0.0 0
M  V30 3 O -1.3583 -2.2248 0.0 0
M  V30 4 C 1.2646 -2.2248 0.0 0
M  V30 5 C 2.5526 -1.4402 0.0 0
M  V30 6 C 3.8407 -2.1896 0.0 0
M  V30 7 C 5.1287 -1.4051 0.0 0
M  V30 8 C 6.4167 -2.1545 0.0 0
M  V30 9 C 7.7048 -1.37 0.0 0
M  V30 10 C 8.9928 -2.1194 0.0 0
M  V30 11 C 10.2809 -1.3348 0.0 0
M  V30 END ATOM
M  V30 BEGIN BOND
M  V30 1 2 1 2
M  V30 2 1 2 3
M  V30 3 1 2 4
M  V30 4 1 4 5
M  V30 5 1 5 6
M  V30 6 1 6 7
M  V30 7 1 7 8
M  V30 8 1 8 9
M  V30 9 1 9 10
M  V30 10 1 10 11
M  V30 END BOND
M  V30 END CTAB
M  END
>  <Molecule Name>
Pelargonic acid

>  <Database>
PubChem

>  <Reference DOI>
10.3390/toxics11100837

>  <Molecular Target>
Aedes aegypti

>  <PubChem CID>
8158

>  <Smiles>
CCCCCCCCC(O)=O

>  <Molecular Formula>
C9H18O2

>  <Activity>
1

$$$$
Compound 229
Actelion Java MolfileCreator 2.0

  0  0  0  0  0  0              0 V3000
M  V30 BEGIN CTAB
M  V30 COUNTS 12 11 0 0 0
M  V30 BEGIN ATOM
M  V30 1 O 0.0 0.0 0.0 0
M  V30 2 C 1.2969 -0.7192 0.0 0
M  V30 3 O 1.2734 -2.2166 0.0 0
M  V30 4 C 2.5939 0.0707 0.0 0
M  V30 5 C 3.8909 -0.6484 0.0 0
M  V30 6 C 5.1879 0.1414 0.0 0
M  V30 7 C 6.4849 -0.5777 0.0 0
M  V30 8 C 7.7819 0.2004 0.0 0
M  V30 9 C 9.0789 -0.5187 0.0 0
M  V30 10 C 10.3758 0.2711 0.0 0
M  V30 11 C 11.6728 -0.448 0.0 0
M  V30 12 C 12.9698 0.3419 0.0 0
M  V30 END ATOM
M  V30 BEGIN BOND
M  V30 1 2 1 2
M  V30 2 1 2 3
M  V30 3 1 2 4
M  V30 4 1 4 5
M  V30 5 1 5 6
M  V30 6 1 6 7
M  V30 7 1 7 8
M  V30 8 1 8 9
M  V30 9 1 9 10
M  V30 10 1 10 11
M  V30 11 1 11 12
M  V30 END BOND
M  V30 END CTAB
M  END
>  <Molecule Name>
n-Capric acid

>  <Database>
PubChem

>  <Reference DOI>
10.3390/toxics11100837

>  <Molecular Target>
Aedes aegypti

>  <PubChem CID>
2969

>  <Smiles>
CCCCCCCCCC(O)=O

>  <Molecular Formula>
C10H20O2

>  <Activity>
1

$$$$
Compound 230
Actelion Java MolfileCreator 2.0

  0  0  0  0  0  0              0 V3000
M  V30 BEGIN CTAB
M  V30 COUNTS 13 12 0 0 0
M  V30 BEGIN ATOM
M  V30 1 O 0.0 0.0 0.0 0
M  V30 2 C -1.3075 -0.7111 0.0 0
M  V30 3 O -1.3305 -2.1678 0.0 0
M  V30 4 C -2.6151 0.0688 0.0 0
M  V30 5 C -3.9226 -0.6423 0.0 0
M  V30 6 C -5.2302 0.1376 0.0 0
M  V30 7 C -6.5378 -0.5734 0.0 0
M  V30 8 C -7.8453 0.2064 0.0 0
M  V30 9 C -9.1529 -0.5046 0.0 0
M  V30 10 C -10.4605 0.2752 0.0 0
M  V30 11 C -11.768 -0.4358 0.0 0
M  V30 12 C -13.0756 0.344 0.0 0
M  V30 13 C -14.3831 -0.367 0.0 0
M  V30 END ATOM
M  V30 BEGIN BOND
M  V30 1 2 1 2
M  V30 2 1 2 3
M  V30 3 1 2 4
M  V30 4 1 4 5
M  V30 5 1 5 6
M  V30 6 1 6 7
M  V30 7 1 7 8
M  V30 8 1 8 9
M  V30 9 1 9 10
M  V30 10 1 10 11
M  V30 11 1 11 12
M  V30 12 1 12 13
M  V30 END BOND
M  V30 END CTAB
M  END
>  <Molecule Name>
n-undecylic acid

>  <Database>
No information

>  <Reference DOI>
10.3390/toxics11100837

>  <Molecular Target>
Aedes aegypti

>  <PubChem CID>


>  <Smiles>
CCCCCCCCCCC(O)=O

>  <Molecular Formula>
C11H22O2

>  <Activity>
1

$$$$
Compound 231
Actelion Java MolfileCreator 2.0

  0  0  0  0  0  0              0 V3000
M  V30 BEGIN CTAB
M  V30 COUNTS 12 11 0 0 0
M  V30 BEGIN ATOM
M  V30 1 S 0.0 0.0 0.0 0
M  V30 2 C -1.38 0.7932 0.0 0
M  V30 3 C 1.2714 0.7932 0.0 0
M  V30 4 C -2.7601 0.1086 0.0 0
M  V30 5 C 2.5428 0.1086 0.0 0
M  V30 6 O -4.1402 0.9019 0.0 0
M  V30 7 C 3.8142 0.9019 0.0 0
M  V30 8 C 5.0857 0.2173 0.0 0
M  V30 9 C 6.3571 1.0106 0.0 0
M  V30 10 C 7.6285 0.3151 0.0 0
M  V30 11 C 8.8999 1.1084 0.0 0
M  V30 12 C 10.1714 0.4238 0.0 0
M  V30 END ATOM
M  V30 BEGIN BOND
M  V30 1 1 1 2
M  V30 2 1 1 3
M  V30 3 1 2 4
M  V30 4 1 3 5
M  V30 5 1 4 6
M  V30 6 1 5 7
M  V30 7 1 7 8
M  V30 8 1 8 9
M  V30 9 1 9 10
M  V30 10 1 10 11
M  V30 11 1 11 12
M  V30 END BOND
M  V30 END CTAB
M  END
>  <Molecule Name>
2-(Octylthio)ethanol
MGK R-874

>  <Database>
Pubchem

>  <Reference DOI>
10.1007/978-3-662-03656-3_22

>  <Molecular Target>
Acyrthosiphon pisum

>  <PubChem CID>
19079

>  <Smiles>
CCCCCCCCSCCO

>  <Molecular Formula>
C10H22OS

>  <Activity>
1

$$$$
Compound 232
Actelion Java MolfileCreator 2.0

  0  0  0  0  0  0              0 V3000
M  V30 BEGIN CTAB
M  V30 COUNTS 15 15 0 0 0
M  V30 BEGIN ATOM
M  V30 1 O 0.0 0.0 0.0 0
M  V30 2 C 1.2954 -0.7301 0.0 0
M  V30 3 C 1.2719 -2.2258 0.0 0
M  V30 4 C 2.5674 -2.956 0.0 0
M  V30 5 C -0.0706 -2.9443 0.0 0
M  V30 6 O 3.8629 -2.167 0.0 0
M  V30 7 C 2.5438 -4.4517 0.0 0
M  V30 8 C -0.0942 -4.44 0.0 0
M  V30 9 C 5.1584 -2.8854 0.0 0
M  V30 10 C 1.2012 -5.1702 0.0 0
M  V30 11 C 6.4539 -2.0963 0.0 0
M  V30 12 C 7.7494 -2.8147 0.0 0
M  V30 13 C 9.0449 -2.0374 0.0 0
M  V30 14 C 10.3404 -2.7558 0.0 0
M  V30 15 C 11.6359 -1.9667 0.0 0
M  V30 END ATOM
M  V30 BEGIN BOND
M  V30 1 2 1 2
M  V30 2 1 2 3
M  V30 3 2 3 4
M  V30 4 1 3 5
M  V30 5 1 4 6
M  V30 6 1 4 7
M  V30 7 2 5 8
M  V30 8 1 6 9
M  V30 9 2 7 10
M  V30 10 1 9 11
M  V30 11 1 11 12
M  V30 12 1 12 13
M  V30 13 1 13 14
M  V30 14 1 14 15
M  V30 15 1 8 10
M  V30 END BOND
M  V30 END CTAB
M  END
>  <Molecule Name>
o-n-Hexyloxybenzaldehyde

>  <Database>
PubChem

>  <Reference DOI>
10.3390/toxics11100837

>  <Molecular Target>
Aedes aegypti

>  <PubChem CID>
138951

>  <Smiles>
CCCCCCOc1c(C=O)cccc1

>  <Molecular Formula>
C13H18O2

>  <Activity>
1

$$$$
Compound 233
Actelion Java MolfileCreator 2.0

  0  0  0  0  0  0              0 V3000
M  V30 BEGIN CTAB
M  V30 COUNTS 15 15 0 0 0
M  V30 BEGIN ATOM
M  V30 1 O 0.0 0.0 0.0 0
M  V30 2 C 1.2854 0.7639 0.0 0
M  V30 3 N 2.5709 0.0121 0.0 0
M  V30 4 C 1.2611 2.3041 0.0 0
M  V30 5 C 2.5466 -1.4794 0.0 0
M  V30 6 C 3.8563 0.7882 0.0 0
M  V30 7 C 1.2126 -2.2192 0.0 0
M  V30 8 C 3.8321 -2.2313 0.0 0
M  V30 9 C 5.1418 0.0363 0.0 0
M  V30 10 C 1.1884 -3.7108 0.0 0
M  V30 11 C 3.8078 -3.7229 0.0 0
M  V30 12 C 6.4272 0.8003 0.0 0
M  V30 13 C 2.4738 -4.4627 0.0 0
M  V30 14 C 7.7127 0.0485 0.0 0
M  V30 15 C 8.9981 0.8125 0.0 0
M  V30 END ATOM
M  V30 BEGIN BOND
M  V30 1 2 1 2
M  V30 2 1 2 3
M  V30 3 1 2 4
M  V30 4 1 3 5
M  V30 5 1 3 6
M  V30 6 2 5 7
M  V30 7 1 5 8
M  V30 8 1 6 9
M  V30 9 1 7 10
M  V30 10 2 8 11
M  V30 11 1 9 12
M  V30 12 2 10 13
M  V30 13 1 12 14
M  V30 14 1 14 15
M  V30 15 1 11 13
M  V30 END BOND
M  V30 END CTAB
M  END
>  <Molecule Name>
N-n-Amylacetanilide

>  <Database>
PubChem

>  <Reference DOI>
10.3390/toxics11100837

>  <Molecular Target>
Aedes aegypti

>  <PubChem CID>
347873

>  <Smiles>
CCCCCN(C(C)=O)c1ccccc1

>  <Molecular Formula>
C13H19NO

>  <Activity>
1

$$$$
Compound 234
Actelion Java MolfileCreator 2.0

  0  0  0  0  0  0              0 V3000
M  V30 BEGIN CTAB
M  V30 COUNTS 16 16 0 0 0
M  V30 BEGIN ATOM
M  V30 1 O 0.0 0.0 0.0 0
M  V30 2 C -0.0239 1.5239 0.0 0
M  V30 3 N 1.2479 2.2918 0.0 0
M  V30 4 C -1.3439 2.2918 0.0 0
M  V30 5 C 1.2239 3.8157 0.0 0
M  V30 6 C 2.5198 1.5599 0.0 0
M  V30 7 C -2.6638 1.5599 0.0 0
M  V30 8 C 2.4958 4.5837 0.0 0
M  V30 9 C -0.0959 4.5837 0.0 0
M  V30 10 C 3.7917 2.3158 0.0 0
M  V30 11 C 2.4718 6.1076 0.0 0
M  V30 12 C -0.1199 6.1076 0.0 0
M  V30 13 C 5.0637 1.5839 0.0 0
M  V30 14 C 1.1519 6.8636 0.0 0
M  V30 15 C 6.3356 2.3518 0.0 0
M  V30 16 C 7.6075 1.6199 0.0 0
M  V30 END ATOM
M  V30 BEGIN BOND
M  V30 1 2 1 2
M  V30 2 1 2 3
M  V30 3 1 2 4
M  V30 4 1 3 5
M  V30 5 1 3 6
M  V30 6 1 4 7
M  V30 7 2 5 8
M  V30 8 1 5 9
M  V30 9 1 6 10
M  V30 10 1 8 11
M  V30 11 2 9 12
M  V30 12 1 10 13
M  V30 13 2 11 14
M  V30 14 1 13 15
M  V30 15 1 15 16
M  V30 16 1 12 14
M  V30 END BOND
M  V30 END CTAB
M  END
>  <Molecule Name>
N-n-Amylpropionanilide

>  <Database>
PubChem

>  <Reference DOI>
10.3390/toxics11100837

>  <Molecular Target>
Aedes aegypti

>  <PubChem CID>
347879

>  <Smiles>
CCCCCN(C(CC)=O)c1ccccc1

>  <Molecular Formula>
C14H21NO

>  <Activity>
1

$$$$
Compound 235
Actelion Java MolfileCreator 2.0

  0  0  0  0  0  0              0 V3000
M  V30 BEGIN CTAB
M  V30 COUNTS 14 14 0 0 0
M  V30 BEGIN ATOM
M  V30 1 O 0.0 0.0 0.0 0
M  V30 2 C -0.0233 -1.4838 0.0 0
M  V30 3 N -1.3553 -2.1966 0.0 0
M  V30 4 C 1.2618 -2.1966 0.0 0
M  V30 5 C -1.3787 -3.6804 0.0 0
M  V30 6 C -2.6873 -1.4137 0.0 0
M  V30 7 C -2.7107 -4.3932 0.0 0
M  V30 8 C -0.0934 -4.4049 0.0 0
M  V30 9 C -4.0193 -2.1265 0.0 0
M  V30 10 C -2.734 -5.877 0.0 0
M  V30 11 C -0.1168 -5.8887 0.0 0
M  V30 12 C -5.3513 -1.3436 0.0 0
M  V30 13 C -1.4488 -6.6015 0.0 0
M  V30 14 C -6.6832 -2.0563 0.0 0
M  V30 END ATOM
M  V30 BEGIN BOND
M  V30 1 2 1 2
M  V30 2 1 2 3
M  V30 3 1 2 4
M  V30 4 1 3 5
M  V30 5 1 3 6
M  V30 6 2 5 7
M  V30 7 1 5 8
M  V30 8 1 6 9
M  V30 9 1 7 10
M  V30 10 2 8 11
M  V30 11 1 9 12
M  V30 12 2 10 13
M  V30 13 1 12 14
M  V30 14 1 11 13
M  V30 END BOND
M  V30 END CTAB
M  END
>  <Molecule Name>
4-Morpholineacetic acid, butyl ester

>  <Database>
PubChem

>  <Reference DOI>
10.3390/toxics11100837

>  <Molecular Target>
Aedes aegypti

>  <PubChem CID>
7051

>  <Smiles>
CCCCN(C(C)=O)c1ccccc1

>  <Molecular Formula>
C12H17NO

>  <Activity>
1

$$$$
Compound 236
Actelion Java MolfileCreator 2.0

  0  0  0  0  0  0              0 V3000
M  V30 BEGIN CTAB
M  V30 COUNTS 15 15 0 0 0
M  V30 BEGIN ATOM
M  V30 1 O 0.0 0.0 0.0 0
M  V30 2 C -0.0239 1.5204 0.0 0
M  V30 3 N 1.2451 2.2867 0.0 0
M  V30 4 C -1.3408 2.2867 0.0 0
M  V30 5 C 1.2211 3.8071 0.0 0
M  V30 6 C 2.5141 1.5563 0.0 0
M  V30 7 C -2.6578 1.5563 0.0 0
M  V30 8 C 2.4902 4.5734 0.0 0
M  V30 9 C -0.0957 4.5734 0.0 0
M  V30 10 C 3.7832 2.3226 0.0 0
M  V30 11 C 2.4662 6.0938 0.0 0
M  V30 12 C -0.1197 6.0938 0.0 0
M  V30 13 C 5.0522 1.5923 0.0 0
M  V30 14 C 1.1493 6.8601 0.0 0
M  V30 15 C 6.3213 2.3585 0.0 0
M  V30 END ATOM
M  V30 BEGIN BOND
M  V30 1 2 1 2
M  V30 2 1 2 3
M  V30 3 1 2 4
M  V30 4 1 3 5
M  V30 5 1 3 6
M  V30 6 1 4 7
M  V30 7 2 5 8
M  V30 8 1 5 9
M  V30 9 1 6 10
M  V30 10 1 8 11
M  V30 11 2 9 12
M  V30 12 1 10 13
M  V30 13 2 11 14
M  V30 14 1 13 15
M  V30 15 1 12 14
M  V30 END BOND
M  V30 END CTAB
M  END
>  <Molecule Name>
N-n-Butylpropionanilide

>  <Database>
PubChem

>  <Reference DOI>
10.3390/toxics11100837

>  <Molecular Target>
Aedes aegypti

>  <PubChem CID>
94892

>  <Smiles>
CCCCN(C(CC)=O)c1ccccc1

>  <Molecular Formula>
C13H19NO

>  <Activity>
1

$$$$
Compound 237
Actelion Java MolfileCreator 2.0

  0  0  0  0  0  0              0 V3000
M  V30 BEGIN CTAB
M  V30 COUNTS 13 13 0 0 0
M  V30 BEGIN ATOM
M  V30 1 O 0.0 0.0 0.0 0
M  V30 2 C -0.0241 1.5361 0.0 0
M  V30 3 C 1.2579 2.2981 0.0 0
M  V30 4 C 1.2337 3.8343 0.0 0
M  V30 5 C 2.5401 1.5603 0.0 0
M  V30 6 C 2.5159 4.6084 0.0 0
M  V30 7 C 3.8222 2.3223 0.0 0
M  V30 8 C 3.798 3.8585 0.0 0
M  V30 9 O 5.0802 4.6205 0.0 0
M  V30 10 C 6.3623 3.8827 0.0 0
M  V30 11 C 7.6445 4.6568 0.0 0
M  V30 12 C 8.9266 3.919 0.0 0
M  V30 13 C 10.2088 4.6931 0.0 0
M  V30 END ATOM
M  V30 BEGIN BOND
M  V30 1 2 1 2
M  V30 2 1 2 3
M  V30 3 2 3 4
M  V30 4 1 3 5
M  V30 5 1 4 6
M  V30 6 2 5 7
M  V30 7 2 6 8
M  V30 8 1 8 9
M  V30 9 1 9 10
M  V30 10 1 10 11
M  V30 11 1 11 12
M  V30 12 1 12 13
M  V30 13 1 7 8
M  V30 END BOND
M  V30 END CTAB
M  END
>  <Molecule Name>
p-Butoxybenzaldehyde

>  <Database>
PubChem

>  <Reference DOI>
10.3390/toxics11100837

>  <Molecular Target>
Aedes aegypti

>  <PubChem CID>
79813

>  <Smiles>
CCCCOc1ccc(C=O)cc1

>  <Molecular Formula>
C11H14O2

>  <Activity>
1

$$$$
Compound 238
Actelion Java MolfileCreator 2.0

  0  0  0  0  0  0              0 V3000
M  V30 BEGIN CTAB
M  V30 COUNTS 13 13 0 0 0
M  V30 BEGIN ATOM
M  V30 1 O 0.0 0.0 0.0 0
M  V30 2 C -1.3169 0.7542 0.0 0
M  V30 3 N -2.6338 0.0119 0.0 0
M  V30 4 C -1.3408 2.2747 0.0 0
M  V30 5 C -2.6578 -1.4606 0.0 0
M  V30 6 C -3.9508 0.7781 0.0 0
M  V30 7 C -1.3887 -2.2028 0.0 0
M  V30 8 C -3.9747 -2.2028 0.0 0
M  V30 9 C -3.9747 2.2986 0.0 0
M  V30 10 C -1.4127 -3.6754 0.0 0
M  V30 11 C -3.9986 -3.6754 0.0 0
M  V30 12 C -5.2916 3.0648 0.0 0
M  V30 13 C -2.7296 -4.4177 0.0 0
M  V30 END ATOM
M  V30 BEGIN BOND
M  V30 1 2 1 2
M  V30 2 1 2 3
M  V30 3 1 2 4
M  V30 4 1 3 5
M  V30 5 1 3 6
M  V30 6 2 5 7
M  V30 7 1 5 8
M  V30 8 1 6 9
M  V30 9 1 7 10
M  V30 10 2 8 11
M  V30 11 1 9 12
M  V30 12 2 10 13
M  V30 13 1 11 13
M  V30 END BOND
M  V30 END CTAB
M  END
>  <Molecule Name>
N-phenyl-N-propylacetamide

>  <Database>
Pubchem

>  <Reference DOI>
10.1371/annotation/1dc83f26-8045-4b63-8a86-24c7b71a7f79

>  <Molecular Target>
Aedes aegypti

>  <PubChem CID>
17098

>  <Smiles>
CCCN(C(C)=O)c1ccccc1

>  <Molecular Formula>
C11H15NO

>  <Activity>
1

$$$$
Compound 239
Actelion Java MolfileCreator 2.0

  0  0  0  0  0  0              0 V3000
M  V30 BEGIN CTAB
M  V30 COUNTS 14 14 0 0 0
M  V30 BEGIN ATOM
M  V30 1 O 0.0 0.0 0.0 0
M  V30 2 C -0.0239 1.5196 0.0 0
M  V30 3 N 1.2444 2.2854 0.0 0
M  V30 4 C -1.3401 2.2854 0.0 0
M  V30 5 C 1.2205 3.8051 0.0 0
M  V30 6 C 2.5128 1.5555 0.0 0
M  V30 7 C -2.6563 1.5555 0.0 0
M  V30 8 C 2.4888 4.5709 0.0 0
M  V30 9 C -0.0957 4.5709 0.0 0
M  V30 10 C 3.7811 2.3093 0.0 0
M  V30 11 C 2.4649 6.0905 0.0 0
M  V30 12 C -0.1196 6.0905 0.0 0
M  V30 13 C 5.0495 1.5794 0.0 0
M  V30 14 C 1.1487 6.8563 0.0 0
M  V30 END ATOM
M  V30 BEGIN BOND
M  V30 1 2 1 2
M  V30 2 1 2 3
M  V30 3 1 2 4
M  V30 4 1 3 5
M  V30 5 1 3 6
M  V30 6 1 4 7
M  V30 7 2 5 8
M  V30 8 1 5 9
M  V30 9 1 6 10
M  V30 10 1 8 11
M  V30 11 2 9 12
M  V30 12 1 10 13
M  V30 13 2 11 14
M  V30 14 1 12 14
M  V30 END BOND
M  V30 END CTAB
M  END
>  <Molecule Name>
N-n-Propylpropionanilide

>  <Database>
PubChem

>  <Reference DOI>
10.3390/toxics11100837

>  <Molecular Target>
Aedes aegypti

>  <PubChem CID>
67266967

>  <Smiles>
CCCN(C(CC)=O)c1ccccc1

>  <Molecular Formula>
C12H17NO

>  <Activity>
1

$$$$
Compound 240
Actelion Java MolfileCreator 2.0

  0  0  0  0  0  0              0 V3000
M  V30 BEGIN CTAB
M  V30 COUNTS 13 13 0 0 0
M  V30 BEGIN ATOM
M  V30 1 O 0.0 0.0 0.0 0
M  V30 2 C 1.2814 -0.7495 0.0 0
M  V30 3 C -1.3298 -0.7495 0.0 0
M  V30 4 C 2.5629 0.012 0.0 0 CFG=2
M  V30 5 C -2.6596 0.012 0.0 0
M  V30 6 O 2.5387 1.5474 0.0 0
M  V30 7 C 3.8444 -0.7253 0.0 0
M  V30 8 C -3.9894 -0.7253 0.0 0
M  V30 9 C 3.8202 -2.2123 0.0 0
M  V30 10 C 5.1258 0.0362 0.0 0
M  V30 11 C 5.1017 -2.9618 0.0 0
M  V30 12 C 6.4073 -0.7011 0.0 0
M  V30 13 C 6.3831 -2.2002 0.0 0
M  V30 END ATOM
M  V30 BEGIN BOND
M  V30 1 1 1 2
M  V30 2 1 1 3
M  V30 3 1 2 4
M  V30 4 1 3 5
M  V30 5 1 4 6 CFG=3
M  V30 6 1 4 7
M  V30 7 1 5 8
M  V30 8 2 7 9
M  V30 9 1 7 10
M  V30 10 1 9 11
M  V30 11 2 10 12
M  V30 12 2 11 13
M  V30 13 1 12 13
M  V30 END BOND
M  V30 BEGIN COLLECTION
M  V30 MDLV30/STERAC1 ATOMS=(1 4)
M  V30 END COLLECTION
M  V30 END CTAB
M  END
>  <Molecule Name>
1-Phenyl-2-propoxyethanol

>  <Database>
PubChem

>  <Reference DOI>
10.3390/toxics11100837

>  <Molecular Target>
Aedes aegypti

>  <PubChem CID>
245443

>  <Smiles>
CCCOCC(c1ccccc1)O

>  <Molecular Formula>
C11H16O2

>  <Activity>
1

$$$$
Compound 241
Actelion Java MolfileCreator 2.0

  0  0  0  0  0  0              0 V3000
M  V30 BEGIN CTAB
M  V30 COUNTS 12 12 0 0 0
M  V30 BEGIN ATOM
M  V30 1 O 0.0 0.0 0.0 0
M  V30 2 C -0.0241 1.5354 0.0 0
M  V30 3 C 1.2573 2.3091 0.0 0
M  V30 4 C 1.2331 3.8445 0.0 0
M  V30 5 C 2.5388 1.5716 0.0 0
M  V30 6 C 2.5146 4.6183 0.0 0
M  V30 7 C 3.8203 2.3454 0.0 0
M  V30 8 C 3.7962 3.8687 0.0 0
M  V30 9 O 5.0777 4.6424 0.0 0
M  V30 10 C 6.3592 3.905 0.0 0
M  V30 11 C 7.6407 4.6787 0.0 0
M  V30 12 C 8.9222 3.9412 0.0 0
M  V30 END ATOM
M  V30 BEGIN BOND
M  V30 1 2 1 2
M  V30 2 1 2 3
M  V30 3 2 3 4
M  V30 4 1 3 5
M  V30 5 1 4 6
M  V30 6 2 5 7
M  V30 7 2 6 8
M  V30 8 1 8 9
M  V30 9 1 9 10
M  V30 10 1 10 11
M  V30 11 1 11 12
M  V30 12 1 7 8
M  V30 END BOND
M  V30 END CTAB
M  END
>  <Molecule Name>
p-n-Propoxybenzaldehyde

>  <Database>
PubChem

>  <Reference DOI>
10.3390/toxics11100837

>  <Molecular Target>
Aedes aegypti

>  <PubChem CID>
79812

>  <Smiles>
CCCOc1ccc(C=O)cc1

>  <Molecular Formula>
C10H12O2

>  <Activity>
1

$$$$
Compound 242
Actelion Java MolfileCreator 2.0

  0  0  0  0  0  0              0 V3000
M  V30 BEGIN CTAB
M  V30 COUNTS 12 12 0 0 0
M  V30 BEGIN ATOM
M  V30 1 O 0.0 0.0 0.0 0
M  V30 2 C -1.3276 -0.7104 0.0 0
M  V30 3 C 1.2811 -0.7104 0.0 0
M  V30 4 C -2.6553 0.0815 0.0 0
M  V30 5 C -1.3509 -2.1895 0.0 0
M  V30 6 C 2.5622 0.0698 0.0 0
M  V30 7 C -3.983 -0.6289 0.0 0
M  V30 8 C -2.6786 -2.9116 0.0 0
M  V30 9 C 3.8433 -0.6405 0.0 0
M  V30 10 C -4.0063 -2.108 0.0 0
M  V30 11 C -5.334 -2.83 0.0 0
M  V30 12 O -5.3573 -4.3091 0.0 0
M  V30 END ATOM
M  V30 BEGIN BOND
M  V30 1 1 1 2
M  V30 2 1 1 3
M  V30 3 2 2 4
M  V30 4 1 2 5
M  V30 5 1 3 6
M  V30 6 1 4 7
M  V30 7 2 5 8
M  V30 8 1 6 9
M  V30 9 2 7 10
M  V30 10 1 10 11
M  V30 11 1 11 12
M  V30 12 1 8 10
M  V30 END BOND
M  V30 END CTAB
M  END
>  <Molecule Name>
p-n-Propoxybenzyl alcohol

>  <Database>
PubChem

>  <Reference DOI>
10.3390/toxics11100837

>  <Molecular Target>
Aedes aegypti

>  <PubChem CID>
347843

>  <Smiles>
CCCOc1ccc(CO)cc1

>  <Molecular Formula>
C10H14O2

>  <Activity>
1

$$$$
Compound 243
Actelion Java MolfileCreator 2.0

  0  0  0  0  0  0              0 V3000
M  V30 BEGIN CTAB
M  V30 COUNTS 14 14 0 0 0
M  V30 BEGIN ATOM
M  V30 1 O 0.0 0.0 0.0 0
M  V30 2 C -1.3186 0.7552 0.0 0
M  V30 3 N -2.6372 0.0119 0.0 0
M  V30 4 C -1.3425 2.2776 0.0 0
M  V30 5 C -2.6611 -1.4624 0.0 0
M  V30 6 C -3.9558 0.7791 0.0 0
M  V30 7 C -0.0719 3.0328 0.0 0
M  V30 8 C -3.9798 -2.2056 0.0 0
M  V30 9 C -1.3905 -2.2056 0.0 0
M  V30 10 C -3.9798 2.3015 0.0 0
M  V30 11 C -0.0958 4.5552 0.0 0
M  V30 12 C -4.0037 -3.6801 0.0 0
M  V30 13 C -1.4145 -3.6801 0.0 0
M  V30 14 C -2.7331 -4.4233 0.0 0
M  V30 END ATOM
M  V30 BEGIN BOND
M  V30 1 2 1 2
M  V30 2 1 2 3
M  V30 3 1 2 4
M  V30 4 1 3 5
M  V30 5 1 3 6
M  V30 6 2 4 7
M  V30 7 2 5 8
M  V30 8 1 5 9
M  V30 9 1 6 10
M  V30 10 1 7 11
M  V30 11 1 8 12
M  V30 12 2 9 13
M  V30 13 2 12 14
M  V30 14 1 13 14
M  V30 END BOND
M  V30 END CTAB
M  END
>  <Molecule Name>
(E)-N-ethyl-N-phenylbut-2-enamide

>  <Database>
Pubchem

>  <Reference DOI>
10.1371/annotation/1dc83f26-8045-4b63-8a86-24c7b71a7f79

>  <Molecular Target>
Aedes aegypti

>  <PubChem CID>
5354305

>  <Smiles>
CCN(C(/C=C/C)=O)c1ccccc1

>  <Molecular Formula>
C12H15NO

>  <Activity>
1

$$$$
Compound 244
Actelion Java MolfileCreator 2.0

  0  0  0  0  0  0              0 V3000
M  V30 BEGIN CTAB
M  V30 COUNTS 11 11 0 0 0
M  V30 BEGIN ATOM
M  V30 1 O 0.0 0.0 0.0 0
M  V30 2 C 1.2915 0.7866 0.0 0
M  V30 3 N 2.5831 0.0469 0.0 0
M  V30 4 C 2.5596 -1.4442 0.0 0
M  V30 5 C 3.8747 0.8336 0.0 0
M  V30 6 C 1.2211 -2.1604 0.0 0
M  V30 7 C 3.8512 -2.1722 0.0 0
M  V30 8 C 5.1663 0.0939 0.0 0
M  V30 9 C 1.1976 -3.6516 0.0 0
M  V30 10 C 3.8277 -3.6634 0.0 0
M  V30 11 C 2.4892 -4.4031 0.0 0
M  V30 END ATOM
M  V30 BEGIN BOND
M  V30 1 2 1 2
M  V30 2 1 2 3
M  V30 3 1 3 4
M  V30 4 1 3 5
M  V30 5 2 4 6
M  V30 6 1 4 7
M  V30 7 1 5 8
M  V30 8 1 6 9
M  V30 9 2 7 10
M  V30 10 2 9 11
M  V30 11 1 10 11
M  V30 END BOND
M  V30 END CTAB
M  END
>  <Molecule Name>
N-Ethylformanilide

>  <Database>
PubChem

>  <Reference DOI>
10.3390/toxics11100837

>  <Molecular Target>
Aedes aegypti

>  <PubChem CID>
79585

>  <Smiles>
CCN(C=O)c1ccccc1

>  <Molecular Formula>
C9H11NO

>  <Activity>
1

$$$$
Compound 245
Actelion Java MolfileCreator 2.0

  0  0  0  0  0  0              0 V3000
M  V30 BEGIN CTAB
M  V30 COUNTS 14 14 0 0 0
M  V30 BEGIN ATOM
M  V30 1 O 0.0 0.0 0.0 0
M  V30 2 C -0.103 -1.4294 0.0 0
M  V30 3 N -1.5195 -2.1505 0.0 0
M  V30 4 C 1.1074 -2.1505 0.0 0
M  V30 5 C -1.6226 -3.58 0.0 0
M  V30 6 C -2.9361 -1.3135 0.0 0
M  V30 7 C 2.318 -1.3135 0.0 0
M  V30 8 C -0.412 -4.2883 0.0 0
M  V30 9 C -4.3526 -2.0346 0.0 0
M  V30 10 C 3.5285 -2.0218 0.0 0
M  V30 11 C 2.2149 0.3219 0.0 0
M  V30 12 C 4.739 -1.1847 0.0 0
M  V30 13 C 3.4254 1.159 0.0 0
M  V30 14 C 4.636 0.4507 0.0 0
M  V30 END ATOM
M  V30 BEGIN BOND
M  V30 1 2 1 2
M  V30 2 1 2 3
M  V30 3 1 2 4
M  V30 4 1 3 5
M  V30 5 1 3 6
M  V30 6 1 4 7
M  V30 7 1 5 8
M  V30 8 1 6 9
M  V30 9 2 7 10
M  V30 10 1 7 11
M  V30 11 1 10 12
M  V30 12 2 11 13
M  V30 13 2 12 14
M  V30 14 1 13 14
M  V30 END BOND
M  V30 END CTAB
M  END
>  <Molecule Name>
N,N-Diethylphenylacetamide(DEPA)

>  <Database>
Pubchem

>  <Reference DOI>
10.1093/jmedent/27.6.962

>  <Molecular Target>
Periplaneta americana; Blattella germanica; Supella longipalpa

>  <PubChem CID>
17076

>  <Smiles>
CCN(CC)C(Cc1ccccc1)=O

>  <Molecular Formula>
C12H17NO

>  <Activity>
1

$$$$
Compound 246
Actelion Java MolfileCreator 2.0

  0  0  0  0  0  0              0 V3000
M  V30 BEGIN CTAB
M  V30 COUNTS 14 14 0 0 0
M  V30 BEGIN ATOM
M  V30 1 O 0.0 0.0 0.0 0
M  V30 2 C -1.3607 0.7793 0.0 0
M  V30 3 N -2.7214 0.0989 0.0 0
M  V30 4 C -1.4596 2.3503 0.0 0
M  V30 5 C -2.8204 -1.2741 0.0 0
M  V30 6 C -4.0821 0.8906 0.0 0
M  V30 7 C -0.2968 3.142 0.0 0
M  V30 8 C -2.8204 3.142 0.0 0
M  V30 9 C -1.6576 -1.9544 0.0 0
M  V30 10 C -5.4428 0.2102 0.0 0
M  V30 11 C -0.3958 4.713 0.0 0
M  V30 12 C -2.9193 4.713 0.0 0
M  V30 13 C -1.7565 5.5047 0.0 0
M  V30 14 C 0.7669 5.5047 0.0 0
M  V30 END ATOM
M  V30 BEGIN BOND
M  V30 1 2 1 2
M  V30 2 1 2 3
M  V30 3 1 2 4
M  V30 4 1 3 5
M  V30 5 1 3 6
M  V30 6 2 4 7
M  V30 7 1 4 8
M  V30 8 1 5 9
M  V30 9 1 6 10
M  V30 10 1 7 11
M  V30 11 2 8 12
M  V30 12 2 11 13
M  V30 13 1 11 14
M  V30 14 1 12 13
M  V30 END BOND
M  V30 END CTAB
M  END
>  <Molecule Name>
Diethyltoluamide (DEET)

>  <Database>
Pubchem

>  <Reference DOI>
10.1016/j.cub.2019.09.007

>  <Molecular Target>
Anopheles stephensi: Aedes aegypti

>  <PubChem CID>
4284

>  <Smiles>
CCN(CC)C(c1cc(C)ccc1)=O

>  <Molecular Formula>
C12H17NO

>  <Activity>
1

$$$$
Compound 247
Actelion Java MolfileCreator 2.0

  0  0  0  0  0  0              0 V3000
M  V30 BEGIN CTAB
M  V30 COUNTS 13 13 0 0 0
M  V30 BEGIN ATOM
M  V30 1 O 0.0 0.0 0.0 0
M  V30 2 C -1.3132 0.7521 0.0 0
M  V30 3 N -1.3371 2.2684 0.0 0
M  V30 4 C -2.6265 0.0119 0.0 0
M  V30 5 C -0.0716 3.0325 0.0 0
M  V30 6 C -2.6504 3.0325 0.0 0
M  V30 7 C -3.9398 0.776 0.0 0
M  V30 8 C -2.6504 -1.4565 0.0 0
M  V30 9 C 1.1938 2.2922 0.0 0
M  V30 10 C -3.9637 2.2922 0.0 0
M  V30 11 C -5.2531 0.0358 0.0 0
M  V30 12 C -3.9637 -2.1967 0.0 0
M  V30 13 C -5.277 -1.4326 0.0 0
M  V30 END ATOM
M  V30 BEGIN BOND
M  V30 1 2 1 2
M  V30 2 1 2 3
M  V30 3 1 2 4
M  V30 4 1 3 5
M  V30 5 1 3 6
M  V30 6 2 4 7
M  V30 7 1 4 8
M  V30 8 1 5 9
M  V30 9 1 6 10
M  V30 10 1 7 11
M  V30 11 2 8 12
M  V30 12 2 11 13
M  V30 13 1 12 13
M  V30 END BOND
M  V30 END CTAB
M  END
>  <Molecule Name>
N,N-Diethylbenzamide

>  <Database>
PubChem

>  <Reference DOI>
10.3390/toxics11100837

>  <Molecular Target>
Aedes aegypti

>  <PubChem CID>
15542

>  <Smiles>
CCN(CC)C(c1ccccc1)=O

>  <Molecular Formula>
C11H15NO

>  <Activity>
1

$$$$
Compound 248
Actelion Java MolfileCreator 2.0

  0  0  0  0  0  0              0 V3000
M  V30 BEGIN CTAB
M  V30 COUNTS 13 13 0 0 0
M  V30 BEGIN ATOM
M  V30 1 O 0.0 0.0 0.0 0
M  V30 2 C 1.2341 -0.7352 0.0 0 CFG=2
M  V30 3 N 2.4683 0.0919 0.0 0
M  V30 4 C 1.1291 -2.1926 0.0 0
M  V30 5 C 2.3633 1.7593 0.0 0
M  V30 6 C 3.7025 -0.6302 0.0 0
M  V30 7 C -0.3151 -2.9279 0.0 0
M  V30 8 C 2.3633 -2.9279 0.0 0
M  V30 9 C 3.5975 2.5996 0.0 0
M  V30 10 C 4.9367 0.1969 0.0 0
M  V30 11 C -0.4201 -4.3853 0.0 0
M  V30 12 C 2.2583 -4.3853 0.0 0
M  V30 13 C 0.814 -5.1205 0.0 0
M  V30 END ATOM
M  V30 BEGIN BOND
M  V30 1 1 2 1 CFG=3
M  V30 2 1 2 3
M  V30 3 1 2 4
M  V30 4 1 3 5
M  V30 5 1 3 6
M  V30 6 2 4 7
M  V30 7 1 4 8
M  V30 8 1 5 9
M  V30 9 1 6 10
M  V30 10 1 7 11
M  V30 11 2 8 12
M  V30 12 2 11 13
M  V30 13 1 12 13
M  V30 END BOND
M  V30 BEGIN COLLECTION
M  V30 MDLV30/STERAC1 ATOMS=(1 2)
M  V30 END COLLECTION
M  V30 END CTAB
M  END
>  <Molecule Name>
diethylamino(phenyl)methanol

>  <Database>
Pubchem

>  <Reference DOI>
10.1021/acs.jafc.2c05537

>  <Molecular Target>
Aedes albopictus

>  <PubChem CID>
13220537

>  <Smiles>
CCN(CC)C(c1ccccc1)O

>  <Molecular Formula>
C11H17NO

>  <Activity>
1

$$$$
Compound 249
Actelion Java MolfileCreator 2.0

  0  0  0  0  0  0              0 V3000
M  V30 BEGIN CTAB
M  V30 COUNTS 12 12 0 0 0
M  V30 BEGIN ATOM
M  V30 1 O 0.0 0.0 0.0 0
M  V30 2 C 1.273 0.7566 0.0 0
M  V30 3 C 2.546 0.024 0.0 0
M  V30 4 N 3.8191 0.7926 0.0 0
M  V30 5 C 3.7951 2.3179 0.0 0
M  V30 6 C 5.0921 0.06 0.0 0
M  V30 7 C 5.0681 3.0865 0.0 0
M  V30 8 C 2.474 3.0865 0.0 0
M  V30 9 C 6.3652 0.8286 0.0 0
M  V30 10 C 5.0441 4.6117 0.0 0
M  V30 11 C 2.45 4.6117 0.0 0
M  V30 12 C 3.723 5.3804 0.0 0
M  V30 END ATOM
M  V30 BEGIN BOND
M  V30 1 1 1 2
M  V30 2 1 2 3
M  V30 3 1 3 4
M  V30 4 1 4 5
M  V30 5 1 4 6
M  V30 6 2 5 7
M  V30 7 1 5 8
M  V30 8 1 6 9
M  V30 9 1 7 10
M  V30 10 2 8 11
M  V30 11 2 10 12
M  V30 12 1 11 12
M  V30 END BOND
M  V30 END CTAB
M  END
>  <Molecule Name>
N-Ethyl-N-phenyl ethanolamine

>  <Database>
PubChem

>  <Reference DOI>
10.3390/toxics11100837

>  <Molecular Target>
Aedes aegypti

>  <PubChem CID>
62338

>  <Smiles>
CCN(CCO)c1ccccc1

>  <Molecular Formula>
C10H15NO

>  <Activity>
1

$$$$
Compound 250
Actelion Java MolfileCreator 2.0

  0  0  0  0  0  0              0 V3000
M  V30 BEGIN CTAB
M  V30 COUNTS 10 9 0 0 0
M  V30 BEGIN ATOM
M  V30 1 O 0.0 0.0 0.0 0
M  V30 2 C -0.0233 -1.4807 0.0 0
M  V30 3 O -1.3524 -2.2035 0.0 0
M  V30 4 C 1.2591 -2.2035 0.0 0
M  V30 5 C -2.6815 -1.4224 0.0 0
M  V30 6 C 2.5416 -1.4224 0.0 0
M  V30 7 C -4.0107 -2.1685 0.0 0
M  V30 8 C 3.8241 -2.1685 0.0 0
M  V30 9 C 5.1066 -1.3874 0.0 0
M  V30 10 C 3.8008 -3.6492 0.0 0
M  V30 END ATOM
M  V30 BEGIN BOND
M  V30 1 2 1 2
M  V30 2 1 2 3
M  V30 3 1 2 4
M  V30 4 1 3 5
M  V30 5 2 4 6 CFG=2
M  V30 6 1 5 7
M  V30 7 1 6 8
M  V30 8 1 8 9
M  V30 9 1 8 10
M  V30 END BOND
M  V30 END CTAB
M  END
>  <Molecule Name>
4-Methyl-2-pentenoic acid, ethyl ester

>  <Database>
PubChem

>  <Reference DOI>
10.3390/toxics11100837

>  <Molecular Target>
Aedes aegypti

>  <PubChem CID>
566233

>  <Smiles>
CCOC(C=CC(C)C)=O

>  <Molecular Formula>
C8H14O2

>  <Activity>
1

$$$$
Compound 251
Actelion Java MolfileCreator 2.0

  0  0  0  0  0  0              0 V3000
M  V30 BEGIN CTAB
M  V30 COUNTS 13 13 0 0 0
M  V30 BEGIN ATOM
M  V30 1 O 0.0 0.0 0.0 0
M  V30 2 C -0.0233 -1.4831 0.0 0
M  V30 3 O -1.3546 -2.2305 0.0 0
M  V30 4 C 1.2612 -2.2305 0.0 0
M  V30 5 C -2.686 -1.4481 0.0 0
M  V30 6 C 2.5458 -1.4481 0.0 0
M  V30 7 C -4.0173 -2.1721 0.0 0
M  V30 8 C 3.8304 -2.1721 0.0 0
M  V30 9 C 3.8071 -3.6553 0.0 0
M  V30 10 C 5.1151 -1.3897 0.0 0
M  V30 11 C 5.0917 -4.4027 0.0 0
M  V30 12 C 6.3997 -2.1021 0.0 0
M  V30 13 C 6.3763 -3.6202 0.0 0
M  V30 END ATOM
M  V30 BEGIN BOND
M  V30 1 2 1 2
M  V30 2 1 2 3
M  V30 3 1 2 4
M  V30 4 1 3 5
M  V30 5 2 4 6 CFG=2
M  V30 6 1 5 7
M  V30 7 1 6 8
M  V30 8 2 8 9
M  V30 9 1 8 10
M  V30 10 1 9 11
M  V30 11 2 10 12
M  V30 12 2 11 13
M  V30 13 1 12 13
M  V30 END BOND
M  V30 END CTAB
M  END
>  <Molecule Name>
Cinnamic acid, ethyl ester

>  <Database>
PubChem

>  <Reference DOI>
10.3390/toxics11100837

>  <Molecular Target>
Aedes aegypti

>  <PubChem CID>
7649

>  <Smiles>
CCOC(C=Cc1ccccc1)=O

>  <Molecular Formula>
C11H12O2

>  <Activity>
1

$$$$
Compound 252
Actelion Java MolfileCreator 2.0

  0  0  0  0  0  0              0 V3000
M  V30 BEGIN CTAB
M  V30 COUNTS 12 12 0 0 0
M  V30 BEGIN ATOM
M  V30 1 O 0.0 0.0 0.0 0
M  V30 2 C -0.0241 1.5313 0.0 0
M  V30 3 C 1.254 2.303 0.0 0
M  V30 4 C -1.3504 2.303 0.0 0
M  V30 5 C 1.2299 3.8344 0.0 0
M  V30 6 C 2.5321 1.5675 0.0 0
M  V30 7 C 2.508 4.6061 0.0 0
M  V30 8 C 3.8103 2.3392 0.0 0
M  V30 9 C 3.7861 3.8585 0.0 0
M  V30 10 O 5.0643 4.6181 0.0 0
M  V30 11 C 6.3424 3.8826 0.0 0
M  V30 12 C 7.6206 4.6423 0.0 0
M  V30 END ATOM
M  V30 BEGIN BOND
M  V30 1 2 1 2
M  V30 2 1 2 3
M  V30 3 1 2 4
M  V30 4 2 3 5
M  V30 5 1 3 6
M  V30 6 1 5 7
M  V30 7 2 6 8
M  V30 8 2 7 9
M  V30 9 1 9 10
M  V30 10 1 10 11
M  V30 11 1 11 12
M  V30 12 1 8 9
M  V30 END BOND
M  V30 END CTAB
M  END
>  <Molecule Name>
p-Ethoxyacetophenone

>  <Database>
PubChem

>  <Reference DOI>
10.3390/toxics11100837

>  <Molecular Target>
Aedes aegypti

>  <PubChem CID>
72872

>  <Smiles>
CCOc(cc1)ccc1C(C)=O

>  <Molecular Formula>
C10H12O2

>  <Activity>
1

$$$$
Compound 253
Actelion Java MolfileCreator 2.0

  0  0  0  0  0  0              0 V3000
M  V30 BEGIN CTAB
M  V30 COUNTS 12 12 0 0 0
M  V30 BEGIN ATOM
M  V30 1 O 0.0 0.0 0.0 0
M  V30 2 C -1.321 -0.7068 0.0 0
M  V30 3 C 1.2747 -0.7068 0.0 0
M  V30 4 C -2.6421 0.0811 0.0 0
M  V30 5 C -1.3442 -2.1785 0.0 0
M  V30 6 C 2.5494 0.0695 0.0 0
M  V30 7 C -3.9631 -0.6257 0.0 0
M  V30 8 C -2.6652 -2.8854 0.0 0
M  V30 9 C -3.9863 -2.0974 0.0 0
M  V30 10 C -5.3073 -2.8043 0.0 0
M  V30 11 C -6.6284 -2.0163 0.0 0
M  V30 12 O -7.9495 -2.7232 0.0 0
M  V30 END ATOM
M  V30 BEGIN BOND
M  V30 1 1 1 2
M  V30 2 1 1 3
M  V30 3 2 2 4
M  V30 4 1 2 5
M  V30 5 1 3 6
M  V30 6 1 4 7
M  V30 7 2 5 8
M  V30 8 2 7 9
M  V30 9 1 9 10
M  V30 10 1 10 11
M  V30 11 1 11 12
M  V30 12 1 8 9
M  V30 END BOND
M  V30 END CTAB
M  END
>  <Molecule Name>
p-Ethoxyphenethyl alcohol

>  <Database>
PubChem

>  <Reference DOI>
10.3390/toxics11100837

>  <Molecular Target>
Aedes aegypti

>  <PubChem CID>
80345

>  <Smiles>
CCOc1ccc(CCO)cc1

>  <Molecular Formula>
C10H14O2

>  <Activity>
1

$$$$
Compound 254
Actelion Java MolfileCreator 2.0

  0  0  0  0  0  0              0 V3000
M  V30 BEGIN CTAB
M  V30 COUNTS 11 11 0 0 0
M  V30 BEGIN ATOM
M  V30 1 O 0.0 0.0 0.0 0
M  V30 2 C -1.3276 -0.7104 0.0 0
M  V30 3 C 1.2811 -0.7104 0.0 0
M  V30 4 C -2.6553 0.0698 0.0 0
M  V30 5 C -1.3509 -2.1895 0.0 0
M  V30 6 C 2.5622 0.0582 0.0 0
M  V30 7 C -3.983 -0.6405 0.0 0
M  V30 8 C -2.6786 -2.8999 0.0 0
M  V30 9 C -4.0063 -2.1196 0.0 0
M  V30 10 C -5.334 -2.83 0.0 0
M  V30 11 O -5.3573 -4.3091 0.0 0
M  V30 END ATOM
M  V30 BEGIN BOND
M  V30 1 1 1 2
M  V30 2 1 1 3
M  V30 3 2 2 4
M  V30 4 1 2 5
M  V30 5 1 3 6
M  V30 6 1 4 7
M  V30 7 2 5 8
M  V30 8 2 7 9
M  V30 9 1 9 10
M  V30 10 1 10 11
M  V30 11 1 8 9
M  V30 END BOND
M  V30 END CTAB
M  END
>  <Molecule Name>
p-Ethoxybenzyl alcohol

>  <Database>
PubChem

>  <Reference DOI>
10.3390/toxics11100837

>  <Molecular Target>
Aedes aegypti

>  <PubChem CID>
80345

>  <Smiles>
CCOc1ccc(CO)cc1

>  <Molecular Formula>
C9H12O2

>  <Activity>
1

$$$$
Compound 255
Actelion Java MolfileCreator 2.0

  0  0  0  0  0  0              0 V3000
M  V30 BEGIN CTAB
M  V30 COUNTS 11 11 0 0 0
M  V30 BEGIN ATOM
M  V30 1 O 0.0 0.0 0.0 0
M  V30 2 C -0.0349 -1.48 0.0 0
M  V30 3 C 1.2819 0.8041 0.0 0
M  V30 4 C -1.3868 -2.2142 0.0 0
M  V30 5 C 1.247 -2.2142 0.0 0
M  V30 6 O -2.7387 -1.4101 0.0 0
M  V30 7 C -1.4218 -3.6943 0.0 0
M  V30 8 C 1.212 -3.6943 0.0 0
M  V30 9 C -0.1398 -4.4169 0.0 0
M  V30 10 C 2.494 -4.4169 0.0 0
M  V30 11 C 2.459 -5.897 0.0 0
M  V30 END ATOM
M  V30 BEGIN BOND
M  V30 1 1 1 2
M  V30 2 1 1 3
M  V30 3 2 2 4
M  V30 4 1 2 5
M  V30 5 1 4 6
M  V30 6 1 4 7
M  V30 7 2 5 8
M  V30 8 2 7 9
M  V30 9 1 8 10
M  V30 10 1 10 11
M  V30 11 1 8 9
M  V30 END BOND
M  V30 END CTAB
M  END
>  <Molecule Name>
4-ethyl-2-methoxyphenol

>  <Database>
Pubchem

>  <Reference DOI>
10.1007/s10886-007-9272-7

>  <Molecular Target>
Glossina morsitans morsitans

>  <PubChem CID>
62465

>  <Smiles>
CCc(cc1)cc(OC)c1O

>  <Molecular Formula>
C9H12O2

>  <Activity>
1

$$$$
Compound 256
Actelion Java MolfileCreator 2.0

  0  0  0  0  0  0              0 V3000
M  V30 BEGIN CTAB
M  V30 COUNTS 12 13 0 0 0
M  V30 BEGIN ATOM
M  V30 1 O 0.0 0.0 0.0 0
M  V30 2 C -1.3301 -0.7298 0.0 0
M  V30 3 C 1.2831 -0.7298 0.0 0
M  V30 4 C -1.5067 -2.2012 0.0 0
M  V30 5 C -2.731 -0.0941 0.0 0
M  V30 6 C -3.0017 -2.4955 0.0 0
M  V30 7 C -0.5297 -3.296 0.0 0
M  V30 8 O -3.0724 1.4008 0.0 0
M  V30 9 C -3.7551 -1.1889 0.0 0
M  V30 10 C -3.4844 -3.8964 0.0 0
M  V30 11 C -1.0123 -4.6968 0.0 0
M  V30 12 C -2.5073 -4.9911 0.0 0
M  V30 END ATOM
M  V30 BEGIN BOND
M  V30 1 1 1 2
M  V30 2 1 1 3
M  V30 3 1 2 4
M  V30 4 1 2 5
M  V30 5 2 4 6
M  V30 6 1 4 7
M  V30 7 1 5 8
M  V30 8 1 5 9
M  V30 9 1 6 10
M  V30 10 2 7 11
M  V30 11 2 10 12
M  V30 12 1 6 9
M  V30 13 1 11 12
M  V30 END BOND
M  V30 END CTAB
M  END
>  <Molecule Name>
1-Methoxy-2-hydroxyindane

>  <Database>
PubChem

>  <Reference DOI>
10.3390/toxics11100837

>  <Molecular Target>
Aedes aegypti

>  <PubChem CID>
143339

>  <Smiles>
COC(C(C1)O)c2c1cccc2

>  <Molecular Formula>
C10H12O2

>  <Activity>
1

$$$$
Compound 257
Actelion Java MolfileCreator 2.0

  0  0  0  0  0  0              0 V3000
M  V30 BEGIN CTAB
M  V30 COUNTS 12 12 0 0 0
M  V30 BEGIN ATOM
M  V30 1 O 0.0 0.0 0.0 0
M  V30 2 C -0.0696 -1.4734 0.0 0
M  V30 3 C 1.2762 0.8585 0.0 0
M  V30 4 C -1.485 -2.1464 0.0 0
M  V30 5 C 1.2066 -2.1464 0.0 0
M  V30 6 O -2.9005 -1.2878 0.0 0
M  V30 7 C -1.5547 -3.6199 0.0 0
M  V30 8 C 1.137 -3.6199 0.0 0
M  V30 9 C -0.2784 -4.2928 0.0 0
M  V30 10 C 2.4132 -4.2928 0.0 0
M  V30 11 C 2.3436 -5.7663 0.0 0
M  V30 12 C 3.6199 -6.4392 0.0 0
M  V30 END ATOM
M  V30 BEGIN BOND
M  V30 1 1 1 2
M  V30 2 1 1 3
M  V30 3 2 2 4
M  V30 4 1 2 5
M  V30 5 1 4 6
M  V30 6 1 4 7
M  V30 7 2 5 8
M  V30 8 2 7 9
M  V30 9 1 8 10
M  V30 10 1 10 11
M  V30 11 2 11 12
M  V30 12 1 8 9
M  V30 END BOND
M  V30 END CTAB
M  END
>  <Molecule Name>
Eugenol

>  <Database>
Pubchem

>  <Reference DOI>
10.1016/j.cub.2019.09.007

>  <Molecular Target>
Anopheles stephensi: Aedes aegypti

>  <PubChem CID>
3314

>  <Smiles>
COc(cc(CC=C)cc1)c1O

>  <Molecular Formula>
C10H12O2

>  <Activity>
1

$$$$
Compound 258
Actelion Java MolfileCreator 2.0

  0  0  0  0  0  0              0 V3000
M  V30 BEGIN CTAB
M  V30 COUNTS 12 12 0 0 0
M  V30 BEGIN ATOM
M  V30 1 O 0.0 0.0 0.0 0
M  V30 2 C -0.0349 -1.481 0.0 0
M  V30 3 C 1.2828 0.8046 0.0 0
M  V30 4 C -1.3877 -2.1924 0.0 0
M  V30 5 C 1.2478 -2.1924 0.0 0
M  V30 6 O -2.7405 -1.3877 0.0 0
M  V30 7 C -1.4227 -3.6734 0.0 0
M  V30 8 C 1.2128 -3.6734 0.0 0
M  V30 9 C -4.0933 -2.0991 0.0 0
M  V30 10 C -0.1399 -4.3848 0.0 0
M  V30 11 C 2.4956 -4.3848 0.0 0
M  V30 12 C 2.4606 -5.8659 0.0 0
M  V30 END ATOM
M  V30 BEGIN BOND
M  V30 1 1 1 2
M  V30 2 1 1 3
M  V30 3 2 2 4
M  V30 4 1 2 5
M  V30 5 1 4 6
M  V30 6 1 4 7
M  V30 7 2 5 8
M  V30 8 1 6 9
M  V30 9 2 7 10
M  V30 10 1 8 11
M  V30 11 2 11 12
M  V30 12 1 8 10
M  V30 END BOND
M  V30 END CTAB
M  END
>  <Molecule Name>
3,4-dimethoxystyrene

>  <Database>
Pubchem

>  <Reference DOI>
10.1007/s10886-007-9272-7

>  <Molecular Target>
Glossina morsitans morsitans

>  <PubChem CID>
61400

>  <Smiles>
COc(ccc(C=C)c1)c1OC

>  <Molecular Formula>
C10H12O2

>  <Activity>
1

$$$$
Compound 259
Actelion Java MolfileCreator 2.0

  0  0  0  0  0  0              0 V3000
M  V30 BEGIN CTAB
M  V30 COUNTS 9 9 0 0 0
M  V30 BEGIN ATOM
M  V30 1 O 0.0 0.0 0.0 0
M  V30 2 C 1.2935 -0.7291 0.0 0
M  V30 3 C -1.3406 -0.7291 0.0 0
M  V30 4 C 1.27 -2.2225 0.0 0
M  V30 5 C 2.5871 0.047 0.0 0
M  V30 6 O -0.0705 -2.9399 0.0 0
M  V30 7 C 2.5636 -2.9516 0.0 0
M  V30 8 C 3.8807 -0.682 0.0 0
M  V30 9 C 3.8572 -2.1637 0.0 0
M  V30 END ATOM
M  V30 BEGIN BOND
M  V30 1 1 1 2
M  V30 2 1 1 3
M  V30 3 2 2 4
M  V30 4 1 2 5
M  V30 5 1 4 6
M  V30 6 1 4 7
M  V30 7 2 5 8
M  V30 8 2 7 9
M  V30 9 1 8 9
M  V30 END BOND
M  V30 END CTAB
M  END
>  <Molecule Name>
Guaiacol

>  <Database>
Pubchem

>  <Reference DOI>
10.1515/chem-2018-0015

>  <Molecular Target>
Aedes aegypti

>  <PubChem CID>
460

>  <Smiles>
COc(cccc1)c1O

>  <Molecular Formula>
C7H8O2

>  <Activity>
1

$$$$
Compound 260
Actelion Java MolfileCreator 2.0

  0  0  0  0  0  0              0 V3000
M  V30 BEGIN CTAB
M  V30 COUNTS 10 10 0 0 0
M  V30 BEGIN ATOM
M  V30 1 O 0.0 0.0 0.0 0
M  V30 2 C -1.3152 -0.7293 0.0 0
M  V30 3 C 1.2674 -0.7293 0.0 0
M  V30 4 C -2.6305 0.0358 0.0 0
M  V30 5 C -1.3391 -2.2001 0.0 0
M  V30 6 C -3.9458 -0.6935 0.0 0
M  V30 7 C -2.6544 1.5544 0.0 0
M  V30 8 C -2.6544 -2.9294 0.0 0
M  V30 9 C -3.9697 -2.1642 0.0 0
M  V30 10 O -3.9697 2.3196 0.0 0
M  V30 END ATOM
M  V30 BEGIN BOND
M  V30 1 1 1 2
M  V30 2 1 1 3
M  V30 3 2 2 4
M  V30 4 1 2 5
M  V30 5 1 4 6
M  V30 6 1 4 7
M  V30 7 2 5 8
M  V30 8 2 6 9
M  V30 9 1 7 10
M  V30 10 1 8 9
M  V30 END BOND
M  V30 END CTAB
M  END
>  <Molecule Name>
o-Methoxybenzyl alcohol

>  <Database>
PubChem

>  <Reference DOI>
10.3390/toxics11100837

>  <Molecular Target>
Aedes aegypti

>  <PubChem CID>
69154

>  <Smiles>
COc1c(CO)cccc1

>  <Molecular Formula>
C8H10O2

>  <Activity>
1

$$$$
Compound 261
Actelion Java MolfileCreator 2.0

  0  0  0  0  0  0              0 V3000
M  V30 BEGIN CTAB
M  V30 COUNTS 12 12 0 0 0
M  V30 BEGIN ATOM
M  V30 1 O 0.0 0.0 0.0 0
M  V30 2 C -1.3078 0.749 0.0 0
M  V30 3 C -0.0237 -1.4623 0.0 0
M  V30 4 C -1.3315 2.2589 0.0 0
M  V30 5 C -2.6156 0.0237 0.0 0
M  V30 6 C -2.6394 3.0079 0.0 0
M  V30 7 C -3.9234 0.7727 0.0 0
M  V30 8 C -3.9472 2.2708 0.0 0
M  V30 9 C -5.255 3.0198 0.0 0
M  V30 10 C -6.5628 2.2946 0.0 0
M  V30 11 C -7.8706 3.0555 0.0 0
M  V30 12 O -9.1784 2.3302 0.0 0
M  V30 END ATOM
M  V30 BEGIN BOND
M  V30 1 1 1 2
M  V30 2 1 1 3
M  V30 3 2 2 4
M  V30 4 1 2 5
M  V30 5 1 4 6
M  V30 6 2 5 7
M  V30 7 2 6 8
M  V30 8 1 8 9
M  V30 9 1 9 10
M  V30 10 1 10 11
M  V30 11 1 11 12
M  V30 12 1 7 8
M  V30 END BOND
M  V30 END CTAB
M  END
>  <Molecule Name>
3-(p-Methoxyphenyl)-1-propanol

>  <Database>
PubChem

>  <Reference DOI>
10.3390/toxics11100837

>  <Molecular Target>
Aedes aegypti

>  <PubChem CID>
79406

>  <Smiles>
COc1ccc(CCCO)cc1

>  <Molecular Formula>
C10H14O2

>  <Activity>
1

$$$$
Compound 262
Actelion Java MolfileCreator 2.0

  0  0  0  0  0  0              0 V3000
M  V30 BEGIN CTAB
M  V30 COUNTS 11 11 0 0 0
M  V30 BEGIN ATOM
M  V30 1 O 0.0 0.0 0.0 0
M  V30 2 C -1.3197 -0.7177 0.0 0
M  V30 3 C 1.2734 -0.7177 0.0 0
M  V30 4 C -2.6394 0.0347 0.0 0
M  V30 5 C -1.3428 -2.1879 0.0 0
M  V30 6 C -3.9591 -0.683 0.0 0
M  V30 7 C -2.6626 -2.9172 0.0 0
M  V30 8 C -3.9823 -2.1532 0.0 0
M  V30 9 C -5.302 -2.8825 0.0 0
M  V30 10 C -6.6217 -2.1069 0.0 0
M  V30 11 O -7.9415 -2.8246 0.0 0
M  V30 END ATOM
M  V30 BEGIN BOND
M  V30 1 1 1 2
M  V30 2 1 1 3
M  V30 3 2 2 4
M  V30 4 1 2 5
M  V30 5 1 4 6
M  V30 6 2 5 7
M  V30 7 2 6 8
M  V30 8 1 8 9
M  V30 9 1 9 10
M  V30 10 1 10 11
M  V30 11 1 7 8
M  V30 END BOND
M  V30 END CTAB
M  END
>  <Molecule Name>
2-(p-methoxyphenyl) ethanol

>  <Database>
PubChem

>  <Reference DOI>
10.3390/toxics11100837

>  <Molecular Target>
Aedes aegypti

>  <PubChem CID>
69705

>  <Smiles>
COc1ccc(CCO)cc1

>  <Molecular Formula>
C9H12O2

>  <Activity>
1

$$$$
Compound 263
Actelion Java MolfileCreator 2.0

  0  0  0  0  0  0              0 V3000
M  V30 BEGIN CTAB
M  V30 COUNTS 10 10 0 0 0
M  V30 BEGIN ATOM
M  V30 1 O 0.0 0.0 0.0 0
M  V30 2 C -1.3261 -0.7095 0.0 0
M  V30 3 C 1.2795 -0.7095 0.0 0
M  V30 4 C -2.6522 0.0814 0.0 0
M  V30 5 C -1.3493 -2.1869 0.0 0
M  V30 6 C -3.9783 -0.6281 0.0 0
M  V30 7 C -2.6754 -2.8965 0.0 0
M  V30 8 C -4.0015 -2.1054 0.0 0
M  V30 9 C -5.3277 -2.815 0.0 0
M  V30 10 O -5.3509 -4.2924 0.0 0
M  V30 END ATOM
M  V30 BEGIN BOND
M  V30 1 1 1 2
M  V30 2 1 1 3
M  V30 3 2 2 4
M  V30 4 1 2 5
M  V30 5 1 4 6
M  V30 6 2 5 7
M  V30 7 2 6 8
M  V30 8 1 8 9
M  V30 9 1 9 10
M  V30 10 1 7 8
M  V30 END BOND
M  V30 END CTAB
M  END
>  <Molecule Name>
p-Methoxybenzyl alcohol

>  <Database>
PubChem

>  <Reference DOI>
10.3390/toxics11100837

>  <Molecular Target>
Aedes aegypti

>  <PubChem CID>
89752

>  <Smiles>
COc1ccc(CO)cc1

>  <Molecular Formula>
C8H10O2

>  <Activity>
1

$$$$
Compound 264
Actelion Java MolfileCreator 2.0

  0  0  0  0  0  0              0 V3000
M  V30 BEGIN CTAB
M  V30 COUNTS 12 13 0 0 0
M  V30 BEGIN ATOM
M  V30 1 N 0.0 0.0 0.0 0
M  V30 2 C -1.4377 -0.4396 0.0 0
M  V30 3 C 0.2851 1.4734 0.0 0
M  V30 4 C -2.5546 0.5703 0.0 0
M  V30 5 C -0.8317 2.4833 0.0 0
M  V30 6 C -3.9924 0.1307 0.0 0
M  V30 7 C -2.2695 2.0437 0.0 0
M  V30 8 N -5.2163 1.0218 0.0 0
M  V30 9 C -4.4796 -1.2595 0.0 0
M  V30 10 C -6.4401 0.1782 0.0 0
M  V30 11 C -5.24 2.5309 0.0 0
M  V30 12 C -5.9886 -1.2357 0.0 0
M  V30 END ATOM
M  V30 BEGIN BOND
M  V30 1 2 1 2
M  V30 2 1 1 3
M  V30 3 1 2 4
M  V30 4 2 3 5
M  V30 5 1 4 6
M  V30 6 2 4 7
M  V30 7 1 6 8
M  V30 8 2 6 9
M  V30 9 1 8 10
M  V30 10 1 8 11
M  V30 11 1 9 12
M  V30 12 1 5 7
M  V30 13 2 10 12
M  V30 END BOND
M  V30 END CTAB
M  END
>  <Molecule Name>
Nicotyrine

>  <Database>
PubChem

>  <Reference DOI>
10.3390/toxics11100837

>  <Molecular Target>
Aedes aegypti

>  <PubChem CID>
10249

>  <Smiles>
C[n]1c(-c2cccnc2)ccc1

>  <Molecular Formula>
C10H10N2

>  <Activity>
1

$$$$
Compound 265
Actelion Java MolfileCreator 2.0

  0  0  0  0  0  0              0 V3000
M  V30 BEGIN CTAB
M  V30 COUNTS 10 10 0 0 0
M  V30 BEGIN ATOM
M  V30 1 O 0.0 0.0 0.0 0
M  V30 2 C -0.0349 -1.4787 0.0 0
M  V30 3 C 1.2808 0.7917 0.0 0
M  V30 4 C -1.3856 -2.2123 0.0 0
M  V30 5 C 1.2458 -2.2123 0.0 0
M  V30 6 O -2.7363 -1.4089 0.0 0
M  V30 7 C -1.4205 -3.691 0.0 0
M  V30 8 C 1.2109 -3.691 0.0 0
M  V30 9 C -0.1397 -4.413 0.0 0
M  V30 10 C 2.4917 -4.413 0.0 0
M  V30 END ATOM
M  V30 BEGIN BOND
M  V30 1 1 1 2
M  V30 2 1 1 3
M  V30 3 2 2 4
M  V30 4 1 2 5
M  V30 5 1 4 6
M  V30 6 1 4 7
M  V30 7 2 5 8
M  V30 8 2 7 9
M  V30 9 1 8 10
M  V30 10 1 8 9
M  V30 END BOND
M  V30 END CTAB
M  END
>  <Molecule Name>
2-methoxy-4-methylphenol
4-methylguaiacol

>  <Database>
Pubchem

>  <Reference DOI>
10.1007/s10886-007-9272-7

>  <Molecular Target>
Glossina morsitans morsitans

>  <PubChem CID>
7144

>  <Smiles>
Cc(cc1)cc(OC)c1O

>  <Molecular Formula>
C8H10O2

>  <Activity>
1

$$$$
Compound 266
Actelion Java MolfileCreator 2.0

  0  0  0  0  0  0              0 V3000
M  V30 BEGIN CTAB
M  V30 COUNTS 11 12 0 0 0
M  V30 BEGIN ATOM
M  V30 1 O 0.0 0.0 0.0 0
M  V30 2 C -0.4763 -1.4058 0.0 0
M  V30 3 C -1.917 -1.8356 0.0 0
M  V30 4 C 0.3834 -2.5908 0.0 0
M  V30 5 C -1.9402 -3.3112 0.0 0
M  V30 6 C -3.2414 -1.0572 0.0 0
M  V30 7 O -0.5228 -3.7759 0.0 0
M  V30 8 C -3.2647 -4.0199 0.0 0
M  V30 9 C -4.5659 -1.7659 0.0 0
M  V30 10 C -4.5892 -3.2414 0.0 0
M  V30 11 C -5.8904 -0.9875 0.0 0
M  V30 END ATOM
M  V30 BEGIN BOND
M  V30 1 2 1 2
M  V30 2 1 2 3
M  V30 3 1 2 4
M  V30 4 2 3 5
M  V30 5 1 3 6
M  V30 6 1 4 7
M  V30 7 1 5 8
M  V30 8 2 6 9
M  V30 9 2 8 10
M  V30 10 1 9 11
M  V30 11 1 5 7
M  V30 12 1 9 10
M  V30 END BOND
M  V30 END CTAB
M  END
>  <Molecule Name>
5-methyl-1-benzofuran-3-one

>  <Database>
Pubchem

>  <Reference DOI>
10.1371/annotation/1dc83f26-8045-4b63-8a86-24c7b71a7f79

>  <Molecular Target>
Aedes aegypti

>  <PubChem CID>
590535

>  <Smiles>
Cc(cc1)cc2c1OCC2=O

>  <Molecular Formula>
C9H8O2

>  <Activity>
1

$$$$
Compound 267
Actelion Java MolfileCreator 2.0

  0  0  0  0  0  0              0 V3000
M  V30 BEGIN CTAB
M  V30 COUNTS 8 8 0 0 0
M  V30 BEGIN ATOM
M  V30 1 N 0.0 0.0 0.0 0
M  V30 2 C -1.3085 0.7494 0.0 0
M  V30 3 C 1.261 0.7494 0.0 0
M  V30 4 C -1.3323 2.2602 0.0 0
M  V30 5 C -2.6171 0.0118 0.0 0
M  V30 6 C 1.2372 2.2602 0.0 0
M  V30 7 N -0.0713 3.0216 0.0 0
M  V30 8 C -2.6409 3.0216 0.0 0
M  V30 END ATOM
M  V30 BEGIN BOND
M  V30 1 2 1 2
M  V30 2 1 1 3
M  V30 3 1 2 4
M  V30 4 1 2 5
M  V30 5 2 3 6
M  V30 6 2 4 7
M  V30 7 1 4 8
M  V30 8 1 6 7
M  V30 END BOND
M  V30 END CTAB
M  END
>  <Molecule Name>
2,3-Dimethylpyrazine

>  <Database>
Pubchem

>  <Reference DOI>
10.1186/s13071-017-2122-8

>  <Molecular Target>
Anopheles spp.

>  <PubChem CID>
22201

>  <Smiles>
Cc1nccnc1C

>  <Molecular Formula>
C6H8N2

>  <Activity>
1

$$$$
Compound 268
Actelion Java MolfileCreator 2.0

  0  0  0  0  0  0              0 V3000
M  V30 BEGIN CTAB
M  V30 COUNTS 4 3 0 0 0
M  V30 BEGIN ATOM
M  V30 1 Cl 0.0 0.0 0.0 0
M  V30 2 C 1.2826 0.7776 0.0 0
M  V30 3 C 2.5653 1.5553 0.0 0
M  V30 4 Cl 3.8479 2.333 0.0 0
M  V30 END ATOM
M  V30 BEGIN BOND
M  V30 1 1 1 2
M  V30 2 3 2 3
M  V30 3 1 3 4
M  V30 END BOND
M  V30 END CTAB
M  END
>  <Molecule Name>
1,2-dichloroethyne

>  <Database>
Pubchem

>  <Reference DOI>
10.1371/annotation/1dc83f26-8045-4b63-8a86-24c7b71a7f79

>  <Molecular Target>
Aedes aegypti

>  <PubChem CID>
24227

>  <Smiles>
ClC#CCl

>  <Molecular Formula>
C2Cl2

>  <Activity>
1

$$$$
Compound 269
Actelion Java MolfileCreator 2.0

  0  0  0  0  0  0              0 V3000
M  V30 BEGIN CTAB
M  V30 COUNTS 4 3 0 0 0
M  V30 BEGIN ATOM
M  V30 1 Cl 0.0 0.0 0.0 0
M  V30 2 C 1.2885 0.7812 0.0 0
M  V30 3 C 2.577 0.0405 0.0 0
M  V30 4 Cl 3.8656 0.8218 0.0 0
M  V30 END ATOM
M  V30 BEGIN BOND
M  V30 1 1 1 2
M  V30 2 1 2 3
M  V30 3 1 3 4
M  V30 END BOND
M  V30 END CTAB
M  END
>  <Molecule Name>
Ethylene dichloride

>  <Database>
Pubchem

>  <Reference DOI>
10.3390/toxics11100837

>  <Molecular Target>
Aedes aegypti

>  <PubChem CID>
11

>  <Smiles>
ClCCCl

>  <Molecular Formula>
C2H4Cl2

>  <Activity>
1

$$$$
Compound 270
Actelion Java MolfileCreator 2.0

  0  0  0  0  0  0              0 V3000
M  V30 BEGIN CTAB
M  V30 COUNTS 14 15 0 0 0
M  V30 BEGIN ATOM
M  V30 1 O 0.0 0.0 0.0 0
M  V30 2 C -1.3099 0.7502 0.0 0
M  V30 3 N -1.3337 2.2626 0.0 0
M  V30 4 C -2.6199 0.0119 0.0 0
M  V30 5 C -2.6437 3.0248 0.0 0
M  V30 6 C -0.0714 3.0248 0.0 0
M  V30 7 C -3.9299 0.774 0.0 0
M  V30 8 C -2.6437 -1.4528 0.0 0
M  V30 9 C -2.6675 4.5372 0.0 0
M  V30 10 C -0.0952 4.5372 0.0 0
M  V30 11 C -5.2398 0.0357 0.0 0
M  V30 12 C -3.9537 -2.1912 0.0 0
M  V30 13 C -1.4052 5.2994 0.0 0
M  V30 14 C -5.2637 -1.429 0.0 0
M  V30 END ATOM
M  V30 BEGIN BOND
M  V30 1 2 1 2
M  V30 2 1 2 3
M  V30 3 1 2 4
M  V30 4 1 3 5
M  V30 5 1 3 6
M  V30 6 2 4 7
M  V30 7 1 4 8
M  V30 8 1 5 9
M  V30 9 1 6 10
M  V30 10 1 7 11
M  V30 11 2 8 12
M  V30 12 1 9 13
M  V30 13 2 11 14
M  V30 14 1 10 13
M  V30 15 1 12 14
M  V30 END BOND
M  V30 END CTAB
M  END
>  <Molecule Name>
phenyl(piperidin-1-yl)methanone

>  <Database>
Pubchem

>  <Reference DOI>
10.1371/annotation/1dc83f26-8045-4b63-8a86-24c7b71a7f79

>  <Molecular Target>
Aedes aegypti

>  <PubChem CID>
69892

>  <Smiles>
O=C(c1ccccc1)N1CCCCC1

>  <Molecular Formula>
C12H15NO

>  <Activity>
1

$$$$
Compound 271
Actelion Java MolfileCreator 2.0

  0  0  0  0  0  0              0 V3000
M  V30 BEGIN CTAB
M  V30 COUNTS 16 17 0 0 0
M  V30 BEGIN ATOM
M  V30 1 O 0.0 0.0 0.0 0
M  V30 2 C -1.3432 0.7814 0.0 0
M  V30 3 O -2.6864 0.1098 0.0 0
M  V30 4 C -1.4408 2.3322 0.0 0
M  V30 5 C -4.0296 0.8913 0.0 0
M  V30 6 C -0.293 3.1137 0.0 0
M  V30 7 C -2.784 3.1137 0.0 0
M  V30 8 C -5.3728 0.2197 0.0 0
M  V30 9 C -0.3907 4.6645 0.0 0
M  V30 10 C -2.8817 4.6645 0.0 0
M  V30 11 C -6.716 1.0135 0.0 0
M  V30 12 C -5.4704 -1.1356 0.0 0
M  V30 13 C -1.7339 5.446 0.0 0
M  V30 14 C -8.0592 0.3419 0.0 0
M  V30 15 C -6.8136 -1.8072 0.0 0
M  V30 16 C -8.1568 -1.0135 0.0 0
M  V30 END ATOM
M  V30 BEGIN BOND
M  V30 1 2 1 2
M  V30 2 1 2 3
M  V30 3 1 2 4
M  V30 4 1 3 5
M  V30 5 2 4 6
M  V30 6 1 4 7
M  V30 7 1 5 8
M  V30 8 1 6 9
M  V30 9 2 7 10
M  V30 10 2 8 11
M  V30 11 1 8 12
M  V30 12 2 9 13
M  V30 13 1 11 14
M  V30 14 2 12 15
M  V30 15 2 14 16
M  V30 16 1 10 13
M  V30 17 1 15 16
M  V30 END BOND
M  V30 END CTAB
M  END
>  <Molecule Name>
Benzyl Benzoate

>  <Database>
Pubchem

>  <Reference DOI>
10.1111/j.1398-9995.1996.tb04581.x
 10.3390/molecules28237731

>  <Molecular Target>
Tribolium castaneum

>  <PubChem CID>
2345

>  <Smiles>
O=C(c1ccccc1)OCc1ccccc1

>  <Molecular Formula>
C14H12O2

>  <Activity>
1

$$$$
Compound 272
Actelion Java MolfileCreator 2.0

  0  0  0  0  0  0              0 V3000
M  V30 BEGIN CTAB
M  V30 COUNTS 11 12 0 0 0
M  V30 BEGIN ATOM
M  V30 1 O 0.0 0.0 0.0 0
M  V30 2 C -1.2806 0.7334 0.0 0
M  V30 3 O -2.5612 0.0116 0.0 0
M  V30 4 C -1.3039 2.212 0.0 0
M  V30 5 C -3.8419 0.7451 0.0 0
M  V30 6 C -2.5845 2.9571 0.0 0
M  V30 7 C -3.8652 2.2236 0.0 0
M  V30 8 C -5.1691 0.0 0.0 0
M  V30 9 C -5.1924 3.0153 0.0 0
M  V30 10 C -6.508 0.7567 0.0 0
M  V30 11 C -6.5312 2.2935 0.0 0
M  V30 END ATOM
M  V30 BEGIN BOND
M  V30 1 2 1 2
M  V30 2 1 2 3
M  V30 3 1 2 4
M  V30 4 1 3 5
M  V30 5 2 4 6
M  V30 6 2 5 7
M  V30 7 1 5 8
M  V30 8 1 7 9
M  V30 9 2 8 10
M  V30 10 2 9 11
M  V30 11 1 6 7
M  V30 12 1 10 11
M  V30 END BOND
M  V30 END CTAB
M  END
>  <Molecule Name>
chromen-2-one

>  <Database>
Pubchem

>  <Reference DOI>
10.1371/annotation/1dc83f26-8045-4b63-8a86-24c7b71a7f79

>  <Molecular Target>
Aedes aegypti

>  <PubChem CID>
323

>  <Smiles>
O=C1Oc(cccc2)c2C=C1

>  <Molecular Formula>
C9H6O2

>  <Activity>
1

$$$$
Compound 273
Actelion Java MolfileCreator 2.0

  0  0  0  0  0  0              0 V3000
M  V30 BEGIN CTAB
M  V30 COUNTS 15 17 0 0 0
M  V30 BEGIN ATOM
M  V30 1 O 0.0 0.0 0.0 0
M  V30 2 C -1.3525 0.7746 0.0 0
M  V30 3 C -2.7051 0.086 0.0 0
M  V30 4 O -2.9633 1.6353 0.0 0
M  V30 5 C -4.1315 -0.4549 0.0 0
M  V30 6 C -1.6353 -0.6639 0.0 0
M  V30 7 C -4.4881 2.0534 0.0 0
M  V30 8 C -5.1767 0.7008 0.0 0
M  V30 9 C -4.3897 -1.8075 0.0 0
M  V30 10 C -1.8936 -2.0165 0.0 0
M  V30 11 C -5.2873 3.406 0.0 0
M  V30 12 C -6.7383 0.7992 0.0 0
M  V30 13 C -3.3199 -2.5576 0.0 0
M  V30 14 C -6.8489 3.5044 0.0 0
M  V30 15 C -7.5252 2.1518 0.0 0
M  V30 END ATOM
M  V30 BEGIN BOND
M  V30 1 2 1 2
M  V30 2 1 2 3
M  V30 3 1 3 4
M  V30 4 1 3 5
M  V30 5 1 3 6
M  V30 6 1 4 7
M  V30 7 1 5 8
M  V30 8 1 5 9
M  V30 9 1 6 10
M  V30 10 1 7 11
M  V30 11 1 8 12
M  V30 12 1 9 13
M  V30 13 1 11 14
M  V30 14 1 12 15
M  V30 15 1 7 8
M  V30 16 2 10 13
M  V30 17 2 14 15
M  V30 END BOND
M  V30 END CTAB
M  END
>  <Molecule Name>
1,5a,6,9,9a,9b-Hexahydro-4a(4H)-dibenzofurancarboxaldehyde
MGK Repellent 11

>  <Database>
Pubchem

>  <Reference DOI>
10.1016/0035-9203(86)90382-2

>  <Molecular Target>
Phlebotomus perniciosus

>  <PubChem CID>
31341

>  <Smiles>
O=CC12OC(CC=CC3)C3C1CC=CC2

>  <Molecular Formula>
C13H16O2

>  <Activity>
1

$$$$
Compound 274
Actelion Java MolfileCreator 2.0

  0  0  0  0  0  0              0 V3000
M  V30 BEGIN CTAB
M  V30 COUNTS 11 11 0 0 0
M  V30 BEGIN ATOM
M  V30 1 O 0.0 0.0 0.0 0
M  V30 2 C -1.3436 0.7817 0.0 0
M  V30 3 O -1.4413 2.333 0.0 0
M  V30 4 C -2.6872 0.1099 0.0 0
M  V30 5 C -4.0308 0.8916 0.0 0
M  V30 6 C -5.3745 0.2198 0.0 0
M  V30 7 C -6.7181 1.0016 0.0 0
M  V30 8 C -5.4722 -1.1359 0.0 0
M  V30 9 C -8.0617 0.3298 0.0 0
M  V30 10 C -6.8158 -1.8077 0.0 0
M  V30 11 C -8.1595 -1.026 0.0 0
M  V30 END ATOM
M  V30 BEGIN BOND
M  V30 1 2 1 2
M  V30 2 1 2 3
M  V30 3 1 2 4
M  V30 4 1 4 5
M  V30 5 1 5 6
M  V30 6 1 6 7
M  V30 7 1 6 8
M  V30 8 1 7 9
M  V30 9 1 8 10
M  V30 10 1 9 11
M  V30 11 1 10 11
M  V30 END BOND
M  V30 END CTAB
M  END
>  <Molecule Name>
Cyclohexanepropanoic Acid

>  <Database>
Pubchem

>  <Reference DOI>
10.1186/s13071-017-2122-8

>  <Molecular Target>
Anopheles spp.

>  <PubChem CID>
69702

>  <Smiles>
OC(CCC1CCCCC1)=O

>  <Molecular Formula>
C9H16O2

>  <Activity>
1

$$$$
Compound 275
Actelion Java MolfileCreator 2.0

  0  0  0  0  0  0              0 V3000
M  V30 BEGIN CTAB
M  V30 COUNTS 14 15 0 0 0
M  V30 BEGIN ATOM
M  V30 1 F 0.0 0.0 0.0 0
M  V30 2 C -0.0234 -1.4898 0.0 0
M  V30 3 C 1.2669 -2.2171 0.0 0
M  V30 4 C -1.3608 -2.2171 0.0 0
M  V30 5 C 1.2434 -3.707 0.0 0
M  V30 6 C -1.3842 -3.707 0.0 0
M  V30 7 C -0.0938 -4.4343 0.0 0
M  V30 8 C -0.1173 -5.9242 0.0 0
M  V30 9 C -1.4546 -6.6515 0.0 0
M  V30 10 C 1.1731 -6.6515 0.0 0
M  V30 11 O -2.792 -5.8772 0.0 0
M  V30 12 C -1.4781 -8.1413 0.0 0
M  V30 13 C 1.1496 -8.1413 0.0 0
M  V30 14 C -0.1876 -8.8687 0.0 0
M  V30 END ATOM
M  V30 BEGIN BOND
M  V30 1 1 1 2
M  V30 2 2 2 3
M  V30 3 1 2 4
M  V30 4 1 3 5
M  V30 5 2 4 6
M  V30 6 2 5 7
M  V30 7 1 7 8
M  V30 8 1 8 9
M  V30 9 1 8 10
M  V30 10 1 9 11
M  V30 11 1 9 12
M  V30 12 1 10 13
M  V30 13 1 12 14
M  V30 14 1 6 7
M  V30 15 1 13 14
M  V30 END BOND
M  V30 END CTAB
M  END
>  <Molecule Name>
2-(4-Fluorophenyl)cyclohexanol

>  <Database>
Pubchem

>  <Reference DOI>
10.1186/s13071-017-2122-8

>  <Molecular Target>
Anopheles spp.

>  <PubChem CID>
20487437

>  <Smiles>
OC(CCCC1)C1c(cc1)ccc1F

>  <Molecular Formula>
C12H15OF

>  <Activity>
1

$$$$
Compound 276
Actelion Java MolfileCreator 2.0

  0  0  0  0  0  0              0 V3000
M  V30 BEGIN CTAB
M  V30 COUNTS 11 11 0 0 0
M  V30 BEGIN ATOM
M  V30 1 O 0.0 0.0 0.0 0
M  V30 2 C 1.2758 0.7582 0.0 0
M  V30 3 C 1.2517 -0.7221 0.0 0
M  V30 4 C 2.5516 1.5286 0.0 0
M  V30 5 C -0.0481 1.5286 0.0 0
M  V30 6 C 1.2276 -2.2026 0.0 0
M  V30 7 C 2.5276 3.0572 0.0 0
M  V30 8 C -0.0722 3.0572 0.0 0
M  V30 9 C 1.2036 -3.683 0.0 0
M  V30 10 C 1.2036 3.8275 0.0 0
M  V30 11 O 2.4794 -4.4173 0.0 0
M  V30 END ATOM
M  V30 BEGIN BOND
M  V30 1 1 1 2
M  V30 2 1 2 3
M  V30 3 1 2 4
M  V30 4 1 2 5
M  V30 5 3 3 6
M  V30 6 1 4 7
M  V30 7 1 5 8
M  V30 8 1 6 9
M  V30 9 1 7 10
M  V30 10 1 9 11
M  V30 11 1 8 10
M  V30 END BOND
M  V30 END CTAB
M  END
>  <Molecule Name>
1-Hydroxymethyl-ethynyl-1-cyclohexanol

>  <Database>
PubChem

>  <Reference DOI>
10.3390/toxics11100837

>  <Molecular Target>
Aedes aegypti

>  <PubChem CID>
4277820

>  <Smiles>
OCC#CC1(CCCCC1)O

>  <Molecular Formula>
C9H14O2

>  <Activity>
1

$$$$
Compound 277
Actelion Java MolfileCreator 2.0

  0  0  0  0  0  0              0 V3000
M  V30 BEGIN CTAB
M  V30 COUNTS 11 11 0 0 0
M  V30 BEGIN ATOM
M  V30 1 O 0.0 0.0 0.0 0
M  V30 2 C -1.3246 0.7901 0.0 0
M  V30 3 C -0.0464 1.5686 0.0 0
M  V30 4 C -2.6492 1.5802 0.0 0
M  V30 5 C -1.3478 -0.6855 0.0 0
M  V30 6 C 1.2316 0.8598 0.0 0
M  V30 7 C -3.9739 0.8714 0.0 0
M  V30 8 C -2.6725 -1.3943 0.0 0
M  V30 9 C 2.5098 1.6383 0.0 0
M  V30 10 C -3.9971 -0.6042 0.0 0
M  V30 11 O 3.788 0.9295 0.0 0
M  V30 END ATOM
M  V30 BEGIN BOND
M  V30 1 1 1 2
M  V30 2 1 2 3
M  V30 3 1 2 4
M  V30 4 1 2 5
M  V30 5 2 3 6 CFG=2
M  V30 6 1 4 7
M  V30 7 1 5 8
M  V30 8 1 6 9
M  V30 9 1 7 10
M  V30 10 1 9 11
M  V30 11 1 8 10
M  V30 END BOND
M  V30 END CTAB
M  END
>  <Molecule Name>
3-(1-Hydroxycyclohexyl)-2-propene-1-ol

>  <Database>
PubChem

>  <Reference DOI>
10.3390/toxics11100837

>  <Molecular Target>
Aedes aegypti

>  <PubChem CID>
282443

>  <Smiles>
OCC=CC1(CCCCC1)O

>  <Molecular Formula>
C9H16O2

>  <Activity>
1

$$$$
Compound 278
Actelion Java MolfileCreator 2.0

  0  0  0  0  0  0              0 V3000
M  V30 BEGIN CTAB
M  V30 COUNTS 10 10 0 0 0
M  V30 BEGIN ATOM
M  V30 1 Br 0.0 0.0 0.0 0
M  V30 2 C -1.3163 -0.7159 0.0 0
M  V30 3 C -2.6327 0.0461 0.0 0
M  V30 4 C -1.3394 -2.1823 0.0 0
M  V30 5 C -3.949 -0.6697 0.0 0
M  V30 6 C -2.6558 -2.8982 0.0 0
M  V30 7 C -3.9721 -2.1361 0.0 0
M  V30 8 C -5.2885 -2.8521 0.0 0
M  V30 9 C -6.6048 -2.0784 0.0 0
M  V30 10 O -7.9212 -2.8059 0.0 0
M  V30 END ATOM
M  V30 BEGIN BOND
M  V30 1 1 1 2
M  V30 2 2 2 3
M  V30 3 1 2 4
M  V30 4 1 3 5
M  V30 5 2 4 6
M  V30 6 2 5 7
M  V30 7 1 7 8
M  V30 8 1 8 9
M  V30 9 1 9 10
M  V30 10 1 6 7
M  V30 END BOND
M  V30 END CTAB
M  END
>  <Molecule Name>
2-(4-Bromophenyl) ethanol

>  <Database>
PubChem

>  <Reference DOI>
10.3390/toxics11100837

>  <Molecular Target>
Aedes aegypti

>  <PubChem CID>
72851

>  <Smiles>
OCCc(cc1)ccc1Br

>  <Molecular Formula>
C8H9OBr

>  <Activity>
1

$$$$
Compound 279
Actelion Java MolfileCreator 2.0

  0  0  0  0  0  0              0 V3000
M  V30 BEGIN CTAB
M  V30 COUNTS 10 10 0 0 0
M  V30 BEGIN ATOM
M  V30 1 Cl 0.0 0.0 0.0 0
M  V30 2 C -1.3163 -0.7159 0.0 0
M  V30 3 C -2.6327 0.0461 0.0 0
M  V30 4 C -1.3394 -2.1823 0.0 0
M  V30 5 C -3.949 -0.6697 0.0 0
M  V30 6 C -2.6558 -2.8982 0.0 0
M  V30 7 C -3.9721 -2.1361 0.0 0
M  V30 8 C -5.2885 -2.8521 0.0 0
M  V30 9 C -6.6048 -2.0784 0.0 0
M  V30 10 O -7.9212 -2.8059 0.0 0
M  V30 END ATOM
M  V30 BEGIN BOND
M  V30 1 1 1 2
M  V30 2 2 2 3
M  V30 3 1 2 4
M  V30 4 1 3 5
M  V30 5 2 4 6
M  V30 6 2 5 7
M  V30 7 1 7 8
M  V30 8 1 8 9
M  V30 9 1 9 10
M  V30 10 1 6 7
M  V30 END BOND
M  V30 END CTAB
M  END
>  <Molecule Name>
2-(4-chlorophenyl)ethanol

>  <Database>
PubChem

>  <Reference DOI>
10.3390/toxics11100837

>  <Molecular Target>
Aedes aegypti

>  <PubChem CID>
74647

>  <Smiles>
OCCc(cc1)ccc1Cl

>  <Molecular Formula>
C8H9OCl

>  <Activity>
1

$$$$
Compound 280
Actelion Java MolfileCreator 2.0

  0  0  0  0  0  0              0 V3000
M  V30 BEGIN CTAB
M  V30 COUNTS 10 10 0 0 0
M  V30 BEGIN ATOM
M  V30 1 Br 0.0 0.0 0.0 0
M  V30 2 C 1.2854 -0.7397 0.0 0
M  V30 3 C 2.5709 0.0242 0.0 0
M  V30 4 C 1.2612 -2.2314 0.0 0
M  V30 5 C 3.8564 -0.7155 0.0 0
M  V30 6 C 2.5467 1.5644 0.0 0
M  V30 7 C 2.5467 -2.9711 0.0 0
M  V30 8 C 3.8322 -2.2071 0.0 0
M  V30 9 C 3.8322 2.3284 0.0 0
M  V30 10 O 3.8079 3.8685 0.0 0
M  V30 END ATOM
M  V30 BEGIN BOND
M  V30 1 1 1 2
M  V30 2 2 2 3
M  V30 3 1 2 4
M  V30 4 1 3 5
M  V30 5 1 3 6
M  V30 6 2 4 7
M  V30 7 2 5 8
M  V30 8 1 6 9
M  V30 9 1 9 10
M  V30 10 1 7 8
M  V30 END BOND
M  V30 END CTAB
M  END
>  <Molecule Name>
2-(2-Bromophenyl)ethanol

>  <Database>
Pubchem

>  <Reference DOI>
10.1186/s13071-017-2122-8

>  <Molecular Target>
Anopheles spp.

>  <PubChem CID>
2734089

>  <Smiles>
OCCc(cccc1)c1Br

>  <Molecular Formula>
C8H9OBr

>  <Activity>
1

$$$$
Compound 281
Actelion Java MolfileCreator 2.0

  0  0  0  0  0  0              0 V3000
M  V30 BEGIN CTAB
M  V30 COUNTS 10 10 0 0 0
M  V30 BEGIN ATOM
M  V30 1 Cl 0.0 0.0 0.0 0
M  V30 2 C 1.2854 -0.7397 0.0 0
M  V30 3 C 2.5709 0.0242 0.0 0
M  V30 4 C 1.2612 -2.2314 0.0 0
M  V30 5 C 3.8564 -0.7155 0.0 0
M  V30 6 C 2.5467 1.5644 0.0 0
M  V30 7 C 2.5467 -2.9711 0.0 0
M  V30 8 C 3.8322 -2.2071 0.0 0
M  V30 9 C 3.8322 2.3284 0.0 0
M  V30 10 O 3.8079 3.8685 0.0 0
M  V30 END ATOM
M  V30 BEGIN BOND
M  V30 1 1 1 2
M  V30 2 2 2 3
M  V30 3 1 2 4
M  V30 4 1 3 5
M  V30 5 1 3 6
M  V30 6 2 4 7
M  V30 7 2 5 8
M  V30 8 1 6 9
M  V30 9 1 9 10
M  V30 10 1 7 8
M  V30 END BOND
M  V30 END CTAB
M  END
>  <Molecule Name>
2-(2-Chlorophenyl)ethanol

>  <Database>
Pubchem

>  <Reference DOI>
10.1186/s13071-017-2122-8

>  <Molecular Target>
Anopheles spp.

>  <PubChem CID>
88266

>  <Smiles>
OCCc(cccc1)c1Cl

>  <Molecular Formula>
C8H9OCl

>  <Activity>
1

$$$$
Compound 282
Actelion Java MolfileCreator 2.0

  0  0  0  0  0  0              0 V3000
M  V30 BEGIN CTAB
M  V30 COUNTS 9 9 0 0 0
M  V30 BEGIN ATOM
M  V30 1 I 0.0 0.0 0.0 0
M  V30 2 C 1.2857 -0.752 0.0 0
M  V30 3 C 2.5715 0.0242 0.0 0
M  V30 4 C 1.2615 -2.244 0.0 0
M  V30 5 C 3.8573 -0.7156 0.0 0
M  V30 6 C 2.5473 1.5647 0.0 0
M  V30 7 C 2.5473 -2.9961 0.0 0
M  V30 8 C 3.8331 -2.2076 0.0 0
M  V30 9 O 3.8331 2.3411 0.0 0
M  V30 END ATOM
M  V30 BEGIN BOND
M  V30 1 1 1 2
M  V30 2 2 2 3
M  V30 3 1 2 4
M  V30 4 1 3 5
M  V30 5 1 3 6
M  V30 6 2 4 7
M  V30 7 2 5 8
M  V30 8 1 6 9
M  V30 9 1 7 8
M  V30 END BOND
M  V30 END CTAB
M  END
>  <Molecule Name>
NSC-59362

>  <Database>
Pubchem

>  <Reference DOI>
10.1186/s13071-017-2122-8

>  <Molecular Target>
Anopheles spp.

>  <PubChem CID>
107629

>  <Smiles>
OCc(cccc1)c1I

>  <Molecular Formula>
C7H7OI

>  <Activity>
1

$$$$
Compound 283
Actelion Java MolfileCreator 2.0

  0  0  0  0  0  0              0 V3000
M  V30 BEGIN CTAB
M  V30 COUNTS 15 16 0 0 0
M  V30 BEGIN ATOM
M  V30 1 O 0.0 0.0 0.0 0
M  V30 2 C 1.2826 0.7812 0.0 0
M  V30 3 C -1.3292 0.7812 0.0 0
M  V30 4 C 2.5652 0.0699 0.0 0
M  V30 5 C -2.6584 0.0699 0.0 0
M  V30 6 C 2.5418 -1.4108 0.0 0
M  V30 7 C 3.8478 0.8511 0.0 0
M  V30 8 C -3.9877 0.8628 0.0 0
M  V30 9 C -2.6818 -1.4108 0.0 0
M  V30 10 C 3.8244 -2.1337 0.0 0
M  V30 11 C 5.1304 0.1282 0.0 0
M  V30 12 C -5.3169 0.1282 0.0 0
M  V30 13 C -4.011 -2.1221 0.0 0
M  V30 14 C 5.107 -1.3525 0.0 0
M  V30 15 C -5.3402 -1.3525 0.0 0
M  V30 END ATOM
M  V30 BEGIN BOND
M  V30 1 1 1 2
M  V30 2 1 1 3
M  V30 3 1 2 4
M  V30 4 1 3 5
M  V30 5 2 4 6
M  V30 6 1 4 7
M  V30 7 2 5 8
M  V30 8 1 5 9
M  V30 9 1 6 10
M  V30 10 2 7 11
M  V30 11 1 8 12
M  V30 12 2 9 13
M  V30 13 2 10 14
M  V30 14 2 12 15
M  V30 15 1 11 14
M  V30 16 1 13 15
M  V30 END BOND
M  V30 END CTAB
M  END
>  <Molecule Name>
Dibenzyl ether

>  <Database>
PubChem

>  <Reference DOI>
10.3390/toxics11100837

>  <Molecular Target>
Aedes aegypti

>  <PubChem CID>
7657

>  <Smiles>
C(c1ccccc1)OCc1ccccc1

>  <Molecular Formula>
C14H14O

>  <Activity>
1

$$$$
Compound 284
Actelion Java MolfileCreator 2.0

  0  0  0  0  0  0              0 V3000
M  V30 BEGIN CTAB
M  V30 COUNTS 13 14 0 0 0
M  V30 BEGIN ATOM
M  V30 1 N 0.0 0.0 0.0 0
M  V30 2 C 1.2964 -0.7306 0.0 0
M  V30 3 C -1.3435 -0.7189 0.0 0
M  V30 4 C 1.2728 -2.2274 0.0 0
M  V30 5 C 2.5928 0.0471 0.0 0
M  V30 6 C -1.3671 -2.2156 0.0 0
M  V30 7 C -0.0707 -2.9463 0.0 0
M  V30 8 C 3.8892 -0.6717 0.0 0
M  V30 9 C 3.8656 -2.1685 0.0 0
M  V30 10 C 5.1856 0.0942 0.0 0
M  V30 11 C 5.162 -2.911 0.0 0
M  V30 12 C 6.482 -0.6364 0.0 0
M  V30 13 C 6.4584 -2.1213 0.0 0
M  V30 END ATOM
M  V30 BEGIN BOND
M  V30 1 2 1 2
M  V30 2 1 1 3
M  V30 3 1 2 4
M  V30 4 1 2 5
M  V30 5 2 3 6
M  V30 6 2 4 7
M  V30 7 1 5 8
M  V30 8 2 8 9
M  V30 9 1 8 10
M  V30 10 1 9 11
M  V30 11 2 10 12
M  V30 12 2 11 13
M  V30 13 1 6 7
M  V30 14 1 12 13
M  V30 END BOND
M  V30 END CTAB
M  END
>  <Molecule Name>
2-Benzylpyridine

>  <Database>
PubChem

>  <Reference DOI>
10.3390/toxics11100837

>  <Molecular Target>
Aedes aegypti

>  <PubChem CID>
7581

>  <Smiles>
C(c1ccccc1)c1ncccc1

>  <Molecular Formula>
C12H11N

>  <Activity>
1

$$$$
Compound 285
Actelion Java MolfileCreator 2.0

  0  0  0  0  0  0              0 V3000
M  V30 BEGIN CTAB
M  V30 COUNTS 12 13 0 0 0
M  V30 BEGIN ATOM
M  V30 1 O 0.0 0.0 0.0 0
M  V30 2 C -0.0235 -1.4929 0.0 0
M  V30 3 C 1.2696 -2.2218 0.0 0
M  V30 4 C -1.3636 -2.21 0.0 0
M  V30 5 C 1.246 -3.7147 0.0 0
M  V30 6 C 2.5627 -1.4341 0.0 0
M  V30 7 C -1.3871 -3.703 0.0 0
M  V30 8 C -0.094 -4.4318 0.0 0
M  V30 9 C 2.5392 -4.4436 0.0 0
M  V30 10 C -0.1175 -5.9248 0.0 0
M  V30 11 C 2.5156 -5.9365 0.0 0
M  V30 12 C 1.1755 -6.6771 0.0 0
M  V30 END ATOM
M  V30 BEGIN BOND
M  V30 1 1 1 2
M  V30 2 1 2 3
M  V30 3 1 2 4
M  V30 4 1 3 5
M  V30 5 1 3 6
M  V30 6 1 4 7
M  V30 7 2 5 8
M  V30 8 1 5 9
M  V30 9 1 8 10
M  V30 10 2 9 11
M  V30 11 2 10 12
M  V30 12 1 7 8
M  V30 13 1 11 12
M  V30 END BOND
M  V30 END CTAB
M  END
>  <Molecule Name>
1-Methyl-1,2,3,4-tetrahydro-2-Naphthol

>  <Database>
PubChem

>  <Reference DOI>
10.3390/toxics11100837

>  <Molecular Target>
Aedes aegypti

>  <PubChem CID>
250086

>  <Smiles>
CC(C(CC1)O)c2c1cccc2

>  <Molecular Formula>
C11H14O

>  <Activity>
1

$$$$
Compound 286
Actelion Java MolfileCreator 2.0

  0  0  0  0  0  0              0 V3000
M  V30 BEGIN CTAB
M  V30 COUNTS 16 18 0 0 0
M  V30 BEGIN ATOM
M  V30 1 O 0.0 0.0 0.0 0
M  V30 2 C 1.2059 0.7913 0.0 0
M  V30 3 C 1.1682 2.3741 0.0 0
M  V30 4 C 2.4495 0.0628 0.0 0
M  V30 5 C 2.3616 3.1655 0.0 0
M  V30 6 C -0.1507 3.1655 0.0 0
M  V30 7 C 3.6931 0.8667 0.0 0
M  V30 8 C 3.6177 2.4621 0.0 0
M  V30 9 C 0.7662 3.5047 0.0 0
M  V30 10 C 2.2987 4.6855 0.0 0
M  V30 11 C -0.2135 4.6855 0.0 0
M  V30 12 C -1.6581 3.3916 0.0 0
M  V30 13 C -0.829 1.8968 0.0 0
M  V30 14 C 5.0121 2.5374 0.0 0
M  V30 15 C 4.2961 3.7936 0.0 0
M  V30 16 C 0.9798 5.4894 0.0 0
M  V30 END ATOM
M  V30 BEGIN BOND
M  V30 1 1 1 2
M  V30 2 1 2 3
M  V30 3 1 2 4
M  V30 4 1 3 5
M  V30 5 1 3 6
M  V30 6 1 4 7
M  V30 7 1 5 8
M  V30 8 1 5 9
M  V30 9 1 5 10
M  V30 10 1 6 11
M  V30 11 1 6 12
M  V30 12 1 6 13
M  V30 13 1 8 14
M  V30 14 1 8 15
M  V30 15 1 10 16
M  V30 16 1 7 8
M  V30 17 1 9 11
M  V30 18 1 11 16
M  V30 END BOND
M  V30 END CTAB
M  END
>  <Molecule Name>
Isolongifolan-8-ol

>  <Database>
Pubchem

>  <Reference DOI>
10.1603/033.046.0113

>  <Molecular Target>
Anopheles stephensi Liston; Aedes aegypti

>  <PubChem CID>
535389

>  <Smiles>
CC(C)(C(CC1)C2)C3C12C(C)(C)CCC3O

>  <Molecular Formula>
C15H26O

>  <Activity>
1

$$$$
Compound 287
Actelion Java MolfileCreator 2.0

  0  0  0  0  0  0              0 V3000
M  V30 BEGIN CTAB
M  V30 COUNTS 11 11 0 0 0
M  V30 BEGIN ATOM
M  V30 1 O 0.0 0.0 0.0 0
M  V30 2 C -0.0238 1.5127 0.0 0
M  V30 3 C -1.334 2.2631 0.0 0
M  V30 4 C 1.2387 2.2631 0.0 0
M  V30 5 C -1.3578 3.7758 0.0 0
M  V30 6 C 1.2149 3.7758 0.0 0
M  V30 7 C -0.0952 4.5262 0.0 0
M  V30 8 C -0.1191 6.0389 0.0 0
M  V30 9 C -0.1429 7.5516 0.0 0
M  V30 10 C 1.3459 6.0627 0.0 0
M  V30 11 C -1.6318 6.0627 0.0 0
M  V30 END ATOM
M  V30 BEGIN BOND
M  V30 1 2 1 2
M  V30 2 1 2 3
M  V30 3 1 2 4
M  V30 4 1 3 5
M  V30 5 1 4 6
M  V30 6 1 5 7
M  V30 7 1 7 8
M  V30 8 1 8 9
M  V30 9 1 8 10
M  V30 10 1 8 11
M  V30 11 1 6 7
M  V30 END BOND
M  V30 END CTAB
M  END
>  <Molecule Name>
4-tert-butylcyclohexan-1-one

>  <Database>
Pubchem

>  <Reference DOI>
10.1371/annotation/1dc83f26-8045-4b63-8a86-24c7b71a7f79

>  <Molecular Target>
Aedes aegypti

>  <PubChem CID>
7392

>  <Smiles>
CC(C)(C)C(CC1)CCC1=O

>  <Molecular Formula>
C10H18O

>  <Activity>
1

$$$$
Compound 288
Actelion Java MolfileCreator 2.0

  0  0  0  0  0  0              0 V3000
M  V30 BEGIN CTAB
M  V30 COUNTS 11 12 0 0 0
M  V30 BEGIN ATOM
M  V30 1 O 0.0 0.0 0.0 0
M  V30 2 C 0.3959 1.1337 0.0 0
M  V30 3 C 1.8355 1.9075 0.0 0
M  V30 4 C -0.0899 2.2854 0.0 0
M  V30 5 C 1.1877 4.1929 0.0 0
M  V30 6 C 3.3111 1.4036 0.0 0
M  V30 7 C 1.4396 0.8817 0.0 0
M  V30 8 C 2.0514 3.0952 0.0 0
M  V30 9 C -1.2596 2.1594 0.0 0
M  V30 10 C -0.7378 3.3831 0.0 0
M  V30 11 C 3.5271 2.5553 0.0 0
M  V30 END ATOM
M  V30 BEGIN BOND
M  V30 1 2 1 2
M  V30 2 1 2 3
M  V30 3 1 2 4
M  V30 4 1 3 5
M  V30 5 1 3 6
M  V30 6 1 3 7
M  V30 7 1 4 8
M  V30 8 1 4 9
M  V30 9 1 4 10
M  V30 10 1 6 11
M  V30 11 1 5 8
M  V30 12 1 8 11
M  V30 END BOND
M  V30 END CTAB
M  END
>  <Molecule Name>
Fenchone

>  <Database>
Pubchem

>  <Reference DOI>
10.1016/j.isci.2019.07.008

>  <Molecular Target>
Aedes aegypti

>  <PubChem CID>
14525

>  <Smiles>
CC(C)(C1CC2(C)CC1)C2=O

>  <Molecular Formula>
C10H16O

>  <Activity>
1

$$$$
Compound 289
Actelion Java MolfileCreator 2.0

  0  0  0  0  0  0              0 V3000
M  V30 BEGIN CTAB
M  V30 COUNTS 11 10 0 0 0
M  V30 BEGIN ATOM
M  V30 1 O 0.0 0.0 0.0 0
M  V30 2 C 1.2767 -0.65 0.0 0
M  V30 3 C 2.5535 0.2785 0.0 0
M  V30 4 C 3.8303 -0.3714 0.0 0
M  V30 5 C 5.1071 0.5571 0.0 0
M  V30 6 C 3.7375 -1.8455 0.0 0
M  V30 7 C 6.3839 -0.0928 0.0 0
M  V30 8 C 7.6607 0.8357 0.0 0
M  V30 9 C 8.9375 0.1857 0.0 0
M  V30 10 C 10.2143 1.1142 0.0 0
M  V30 11 C 8.8447 -1.2884 0.0 0
M  V30 END ATOM
M  V30 BEGIN BOND
M  V30 1 2 1 2
M  V30 2 1 2 3
M  V30 3 2 3 4
M  V30 4 1 4 5
M  V30 5 1 4 6
M  V30 6 1 5 7
M  V30 7 1 7 8
M  V30 8 2 8 9
M  V30 9 1 9 10
M  V30 10 1 9 11
M  V30 END BOND
M  V30 END CTAB
M  END
>  <Molecule Name>
Citral

>  <Database>
Pubchem

>  <Reference DOI>
10.1186/s13071-017-2122-8

>  <Molecular Target>
Anopheles spp.

>  <PubChem CID>
638011

>  <Smiles>
CC(C)=CCC/C(\C)=C/C=O

>  <Molecular Formula>
C10H16O

>  <Activity>
1

$$$$
Compound 290
Actelion Java MolfileCreator 2.0

  0  0  0  0  0  0              0 V3000
M  V30 BEGIN CTAB
M  V30 COUNTS 11 10 0 0 0
M  V30 BEGIN ATOM
M  V30 1 O 0.0 0.0 0.0 0
M  V30 2 C 1.2825 -0.6762 0.0 0
M  V30 3 C 2.565 0.2098 0.0 0
M  V30 4 C 3.8476 -0.4663 0.0 0
M  V30 5 C 5.1301 0.4197 0.0 0
M  V30 6 C 3.7776 -1.9471 0.0 0
M  V30 7 C 6.4127 -0.2565 0.0 0
M  V30 8 C 7.6952 0.6296 0.0 0
M  V30 9 C 8.9778 -0.0466 0.0 0
M  V30 10 C 10.2603 0.8394 0.0 0
M  V30 11 C 8.9078 -1.5273 0.0 0
M  V30 END ATOM
M  V30 BEGIN BOND
M  V30 1 1 1 2
M  V30 2 1 2 3
M  V30 3 2 3 4
M  V30 4 1 4 5
M  V30 5 1 4 6
M  V30 6 1 5 7
M  V30 7 1 7 8
M  V30 8 2 8 9
M  V30 9 1 9 10
M  V30 10 1 9 11
M  V30 END BOND
M  V30 END CTAB
M  END
>  <Molecule Name>
Geraniol

>  <Database>
Pubchem

>  <Reference DOI>
10.1111/j.1948-7134.2009.00002.x

>  <Molecular Target>
Aedes aegypti

>  <PubChem CID>
637566

>  <Smiles>
CC(C)=CCC/C(\C)=C/CO

>  <Molecular Formula>
C10H18O

>  <Activity>
1

$$$$
Compound 291
Actelion Java MolfileCreator 2.0

  0  0  0  0  0  0              0 V3000
M  V30 BEGIN CTAB
M  V30 COUNTS 9 8 0 0 0
M  V30 BEGIN ATOM
M  V30 1 O 0.0 0.0 0.0 0
M  V30 2 C -0.0625 1.5877 0.0 0
M  V30 3 C 1.1876 2.3878 0.0 0
M  V30 4 C -1.4377 2.3878 0.0 0
M  V30 5 C 2.4378 1.6502 0.0 0
M  V30 6 C 3.688 2.4503 0.0 0
M  V30 7 C 4.9382 1.7127 0.0 0
M  V30 8 C 6.1883 2.5128 0.0 0
M  V30 9 C 4.8756 0.25 0.0 0
M  V30 END ATOM
M  V30 BEGIN BOND
M  V30 1 2 1 2
M  V30 2 1 2 3
M  V30 3 1 2 4
M  V30 4 1 3 5
M  V30 5 1 5 6
M  V30 6 2 6 7
M  V30 7 1 7 8
M  V30 8 1 7 9
M  V30 END BOND
M  V30 END CTAB
M  END
>  <Molecule Name>
6-methylhept-5-en-2-one

>  <Database>
Pubchem

>  <Reference DOI>
10.1021/acs.jafc.2c05537

>  <Molecular Target>
Aedes albopictus

>  <PubChem CID>
9862

>  <Smiles>
CC(C)=CCCC(C)=O

>  <Molecular Formula>
C8H14O

>  <Activity>
1

$$$$
Compound 292
Actelion Java MolfileCreator 2.0

  0  0  0  0  0  0              0 V3000
M  V30 BEGIN CTAB
M  V30 COUNTS 4 3 0 0 0
M  V30 BEGIN ATOM
M  V30 1 O 0.0 0.0 0.0 0
M  V30 2 C -1.3442 -0.6721 0.0 0
M  V30 3 C -2.6884 0.1456 0.0 0
M  V30 4 C -1.4002 -2.0947 0.0 0
M  V30 END ATOM
M  V30 BEGIN BOND
M  V30 1 2 1 2
M  V30 2 1 2 3
M  V30 3 1 2 4
M  V30 END BOND
M  V30 END CTAB
M  END
>  <Molecule Name>
propan-2-one

>  <Database>
Pubchem

>  <Reference DOI>
10.1021/acs.jafc.2c05537

>  <Molecular Target>
Aedes albopictus

>  <PubChem CID>
180

>  <Smiles>
CC(C)=O

>  <Molecular Formula>
C3H6O

>  <Activity>
1

$$$$
Compound 293
Actelion Java MolfileCreator 2.0

  0  0  0  0  0  0              0 V3000
M  V30 BEGIN CTAB
M  V30 COUNTS 15 15 0 0 0
M  V30 BEGIN ATOM
M  V30 1 O 0.0 0.0 0.0 0
M  V30 2 C -0.0241 1.5366 0.0 0 CFG=2
M  V30 3 C -1.3551 2.2989 0.0 0
M  V30 4 C 1.2583 2.2989 0.0 0
M  V30 5 C -1.3793 3.8355 0.0 0
M  V30 6 C -2.6861 1.5608 0.0 0
M  V30 7 C 2.5409 1.5608 0.0 0
M  V30 8 C 3.8234 2.3352 0.0 0
M  V30 9 C 2.5167 0.0725 0.0 0
M  V30 10 C 5.106 1.585 0.0 0
M  V30 11 C 3.7992 -0.6654 0.0 0
M  V30 12 C 5.0818 0.0967 0.0 0
M  V30 13 C 6.3643 -0.6533 0.0 0
M  V30 14 C 6.3401 -2.1416 0.0 0
M  V30 15 C 7.6469 0.1088 0.0 0
M  V30 END ATOM
M  V30 BEGIN BOND
M  V30 1 1 2 1 CFG=3
M  V30 2 1 2 3
M  V30 3 1 2 4
M  V30 4 1 3 5
M  V30 5 1 3 6
M  V30 6 1 4 7
M  V30 7 2 7 8
M  V30 8 1 7 9
M  V30 9 1 8 10
M  V30 10 2 9 11
M  V30 11 2 10 12
M  V30 12 1 12 13
M  V30 13 1 13 14
M  V30 14 1 13 15
M  V30 15 1 11 12
M  V30 END BOND
M  V30 BEGIN COLLECTION
M  V30 MDLV30/STERAC1 ATOMS=(1 2)
M  V30 END COLLECTION
M  V30 END CTAB
M  END
>  <Molecule Name>
1-(p-iso-Propylphenyl)-3-methyl-2-butanol

>  <Database>
PubChem

>  <Reference DOI>
10.3390/toxics11100837

>  <Molecular Target>
Aedes aegypti

>  <PubChem CID>
62605933

>  <Smiles>
CC(C)C(Cc1ccc(C(C)C)cc1)O

>  <Molecular Formula>
C14H22O

>  <Activity>
1

$$$$
Compound 294
Actelion Java MolfileCreator 2.0

  0  0  0  0  0  0              0 V3000
M  V30 BEGIN CTAB
M  V30 COUNTS 10 9 0 0 0
M  V30 BEGIN ATOM
M  V30 1 O 0.0 0.0 0.0 0
M  V30 2 C -0.024 1.5249 0.0 0
M  V30 3 C 1.2487 2.2934 0.0 0
M  V30 4 C -1.3448 2.2934 0.0 0
M  V30 5 C 2.5215 1.5489 0.0 0
M  V30 6 C -2.6656 1.5489 0.0 0
M  V30 7 C 3.7943 2.3174 0.0 0
M  V30 8 C 2.4975 0.072 0.0 0
M  V30 9 C -3.9865 2.3174 0.0 0
M  V30 10 C -2.6896 0.072 0.0 0
M  V30 END ATOM
M  V30 BEGIN BOND
M  V30 1 2 1 2
M  V30 2 1 2 3
M  V30 3 1 2 4
M  V30 4 1 3 5
M  V30 5 1 4 6
M  V30 6 1 5 7
M  V30 7 1 5 8
M  V30 8 1 6 9
M  V30 9 1 6 10
M  V30 END BOND
M  V30 END CTAB
M  END
>  <Molecule Name>
2,6-dimethylheptan-4-one

>  <Database>
Pubchem

>  <Reference DOI>
10.1371/annotation/1dc83f26-8045-4b63-8a86-24c7b71a7f79

>  <Molecular Target>
Aedes aegypti

>  <PubChem CID>
7958

>  <Smiles>
CC(C)CC(CC(C)C)=O

>  <Molecular Formula>
C9H18O

>  <Activity>
1

$$$$
Compound 295
Actelion Java MolfileCreator 2.0

  0  0  0  0  0  0              0 V3000
M  V30 BEGIN CTAB
M  V30 COUNTS 12 12 0 0 0
M  V30 BEGIN ATOM
M  V30 1 O 0.0 0.0 0.0 0
M  V30 2 C -0.024 -1.4819 0.0 0 CFG=2
M  V30 3 C 1.253 -2.229 0.0 0
M  V30 4 C -1.3494 -2.229 0.0 0
M  V30 5 C 1.2289 -3.7109 0.0 0
M  V30 6 C 2.5302 -1.4458 0.0 0
M  V30 7 C -2.6748 -1.4458 0.0 0
M  V30 8 C 2.5061 -4.458 0.0 0
M  V30 9 C 3.8073 -2.1928 0.0 0
M  V30 10 C -2.6989 0.0843 0.0 0
M  V30 11 C -4.0001 -2.1928 0.0 0
M  V30 12 C 3.7832 -3.6868 0.0 0
M  V30 END ATOM
M  V30 BEGIN BOND
M  V30 1 1 2 1 CFG=3
M  V30 2 1 2 3
M  V30 3 1 2 4
M  V30 4 2 3 5
M  V30 5 1 3 6
M  V30 6 1 4 7
M  V30 7 1 5 8
M  V30 8 2 6 9
M  V30 9 1 7 10
M  V30 10 1 7 11
M  V30 11 2 8 12
M  V30 12 1 9 12
M  V30 END BOND
M  V30 BEGIN COLLECTION
M  V30 MDLV30/STERAC1 ATOMS=(1 2)
M  V30 END COLLECTION
M  V30 END CTAB
M  END
>  <Molecule Name>
Phenyl isobutyl carbinol

>  <Database>
PubChem

>  <Reference DOI>
10.3390/toxics11100837

>  <Molecular Target>
Aedes aegypti

>  <PubChem CID>
12487504

>  <Smiles>
CC(C)CC(c1ccccc1)O

>  <Molecular Formula>
C11H16O

>  <Activity>
1

$$$$
Compound 296
Actelion Java MolfileCreator 2.0

  0  0  0  0  0  0              0 V3000
M  V30 BEGIN CTAB
M  V30 COUNTS 11 11 0 0 0
M  V30 BEGIN ATOM
M  V30 1 O 0.0 0.0 0.0 0
M  V30 2 C 1.2509 -0.7403 0.0 0
M  V30 3 C 2.5018 0.0765 0.0 0
M  V30 4 C 1.1743 -2.2082 0.0 0
M  V30 5 C 3.7527 -0.6637 0.0 0
M  V30 6 C 2.4252 1.6976 0.0 0
M  V30 7 C 2.4252 -2.9486 0.0 0
M  V30 8 C 3.6761 -2.1316 0.0 0
M  V30 9 C 3.6761 2.5146 0.0 0
M  V30 10 C 1.0211 2.5146 0.0 0
M  V30 11 C 2.3486 -4.4165 0.0 0
M  V30 END ATOM
M  V30 BEGIN BOND
M  V30 1 1 1 2
M  V30 2 2 2 3
M  V30 3 1 2 4
M  V30 4 1 3 5
M  V30 5 1 3 6
M  V30 6 2 4 7
M  V30 7 2 5 8
M  V30 8 1 6 9
M  V30 9 1 6 10
M  V30 10 1 7 11
M  V30 11 1 7 8
M  V30 END BOND
M  V30 END CTAB
M  END
>  <Molecule Name>
Thymol

>  <Database>
Pubchem

>  <Reference DOI>
10.3390/insects14100790

>  <Molecular Target>
Solenopsis invicta Buren); S. richteri Forel; S. invicta; S. richteri

>  <PubChem CID>
6989

>  <Smiles>
CC(C)c(ccc(C)c1)c1O

>  <Molecular Formula>
C10H14O

>  <Activity>
1

$$$$
Compound 297
Actelion Java MolfileCreator 2.0

  0  0  0  0  0  0              0 V3000
M  V30 BEGIN CTAB
M  V30 COUNTS 11 11 0 0 0
M  V30 BEGIN ATOM
M  V30 1 O 0.0 0.0 0.0 0
M  V30 2 C 1.2385 0.7802 0.0 0
M  V30 3 C 2.477 0.0495 0.0 0
M  V30 4 C 1.1765 2.3531 0.0 0
M  V30 5 C 3.7155 0.8421 0.0 0
M  V30 6 C 2.415 -1.3995 0.0 0
M  V30 7 C 2.415 3.1458 0.0 0
M  V30 8 C 3.6535 2.415 0.0 0
M  V30 9 C 2.3531 4.7187 0.0 0
M  V30 10 C 3.5916 5.5113 0.0 0
M  V30 11 C 0.9908 5.5113 0.0 0
M  V30 END ATOM
M  V30 BEGIN BOND
M  V30 1 1 1 2
M  V30 2 2 2 3
M  V30 3 1 2 4
M  V30 4 1 3 5
M  V30 5 1 3 6
M  V30 6 2 4 7
M  V30 7 2 5 8
M  V30 8 1 7 9
M  V30 9 1 9 10
M  V30 10 1 9 11
M  V30 11 1 7 8
M  V30 END BOND
M  V30 END CTAB
M  END
>  <Molecule Name>
Carvacrol

>  <Database>
Pubchem

>  <Reference DOI>
10.3390/insects14100790

>  <Molecular Target>
Solenopsis invicta Buren); S. richteri Forel; S. invicta; S. richteri

>  <PubChem CID>
10364

>  <Smiles>
CC(C)c1cc(O)c(C)cc1

>  <Molecular Formula>
C10H14O

>  <Activity>
1

$$$$
Compound 298
Actelion Java MolfileCreator 2.0

  0  0  0  0  0  0              0 V3000
M  V30 BEGIN CTAB
M  V30 COUNTS 12 12 0 0 0
M  V30 BEGIN ATOM
M  V30 1 O 0.0 0.0 0.0 0
M  V30 2 C 1.2741 0.7572 0.0 0
M  V30 3 C -1.3222 0.7572 0.0 0
M  V30 4 C 2.5483 0.012 0.0 0
M  V30 5 C 1.2501 2.2838 0.0 0
M  V30 6 C 3.8225 0.7693 0.0 0
M  V30 7 C 2.5242 -1.4664 0.0 0
M  V30 8 C 2.5242 3.0531 0.0 0
M  V30 9 C 3.7984 2.2959 0.0 0
M  V30 10 C 2.5002 4.5797 0.0 0
M  V30 11 C 3.7744 5.337 0.0 0
M  V30 12 C 1.178 5.337 0.0 0
M  V30 END ATOM
M  V30 BEGIN BOND
M  V30 1 1 1 2
M  V30 2 1 1 3
M  V30 3 2 2 4
M  V30 4 1 2 5
M  V30 5 1 4 6
M  V30 6 1 4 7
M  V30 7 2 5 8
M  V30 8 2 6 9
M  V30 9 1 8 10
M  V30 10 1 10 11
M  V30 11 1 10 12
M  V30 12 1 8 9
M  V30 END BOND
M  V30 END CTAB
M  END
>  <Molecule Name>
Carvacrol methyl ether

>  <Database>
Pubchem

>  <Reference DOI>
10.1186/s13071-017-2122-8

>  <Molecular Target>
Anopheles spp.

>  <PubChem CID>
80790

>  <Smiles>
CC(C)c1cc(OC)c(C)cc1

>  <Molecular Formula>
C11H16O

>  <Activity>
1

$$$$
Compound 299
Actelion Java MolfileCreator 2.0

  0  0  0  0  0  0              0 V3000
M  V30 BEGIN CTAB
M  V30 COUNTS 11 11 0 0 0
M  V30 BEGIN ATOM
M  V30 1 O 0.0 0.0 0.0 0
M  V30 2 C 1.2101 0.7623 0.0 0
M  V30 3 C 1.1495 2.2991 0.0 0
M  V30 4 C 2.3597 3.0615 0.0 0
M  V30 5 C -0.1815 3.0615 0.0 0
M  V30 6 C 2.2991 4.5983 0.0 0
M  V30 7 C -0.242 4.5983 0.0 0
M  V30 8 C 0.968 5.3728 0.0 0
M  V30 9 C 0.9075 6.9096 0.0 0
M  V30 10 C 2.1176 7.6841 0.0 0
M  V30 11 C -0.4235 7.6841 0.0 0
M  V30 END ATOM
M  V30 BEGIN BOND
M  V30 1 2 1 2
M  V30 2 1 2 3
M  V30 3 2 3 4
M  V30 4 1 3 5
M  V30 5 1 4 6
M  V30 6 2 5 7
M  V30 7 2 6 8
M  V30 8 1 8 9
M  V30 9 1 9 10
M  V30 10 1 9 11
M  V30 11 1 7 8
M  V30 END BOND
M  V30 END CTAB
M  END
>  <Molecule Name>
4-propan-2-ylbenzaldehyde

>  <Database>
Pubchem

>  <Reference DOI>
10.1021/acs.jafc.2c05537

>  <Molecular Target>
Aedes albopictus

>  <PubChem CID>
326

>  <Smiles>
CC(C)c1ccc(C=O)cc1

>  <Molecular Formula>
C10H12O

>  <Activity>
1

$$$$
Compound 300
Actelion Java MolfileCreator 2.0

  0  0  0  0  0  0              0 V3000
M  V30 BEGIN CTAB
M  V30 COUNTS 10 10 0 0 0
M  V30 BEGIN ATOM
M  V30 1 O 0.0 0.0 0.0 0
M  V30 2 C 1.2717 0.7678 0.0 0
M  V30 3 C 1.2477 2.2915 0.0 0
M  V30 4 C 2.5435 0.0239 0.0 0
M  V30 5 C 2.5195 3.0714 0.0 0
M  V30 6 C 3.8152 0.8038 0.0 0
M  V30 7 C 3.7912 2.3275 0.0 0
M  V30 8 C 2.4955 4.5951 0.0 0
M  V30 9 C 3.7672 5.3629 0.0 0
M  V30 10 C 1.1757 5.3629 0.0 0
M  V30 END ATOM
M  V30 BEGIN BOND
M  V30 1 1 1 2
M  V30 2 2 2 3
M  V30 3 1 2 4
M  V30 4 1 3 5
M  V30 5 2 4 6
M  V30 6 2 5 7
M  V30 7 1 5 8
M  V30 8 1 8 9
M  V30 9 1 8 10
M  V30 10 1 6 7
M  V30 END BOND
M  V30 END CTAB
M  END
>  <Molecule Name>
3-isopropilfenol

>  <Database>
Pubchem

>  <Reference DOI>
10.1186/s13071-017-2122-8

>  <Molecular Target>
Anopheles spp.

>  <PubChem CID>
12059

>  <Smiles>
CC(C)c1cccc(O)c1

>  <Molecular Formula>
C9H12O

>  <Activity>
1

$$$$
Compound 301
Actelion Java MolfileCreator 2.0

  0  0  0  0  0  0              0 V3000
M  V30 BEGIN CTAB
M  V30 COUNTS 11 11 0 0 0
M  V30 BEGIN ATOM
M  V30 1 O 0.0 0.0 0.0 0
M  V30 2 C -0.0232 -1.4739 0.0 0 CFG=2
M  V30 3 C -1.3462 -2.1818 0.0 0
M  V30 4 C 1.2534 -2.1818 0.0 0
M  V30 5 C -2.6693 -1.4042 0.0 0
M  V30 6 C -3.9923 -2.1122 0.0 0
M  V30 7 C -5.3154 -1.323 0.0 0
M  V30 8 C -4.0155 -3.5861 0.0 0
M  V30 9 C -6.6384 -2.0309 0.0 0
M  V30 10 C -5.3386 -4.2941 0.0 0
M  V30 11 C -6.6616 -3.5049 0.0 0
M  V30 END ATOM
M  V30 BEGIN BOND
M  V30 1 1 2 1 CFG=1
M  V30 2 1 2 3
M  V30 3 1 2 4
M  V30 4 2 3 5 CFG=2
M  V30 5 1 5 6
M  V30 6 2 6 7
M  V30 7 1 6 8
M  V30 8 1 7 9
M  V30 9 2 8 10
M  V30 10 2 9 11
M  V30 11 1 10 11
M  V30 END BOND
M  V30 BEGIN COLLECTION
M  V30 MDLV30/STERAC1 ATOMS=(1 2)
M  V30 END COLLECTION
M  V30 END CTAB
M  END
>  <Molecule Name>
Methylcinnamyl alcohol

>  <Database>
PubChem

>  <Reference DOI>
10.3390/toxics11100837

>  <Molecular Target>
Aedes aegypti

>  <PubChem CID>
15172

>  <Smiles>
CC(C=Cc1ccccc1)O

>  <Molecular Formula>
C10H12O

>  <Activity>
1

$$$$
Compound 302
Actelion Java MolfileCreator 2.0

  0  0  0  0  0  0              0 V3000
M  V30 BEGIN CTAB
M  V30 COUNTS 10 9 0 0 0
M  V30 BEGIN ATOM
M  V30 1 O 0.0 0.0 0.0 0
M  V30 2 C -1.3202 -0.7064 0.0 0
M  V30 3 C -2.6405 0.0579 0.0 0
M  V30 4 C -3.9608 -0.6485 0.0 0
M  V30 5 C -5.2811 0.1158 0.0 0
M  V30 6 C -3.984 -2.1194 0.0 0
M  V30 7 C -6.6014 -0.5906 0.0 0
M  V30 8 C -7.9216 -1.2971 0.0 0
M  V30 9 C -7.3773 0.7296 0.0 0
M  V30 10 C -5.8949 -1.8646 0.0 0
M  V30 END ATOM
M  V30 BEGIN BOND
M  V30 1 2 1 2
M  V30 2 1 2 3
M  V30 3 1 3 4
M  V30 4 1 4 5
M  V30 5 1 4 6
M  V30 6 1 5 7
M  V30 7 1 7 8
M  V30 8 1 7 9
M  V30 9 1 7 10
M  V30 END BOND
M  V30 END CTAB
M  END
>  <Molecule Name>
3,5,5-trimethylhexanal

>  <Database>
Pubchem

>  <Reference DOI>
10.1371/annotation/1dc83f26-8045-4b63-8a86-24c7b71a7f79

>  <Molecular Target>
Aedes aegypti

>  <PubChem CID>
21574

>  <Smiles>
CC(CC(C)(C)C)CC=O

>  <Molecular Formula>
C9H18O

>  <Activity>
1

$$$$
Compound 303
Actelion Java MolfileCreator 2.0

  0  0  0  0  0  0              0 V3000
M  V30 BEGIN CTAB
M  V30 COUNTS 10 9 0 0 0
M  V30 BEGIN ATOM
M  V30 1 O 0.0 0.0 0.0 0
M  V30 2 C -1.3444 -0.6498 0.0 0
M  V30 3 C -2.6889 0.1568 0.0 0
M  V30 4 C -4.0334 -0.4929 0.0 0 CFG=2
M  V30 5 C -5.3779 0.3137 0.0 0
M  V30 6 C -4.0894 -1.9158 0.0 0
M  V30 7 C -6.7224 -0.3361 0.0 0
M  V30 8 C -8.0668 -0.9859 0.0 0
M  V30 9 C -7.5403 1.0083 0.0 0
M  V30 10 C -6.0725 -1.5685 0.0 0
M  V30 END ATOM
M  V30 BEGIN BOND
M  V30 1 2 1 2
M  V30 2 1 2 3
M  V30 3 1 3 4
M  V30 4 1 4 5
M  V30 5 1 4 6 CFG=1
M  V30 6 1 5 7
M  V30 7 1 7 8
M  V30 8 1 7 9
M  V30 9 1 7 10
M  V30 END BOND
M  V30 BEGIN COLLECTION
M  V30 MDLV30/STERAC1 ATOMS=(1 4)
M  V30 END COLLECTION
M  V30 END CTAB
M  END
>  <Molecule Name>
3,5,5-trimethylhexanal

>  <Database>
Pubchem

>  <Reference DOI>
10.1021/acs.jafc.2c05537

>  <Molecular Target>
Aedes albopictus

>  <PubChem CID>
21574

>  <Smiles>
CC(CC(C)(C)C)CC=O

>  <Molecular Formula>
C9H18O

>  <Activity>
1

$$$$
Compound 304
Actelion Java MolfileCreator 2.0

  0  0  0  0  0  0              0 V3000
M  V30 BEGIN CTAB
M  V30 COUNTS 12 12 0 0 0
M  V30 BEGIN ATOM
M  V30 1 O 0.0 0.0 0.0 0
M  V30 2 C -0.0626 -1.4656 0.0 0
M  V30 3 C -0.1252 -2.9312 0.0 0
M  V30 4 C 1.403 -1.403 0.0 0
M  V30 5 C -1.6535 -1.403 0.0 0
M  V30 6 C -1.5032 -3.6578 0.0 0
M  V30 7 C 1.1274 -3.6578 0.0 0
M  V30 8 C -1.5658 -5.1234 0.0 0
M  V30 9 C -2.8811 -2.8561 0.0 0
M  V30 10 C 1.0647 -5.1234 0.0 0
M  V30 11 C -0.3131 -5.85 0.0 0
M  V30 12 C -0.3758 -7.3156 0.0 0
M  V30 END ATOM
M  V30 BEGIN BOND
M  V30 1 1 1 2
M  V30 2 1 2 3
M  V30 3 1 2 4
M  V30 4 1 2 5
M  V30 5 1 3 6
M  V30 6 1 3 7
M  V30 7 1 6 8
M  V30 8 1 6 9
M  V30 9 1 7 10
M  V30 10 1 8 11
M  V30 11 1 11 12
M  V30 12 1 10 11
M  V30 END BOND
M  V30 END CTAB
M  END
>  <Molecule Name>
2-(2,4-dimethylcyclohexyl)propan-2-ol

>  <Database>
Pubchem

>  <Reference DOI>
10.1021/acs.jafc.2c05537

>  <Molecular Target>
Aedes albopictus

>  <PubChem CID>
67477161

>  <Smiles>
CC(CC1)CC(C)C1C(C)(C)O

>  <Molecular Formula>
C11H22O

>  <Activity>
1

$$$$
Compound 305
Actelion Java MolfileCreator 2.0

  0  0  0  0  0  0              0 V3000
M  V30 BEGIN CTAB
M  V30 COUNTS 11 10 0 0 0
M  V30 BEGIN ATOM
M  V30 1 O 0.0 0.0 0.0 0
M  V30 2 C 1.2602 0.8592 0.0 0 CFG=2
M  V30 3 C 0.401 2.257 0.0 0
M  V30 4 C 2.5205 1.7185 0.0 0
M  V30 5 C 1.9133 -0.401 0.0 0
M  V30 6 C 1.054 3.6548 0.0 0
M  V30 7 C 3.7808 1.0655 0.0 0
M  V30 8 C 5.0411 1.9248 0.0 0
M  V30 9 C 6.3014 1.2717 0.0 0
M  V30 10 C 7.5617 2.131 0.0 0
M  V30 11 C 6.2326 -0.1833 0.0 0
M  V30 END ATOM
M  V30 BEGIN BOND
M  V30 1 1 2 1 CFG=3
M  V30 2 1 2 3
M  V30 3 1 2 4
M  V30 4 1 2 5
M  V30 5 2 3 6
M  V30 6 1 4 7
M  V30 7 1 7 8
M  V30 8 2 8 9
M  V30 9 1 9 10
M  V30 10 1 9 11
M  V30 END BOND
M  V30 BEGIN COLLECTION
M  V30 MDLV30/STERAC1 ATOMS=(1 2)
M  V30 END COLLECTION
M  V30 END CTAB
M  END
>  <Molecule Name>
Linalool

>  <Database>
Pubchem

>  <Reference DOI>
10.1111/j.1948-7134.2009.00002.x

>  <Molecular Target>
Aedes aegypti

>  <PubChem CID>
6549

>  <Smiles>
CC(CCC=C(C)C)(C=C)O

>  <Molecular Formula>
C10H18O

>  <Activity>
1

$$$$
Compound 306
Actelion Java MolfileCreator 2.0

  0  0  0  0  0  0              0 V3000
M  V30 BEGIN CTAB
M  V30 COUNTS 11 10 0 0 0
M  V30 BEGIN ATOM
M  V30 1 O 0.0 0.0 0.0 0
M  V30 2 C 1.2879 0.7844 0.0 0
M  V30 3 C 0.5034 2.1193 0.0 0
M  V30 4 C 2.5759 1.5689 0.0 0
M  V30 5 C 2.0022 -0.5034 0.0 0
M  V30 6 C 1.2177 3.4541 0.0 0
M  V30 7 C 3.8639 0.8547 0.0 0
M  V30 8 C 5.1519 1.6392 0.0 0
M  V30 9 C 6.4398 0.925 0.0 0
M  V30 10 C 7.7278 1.7094 0.0 0
M  V30 11 C 6.4164 -0.562 0.0 0
M  V30 END ATOM
M  V30 BEGIN BOND
M  V30 1 1 1 2
M  V30 2 1 2 3
M  V30 3 1 2 4
M  V30 4 1 2 5
M  V30 5 2 3 6
M  V30 6 1 4 7
M  V30 7 1 7 8
M  V30 8 2 8 9
M  V30 9 1 9 10
M  V30 10 1 9 11
M  V30 END BOND
M  V30 END CTAB
M  END
>  <Molecule Name>
Linalool

>  <Database>
Pubchem

>  <Reference DOI>
10.1186/s13071-017-2122-8

>  <Molecular Target>
Anopheles spp.

>  <PubChem CID>
6549

>  <Smiles>
CC(CCC=C(C)C)(C=C)O

>  <Molecular Formula>
C10H18O

>  <Activity>
1

$$$$
Compound 307
Actelion Java MolfileCreator 2.0

  0  0  0  0  0  0              0 V3000
M  V30 BEGIN CTAB
M  V30 COUNTS 11 10 0 0 0
M  V30 BEGIN ATOM
M  V30 1 O 0.0 0.0 0.0 0
M  V30 2 C 1.2859 -0.678 0.0 0
M  V30 3 C 2.5718 0.187 0.0 0
M  V30 4 C 3.8577 -0.4909 0.0 0 CFG=2
M  V30 5 C 5.1437 0.374 0.0 0
M  V30 6 C 3.7876 -1.9756 0.0 0
M  V30 7 C 6.4296 -0.3039 0.0 0
M  V30 8 C 7.7155 0.5728 0.0 0
M  V30 9 C 9.0014 -0.1052 0.0 0
M  V30 10 C 10.2874 0.7715 0.0 0
M  V30 11 C 8.9313 -1.5898 0.0 0
M  V30 END ATOM
M  V30 BEGIN BOND
M  V30 1 2 1 2
M  V30 2 1 2 3
M  V30 3 1 3 4
M  V30 4 1 4 5
M  V30 5 1 4 6 CFG=3
M  V30 6 1 5 7
M  V30 7 1 7 8
M  V30 8 2 8 9
M  V30 9 1 9 10
M  V30 10 1 9 11
M  V30 END BOND
M  V30 BEGIN COLLECTION
M  V30 MDLV30/STERAC1 ATOMS=(1 4)
M  V30 END COLLECTION
M  V30 END CTAB
M  END
>  <Molecule Name>
Citronellal
Citronella

>  <Database>
Pubchem

>  <Reference DOI>
10.1111/j.1948-7134.2009.00002.x

>  <Molecular Target>
Aedes aegypti

>  <PubChem CID>
7794

>  <Smiles>
CC(CCC=C(C)C)CC=O

>  <Molecular Formula>
C10H18O

>  <Activity>
1

$$$$
Compound 308
Actelion Java MolfileCreator 2.0

  0  0  0  0  0  0              0 V3000
M  V30 BEGIN CTAB
M  V30 COUNTS 11 10 0 0 0
M  V30 BEGIN ATOM
M  V30 1 O 0.0 0.0 0.0 0
M  V30 2 C -1.3128 0.7519 0.0 0
M  V30 3 C -2.6257 0.0835 0.0 0
M  V30 4 C -3.9385 0.8473 0.0 0 CFG=2
M  V30 5 C -5.2514 0.179 0.0 0
M  V30 6 C -4.034 2.3631 0.0 0
M  V30 7 C -6.5643 0.9428 0.0 0
M  V30 8 C -7.8771 0.2745 0.0 0
M  V30 9 C -9.19 1.0383 0.0 0
M  V30 10 C -10.5029 0.3699 0.0 0
M  V30 11 C -9.2855 2.5541 0.0 0
M  V30 END ATOM
M  V30 BEGIN BOND
M  V30 1 1 1 2
M  V30 2 1 2 3
M  V30 3 1 3 4
M  V30 4 1 4 5
M  V30 5 1 4 6 CFG=3
M  V30 6 1 5 7
M  V30 7 1 7 8
M  V30 8 2 8 9
M  V30 9 1 9 10
M  V30 10 1 9 11
M  V30 END BOND
M  V30 BEGIN COLLECTION
M  V30 MDLV30/STERAC1 ATOMS=(1 4)
M  V30 END COLLECTION
M  V30 END CTAB
M  END
>  <Molecule Name>
Citronellol

>  <Database>
Pubchem

>  <Reference DOI>
10.1186/s13071-017-2122-8

>  <Molecular Target>
Anopheles spp.

>  <PubChem CID>
8842

>  <Smiles>
CC(CCC=C(C)C)CCO

>  <Molecular Formula>
C10H20O

>  <Activity>
1

$$$$
Compound 309
Actelion Java MolfileCreator 2.0

  0  0  0  0  0  0              0 V3000
M  V30 BEGIN CTAB
M  V30 COUNTS 16 15 0 0 0
M  V30 BEGIN ATOM
M  V30 1 O 0.0 0.0 0.0 0
M  V30 2 C 1.2689 0.8651 0.0 0 CFG=2
M  V30 3 C 0.4037 2.2725 0.0 0
M  V30 4 C 2.5379 1.7303 0.0 0
M  V30 5 C 1.9265 -0.4037 0.0 0
M  V30 6 C 1.0613 3.6799 0.0 0
M  V30 7 C 3.8068 1.0728 0.0 0
M  V30 8 C 5.0758 1.938 0.0 0
M  V30 9 C 6.3447 1.2804 0.0 0
M  V30 10 C 7.6137 2.1456 0.0 0
M  V30 11 C 6.2755 -0.1845 0.0 0
M  V30 12 C 8.8827 1.4881 0.0 0
M  V30 13 C 10.1516 2.3533 0.0 0
M  V30 14 C 11.4206 1.6957 0.0 0
M  V30 15 C 12.6895 2.5609 0.0 0
M  V30 16 C 11.3514 0.2307 0.0 0
M  V30 END ATOM
M  V30 BEGIN BOND
M  V30 1 1 2 1 CFG=3
M  V30 2 1 2 3
M  V30 3 1 2 4
M  V30 4 1 2 5
M  V30 5 2 3 6
M  V30 6 1 4 7
M  V30 7 1 7 8
M  V30 8 2 8 9 CFG=2
M  V30 9 1 9 10
M  V30 10 1 9 11
M  V30 11 1 10 12
M  V30 12 1 12 13
M  V30 13 2 13 14
M  V30 14 1 14 15
M  V30 15 1 14 16
M  V30 END BOND
M  V30 BEGIN COLLECTION
M  V30 MDLV30/STERAC1 ATOMS=(1 2)
M  V30 END COLLECTION
M  V30 END CTAB
M  END
>  <Molecule Name>
Nerolidol

>  <Database>
Pubchem

>  <Reference DOI>
10.1038/s41598-022-24923-x

>  <Molecular Target>
Aedes aegypti

>  <PubChem CID>
5284507

>  <Smiles>
CC(CCC=C(C)CCC=C(C)C)(C=C)O

>  <Molecular Formula>
C15H26O

>  <Activity>
1

$$$$
Compound 310
Actelion Java MolfileCreator 2.0

  0  0  0  0  0  0              0 V3000
M  V30 BEGIN CTAB
M  V30 COUNTS 13 13 0 0 0
M  V30 BEGIN ATOM
M  V30 1 O 0.0 0.0 0.0 0
M  V30 2 C 1.2869 0.7648 0.0 0
M  V30 3 C 2.5738 0.0121 0.0 0
M  V30 4 C 1.2626 2.3067 0.0 0
M  V30 5 C 3.8607 0.7891 0.0 0
M  V30 6 C 5.1477 0.0364 0.0 0
M  V30 7 C 6.4346 0.8134 0.0 0
M  V30 8 C 7.7215 0.0607 0.0 0
M  V30 9 C 7.6972 -1.4326 0.0 0
M  V30 10 C 9.0085 0.8377 0.0 0
M  V30 11 C 8.9842 -2.1853 0.0 0
M  V30 12 C 10.2954 0.0971 0.0 0
M  V30 13 C 10.2711 -1.4083 0.0 0
M  V30 END ATOM
M  V30 BEGIN BOND
M  V30 1 2 1 2
M  V30 2 1 2 3
M  V30 3 1 2 4
M  V30 4 1 3 5
M  V30 5 1 5 6
M  V30 6 2 6 7 CFG=2
M  V30 7 1 7 8
M  V30 8 2 8 9
M  V30 9 1 8 10
M  V30 10 1 9 11
M  V30 11 2 10 12
M  V30 12 2 11 13
M  V30 13 1 12 13
M  V30 END BOND
M  V30 END CTAB
M  END
>  <Molecule Name>
1-Phenyl-1-hexene-5-one

>  <Database>
PubChem

>  <Reference DOI>
10.3390/toxics11100837

>  <Molecular Target>
Aedes aegypti

>  <PubChem CID>
53812467

>  <Smiles>
CC(CCC=Cc1ccccc1)=O

>  <Molecular Formula>
C12H14O

>  <Activity>
1

$$$$
Compound 311
Actelion Java MolfileCreator 2.0

  0  0  0  0  0  0              0 V3000
M  V30 BEGIN CTAB
M  V30 COUNTS 12 12 0 0 0
M  V30 BEGIN ATOM
M  V30 1 O 0.0 0.0 0.0 0
M  V30 2 C 1.2824 0.7621 0.0 0
M  V30 3 C 2.5648 0.0241 0.0 0
M  V30 4 C 1.2582 2.2986 0.0 0
M  V30 5 C 3.8472 0.7984 0.0 0
M  V30 6 C 5.1296 0.0604 0.0 0
M  V30 7 C 6.412 0.8347 0.0 0
M  V30 8 C 7.6944 0.0967 0.0 0
M  V30 9 C 6.3878 2.3712 0.0 0
M  V30 10 C 8.9768 0.871 0.0 0
M  V30 11 C 7.6702 3.1334 0.0 0
M  V30 12 C 8.9526 2.4075 0.0 0
M  V30 END ATOM
M  V30 BEGIN BOND
M  V30 1 2 1 2
M  V30 2 1 2 3
M  V30 3 1 2 4
M  V30 4 1 3 5
M  V30 5 1 5 6
M  V30 6 1 6 7
M  V30 7 2 7 8
M  V30 8 1 7 9
M  V30 9 1 8 10
M  V30 10 2 9 11
M  V30 11 2 10 12
M  V30 12 1 11 12
M  V30 END BOND
M  V30 END CTAB
M  END
>  <Molecule Name>
1-Phenyl-4-pentanone

>  <Database>
PubChem

>  <Reference DOI>
10.3390/toxics11100837

>  <Molecular Target>
Aedes aegypti

>  <PubChem CID>
16701

>  <Smiles>
CC(CCCc1ccccc1)=O

>  <Molecular Formula>
C11H14O

>  <Activity>
1

$$$$
Compound 312
Actelion Java MolfileCreator 2.0

  0  0  0  0  0  0              0 V3000
M  V30 BEGIN CTAB
M  V30 COUNTS 11 11 0 0 0
M  V30 BEGIN ATOM
M  V30 1 O 0.0 0.0 0.0 0
M  V30 2 C 1.2771 -0.6966 0.0 0
M  V30 3 C 1.2191 -2.1711 0.0 0
M  V30 4 C 2.5543 0.1509 0.0 0
M  V30 5 C -0.1741 -2.8794 0.0 0
M  V30 6 C -0.2322 -4.3539 0.0 0
M  V30 7 C -1.6254 -5.0622 0.0 0
M  V30 8 C 1.0449 -5.0622 0.0 0
M  V30 9 C -1.6835 -6.5367 0.0 0
M  V30 10 C 0.9868 -6.5367 0.0 0
M  V30 11 C -0.4063 -7.2449 0.0 0
M  V30 END ATOM
M  V30 BEGIN BOND
M  V30 1 2 1 2
M  V30 2 1 2 3
M  V30 3 1 2 4
M  V30 4 1 3 5
M  V30 5 1 5 6
M  V30 6 2 6 7
M  V30 7 1 6 8
M  V30 8 1 7 9
M  V30 9 2 8 10
M  V30 10 2 9 11
M  V30 11 1 10 11
M  V30 END BOND
M  V30 END CTAB
M  END
>  <Molecule Name>
4-phenylbutan-2-one

>  <Database>
Pubchem

>  <Reference DOI>
10.1021/acs.jafc.2c05537

>  <Molecular Target>
Aedes albopictus

>  <PubChem CID>
17355

>  <Smiles>
CC(CCc1ccccc1)=O

>  <Molecular Formula>
C10H12O

>  <Activity>
1

$$$$
Compound 313
Actelion Java MolfileCreator 2.0

  0  0  0  0  0  0              0 V3000
M  V30 BEGIN CTAB
M  V30 COUNTS 11 12 0 0 0
M  V30 BEGIN ATOM
M  V30 1 O 0.0 0.0 0.0 0
M  V30 2 C 1.0315 -1.9264 0.0 0
M  V30 3 C 0.8039 0.6522 0.0 0
M  V30 4 C -0.6674 -2.427 0.0 0
M  V30 5 C 2.5181 -2.3512 0.0 0
M  V30 6 C 0.6371 -2.958 0.0 0
M  V30 7 C 1.077 -0.7736 0.0 0
M  V30 8 C 0.4095 1.9264 0.0 0
M  V30 9 C 1.4259 1.5169 0.0 0
M  V30 10 C -1.1528 -1.1832 0.0 0
M  V30 11 C 2.6697 -1.077 0.0 0
M  V30 END ATOM
M  V30 BEGIN BOND
M  V30 1 1 1 2
M  V30 2 1 1 3
M  V30 3 1 2 4
M  V30 4 1 2 5
M  V30 5 1 2 6
M  V30 6 1 3 7
M  V30 7 1 3 8
M  V30 8 1 3 9
M  V30 9 1 4 10
M  V30 10 1 5 11
M  V30 11 1 7 10
M  V30 12 1 7 11
M  V30 END BOND
M  V30 END CTAB
M  END
>  <Molecule Name>
Eucalyptol

>  <Database>
Pubchem

>  <Reference DOI>
10.1016/j.isci.2019.07.008

>  <Molecular Target>
Aedes aegypti

>  <PubChem CID>
2758

>  <Smiles>
CC1(C)OC2(C)CCC1CC2

>  <Molecular Formula>
C10H18O

>  <Activity>
1

$$$$
Compound 314
Actelion Java MolfileCreator 2.0

  0  0  0  0  0  0              0 V3000
M  V30 BEGIN CTAB
M  V30 COUNTS 11 11 0 0 0
M  V30 BEGIN ATOM
M  V30 1 O 0.0 0.0 0.0 0
M  V30 2 C -0.0234 -1.487 0.0 0 CFG=2
M  V30 3 C 1.2645 -2.2129 0.0 0
M  V30 4 C -1.3582 -2.2129 0.0 0
M  V30 5 C 1.2411 -3.7 0.0 0
M  V30 6 C 2.5525 -1.4284 0.0 0
M  V30 7 C -2.693 -1.4284 0.0 0
M  V30 8 C 2.5291 -4.4259 0.0 0
M  V30 9 C 3.8405 -2.1778 0.0 0
M  V30 10 C -4.0278 -2.1778 0.0 0
M  V30 11 C 3.8171 -3.6414 0.0 0
M  V30 END ATOM
M  V30 BEGIN BOND
M  V30 1 1 2 1 CFG=3
M  V30 2 1 2 3
M  V30 3 1 2 4
M  V30 4 2 3 5
M  V30 5 1 3 6
M  V30 6 2 4 7 CFG=2
M  V30 7 1 5 8
M  V30 8 2 6 9
M  V30 9 1 7 10
M  V30 10 2 8 11
M  V30 11 1 9 11
M  V30 END BOND
M  V30 BEGIN COLLECTION
M  V30 MDLV30/STERAC1 ATOMS=(1 2)
M  V30 END COLLECTION
M  V30 END CTAB
M  END
>  <Molecule Name>
1-Phenyl-3-methylallyl alcohol

>  <Database>
PubChem

>  <Reference DOI>
10.3390/toxics11100837

>  <Molecular Target>
Aedes aegypti

>  <PubChem CID>
219674

>  <Smiles>
CC=CC(c1ccccc1)O

>  <Molecular Formula>
C10H12O

>  <Activity>
1

$$$$
Compound 315
Actelion Java MolfileCreator 2.0

  0  0  0  0  0  0              0 V3000
M  V30 BEGIN CTAB
M  V30 COUNTS 13 14 0 0 0
M  V30 BEGIN ATOM
M  V30 1 O 0.0 0.0 0.0 0
M  V30 2 C -0.0235 -1.4944 0.0 0
M  V30 3 C 1.2708 -2.2475 0.0 0
M  V30 4 C -1.3649 -2.2122 0.0 0
M  V30 5 C 1.2473 -3.7419 0.0 0
M  V30 6 C 2.5652 -1.4591 0.0 0
M  V30 7 C -1.3885 -3.7066 0.0 0
M  V30 8 C -0.0941 -4.4597 0.0 0
M  V30 9 C 2.5416 -4.4832 0.0 0
M  V30 10 C 3.8596 -2.1769 0.0 0
M  V30 11 C -0.1176 -5.9541 0.0 0
M  V30 12 C 2.5181 -5.9777 0.0 0
M  V30 13 C 1.1767 -6.6837 0.0 0
M  V30 END ATOM
M  V30 BEGIN BOND
M  V30 1 1 1 2
M  V30 2 1 2 3
M  V30 3 1 2 4
M  V30 4 1 3 5
M  V30 5 1 3 6
M  V30 6 1 4 7
M  V30 7 2 5 8
M  V30 8 1 5 9
M  V30 9 1 6 10
M  V30 10 1 8 11
M  V30 11 2 9 12
M  V30 12 2 11 13
M  V30 13 1 7 8
M  V30 14 1 12 13
M  V30 END BOND
M  V30 END CTAB
M  END
>  <Molecule Name>
1-Ethyl-1, 2, 3 ,4-tetrahydro-2-naphthol

>  <Database>
PubChem

>  <Reference DOI>
10.3390/toxics11100837

>  <Molecular Target>
Aedes aegypti

>  <PubChem CID>
249488

>  <Smiles>
CCC(C(CC1)O)c2c1cccc2

>  <Molecular Formula>
C12H16O

>  <Activity>
1

$$$$
Compound 316
Actelion Java MolfileCreator 2.0

  0  0  0  0  0  0              0 V3000
M  V30 BEGIN CTAB
M  V30 COUNTS 8 7 0 0 0
M  V30 BEGIN ATOM
M  V30 1 O 0.0 0.0 0.0 0
M  V30 2 C -0.0239 1.5183 0.0 0
M  V30 3 C 1.2433 2.2834 0.0 0
M  V30 4 C -1.339 2.2834 0.0 0
M  V30 5 C 2.5106 1.5422 0.0 0
M  V30 6 C -2.6541 1.5422 0.0 0
M  V30 7 C 3.7779 2.3074 0.0 0
M  V30 8 C -3.9692 2.3074 0.0 0
M  V30 END ATOM
M  V30 BEGIN BOND
M  V30 1 2 1 2
M  V30 2 1 2 3
M  V30 3 1 2 4
M  V30 4 1 3 5
M  V30 5 1 4 6
M  V30 6 1 5 7
M  V30 7 1 6 8
M  V30 END BOND
M  V30 END CTAB
M  END
>  <Molecule Name>
heptan-4-one

>  <Database>
Pubchem

>  <Reference DOI>
10.1371/annotation/1dc83f26-8045-4b63-8a86-24c7b71a7f79

>  <Molecular Target>
Aedes aegypti

>  <PubChem CID>
31246

>  <Smiles>
CCCC(CCC)=O

>  <Molecular Formula>
C7H14O

>  <Activity>
1

$$$$
Compound 317
Actelion Java MolfileCreator 2.0

  0  0  0  0  0  0              0 V3000
M  V30 BEGIN CTAB
M  V30 COUNTS 9 8 0 0 0
M  V30 BEGIN ATOM
M  V30 1 O 0.0 0.0 0.0 0
M  V30 2 C 1.2966 0.7897 0.0 0
M  V30 3 C 2.5933 0.0589 0.0 0
M  V30 4 C 3.8899 0.8487 0.0 0
M  V30 5 C 2.5697 -1.4381 0.0 0
M  V30 6 C 5.1866 0.1178 0.0 0
M  V30 7 C 3.8664 -2.1571 0.0 0
M  V30 8 C 6.4832 0.9076 0.0 0
M  V30 9 C 7.7799 0.1768 0.0 0
M  V30 END ATOM
M  V30 BEGIN BOND
M  V30 1 2 1 2
M  V30 2 1 2 3
M  V30 3 1 3 4
M  V30 4 1 3 5
M  V30 5 1 4 6
M  V30 6 1 5 7
M  V30 7 1 6 8
M  V30 8 1 8 9
M  V30 END BOND
M  V30 END CTAB
M  END
>  <Molecule Name>
2-ethylhexanal

>  <Database>
Pubchem

>  <Reference DOI>
10.1371/annotation/1dc83f26-8045-4b63-8a86-24c7b71a7f79

>  <Molecular Target>
Aedes aegypti

>  <PubChem CID>
31241

>  <Smiles>
CCCCC(CC)C=O

>  <Molecular Formula>
C8H16O

>  <Activity>
1

$$$$
Compound 318
Actelion Java MolfileCreator 2.0

  0  0  0  0  0  0              0 V3000
M  V30 BEGIN CTAB
M  V30 COUNTS 10 9 0 0 0
M  V30 BEGIN ATOM
M  V30 1 O 0.0 0.0 0.0 0
M  V30 2 C -0.0612 1.5558 0.0 0
M  V30 3 C 1.1638 2.3521 0.0 0
M  V30 4 C -1.4088 2.3521 0.0 0
M  V30 5 C 2.3888 1.6293 0.0 0
M  V30 6 C -2.7563 1.6293 0.0 0
M  V30 7 C 3.6139 2.4133 0.0 0
M  V30 8 C -4.1039 2.4133 0.0 0
M  V30 9 C 4.8389 1.6905 0.0 0
M  V30 10 C -5.4515 1.6905 0.0 0
M  V30 END ATOM
M  V30 BEGIN BOND
M  V30 1 2 1 2
M  V30 2 1 2 3
M  V30 3 1 2 4
M  V30 4 1 3 5
M  V30 5 1 4 6
M  V30 6 1 5 7
M  V30 7 1 6 8
M  V30 8 1 7 9
M  V30 9 1 8 10
M  V30 END BOND
M  V30 END CTAB
M  END
>  <Molecule Name>
nonan-5-one

>  <Database>
Pubchem

>  <Reference DOI>
10.1021/acs.jafc.2c05537

>  <Molecular Target>
Aedes albopictus

>  <PubChem CID>
10405

>  <Smiles>
CCCCC(CCCC)=O

>  <Molecular Formula>
C9H18O

>  <Activity>
1

$$$$
Compound 319
Actelion Java MolfileCreator 2.0

  0  0  0  0  0  0              0 V3000
M  V30 BEGIN CTAB
M  V30 COUNTS 9 8 0 0 0
M  V30 BEGIN ATOM
M  V30 1 O 0.0 0.0 0.0 0
M  V30 2 C -0.024 1.5276 0.0 0
M  V30 3 C 1.2509 2.2974 0.0 0
M  V30 4 C -1.3472 2.2974 0.0 0
M  V30 5 C 2.526 1.5516 0.0 0
M  V30 6 C -2.6703 1.5516 0.0 0
M  V30 7 C 3.801 2.3215 0.0 0
M  V30 8 C 5.076 1.5757 0.0 0
M  V30 9 C 6.3511 2.3455 0.0 0
M  V30 END ATOM
M  V30 BEGIN BOND
M  V30 1 2 1 2
M  V30 2 1 2 3
M  V30 3 1 2 4
M  V30 4 1 3 5
M  V30 5 1 4 6
M  V30 6 1 5 7
M  V30 7 1 7 8
M  V30 8 1 8 9
M  V30 END BOND
M  V30 END CTAB
M  END
>  <Molecule Name>
octan-3-one

>  <Database>
Pubchem

>  <Reference DOI>
10.1371/annotation/1dc83f26-8045-4b63-8a86-24c7b71a7f79

>  <Molecular Target>
Aedes aegypti

>  <PubChem CID>
246728

>  <Smiles>
CCCCCC(CC)=O

>  <Molecular Formula>
C8H16O

>  <Activity>
1

$$$$
Compound 320
Actelion Java MolfileCreator 2.0

  0  0  0  0  0  0              0 V3000
M  V30 BEGIN CTAB
M  V30 COUNTS 12 11 0 0 0
M  V30 BEGIN ATOM
M  V30 1 O 0.0 0.0 0.0 0
M  V30 2 C -0.0612 1.5557 0.0 0
M  V30 3 C 1.1637 2.3397 0.0 0
M  V30 4 C -1.4087 2.3397 0.0 0
M  V30 5 C 2.3887 1.617 0.0 0
M  V30 6 C -2.7562 1.617 0.0 0
M  V30 7 C 3.6137 2.401 0.0 0
M  V30 8 C -4.1037 2.401 0.0 0
M  V30 9 C 4.8387 1.6782 0.0 0
M  V30 10 C -5.4512 1.6782 0.0 0
M  V30 11 C 6.0637 2.4622 0.0 0
M  V30 12 C -6.7987 2.4622 0.0 0
M  V30 END ATOM
M  V30 BEGIN BOND
M  V30 1 2 1 2
M  V30 2 1 2 3
M  V30 3 1 2 4
M  V30 4 1 3 5
M  V30 5 1 4 6
M  V30 6 1 5 7
M  V30 7 1 6 8
M  V30 8 1 7 9
M  V30 9 1 8 10
M  V30 10 1 9 11
M  V30 11 1 10 12
M  V30 END BOND
M  V30 END CTAB
M  END
>  <Molecule Name>
undecan-6-one

>  <Database>
Pubchem

>  <Reference DOI>
10.1021/acs.jafc.2c05537

>  <Molecular Target>
Aedes albopictus

>  <PubChem CID>
13561

>  <Smiles>
CCCCCC(CCCCC)=O

>  <Molecular Formula>
C11H22O

>  <Activity>
1

$$$$
Compound 321
Actelion Java MolfileCreator 2.0

  0  0  0  0  0  0              0 V3000
M  V30 BEGIN CTAB
M  V30 COUNTS 11 10 0 0 0
M  V30 BEGIN ATOM
M  V30 1 O 0.0 0.0 0.0 0
M  V30 2 C -0.0231 -1.4676 0.0 0
M  V30 3 C -1.3404 -2.2071 0.0 0
M  V30 4 C 1.248 -2.2071 0.0 0
M  V30 5 C -2.6578 -1.4329 0.0 0
M  V30 6 C -1.3636 -3.6747 0.0 0
M  V30 7 C -3.9752 -2.1494 0.0 0
M  V30 8 C -5.2926 -1.3751 0.0 0
M  V30 9 C -6.61 -2.0916 0.0 0
M  V30 10 C -7.9273 -1.3173 0.0 0
M  V30 11 C -9.2447 -2.0338 0.0 0
M  V30 END ATOM
M  V30 BEGIN BOND
M  V30 1 2 1 2
M  V30 2 1 2 3
M  V30 3 1 2 4
M  V30 4 1 3 5
M  V30 5 1 3 6
M  V30 6 1 5 7
M  V30 7 1 7 8
M  V30 8 1 8 9
M  V30 9 1 9 10
M  V30 10 1 10 11
M  V30 END BOND
M  V30 END CTAB
M  END
>  <Molecule Name>
3-methylnonan-2-one

>  <Database>
Pubchem

>  <Reference DOI>
10.1371/annotation/1dc83f26-8045-4b63-8a86-24c7b71a7f79

>  <Molecular Target>
Aedes aegypti

>  <PubChem CID>
12634597

>  <Smiles>
CCCCCCC(C)C(C)=O

>  <Molecular Formula>
C10H20O

>  <Activity>
1

$$$$
Compound 322
Actelion Java MolfileCreator 2.0

  0  0  0  0  0  0              0 V3000
M  V30 BEGIN CTAB
M  V30 COUNTS 10 9 0 0 0
M  V30 BEGIN ATOM
M  V30 1 O 0.0 0.0 0.0 0
M  V30 2 C -0.0626 1.591 0.0 0
M  V30 3 C 1.1901 2.3928 0.0 0
M  V30 4 C -1.4407 2.3928 0.0 0
M  V30 5 C 2.4429 1.6536 0.0 0
M  V30 6 C 3.6957 2.4554 0.0 0
M  V30 7 C 4.9485 1.7163 0.0 0
M  V30 8 C 6.2013 2.5181 0.0 0
M  V30 9 C 7.4541 1.7789 0.0 0
M  V30 10 C 8.7069 2.5807 0.0 0
M  V30 END ATOM
M  V30 BEGIN BOND
M  V30 1 2 1 2
M  V30 2 1 2 3
M  V30 3 1 2 4
M  V30 4 1 3 5
M  V30 5 1 5 6
M  V30 6 1 6 7
M  V30 7 1 7 8
M  V30 8 1 8 9
M  V30 9 1 9 10
M  V30 END BOND
M  V30 END CTAB
M  END
>  <Molecule Name>
nonan-2-one

>  <Database>
Pubchem

>  <Reference DOI>
10.1021/acs.jafc.2c05537

>  <Molecular Target>
Aedes albopictus

>  <PubChem CID>
13187

>  <Smiles>
CCCCCCCC(C)=O

>  <Molecular Formula>
C9H18O

>  <Activity>
1

$$$$
Compound 323
Actelion Java MolfileCreator 2.0

  0  0  0  0  0  0              0 V3000
M  V30 BEGIN CTAB
M  V30 COUNTS 9 8 0 0 0
M  V30 BEGIN ATOM
M  V30 1 O 0.0 0.0 0.0 0
M  V30 2 C 1.2776 0.835 0.0 0
M  V30 3 C 2.5553 0.1006 0.0 0
M  V30 4 C 3.8329 0.9356 0.0 0
M  V30 5 C 5.1106 0.2012 0.0 0
M  V30 6 C 6.3882 1.0362 0.0 0
M  V30 7 C 7.6659 0.3018 0.0 0
M  V30 8 C 8.9435 1.1368 0.0 0
M  V30 9 C 10.2212 0.4024 0.0 0
M  V30 END ATOM
M  V30 BEGIN BOND
M  V30 1 2 1 2
M  V30 2 1 2 3
M  V30 3 1 3 4
M  V30 4 1 4 5
M  V30 5 1 5 6
M  V30 6 1 6 7
M  V30 7 1 7 8
M  V30 8 1 8 9
M  V30 END BOND
M  V30 END CTAB
M  END
>  <Molecule Name>
octanal

>  <Database>
Pubchem

>  <Reference DOI>
10.1021/acs.jafc.2c05537

>  <Molecular Target>
Aedes albopictus

>  <PubChem CID>
454

>  <Smiles>
CCCCCCCC=O

>  <Molecular Formula>
C8H16O

>  <Activity>
1

$$$$
Compound 324
Actelion Java MolfileCreator 2.0

  0  0  0  0  0  0              0 V3000
M  V30 BEGIN CTAB
M  V30 COUNTS 11 10 0 0 0
M  V30 BEGIN ATOM
M  V30 1 O 0.0 0.0 0.0 0
M  V30 2 C -0.0628 1.5958 0.0 0
M  V30 3 C 1.1937 2.4001 0.0 0
M  V30 4 C -1.445 2.4001 0.0 0
M  V30 5 C 2.4503 1.6587 0.0 0
M  V30 6 C 3.7069 2.4629 0.0 0
M  V30 7 C 4.9635 1.7215 0.0 0
M  V30 8 C 6.2201 2.5257 0.0 0
M  V30 9 C 7.4767 1.7843 0.0 0
M  V30 10 C 8.7333 2.5885 0.0 0
M  V30 11 C 9.9899 1.8471 0.0 0
M  V30 END ATOM
M  V30 BEGIN BOND
M  V30 1 2 1 2
M  V30 2 1 2 3
M  V30 3 1 2 4
M  V30 4 1 3 5
M  V30 5 1 5 6
M  V30 6 1 6 7
M  V30 7 1 7 8
M  V30 8 1 8 9
M  V30 9 1 9 10
M  V30 10 1 10 11
M  V30 END BOND
M  V30 END CTAB
M  END
>  <Molecule Name>
decan-2-one

>  <Database>
Pubchem

>  <Reference DOI>
10.1021/acs.jafc.2c05537

>  <Molecular Target>
Aedes albopictus

>  <PubChem CID>
12741

>  <Smiles>
CCCCCCCCC(C)=O

>  <Molecular Formula>
C10H20O

>  <Activity>
1

$$$$
Compound 325
Actelion Java MolfileCreator 2.0

  0  0  0  0  0  0              0 V3000
M  V30 BEGIN CTAB
M  V30 COUNTS 10 9 0 0 0
M  V30 BEGIN ATOM
M  V30 1 O 0.0 0.0 0.0 0
M  V30 2 C -1.3101 -0.7118 0.0 0
M  V30 3 C -2.6203 0.0412 0.0 0
M  V30 4 C -3.9305 -0.6705 0.0 0
M  V30 5 C -5.2406 0.0825 0.0 0
M  V30 6 C -6.5508 -0.6292 0.0 0
M  V30 7 C -7.861 0.1237 0.0 0
M  V30 8 C -9.1711 -0.588 0.0 0
M  V30 9 C -10.4813 0.165 0.0 0
M  V30 10 C -11.7915 -0.5467 0.0 0
M  V30 END ATOM
M  V30 BEGIN BOND
M  V30 1 2 1 2
M  V30 2 1 2 3
M  V30 3 1 3 4
M  V30 4 1 4 5
M  V30 5 1 5 6
M  V30 6 1 6 7
M  V30 7 1 7 8
M  V30 8 1 8 9
M  V30 9 1 9 10
M  V30 END BOND
M  V30 END CTAB
M  END
>  <Molecule Name>
nonanal

>  <Database>
Pubchem

>  <Reference DOI>
10.1371/annotation/1dc83f26-8045-4b63-8a86-24c7b71a7f79

>  <Molecular Target>
Aedes aegypti

>  <PubChem CID>
31289

>  <Smiles>
CCCCCCCCC=O

>  <Molecular Formula>
C9H18O

>  <Activity>
1

$$$$
Compound 326
Actelion Java MolfileCreator 2.0

  0  0  0  0  0  0              0 V3000
M  V30 BEGIN CTAB
M  V30 COUNTS 12 11 0 0 0
M  V30 BEGIN ATOM
M  V30 1 O 0.0 0.0 0.0 0
M  V30 2 C -0.0627 1.594 0.0 0
M  V30 3 C 1.1924 2.4099 0.0 0
M  V30 4 C -1.4434 2.4099 0.0 0
M  V30 5 C 2.4475 1.6693 0.0 0
M  V30 6 C 3.7027 2.4852 0.0 0
M  V30 7 C 4.9579 1.7446 0.0 0
M  V30 8 C 6.2131 2.5605 0.0 0
M  V30 9 C 7.4682 1.82 0.0 0
M  V30 10 C 8.7234 2.6233 0.0 0
M  V30 11 C 9.9786 1.8827 0.0 0
M  V30 12 C 11.2338 2.686 0.0 0
M  V30 END ATOM
M  V30 BEGIN BOND
M  V30 1 2 1 2
M  V30 2 1 2 3
M  V30 3 1 2 4
M  V30 4 1 3 5
M  V30 5 1 5 6
M  V30 6 1 6 7
M  V30 7 1 7 8
M  V30 8 1 8 9
M  V30 9 1 9 10
M  V30 10 1 10 11
M  V30 11 1 11 12
M  V30 END BOND
M  V30 END CTAB
M  END
>  <Molecule Name>
undecan-2-one

>  <Database>
Pubchem

>  <Reference DOI>
10.1021/acs.jafc.2c05537

>  <Molecular Target>
Aedes albopictus

>  <PubChem CID>
8163

>  <Smiles>
CCCCCCCCCC(C)=O

>  <Molecular Formula>
C11H22O

>  <Activity>
1

$$$$
Compound 327
Actelion Java MolfileCreator 2.0

  0  0  0  0  0  0              0 V3000
M  V30 BEGIN CTAB
M  V30 COUNTS 11 10 0 0 0
M  V30 BEGIN ATOM
M  V30 1 O 0.0 0.0 0.0 0
M  V30 2 C 1.2915 -0.7423 0.0 0
M  V30 3 C 2.583 0.0406 0.0 0
M  V30 4 C 3.8745 -0.7016 0.0 0
M  V30 5 C 5.166 0.0813 0.0 0
M  V30 6 C 6.4575 -0.661 0.0 0
M  V30 7 C 7.749 0.122 0.0 0
M  V30 8 C 9.0405 -0.6203 0.0 0
M  V30 9 C 10.332 0.1627 0.0 0
M  V30 10 C 11.6235 -0.5796 0.0 0
M  V30 11 C 12.915 0.2033 0.0 0
M  V30 END ATOM
M  V30 BEGIN BOND
M  V30 1 2 1 2
M  V30 2 1 2 3
M  V30 3 1 3 4
M  V30 4 1 4 5
M  V30 5 1 5 6
M  V30 6 1 6 7
M  V30 7 1 7 8
M  V30 8 1 8 9
M  V30 9 1 9 10
M  V30 10 1 10 11
M  V30 END BOND
M  V30 END CTAB
M  END
>  <Molecule Name>
decanal

>  <Database>
Pubchem

>  <Reference DOI>
10.1371/annotation/1dc83f26-8045-4b63-8a86-24c7b71a7f79

>  <Molecular Target>
Aedes aegypti

>  <PubChem CID>
8175

>  <Smiles>
CCCCCCCCCC=O

>  <Molecular Formula>
C10H20O

>  <Activity>
1

$$$$
Compound 328
Actelion Java MolfileCreator 2.0

  0  0  0  0  0  0              0 V3000
M  V30 BEGIN CTAB
M  V30 COUNTS 13 12 0 0 0
M  V30 BEGIN ATOM
M  V30 1 O 0.0 0.0 0.0 0
M  V30 2 C 1.2776 0.835 0.0 0
M  V30 3 C 2.5553 0.1006 0.0 0
M  V30 4 C 3.8329 0.9356 0.0 0
M  V30 5 C 5.1106 0.2012 0.0 0
M  V30 6 C 6.3882 1.0362 0.0 0
M  V30 7 C 7.6659 0.3018 0.0 0
M  V30 8 C 8.9435 1.1368 0.0 0
M  V30 9 C 10.2212 0.4024 0.0 0
M  V30 10 C 11.4989 1.2374 0.0 0
M  V30 11 C 12.7765 0.503 0.0 0
M  V30 12 C 14.0542 1.338 0.0 0
M  V30 13 C 15.3318 0.6036 0.0 0
M  V30 END ATOM
M  V30 BEGIN BOND
M  V30 1 2 1 2
M  V30 2 1 2 3
M  V30 3 1 3 4
M  V30 4 1 4 5
M  V30 5 1 5 6
M  V30 6 1 6 7
M  V30 7 1 7 8
M  V30 8 1 8 9
M  V30 9 1 9 10
M  V30 10 1 10 11
M  V30 11 1 11 12
M  V30 12 1 12 13
M  V30 END BOND
M  V30 END CTAB
M  END
>  <Molecule Name>
dodecanal

>  <Database>
Pubchem

>  <Reference DOI>
10.1021/acs.jafc.2c05537

>  <Molecular Target>
Aedes albopictus

>  <PubChem CID>
8194

>  <Smiles>
CCCCCCCCCCCC=O

>  <Molecular Formula>
C12H24O

>  <Activity>
1

$$$$
Compound 329
Actelion Java MolfileCreator 2.0

  0  0  0  0  0  0              0 V3000
M  V30 BEGIN CTAB
M  V30 COUNTS 10 10 0 0 0
M  V30 BEGIN ATOM
M  V30 1 O 0.0 0.0 0.0 0
M  V30 2 C 1.1699 0.9454 0.0 0
M  V30 3 C -1.2881 0.9454 0.0 0
M  V30 4 C 0.6381 2.4462 0.0 0
M  V30 5 C 2.5525 0.5317 0.0 0
M  V30 6 C -0.8744 2.4462 0.0 0
M  V30 7 C 2.8125 -0.8981 0.0 0
M  V30 8 C 4.1952 -1.3117 0.0 0
M  V30 9 C 4.4552 -2.7416 0.0 0
M  V30 10 C 5.8378 -3.1552 0.0 0
M  V30 END ATOM
M  V30 BEGIN BOND
M  V30 1 1 1 2
M  V30 2 1 1 3
M  V30 3 2 2 4
M  V30 4 1 2 5
M  V30 5 2 3 6
M  V30 6 1 5 7
M  V30 7 1 7 8
M  V30 8 1 8 9
M  V30 9 1 9 10
M  V30 10 1 4 6
M  V30 END BOND
M  V30 END CTAB
M  END
>  <Molecule Name>
2-Pentylfuran

>  <Database>
Pubchem

>  <Reference DOI>
10.1002/ps.6196

>  <Molecular Target>
Drosophila suzukii

>  <PubChem CID>
19602

>  <Smiles>
CCCCCc1ccc[o]1

>  <Molecular Formula>
C9H14O

>  <Activity>
1

$$$$
Compound 330
Actelion Java MolfileCreator 2.0

  0  0  0  0  0  0              0 V3000
M  V30 BEGIN CTAB
M  V30 COUNTS 12 12 0 0 0
M  V30 BEGIN ATOM
M  V30 1 O 0.0 0.0 0.0 0
M  V30 2 C 1.2851 0.7638 0.0 0
M  V30 3 C 2.5703 0.0121 0.0 0
M  V30 4 C 3.8555 0.788 0.0 0
M  V30 5 C 3.8312 2.3278 0.0 0
M  V30 6 C 5.1406 0.0484 0.0 0
M  V30 7 C 5.1164 3.0916 0.0 0
M  V30 8 C 6.4258 0.8123 0.0 0
M  V30 9 C 6.4016 2.3399 0.0 0
M  V30 10 C 7.6867 3.1159 0.0 0
M  V30 11 C 8.9719 2.3763 0.0 0
M  V30 12 C 10.2571 3.1523 0.0 0
M  V30 END ATOM
M  V30 BEGIN BOND
M  V30 1 1 1 2
M  V30 2 1 2 3
M  V30 3 1 3 4
M  V30 4 2 4 5
M  V30 5 1 4 6
M  V30 6 1 5 7
M  V30 7 2 6 8
M  V30 8 2 7 9
M  V30 9 1 9 10
M  V30 10 1 10 11
M  V30 11 1 11 12
M  V30 12 1 8 9
M  V30 END BOND
M  V30 END CTAB
M  END
>  <Molecule Name>
2 (p-n-Propylphenyl) ethanol

>  <Database>
PubChem

>  <Reference DOI>
10.3390/toxics11100837

>  <Molecular Target>
Aedes aegypti

>  <PubChem CID>
2760476

>  <Smiles>
CCCc1ccc(CCO)cc1

>  <Molecular Formula>
C11H16O

>  <Activity>
1

$$$$
Compound 331
Actelion Java MolfileCreator 2.0

  0  0  0  0  0  0              0 V3000
M  V30 BEGIN CTAB
M  V30 COUNTS 16 17 0 0 0
M  V30 BEGIN ATOM
M  V30 1 O 0.0 0.0 0.0 0
M  V30 2 C 0.9371 -1.1596 0.0 0
M  V30 3 C 1.8742 -2.3193 0.0 0 CFG=1
M  V30 4 C -0.2928 -2.0967 0.0 0
M  V30 5 C 2.0967 -0.1522 0.0 0
M  V30 6 C 3.3267 -1.9445 0.0 0
M  V30 7 C 1.1948 -3.6664 0.0 0
M  V30 8 C 4.4981 -2.8699 0.0 0
M  V30 9 C 1.8156 -5.0018 0.0 0
M  V30 10 C 4.4747 -4.3575 0.0 0
M  V30 11 C 5.9038 -2.3779 0.0 0 CFG=2
M  V30 12 C 3.2681 -5.2946 0.0 0 CFG=1
M  V30 13 C 5.8803 -4.7675 0.0 0
M  V30 14 C 6.7823 -3.5727 0.0 0
M  V30 15 C 6.3255 -0.8902 0.0 0
M  V30 16 C 3.5727 -6.7472 0.0 0
M  V30 END ATOM
M  V30 BEGIN BOND
M  V30 1 1 1 2
M  V30 2 1 3 2 CFG=1
M  V30 3 1 2 4
M  V30 4 1 2 5
M  V30 5 1 3 6
M  V30 6 1 3 7
M  V30 7 1 6 8
M  V30 8 1 7 9
M  V30 9 2 8 10
M  V30 10 1 8 11
M  V30 11 1 9 12
M  V30 12 1 10 13
M  V30 13 1 11 14
M  V30 14 1 11 15 CFG=1
M  V30 15 1 12 16 CFG=1
M  V30 16 1 10 12
M  V30 17 1 13 14
M  V30 END BOND
M  V30 BEGIN COLLECTION
M  V30 MDLV30/STEABS ATOMS=(3 3 11 12)
M  V30 END COLLECTION
M  V30 END CTAB
M  END
>  <Molecule Name>
Guaiol

>  <Database>
Pubchem

>  <Reference DOI>
10.3390/molecules26113072

>  <Molecular Target>
Aedes albopictus

>  <PubChem CID>
227829

>  <Smiles>
C[C@@H](CC1)C(C2)=C1[C@@H](C)CC[C@H]2C(C)(C)O

>  <Molecular Formula>
C15H26O

>  <Activity>
1

$$$$
Compound 332
Actelion Java MolfileCreator 2.0

  0  0  0  0  0  0              0 V3000
M  V30 BEGIN CTAB
M  V30 COUNTS 16 17 0 0 0
M  V30 BEGIN ATOM
M  V30 1 O 0.0 0.0 0.0 0
M  V30 2 C -1.3111 -0.6851 0.0 0
M  V30 3 C -2.6814 0.1181 0.0 0
M  V30 4 C -1.3466 -2.1853 0.0 0
M  V30 5 C -4.0398 -0.6142 0.0 0
M  V30 6 C -2.7168 -2.894 0.0 0 CFG=2
M  V30 7 C -4.0753 -2.0553 0.0 0 CFG=2
M  V30 8 C -5.3628 0.1417 0.0 0
M  V30 9 C -2.7641 -4.3351 0.0 0
M  V30 10 C -5.3983 -2.7405 0.0 0
M  V30 11 C -4.1107 -3.4965 0.0 0
M  V30 12 C -6.6858 -0.5433 0.0 0
M  V30 13 C -6.7213 -1.9608 0.0 0 CFG=1
M  V30 14 C -8.0443 -2.646 0.0 0
M  V30 15 C -8.0797 -4.0871 0.0 0
M  V30 16 C -9.3673 -1.8663 0.0 0
M  V30 END ATOM
M  V30 BEGIN BOND
M  V30 1 2 1 2
M  V30 2 1 2 3
M  V30 3 1 2 4
M  V30 4 2 3 5
M  V30 5 1 4 6
M  V30 6 1 5 7
M  V30 7 1 5 8
M  V30 8 1 6 9 CFG=1
M  V30 9 1 7 10
M  V30 10 1 7 11 CFG=1
M  V30 11 1 8 12
M  V30 12 1 10 13
M  V30 13 1 13 14 CFG=3
M  V30 14 2 14 15
M  V30 15 1 14 16
M  V30 16 1 6 7
M  V30 17 1 12 13
M  V30 END BOND
M  V30 BEGIN COLLECTION
M  V30 MDLV30/STEABS ATOMS=(3 6 7 13)
M  V30 END COLLECTION
M  V30 END CTAB
M  END
>  <Molecule Name>
Nootkatone

>  <Database>
Pubchem

>  <Reference DOI>
10.3390/insects12050386

>  <Molecular Target>
Aedes aegypti e Aedes albopictus

>  <PubChem CID>
1268142

>  <Smiles>
C[C@H](C1)[C@](C)(C[C@@H](CC2)C(C)=C)C2=CC1=O

>  <Molecular Formula>
C15H22O

>  <Activity>
1

$$$$
Compound 333
Actelion Java MolfileCreator 2.0

  0  0  0  0  0  0              0 V3000
M  V30 BEGIN CTAB
M  V30 COUNTS 16 18 0 0 0
M  V30 BEGIN ATOM
M  V30 1 O 0.0 0.0 0.0 0
M  V30 2 C -1.3294 -0.671 0.0 0 CFG=1
M  V30 3 C -2.8993 -0.5697 0.0 0 CFG=1
M  V30 4 C -0.4811 -1.7345 0.0 0
M  V30 5 C -1.5319 0.8989 0.0 0
M  V30 6 C -3.9502 -1.6332 0.0 0
M  V30 7 C -2.0764 -1.9498 0.0 0
M  V30 8 C -0.8862 -3.0639 0.0 0
M  V30 9 C -3.7476 -2.9626 0.0 0 CFG=1
M  V30 10 C -5.0517 -0.4051 0.0 0
M  V30 11 C -5.4062 -2.0637 0.0 0
M  V30 12 C -2.3296 -3.5577 0.0 0 CFG=2
M  V30 13 C -4.8871 -3.9502 0.0 0
M  V30 14 C -2.6208 -4.8998 0.0 0 CFG=1
M  V30 15 C -4.3427 -5.1403 0.0 0
M  V30 16 C -1.6332 -5.8494 0.0 0
M  V30 END ATOM
M  V30 BEGIN BOND
M  V30 1 1 2 1 CFG=3
M  V30 2 1 2 3
M  V30 3 1 2 4
M  V30 4 1 2 5
M  V30 5 1 3 6
M  V30 6 1 3 7 CFG=1
M  V30 7 1 4 8
M  V30 8 1 6 9
M  V30 9 1 6 10
M  V30 10 1 6 11
M  V30 11 1 12 7 CFG=1
M  V30 12 1 9 13 CFG=1
M  V30 13 1 12 14
M  V30 14 1 13 15
M  V30 15 1 14 16 CFG=3
M  V30 16 1 8 12
M  V30 17 1 9 12
M  V30 18 1 14 15
M  V30 END BOND
M  V30 BEGIN COLLECTION
M  V30 MDLV30/STEABS ATOMS=(5 2 3 9 12 14)
M  V30 END COLLECTION
M  V30 END CTAB
M  END
>  <Molecule Name>
Cedrol

>  <Database>
Pubchem

>  <Reference DOI>
10.1186/s13071-017-2122-8

>  <Molecular Target>
Anopheles spp.

>  <PubChem CID>
65575

>  <Smiles>
C[C@H](CC1)[C@@](C2)(CC3)[C@@H]1C(C)(C)[C@@H]2[C@]3(C)O

>  <Molecular Formula>
C15H26O

>  <Activity>
1

$$$$
Compound 334
Actelion Java MolfileCreator 2.0

  0  0  0  0  0  0              0 V3000
M  V30 BEGIN CTAB
M  V30 COUNTS 17 18 0 0 0
M  V30 BEGIN ATOM
M  V30 1 O 0.0 0.0 0.0 0
M  V30 2 C 0.6661 -1.2632 0.0 0
M  V30 3 C -0.1607 -2.5265 0.0 0
M  V30 4 C 0.5053 -3.7898 0.0 0 CFG=2
M  V30 5 C 1.7686 -4.456 0.0 0 CFG=2
M  V30 6 C -0.8728 -4.456 0.0 0 CFG=1
M  V30 7 C 1.1714 -2.4117 0.0 0
M  V30 8 C 1.7111 -5.9145 0.0 0 CFG=2
M  V30 9 C 3.0778 -3.5602 0.0 0
M  V30 10 C -0.9302 -5.9145 0.0 0
M  V30 11 C -2.2509 -3.6176 0.0 0
M  V30 12 C 3.0204 -6.6954 0.0 0
M  V30 13 C 0.333 -6.5806 0.0 0
M  V30 14 C 1.6537 -7.373 0.0 0
M  V30 15 C 4.3985 -4.3067 0.0 0
M  V30 16 C 4.3411 -5.8341 0.0 0
M  V30 17 C 2.9515 -8.154 0.0 0
M  V30 END ATOM
M  V30 BEGIN BOND
M  V30 1 2 1 2
M  V30 2 1 2 3
M  V30 3 1 3 4
M  V30 4 1 4 5
M  V30 5 1 4 6
M  V30 6 1 4 7 CFG=1
M  V30 7 1 5 8
M  V30 8 1 5 9 CFG=1
M  V30 9 1 6 10
M  V30 10 1 6 11 CFG=1
M  V30 11 1 8 12
M  V30 12 1 8 13
M  V30 13 1 8 14 CFG=1
M  V30 14 1 9 15
M  V30 15 2 12 16
M  V30 16 1 12 17
M  V30 17 1 10 13
M  V30 18 1 15 16
M  V30 END BOND
M  V30 BEGIN COLLECTION
M  V30 MDLV30/STEABS ATOMS=(4 4 5 6 8)
M  V30 END COLLECTION
M  V30 END CTAB
M  END
>  <Molecule Name>
Callicarpenal

>  <Database>
Pubchem

>  <Reference DOI>
10.1016/j.tet.2011.02.078

>  <Molecular Target>
Aedes aegypti

>  <PubChem CID>
11107286

>  <Smiles>
C[C@H](CC1)[C@](C)(CC=O)[C@@H]2[C@]1(C)C(C)=CCC2

>  <Molecular Formula>
C16H26O

>  <Activity>
1

$$$$
Compound 335
Actelion Java MolfileCreator 2.0

  0  0  0  0  0  0              0 V3000
M  V30 BEGIN CTAB
M  V30 COUNTS 16 16 0 0 0
M  V30 BEGIN ATOM
M  V30 1 O 0.0 0.0 0.0 0
M  V30 2 C -1.5868 0.0749 0.0 0 CFG=2
M  V30 3 C -1.6618 -1.3619 0.0 0
M  V30 4 C -1.6618 1.6618 0.0 0
M  V30 5 C -3.1737 0.1499 0.0 0
M  V30 6 C -0.4373 -2.0866 0.0 0
M  V30 7 C -3.0362 -2.0866 0.0 0
M  V30 8 C -0.4373 2.4615 0.0 0
M  V30 9 C -0.5122 -3.5235 0.0 0
M  V30 10 C -3.1112 -3.5235 0.0 0
M  V30 11 C -0.5122 4.0483 0.0 0
M  V30 12 C -1.8867 -4.2483 0.0 0
M  V30 13 C 0.7122 4.848 0.0 0
M  V30 14 C -1.9617 -5.6852 0.0 0
M  V30 15 C 0.6372 6.4349 0.0 0
M  V30 16 C 1.9367 4.1233 0.0 0
M  V30 END ATOM
M  V30 BEGIN BOND
M  V30 1 1 1 2
M  V30 2 1 2 3
M  V30 3 1 2 4
M  V30 4 1 2 5 CFG=1
M  V30 5 1 3 6
M  V30 6 1 3 7
M  V30 7 1 4 8
M  V30 8 1 6 9
M  V30 9 1 7 10
M  V30 10 1 8 11
M  V30 11 2 9 12
M  V30 12 2 11 13
M  V30 13 1 12 14
M  V30 14 1 13 15
M  V30 15 1 13 16
M  V30 16 1 10 12
M  V30 END BOND
M  V30 BEGIN COLLECTION
M  V30 MDLV30/STEABS ATOMS=(1 2)
M  V30 END COLLECTION
M  V30 END CTAB
M  END
>  <Molecule Name>
α-bisabolol

>  <Database>
Pubchem

>  <Reference DOI>
10.1038/s41598-022-24923-x

>  <Molecular Target>
Aedes aegypti

>  <PubChem CID>
252403102

>  <Smiles>
C[C@](CCC=C(C)C)(C1CC=C(C)CC1)O

>  <Molecular Formula>
C15H26O

>  <Activity>
1

$$$$
Compound 336
Actelion Java MolfileCreator 2.0

  0  0  0  0  0  0              0 V3000
M  V30 BEGIN CTAB
M  V30 COUNTS 10 10 0 0 0
M  V30 BEGIN ATOM
M  V30 1 O 0.0 0.0 0.0 0
M  V30 2 C 1.2787 0.7599 0.0 0
M  V30 3 C 2.5574 0.012 0.0 0
M  V30 4 C 3.8361 0.772 0.0 0
M  V30 5 C 3.812 2.3041 0.0 0
M  V30 6 C 5.1148 0.0241 0.0 0
M  V30 7 C 5.0907 3.0641 0.0 0
M  V30 8 C 2.485 3.0761 0.0 0
M  V30 9 C 6.3936 0.7841 0.0 0
M  V30 10 C 6.3694 2.3282 0.0 0
M  V30 END ATOM
M  V30 BEGIN BOND
M  V30 1 1 1 2
M  V30 2 1 2 3
M  V30 3 1 3 4
M  V30 4 2 4 5
M  V30 5 1 4 6
M  V30 6 1 5 7
M  V30 7 1 5 8
M  V30 8 2 6 9
M  V30 9 2 7 10
M  V30 10 1 9 10
M  V30 END BOND
M  V30 END CTAB
M  END
>  <Molecule Name>
beta-o-Tolyl ethanol

>  <Database>
PubChem

>  <Reference DOI>
10.3390/toxics11100837

>  <Molecular Target>
Aedes aegypti

>  <PubChem CID>
88267

>  <Smiles>
Cc1c(CCO)cccc1

>  <Molecular Formula>
C9H12O

>  <Activity>
1

$$$$
Compound 337
Actelion Java MolfileCreator 2.0

  0  0  0  0  0  0              0 V3000
M  V30 BEGIN CTAB
M  V30 COUNTS 13 14 0 0 0
M  V30 BEGIN ATOM
M  V30 1 O 0.0 0.0 0.0 0
M  V30 2 C 1.284 0.7631 0.0 0
M  V30 3 C 2.568 0.0121 0.0 0
M  V30 4 C 1.2598 2.3015 0.0 0
M  V30 5 C 3.852 0.7752 0.0 0
M  V30 6 C 2.5438 -1.4778 0.0 0
M  V30 7 C 2.5438 3.0768 0.0 0
M  V30 8 C 5.1361 0.0242 0.0 0
M  V30 9 C 3.8278 2.3136 0.0 0
M  V30 10 C 3.8278 -2.2167 0.0 0
M  V30 11 C 1.2113 -2.2167 0.0 0
M  V30 12 C 5.1118 -1.4657 0.0 0
M  V30 13 C 6.4201 0.7873 0.0 0
M  V30 END ATOM
M  V30 BEGIN BOND
M  V30 1 2 1 2
M  V30 2 1 2 3
M  V30 3 1 2 4
M  V30 4 2 3 5
M  V30 5 1 3 6
M  V30 6 1 4 7
M  V30 7 1 5 8
M  V30 8 1 5 9
M  V30 9 2 6 10
M  V30 10 1 6 11
M  V30 11 2 8 12
M  V30 12 1 8 13
M  V30 13 1 7 9
M  V30 14 1 10 12
M  V30 END BOND
M  V30 END CTAB
M  END
>  <Molecule Name>
5,8-Dimethyl-1-tetralone

>  <Database>
PubChem

>  <Reference DOI>
10.3390/toxics11100837

>  <Molecular Target>
Aedes aegypti

>  <PubChem CID>
99334

>  <Smiles>
Cc1ccc(C)c2c1CCCC2=O

>  <Molecular Formula>
C12H14O

>  <Activity>
1

$$$$
Compound 338
Actelion Java MolfileCreator 2.0

  0  0  0  0  0  0              0 V3000
M  V30 BEGIN CTAB
M  V30 COUNTS 10 10 0 0 0
M  V30 BEGIN ATOM
M  V30 1 O 0.0 0.0 0.0 0
M  V30 2 C 1.2794 0.7604 0.0 0
M  V30 3 C 2.5589 0.012 0.0 0
M  V30 4 C 3.8384 0.7725 0.0 0
M  V30 5 C 3.8142 2.3054 0.0 0
M  V30 6 C 5.1179 0.0362 0.0 0
M  V30 7 C 5.0937 3.0779 0.0 0
M  V30 8 C 6.3973 0.7966 0.0 0
M  V30 9 C 6.3732 2.3296 0.0 0
M  V30 10 C 5.0696 4.6109 0.0 0
M  V30 END ATOM
M  V30 BEGIN BOND
M  V30 1 1 1 2
M  V30 2 1 2 3
M  V30 3 1 3 4
M  V30 4 2 4 5
M  V30 5 1 4 6
M  V30 6 1 5 7
M  V30 7 2 6 8
M  V30 8 2 7 9
M  V30 9 1 7 10
M  V30 10 1 8 9
M  V30 END BOND
M  V30 END CTAB
M  END
>  <Molecule Name>
m-Methylphenethyl alcohol

>  <Database>
PubChem

>  <Reference DOI>
10.3390/toxics11100837

>  <Molecular Target>
Aedes aegypti

>  <PubChem CID>
74648

>  <Smiles>
Cc1cccc(CCO)c1

>  <Molecular Formula>
C9H12O

>  <Activity>
1

$$$$
Compound 339
Actelion Java MolfileCreator 2.0

  0  0  0  0  0  0              0 V3000
M  V30 BEGIN CTAB
M  V30 COUNTS 12 13 0 0 0
M  V30 BEGIN ATOM
M  V30 1 N 0.0 0.0 0.0 0
M  V30 2 C 1.2855 -0.7397 0.0 0
M  V30 3 C 2.5711 -1.4795 0.0 0
M  V30 4 C 3.8566 -0.7034 0.0 0
M  V30 5 C 2.5468 -2.9713 0.0 0
M  V30 6 C 5.1422 -1.4432 0.0 0
M  V30 7 C 3.8324 0.8368 0.0 0
M  V30 8 C 3.8324 -3.7232 0.0 0
M  V30 9 C 5.1179 -2.9349 0.0 0
M  V30 10 C 6.4277 -0.667 0.0 0
M  V30 11 C 5.1179 1.613 0.0 0
M  V30 12 C 6.4035 0.8732 0.0 0
M  V30 END ATOM
M  V30 BEGIN BOND
M  V30 1 3 1 2
M  V30 2 1 2 3
M  V30 3 1 3 4
M  V30 4 2 3 5
M  V30 5 2 4 6
M  V30 6 1 4 7
M  V30 7 1 5 8
M  V30 8 1 6 9
M  V30 9 1 6 10
M  V30 10 2 7 11
M  V30 11 2 10 12
M  V30 12 2 8 9
M  V30 13 1 11 12
M  V30 END BOND
M  V30 END CTAB
M  END
>  <Molecule Name>
1-Naphthonitrile

>  <Database>
PubChem

>  <Reference DOI>
10.3390/toxics11100837

>  <Molecular Target>
Aedes aegypti

>  <PubChem CID>
6846

>  <Smiles>
N#Cc1cccc2c1cccc2

>  <Molecular Formula>
C11H7N

>  <Activity>
1

$$$$
Compound 340
Actelion Java MolfileCreator 2.0

  0  0  0  0  0  0              0 V3000
M  V30 BEGIN CTAB
M  V30 COUNTS 10 10 0 0 0
M  V30 BEGIN ATOM
M  V30 1 O 0.0 0.0 0.0 0
M  V30 2 C -1.4446 -0.642 0.0 0
M  V30 3 C -1.5363 -2.0981 0.0 0
M  V30 4 C -2.981 -2.7402 0.0 0
M  V30 5 C -3.0727 -4.1963 0.0 0
M  V30 6 C -1.8115 -4.8498 0.0 0
M  V30 7 C -4.5173 -4.8498 0.0 0
M  V30 8 C -1.9032 -6.306 0.0 0
M  V30 9 C -4.6091 -6.306 0.0 0
M  V30 10 C -3.3479 -6.948 0.0 0
M  V30 END ATOM
M  V30 BEGIN BOND
M  V30 1 2 1 2
M  V30 2 1 2 3
M  V30 3 2 3 4
M  V30 4 1 4 5
M  V30 5 2 5 6
M  V30 6 1 5 7
M  V30 7 1 6 8
M  V30 8 2 7 9
M  V30 9 2 8 10
M  V30 10 1 9 10
M  V30 END BOND
M  V30 END CTAB
M  END
>  <Molecule Name>
Cinnamaldehyde

>  <Database>
Pubchem

>  <Reference DOI>
10.1186/s13071-017-2122-8

>  <Molecular Target>
Anopheles spp.

>  <PubChem CID>
637511

>  <Smiles>
O=C/C=C/c1ccccc1

>  <Molecular Formula>
C9H8O

>  <Activity>
1

$$$$
Compound 341
Actelion Java MolfileCreator 2.0

  0  0  0  0  0  0              0 V3000
M  V30 BEGIN CTAB
M  V30 COUNTS 7 7 0 0 0
M  V30 BEGIN ATOM
M  V30 1 O 0.0 0.0 0.0 0
M  V30 2 C -0.058 -1.4751 0.0 0
M  V30 3 C 1.2196 -2.1953 0.0 0
M  V30 4 C -1.4519 -2.1953 0.0 0
M  V30 5 C 1.1615 -3.6704 0.0 0
M  V30 6 C -1.5099 -3.6704 0.0 0
M  V30 7 C -0.2323 -4.3906 0.0 0
M  V30 END ATOM
M  V30 BEGIN BOND
M  V30 1 2 1 2
M  V30 2 1 2 3
M  V30 3 1 2 4
M  V30 4 1 3 5
M  V30 5 1 4 6
M  V30 6 1 5 7
M  V30 7 1 6 7
M  V30 END BOND
M  V30 END CTAB
M  END
>  <Molecule Name>
cyclohexanone

>  <Database>
Pubchem

>  <Reference DOI>
10.1021/acs.jafc.2c05537

>  <Molecular Target>
Aedes albopictus

>  <PubChem CID>
7967

>  <Smiles>
O=C1CCCCC1

>  <Molecular Formula>
C6H10O

>  <Activity>
1

$$$$
Compound 342
Actelion Java MolfileCreator 2.0

  0  0  0  0  0  0              0 V3000
M  V30 BEGIN CTAB
M  V30 COUNTS 9 9 0 0 0
M  V30 BEGIN ATOM
M  V30 1 O 0.0 0.0 0.0 0
M  V30 2 C -0.6436 1.3945 0.0 0
M  V30 3 C -2.1573 1.4541 0.0 0
M  V30 4 C 0.3098 2.4672 0.0 0
M  V30 5 C -3.23 2.5268 0.0 0
M  V30 6 C 0.2502 3.9809 0.0 0
M  V30 7 C -3.2896 4.0405 0.0 0
M  V30 8 C -0.8224 5.0536 0.0 0
M  V30 9 C -2.3361 5.1132 0.0 0
M  V30 END ATOM
M  V30 BEGIN BOND
M  V30 1 2 1 2
M  V30 2 1 2 3
M  V30 3 1 2 4
M  V30 4 1 3 5
M  V30 5 1 4 6
M  V30 6 1 5 7
M  V30 7 1 6 8
M  V30 8 1 7 9
M  V30 9 1 8 9
M  V30 END BOND
M  V30 END CTAB
M  END
>  <Molecule Name>
cyclooctanone

>  <Database>
Pubchem

>  <Reference DOI>
10.1021/acs.jafc.2c05537

>  <Molecular Target>
Aedes albopictus

>  <PubChem CID>
10403

>  <Smiles>
O=C1CCCCCCC1

>  <Molecular Formula>
C8H14O

>  <Activity>
1

$$$$
Compound 343
Actelion Java MolfileCreator 2.0

  0  0  0  0  0  0              0 V3000
M  V30 BEGIN CTAB
M  V30 COUNTS 13 13 0 0 0
M  V30 BEGIN ATOM
M  V30 1 O 0.0 0.0 0.0 0
M  V30 2 C -0.0597 1.5177 0.0 0
M  V30 3 C -1.3743 2.2826 0.0 0
M  V30 4 C 1.1353 2.2826 0.0 0
M  V30 5 C -2.689 1.5775 0.0 0
M  V30 6 C 1.0756 3.8004 0.0 0
M  V30 7 C -4.0036 2.3424 0.0 0
M  V30 8 C -0.239 4.5653 0.0 0
M  V30 9 C -4.0633 3.8602 0.0 0
M  V30 10 C -0.2987 6.0831 0.0 0
M  V30 11 C -2.8682 4.625 0.0 0
M  V30 12 C -1.6134 6.8479 0.0 0
M  V30 13 C -2.928 6.1428 0.0 0
M  V30 END ATOM
M  V30 BEGIN BOND
M  V30 1 2 1 2
M  V30 2 1 2 3
M  V30 3 1 2 4
M  V30 4 1 3 5
M  V30 5 1 4 6
M  V30 6 1 5 7
M  V30 7 1 6 8
M  V30 8 1 7 9
M  V30 9 1 8 10
M  V30 10 1 9 11
M  V30 11 1 10 12
M  V30 12 1 11 13
M  V30 13 1 12 13
M  V30 END BOND
M  V30 END CTAB
M  END
>  <Molecule Name>
cyclododecanone

>  <Database>
Pubchem

>  <Reference DOI>
10.1021/acs.jafc.2c05537

>  <Molecular Target>
Aedes albopictus

>  <PubChem CID>
13246

>  <Smiles>
O=C1CCCCCCCCCCC1

>  <Molecular Formula>
C12H22O

>  <Activity>
1

$$$$
Compound 344
Actelion Java MolfileCreator 2.0

  0  0  0  0  0  0              0 V3000
M  V30 BEGIN CTAB
M  V30 COUNTS 8 8 0 0 0
M  V30 BEGIN ATOM
M  V30 1 O 0.0 0.0 0.0 0
M  V30 2 C -1.3583 0.8516 0.0 0
M  V30 3 C -2.7167 0.2587 0.0 0
M  V30 4 C -4.0751 1.1104 0.0 0
M  V30 5 C -2.8029 -1.1104 0.0 0
M  V30 6 C -5.4334 0.5174 0.0 0
M  V30 7 C -4.1613 -1.7033 0.0 0
M  V30 8 C -5.5197 -0.8516 0.0 0
M  V30 END ATOM
M  V30 BEGIN BOND
M  V30 1 2 1 2
M  V30 2 1 2 3
M  V30 3 2 3 4
M  V30 4 1 3 5
M  V30 5 1 4 6
M  V30 6 2 5 7
M  V30 7 2 6 8
M  V30 8 1 7 8
M  V30 END BOND
M  V30 END CTAB
M  END
>  <Molecule Name>
Benzaldehyde

>  <Database>
Pubchem

>  <Reference DOI>
10.1016/j.jchromb.2016.03.014.

>  <Molecular Target>
Rhipicephalus sanguineus

>  <PubChem CID>
240

>  <Smiles>
O=Cc1ccccc1

>  <Molecular Formula>
C7H6O

>  <Activity>
1

$$$$
Compound 345
Actelion Java MolfileCreator 2.0

  0  0  0  0  0  0              0 V3000
M  V30 BEGIN CTAB
M  V30 COUNTS 11 12 0 0 0
M  V30 BEGIN ATOM
M  V30 1 O 0.0 0.0 0.0 0
M  V30 2 C 1.2766 0.7587 0.0 0 CFG=2
M  V30 3 C 1.2525 2.2883 0.0 0
M  V30 4 C 2.5533 0.012 0.0 0
M  V30 5 C 2.5292 3.0591 0.0 0
M  V30 6 C 3.8299 0.7708 0.0 0
M  V30 7 C 3.8058 2.3244 0.0 0
M  V30 8 C 2.5051 4.5887 0.0 0
M  V30 9 C 5.0825 3.0952 0.0 0
M  V30 10 C 3.7817 5.3474 0.0 0
M  V30 11 C 5.0584 4.6248 0.0 0
M  V30 END ATOM
M  V30 BEGIN BOND
M  V30 1 1 2 1 CFG=3
M  V30 2 1 2 3
M  V30 3 1 2 4
M  V30 4 1 3 5
M  V30 5 1 4 6
M  V30 6 2 5 7
M  V30 7 1 5 8
M  V30 8 1 7 9
M  V30 9 2 8 10
M  V30 10 2 9 11
M  V30 11 1 6 7
M  V30 12 1 10 11
M  V30 END BOND
M  V30 BEGIN COLLECTION
M  V30 MDLV30/STERAC1 ATOMS=(1 2)
M  V30 END COLLECTION
M  V30 END CTAB
M  END
>  <Molecule Name>
1,2,3, 4-Tetrahydro-2-naphthol

>  <Database>
PubChem

>  <Reference DOI>
10.3390/toxics11100837

>  <Molecular Target>
Aedes aegypti

>  <PubChem CID>
13561

>  <Smiles>
OC(CC1)Cc2c1cccc2

>  <Molecular Formula>
C10H12O

>  <Activity>
1

$$$$
Compound 346
Actelion Java MolfileCreator 2.0

  0  0  0  0  0  0              0 V3000
M  V30 BEGIN CTAB
M  V30 COUNTS 11 12 0 0 0
M  V30 BEGIN ATOM
M  V30 1 O 0.0 0.0 0.0 0
M  V30 2 C 1.2598 0.7487 0.0 0
M  V30 3 C 2.5197 0.0118 0.0 0
M  V30 4 C 1.236 2.2582 0.0 0
M  V30 5 C 3.7796 0.7606 0.0 0
M  V30 6 C 2.4959 3.0189 0.0 0
M  V30 7 C 3.7558 2.2701 0.0 0
M  V30 8 C 5.087 0.0 0.0 0
M  V30 9 C 5.0632 3.0783 0.0 0
M  V30 10 C 6.4063 0.7725 0.0 0
M  V30 11 C 6.3825 2.3295 0.0 0
M  V30 END ATOM
M  V30 BEGIN BOND
M  V30 1 1 1 2
M  V30 2 1 2 3
M  V30 3 1 2 4
M  V30 4 1 3 5
M  V30 5 1 4 6
M  V30 6 2 5 7
M  V30 7 1 5 8
M  V30 8 1 7 9
M  V30 9 2 8 10
M  V30 10 2 9 11
M  V30 11 1 6 7
M  V30 12 1 10 11
M  V30 END BOND
M  V30 END CTAB
M  END
>  <Molecule Name>
1,2,3,4-Tetrahydro-2-naphthol

>  <Database>
Pubchem

>  <Reference DOI>
10.1186/s13071-017-2122-8

>  <Molecular Target>
Anopheles spp.

>  <PubChem CID>
10747

>  <Smiles>
OC(CC1)Cc2c1cccc2

>  <Molecular Formula>
C10H12O

>  <Activity>
1

$$$$
Compound 347
Actelion Java MolfileCreator 2.0

  0  0  0  0  0  0              0 V3000
M  V30 BEGIN CTAB
M  V30 COUNTS 11 12 0 0 0
M  V30 BEGIN ATOM
M  V30 1 O 0.0 0.0 0.0 0
M  V30 2 C -0.0235 1.4969 0.0 0
M  V30 3 C 1.2258 2.2513 0.0 0
M  V30 4 C -1.3201 2.2513 0.0 0
M  V30 5 C 1.2022 3.7483 0.0 0
M  V30 6 C 2.5224 1.4969 0.0 0
M  V30 7 C -1.3437 3.7483 0.0 0
M  V30 8 C 2.4988 4.5498 0.0 0
M  V30 9 C -0.0942 4.5027 0.0 0
M  V30 10 C 3.8308 2.2631 0.0 0
M  V30 11 C 3.8072 3.8072 0.0 0
M  V30 END ATOM
M  V30 BEGIN BOND
M  V30 1 1 1 2
M  V30 2 1 2 3
M  V30 3 1 2 4
M  V30 4 2 3 5
M  V30 5 1 3 6
M  V30 6 1 4 7
M  V30 7 1 5 8
M  V30 8 1 5 9
M  V30 9 2 6 10
M  V30 10 2 8 11
M  V30 11 1 7 9
M  V30 12 1 10 11
M  V30 END BOND
M  V30 END CTAB
M  END
>  <Molecule Name>
1-Tetralol

>  <Database>
Pubchem

>  <Reference DOI>
10.1186/s13071-017-2122-8

>  <Molecular Target>
Anopheles spp.

>  <PubChem CID>
10723

>  <Smiles>
OC(CCC1)c2c1cccc2

>  <Molecular Formula>
C10H12O

>  <Activity>
1

$$$$
Compound 348
Actelion Java MolfileCreator 2.0

  0  0  0  0  0  0              0 V3000
M  V30 BEGIN CTAB
M  V30 COUNTS 13 14 0 0 0
M  V30 BEGIN ATOM
M  V30 1 O 0.0 0.0 0.0 0
M  V30 2 C -0.0241 -1.4867 0.0 0
M  V30 3 C 1.2571 -2.2362 0.0 0
M  V30 4 C -1.3538 -2.2241 0.0 0
M  V30 5 C 2.5384 -1.4626 0.0 0
M  V30 6 C 1.2329 -3.7229 0.0 0
M  V30 7 C -1.3779 -3.7109 0.0 0
M  V30 8 C 3.8196 -2.212 0.0 0
M  V30 9 C 2.5142 0.0725 0.0 0
M  V30 10 C -0.0967 -4.4603 0.0 0
M  V30 11 C 5.1009 -1.4384 0.0 0
M  V30 12 C 3.7955 0.8461 0.0 0
M  V30 13 C 5.0768 0.0967 0.0 0
M  V30 END ATOM
M  V30 BEGIN BOND
M  V30 1 1 1 2
M  V30 2 1 2 3
M  V30 3 1 2 4
M  V30 4 1 3 5
M  V30 5 1 3 6
M  V30 6 1 4 7
M  V30 7 2 5 8
M  V30 8 1 5 9
M  V30 9 1 6 10
M  V30 10 1 8 11
M  V30 11 1 9 12
M  V30 12 1 11 13
M  V30 13 1 7 10
M  V30 14 1 12 13
M  V30 END BOND
M  V30 END CTAB
M  END
>  <Molecule Name>
2-Cyclohexenyl cyclohexanol

>  <Database>
PubChem

>  <Reference DOI>
10.3390/toxics11100837

>  <Molecular Target>
Aedes aegypti

>  <PubChem CID>
2771870

>  <Smiles>
OC(CCCC1)C1C1=CCCCC1

>  <Molecular Formula>
C12H20O

>  <Activity>
1

$$$$
Compound 349
Actelion Java MolfileCreator 2.0

  0  0  0  0  0  0              0 V3000
M  V30 BEGIN CTAB
M  V30 COUNTS 13 14 0 0 0
M  V30 BEGIN ATOM
M  V30 1 O 0.0 0.0 0.0 0
M  V30 2 C -0.0241 -1.4867 0.0 0
M  V30 3 C 1.2571 -2.2362 0.0 0
M  V30 4 C -1.3538 -2.2241 0.0 0
M  V30 5 C 2.5384 -1.4626 0.0 0
M  V30 6 C 1.2329 -3.7229 0.0 0
M  V30 7 C -1.3779 -3.7109 0.0 0
M  V30 8 C 3.8196 -2.212 0.0 0
M  V30 9 C 2.5142 0.0725 0.0 0
M  V30 10 C -0.0967 -4.4603 0.0 0
M  V30 11 C 5.1009 -1.4384 0.0 0
M  V30 12 C 3.7955 0.8461 0.0 0
M  V30 13 C 5.0768 0.0967 0.0 0
M  V30 END ATOM
M  V30 BEGIN BOND
M  V30 1 1 1 2
M  V30 2 1 2 3
M  V30 3 1 2 4
M  V30 4 1 3 5
M  V30 5 1 3 6
M  V30 6 1 4 7
M  V30 7 1 5 8
M  V30 8 1 5 9
M  V30 9 1 6 10
M  V30 10 1 8 11
M  V30 11 1 9 12
M  V30 12 1 11 13
M  V30 13 1 7 10
M  V30 14 1 12 13
M  V30 END BOND
M  V30 END CTAB
M  END
>  <Molecule Name>
2-Cyclohexylcyclohexanol

>  <Database>
PubChem

>  <Reference DOI>
10.3390/toxics11100837

>  <Molecular Target>
Aedes aegypti

>  <PubChem CID>
94327

>  <Smiles>
OC(CCCC1)C1C1CCCCC1

>  <Molecular Formula>
C12H22O

>  <Activity>
1

$$$$
Compound 350
Actelion Java MolfileCreator 2.0

  0  0  0  0  0  0              0 V3000
M  V30 BEGIN CTAB
M  V30 COUNTS 13 14 0 0 0
M  V30 BEGIN ATOM
M  V30 1 O 0.0 0.0 0.0 0
M  V30 2 C -0.0241 -1.4867 0.0 0
M  V30 3 C 1.2571 -2.2362 0.0 0
M  V30 4 C -1.3538 -2.2241 0.0 0
M  V30 5 C 2.5384 -1.4626 0.0 0
M  V30 6 C 1.2329 -3.7229 0.0 0
M  V30 7 C -1.3779 -3.7109 0.0 0
M  V30 8 C 3.8196 -2.212 0.0 0
M  V30 9 C 2.5142 0.0725 0.0 0
M  V30 10 C -0.0967 -4.4603 0.0 0
M  V30 11 C 5.1009 -1.4384 0.0 0
M  V30 12 C 3.7955 0.8461 0.0 0
M  V30 13 C 5.0768 0.0967 0.0 0
M  V30 END ATOM
M  V30 BEGIN BOND
M  V30 1 1 1 2
M  V30 2 1 2 3
M  V30 3 1 2 4
M  V30 4 1 3 5
M  V30 5 1 3 6
M  V30 6 1 4 7
M  V30 7 2 5 8
M  V30 8 1 5 9
M  V30 9 1 6 10
M  V30 10 1 8 11
M  V30 11 2 9 12
M  V30 12 2 11 13
M  V30 13 1 7 10
M  V30 14 1 12 13
M  V30 END BOND
M  V30 END CTAB
M  END
>  <Molecule Name>
2-Phenylcyclohexanol

>  <Database>
PubChem

>  <Reference DOI>
10.3390/toxics11100837

>  <Molecular Target>
Aedes aegypti

>  <PubChem CID>
15046

>  <Smiles>
OC(CCCC1)C1c1ccccc1

>  <Molecular Formula>
C12H16O

>  <Activity>
1

$$$$
Compound 351
Actelion Java MolfileCreator 2.0

  0  0  0  0  0  0              0 V3000
M  V30 BEGIN CTAB
M  V30 COUNTS 14 15 0 0 0
M  V30 BEGIN ATOM
M  V30 1 O 0.0 0.0 0.0 0
M  V30 2 C 0.7184 -1.2955 0.0 0
M  V30 3 C -0.6241 -2.0139 0.0 0
M  V30 4 C 2.0139 -2.0139 0.0 0
M  V30 5 C 1.4368 0.0471 0.0 0
M  V30 6 C -0.6477 -3.5096 0.0 0
M  V30 7 C 1.9903 -3.5096 0.0 0
M  V30 8 C 2.9325 0.0706 0.0 0
M  V30 9 C 0.6477 -4.228 0.0 0
M  V30 10 C 3.6509 1.4132 0.0 0
M  V30 11 C 3.6509 -1.2248 0.0 0
M  V30 12 C 5.1466 1.4368 0.0 0
M  V30 13 C 5.1466 -1.2012 0.0 0
M  V30 14 C 5.865 0.1413 0.0 0
M  V30 END ATOM
M  V30 BEGIN BOND
M  V30 1 1 1 2
M  V30 2 1 2 3
M  V30 3 1 2 4
M  V30 4 1 2 5
M  V30 5 1 3 6
M  V30 6 1 4 7
M  V30 7 1 5 8
M  V30 8 1 6 9
M  V30 9 2 8 10
M  V30 10 1 8 11
M  V30 11 1 10 12
M  V30 12 2 11 13
M  V30 13 2 12 14
M  V30 14 1 7 9
M  V30 15 1 13 14
M  V30 END BOND
M  V30 END CTAB
M  END
>  <Molecule Name>
1-benzylcyclohexan-1-ol

>  <Database>
Pubchem

>  <Reference DOI>
10.1371/annotation/1dc83f26-8045-4b63-8a86-24c7b71a7f79

>  <Molecular Target>
Aedes aegypti

>  <PubChem CID>
74753

>  <Smiles>
OC1(Cc2ccccc2)CCCCC1

>  <Molecular Formula>
C13H18O

>  <Activity>
1

$$$$
Compound 352
Actelion Java MolfileCreator 2.0

  0  0  0  0  0  0              0 V3000
M  V30 BEGIN CTAB
M  V30 COUNTS 13 14 0 0 0
M  V30 BEGIN ATOM
M  V30 1 O 0.0 0.0 0.0 0
M  V30 2 C 1.2748 0.7577 0.0 0
M  V30 3 C 2.5497 0.024 0.0 0
M  V30 4 C 3.8246 0.7937 0.0 0
M  V30 5 C 3.8005 2.3212 0.0 0
M  V30 6 C 5.0994 0.0601 0.0 0
M  V30 7 C 5.0754 3.0789 0.0 0
M  V30 8 C 2.4775 3.0909 0.0 0
M  V30 9 C 6.3743 0.8298 0.0 0
M  V30 10 C 6.3503 2.3452 0.0 0
M  V30 11 C 5.0513 4.6063 0.0 0
M  V30 12 C 2.4535 4.6184 0.0 0
M  V30 13 C 3.7284 5.3761 0.0 0
M  V30 END ATOM
M  V30 BEGIN BOND
M  V30 1 1 1 2
M  V30 2 1 2 3
M  V30 3 1 3 4
M  V30 4 2 4 5
M  V30 5 1 4 6
M  V30 6 1 5 7
M  V30 7 1 5 8
M  V30 8 2 6 9
M  V30 9 2 7 10
M  V30 10 1 7 11
M  V30 11 1 8 12
M  V30 12 1 11 13
M  V30 13 1 9 10
M  V30 14 1 12 13
M  V30 END BOND
M  V30 END CTAB
M  END
>  <Molecule Name>
beta-(1,2,3,4-Tetrahydro-5-naphthyl) ethanol

>  <Database>
PubChem

>  <Reference DOI>
10.3390/toxics11100837

>  <Molecular Target>
Aedes aegypti

>  <PubChem CID>
68827013

>  <Smiles>
OCCc1c(CCCC2)c2ccc1

>  <Molecular Formula>
C12H16O

>  <Activity>
1

$$$$
Compound 353
Actelion Java MolfileCreator 2.0

  0  0  0  0  0  0              0 V3000
M  V30 BEGIN CTAB
M  V30 COUNTS 10 11 0 0 0
M  V30 BEGIN ATOM
M  V30 1 C 0.0 0.0 0.0 0
M  V30 2 C -0.0723 -1.0491 0.0 0
M  V30 3 C 1.23 1.1215 0.0 0
M  V30 4 C -1.0853 0.7597 0.0 0
M  V30 5 C 2.659 1.2481 0.0 0
M  V30 6 C 0.5607 3.4188 0.0 0
M  V30 7 C -0.8682 1.9174 0.0 0
M  V30 8 C 1.3205 2.4058 0.0 0
M  V30 9 C 3.1475 0.3436 0.0 0
M  V30 10 C 3.5635 1.9536 0.0 0
M  V30 END ATOM
M  V30 BEGIN BOND
M  V30 1 2 1 2
M  V30 2 1 1 3
M  V30 3 1 1 4
M  V30 4 1 3 5
M  V30 5 1 3 6
M  V30 6 1 4 7
M  V30 7 1 5 8
M  V30 8 1 5 9
M  V30 9 1 5 10
M  V30 10 1 6 8
M  V30 11 1 7 8
M  V30 END BOND
M  V30 END CTAB
M  END
>  <Molecule Name>
β-pinene

>  <Database>
Pubchem

>  <Reference DOI>
10.3390/molecules22061004

>  <Molecular Target>
Aedes albopictus

>  <PubChem CID>
57393761

>  <Smiles>
CC(C)(C(C1)CC2)C1C2=C

>  <Molecular Formula>
C10H16

>  <Activity>
1

$$$$
Compound 354
Actelion Java MolfileCreator 2.0

  0  0  0  0  0  0              0 V3000
M  V30 BEGIN CTAB
M  V30 COUNTS 15 16 0 0 0
M  V30 BEGIN ATOM
M  V30 1 C 0.0 0.0 0.0 0
M  V30 2 C -0.0978 1.5539 0.0 0
M  V30 3 C -1.3581 -0.624 0.0 0 CFG=2
M  V30 4 C 1.1746 -0.624 0.0 0
M  V30 5 C -2.8631 -0.1468 0.0 0 CFG=2
M  V30 6 C -1.0767 0.8931 0.0 0
M  V30 7 C 1.2847 -2.0922 0.0 0
M  V30 8 C -2.5939 1.3703 0.0 0
M  V30 9 C -3.3403 -1.456 0.0 0
M  V30 10 C -0.0856 -2.7163 0.0 0
M  V30 11 C -2.3247 2.8753 0.0 0
M  V30 12 C -4.0989 1.8353 0.0 0
M  V30 13 C -2.7163 -2.6184 0.0 0
M  V30 14 C -1.4438 -1.9332 0.0 0
M  V30 15 C -1.5416 -0.3793 0.0 0
M  V30 END ATOM
M  V30 BEGIN BOND
M  V30 1 2 1 2
M  V30 2 1 3 1 CFG=3
M  V30 3 1 1 4
M  V30 4 1 3 5
M  V30 5 1 3 6
M  V30 6 1 4 7
M  V30 7 1 5 8
M  V30 8 1 5 9 CFG=1
M  V30 9 1 7 10
M  V30 10 1 8 11
M  V30 11 1 8 12
M  V30 12 1 9 13
M  V30 13 2 10 14
M  V30 14 1 14 15
M  V30 15 1 6 8
M  V30 16 1 13 14
M  V30 END BOND
M  V30 BEGIN COLLECTION
M  V30 MDLV30/STEABS ATOMS=(2 3 5)
M  V30 END COLLECTION
M  V30 END CTAB
M  END
>  <Molecule Name>
Caryophyllene

>  <Database>
Pubchem

>  <Reference DOI>
10.1186/s13071-017-2122-8

>  <Molecular Target>
Anopheles spp.

>  <PubChem CID>
5281515

>  <Smiles>
CC(C)(C1)[C@H](CC/C(\C)=C/CC2)[C@H]1C2=C

>  <Molecular Formula>
C15H24

>  <Activity>
1

$$$$
Compound 355
Actelion Java MolfileCreator 2.0

  0  0  0  0  0  0              0 V3000
M  V30 BEGIN CTAB
M  V30 COUNTS 15 14 0 0 0
M  V30 BEGIN ATOM
M  V30 1 C 0.0 0.0 0.0 0
M  V30 2 C 1.2272 0.8144 0.0 0
M  V30 3 C -0.0557 -1.4168 0.0 0
M  V30 4 C -1.3388 0.8144 0.0 0
M  V30 5 C 2.4544 0.1004 0.0 0
M  V30 6 C -2.6776 0.1004 0.0 0
M  V30 7 C -4.0164 0.9148 0.0 0
M  V30 8 C -5.3552 0.2342 0.0 0
M  V30 9 C -6.694 1.0487 0.0 0
M  V30 10 C -5.4109 -1.1826 0.0 0
M  V30 11 C -8.0328 0.357 0.0 0
M  V30 12 C -9.3716 1.1714 0.0 0
M  V30 13 C -10.7104 0.5132 0.0 0
M  V30 14 C -12.0492 1.3276 0.0 0
M  V30 15 C -10.7661 -0.9036 0.0 0
M  V30 END ATOM
M  V30 BEGIN BOND
M  V30 1 1 1 2
M  V30 2 2 1 3
M  V30 3 1 1 4
M  V30 4 2 2 5
M  V30 5 1 4 6
M  V30 6 1 6 7
M  V30 7 2 7 8 CFG=2
M  V30 8 1 8 9
M  V30 9 1 8 10
M  V30 10 1 9 11
M  V30 11 1 11 12
M  V30 12 2 12 13
M  V30 13 1 13 14
M  V30 14 1 13 15
M  V30 END BOND
M  V30 END CTAB
M  END
>  <Molecule Name>
(E)-β-farnesene

>  <Database>
Pubchem

>  <Reference DOI>
10.1021/acs.jafc.4c04326

>  <Molecular Target>
Myzus persicae

>  <PubChem CID>
10407

>  <Smiles>
CC(C)=CCCC(C)=CCCC(C=C)=C

>  <Molecular Formula>
C15H24

>  <Activity>
1

$$$$
Compound 356
Actelion Java MolfileCreator 2.0

  0  0  0  0  0  0              0 V3000
M  V30 BEGIN CTAB
M  V30 COUNTS 10 9 0 0 0
M  V30 BEGIN ATOM
M  V30 1 C 0.0 0.0 0.0 0
M  V30 2 C -1.3938 0.8568 0.0 0
M  V30 3 C -0.0685 -1.451 0.0 0
M  V30 4 C 1.2567 0.8568 0.0 0
M  V30 5 C -2.7877 0.1828 0.0 0
M  V30 6 C 2.5135 0.1828 0.0 0
M  V30 7 C 3.7703 1.0396 0.0 0
M  V30 8 C 5.0271 0.377 0.0 0
M  V30 9 C 6.2838 1.2339 0.0 0
M  V30 10 C 4.9585 -1.0739 0.0 0
M  V30 END ATOM
M  V30 BEGIN BOND
M  V30 1 1 1 2
M  V30 2 2 1 3
M  V30 3 1 1 4
M  V30 4 2 2 5
M  V30 5 1 4 6
M  V30 6 1 6 7
M  V30 7 2 7 8
M  V30 8 1 8 9
M  V30 9 1 8 10
M  V30 END BOND
M  V30 END CTAB
M  END
>  <Molecule Name>
Myrcene

>  <Database>
Pubchem

>  <Reference DOI>
10.1186/s13071-017-2122-8

>  <Molecular Target>
Anopheles spp.

>  <PubChem CID>
31253

>  <Smiles>
CC(C)=CCCC(C=C)=C

>  <Molecular Formula>
C10H16

>  <Activity>
1

$$$$
Compound 357
Actelion Java MolfileCreator 2.0

  0  0  0  0  0  0              0 V3000
M  V30 BEGIN CTAB
M  V30 COUNTS 10 9 0 0 0
M  V30 BEGIN ATOM
M  V30 1 C 0.0 0.0 0.0 0
M  V30 2 C -0.0569 -1.447 0.0 0
M  V30 3 C -1.3673 0.8317 0.0 0
M  V30 4 C 1.2533 0.8317 0.0 0
M  V30 5 C -2.7346 0.1595 0.0 0
M  V30 6 C 2.5067 0.1595 0.0 0
M  V30 7 C -4.1019 0.9913 0.0 0
M  V30 8 C -2.7916 -1.2875 0.0 0
M  V30 9 C 3.7601 0.9913 0.0 0
M  V30 10 C 2.4497 -1.2875 0.0 0
M  V30 END ATOM
M  V30 BEGIN BOND
M  V30 1 2 1 2
M  V30 2 1 1 3
M  V30 3 1 1 4
M  V30 4 1 3 5
M  V30 5 1 4 6
M  V30 6 1 5 7
M  V30 7 1 5 8
M  V30 8 1 6 9
M  V30 9 1 6 10
M  V30 END BOND
M  V30 END CTAB
M  END
>  <Molecule Name>
2,6-dimethyl-4-methylideneheptane

>  <Database>
Pubchem

>  <Reference DOI>
10.1021/acs.jafc.2c05537

>  <Molecular Target>
Aedes albopictus

>  <PubChem CID>
12697191

>  <Smiles>
CC(C)CC(CC(C)C)=C

>  <Molecular Formula>
C10H20

>  <Activity>
1

$$$$
Compound 358
Actelion Java MolfileCreator 2.0

  0  0  0  0  0  0              0 V3000
M  V30 BEGIN CTAB
M  V30 COUNTS 15 15 0 0 0
M  V30 BEGIN ATOM
M  V30 1 C 0.0 0.0 0.0 0
M  V30 2 C 1.2737 0.7716 0.0 0
M  V30 3 C -1.3472 0.7716 0.0 0
M  V30 4 C -0.0367 -1.482 0.0 0
M  V30 5 C 2.5475 0.0244 0.0 0
M  V30 6 C 1.237 -2.2291 0.0 0
M  V30 7 C 3.8213 0.8206 0.0 0 CFG=2
M  V30 8 C 2.5108 -1.4452 0.0 0
M  V30 9 C 3.7846 2.3761 0.0 0
M  V30 10 C 5.0951 0.0734 0.0 0
M  V30 11 C 3.7846 -2.1923 0.0 0
M  V30 12 C 5.0584 3.1599 0.0 0
M  V30 13 C 2.4373 3.1599 0.0 0
M  V30 14 C 5.0584 -1.4085 0.0 0
M  V30 15 C 3.7478 -3.6744 0.0 0
M  V30 END ATOM
M  V30 BEGIN BOND
M  V30 1 1 1 2
M  V30 2 2 1 3
M  V30 3 1 1 4
M  V30 4 2 2 5
M  V30 5 1 4 6
M  V30 6 1 5 7
M  V30 7 1 6 8
M  V30 8 1 7 9 CFG=3
M  V30 9 1 7 10
M  V30 10 2 8 11
M  V30 11 1 9 12
M  V30 12 1 9 13
M  V30 13 1 10 14
M  V30 14 1 11 15
M  V30 15 1 11 14
M  V30 END BOND
M  V30 BEGIN COLLECTION
M  V30 MDLV30/STEABS ATOMS=(1 7)
M  V30 END COLLECTION
M  V30 END CTAB
M  END
>  <Molecule Name>
germacrene-D

>  <Database>
Pubchem

>  <Reference DOI>
10.3390/molecules26113072

>  <Molecular Target>
Aedes albopictus

>  <PubChem CID>
5317570

>  <Smiles>
CC(C)[C@H](CC/C(\C)=C/CC1)/C=C/C1=C

>  <Molecular Formula>
C15H24

>  <Activity>
1

$$$$
Compound 359
Actelion Java MolfileCreator 2.0

  0  0  0  0  0  0              0 V3000
M  V30 BEGIN CTAB
M  V30 COUNTS 10 10 0 0 0
M  V30 BEGIN ATOM
M  V30 1 C 0.0 0.0 0.0 0
M  V30 2 C 1.1595 0.7894 0.0 0
M  V30 3 C -1.3569 0.7894 0.0 0
M  V30 4 C -0.0986 -1.3692 0.0 0
M  V30 5 C 1.0608 2.3561 0.0 0
M  V30 6 C -1.4556 2.3561 0.0 0
M  V30 7 C -0.296 3.1455 0.0 0 CFG=1
M  V30 8 C -0.3947 4.7122 0.0 0
M  V30 9 C -1.7516 5.5016 0.0 0
M  V30 10 C 0.7648 5.5016 0.0 0
M  V30 END ATOM
M  V30 BEGIN BOND
M  V30 1 2 1 2
M  V30 2 1 1 3
M  V30 3 1 1 4
M  V30 4 1 2 5
M  V30 5 1 3 6
M  V30 6 1 5 7
M  V30 7 1 7 8 CFG=1
M  V30 8 2 8 9
M  V30 9 1 8 10
M  V30 10 1 6 7
M  V30 END BOND
M  V30 BEGIN COLLECTION
M  V30 MDLV30/STEABS ATOMS=(1 7)
M  V30 END COLLECTION
M  V30 END CTAB
M  END
>  <Molecule Name>
Limonene, (+)-
D-Limonene

>  <Database>
Pubchem

>  <Reference DOI>
10.1007/s13744-016-0402-1

>  <Molecular Target>
Tribolium confusum

>  <PubChem CID>
440917

>  <Smiles>
CC([C@H]1CC=C(C)CC1)=C

>  <Molecular Formula>
C10H16

>  <Activity>
1

$$$$
Compound 360
Actelion Java MolfileCreator 2.0

  0  0  0  0  0  0              0 V3000
M  V30 BEGIN CTAB
M  V30 COUNTS 10 11 0 0 0
M  V30 BEGIN ATOM
M  V30 1 C 0.0 0.0 0.0 0
M  V30 2 C -1.0615 0.7504 0.0 0
M  V30 3 C 1.2628 1.0981 0.0 0
M  V30 4 C -0.0732 -1.0249 0.0 0
M  V30 5 C -0.8602 1.9217 0.0 0
M  V30 6 C 2.727 1.2262 0.0 0
M  V30 7 C 0.6039 3.4225 0.0 0
M  V30 8 C 1.336 2.3793 0.0 0
M  V30 9 C 3.1846 0.3477 0.0 0
M  V30 10 C 3.6056 1.9034 0.0 0
M  V30 END ATOM
M  V30 BEGIN BOND
M  V30 1 2 1 2
M  V30 2 1 1 3
M  V30 3 1 1 4
M  V30 4 1 2 5
M  V30 5 1 3 6
M  V30 6 1 3 7
M  V30 7 1 5 8
M  V30 8 1 6 9
M  V30 9 1 6 10
M  V30 10 1 6 8
M  V30 11 1 7 8
M  V30 END BOND
M  V30 END CTAB
M  END
>  <Molecule Name>
α-pinene

>  <Database>
Pubchem

>  <Reference DOI>
10.1016/j.phytochem.2015.07.004

>  <Molecular Target>
Musca domestica

>  <PubChem CID>
2723720

>  <Smiles>
CC1(C)C2C(C)=CCC1C2

>  <Molecular Formula>
C10H16

>  <Activity>
1

$$$$
Compound 361
Actelion Java MolfileCreator 2.0

  0  0  0  0  0  0              0 V3000
M  V30 BEGIN CTAB
M  V30 COUNTS 10 11 0 0 0
M  V30 BEGIN ATOM
M  V30 1 C 0.0 0.0 0.0 0
M  V30 2 C -1.5709 0.018 0.0 0
M  V30 3 C -1.282 1.1194 0.0 0
M  V30 4 C 0.5236 -0.9389 0.0 0
M  V30 5 C 0.9389 0.5958 0.0 0
M  V30 6 C -2.9431 -0.9208 0.0 0
M  V30 7 C -2.1487 2.2209 0.0 0
M  V30 8 C -3.5751 0.8125 0.0 0
M  V30 9 C -3.9182 -0.2527 0.0 0
M  V30 10 C -2.9431 -2.0042 0.0 0
M  V30 END ATOM
M  V30 BEGIN BOND
M  V30 1 1 1 2
M  V30 2 1 1 3
M  V30 3 1 1 4
M  V30 4 1 1 5
M  V30 5 1 2 6
M  V30 6 1 2 7
M  V30 7 1 3 8
M  V30 8 1 6 9
M  V30 9 1 6 10
M  V30 10 1 3 7
M  V30 11 1 8 9
M  V30 END BOND
M  V30 END CTAB
M  END
>  <Molecule Name>
Pinane

>  <Database>
Pubchem

>  <Reference DOI>
10.1186/s13071-017-2122-8

>  <Molecular Target>
Anopheles spp.

>  <PubChem CID>
10129

>  <Smiles>
CC1C(C2)C(C)(C)C2CC1

>  <Molecular Formula>
C10H18

>  <Activity>
1

$$$$
Compound 362
Actelion Java MolfileCreator 2.0

  0  0  0  0  0  0              0 V3000
M  V30 BEGIN CTAB
M  V30 COUNTS 8 7 0 0 0
M  V30 BEGIN ATOM
M  V30 1 C 0.0 0.0 0.0 0
M  V30 2 C -0.0564 -1.4329 0.0 0
M  V30 3 C -1.3539 0.8236 0.0 0
M  V30 4 C 1.2411 0.8236 0.0 0
M  V30 5 C -2.7079 0.1579 0.0 0
M  V30 6 C 2.4822 0.1579 0.0 0
M  V30 7 C -4.0618 0.9816 0.0 0
M  V30 8 C 3.7234 0.9816 0.0 0
M  V30 END ATOM
M  V30 BEGIN BOND
M  V30 1 2 1 2
M  V30 2 1 1 3
M  V30 3 1 1 4
M  V30 4 1 3 5
M  V30 5 1 4 6
M  V30 6 1 5 7
M  V30 7 1 6 8
M  V30 END BOND
M  V30 END CTAB
M  END
>  <Molecule Name>
4-methylideneheptane

>  <Database>
Pubchem

>  <Reference DOI>
10.1021/acs.jafc.2c05537

>  <Molecular Target>
Aedes albopictus

>  <PubChem CID>
519193

>  <Smiles>
CCCC(CCC)=C

>  <Molecular Formula>
C8H16

>  <Activity>
1

$$$$
Compound 363
Actelion Java MolfileCreator 2.0

  0  0  0  0  0  0              0 V3000
M  V30 BEGIN CTAB
M  V30 COUNTS 9 8 0 0 0
M  V30 BEGIN ATOM
M  V30 1 C 0.0 0.0 0.0 0
M  V30 2 C -0.0571 -1.4517 0.0 0
M  V30 3 C 1.2573 0.8344 0.0 0
M  V30 4 C -1.3716 0.8344 0.0 0
M  V30 5 C 2.5147 0.1371 0.0 0
M  V30 6 C -2.7433 0.1371 0.0 0
M  V30 7 C 3.7721 0.9716 0.0 0
M  V30 8 C 5.0295 0.2743 0.0 0
M  V30 9 C 6.2869 1.1087 0.0 0
M  V30 END ATOM
M  V30 BEGIN BOND
M  V30 1 2 1 2
M  V30 2 1 1 3
M  V30 3 1 1 4
M  V30 4 1 3 5
M  V30 5 1 4 6
M  V30 6 1 5 7
M  V30 7 1 7 8
M  V30 8 1 8 9
M  V30 END BOND
M  V30 END CTAB
M  END
>  <Molecule Name>
3-methylideneoctane

>  <Database>
Pubchem

>  <Reference DOI>
10.1021/acs.jafc.2c05537

>  <Molecular Target>
Aedes albopictus

>  <PubChem CID>
13383766

>  <Smiles>
CCCCCC(CC)=C

>  <Molecular Formula>
C9H18

>  <Activity>
1

$$$$
Compound 364
Actelion Java MolfileCreator 2.0

  0  0  0  0  0  0              0 V3000
M  V30 BEGIN CTAB
M  V30 COUNTS 10 9 0 0 0
M  V30 BEGIN ATOM
M  V30 1 C 0.0 0.0 0.0 0
M  V30 2 C 1.2218 0.7623 0.0 0
M  V30 3 C -1.3262 0.7623 0.0 0
M  V30 4 C -2.6525 0.0939 0.0 0
M  V30 5 C -3.9788 0.8563 0.0 0
M  V30 6 C -5.3051 0.1879 0.0 0
M  V30 7 C -6.6314 0.9503 0.0 0
M  V30 8 C -7.9577 0.2819 0.0 0
M  V30 9 C -9.284 1.0443 0.0 0
M  V30 10 C -10.6102 0.3759 0.0 0
M  V30 END ATOM
M  V30 BEGIN BOND
M  V30 1 2 1 2
M  V30 2 1 1 3
M  V30 3 1 3 4
M  V30 4 1 4 5
M  V30 5 1 5 6
M  V30 6 1 6 7
M  V30 7 1 7 8
M  V30 8 1 8 9
M  V30 9 1 9 10
M  V30 END BOND
M  V30 END CTAB
M  END
>  <Molecule Name>
dec-1-ene

>  <Database>
Pubchem

>  <Reference DOI>
10.1021/acs.jafc.2c05537

>  <Molecular Target>
Aedes albopictus

>  <PubChem CID>
13381

>  <Smiles>
CCCCCCCCC=C

>  <Molecular Formula>
C10H20

>  <Activity>
1

$$$$
Compound 365
Actelion Java MolfileCreator 2.0

  0  0  0  0  0  0              0 V3000
M  V30 BEGIN CTAB
M  V30 COUNTS 15 16 0 0 0
M  V30 BEGIN ATOM
M  V30 1 C 0.0 0.0 0.0 0
M  V30 2 C 1.3048 0.8259 0.0 0
M  V30 3 C -0.0239 -1.4604 0.0 0 CFG=2
M  V30 4 C -1.3167 0.7661 0.0 0
M  V30 5 C 2.6215 0.0957 0.0 0
M  V30 6 C 1.2808 -2.2385 0.0 0 CFG=1
M  V30 7 C -1.3407 -2.1666 0.0 0
M  V30 8 C -0.0478 -2.9208 0.0 0
M  V30 9 C -2.6335 0.0598 0.0 0
M  V30 10 C 2.5976 -1.4245 0.0 0
M  V30 11 C 1.2449 -3.6989 0.0 0
M  V30 12 C -2.6574 -1.4125 0.0 0 CFG=1
M  V30 13 C -3.9742 -2.1188 0.0 0
M  V30 14 C -3.9982 -3.5792 0.0 0
M  V30 15 C -5.291 -1.3526 0.0 0
M  V30 END ATOM
M  V30 BEGIN BOND
M  V30 1 2 1 2
M  V30 2 1 1 3
M  V30 3 1 1 4
M  V30 4 1 2 5
M  V30 5 1 3 6
M  V30 6 1 3 7
M  V30 7 1 3 8 CFG=1
M  V30 8 1 4 9
M  V30 9 1 5 10
M  V30 10 1 6 11 CFG=1
M  V30 11 1 7 12
M  V30 12 1 12 13 CFG=3
M  V30 13 2 13 14
M  V30 14 1 13 15
M  V30 15 1 6 10
M  V30 16 1 9 12
M  V30 END BOND
M  V30 BEGIN COLLECTION
M  V30 MDLV30/STEABS ATOMS=(3 3 6 12)
M  V30 END COLLECTION
M  V30 END CTAB
M  END
>  <Molecule Name>
Valencene

>  <Database>
Pubchem

>  <Reference DOI>
10.1186/s13071-017-2122-8

>  <Molecular Target>
Anopheles spp.

>  <PubChem CID>
9855795

>  <Smiles>
C[C@H]1[C@](C)(C[C@@H](CC2)C(C)=C)C2=CCC1

>  <Molecular Formula>
C15H24

>  <Activity>
1

$$$$
Compound 366
Actelion Java MolfileCreator 2.0

  0  0  0  0  0  0              0 V3000
M  V30 BEGIN CTAB
M  V30 COUNTS 16 15 0 0 0
M  V30 BEGIN ATOM
M  V30 1 C 0.0 0.0 0.0 0
M  V30 2 C -1.5562 0.9146 0.0 0
M  V30 3 C 1.5016 0.9146 0.0 0
M  V30 4 C -0.0273 -1.7337 0.0 0
M  V30 5 C -3.1125 0.0819 0.0 0
M  V30 6 H 2.4299 1.4743 0.0 0 MASS=2
M  V30 7 H 2.0067 -0.0136 0.0 0 MASS=2
M  V30 8 H 0.9419 1.8975 0.0 0 MASS=2
M  V30 9 H -0.0546 -2.8122 0.0 0 MASS=2
M  V30 10 H -1.1603 -1.7064 0.0 0 MASS=2
M  V30 11 H 1.0511 -1.7064 0.0 0 MASS=2
M  V30 12 C -4.6688 0.9965 0.0 0
M  V30 13 C -6.2251 0.1638 0.0 0
M  V30 14 C -7.7814 1.0784 0.0 0
M  V30 15 C -6.2524 -1.5699 0.0 0
M  V30 16 C -9.3377 0.2457 0.0 0
M  V30 END ATOM
M  V30 BEGIN BOND
M  V30 1 2 1 2
M  V30 2 1 1 3
M  V30 3 1 1 4
M  V30 4 1 2 5
M  V30 5 1 3 6
M  V30 6 1 3 7
M  V30 7 1 3 8
M  V30 8 1 4 9
M  V30 9 1 4 10
M  V30 10 1 4 11
M  V30 11 1 5 12
M  V30 12 1 12 13
M  V30 13 1 13 14
M  V30 14 2 13 15
M  V30 15 2 14 16
M  V30 END BOND
M  V30 END CTAB
M  END
>  <Molecule Name>
beta-Myrcene-d6

>  <Database>
Pubchem

>  <Reference DOI>
10.1186/s13071-017-2122-8

>  <Molecular Target>
Anopheles spp.

>  <PubChem CID>
46782411

>  <Smiles>
[2H]C([2H])([2H])C(C([2H])([2H])[2H])=CCCC(C=C)=C

>  <Molecular Formula>
C10H10D6

>  <Activity>
1

$$$$
Compound 367
Actelion Java MolfileCreator 2.0

  0  0  0  0  0  0              0 V3000
M  V30 BEGIN CTAB
M  V30 COUNTS 11 11 0 0 0
M  V30 BEGIN ATOM
M  V30 1 O 0.0 0.4999 0.0 0
M  V30 2 C 0.866 1.0 0.0 0 CFG=2
M  V30 3 C 0.866 0.0 0.0 0
M  V30 4 C 1.732 1.4999 0.0 0
M  V30 5 C 0.0 1.4999 0.0 0
M  V30 6 C 1.732 -0.5 0.0 0
M  V30 7 C 0.0 -0.5 0.0 0
M  V30 8 C 1.732 2.5 0.0 0
M  V30 9 C 0.0 2.5 0.0 0
M  V30 10 C 0.866 3.0 0.0 0
M  V30 11 C 0.866 4.0 0.0 0
M  V30 END ATOM
M  V30 BEGIN BOND
M  V30 1 1 2 1 CFG=1
M  V30 2 1 2 3
M  V30 3 1 2 4
M  V30 4 1 2 5
M  V30 5 1 3 6
M  V30 6 1 3 7
M  V30 7 1 4 8
M  V30 8 1 5 9
M  V30 9 2 8 10
M  V30 10 1 10 11
M  V30 11 1 9 10
M  V30 END BOND
M  V30 BEGIN COLLECTION
M  V30 MDLV30/STERAC1 ATOMS=(1 2)
M  V30 END COLLECTION
M  V30 END CTAB
M  END
>  <Molecule Name>
terpineno-4-ol

>  <Database>
PubChem

>  <Reference DOI>
10.1016/j.aspen.2024.102300

>  <Molecular Target>
Haemaphysalis longicornis

>  <PubChem CID>
11230

>  <Smiles>
CC1=CCC(CC1)(C(C)C)O

>  <Molecular Formula>
C10H18O

>  <Activity>
1

$$$$
Compound 368
Actelion Java MolfileCreator 2.0

  0  0  0  0  0  0              0 V3000
M  V30 BEGIN CTAB
M  V30 COUNTS 11 11 0 0 0
M  V30 BEGIN ATOM
M  V30 1 O 2.598 0.0 0.0 0
M  V30 2 C 1.732 -0.5 0.0 0
M  V30 3 O 0.866 0.0 0.0 0
M  V30 4 C 1.732 -1.5 0.0 0
M  V30 5 C 0.0 -0.5 0.0 0
M  V30 6 C 0.866 -1.9999 0.0 0
M  V30 7 C 2.598 -2.0 0.0 0
M  V30 8 N 0.0 -1.4999 0.0 0
M  V30 9 C 0.866 -2.9999 0.0 0
M  V30 10 C 2.598 -3.0 0.0 0
M  V30 11 C 1.732 -3.5 0.0 0
M  V30 END ATOM
M  V30 BEGIN BOND
M  V30 1 2 1 2
M  V30 2 1 2 3
M  V30 3 1 2 4
M  V30 4 1 3 5
M  V30 5 2 4 6
M  V30 6 1 4 7
M  V30 7 1 6 8
M  V30 8 1 6 9
M  V30 9 2 7 10
M  V30 10 2 9 11
M  V30 11 1 10 11
M  V30 END BOND
M  V30 END CTAB
M  END
>  <Molecule Name>
etilantranilato

>  <Database>
PubChem

>  <Reference DOI>
10.1016/j.actatropica.2017.06.024

>  <Molecular Target>
Anopheles stephensi

>  <PubChem CID>
8635

>  <Smiles>
COC(=O)C1=CC=CC=C1N

>  <Molecular Formula>
C8H9NO2

>  <Activity>
1

$$$$
Compound 369
Actelion Java MolfileCreator 2.0

  0  0  0  0  0  0              0 V3000
M  V30 BEGIN CTAB
M  V30 COUNTS 14 14 0 0 0
M  V30 BEGIN ATOM
M  V30 1 O 3.4641 -0.5 0.0 0
M  V30 2 C 2.598 0.0 0.0 0
M  V30 3 N 1.732 -0.5 0.0 0
M  V30 4 C 2.598 1.0 0.0 0
M  V30 5 C 1.732 -1.5 0.0 0
M  V30 6 C 0.866 0.0 0.0 0
M  V30 7 C 3.4641 1.5 0.0 0
M  V30 8 C 1.732 1.4999 0.0 0
M  V30 9 C 2.598 -1.9999 0.0 0
M  V30 10 C 0.0 -0.5 0.0 0
M  V30 11 C 3.4641 2.5 0.0 0
M  V30 12 C 1.732 2.5 0.0 0
M  V30 13 C 2.598 3.0 0.0 0
M  V30 14 C 4.3301 3.0 0.0 0
M  V30 END ATOM
M  V30 BEGIN BOND
M  V30 1 2 1 2
M  V30 2 1 2 3
M  V30 3 1 2 4
M  V30 4 1 3 5
M  V30 5 1 3 6
M  V30 6 2 4 7
M  V30 7 1 4 8
M  V30 8 1 5 9
M  V30 9 1 6 10
M  V30 10 1 7 11
M  V30 11 2 8 12
M  V30 12 2 11 13
M  V30 13 1 11 14
M  V30 14 1 12 13
M  V30 END BOND
M  V30 END CTAB
M  END
>  <Molecule Name>
N,n-diethyl-m-toluamide

>  <Database>
PubChem

>  <Reference DOI>
10.1016/j.ibmb.2023.103961

>  <Molecular Target>
Aedes albopictus

>  <PubChem CID>
4284

>  <Smiles>
CCN(CC)C(=O)C1=CC=CC(=C1)C

>  <Molecular Formula>


>  <Activity>
1

$$$$
Compound 370
Actelion Java MolfileCreator 2.0

  0  0  0  0  0  0              0 V3000
M  V30 BEGIN CTAB
M  V30 COUNTS 13 13 0 0 0
M  V30 BEGIN ATOM
M  V30 1 O 4.3301 -3.0 0.0 0
M  V30 2 C 4.3301 -1.9999 0.0 0
M  V30 3 C 5.1961 -3.5 0.0 0
M  V30 4 C 5.1961 -1.5 0.0 0
M  V30 5 C 3.4641 -1.5 0.0 0
M  V30 6 O 6.0621 -2.0 0.0 0
M  V30 7 C 5.1961 -0.5 0.0 0
M  V30 8 C 3.4641 -0.5 0.0 0
M  V30 9 C 4.3301 0.0 0.0 0
M  V30 10 C 2.598 0.0 0.0 0
M  V30 11 C 1.732 -0.5 0.0 0
M  V30 12 C 0.866 0.0 0.0 0
M  V30 13 O 0.0 -0.5 0.0 0
M  V30 END ATOM
M  V30 BEGIN BOND
M  V30 1 1 1 2
M  V30 2 1 1 3
M  V30 3 2 2 4
M  V30 4 1 2 5
M  V30 5 1 4 6
M  V30 6 1 4 7
M  V30 7 2 5 8
M  V30 8 2 7 9
M  V30 9 1 8 10
M  V30 10 2 10 11
M  V30 11 1 11 12
M  V30 12 1 12 13
M  V30 13 1 8 9
M  V30 END BOND
M  V30 END CTAB
M  END
>  <Molecule Name>
Coniferyl Alcohol

>  <Database>
PubChem

>  <Reference DOI>
10.1002/cmdc.202200271

>  <Molecular Target>
Aedes albopictus.

>  <PubChem CID>
1549095

>  <Smiles>
COC1=C(C=CC(=C1)/C=C/CO)O

>  <Molecular Formula>
C10H12O3

>  <Activity>
1

$$$$
Compound 371
Actelion Java MolfileCreator 2.0

  0  0  0  0  0  0              0 V3000
M  V30 BEGIN CTAB
M  V30 COUNTS 9 8 0 0 0
M  V30 BEGIN ATOM
M  V30 1 O 5.1961 -0.5 0.0 0
M  V30 2 C 4.3301 0.0 0.0 0
M  V30 3 C 3.4641 -0.5 0.0 0
M  V30 4 C 4.3301 1.0 0.0 0
M  V30 5 C 2.598 0.0 0.0 0
M  V30 6 C 1.732 -0.5 0.0 0
M  V30 7 C 0.866 0.0 0.0 0
M  V30 8 C 0.866 1.0 0.0 0
M  V30 9 C 0.0 -0.5 0.0 0
M  V30 END ATOM
M  V30 BEGIN BOND
M  V30 1 2 1 2
M  V30 2 1 2 3
M  V30 3 1 2 4
M  V30 4 1 3 5
M  V30 5 1 5 6
M  V30 6 2 6 7
M  V30 7 1 7 8
M  V30 8 1 7 9
M  V30 END BOND
M  V30 END CTAB
M  END
>  <Molecule Name>
6-metil-5-hepten-2-ona

>  <Database>
PubChem

>  <Reference DOI>
10.1074/jbc.M112.436386

>  <Molecular Target>
Anopheles gambiae

>  <PubChem CID>
9862

>  <Smiles>
CC(=CCCC(=O)C)C

>  <Molecular Formula>
C8H14O

>  <Activity>
1

$$$$
Compound 372
Actelion Java MolfileCreator 2.0

  0  0  0  0  0  0              0 V3000
M  V30 BEGIN CTAB
M  V30 COUNTS 16 17 0 0 0
M  V30 BEGIN ATOM
M  V30 1 O 1.848 -2.049 0.0 0
M  V30 2 C 2.598 -0.75 0.0 0
M  V30 3 C 3.8971 0.0 0.0 0
M  V30 4 C 1.299 0.0 0.0 0
M  V30 5 C 3.348 -2.049 0.0 0
M  V30 6 C 5.1961 -0.75 0.0 0
M  V30 7 C 3.8971 1.5 0.0 0
M  V30 8 C 0.0 -0.75 0.0 0
M  V30 9 C 6.4952 0.0 0.0 0
M  V30 10 C 5.1961 2.25 0.0 0
M  V30 11 C -1.299 0.0 0.0 0
M  V30 12 C 0.0 -2.25 0.0 0
M  V30 13 C 6.4952 1.5 0.0 0
M  V30 14 C -2.598 -0.75 0.0 0
M  V30 15 C -1.299 -3.0 0.0 0
M  V30 16 C -2.598 -2.25 0.0 0
M  V30 END ATOM
M  V30 BEGIN BOND
M  V30 1 1 1 2
M  V30 2 1 2 3
M  V30 3 1 2 4
M  V30 4 1 2 5
M  V30 5 2 3 6
M  V30 6 1 3 7
M  V30 7 1 4 8
M  V30 8 1 6 9
M  V30 9 2 7 10
M  V30 10 2 8 11
M  V30 11 1 8 12
M  V30 12 2 9 13
M  V30 13 1 11 14
M  V30 14 2 12 15
M  V30 15 2 14 16
M  V30 16 1 10 13
M  V30 17 1 15 16
M  V30 END BOND
M  V30 END CTAB
M  END
>  <Molecule Name>
1,2-diphenylpropan-2-ol 

>  <Database>
PubChem

>  <Reference DOI>
10.1002/cmdc.202200271

>  <Molecular Target>
Aedes albopictus

>  <PubChem CID>
95356

>  <Smiles>
CC(O)(CC1=CC=CC=C1)C1=CC=CC=C1

>  <Molecular Formula>
C15H16O

>  <Activity>
1

$$$$
Compound 373
Actelion Java MolfileCreator 2.0

  0  0  0  0  0  0              0 V3000
M  V30 BEGIN CTAB
M  V30 COUNTS 26 28 0 0 0
M  V30 BEGIN ATOM
M  V30 1 Cl 4.6471 -5.799 0.0 0
M  V30 2 C 4.6471 -4.299 0.0 0
M  V30 3 Cl 3.348 -3.549 0.0 0
M  V30 4 C 5.9461 -3.549 0.0 0
M  V30 5 C 5.9461 -2.049 0.0 0 CFG=2
M  V30 6 C 6.6961 -0.75 0.0 0
M  V30 7 C 5.1961 -0.75 0.0 0 CFG=1
M  V30 8 C 8.1961 -0.75 0.0 0
M  V30 9 C 7.4461 0.549 0.0 0
M  V30 10 C 3.8971 0.0 0.0 0
M  V30 11 O 3.8971 1.5 0.0 0
M  V30 12 O 2.598 -0.75 0.0 0
M  V30 13 C 1.299 0.0 0.0 0
M  V30 14 C 0.0 -0.75 0.0 0
M  V30 15 C -1.299 0.0 0.0 0
M  V30 16 C 0.0 -2.25 0.0 0
M  V30 17 C -2.598 -0.75 0.0 0
M  V30 18 C -1.299 -3.0 0.0 0
M  V30 19 O -3.8971 0.0 0.0 0
M  V30 20 C -2.598 -2.25 0.0 0
M  V30 21 C -5.1961 -0.75 0.0 0
M  V30 22 C -6.4952 0.0 0.0 0
M  V30 23 C -5.1961 -2.25 0.0 0
M  V30 24 C -7.7942 -0.75 0.0 0
M  V30 25 C -6.4952 -3.0 0.0 0
M  V30 26 C -7.7942 -2.25 0.0 0
M  V30 END ATOM
M  V30 BEGIN BOND
M  V30 1 1 1 2
M  V30 2 1 2 3
M  V30 3 2 2 4
M  V30 4 1 5 4 CFG=1
M  V30 5 1 5 6
M  V30 6 1 5 7
M  V30 7 1 6 8
M  V30 8 1 6 9
M  V30 9 1 7 10 CFG=3
M  V30 10 2 10 11
M  V30 11 1 10 12
M  V30 12 1 12 13
M  V30 13 1 13 14
M  V30 14 2 14 15
M  V30 15 1 14 16
M  V30 16 1 15 17
M  V30 17 2 16 18
M  V30 18 1 17 19
M  V30 19 2 17 20
M  V30 20 1 19 21
M  V30 21 2 21 22
M  V30 22 1 21 23
M  V30 23 1 22 24
M  V30 24 2 23 25
M  V30 25 2 24 26
M  V30 26 1 6 7
M  V30 27 1 18 20
M  V30 28 1 25 26
M  V30 END BOND
M  V30 BEGIN COLLECTION
M  V30 MDLV30/STEABS ATOMS=(2 5 7)
M  V30 END COLLECTION
M  V30 END CTAB
M  END
>  <Molecule Name>
(-)-trans-Permethrin

>  <Database>
PubChem

>  <Reference DOI>
10.1021/acs.jafc.3c01839

>  <Molecular Target>
Aedes aegypti

>  <PubChem CID>
43859

>  <Smiles>
CC1([C@H]([C@@H]1C(=O)OCC2=CC(=CC=C2)OC3=CC=CC=C3)C=C(Cl)Cl)C

>  <Molecular Formula>
C21H20Cl2O3

>  <Activity>
1

$$$$
Compound 374
Actelion Java MolfileCreator 2.0

  0  0  0  0  0  0              0 V3000
M  V30 BEGIN CTAB
M  V30 COUNTS 11 11 0 0 0
M  V30 BEGIN ATOM
M  V30 1 O 0.549 1.299 0.0 0
M  V30 2 C 1.299 0.0 0.0 0
M  V30 3 C 0.0 -0.75 0.0 0 CFG=2
M  V30 4 C 2.598 0.7499 0.0 0
M  V30 5 C 2.049 -1.299 0.0 0
M  V30 6 C -1.299 0.0 0.0 0
M  V30 7 C 0.0 -2.2499 0.0 0
M  V30 8 C -2.598 -0.7499 0.0 0
M  V30 9 C -1.299 -2.9999 0.0 0
M  V30 10 C -2.598 -2.2499 0.0 0
M  V30 11 C -3.8971 -2.9999 0.0 0
M  V30 END ATOM
M  V30 BEGIN BOND
M  V30 1 1 1 2
M  V30 2 1 3 2 CFG=1
M  V30 3 1 2 4
M  V30 4 1 2 5
M  V30 5 1 3 6
M  V30 6 1 3 7
M  V30 7 1 6 8
M  V30 8 1 7 9
M  V30 9 2 8 10
M  V30 10 1 10 11
M  V30 11 1 9 10
M  V30 END BOND
M  V30 BEGIN COLLECTION
M  V30 MDLV30/STERAC1 ATOMS=(1 3)
M  V30 END COLLECTION
M  V30 END CTAB
M  END
>  <Molecule Name>
α-terpineol 

>  <Database>
PubChem

>  <Reference DOI>
10.1016/j.aspen.2024.102300

>  <Molecular Target>
Haemaphysalis longicornis

>  <PubChem CID>
17100

>  <Smiles>
CC1=CCC(CC1)C(C)(C)O

>  <Molecular Formula>
C10H18O

>  <Activity>
1

$$$$
Compound 375
Actelion Java MolfileCreator 2.0

  0  0  0  0  0  0              0 V3000
M  V30 BEGIN CTAB
M  V30 COUNTS 10 10 0 0 0
M  V30 BEGIN ATOM
M  V30 1 C 1.732 -0.5 0.0 0
M  V30 2 C 1.732 -1.5 0.0 0
M  V30 3 C 0.866 0.0 0.0 0
M  V30 4 C 2.598 0.0 0.0 0
M  V30 5 C 2.598 -2.0 0.0 0
M  V30 6 C 0.866 1.0 0.0 0
M  V30 7 C 0.0 -0.5 0.0 0
M  V30 8 C 3.4641 -0.5 0.0 0
M  V30 9 C 3.4641 -1.5 0.0 0
M  V30 10 C 4.3301 -2.0 0.0 0
M  V30 END ATOM
M  V30 BEGIN BOND
M  V30 1 2 1 2
M  V30 2 1 1 3
M  V30 3 1 1 4
M  V30 4 1 2 5
M  V30 5 1 3 6
M  V30 6 1 3 7
M  V30 7 1 4 8
M  V30 8 2 5 9
M  V30 9 1 9 10
M  V30 10 1 8 9
M  V30 END BOND
M  V30 END CTAB
M  END
>  <Molecule Name>
α-terpinene

>  <Database>
PubChem

>  <Reference DOI>
10.1016/j.aspen.2024.102300

>  <Molecular Target>
Haemaphysalis longicornis

>  <PubChem CID>
7462

>  <Smiles>
CC1=CC=C(CC1)C(C)C

>  <Molecular Formula>
C10H16

>  <Activity>
1

$$$$
Compound 376
Actelion Java MolfileCreator 2.0

  0  0  0  0  0  0              0 V3000
M  V30 BEGIN CTAB
M  V30 COUNTS 11 11 0 0 0
M  V30 BEGIN ATOM
M  V30 1 O 5.1961 -0.75 0.0 0
M  V30 2 C 3.8971 0.0 0.0 0
M  V30 3 O 2.598 -0.75 0.0 0
M  V30 4 C 3.8971 1.5 0.0 0
M  V30 5 C 1.299 0.0 0.0 0
M  V30 6 C 0.0 -0.75 0.0 0
M  V30 7 C -1.299 0.0 0.0 0
M  V30 8 C 0.0 -2.2499 0.0 0
M  V30 9 C -2.598 -0.7499 0.0 0
M  V30 10 C -1.299 -2.9999 0.0 0
M  V30 11 C -2.598 -2.2499 0.0 0
M  V30 END ATOM
M  V30 BEGIN BOND
M  V30 1 2 1 2
M  V30 2 1 2 3
M  V30 3 1 2 4
M  V30 4 1 3 5
M  V30 5 1 5 6
M  V30 6 2 6 7
M  V30 7 1 6 8
M  V30 8 1 7 9
M  V30 9 2 8 10
M  V30 10 2 9 11
M  V30 11 1 10 11
M  V30 END BOND
M  V30 END CTAB
M  END
>  <Molecule Name>
 benzyl acetate 

>  <Database>
PubChem

>  <Reference DOI>
10.1016/j.indcrop.2024.119111

>  <Molecular Target>
Solenopsis invicta

>  <PubChem CID>
8785

>  <Smiles>
CC(=O)OCC1=CC=CC=C1

>  <Molecular Formula>
CH3COOCH2C6H5

>  <Activity>
1

$$$$
