 xtb: 6.7.1 (edcfbbe)
          07092607223D

 20 19  0     0  0            999 V2000
    3.3412   -0.7471    0.5847 C   0  0  0  0  0  0  0  0  0  0  0  0
    2.2720    0.2320    0.1163 C   0  0  0  0  0  0  0  0  0  0  0  0
    0.8734   -0.3698    0.2352 C   0  0  0  0  0  0  0  0  0  0  0  0
   -0.1905    0.6101   -0.2331 C   0  0  0  0  0  0  0  0  0  0  0  0
   -1.4755   -0.0170   -0.0950 O   0  0  0  0  0  0  0  0  0  0  0  0
   -2.5140    0.6982   -0.4584 C   0  0  0  0  0  0  0  0  0  0  0  0
   -2.5005    1.8125   -0.8903 O   0  0  0  0  0  0  0  0  0  0  0  0
   -3.8100   -0.1108   -0.2505 C   0  0  0  0  0  0  0  0  0  0  0  0
   -5.2012    0.8488   -0.7378 Cl  0  0  0  0  0  0  0  0  0  0  0  0
   -3.9379   -0.5405    1.4641 Cl  0  0  0  0  0  0  0  0  0  0  0  0
   -3.7166   -1.5866   -1.2273 Cl  0  0  0  0  0  0  0  0  0  0  0  0
    3.3161   -1.6548   -0.0133 H   0  0  0  0  0  0  0  0  0  0  0  0
    4.3289   -0.3029    0.4932 H   0  0  0  0  0  0  0  0  0  0  0  0
    3.1814   -1.0179    1.6255 H   0  0  0  0  0  0  0  0  0  0  0  0
    2.3254    1.1435    0.7149 H   0  0  0  0  0  0  0  0  0  0  0  0
    2.4601    0.5067   -0.9236 H   0  0  0  0  0  0  0  0  0  0  0  0
    0.6719   -0.6406    1.2726 H   0  0  0  0  0  0  0  0  0  0  0  0
    0.8066   -1.2776   -0.3663 H   0  0  0  0  0  0  0  0  0  0  0  0
   -0.1831    1.5272    0.3653 H   0  0  0  0  0  0  0  0  0  0  0  0
   -0.0476    0.8865   -1.2831 H   0  0  0  0  0  0  0  0  0  0  0  0
  1  2  1  0  0  0  0
  2  3  1  0  0  0  0
  3  4  1  0  0  0  0
  4  5  1  0  0  0  0
  5  6  1  0  0  0  0
  6  7  2  0  0  0  0
  6  8  1  0  0  0  0
  8  9  1  0  0  0  0
  8 10  1  0  0  0  0
  8 11  1  0  0  0  0
  1 12  1  0  0  0  0
  1 13  1  0  0  0  0
  1 14  1  0  0  0  0
  2 15  1  0  0  0  0
  2 16  1  0  0  0  0
  3 17  1  0  0  0  0
  3 18  1  0  0  0  0
  4 19  1  0  0  0  0
  4 20  1  0  0  0  0
M  END
