 xtb: 6.7.1 (edcfbbe)
          07092612583D

 23 23  0     0  0            999 V2000
   -3.1392   -0.1150   -0.5577 C   0  0  0  0  0  0  0  0  0  0  0  0
   -1.7622   -0.3203    0.0648 C   0  0  0  0  0  0  0  0  0  0  0  0
   -1.6972    0.2956    1.4662 C   0  0  0  0  0  0  0  0  0  0  0  0
   -0.6859    0.3167   -0.8023 C   0  0  0  0  0  0  0  0  0  0  0  0
   -0.9573    1.0184   -1.7505 O   0  0  0  0  0  0  0  0  0  0  0  0
    0.7306    0.0856   -0.4066 C   0  0  0  0  0  0  0  0  0  0  0  0
    1.6665    1.0435   -0.7980 C   0  0  0  0  0  0  0  0  0  0  0  0
    3.0004    0.9048   -0.4681 C   0  0  0  0  0  0  0  0  0  0  0  0
    3.4223   -0.2032    0.2487 C   0  0  0  0  0  0  0  0  0  0  0  0
    2.5047   -1.1691    0.6288 C   0  0  0  0  0  0  0  0  0  0  0  0
    1.1668   -1.0283    0.3078 C   0  0  0  0  0  0  0  0  0  0  0  0
   -3.1742   -0.5562   -1.5508 H   0  0  0  0  0  0  0  0  0  0  0  0
   -3.3513    0.9469   -0.6539 H   0  0  0  0  0  0  0  0  0  0  0  0
   -3.9077   -0.5742    0.0597 H   0  0  0  0  0  0  0  0  0  0  0  0
   -1.5602   -1.3939    0.1368 H   0  0  0  0  0  0  0  0  0  0  0  0
   -0.7224    0.1371    1.9218 H   0  0  0  0  0  0  0  0  0  0  0  0
   -1.8820    1.3664    1.4106 H   0  0  0  0  0  0  0  0  0  0  0  0
   -2.4570   -0.1509    2.1038 H   0  0  0  0  0  0  0  0  0  0  0  0
    1.3200    1.8976   -1.3607 H   0  0  0  0  0  0  0  0  0  0  0  0
    3.7128    1.6576   -0.7714 H   0  0  0  0  0  0  0  0  0  0  0  0
    4.4648   -0.3178    0.5064 H   0  0  0  0  0  0  0  0  0  0  0  0
    2.8346   -2.0392    1.1775 H   0  0  0  0  0  0  0  0  0  0  0  0
    0.4730   -1.8021    0.5992 H   0  0  0  0  0  0  0  0  0  0  0  0
  1  2  1  0  0  0  0
  2  3  1  0  0  0  0
  2  4  1  0  0  0  0
  4  5  2  0  0  0  0
  4  6  1  0  0  0  0
  6  7  4  0  0  0  0
  7  8  4  0  0  0  0
  8  9  4  0  0  0  0
  9 10  4  0  0  0  0
  6 11  4  0  0  0  0
 10 11  4  0  0  0  0
  1 12  1  0  0  0  0
  1 13  1  0  0  0  0
  1 14  1  0  0  0  0
  2 15  1  0  0  0  0
  3 16  1  0  0  0  0
  3 17  1  0  0  0  0
  3 18  1  0  0  0  0
  7 19  1  0  0  0  0
  8 20  1  0  0  0  0
  9 21  1  0  0  0  0
 10 22  1  0  0  0  0
 11 23  1  0  0  0  0
M  END
