 xtb: 6.7.1 (edcfbbe)
          07082619433D

 22 21  0     0  0            999 V2000
   -1.1548    1.3403    0.2827 C   0  0  0  0  0  0  0  0  0  0  0  0
   -0.6336    0.0815   -0.4154 C   0  0  0  0  0  0  0  0  0  0  0  0
   -1.5989   -1.0838   -0.1696 C   0  0  0  0  0  0  0  0  0  0  0  0
   -0.5340    0.3239   -1.8199 O   0  0  0  0  0  0  0  0  0  0  0  0
    0.8208   -0.3077    0.0028 C   0  0  0  0  0  0  0  0  0  0  0  0
    0.9225   -0.7898    1.4489 C   0  0  0  0  0  0  0  0  0  0  0  0
    1.7759    0.8744   -0.2179 C   0  0  0  0  0  0  0  0  0  0  0  0
    1.2242   -1.3952   -0.8086 O   0  0  0  0  0  0  0  0  0  0  0  0
   -1.1134    1.2317    1.3617 H   0  0  0  0  0  0  0  0  0  0  0  0
   -0.5710    2.2079   -0.0112 H   0  0  0  0  0  0  0  0  0  0  0  0
   -2.1920    1.5119   -0.0037 H   0  0  0  0  0  0  0  0  0  0  0  0
   -2.5348   -0.9084   -0.6992 H   0  0  0  0  0  0  0  0  0  0  0  0
   -1.8176   -1.1832    0.8889 H   0  0  0  0  0  0  0  0  0  0  0  0
   -1.1600   -2.0095   -0.5336 H   0  0  0  0  0  0  0  0  0  0  0  0
   -1.4124    0.5343   -2.1525 H   0  0  0  0  0  0  0  0  0  0  0  0
    1.9651   -1.0067    1.6649 H   0  0  0  0  0  0  0  0  0  0  0  0
    0.5692   -0.0334    2.1422 H   0  0  0  0  0  0  0  0  0  0  0  0
    0.3549   -1.7047    1.5834 H   0  0  0  0  0  0  0  0  0  0  0  0
    2.7984    0.5083   -0.1655 H   0  0  0  0  0  0  0  0  0  0  0  0
    1.6378    1.6356    0.5436 H   0  0  0  0  0  0  0  0  0  0  0  0
    1.6108    1.3094   -1.2003 H   0  0  0  0  0  0  0  0  0  0  0  0
    1.0430   -1.1369   -1.7218 H   0  0  0  0  0  0  0  0  0  0  0  0
  1  2  1  0  0  0  0
  2  3  1  0  0  0  0
  2  4  1  0  0  0  0
  2  5  1  0  0  0  0
  5  6  1  0  0  0  0
  5  7  1  0  0  0  0
  5  8  1  0  0  0  0
  1  9  1  0  0  0  0
  1 10  1  0  0  0  0
  1 11  1  0  0  0  0
  3 12  1  0  0  0  0
  3 13  1  0  0  0  0
  3 14  1  0  0  0  0
  4 15  1  0  0  0  0
  6 16  1  0  0  0  0
  6 17  1  0  0  0  0
  6 18  1  0  0  0  0
  7 19  1  0  0  0  0
  7 20  1  0  0  0  0
  7 21  1  0  0  0  0
  8 22  1  0  0  0  0
M  END
