 xtb: 6.7.1 (edcfbbe)
          07082623373D

 24 24  0     0  0            999 V2000
    3.8585   -0.3567   -0.1375 C   0  0  0  0  0  0  0  0  0  0  0  0
    2.5724    0.0628    0.5284 C   0  0  0  0  0  0  0  0  0  0  0  0
    2.4818    0.4802    1.6529 O   0  0  0  0  0  0  0  0  0  0  0  0
    1.5409   -0.0834   -0.3052 O   0  0  0  0  0  0  0  0  0  0  0  0
    0.2381    0.2785    0.1779 C   0  0  0  0  0  0  0  0  0  0  0  0
   -0.6114    0.6732   -1.0249 C   0  0  0  0  0  0  0  0  0  0  0  0
   -2.0244    1.0322   -0.5750 C   0  0  0  0  0  0  0  0  0  0  0  0
   -2.6621   -0.1361    0.1709 C   0  0  0  0  0  0  0  0  0  0  0  0
   -1.8075   -0.5302    1.3718 C   0  0  0  0  0  0  0  0  0  0  0  0
   -0.3939   -0.8929    0.9282 C   0  0  0  0  0  0  0  0  0  0  0  0
    4.0206    0.2510   -1.0242 H   0  0  0  0  0  0  0  0  0  0  0  0
    4.6849   -0.2329    0.5552 H   0  0  0  0  0  0  0  0  0  0  0  0
    3.7829   -1.3958   -0.4472 H   0  0  0  0  0  0  0  0  0  0  0  0
    0.3538    1.1282    0.8634 H   0  0  0  0  0  0  0  0  0  0  0  0
   -0.6414   -0.1684   -1.7195 H   0  0  0  0  0  0  0  0  0  0  0  0
   -0.1470    1.5172   -1.5378 H   0  0  0  0  0  0  0  0  0  0  0  0
   -2.6285    1.2962   -1.4448 H   0  0  0  0  0  0  0  0  0  0  0  0
   -1.9840    1.9031    0.0830 H   0  0  0  0  0  0  0  0  0  0  0  0
   -3.6646    0.1395    0.5035 H   0  0  0  0  0  0  0  0  0  0  0  0
   -2.7554   -0.9897   -0.5042 H   0  0  0  0  0  0  0  0  0  0  0  0
   -2.2568   -1.3797    1.8891 H   0  0  0  0  0  0  0  0  0  0  0  0
   -1.7609    0.3044    2.0746 H   0  0  0  0  0  0  0  0  0  0  0  0
   -0.4199   -1.7606    0.2648 H   0  0  0  0  0  0  0  0  0  0  0  0
    0.2241   -1.1402    1.7933 H   0  0  0  0  0  0  0  0  0  0  0  0
  1  2  1  0  0  0  0
  2  3  2  0  0  0  0
  2  4  1  0  0  0  0
  4  5  1  0  0  0  0
  5  6  1  0  0  0  0
  6  7  1  0  0  0  0
  7  8  1  0  0  0  0
  8  9  1  0  0  0  0
  5 10  1  0  0  0  0
  9 10  1  0  0  0  0
  1 11  1  0  0  0  0
  1 12  1  0  0  0  0
  1 13  1  0  0  0  0
  5 14  1  0  0  0  0
  6 15  1  0  0  0  0
  6 16  1  0  0  0  0
  7 17  1  0  0  0  0
  7 18  1  0  0  0  0
  8 19  1  0  0  0  0
  8 20  1  0  0  0  0
  9 21  1  0  0  0  0
  9 22  1  0  0  0  0
 10 23  1  0  0  0  0
 10 24  1  0  0  0  0
M  END
