 xtb: 6.7.1 (edcfbbe)
          07082617483D

 15 14  0     0  0            999 V2000
   -2.2048   -0.0546    0.3645 C   0  0  0  0  0  0  0  0  0  0  0  0
   -1.1811   -0.0127   -0.7652 C   0  0  0  0  0  0  0  0  0  0  0  0
    0.1437   -0.3567   -0.3011 N   0  0  0  0  0  0  0  0  0  0  0  0
    1.1680    0.5286   -0.2681 C   0  0  0  0  0  0  0  0  0  0  0  0
    2.4407   -0.0463    0.3227 C   0  0  0  0  0  0  0  0  0  0  0  0
    1.0732    1.6623   -0.6836 O   0  0  0  0  0  0  0  0  0  0  0  0
   -2.2710   -1.0559    0.7868 H   0  0  0  0  0  0  0  0  0  0  0  0
   -3.1842    0.2270   -0.0120 H   0  0  0  0  0  0  0  0  0  0  0  0
   -1.9224    0.6387    1.1530 H   0  0  0  0  0  0  0  0  0  0  0  0
   -1.1080    0.9964   -1.1760 H   0  0  0  0  0  0  0  0  0  0  0  0
   -1.4749   -0.7022   -1.5645 H   0  0  0  0  0  0  0  0  0  0  0  0
    0.2687   -1.2721    0.1011 H   0  0  0  0  0  0  0  0  0  0  0  0
    2.2777   -0.3226    1.3626 H   0  0  0  0  0  0  0  0  0  0  0  0
    2.7471   -0.9305   -0.2323 H   0  0  0  0  0  0  0  0  0  0  0  0
    3.2273    0.7007    0.2714 H   0  0  0  0  0  0  0  0  0  0  0  0
  1  2  1  0  0  0  0
  2  3  1  0  0  0  0
  3  4  4  0  0  0  0
  4  5  1  0  0  0  0
  4  6  2  0  0  0  0
  1  7  1  0  0  0  0
  1  8  1  0  0  0  0
  1  9  1  0  0  0  0
  2 10  1  0  0  0  0
  2 11  1  0  0  0  0
  3 12  1  0  0  0  0
  5 13  1  0  0  0  0
  5 14  1  0  0  0  0
  5 15  1  0  0  0  0
M  END
