 xtb: 6.7.1 (edcfbbe)
          07092608473D

 23 22  0     0  0            999 V2000
   -4.4300    0.6953   -0.1131 C   0  0  0  0  0  0  0  0  0  0  0  0
   -3.3283   -0.3022   -0.0084 C   0  0  0  0  0  0  0  0  0  0  0  0
   -2.0890   -0.1001   -0.4233 C   0  0  0  0  0  0  0  0  0  0  0  0
   -0.9933   -1.1148   -0.3201 C   0  0  0  0  0  0  0  0  0  0  0  0
    0.0613   -0.6500    0.5368 O   0  0  0  0  0  0  0  0  0  0  0  0
    1.0331    0.0636   -0.0133 C   0  0  0  0  0  0  0  0  0  0  0  0
    1.1084    0.3478   -1.1809 O   0  0  0  0  0  0  0  0  0  0  0  0
    2.0705    0.4478    1.0275 C   0  0  0  0  0  0  0  0  0  0  0  0
    3.3412   -0.3440    0.7263 C   0  0  0  0  0  0  0  0  0  0  0  0
    4.1320    0.2013   -0.4235 C   0  0  0  0  0  0  0  0  0  0  0  0
    3.6384   -1.3241    1.3545 O   0  0  0  0  0  0  0  0  0  0  0  0
   -5.2416    0.2940   -0.7193 H   0  0  0  0  0  0  0  0  0  0  0  0
   -4.0796    1.6212   -0.5611 H   0  0  0  0  0  0  0  0  0  0  0  0
   -4.8344    0.9102    0.8754 H   0  0  0  0  0  0  0  0  0  0  0  0
   -3.5998   -1.2537    0.4313 H   0  0  0  0  0  0  0  0  0  0  0  0
   -1.7961    0.8445   -0.8613 H   0  0  0  0  0  0  0  0  0  0  0  0
   -0.5693   -1.3158   -1.3114 H   0  0  0  0  0  0  0  0  0  0  0  0
   -1.3487   -2.0408    0.1351 H   0  0  0  0  0  0  0  0  0  0  0  0
    2.2710    1.5147    0.9397 H   0  0  0  0  0  0  0  0  0  0  0  0
    1.6947    0.1925    2.0170 H   0  0  0  0  0  0  0  0  0  0  0  0
    4.9148   -0.4945   -0.7126 H   0  0  0  0  0  0  0  0  0  0  0  0
    4.5834    1.1489   -0.1350 H   0  0  0  0  0  0  0  0  0  0  0  0
    3.4611    0.3901   -1.2602 H   0  0  0  0  0  0  0  0  0  0  0  0
  1  2  1  0  0  0  0
  2  3  2  0  0  0  0
  3  4  1  0  0  0  0
  4  5  1  0  0  0  0
  5  6  1  0  0  0  0
  6  7  2  0  0  0  0
  6  8  1  0  0  0  0
  8  9  1  0  0  0  0
  9 10  1  0  0  0  0
  9 11  2  0  0  0  0
  1 12  1  0  0  0  0
  1 13  1  0  0  0  0
  1 14  1  0  0  0  0
  2 15  1  0  0  0  0
  3 16  1  0  0  0  0
  4 17  1  0  0  0  0
  4 18  1  0  0  0  0
  8 19  1  0  0  0  0
  8 20  1  0  0  0  0
 10 21  1  0  0  0  0
 10 22  1  0  0  0  0
 10 23  1  0  0  0  0
M  END
