 xtb: 6.7.1 (edcfbbe)
          07062619533D

 44 43  0     0  0            999 V2000
   -3.2568    4.2621    0.6675 C   0  0  0  0  0  0  0  0  0  0  0  0
   -2.1636    3.9126   -0.3349 C   0  0  0  0  0  0  0  0  0  0  0  0
   -1.3995    2.6595    0.0842 C   0  0  0  0  0  0  0  0  0  0  0  0
   -0.3228    2.2852   -0.9251 C   0  0  0  0  0  0  0  0  0  0  0  0
    0.4682    1.1937   -0.4821 O   0  0  0  0  0  0  0  0  0  0  0  0
   -0.2220   -0.2535   -0.4689 P   0  0  0  0  0  0  0  0  0  0  0  0
   -1.2505   -0.4868   -1.4751 O   0  0  0  0  0  0  0  0  0  0  0  0
    1.0319   -1.2159   -0.5816 O   0  0  0  0  0  0  0  0  0  0  0  0
    2.1294   -1.0899    0.3204 C   0  0  0  0  0  0  0  0  0  0  0  0
    3.4336   -0.9743   -0.4600 C   0  0  0  0  0  0  0  0  0  0  0  0
    3.5342    0.3373   -1.2340 C   0  0  0  0  0  0  0  0  0  0  0  0
    4.8398    0.4307   -2.0136 C   0  0  0  0  0  0  0  0  0  0  0  0
   -0.7164   -0.3713    1.0614 O   0  0  0  0  0  0  0  0  0  0  0  0
   -1.9608   -0.9906    1.3458 C   0  0  0  0  0  0  0  0  0  0  0  0
   -1.7883   -2.4579    1.7222 C   0  0  0  0  0  0  0  0  0  0  0  0
   -1.4763   -3.3294    0.5088 C   0  0  0  0  0  0  0  0  0  0  0  0
   -1.2244   -4.7788    0.9054 C   0  0  0  0  0  0  0  0  0  0  0  0
   -3.9712    3.4465    0.7504 H   0  0  0  0  0  0  0  0  0  0  0  0
   -2.8290    4.4441    1.6508 H   0  0  0  0  0  0  0  0  0  0  0  0
   -3.7905    5.1561    0.3544 H   0  0  0  0  0  0  0  0  0  0  0  0
   -2.6091    3.7480   -1.3179 H   0  0  0  0  0  0  0  0  0  0  0  0
   -1.4667    4.7491   -0.4214 H   0  0  0  0  0  0  0  0  0  0  0  0
   -0.9319    2.8134    1.0592 H   0  0  0  0  0  0  0  0  0  0  0  0
   -2.0894    1.8172    0.1703 H   0  0  0  0  0  0  0  0  0  0  0  0
   -0.7878    2.0231   -1.8809 H   0  0  0  0  0  0  0  0  0  0  0  0
    0.3801    3.1101   -1.0749 H   0  0  0  0  0  0  0  0  0  0  0  0
    2.1403   -1.9908    0.9438 H   0  0  0  0  0  0  0  0  0  0  0  0
    1.9824   -0.2165    0.9592 H   0  0  0  0  0  0  0  0  0  0  0  0
    3.4943   -1.8129   -1.1560 H   0  0  0  0  0  0  0  0  0  0  0  0
    4.2627   -1.0534    0.2469 H   0  0  0  0  0  0  0  0  0  0  0  0
    2.6889    0.4071   -1.9200 H   0  0  0  0  0  0  0  0  0  0  0  0
    3.4622    1.1731   -0.5349 H   0  0  0  0  0  0  0  0  0  0  0  0
    5.6926    0.3710   -1.3404 H   0  0  0  0  0  0  0  0  0  0  0  0
    4.9143   -0.3821   -2.7323 H   0  0  0  0  0  0  0  0  0  0  0  0
    4.8949    1.3721   -2.5545 H   0  0  0  0  0  0  0  0  0  0  0  0
   -2.3891   -0.4266    2.1809 H   0  0  0  0  0  0  0  0  0  0  0  0
   -2.6128   -0.9045    0.4708 H   0  0  0  0  0  0  0  0  0  0  0  0
   -0.9806   -2.5355    2.4536 H   0  0  0  0  0  0  0  0  0  0  0  0
   -2.7103   -2.8023    2.1961 H   0  0  0  0  0  0  0  0  0  0  0  0
   -2.3137   -3.2803   -0.1897 H   0  0  0  0  0  0  0  0  0  0  0  0
   -0.6013   -2.9315   -0.0074 H   0  0  0  0  0  0  0  0  0  0  0  0
   -2.0969   -5.1953    1.4050 H   0  0  0  0  0  0  0  0  0  0  0  0
   -1.0116   -5.3816    0.0263 H   0  0  0  0  0  0  0  0  0  0  0  0
   -0.3765   -4.8501    1.5835 H   0  0  0  0  0  0  0  0  0  0  0  0
  1  2  1  0  0  0  0
  2  3  1  0  0  0  0
  3  4  1  0  0  0  0
  4  5  1  0  0  0  0
  5  6  1  0  0  0  0
  6  7  2  0  0  0  0
  6  8  1  0  0  0  0
  8  9  1  0  0  0  0
  9 10  1  0  0  0  0
 10 11  1  0  0  0  0
 11 12  1  0  0  0  0
  6 13  1  0  0  0  0
 13 14  1  0  0  0  0
 14 15  1  0  0  0  0
 15 16  1  0  0  0  0
 16 17  1  0  0  0  0
  1 18  1  0  0  0  0
  1 19  1  0  0  0  0
  1 20  1  0  0  0  0
  2 21  1  0  0  0  0
  2 22  1  0  0  0  0
  3 23  1  0  0  0  0
  3 24  1  0  0  0  0
  4 25  1  0  0  0  0
  4 26  1  0  0  0  0
  9 27  1  0  0  0  0
  9 28  1  0  0  0  0
 10 29  1  0  0  0  0
 10 30  1  0  0  0  0
 11 31  1  0  0  0  0
 11 32  1  0  0  0  0
 12 33  1  0  0  0  0
 12 34  1  0  0  0  0
 12 35  1  0  0  0  0
 14 36  1  0  0  0  0
 14 37  1  0  0  0  0
 15 38  1  0  0  0  0
 15 39  1  0  0  0  0
 16 40  1  0  0  0  0
 16 41  1  0  0  0  0
 17 42  1  0  0  0  0
 17 43  1  0  0  0  0
 17 44  1  0  0  0  0
M  END
