 xtb: 6.7.1 (edcfbbe)
          07082609163D

 29 28  0     0  0            999 V2000
    2.7194    1.0409   -1.6842 C   0  0  0  0  0  0  0  0  0  0  0  0
    2.2574   -0.0808   -1.1649 C   0  0  0  0  0  0  0  0  0  0  0  0
    2.0806   -0.3497    0.3113 C   0  0  0  0  0  0  0  0  0  0  0  0
    2.8299   -1.6478    0.6623 C   0  0  0  0  0  0  0  0  0  0  0  0
    2.5606    0.7118    1.1146 O   0  0  0  0  0  0  0  0  0  0  0  0
    0.5845   -0.5123    0.6351 C   0  0  0  0  0  0  0  0  0  0  0  0
   -0.2206    0.7543    0.3257 C   0  0  0  0  0  0  0  0  0  0  0  0
   -1.6560    0.5689    0.7077 C   0  0  0  0  0  0  0  0  0  0  0  0
   -2.6812    0.3108   -0.0950 C   0  0  0  0  0  0  0  0  0  0  0  0
   -4.0718    0.1419    0.4473 C   0  0  0  0  0  0  0  0  0  0  0  0
   -2.5960    0.1714   -1.5864 C   0  0  0  0  0  0  0  0  0  0  0  0
    2.8280    1.1744   -2.7471 H   0  0  0  0  0  0  0  0  0  0  0  0
    2.9901    1.8822   -1.0671 H   0  0  0  0  0  0  0  0  0  0  0  0
    1.9703   -0.9082   -1.7996 H   0  0  0  0  0  0  0  0  0  0  0  0
    2.4063   -2.4928    0.1270 H   0  0  0  0  0  0  0  0  0  0  0  0
    2.7551   -1.8341    1.7312 H   0  0  0  0  0  0  0  0  0  0  0  0
    3.8825   -1.5586    0.3956 H   0  0  0  0  0  0  0  0  0  0  0  0
    3.5002    0.8243    0.9348 H   0  0  0  0  0  0  0  0  0  0  0  0
    0.1841   -1.3505    0.0625 H   0  0  0  0  0  0  0  0  0  0  0  0
    0.4920   -0.7441    1.6973 H   0  0  0  0  0  0  0  0  0  0  0  0
   -0.1162    0.9997   -0.7309 H   0  0  0  0  0  0  0  0  0  0  0  0
    0.2060    1.5759    0.9035 H   0  0  0  0  0  0  0  0  0  0  0  0
   -1.8421    0.6305    1.7731 H   0  0  0  0  0  0  0  0  0  0  0  0
   -4.7463    0.8639   -0.0127 H   0  0  0  0  0  0  0  0  0  0  0  0
   -4.0955    0.2814    1.5248 H   0  0  0  0  0  0  0  0  0  0  0  0
   -4.4493   -0.8546    0.2174 H   0  0  0  0  0  0  0  0  0  0  0  0
   -3.1441    0.9816   -2.0682 H   0  0  0  0  0  0  0  0  0  0  0  0
   -1.5718    0.1863   -1.9441 H   0  0  0  0  0  0  0  0  0  0  0  0
   -3.0561   -0.7666   -1.8962 H   0  0  0  0  0  0  0  0  0  0  0  0
  1  2  2  0  0  0  0
  2  3  1  0  0  0  0
  3  4  1  0  0  0  0
  3  5  1  0  0  0  0
  3  6  1  0  0  0  0
  6  7  1  0  0  0  0
  7  8  1  0  0  0  0
  8  9  2  0  0  0  0
  9 10  1  0  0  0  0
  9 11  1  0  0  0  0
  1 12  1  0  0  0  0
  1 13  1  0  0  0  0
  2 14  1  0  0  0  0
  4 15  1  0  0  0  0
  4 16  1  0  0  0  0
  4 17  1  0  0  0  0
  5 18  1  0  0  0  0
  6 19  1  0  0  0  0
  6 20  1  0  0  0  0
  7 21  1  0  0  0  0
  7 22  1  0  0  0  0
  8 23  1  0  0  0  0
 10 24  1  0  0  0  0
 10 25  1  0  0  0  0
 10 26  1  0  0  0  0
 11 27  1  0  0  0  0
 11 28  1  0  0  0  0
 11 29  1  0  0  0  0
M  END
