 xtb: 6.7.1 (edcfbbe)
          07072606093D

 25 25  0     0  0            999 V2000
    1.8581    0.2018    1.3280 O   0  0  0  0  0  0  0  0  0  0  0  0
    1.9366    0.3431    0.1358 C   0  0  0  0  0  0  0  0  0  0  0  0
    3.1176   -0.0814   -0.7144 C   0  0  0  0  0  0  0  0  0  0  0  0
    4.1641   -0.7879    0.1296 C   0  0  0  0  0  0  0  0  0  0  0  0
    5.5638   -1.2382   -0.8753 Cl  0  0  0  0  0  0  0  0  0  0  0  0
    1.0005    0.9159   -0.6193 O   0  0  0  0  0  0  0  0  0  0  0  0
   -0.1915    1.3397    0.0335 C   0  0  0  0  0  0  0  0  0  0  0  0
   -1.1292    0.1594    0.3363 C   0  0  0  0  0  0  0  0  0  0  0  0
   -2.3880    0.6325    1.0932 C   0  0  0  0  0  0  0  0  0  0  0  0
   -3.5365    0.0199    0.2893 C   0  0  0  0  0  0  0  0  0  0  0  0
   -2.9066   -0.0979   -1.0977 C   0  0  0  0  0  0  0  0  0  0  0  0
   -1.5656   -0.4681   -0.8562 O   0  0  0  0  0  0  0  0  0  0  0  0
    3.5389    0.8090   -1.1862 H   0  0  0  0  0  0  0  0  0  0  0  0
    2.7508   -0.7320   -1.5105 H   0  0  0  0  0  0  0  0  0  0  0  0
    3.7663   -1.7047    0.5634 H   0  0  0  0  0  0  0  0  0  0  0  0
    4.5287   -0.1398    0.9258 H   0  0  0  0  0  0  0  0  0  0  0  0
   -0.6643    2.0354   -0.6615 H   0  0  0  0  0  0  0  0  0  0  0  0
    0.0663    1.8427    0.9716 H   0  0  0  0  0  0  0  0  0  0  0  0
   -0.5635   -0.5888    0.9027 H   0  0  0  0  0  0  0  0  0  0  0  0
   -2.3800    0.3052    2.1294 H   0  0  0  0  0  0  0  0  0  0  0  0
   -2.4465    1.7215    1.0730 H   0  0  0  0  0  0  0  0  0  0  0  0
   -4.4330    0.6346    0.2923 H   0  0  0  0  0  0  0  0  0  0  0  0
   -3.7807   -0.9721    0.6686 H   0  0  0  0  0  0  0  0  0  0  0  0
   -3.3531   -0.8709   -1.7235 H   0  0  0  0  0  0  0  0  0  0  0  0
   -2.9533    0.8650   -1.6277 H   0  0  0  0  0  0  0  0  0  0  0  0
  1  2  2  0  0  0  0
  2  3  1  0  0  0  0
  3  4  1  0  0  0  0
  4  5  1  0  0  0  0
  2  6  1  0  0  0  0
  6  7  1  0  0  0  0
  7  8  1  0  0  0  0
  8  9  1  0  0  0  0
  9 10  1  0  0  0  0
 10 11  1  0  0  0  0
  8 12  1  0  0  0  0
 11 12  1  0  0  0  0
  3 13  1  0  0  0  0
  3 14  1  0  0  0  0
  4 15  1  0  0  0  0
  4 16  1  0  0  0  0
  7 17  1  0  0  0  0
  7 18  1  0  0  0  0
  8 19  1  0  0  0  0
  9 20  1  0  0  0  0
  9 21  1  0  0  0  0
 10 22  1  0  0  0  0
 10 23  1  0  0  0  0
 11 24  1  0  0  0  0
 11 25  1  0  0  0  0
M  END
