 xtb: 6.7.1 (edcfbbe)
          07072602543D

 33 33  0     0  0            999 V2000
   -5.4682   -0.4072   -0.6088 C   0  0  0  0  0  0  0  0  0  0  0  0
   -4.1277   -0.4715    0.1116 C   0  0  0  0  0  0  0  0  0  0  0  0
   -3.5969    0.9227    0.4388 C   0  0  0  0  0  0  0  0  0  0  0  0
   -2.2468    0.8708    1.1377 C   0  0  0  0  0  0  0  0  0  0  0  0
   -1.2778    0.3462    0.2248 O   0  0  0  0  0  0  0  0  0  0  0  0
   -0.0258    0.2487    0.6808 C   0  0  0  0  0  0  0  0  0  0  0  0
    0.3090    0.5841    1.7836 O   0  0  0  0  0  0  0  0  0  0  0  0
    0.8659   -0.3419   -0.3974 C   0  0  0  0  0  0  0  0  0  0  0  0
    2.2572   -0.3761   -0.0139 N   0  0  0  0  0  0  0  0  0  0  0  0
    2.8448    0.9500    0.0849 C   0  0  0  0  0  0  0  0  0  0  0  0
    4.2798    0.8200    0.5913 C   0  0  0  0  0  0  0  0  0  0  0  0
    5.0567    0.0101   -0.2612 O   0  0  0  0  0  0  0  0  0  0  0  0
    4.4828   -1.2691   -0.3740 C   0  0  0  0  0  0  0  0  0  0  0  0
    3.0536   -1.1940   -0.9121 C   0  0  0  0  0  0  0  0  0  0  0  0
   -5.3731    0.1383   -1.5449 H   0  0  0  0  0  0  0  0  0  0  0  0
   -5.8305   -1.4079   -0.8304 H   0  0  0  0  0  0  0  0  0  0  0  0
   -6.2091    0.0976    0.0074 H   0  0  0  0  0  0  0  0  0  0  0  0
   -3.3985   -0.9880   -0.5145 H   0  0  0  0  0  0  0  0  0  0  0  0
   -4.2383   -1.0406    1.0373 H   0  0  0  0  0  0  0  0  0  0  0  0
   -3.4924    1.4978   -0.4827 H   0  0  0  0  0  0  0  0  0  0  0  0
   -4.3000    1.4447    1.0901 H   0  0  0  0  0  0  0  0  0  0  0  0
   -2.2813    0.2262    2.0230 H   0  0  0  0  0  0  0  0  0  0  0  0
   -1.9243    1.8683    1.4564 H   0  0  0  0  0  0  0  0  0  0  0  0
    0.5227   -1.3675   -0.5652 H   0  0  0  0  0  0  0  0  0  0  0  0
    0.6849    0.2244   -1.3307 H   0  0  0  0  0  0  0  0  0  0  0  0
    2.8479    1.4587   -0.8971 H   0  0  0  0  0  0  0  0  0  0  0  0
    2.2656    1.5396    0.7944 H   0  0  0  0  0  0  0  0  0  0  0  0
    4.7693    1.7949    0.6183 H   0  0  0  0  0  0  0  0  0  0  0  0
    4.2609    0.3881    1.6021 H   0  0  0  0  0  0  0  0  0  0  0  0
    4.4660   -1.7592    0.6108 H   0  0  0  0  0  0  0  0  0  0  0  0
    5.1221   -1.8352   -1.0539 H   0  0  0  0  0  0  0  0  0  0  0  0
    3.0732   -0.7735   -1.9342 H   0  0  0  0  0  0  0  0  0  0  0  0
    2.6283   -2.1993   -0.9529 H   0  0  0  0  0  0  0  0  0  0  0  0
  1  2  1  0  0  0  0
  2  3  1  0  0  0  0
  3  4  1  0  0  0  0
  4  5  1  0  0  0  0
  5  6  1  0  0  0  0
  6  7  2  0  0  0  0
  6  8  1  0  0  0  0
  8  9  1  0  0  0  0
  9 10  1  0  0  0  0
 10 11  1  0  0  0  0
 11 12  1  0  0  0  0
 12 13  1  0  0  0  0
  9 14  1  0  0  0  0
 13 14  1  0  0  0  0
  1 15  1  0  0  0  0
  1 16  1  0  0  0  0
  1 17  1  0  0  0  0
  2 18  1  0  0  0  0
  2 19  1  0  0  0  0
  3 20  1  0  0  0  0
  3 21  1  0  0  0  0
  4 22  1  0  0  0  0
  4 23  1  0  0  0  0
  8 24  1  0  0  0  0
  8 25  1  0  0  0  0
 10 26  1  0  0  0  0
 10 27  1  0  0  0  0
 11 28  1  0  0  0  0
 11 29  1  0  0  0  0
 13 30  1  0  0  0  0
 13 31  1  0  0  0  0
 14 32  1  0  0  0  0
 14 33  1  0  0  0  0
M  END
