 xtb: 6.7.1 (edcfbbe)
          07082619313D

 18 17  0     0  0            999 V2000
   -3.5246   -1.0980   -0.4678 C   0  0  0  0  0  0  0  0  0  0  0  0
   -2.3867   -0.1457   -0.4402 C   0  0  0  0  0  0  0  0  0  0  0  0
   -1.1411   -0.4515   -0.0879 C   0  0  0  0  0  0  0  0  0  0  0  0
   -0.0747    0.5618   -0.0909 C   0  0  0  0  0  0  0  0  0  0  0  0
   -0.2064    1.7229   -0.3976 O   0  0  0  0  0  0  0  0  0  0  0  0
    1.0937    0.0291    0.2982 O   0  0  0  0  0  0  0  0  0  0  0  0
    2.2115    0.9140    0.3374 C   0  0  0  0  0  0  0  0  0  0  0  0
    3.4272    0.1314    0.7968 C   0  0  0  0  0  0  0  0  0  0  0  0
   -3.9423   -1.1472   -1.4730 H   0  0  0  0  0  0  0  0  0  0  0  0
   -3.2151   -2.0937   -0.1607 H   0  0  0  0  0  0  0  0  0  0  0  0
   -4.3161   -0.7490    0.1948 H   0  0  0  0  0  0  0  0  0  0  0  0
   -2.5997    0.8752   -0.7317 H   0  0  0  0  0  0  0  0  0  0  0  0
   -0.8464   -1.4447    0.2153 H   0  0  0  0  0  0  0  0  0  0  0  0
    1.9852    1.7397    1.0221 H   0  0  0  0  0  0  0  0  0  0  0  0
    2.3627    1.3375   -0.6624 H   0  0  0  0  0  0  0  0  0  0  0  0
    4.2920    0.7873    0.8340 H   0  0  0  0  0  0  0  0  0  0  0  0
    3.2524   -0.2843    1.7855 H   0  0  0  0  0  0  0  0  0  0  0  0
    3.6284   -0.6848    0.1081 H   0  0  0  0  0  0  0  0  0  0  0  0
  1  2  1  0  0  0  0
  2  3  2  0  0  0  0
  3  4  1  0  0  0  0
  4  5  2  0  0  0  0
  4  6  1  0  0  0  0
  6  7  1  0  0  0  0
  7  8  1  0  0  0  0
  1  9  1  0  0  0  0
  1 10  1  0  0  0  0
  1 11  1  0  0  0  0
  2 12  1  0  0  0  0
  3 13  1  0  0  0  0
  7 14  1  0  0  0  0
  7 15  1  0  0  0  0
  8 16  1  0  0  0  0
  8 17  1  0  0  0  0
  8 18  1  0  0  0  0
M  END
