 xtb: 6.7.1 (edcfbbe)
          07082607453D

 10  9  0     0  0            999 V2000
   -1.2677    0.1622   -0.0155 C   0  0  0  0  0  0  0  0  0  0  0  0
    0.0237   -0.5015   -0.4263 C   0  0  0  0  0  0  0  0  0  0  0  0
    1.2563    0.0801    0.2215 C   0  0  0  0  0  0  0  0  0  0  0  0
    0.0670   -1.4179   -1.2054 O   0  0  0  0  0  0  0  0  0  0  0  0
   -1.2361    1.2192   -0.2705 H   0  0  0  0  0  0  0  0  0  0  0  0
   -1.3982    0.0793    1.0612 H   0  0  0  0  0  0  0  0  0  0  0  0
   -2.1082   -0.3070   -0.5194 H   0  0  0  0  0  0  0  0  0  0  0  0
    1.3408    1.1353   -0.0286 H   0  0  0  0  0  0  0  0  0  0  0  0
    2.1438   -0.4453   -0.1202 H   0  0  0  0  0  0  0  0  0  0  0  0
    1.1787   -0.0045    1.3032 H   0  0  0  0  0  0  0  0  0  0  0  0
  1  2  1  0  0  0  0
  2  3  1  0  0  0  0
  2  4  2  0  0  0  0
  1  5  1  0  0  0  0
  1  6  1  0  0  0  0
  1  7  1  0  0  0  0
  3  8  1  0  0  0  0
  3  9  1  0  0  0  0
  3 10  1  0  0  0  0
M  END
