 xtb: 6.7.1 (edcfbbe)
          07062617513D

 31 30  0     0  0            999 V2000
    4.0068    0.3822    1.1617 C   0  0  0  0  0  0  0  0  0  0  0  0
    3.4657    0.9876   -0.1240 C   0  0  0  0  0  0  0  0  0  0  0  0
    2.2159    0.3876   -0.4864 O   0  0  0  0  0  0  0  0  0  0  0  0
    1.1409    0.8371    0.1336 C   0  0  0  0  0  0  0  0  0  0  0  0
    1.0772    1.7789    0.8663 O   0  0  0  0  0  0  0  0  0  0  0  0
    0.0212    0.0417   -0.2107 N   0  0  0  0  0  0  0  0  0  0  0  0
    0.1843   -1.3472   -0.4334 C   0  0  0  0  0  0  0  0  0  0  0  0
    1.0640   -1.9924    0.0538 O   0  0  0  0  0  0  0  0  0  0  0  0
   -0.7540   -1.7802   -1.2546 O   0  0  0  0  0  0  0  0  0  0  0  0
   -0.8272   -3.1964   -1.4597 C   0  0  0  0  0  0  0  0  0  0  0  0
   -1.5811   -3.8713   -0.3246 C   0  0  0  0  0  0  0  0  0  0  0  0
   -1.2801    0.5978   -0.1577 C   0  0  0  0  0  0  0  0  0  0  0  0
   -2.2496   -0.0272    0.1538 O   0  0  0  0  0  0  0  0  0  0  0  0
   -1.2378    1.8672   -0.5171 O   0  0  0  0  0  0  0  0  0  0  0  0
   -2.4466    2.6210   -0.3635 C   0  0  0  0  0  0  0  0  0  0  0  0
   -2.6138    3.0913    1.0728 C   0  0  0  0  0  0  0  0  0  0  0  0
    5.0043    0.7660    1.3554 H   0  0  0  0  0  0  0  0  0  0  0  0
    3.3597    0.6398    1.9963 H   0  0  0  0  0  0  0  0  0  0  0  0
    4.0474   -0.7001    1.0706 H   0  0  0  0  0  0  0  0  0  0  0  0
    3.3236    2.0676   -0.0155 H   0  0  0  0  0  0  0  0  0  0  0  0
    4.1246    0.7782   -0.9684 H   0  0  0  0  0  0  0  0  0  0  0  0
   -1.3555   -3.3087   -2.4080 H   0  0  0  0  0  0  0  0  0  0  0  0
    0.1882   -3.5966   -1.5442 H   0  0  0  0  0  0  0  0  0  0  0  0
   -1.7261   -4.9227   -0.5556 H   0  0  0  0  0  0  0  0  0  0  0  0
   -1.0167   -3.7861    0.6004 H   0  0  0  0  0  0  0  0  0  0  0  0
   -2.5484   -3.3942   -0.1900 H   0  0  0  0  0  0  0  0  0  0  0  0
   -2.3315    3.4650   -1.0458 H   0  0  0  0  0  0  0  0  0  0  0  0
   -3.2944    2.0006   -0.6710 H   0  0  0  0  0  0  0  0  0  0  0  0
   -2.7735    2.2389    1.7282 H   0  0  0  0  0  0  0  0  0  0  0  0
   -1.7186    3.6175    1.3943 H   0  0  0  0  0  0  0  0  0  0  0  0
   -3.4689    3.7573    1.1430 H   0  0  0  0  0  0  0  0  0  0  0  0
  1  2  1  0  0  0  0
  2  3  1  0  0  0  0
  3  4  1  0  0  0  0
  4  5  2  0  0  0  0
  4  6  1  0  0  0  0
  6  7  1  0  0  0  0
  7  8  2  0  0  0  0
  7  9  1  0  0  0  0
  9 10  1  0  0  0  0
 10 11  1  0  0  0  0
  6 12  1  0  0  0  0
 12 13  2  0  0  0  0
 12 14  1  0  0  0  0
 14 15  1  0  0  0  0
 15 16  1  0  0  0  0
  1 17  1  0  0  0  0
  1 18  1  0  0  0  0
  1 19  1  0  0  0  0
  2 20  1  0  0  0  0
  2 21  1  0  0  0  0
 10 22  1  0  0  0  0
 10 23  1  0  0  0  0
 11 24  1  0  0  0  0
 11 25  1  0  0  0  0
 11 26  1  0  0  0  0
 15 27  1  0  0  0  0
 15 28  1  0  0  0  0
 16 29  1  0  0  0  0
 16 30  1  0  0  0  0
 16 31  1  0  0  0  0
M  END
