 xtb: 6.7.1 (edcfbbe)
          07072608353D

 28 28  0     0  0            999 V2000
    2.0108    0.2988   -1.5973 C   0  0  0  0  0  0  0  0  0  0  0  0
    2.4581    0.5006   -0.1544 C   0  0  0  0  0  0  0  0  0  0  0  0
    3.0468    1.8823    0.0827 C   0  0  0  0  0  0  0  0  0  0  0  0
    1.3156    0.3768    0.7186 O   0  0  0  0  0  0  0  0  0  0  0  0
    0.9228   -0.8387    1.0445 C   0  0  0  0  0  0  0  0  0  0  0  0
    1.4749   -1.8696    0.7436 O   0  0  0  0  0  0  0  0  0  0  0  0
   -0.3812   -0.8456    1.8419 C   0  0  0  0  0  0  0  0  0  0  0  0
   -0.5408   -2.0901    2.4550 O   0  0  0  0  0  0  0  0  0  0  0  0
   -1.4683   -0.5154    0.8305 C   0  0  0  0  0  0  0  0  0  0  0  0
   -2.2416   -1.5225    0.2735 C   0  0  0  0  0  0  0  0  0  0  0  0
   -3.2044   -1.2158   -0.6727 C   0  0  0  0  0  0  0  0  0  0  0  0
   -3.3928    0.0949   -1.0742 C   0  0  0  0  0  0  0  0  0  0  0  0
   -2.6195    1.1024   -0.5205 C   0  0  0  0  0  0  0  0  0  0  0  0
   -1.6608    0.8002    0.4290 C   0  0  0  0  0  0  0  0  0  0  0  0
    1.6032   -0.7011   -1.7261 H   0  0  0  0  0  0  0  0  0  0  0  0
    1.2433    1.0259   -1.8533 H   0  0  0  0  0  0  0  0  0  0  0  0
    2.8576    0.4208   -2.2663 H   0  0  0  0  0  0  0  0  0  0  0  0
    3.1771   -0.2809    0.1228 H   0  0  0  0  0  0  0  0  0  0  0  0
    2.3193    2.6443   -0.1844 H   0  0  0  0  0  0  0  0  0  0  0  0
    3.3121    2.0054    1.1292 H   0  0  0  0  0  0  0  0  0  0  0  0
    3.9372    2.0114   -0.5253 H   0  0  0  0  0  0  0  0  0  0  0  0
   -0.3475   -0.0697    2.6153 H   0  0  0  0  0  0  0  0  0  0  0  0
    0.0448   -2.7110    1.9902 H   0  0  0  0  0  0  0  0  0  0  0  0
   -2.0975   -2.5424    0.5958 H   0  0  0  0  0  0  0  0  0  0  0  0
   -3.8064   -2.0047   -1.0987 H   0  0  0  0  0  0  0  0  0  0  0  0
   -4.1419    0.3330   -1.8147 H   0  0  0  0  0  0  0  0  0  0  0  0
   -2.7661    2.1275   -0.8281 H   0  0  0  0  0  0  0  0  0  0  0  0
   -1.0550    1.5831    0.8606 H   0  0  0  0  0  0  0  0  0  0  0  0
  1  2  1  0  0  0  0
  2  3  1  0  0  0  0
  2  4  1  0  0  0  0
  4  5  1  0  0  0  0
  5  6  2  0  0  0  0
  5  7  1  0  0  0  0
  7  8  1  0  0  0  0
  7  9  1  0  0  0  0
  9 10  4  0  0  0  0
 10 11  4  0  0  0  0
 11 12  4  0  0  0  0
 12 13  4  0  0  0  0
  9 14  4  0  0  0  0
 13 14  4  0  0  0  0
  1 15  1  0  0  0  0
  1 16  1  0  0  0  0
  1 17  1  0  0  0  0
  2 18  1  0  0  0  0
  3 19  1  0  0  0  0
  3 20  1  0  0  0  0
  3 21  1  0  0  0  0
  7 22  1  0  0  0  0
  8 23  1  0  0  0  0
 10 24  1  0  0  0  0
 11 25  1  0  0  0  0
 12 26  1  0  0  0  0
 13 27  1  0  0  0  0
 14 28  1  0  0  0  0
M  END
