 xtb: 6.7.1 (edcfbbe)
          07082614593D

 39 38  0     0  0            999 V2000
   -2.2680    2.0832   -0.7420 C   0  0  0  0  0  0  0  0  0  0  0  0
   -3.4501    1.5306   -0.9893 C   0  0  0  0  0  0  0  0  0  0  0  0
   -3.8744    0.1842   -0.6287 C   0  0  0  0  0  0  0  0  0  0  0  0
   -5.1161   -0.2148   -0.9060 C   0  0  0  0  0  0  0  0  0  0  0  0
   -2.8929   -0.7504    0.0208 C   0  0  0  0  0  0  0  0  0  0  0  0
   -1.9259   -1.3435   -1.0204 C   0  0  0  0  0  0  0  0  0  0  0  0
   -0.9791   -2.3080   -0.3784 C   0  0  0  0  0  0  0  0  0  0  0  0
    0.3163   -2.1381   -0.1373 C   0  0  0  0  0  0  0  0  0  0  0  0
    1.1250   -3.2084    0.5371 C   0  0  0  0  0  0  0  0  0  0  0  0
    1.0898   -0.8947   -0.4781 C   0  0  0  0  0  0  0  0  0  0  0  0
    1.1354    0.0823    0.7126 C   0  0  0  0  0  0  0  0  0  0  0  0
    1.8122    1.3597    0.3215 C   0  0  0  0  0  0  0  0  0  0  0  0
    3.0967    1.6651    0.4609 C   0  0  0  0  0  0  0  0  0  0  0  0
    4.1323    0.7713    1.0755 C   0  0  0  0  0  0  0  0  0  0  0  0
    3.6377    2.9857   -0.0056 C   0  0  0  0  0  0  0  0  0  0  0  0
   -2.0489    3.0930   -1.0464 H   0  0  0  0  0  0  0  0  0  0  0  0
   -1.4763    1.5655   -0.2296 H   0  0  0  0  0  0  0  0  0  0  0  0
   -4.2034    2.1145   -1.5047 H   0  0  0  0  0  0  0  0  0  0  0  0
   -5.4668   -1.2010   -0.6525 H   0  0  0  0  0  0  0  0  0  0  0  0
   -5.8270    0.4321   -1.3926 H   0  0  0  0  0  0  0  0  0  0  0  0
   -3.4326   -1.5664    0.5052 H   0  0  0  0  0  0  0  0  0  0  0  0
   -2.3213   -0.2264    0.7884 H   0  0  0  0  0  0  0  0  0  0  0  0
   -1.3950   -0.5340   -1.5191 H   0  0  0  0  0  0  0  0  0  0  0  0
   -2.5175   -1.8710   -1.7743 H   0  0  0  0  0  0  0  0  0  0  0  0
   -1.4422   -3.2373   -0.0677 H   0  0  0  0  0  0  0  0  0  0  0  0
    0.5038   -4.0537    0.8217 H   0  0  0  0  0  0  0  0  0  0  0  0
    1.6059   -2.8144    1.4318 H   0  0  0  0  0  0  0  0  0  0  0  0
    1.9101   -3.5635   -0.1308 H   0  0  0  0  0  0  0  0  0  0  0  0
    0.6468   -0.3829   -1.3334 H   0  0  0  0  0  0  0  0  0  0  0  0
    2.1144   -1.1615   -0.7455 H   0  0  0  0  0  0  0  0  0  0  0  0
    1.6447   -0.3926    1.5517 H   0  0  0  0  0  0  0  0  0  0  0  0
    0.1129    0.2963    1.0310 H   0  0  0  0  0  0  0  0  0  0  0  0
    1.1652    2.0805   -0.1637 H   0  0  0  0  0  0  0  0  0  0  0  0
    4.6235    1.2827    1.9036 H   0  0  0  0  0  0  0  0  0  0  0  0
    4.8976    0.5326    0.3364 H   0  0  0  0  0  0  0  0  0  0  0  0
    3.7111   -0.1589    1.4422 H   0  0  0  0  0  0  0  0  0  0  0  0
    4.4338    2.8316   -0.7340 H   0  0  0  0  0  0  0  0  0  0  0  0
    2.8608    3.5927   -0.4630 H   0  0  0  0  0  0  0  0  0  0  0  0
    4.0614    3.5376    0.8335 H   0  0  0  0  0  0  0  0  0  0  0  0
  1  2  2  0  0  0  0
  2  3  1  0  0  0  0
  3  4  2  0  0  0  0
  3  5  1  0  0  0  0
  5  6  1  0  0  0  0
  6  7  1  0  0  0  0
  7  8  2  0  0  0  0
  8  9  1  0  0  0  0
  8 10  1  0  0  0  0
 10 11  1  0  0  0  0
 11 12  1  0  0  0  0
 12 13  2  0  0  0  0
 13 14  1  0  0  0  0
 13 15  1  0  0  0  0
  1 16  1  0  0  0  0
  1 17  1  0  0  0  0
  2 18  1  0  0  0  0
  4 19  1  0  0  0  0
  4 20  1  0  0  0  0
  5 21  1  0  0  0  0
  5 22  1  0  0  0  0
  6 23  1  0  0  0  0
  6 24  1  0  0  0  0
  7 25  1  0  0  0  0
  9 26  1  0  0  0  0
  9 27  1  0  0  0  0
  9 28  1  0  0  0  0
 10 29  1  0  0  0  0
 10 30  1  0  0  0  0
 11 31  1  0  0  0  0
 11 32  1  0  0  0  0
 12 33  1  0  0  0  0
 14 34  1  0  0  0  0
 14 35  1  0  0  0  0
 14 36  1  0  0  0  0
 15 37  1  0  0  0  0
 15 38  1  0  0  0  0
 15 39  1  0  0  0  0
M  END
