 xtb: 6.7.1 (edcfbbe)
          07092612023D

 23 23  0     0  0            999 V2000
   -2.1868   -1.7637    0.9663 C   0  0  0  0  0  0  0  0  0  0  0  0
   -1.9148   -0.2830    0.8032 C   0  0  0  0  0  0  0  0  0  0  0  0
   -2.7469    0.5352    1.1280 O   0  0  0  0  0  0  0  0  0  0  0  0
   -0.5984    0.0880    0.2268 C   0  0  0  0  0  0  0  0  0  0  0  0
    0.4819   -0.7895    0.3379 C   0  0  0  0  0  0  0  0  0  0  0  0
    1.7316   -0.4844   -0.1730 C   0  0  0  0  0  0  0  0  0  0  0  0
    2.8832   -1.4294   -0.0090 C   0  0  0  0  0  0  0  0  0  0  0  0
    1.8958    0.7310   -0.8273 C   0  0  0  0  0  0  0  0  0  0  0  0
    0.8369    1.6083   -0.9497 C   0  0  0  0  0  0  0  0  0  0  0  0
   -0.4174    1.3196   -0.4247 C   0  0  0  0  0  0  0  0  0  0  0  0
   -1.5203    2.3156   -0.5801 C   0  0  0  0  0  0  0  0  0  0  0  0
   -1.6527   -2.1394    1.8371 H   0  0  0  0  0  0  0  0  0  0  0  0
   -3.2516   -1.9085    1.1321 H   0  0  0  0  0  0  0  0  0  0  0  0
   -1.8684   -2.3205    0.0892 H   0  0  0  0  0  0  0  0  0  0  0  0
    0.3563   -1.7283    0.8553 H   0  0  0  0  0  0  0  0  0  0  0  0
    3.5475   -1.3815   -0.8690 H   0  0  0  0  0  0  0  0  0  0  0  0
    2.5348   -2.4525    0.1113 H   0  0  0  0  0  0  0  0  0  0  0  0
    3.4609   -1.1622    0.8765 H   0  0  0  0  0  0  0  0  0  0  0  0
    2.8598    0.9895   -1.2419 H   0  0  0  0  0  0  0  0  0  0  0  0
    0.9851    2.5479   -1.4629 H   0  0  0  0  0  0  0  0  0  0  0  0
   -1.2349    3.0947   -1.2838 H   0  0  0  0  0  0  0  0  0  0  0  0
   -2.4359    1.8391   -0.9239 H   0  0  0  0  0  0  0  0  0  0  0  0
   -1.7457    2.7740    0.3817 H   0  0  0  0  0  0  0  0  0  0  0  0
  1  2  1  0  0  0  0
  2  3  2  0  0  0  0
  2  4  1  0  0  0  0
  4  5  4  0  0  0  0
  5  6  4  0  0  0  0
  6  7  1  0  0  0  0
  6  8  4  0  0  0  0
  8  9  4  0  0  0  0
  4 10  4  0  0  0  0
  9 10  4  0  0  0  0
 10 11  1  0  0  0  0
  1 12  1  0  0  0  0
  1 13  1  0  0  0  0
  1 14  1  0  0  0  0
  5 15  1  0  0  0  0
  7 16  1  0  0  0  0
  7 17  1  0  0  0  0
  7 18  1  0  0  0  0
  8 19  1  0  0  0  0
  9 20  1  0  0  0  0
 11 21  1  0  0  0  0
 11 22  1  0  0  0  0
 11 23  1  0  0  0  0
M  END
