 xtb: 6.7.1 (edcfbbe)
          07072614333D

 38 38  0     0  0            999 V2000
   -4.1903   -1.6858   -1.3456 C   0  0  0  0  0  0  0  0  0  0  0  0
   -3.2784   -1.5073   -0.1357 C   0  0  0  0  0  0  0  0  0  0  0  0
   -2.5323   -0.2604   -0.2009 N   0  0  0  0  0  0  0  0  0  0  0  0
   -3.1927    0.9163    0.3204 C   0  0  0  0  0  0  0  0  0  0  0  0
   -2.9553    1.0982    1.8207 C   0  0  0  0  0  0  0  0  0  0  0  0
   -1.2789   -0.2979   -0.7181 C   0  0  0  0  0  0  0  0  0  0  0  0
   -0.7774   -1.3324   -1.1101 O   0  0  0  0  0  0  0  0  0  0  0  0
   -0.5300    1.0407   -0.7861 C   0  0  0  0  0  0  0  0  0  0  0  0
    0.7555    0.9157   -1.3220 O   0  0  0  0  0  0  0  0  0  0  0  0
    1.7107    0.2594   -0.4931 C   0  0  0  0  0  0  0  0  0  0  0  0
    2.3786    1.2433    0.4747 C   0  0  0  0  0  0  0  0  0  0  0  0
    3.4640    0.5395    1.2826 C   0  0  0  0  0  0  0  0  0  0  0  0
    4.5091   -0.0725    0.3554 C   0  0  0  0  0  0  0  0  0  0  0  0
    3.8503   -1.0525   -0.6109 C   0  0  0  0  0  0  0  0  0  0  0  0
    2.7565   -0.3609   -1.4167 C   0  0  0  0  0  0  0  0  0  0  0  0
   -4.9150   -0.8769   -1.4136 H   0  0  0  0  0  0  0  0  0  0  0  0
   -4.7274   -2.6271   -1.2682 H   0  0  0  0  0  0  0  0  0  0  0  0
   -3.5940   -1.6972   -2.2539 H   0  0  0  0  0  0  0  0  0  0  0  0
   -3.8607   -1.5199    0.7890 H   0  0  0  0  0  0  0  0  0  0  0  0
   -2.5492   -2.3197   -0.1099 H   0  0  0  0  0  0  0  0  0  0  0  0
   -4.2651    0.8047    0.1380 H   0  0  0  0  0  0  0  0  0  0  0  0
   -2.8571    1.8033   -0.2188 H   0  0  0  0  0  0  0  0  0  0  0  0
   -3.4810    1.9810    2.1747 H   0  0  0  0  0  0  0  0  0  0  0  0
   -1.8959    1.2151    2.0333 H   0  0  0  0  0  0  0  0  0  0  0  0
   -3.3184    0.2343    2.3719 H   0  0  0  0  0  0  0  0  0  0  0  0
   -1.0599    1.7082   -1.4734 H   0  0  0  0  0  0  0  0  0  0  0  0
   -0.5039    1.5047    0.2107 H   0  0  0  0  0  0  0  0  0  0  0  0
    1.2206   -0.5396    0.0779 H   0  0  0  0  0  0  0  0  0  0  0  0
    2.8143    2.0578   -0.1077 H   0  0  0  0  0  0  0  0  0  0  0  0
    1.6336    1.6742    1.1488 H   0  0  0  0  0  0  0  0  0  0  0  0
    3.0099   -0.2504    1.8862 H   0  0  0  0  0  0  0  0  0  0  0  0
    3.9371    1.2513    1.9631 H   0  0  0  0  0  0  0  0  0  0  0  0
    5.2733   -0.5848    0.9440 H   0  0  0  0  0  0  0  0  0  0  0  0
    4.9985    0.7224   -0.2117 H   0  0  0  0  0  0  0  0  0  0  0  0
    3.4136   -1.8796   -0.0467 H   0  0  0  0  0  0  0  0  0  0  0  0
    4.5984   -1.4677   -1.2889 H   0  0  0  0  0  0  0  0  0  0  0  0
    2.2556   -1.0701   -2.0756 H   0  0  0  0  0  0  0  0  0  0  0  0
    3.1831    0.4324   -2.0331 H   0  0  0  0  0  0  0  0  0  0  0  0
  1  2  1  0  0  0  0
  2  3  1  0  0  0  0
  3  4  1  0  0  0  0
  4  5  1  0  0  0  0
  3  6  4  0  0  0  0
  6  7  2  0  0  0  0
  6  8  1  0  0  0  0
  8  9  1  0  0  0  0
  9 10  1  0  0  0  0
 10 11  1  0  0  0  0
 11 12  1  0  0  0  0
 12 13  1  0  0  0  0
 13 14  1  0  0  0  0
 10 15  1  0  0  0  0
 14 15  1  0  0  0  0
  1 16  1  0  0  0  0
  1 17  1  0  0  0  0
  1 18  1  0  0  0  0
  2 19  1  0  0  0  0
  2 20  1  0  0  0  0
  4 21  1  0  0  0  0
  4 22  1  0  0  0  0
  5 23  1  0  0  0  0
  5 24  1  0  0  0  0
  5 25  1  0  0  0  0
  8 26  1  0  0  0  0
  8 27  1  0  0  0  0
 10 28  1  0  0  0  0
 11 29  1  0  0  0  0
 11 30  1  0  0  0  0
 12 31  1  0  0  0  0
 12 32  1  0  0  0  0
 13 33  1  0  0  0  0
 13 34  1  0  0  0  0
 14 35  1  0  0  0  0
 14 36  1  0  0  0  0
 15 37  1  0  0  0  0
 15 38  1  0  0  0  0
M  END
