 xtb: 6.7.1 (edcfbbe)
          07072606143D

 25 25  0     0  0            999 V2000
    3.3895    1.9152    0.9740 C   0  0  0  0  0  0  0  0  0  0  0  0
    3.3455    0.6539    0.5834 C   0  0  0  0  0  0  0  0  0  0  0  0
    4.1002   -0.5957    1.5076 Cl  0  0  0  0  0  0  0  0  0  0  0  0
    2.6519    0.1558   -0.6462 C   0  0  0  0  0  0  0  0  0  0  0  0
    1.5586   -0.6675   -0.2422 O   0  0  0  0  0  0  0  0  0  0  0  0
    0.8004   -1.1677   -1.2239 C   0  0  0  0  0  0  0  0  0  0  0  0
    1.0154   -0.9838   -2.3911 O   0  0  0  0  0  0  0  0  0  0  0  0
   -0.3725   -1.9343   -0.6519 C   0  0  0  0  0  0  0  0  0  0  0  0
   -1.4415   -0.9178   -0.3352 C   0  0  0  0  0  0  0  0  0  0  0  0
   -2.4728   -0.6736   -1.2315 C   0  0  0  0  0  0  0  0  0  0  0  0
   -3.4326    0.2829   -0.9489 C   0  0  0  0  0  0  0  0  0  0  0  0
   -3.3659    1.0086    0.2280 C   0  0  0  0  0  0  0  0  0  0  0  0
   -2.3337    0.7757    1.1217 C   0  0  0  0  0  0  0  0  0  0  0  0
   -1.3748   -0.1808    0.8407 C   0  0  0  0  0  0  0  0  0  0  0  0
    3.9039    2.2160    1.8688 H   0  0  0  0  0  0  0  0  0  0  0  0
    2.9107    2.6859    0.3967 H   0  0  0  0  0  0  0  0  0  0  0  0
    3.3326   -0.4379   -1.2694 H   0  0  0  0  0  0  0  0  0  0  0  0
    2.2743    0.9924   -1.2442 H   0  0  0  0  0  0  0  0  0  0  0  0
   -0.7241   -2.6471   -1.3965 H   0  0  0  0  0  0  0  0  0  0  0  0
   -0.0545   -2.4491    0.2540 H   0  0  0  0  0  0  0  0  0  0  0  0
   -2.5230   -1.2333   -2.1538 H   0  0  0  0  0  0  0  0  0  0  0  0
   -4.2328    0.4634   -1.6513 H   0  0  0  0  0  0  0  0  0  0  0  0
   -4.1143    1.7555    0.4476 H   0  0  0  0  0  0  0  0  0  0  0  0
   -2.2750    1.3410    2.0402 H   0  0  0  0  0  0  0  0  0  0  0  0
   -0.5653   -0.3577    1.5338 H   0  0  0  0  0  0  0  0  0  0  0  0
  1  2  2  0  0  0  0
  2  3  1  0  0  0  0
  2  4  1  0  0  0  0
  4  5  1  0  0  0  0
  5  6  1  0  0  0  0
  6  7  2  0  0  0  0
  6  8  1  0  0  0  0
  8  9  1  0  0  0  0
  9 10  4  0  0  0  0
 10 11  4  0  0  0  0
 11 12  4  0  0  0  0
 12 13  4  0  0  0  0
  9 14  4  0  0  0  0
 13 14  4  0  0  0  0
  1 15  1  0  0  0  0
  1 16  1  0  0  0  0
  4 17  1  0  0  0  0
  4 18  1  0  0  0  0
  8 19  1  0  0  0  0
  8 20  1  0  0  0  0
 10 21  1  0  0  0  0
 11 22  1  0  0  0  0
 12 23  1  0  0  0  0
 13 24  1  0  0  0  0
 14 25  1  0  0  0  0
M  END
