 xtb: 6.7.1 (edcfbbe)
          07082615213D

 39 39  0     0  0            999 V2000
    1.5877   -3.4835    0.3346 C   0  0  0  0  0  0  0  0  0  0  0  0
    1.3697   -2.2006    0.0509 C   0  0  0  0  0  0  0  0  0  0  0  0
    0.1252   -1.5414    0.4377 C   0  0  0  0  0  0  0  0  0  0  0  0
   -0.3669   -0.4425   -0.1280 C   0  0  0  0  0  0  0  0  0  0  0  0
   -1.4666    0.3971    0.4390 C   0  0  0  0  0  0  0  0  0  0  0  0
   -2.8084    0.1968   -0.3044 C   0  0  0  0  0  0  0  0  0  0  0  0
   -3.3861   -1.1776    0.0278 C   0  0  0  0  0  0  0  0  0  0  0  0
   -2.6781    0.3447   -1.8187 C   0  0  0  0  0  0  0  0  0  0  0  0
   -1.0407    1.8766    0.4363 C   0  0  0  0  0  0  0  0  0  0  0  0
    0.2318    2.1695    1.2535 C   0  0  0  0  0  0  0  0  0  0  0  0
    1.4642    1.5867    0.6137 C   0  0  0  0  0  0  0  0  0  0  0  0
    1.9325    2.2717   -0.6366 C   0  0  0  0  0  0  0  0  0  0  0  0
    2.0232    0.4881    1.1113 C   0  0  0  0  0  0  0  0  0  0  0  0
    3.0684   -0.3680    0.4664 C   0  0  0  0  0  0  0  0  0  0  0  0
    2.4445   -1.3421   -0.5632 C   0  0  0  0  0  0  0  0  0  0  0  0
    0.8340   -4.0959    0.8012 H   0  0  0  0  0  0  0  0  0  0  0  0
    2.5171   -3.9720    0.0947 H   0  0  0  0  0  0  0  0  0  0  0  0
   -0.3716   -1.9589    1.3056 H   0  0  0  0  0  0  0  0  0  0  0  0
    0.0748   -0.0583   -1.0352 H   0  0  0  0  0  0  0  0  0  0  0  0
   -1.6304    0.0976    1.4810 H   0  0  0  0  0  0  0  0  0  0  0  0
   -3.5056    0.9617    0.0588 H   0  0  0  0  0  0  0  0  0  0  0  0
   -4.3343   -1.3258   -0.4844 H   0  0  0  0  0  0  0  0  0  0  0  0
   -3.5563   -1.2773    1.0976 H   0  0  0  0  0  0  0  0  0  0  0  0
   -2.6979   -1.9595   -0.2860 H   0  0  0  0  0  0  0  0  0  0  0  0
   -2.0499   -0.4446   -2.2248 H   0  0  0  0  0  0  0  0  0  0  0  0
   -3.6594    0.2706   -2.2833 H   0  0  0  0  0  0  0  0  0  0  0  0
   -2.2516    1.3072   -2.0891 H   0  0  0  0  0  0  0  0  0  0  0  0
   -1.8589    2.4677    0.8561 H   0  0  0  0  0  0  0  0  0  0  0  0
   -0.8844    2.2126   -0.5893 H   0  0  0  0  0  0  0  0  0  0  0  0
    0.3351    3.2551    1.3381 H   0  0  0  0  0  0  0  0  0  0  0  0
    0.1082    1.7622    2.2588 H   0  0  0  0  0  0  0  0  0  0  0  0
    2.9789    2.0564   -0.8365 H   0  0  0  0  0  0  0  0  0  0  0  0
    1.8110    3.3499   -0.5429 H   0  0  0  0  0  0  0  0  0  0  0  0
    1.3549    1.9483   -1.5032 H   0  0  0  0  0  0  0  0  0  0  0  0
    1.6186    0.0839    2.0302 H   0  0  0  0  0  0  0  0  0  0  0  0
    3.8151    0.2380   -0.0515 H   0  0  0  0  0  0  0  0  0  0  0  0
    3.5799   -0.9550    1.2317 H   0  0  0  0  0  0  0  0  0  0  0  0
    2.0343   -0.7602   -1.3889 H   0  0  0  0  0  0  0  0  0  0  0  0
    3.2378   -1.9794   -0.9589 H   0  0  0  0  0  0  0  0  0  0  0  0
  1  2  2  0  0  0  0
  2  3  1  0  0  0  0
  3  4  2  0  0  0  0
  4  5  1  0  0  0  0
  5  6  1  0  0  0  0
  6  7  1  0  0  0  0
  6  8  1  0  0  0  0
  5  9  1  0  0  0  0
  9 10  1  0  0  0  0
 10 11  1  0  0  0  0
 11 12  1  0  0  0  0
 11 13  2  0  0  0  0
 13 14  1  0  0  0  0
  2 15  1  0  0  0  0
 14 15  1  0  0  0  0
  1 16  1  0  0  0  0
  1 17  1  0  0  0  0
  3 18  1  0  0  0  0
  4 19  1  0  0  0  0
  5 20  1  0  0  0  0
  6 21  1  0  0  0  0
  7 22  1  0  0  0  0
  7 23  1  0  0  0  0
  7 24  1  0  0  0  0
  8 25  1  0  0  0  0
  8 26  1  0  0  0  0
  8 27  1  0  0  0  0
  9 28  1  0  0  0  0
  9 29  1  0  0  0  0
 10 30  1  0  0  0  0
 10 31  1  0  0  0  0
 12 32  1  0  0  0  0
 12 33  1  0  0  0  0
 12 34  1  0  0  0  0
 13 35  1  0  0  0  0
 14 36  1  0  0  0  0
 14 37  1  0  0  0  0
 15 38  1  0  0  0  0
 15 39  1  0  0  0  0
M  END
