 xtb: 6.7.1 (edcfbbe)
          07092616563D

 32 32  0     0  0            999 V2000
    2.4456   -0.4429   -1.6755 C   0  0  0  0  0  0  0  0  0  0  0  0
    2.5305   -0.0859   -0.1976 C   0  0  0  0  0  0  0  0  0  0  0  0
    1.1384    0.1677    0.4194 C   0  0  0  0  0  0  0  0  0  0  0  0
    1.3118    0.4937    1.9168 C   0  0  0  0  0  0  0  0  0  0  0  0
    0.6013    1.2656   -0.2821 O   0  0  0  0  0  0  0  0  0  0  0  0
   -0.7946    1.4610   -0.1418 C   0  0  0  0  0  0  0  0  0  0  0  0
   -1.1678    2.6560   -1.0101 C   0  0  0  0  0  0  0  0  0  0  0  0
   -1.5321    0.1924   -0.5708 C   0  0  0  0  0  0  0  0  0  0  0  0
   -1.0092   -1.0234    0.2092 C   0  0  0  0  0  0  0  0  0  0  0  0
   -1.3858   -2.3149   -0.5269 C   0  0  0  0  0  0  0  0  0  0  0  0
   -1.6056   -1.0760    1.6246 C   0  0  0  0  0  0  0  0  0  0  0  0
    0.4178   -1.0311    0.2300 O   0  0  0  0  0  0  0  0  0  0  0  0
    3.4418   -0.6055   -2.0799 H   0  0  0  0  0  0  0  0  0  0  0  0
    1.9692    0.3657   -2.2229 H   0  0  0  0  0  0  0  0  0  0  0  0
    1.8599   -1.3490   -1.8035 H   0  0  0  0  0  0  0  0  0  0  0  0
    2.9975   -0.8992    0.3573 H   0  0  0  0  0  0  0  0  0  0  0  0
    3.1201    0.8214   -0.0685 H   0  0  0  0  0  0  0  0  0  0  0  0
    2.0447    1.2882    2.0258 H   0  0  0  0  0  0  0  0  0  0  0  0
    1.6596   -0.3951    2.4347 H   0  0  0  0  0  0  0  0  0  0  0  0
    0.3809    0.8198    2.3692 H   0  0  0  0  0  0  0  0  0  0  0  0
   -1.0369    1.6969    0.9076 H   0  0  0  0  0  0  0  0  0  0  0  0
   -0.6061    3.5298   -0.6921 H   0  0  0  0  0  0  0  0  0  0  0  0
   -0.9230    2.4480   -2.0480 H   0  0  0  0  0  0  0  0  0  0  0  0
   -2.2315    2.8605   -0.9248 H   0  0  0  0  0  0  0  0  0  0  0  0
   -2.6046    0.3025   -0.4123 H   0  0  0  0  0  0  0  0  0  0  0  0
   -1.3433    0.0369   -1.6352 H   0  0  0  0  0  0  0  0  0  0  0  0
   -1.0493   -3.1736    0.0468 H   0  0  0  0  0  0  0  0  0  0  0  0
   -2.4621   -2.3709   -0.6637 H   0  0  0  0  0  0  0  0  0  0  0  0
   -0.9001   -2.3406   -1.4986 H   0  0  0  0  0  0  0  0  0  0  0  0
   -1.0517   -1.7950    2.2227 H   0  0  0  0  0  0  0  0  0  0  0  0
   -2.6444   -1.3917    1.5691 H   0  0  0  0  0  0  0  0  0  0  0  0
   -1.5708   -0.1109    2.1213 H   0  0  0  0  0  0  0  0  0  0  0  0
  1  2  1  0  0  0  0
  2  3  1  0  0  0  0
  3  4  1  0  0  0  0
  3  5  1  0  0  0  0
  5  6  1  0  0  0  0
  6  7  1  0  0  0  0
  6  8  1  0  0  0  0
  8  9  1  0  0  0  0
  9 10  1  0  0  0  0
  9 11  1  0  0  0  0
  3 12  1  0  0  0  0
  9 12  1  0  0  0  0
  1 13  1  0  0  0  0
  1 14  1  0  0  0  0
  1 15  1  0  0  0  0
  2 16  1  0  0  0  0
  2 17  1  0  0  0  0
  4 18  1  0  0  0  0
  4 19  1  0  0  0  0
  4 20  1  0  0  0  0
  6 21  1  0  0  0  0
  7 22  1  0  0  0  0
  7 23  1  0  0  0  0
  7 24  1  0  0  0  0
  8 25  1  0  0  0  0
  8 26  1  0  0  0  0
 10 27  1  0  0  0  0
 10 28  1  0  0  0  0
 10 29  1  0  0  0  0
 11 30  1  0  0  0  0
 11 31  1  0  0  0  0
 11 32  1  0  0  0  0
M  END
