 xtb: 6.7.1 (edcfbbe)
          07082608453D

 28 27  0     0  0            999 V2000
    1.9984   -0.5943   -1.5289 C   0  0  0  0  0  0  0  0  0  0  0  0
    1.1248   -0.0268   -0.4105 C   0  0  0  0  0  0  0  0  0  0  0  0
    1.9480    0.0571    0.8795 C   0  0  0  0  0  0  0  0  0  0  0  0
    2.9157    1.2014    0.8979 C   0  0  0  0  0  0  0  0  0  0  0  0
    2.9733    2.0952    0.1012 O   0  0  0  0  0  0  0  0  0  0  0  0
   -0.1409   -0.8795   -0.2224 C   0  0  0  0  0  0  0  0  0  0  0  0
   -1.4505   -0.1135    0.0494 C   0  0  0  0  0  0  0  0  0  0  0  0
   -1.3325    0.7991    1.2718 C   0  0  0  0  0  0  0  0  0  0  0  0
   -1.8458    0.7203   -1.1718 C   0  0  0  0  0  0  0  0  0  0  0  0
   -2.5516   -1.1474    0.3123 C   0  0  0  0  0  0  0  0  0  0  0  0
    2.8977    0.0056   -1.6466 H   0  0  0  0  0  0  0  0  0  0  0  0
    2.2903   -1.6195   -1.3056 H   0  0  0  0  0  0  0  0  0  0  0  0
    1.4601   -0.5871   -2.4736 H   0  0  0  0  0  0  0  0  0  0  0  0
    0.8489    0.9922   -0.6920 H   0  0  0  0  0  0  0  0  0  0  0  0
    1.2994    0.1950    1.7488 H   0  0  0  0  0  0  0  0  0  0  0  0
    2.5045   -0.8694    1.0458 H   0  0  0  0  0  0  0  0  0  0  0  0
    3.6042    1.1738    1.7689 H   0  0  0  0  0  0  0  0  0  0  0  0
   -0.2975   -1.4718   -1.1263 H   0  0  0  0  0  0  0  0  0  0  0  0
    0.0259   -1.5870    0.5939 H   0  0  0  0  0  0  0  0  0  0  0  0
   -1.0574    0.2259    2.1554 H   0  0  0  0  0  0  0  0  0  0  0  0
   -2.2885    1.2799    1.4693 H   0  0  0  0  0  0  0  0  0  0  0  0
   -0.5930    1.5792    1.1114 H   0  0  0  0  0  0  0  0  0  0  0  0
   -2.8004    1.2120   -0.9980 H   0  0  0  0  0  0  0  0  0  0  0  0
   -1.9427    0.0875   -2.0512 H   0  0  0  0  0  0  0  0  0  0  0  0
   -1.1070    1.4886   -1.3834 H   0  0  0  0  0  0  0  0  0  0  0  0
   -2.3165   -1.7469    1.1894 H   0  0  0  0  0  0  0  0  0  0  0  0
   -3.5055   -0.6537    0.4834 H   0  0  0  0  0  0  0  0  0  0  0  0
   -2.6616   -1.8159   -0.5387 H   0  0  0  0  0  0  0  0  0  0  0  0
  1  2  1  0  0  0  0
  2  3  1  0  0  0  0
  3  4  1  0  0  0  0
  4  5  2  0  0  0  0
  2  6  1  0  0  0  0
  6  7  1  0  0  0  0
  7  8  1  0  0  0  0
  7  9  1  0  0  0  0
  7 10  1  0  0  0  0
  1 11  1  0  0  0  0
  1 12  1  0  0  0  0
  1 13  1  0  0  0  0
  2 14  1  0  0  0  0
  3 15  1  0  0  0  0
  3 16  1  0  0  0  0
  4 17  1  0  0  0  0
  6 18  1  0  0  0  0
  6 19  1  0  0  0  0
  8 20  1  0  0  0  0
  8 21  1  0  0  0  0
  8 22  1  0  0  0  0
  9 23  1  0  0  0  0
  9 24  1  0  0  0  0
  9 25  1  0  0  0  0
 10 26  1  0  0  0  0
 10 27  1  0  0  0  0
 10 28  1  0  0  0  0
M  END
