 xtb: 6.7.1 (edcfbbe)
          07072612353D

 32 33  0     0  0            999 V2000
    3.3392    1.2867   -1.3910 C   0  0  0  0  0  0  0  0  0  0  0  0
    2.4542    0.1597   -0.8742 C   0  0  0  0  0  0  0  0  0  0  0  0
    2.6381   -0.0514    0.6268 C   0  0  0  0  0  0  0  0  0  0  0  0
    1.8098   -1.2206    1.1590 C   0  0  0  0  0  0  0  0  0  0  0  0
    0.3908   -1.0011    0.9625 N   0  0  0  0  0  0  0  0  0  0  0  0
   -0.3335   -0.0890    1.6979 C   0  0  0  0  0  0  0  0  0  0  0  0
    0.1155    0.5768    2.5938 O   0  0  0  0  0  0  0  0  0  0  0  0
   -1.7536   -0.0799    1.1631 C   0  0  0  0  0  0  0  0  0  0  0  0
   -2.1162    1.3270    0.6469 C   0  0  0  0  0  0  0  0  0  0  0  0
   -3.3289    1.2398   -0.2262 C   0  0  0  0  0  0  0  0  0  0  0  0
   -3.3645    0.3091   -1.1671 C   0  0  0  0  0  0  0  0  0  0  0  0
   -2.1883   -0.6047   -1.3158 C   0  0  0  0  0  0  0  0  0  0  0  0
   -1.7691   -1.1470    0.0658 C   0  0  0  0  0  0  0  0  0  0  0  0
   -0.3477   -1.6757    0.0147 C   0  0  0  0  0  0  0  0  0  0  0  0
    0.0917   -2.5263   -0.7138 O   0  0  0  0  0  0  0  0  0  0  0  0
    3.1903    1.4319   -2.4583 H   0  0  0  0  0  0  0  0  0  0  0  0
    4.3881    1.0565   -1.2190 H   0  0  0  0  0  0  0  0  0  0  0  0
    3.1062    2.2189   -0.8808 H   0  0  0  0  0  0  0  0  0  0  0  0
    2.6910   -0.7666   -1.4020 H   0  0  0  0  0  0  0  0  0  0  0  0
    1.4089    0.3988   -1.0853 H   0  0  0  0  0  0  0  0  0  0  0  0
    3.6886   -0.2563    0.8401 H   0  0  0  0  0  0  0  0  0  0  0  0
    2.3560    0.8551    1.1660 H   0  0  0  0  0  0  0  0  0  0  0  0
    2.0592   -2.1440    0.6308 H   0  0  0  0  0  0  0  0  0  0  0  0
    1.9883   -1.3443    2.2305 H   0  0  0  0  0  0  0  0  0  0  0  0
   -2.4399   -0.3309    1.9759 H   0  0  0  0  0  0  0  0  0  0  0  0
   -1.2765    1.7128    0.0587 H   0  0  0  0  0  0  0  0  0  0  0  0
   -2.2663    1.9977    1.4913 H   0  0  0  0  0  0  0  0  0  0  0  0
   -4.1382    1.9327   -0.0615 H   0  0  0  0  0  0  0  0  0  0  0  0
   -4.2046    0.1846   -1.8310 H   0  0  0  0  0  0  0  0  0  0  0  0
   -2.3993   -1.4371   -1.9849 H   0  0  0  0  0  0  0  0  0  0  0  0
   -1.3504   -0.0418   -1.7411 H   0  0  0  0  0  0  0  0  0  0  0  0
   -2.4387   -1.9715    0.3253 H   0  0  0  0  0  0  0  0  0  0  0  0
  1  2  1  0  0  0  0
  2  3  1  0  0  0  0
  3  4  1  0  0  0  0
  4  5  1  0  0  0  0
  5  6  1  0  0  0  0
  6  7  2  0  0  0  0
  6  8  1  0  0  0  0
  8  9  1  0  0  0  0
  9 10  1  0  0  0  0
 10 11  2  0  0  0  0
 11 12  1  0  0  0  0
  8 13  1  0  0  0  0
 12 13  1  0  0  0  0
  5 14  1  0  0  0  0
 13 14  1  0  0  0  0
 14 15  2  0  0  0  0
  1 16  1  0  0  0  0
  1 17  1  0  0  0  0
  1 18  1  0  0  0  0
  2 19  1  0  0  0  0
  2 20  1  0  0  0  0
  3 21  1  0  0  0  0
  3 22  1  0  0  0  0
  4 23  1  0  0  0  0
  4 24  1  0  0  0  0
  8 25  1  0  0  0  0
  9 26  1  0  0  0  0
  9 27  1  0  0  0  0
 10 28  1  0  0  0  0
 11 29  1  0  0  0  0
 12 30  1  0  0  0  0
 12 31  1  0  0  0  0
 13 32  1  0  0  0  0
M  END
