 xtb: 6.7.1 (edcfbbe)
          07082617563D

 17 16  0     0  0            999 V2000
    2.0027    0.7154    0.5620 C   0  0  0  0  0  0  0  0  0  0  0  0
    0.8752   -0.2290    0.8612 C   0  0  0  0  0  0  0  0  0  0  0  0
    0.7594   -0.8198    1.9044 O   0  0  0  0  0  0  0  0  0  0  0  0
   -0.1613   -0.3486   -0.2534 C   0  0  0  0  0  0  0  0  0  0  0  0
   -0.6920   -1.7755   -0.3458 C   0  0  0  0  0  0  0  0  0  0  0  0
   -1.2989    0.6287    0.0788 C   0  0  0  0  0  0  0  0  0  0  0  0
   -0.8150    1.9502   -0.0328 O   0  0  0  0  0  0  0  0  0  0  0  0
    1.5774    1.6762    0.2782 H   0  0  0  0  0  0  0  0  0  0  0  0
    2.5794    0.3397   -0.2809 H   0  0  0  0  0  0  0  0  0  0  0  0
    2.6501    0.8277    1.4274 H   0  0  0  0  0  0  0  0  0  0  0  0
    0.2792   -0.0352   -1.2028 H   0  0  0  0  0  0  0  0  0  0  0  0
   -1.0606   -2.0941    0.6261 H   0  0  0  0  0  0  0  0  0  0  0  0
    0.1048   -2.4510   -0.6471 H   0  0  0  0  0  0  0  0  0  0  0  0
   -1.4992   -1.8415   -1.0713 H   0  0  0  0  0  0  0  0  0  0  0  0
   -2.1282    0.4663   -0.6253 H   0  0  0  0  0  0  0  0  0  0  0  0
   -1.6605    0.4282    1.0966 H   0  0  0  0  0  0  0  0  0  0  0  0
   -1.5124    2.5624    0.2216 H   0  0  0  0  0  0  0  0  0  0  0  0
  1  2  1  0  0  0  0
  2  3  2  0  0  0  0
  2  4  1  0  0  0  0
  4  5  1  0  0  0  0
  4  6  1  0  0  0  0
  6  7  1  0  0  0  0
  1  8  1  0  0  0  0
  1  9  1  0  0  0  0
  1 10  1  0  0  0  0
  4 11  1  0  0  0  0
  5 12  1  0  0  0  0
  5 13  1  0  0  0  0
  5 14  1  0  0  0  0
  6 15  1  0  0  0  0
  6 16  1  0  0  0  0
  7 17  1  0  0  0  0
M  END
