 xtb: 6.7.1 (edcfbbe)
          07072613573D

 35 34  0     0  0            999 V2000
   -2.3866   -2.0279    2.0149 C   0  0  0  0  0  0  0  0  0  0  0  0
   -1.4027   -2.6011    1.0027 C   0  0  0  0  0  0  0  0  0  0  0  0
   -1.2122   -1.6965   -0.2176 C   0  0  0  0  0  0  0  0  0  0  0  0
   -0.6530   -0.4028    0.1439 N   0  0  0  0  0  0  0  0  0  0  0  0
   -1.5232    0.7496    0.0700 C   0  0  0  0  0  0  0  0  0  0  0  0
   -1.5838    1.3403   -1.3448 C   0  0  0  0  0  0  0  0  0  0  0  0
   -2.4544    2.5891   -1.3856 C   0  0  0  0  0  0  0  0  0  0  0  0
    0.6819   -0.3437    0.3476 C   0  0  0  0  0  0  0  0  0  0  0  0
    1.3825   -1.3392    0.2736 O   0  0  0  0  0  0  0  0  0  0  0  0
    1.2747    1.0158    0.7033 C   0  0  0  0  0  0  0  0  0  0  0  0
    2.7972    0.9241    0.6208 C   0  0  0  0  0  0  0  0  0  0  0  0
    3.1985    0.6369   -0.8169 C   0  0  0  0  0  0  0  0  0  0  0  0
    4.3075   -0.3618   -0.9721 C   0  0  0  0  0  0  0  0  0  0  0  0
    2.6478    1.1684   -1.7491 O   0  0  0  0  0  0  0  0  0  0  0  0
   -2.0281   -1.0770    2.4023 H   0  0  0  0  0  0  0  0  0  0  0  0
   -2.5066   -2.7115    2.8520 H   0  0  0  0  0  0  0  0  0  0  0  0
   -3.3632   -1.8735    1.5590 H   0  0  0  0  0  0  0  0  0  0  0  0
   -1.7580   -3.5725    0.6542 H   0  0  0  0  0  0  0  0  0  0  0  0
   -0.4305   -2.7469    1.4741 H   0  0  0  0  0  0  0  0  0  0  0  0
   -0.5205   -2.1849   -0.9105 H   0  0  0  0  0  0  0  0  0  0  0  0
   -2.1659   -1.5337   -0.7218 H   0  0  0  0  0  0  0  0  0  0  0  0
   -2.5260    0.4383    0.3746 H   0  0  0  0  0  0  0  0  0  0  0  0
   -1.1887    1.5118    0.7764 H   0  0  0  0  0  0  0  0  0  0  0  0
   -1.9856    0.5896   -2.0281 H   0  0  0  0  0  0  0  0  0  0  0  0
   -0.5742    1.5795   -1.6831 H   0  0  0  0  0  0  0  0  0  0  0  0
   -2.0544    3.3567   -0.7265 H   0  0  0  0  0  0  0  0  0  0  0  0
   -2.4930    2.9912   -2.3945 H   0  0  0  0  0  0  0  0  0  0  0  0
   -3.4695    2.3601   -1.0675 H   0  0  0  0  0  0  0  0  0  0  0  0
    0.9325    1.7730   -0.0010 H   0  0  0  0  0  0  0  0  0  0  0  0
    0.9587    1.2933    1.7116 H   0  0  0  0  0  0  0  0  0  0  0  0
    3.1673    0.1377    1.2764 H   0  0  0  0  0  0  0  0  0  0  0  0
    3.2440    1.8768    0.9158 H   0  0  0  0  0  0  0  0  0  0  0  0
    5.1343   -0.1239   -0.3072 H   0  0  0  0  0  0  0  0  0  0  0  0
    4.6493   -0.4037   -2.0027 H   0  0  0  0  0  0  0  0  0  0  0  0
    3.9039   -1.3317   -0.6837 H   0  0  0  0  0  0  0  0  0  0  0  0
  1  2  1  0  0  0  0
  2  3  1  0  0  0  0
  3  4  1  0  0  0  0
  4  5  1  0  0  0  0
  5  6  1  0  0  0  0
  6  7  1  0  0  0  0
  4  8  4  0  0  0  0
  8  9  2  0  0  0  0
  8 10  1  0  0  0  0
 10 11  1  0  0  0  0
 11 12  1  0  0  0  0
 12 13  1  0  0  0  0
 12 14  2  0  0  0  0
  1 15  1  0  0  0  0
  1 16  1  0  0  0  0
  1 17  1  0  0  0  0
  2 18  1  0  0  0  0
  2 19  1  0  0  0  0
  3 20  1  0  0  0  0
  3 21  1  0  0  0  0
  5 22  1  0  0  0  0
  5 23  1  0  0  0  0
  6 24  1  0  0  0  0
  6 25  1  0  0  0  0
  7 26  1  0  0  0  0
  7 27  1  0  0  0  0
  7 28  1  0  0  0  0
 10 29  1  0  0  0  0
 10 30  1  0  0  0  0
 11 31  1  0  0  0  0
 11 32  1  0  0  0  0
 13 33  1  0  0  0  0
 13 34  1  0  0  0  0
 13 35  1  0  0  0  0
M  END
