 xtb: 6.7.1 (edcfbbe)
          07092614193D

 30 30  0     0  0            999 V2000
   -2.4929    2.2473   -0.9001 C   0  0  0  0  0  0  0  0  0  0  0  0
   -2.0622    2.0686    0.5569 C   0  0  0  0  0  0  0  0  0  0  0  0
   -0.9765    1.0346    0.6627 C   0  0  0  0  0  0  0  0  0  0  0  0
    0.3575    1.3991    0.5524 C   0  0  0  0  0  0  0  0  0  0  0  0
    1.3677    0.4502    0.6153 C   0  0  0  0  0  0  0  0  0  0  0  0
    2.8067    0.8548    0.4584 C   0  0  0  0  0  0  0  0  0  0  0  0
    3.2151    0.8244   -1.0156 C   0  0  0  0  0  0  0  0  0  0  0  0
    1.0247   -0.8834    0.7844 C   0  0  0  0  0  0  0  0  0  0  0  0
   -0.3018   -1.2739    0.8973 C   0  0  0  0  0  0  0  0  0  0  0  0
   -0.6608   -2.7259    1.0442 C   0  0  0  0  0  0  0  0  0  0  0  0
   -0.8500   -3.3735   -0.3288 C   0  0  0  0  0  0  0  0  0  0  0  0
   -1.2932   -0.3056    0.8313 C   0  0  0  0  0  0  0  0  0  0  0  0
   -1.6484    2.5656   -1.5073 H   0  0  0  0  0  0  0  0  0  0  0  0
   -3.2787    2.9956   -0.9776 H   0  0  0  0  0  0  0  0  0  0  0  0
   -2.8664    1.3078   -1.3015 H   0  0  0  0  0  0  0  0  0  0  0  0
   -1.7028    3.0239    0.9453 H   0  0  0  0  0  0  0  0  0  0  0  0
   -2.9251    1.7617    1.1517 H   0  0  0  0  0  0  0  0  0  0  0  0
    0.6149    2.4417    0.4239 H   0  0  0  0  0  0  0  0  0  0  0  0
    3.4467    0.1733    1.0228 H   0  0  0  0  0  0  0  0  0  0  0  0
    2.9527    1.8634    0.8510 H   0  0  0  0  0  0  0  0  0  0  0  0
    2.5962    1.5075   -1.5932 H   0  0  0  0  0  0  0  0  0  0  0  0
    3.0884   -0.1766   -1.4220 H   0  0  0  0  0  0  0  0  0  0  0  0
    4.2565    1.1172   -1.1300 H   0  0  0  0  0  0  0  0  0  0  0  0
    1.8051   -1.6304    0.8378 H   0  0  0  0  0  0  0  0  0  0  0  0
   -1.5851   -2.8227    1.6177 H   0  0  0  0  0  0  0  0  0  0  0  0
    0.1311   -3.2506    1.5829 H   0  0  0  0  0  0  0  0  0  0  0  0
   -1.1099   -4.4246   -0.2234 H   0  0  0  0  0  0  0  0  0  0  0  0
   -1.6447   -2.8719   -0.8767 H   0  0  0  0  0  0  0  0  0  0  0  0
    0.0656   -3.2982   -0.9113 H   0  0  0  0  0  0  0  0  0  0  0  0
   -2.3302   -0.5995    0.9215 H   0  0  0  0  0  0  0  0  0  0  0  0
  1  2  1  0  0  0  0
  2  3  1  0  0  0  0
  3  4  4  0  0  0  0
  4  5  4  0  0  0  0
  5  6  1  0  0  0  0
  6  7  1  0  0  0  0
  5  8  4  0  0  0  0
  8  9  4  0  0  0  0
  9 10  1  0  0  0  0
 10 11  1  0  0  0  0
  3 12  4  0  0  0  0
  9 12  4  0  0  0  0
  1 13  1  0  0  0  0
  1 14  1  0  0  0  0
  1 15  1  0  0  0  0
  2 16  1  0  0  0  0
  2 17  1  0  0  0  0
  4 18  1  0  0  0  0
  6 19  1  0  0  0  0
  6 20  1  0  0  0  0
  7 21  1  0  0  0  0
  7 22  1  0  0  0  0
  7 23  1  0  0  0  0
  8 24  1  0  0  0  0
 10 25  1  0  0  0  0
 10 26  1  0  0  0  0
 11 27  1  0  0  0  0
 11 28  1  0  0  0  0
 11 29  1  0  0  0  0
 12 30  1  0  0  0  0
M  END
