 xtb: 6.7.1 (edcfbbe)
          07092603193D

 22 21  0     0  0            999 V2000
   -3.6610   -0.4413    0.7758 C   0  0  0  0  0  0  0  0  0  0  0  0
   -2.7125    0.1801    0.0953 C   0  0  0  0  0  0  0  0  0  0  0  0
   -2.8113    0.5011   -1.3622 C   0  0  0  0  0  0  0  0  0  0  0  0
   -1.4354    0.6242    0.7538 C   0  0  0  0  0  0  0  0  0  0  0  0
   -0.3347    0.0053    0.0750 O   0  0  0  0  0  0  0  0  0  0  0  0
    0.8711    0.2983    0.5524 C   0  0  0  0  0  0  0  0  0  0  0  0
    1.0985    1.0287    1.4763 O   0  0  0  0  0  0  0  0  0  0  0  0
    1.7857   -0.3504   -0.1647 O   0  0  0  0  0  0  0  0  0  0  0  0
    3.1454   -0.1434    0.2303 C   0  0  0  0  0  0  0  0  0  0  0  0
    4.0287   -0.9966   -0.6598 C   0  0  0  0  0  0  0  0  0  0  0  0
   -4.5814   -0.7464    0.3085 H   0  0  0  0  0  0  0  0  0  0  0  0
   -3.5605   -0.6639    1.8243 H   0  0  0  0  0  0  0  0  0  0  0  0
   -3.7315    0.1105   -1.7864 H   0  0  0  0  0  0  0  0  0  0  0  0
   -1.9616    0.0688   -1.8871 H   0  0  0  0  0  0  0  0  0  0  0  0
   -2.7821    1.5799   -1.5118 H   0  0  0  0  0  0  0  0  0  0  0  0
   -1.3200    1.7139    0.6856 H   0  0  0  0  0  0  0  0  0  0  0  0
   -1.4088    0.3443    1.8117 H   0  0  0  0  0  0  0  0  0  0  0  0
    3.2547   -0.4188    1.2850 H   0  0  0  0  0  0  0  0  0  0  0  0
    3.3859    0.9208    0.1301 H   0  0  0  0  0  0  0  0  0  0  0  0
    3.8947   -0.7133   -1.7000 H   0  0  0  0  0  0  0  0  0  0  0  0
    3.7670   -2.0452   -0.5500 H   0  0  0  0  0  0  0  0  0  0  0  0
    5.0692   -0.8567   -0.3821 H   0  0  0  0  0  0  0  0  0  0  0  0
  1  2  2  0  0  0  0
  2  3  1  0  0  0  0
  2  4  1  0  0  0  0
  4  5  1  0  0  0  0
  5  6  1  0  0  0  0
  6  7  2  0  0  0  0
  6  8  1  0  0  0  0
  8  9  1  0  0  0  0
  9 10  1  0  0  0  0
  1 11  1  0  0  0  0
  1 12  1  0  0  0  0
  3 13  1  0  0  0  0
  3 14  1  0  0  0  0
  3 15  1  0  0  0  0
  4 16  1  0  0  0  0
  4 17  1  0  0  0  0
  9 18  1  0  0  0  0
  9 19  1  0  0  0  0
 10 20  1  0  0  0  0
 10 21  1  0  0  0  0
 10 22  1  0  0  0  0
M  END
