 xtb: 6.7.1 (edcfbbe)
          07092604593D

 23 24  0     0  0            999 V2000
   -3.5800    0.5648   -0.4889 C   0  0  0  0  0  0  0  0  0  0  0  0
   -2.1966    0.0229   -0.2804 C   0  0  0  0  0  0  0  0  0  0  0  0
   -1.8746   -1.2658   -0.6866 C   0  0  0  0  0  0  0  0  0  0  0  0
   -0.6001   -1.7906   -0.5287 C   0  0  0  0  0  0  0  0  0  0  0  0
    0.3598   -0.9860    0.0535 C   0  0  0  0  0  0  0  0  0  0  0  0
    0.0557    0.3089    0.4688 C   0  0  0  0  0  0  0  0  0  0  0  0
   -1.2123    0.8173    0.3054 C   0  0  0  0  0  0  0  0  0  0  0  0
    1.2936    0.9099    1.0661 C   0  0  0  0  0  0  0  0  0  0  0  0
    2.3455   -0.1953    0.8146 C   0  0  0  0  0  0  0  0  0  0  0  0
    3.4150    0.2355   -0.1846 C   0  0  0  0  0  0  0  0  0  0  0  0
    1.6493   -1.3368    0.2944 O   0  0  0  0  0  0  0  0  0  0  0  0
   -3.6544    1.0385   -1.4686 H   0  0  0  0  0  0  0  0  0  0  0  0
   -4.3189   -0.2319   -0.4446 H   0  0  0  0  0  0  0  0  0  0  0  0
   -3.8214    1.3112    0.2644 H   0  0  0  0  0  0  0  0  0  0  0  0
   -2.6397   -1.8798   -1.1395 H   0  0  0  0  0  0  0  0  0  0  0  0
   -0.3611   -2.7929   -0.8452 H   0  0  0  0  0  0  0  0  0  0  0  0
   -1.4448    1.8214    0.6297 H   0  0  0  0  0  0  0  0  0  0  0  0
    1.1624    1.1118    2.1312 H   0  0  0  0  0  0  0  0  0  0  0  0
    1.5745    1.8431    0.5755 H   0  0  0  0  0  0  0  0  0  0  0  0
    2.8258   -0.5183    1.7461 H   0  0  0  0  0  0  0  0  0  0  0  0
    3.9947    1.0607    0.2211 H   0  0  0  0  0  0  0  0  0  0  0  0
    4.0813   -0.5972   -0.3948 H   0  0  0  0  0  0  0  0  0  0  0  0
    2.9464    0.5484   -1.1154 H   0  0  0  0  0  0  0  0  0  0  0  0
  1  2  1  0  0  0  0
  2  3  4  0  0  0  0
  3  4  4  0  0  0  0
  4  5  4  0  0  0  0
  5  6  4  0  0  0  0
  2  7  4  0  0  0  0
  6  7  4  0  0  0  0
  6  8  1  0  0  0  0
  8  9  1  0  0  0  0
  9 10  1  0  0  0  0
  5 11  1  0  0  0  0
  9 11  1  0  0  0  0
  1 12  1  0  0  0  0
  1 13  1  0  0  0  0
  1 14  1  0  0  0  0
  3 15  1  0  0  0  0
  4 16  1  0  0  0  0
  7 17  1  0  0  0  0
  8 18  1  0  0  0  0
  8 19  1  0  0  0  0
  9 20  1  0  0  0  0
 10 21  1  0  0  0  0
 10 22  1  0  0  0  0
 10 23  1  0  0  0  0
M  END
