 xtb: 6.7.1 (edcfbbe)
          07092623023D

 24 23  0     0  0            999 V2000
    1.9165    2.6814   -0.2732 C   0  0  0  0  0  0  0  0  0  0  0  0
    1.6906    1.3353   -0.6729 O   0  0  0  0  0  0  0  0  0  0  0  0
    0.9433    0.5966    0.1177 C   0  0  0  0  0  0  0  0  0  0  0  0
    0.4262    0.9972    1.1367 O   0  0  0  0  0  0  0  0  0  0  0  0
    0.7901   -0.8382   -0.4202 C   0  0  0  0  0  0  0  0  0  0  0  0
    1.2014   -1.8589    0.6517 C   0  0  0  0  0  0  0  0  0  0  0  0
    1.5966   -1.0132   -1.5481 O   0  0  0  0  0  0  0  0  0  0  0  0
   -0.6878   -0.9943   -0.8389 C   0  0  0  0  0  0  0  0  0  0  0  0
   -0.9160   -1.1500   -2.0165 O   0  0  0  0  0  0  0  0  0  0  0  0
   -1.8248   -0.8982    0.1665 C   0  0  0  0  0  0  0  0  0  0  0  0
   -2.6342    0.3643   -0.1832 C   0  0  0  0  0  0  0  0  0  0  0  0
   -1.4762   -0.9391    1.5150 O   0  0  0  0  0  0  0  0  0  0  0  0
    2.1950    2.7222    0.7814 H   0  0  0  0  0  0  0  0  0  0  0  0
    1.0123    3.2749   -0.4245 H   0  0  0  0  0  0  0  0  0  0  0  0
    2.7223    3.0517   -0.9011 H   0  0  0  0  0  0  0  0  0  0  0  0
    1.0067   -2.8591    0.2732 H   0  0  0  0  0  0  0  0  0  0  0  0
    0.6579   -1.7105    1.5776 H   0  0  0  0  0  0  0  0  0  0  0  0
    2.2698   -1.7561    0.8245 H   0  0  0  0  0  0  0  0  0  0  0  0
    1.0063   -1.0812   -2.3199 H   0  0  0  0  0  0  0  0  0  0  0  0
   -2.4581   -1.7790   -0.0053 H   0  0  0  0  0  0  0  0  0  0  0  0
   -3.5195    0.4031    0.4455 H   0  0  0  0  0  0  0  0  0  0  0  0
   -2.0337    1.2525    0.0048 H   0  0  0  0  0  0  0  0  0  0  0  0
   -2.9318    0.3435   -1.2274 H   0  0  0  0  0  0  0  0  0  0  0  0
   -0.9529   -0.1449    1.7249 H   0  0  0  0  0  0  0  0  0  0  0  0
  1  2  1  0  0  0  0
  2  3  1  0  0  0  0
  3  4  2  0  0  0  0
  3  5  1  0  0  0  0
  5  6  1  0  0  0  0
  5  7  1  0  0  0  0
  5  8  1  0  0  0  0
  8  9  2  0  0  0  0
  8 10  1  0  0  0  0
 10 11  1  0  0  0  0
 10 12  1  0  0  0  0
  1 13  1  0  0  0  0
  1 14  1  0  0  0  0
  1 15  1  0  0  0  0
  6 16  1  0  0  0  0
  6 17  1  0  0  0  0
  6 18  1  0  0  0  0
  7 19  1  0  0  0  0
 10 20  1  0  0  0  0
 11 21  1  0  0  0  0
 11 22  1  0  0  0  0
 11 23  1  0  0  0  0
 12 24  1  0  0  0  0
M  END
