 xtb: 6.7.1 (edcfbbe)
          07092621523D

 30 29  0     0  0            999 V2000
   -5.3437    0.9332    0.1078 C   0  0  0  0  0  0  0  0  0  0  0  0
   -4.2835   -0.1562    0.0052 C   0  0  0  0  0  0  0  0  0  0  0  0
   -2.8708    0.4136    0.1099 C   0  0  0  0  0  0  0  0  0  0  0  0
   -1.8046   -0.6738    0.0011 C   0  0  0  0  0  0  0  0  0  0  0  0
   -0.3923   -0.1017    0.0907 C   0  0  0  0  0  0  0  0  0  0  0  0
    0.6715   -1.1986   -0.0386 C   0  0  0  0  0  0  0  0  0  0  0  0
    2.0438   -0.6343    0.0765 C   0  0  0  0  0  0  0  0  0  0  0  0
    2.9749   -0.7179   -0.8699 C   0  0  0  0  0  0  0  0  0  0  0  0
    4.3272   -0.1515   -0.7572 C   0  0  0  0  0  0  0  0  0  0  0  0
    5.1595   -0.2066   -1.6306 O   0  0  0  0  0  0  0  0  0  0  0  0
    4.5551    0.4422    0.4300 O   0  0  0  0  0  0  0  0  0  0  0  0
    5.8466    1.0048    0.5951 C   0  0  0  0  0  0  0  0  0  0  0  0
   -6.3408    0.5064    0.0285 H   0  0  0  0  0  0  0  0  0  0  0  0
   -5.2185    1.6632   -0.6889 H   0  0  0  0  0  0  0  0  0  0  0  0
   -5.2672    1.4518    1.0611 H   0  0  0  0  0  0  0  0  0  0  0  0
   -4.4371   -0.8883    0.8014 H   0  0  0  0  0  0  0  0  0  0  0  0
   -4.3912   -0.6782   -0.9484 H   0  0  0  0  0  0  0  0  0  0  0  0
   -2.7619    0.9335    1.0647 H   0  0  0  0  0  0  0  0  0  0  0  0
   -2.7194    1.1482   -0.6846 H   0  0  0  0  0  0  0  0  0  0  0  0
   -1.9220   -1.1984   -0.9501 H   0  0  0  0  0  0  0  0  0  0  0  0
   -1.9512   -1.4041    0.8006 H   0  0  0  0  0  0  0  0  0  0  0  0
   -0.2679    0.4136    1.0456 H   0  0  0  0  0  0  0  0  0  0  0  0
   -0.2454    0.6321   -0.7047 H   0  0  0  0  0  0  0  0  0  0  0  0
    0.5205   -1.9266    0.7640 H   0  0  0  0  0  0  0  0  0  0  0  0
    0.5551   -1.7137   -0.9935 H   0  0  0  0  0  0  0  0  0  0  0  0
    2.2691   -0.1124    0.9969 H   0  0  0  0  0  0  0  0  0  0  0  0
    2.7887   -1.2236   -1.8069 H   0  0  0  0  0  0  0  0  0  0  0  0
    6.0240    1.7779   -0.1558 H   0  0  0  0  0  0  0  0  0  0  0  0
    6.6135    0.2343    0.4897 H   0  0  0  0  0  0  0  0  0  0  0  0
    5.8680    1.4310    1.5950 H   0  0  0  0  0  0  0  0  0  0  0  0
  1  2  1  0  0  0  0
  2  3  1  0  0  0  0
  3  4  1  0  0  0  0
  4  5  1  0  0  0  0
  5  6  1  0  0  0  0
  6  7  1  0  0  0  0
  7  8  2  0  0  0  0
  8  9  1  0  0  0  0
  9 10  2  0  0  0  0
  9 11  1  0  0  0  0
 11 12  1  0  0  0  0
  1 13  1  0  0  0  0
  1 14  1  0  0  0  0
  1 15  1  0  0  0  0
  2 16  1  0  0  0  0
  2 17  1  0  0  0  0
  3 18  1  0  0  0  0
  3 19  1  0  0  0  0
  4 20  1  0  0  0  0
  4 21  1  0  0  0  0
  5 22  1  0  0  0  0
  5 23  1  0  0  0  0
  6 24  1  0  0  0  0
  6 25  1  0  0  0  0
  7 26  1  0  0  0  0
  8 27  1  0  0  0  0
 12 28  1  0  0  0  0
 12 29  1  0  0  0  0
 12 30  1  0  0  0  0
M  END
