 xtb: 6.7.1 (edcfbbe)
          07082603123D

 31 31  0     0  0            999 V2000
   -1.3100    1.9580    0.6513 C   0  0  0  0  0  0  0  0  0  0  0  0
   -1.6294    0.4660    0.7435 C   0  0  0  0  0  0  0  0  0  0  0  0
   -1.5748   -0.1828   -0.5484 N   0  0  0  0  0  0  0  0  0  0  0  0
   -2.7940   -0.2151   -1.3349 C   0  0  0  0  0  0  0  0  0  0  0  0
   -3.6694   -1.4100   -0.9677 C   0  0  0  0  0  0  0  0  0  0  0  0
   -0.4393   -0.6820   -1.0922 C   0  0  0  0  0  0  0  0  0  0  0  0
   -0.4009   -1.1549   -2.2136 O   0  0  0  0  0  0  0  0  0  0  0  0
    0.7851   -0.6293   -0.2279 C   0  0  0  0  0  0  0  0  0  0  0  0
    0.9971   -1.5940    0.7503 C   0  0  0  0  0  0  0  0  0  0  0  0
    2.1600   -1.5668    1.4982 C   0  0  0  0  0  0  0  0  0  0  0  0
    3.1107   -0.5859    1.2742 C   0  0  0  0  0  0  0  0  0  0  0  0
    2.9197    0.3750    0.2902 C   0  0  0  0  0  0  0  0  0  0  0  0
    3.9597    1.4188    0.0178 C   0  0  0  0  0  0  0  0  0  0  0  0
    1.7505    0.3387   -0.4598 C   0  0  0  0  0  0  0  0  0  0  0  0
   -1.9813    2.4526   -0.0467 H   0  0  0  0  0  0  0  0  0  0  0  0
   -1.4198    2.4222    1.6278 H   0  0  0  0  0  0  0  0  0  0  0  0
   -0.2879    2.1011    0.3104 H   0  0  0  0  0  0  0  0  0  0  0  0
   -2.6358    0.3284    1.1470 H   0  0  0  0  0  0  0  0  0  0  0  0
   -0.9214   -0.0139    1.4226 H   0  0  0  0  0  0  0  0  0  0  0  0
   -2.4987   -0.2906   -2.3841 H   0  0  0  0  0  0  0  0  0  0  0  0
   -3.3391    0.7202   -1.1826 H   0  0  0  0  0  0  0  0  0  0  0  0
   -3.1276   -2.3330   -1.1566 H   0  0  0  0  0  0  0  0  0  0  0  0
   -3.9519   -1.3798    0.0828 H   0  0  0  0  0  0  0  0  0  0  0  0
   -4.5736   -1.4067   -1.5704 H   0  0  0  0  0  0  0  0  0  0  0  0
    0.2559   -2.3624    0.9173 H   0  0  0  0  0  0  0  0  0  0  0  0
    2.3273   -2.3144    2.2599 H   0  0  0  0  0  0  0  0  0  0  0  0
    4.0154   -0.5712    1.8652 H   0  0  0  0  0  0  0  0  0  0  0  0
    4.5604    1.1264   -0.8438 H   0  0  0  0  0  0  0  0  0  0  0  0
    4.6241    1.5389    0.8701 H   0  0  0  0  0  0  0  0  0  0  0  0
    3.4973    2.3773   -0.2088 H   0  0  0  0  0  0  0  0  0  0  0  0
    1.5920    1.0690   -1.2412 H   0  0  0  0  0  0  0  0  0  0  0  0
  1  2  1  0  0  0  0
  2  3  1  0  0  0  0
  3  4  1  0  0  0  0
  4  5  1  0  0  0  0
  3  6  4  0  0  0  0
  6  7  2  0  0  0  0
  6  8  1  0  0  0  0
  8  9  4  0  0  0  0
  9 10  4  0  0  0  0
 10 11  4  0  0  0  0
 11 12  4  0  0  0  0
 12 13  1  0  0  0  0
  8 14  4  0  0  0  0
 12 14  4  0  0  0  0
  1 15  1  0  0  0  0
  1 16  1  0  0  0  0
  1 17  1  0  0  0  0
  2 18  1  0  0  0  0
  2 19  1  0  0  0  0
  4 20  1  0  0  0  0
  4 21  1  0  0  0  0
  5 22  1  0  0  0  0
  5 23  1  0  0  0  0
  5 24  1  0  0  0  0
  9 25  1  0  0  0  0
 10 26  1  0  0  0  0
 11 27  1  0  0  0  0
 13 28  1  0  0  0  0
 13 29  1  0  0  0  0
 13 30  1  0  0  0  0
 14 31  1  0  0  0  0
M  END
