 xtb: 6.7.1 (edcfbbe)
          07092622123D

 32 31  0     0  0            999 V2000
    5.0396    1.0356    0.5285 C   0  0  0  0  0  0  0  0  0  0  0  0
    4.0103    0.2108   -0.2344 C   0  0  0  0  0  0  0  0  0  0  0  0
    2.6142    0.3453    0.3688 C   0  0  0  0  0  0  0  0  0  0  0  0
    1.5768   -0.4760   -0.3928 C   0  0  0  0  0  0  0  0  0  0  0  0
    0.1850   -0.3493    0.2210 C   0  0  0  0  0  0  0  0  0  0  0  0
   -0.8510   -1.1738   -0.5400 C   0  0  0  0  0  0  0  0  0  0  0  0
   -2.2435   -1.0649    0.0768 C   0  0  0  0  0  0  0  0  0  0  0  0
   -3.2536   -1.9828   -0.6045 C   0  0  0  0  0  0  0  0  0  0  0  0
   -2.6715    0.2997   -0.0628 O   0  0  0  0  0  0  0  0  0  0  0  0
   -3.4840    0.7953    0.8710 C   0  0  0  0  0  0  0  0  0  0  0  0
   -3.8273    2.2321    0.5674 C   0  0  0  0  0  0  0  0  0  0  0  0
   -3.8789    0.1788    1.8253 O   0  0  0  0  0  0  0  0  0  0  0  0
    4.7735    2.0903    0.5094 H   0  0  0  0  0  0  0  0  0  0  0  0
    6.0264    0.9226    0.0854 H   0  0  0  0  0  0  0  0  0  0  0  0
    5.0909    0.7154    1.5670 H   0  0  0  0  0  0  0  0  0  0  0  0
    4.3075   -0.8404   -0.2233 H   0  0  0  0  0  0  0  0  0  0  0  0
    3.9855    0.5358   -1.2771 H   0  0  0  0  0  0  0  0  0  0  0  0
    2.3184    1.3971    0.3612 H   0  0  0  0  0  0  0  0  0  0  0  0
    2.6395    0.0178    1.4108 H   0  0  0  0  0  0  0  0  0  0  0  0
    1.5452   -0.1430   -1.4329 H   0  0  0  0  0  0  0  0  0  0  0  0
    1.8773   -1.5266   -0.3919 H   0  0  0  0  0  0  0  0  0  0  0  0
    0.2166   -0.6816    1.2616 H   0  0  0  0  0  0  0  0  0  0  0  0
   -0.1201    0.6989    0.2157 H   0  0  0  0  0  0  0  0  0  0  0  0
   -0.5566   -2.2245   -0.5408 H   0  0  0  0  0  0  0  0  0  0  0  0
   -0.9024   -0.8316   -1.5751 H   0  0  0  0  0  0  0  0  0  0  0  0
   -2.2060   -1.2962    1.1494 H   0  0  0  0  0  0  0  0  0  0  0  0
   -4.2310   -1.8632   -0.1431 H   0  0  0  0  0  0  0  0  0  0  0  0
   -2.9428   -3.0182   -0.5010 H   0  0  0  0  0  0  0  0  0  0  0  0
   -3.3286   -1.7363   -1.6612 H   0  0  0  0  0  0  0  0  0  0  0  0
   -4.5181    2.6082    1.3153 H   0  0  0  0  0  0  0  0  0  0  0  0
   -2.9178    2.8278    0.5699 H   0  0  0  0  0  0  0  0  0  0  0  0
   -4.2733    2.2970   -0.4216 H   0  0  0  0  0  0  0  0  0  0  0  0
  1  2  1  0  0  0  0
  2  3  1  0  0  0  0
  3  4  1  0  0  0  0
  4  5  1  0  0  0  0
  5  6  1  0  0  0  0
  6  7  1  0  0  0  0
  7  8  1  0  0  0  0
  7  9  1  0  0  0  0
  9 10  1  0  0  0  0
 10 11  1  0  0  0  0
 10 12  2  0  0  0  0
  1 13  1  0  0  0  0
  1 14  1  0  0  0  0
  1 15  1  0  0  0  0
  2 16  1  0  0  0  0
  2 17  1  0  0  0  0
  3 18  1  0  0  0  0
  3 19  1  0  0  0  0
  4 20  1  0  0  0  0
  4 21  1  0  0  0  0
  5 22  1  0  0  0  0
  5 23  1  0  0  0  0
  6 24  1  0  0  0  0
  6 25  1  0  0  0  0
  7 26  1  0  0  0  0
  8 27  1  0  0  0  0
  8 28  1  0  0  0  0
  8 29  1  0  0  0  0
 11 30  1  0  0  0  0
 11 31  1  0  0  0  0
 11 32  1  0  0  0  0
M  END
