 xtb: 6.7.1 (edcfbbe)
          07082600093D

 31 30  0     0  0            999 V2000
    3.9856    0.6088    0.2908 C   0  0  0  0  0  0  0  0  0  0  0  0
    2.6345    0.6912    0.9907 C   0  0  0  0  0  0  0  0  0  0  0  0
    1.5167    0.0912    0.1389 C   0  0  0  0  0  0  0  0  0  0  0  0
    0.1712    0.1789    0.8577 C   0  0  0  0  0  0  0  0  0  0  0  0
   -1.0467   -0.3752    0.0959 C   0  0  0  0  0  0  0  0  0  0  0  0
   -1.2431    0.2731   -1.2852 C   0  0  0  0  0  0  0  0  0  0  0  0
   -1.4115    1.7872   -1.2689 C   0  0  0  0  0  0  0  0  0  0  0  0
   -0.8680   -1.8933   -0.1030 C   0  0  0  0  0  0  0  0  0  0  0  0
   -2.0407   -2.4641   -0.6566 O   0  0  0  0  0  0  0  0  0  0  0  0
   -2.2872   -0.1373    0.9908 C   0  0  0  0  0  0  0  0  0  0  0  0
   -3.5147   -0.3686    0.3603 O   0  0  0  0  0  0  0  0  0  0  0  0
    4.2459   -0.4270    0.0837 H   0  0  0  0  0  0  0  0  0  0  0  0
    4.7662    1.0405    0.9128 H   0  0  0  0  0  0  0  0  0  0  0  0
    3.9603    1.1498   -0.6526 H   0  0  0  0  0  0  0  0  0  0  0  0
    2.6868    0.1607    1.9442 H   0  0  0  0  0  0  0  0  0  0  0  0
    2.4019    1.7362    1.2073 H   0  0  0  0  0  0  0  0  0  0  0  0
    1.7626   -0.9496   -0.0783 H   0  0  0  0  0  0  0  0  0  0  0  0
    1.4697    0.6305   -0.8077 H   0  0  0  0  0  0  0  0  0  0  0  0
   -0.0233    1.2255    1.0976 H   0  0  0  0  0  0  0  0  0  0  0  0
    0.2485   -0.3556    1.8089 H   0  0  0  0  0  0  0  0  0  0  0  0
   -0.3945    0.0084   -1.9194 H   0  0  0  0  0  0  0  0  0  0  0  0
   -2.1349   -0.1697   -1.7317 H   0  0  0  0  0  0  0  0  0  0  0  0
   -1.5570    2.1457   -2.2857 H   0  0  0  0  0  0  0  0  0  0  0  0
   -0.5354    2.2829   -0.8585 H   0  0  0  0  0  0  0  0  0  0  0  0
   -2.2825    2.0686   -0.6848 H   0  0  0  0  0  0  0  0  0  0  0  0
   -0.0193   -2.0767   -0.7741 H   0  0  0  0  0  0  0  0  0  0  0  0
   -0.6488   -2.3615    0.8679 H   0  0  0  0  0  0  0  0  0  0  0  0
   -1.8914   -3.4030   -0.8021 H   0  0  0  0  0  0  0  0  0  0  0  0
   -2.3105    0.9038    1.3221 H   0  0  0  0  0  0  0  0  0  0  0  0
   -2.1916   -0.7710    1.8884 H   0  0  0  0  0  0  0  0  0  0  0  0
   -3.4487   -1.2305   -0.0744 H   0  0  0  0  0  0  0  0  0  0  0  0
  1  2  1  0  0  0  0
  2  3  1  0  0  0  0
  3  4  1  0  0  0  0
  4  5  1  0  0  0  0
  5  6  1  0  0  0  0
  6  7  1  0  0  0  0
  5  8  1  0  0  0  0
  8  9  1  0  0  0  0
  5 10  1  0  0  0  0
 10 11  1  0  0  0  0
  1 12  1  0  0  0  0
  1 13  1  0  0  0  0
  1 14  1  0  0  0  0
  2 15  1  0  0  0  0
  2 16  1  0  0  0  0
  3 17  1  0  0  0  0
  3 18  1  0  0  0  0
  4 19  1  0  0  0  0
  4 20  1  0  0  0  0
  6 21  1  0  0  0  0
  6 22  1  0  0  0  0
  7 23  1  0  0  0  0
  7 24  1  0  0  0  0
  7 25  1  0  0  0  0
  8 26  1  0  0  0  0
  8 27  1  0  0  0  0
  9 28  1  0  0  0  0
 10 29  1  0  0  0  0
 10 30  1  0  0  0  0
 11 31  1  0  0  0  0
M  END
