 xtb: 6.7.1 (edcfbbe)
          07082604403D

 20 20  0     0  0            999 V2000
    2.5739   -0.1300    0.8935 C   0  0  0  0  0  0  0  0  0  0  0  0
    1.4851    0.5326    0.2988 O   0  0  0  0  0  0  0  0  0  0  0  0
    0.3141   -0.1571    0.1135 C   0  0  0  0  0  0  0  0  0  0  0  0
    0.1097   -1.4703    0.5127 C   0  0  0  0  0  0  0  0  0  0  0  0
   -1.1102   -2.0845    0.2797 C   0  0  0  0  0  0  0  0  0  0  0  0
   -2.1307   -1.3973   -0.3472 C   0  0  0  0  0  0  0  0  0  0  0  0
   -1.9285   -0.0843   -0.7408 C   0  0  0  0  0  0  0  0  0  0  0  0
   -0.7181    0.5494   -0.5239 C   0  0  0  0  0  0  0  0  0  0  0  0
   -0.4865    1.9765   -0.9574 C   0  0  0  0  0  0  0  0  0  0  0  0
   -0.1133    2.8282    0.0990 O   0  0  0  0  0  0  0  0  0  0  0  0
    3.3869    0.5946    0.9082 H   0  0  0  0  0  0  0  0  0  0  0  0
    2.3458   -0.4377    1.9190 H   0  0  0  0  0  0  0  0  0  0  0  0
    2.8798   -1.0033    0.3094 H   0  0  0  0  0  0  0  0  0  0  0  0
    0.8919   -2.0256    1.0058 H   0  0  0  0  0  0  0  0  0  0  0  0
   -1.2548   -3.1070    0.5954 H   0  0  0  0  0  0  0  0  0  0  0  0
   -3.0807   -1.8766   -0.5271 H   0  0  0  0  0  0  0  0  0  0  0  0
   -2.7233    0.4602   -1.2286 H   0  0  0  0  0  0  0  0  0  0  0  0
    0.2875    1.9875   -1.7428 H   0  0  0  0  0  0  0  0  0  0  0  0
   -1.4059    2.3964   -1.3710 H   0  0  0  0  0  0  0  0  0  0  0  0
    0.6772    2.4485    0.5036 H   0  0  0  0  0  0  0  0  0  0  0  0
  1  2  1  0  0  0  0
  2  3  1  0  0  0  0
  3  4  4  0  0  0  0
  4  5  4  0  0  0  0
  5  6  4  0  0  0  0
  6  7  4  0  0  0  0
  3  8  4  0  0  0  0
  7  8  4  0  0  0  0
  8  9  1  0  0  0  0
  9 10  1  0  0  0  0
  1 11  1  0  0  0  0
  1 12  1  0  0  0  0
  1 13  1  0  0  0  0
  4 14  1  0  0  0  0
  5 15  1  0  0  0  0
  6 16  1  0  0  0  0
  7 17  1  0  0  0  0
  9 18  1  0  0  0  0
  9 19  1  0  0  0  0
 10 20  1  0  0  0  0
M  END
