 xtb: 6.7.1 (edcfbbe)
          07092608093D

 25 24  0     0  0            999 V2000
    3.3786   -0.9977   -1.0495 C   0  0  0  0  0  0  0  0  0  0  0  0
    1.9485   -0.8852   -1.5559 C   0  0  0  0  0  0  0  0  0  0  0  0
    1.0073   -0.9175   -0.4786 O   0  0  0  0  0  0  0  0  0  0  0  0
    0.7949    0.2264    0.1817 C   0  0  0  0  0  0  0  0  0  0  0  0
    1.3284    1.2694   -0.0847 O   0  0  0  0  0  0  0  0  0  0  0  0
   -0.2225    0.0278    1.2885 C   0  0  0  0  0  0  0  0  0  0  0  0
    0.2280    0.7331    2.5653 C   0  0  0  0  0  0  0  0  0  0  0  0
   -1.6038    0.5336    0.8411 C   0  0  0  0  0  0  0  0  0  0  0  0
   -2.3270    1.1377    1.5840 O   0  0  0  0  0  0  0  0  0  0  0  0
   -1.9659    0.1862   -0.5835 C   0  0  0  0  0  0  0  0  0  0  0  0
   -3.4463    0.4014   -0.8706 C   0  0  0  0  0  0  0  0  0  0  0  0
    3.6232   -0.1345   -0.4356 H   0  0  0  0  0  0  0  0  0  0  0  0
    4.0613   -1.0339   -1.8934 H   0  0  0  0  0  0  0  0  0  0  0  0
    3.4983   -1.9007   -0.4558 H   0  0  0  0  0  0  0  0  0  0  0  0
    1.8167    0.0487   -2.1117 H   0  0  0  0  0  0  0  0  0  0  0  0
    1.6839   -1.7362   -2.1867 H   0  0  0  0  0  0  0  0  0  0  0  0
   -0.3327   -1.0494    1.4546 H   0  0  0  0  0  0  0  0  0  0  0  0
    1.0808    0.2235    3.0063 H   0  0  0  0  0  0  0  0  0  0  0  0
   -0.5904    0.7516    3.2799 H   0  0  0  0  0  0  0  0  0  0  0  0
    0.5107    1.7570    2.3331 H   0  0  0  0  0  0  0  0  0  0  0  0
   -1.3631    0.8349   -1.2273 H   0  0  0  0  0  0  0  0  0  0  0  0
   -1.6697   -0.8443   -0.7906 H   0  0  0  0  0  0  0  0  0  0  0  0
   -3.6633    0.2079   -1.9179 H   0  0  0  0  0  0  0  0  0  0  0  0
   -4.0494   -0.2642   -0.2583 H   0  0  0  0  0  0  0  0  0  0  0  0
   -3.7266    1.4243   -0.6345 H   0  0  0  0  0  0  0  0  0  0  0  0
  1  2  1  0  0  0  0
  2  3  1  0  0  0  0
  3  4  1  0  0  0  0
  4  5  2  0  0  0  0
  4  6  1  0  0  0  0
  6  7  1  0  0  0  0
  6  8  1  0  0  0  0
  8  9  2  0  0  0  0
  8 10  1  0  0  0  0
 10 11  1  0  0  0  0
  1 12  1  0  0  0  0
  1 13  1  0  0  0  0
  1 14  1  0  0  0  0
  2 15  1  0  0  0  0
  2 16  1  0  0  0  0
  6 17  1  0  0  0  0
  7 18  1  0  0  0  0
  7 19  1  0  0  0  0
  7 20  1  0  0  0  0
 10 21  1  0  0  0  0
 10 22  1  0  0  0  0
 11 23  1  0  0  0  0
 11 24  1  0  0  0  0
 11 25  1  0  0  0  0
M  END
