 xtb: 6.7.1 (edcfbbe)
          07092607383D

 33 32  0     0  0            999 V2000
   -4.6955    1.8358   -0.2908 C   0  0  0  0  0  0  0  0  0  0  0  0
   -4.2682    0.4095   -0.6147 C   0  0  0  0  0  0  0  0  0  0  0  0
   -2.9600    0.0390    0.0785 C   0  0  0  0  0  0  0  0  0  0  0  0
   -2.5260   -1.3892   -0.2401 C   0  0  0  0  0  0  0  0  0  0  0  0
   -1.1967   -1.7380    0.4198 C   0  0  0  0  0  0  0  0  0  0  0  0
   -0.1800   -0.9440   -0.1442 O   0  0  0  0  0  0  0  0  0  0  0  0
    1.0879   -1.1820    0.4170 C   0  0  0  0  0  0  0  0  0  0  0  0
    2.1066   -0.2801   -0.2697 C   0  0  0  0  0  0  0  0  0  0  0  0
    3.5089   -0.4815    0.2977 C   0  0  0  0  0  0  0  0  0  0  0  0
    4.5755    0.3350   -0.4328 C   0  0  0  0  0  0  0  0  0  0  0  0
    4.4319    1.8370   -0.2178 C   0  0  0  0  0  0  0  0  0  0  0  0
   -4.8436    1.9560    0.7803 H   0  0  0  0  0  0  0  0  0  0  0  0
   -5.6269    2.0820   -0.7956 H   0  0  0  0  0  0  0  0  0  0  0  0
   -3.9334    2.5427   -0.6114 H   0  0  0  0  0  0  0  0  0  0  0  0
   -4.1458    0.3041   -1.6949 H   0  0  0  0  0  0  0  0  0  0  0  0
   -5.0524   -0.2845   -0.3017 H   0  0  0  0  0  0  0  0  0  0  0  0
   -3.0805    0.1467    1.1594 H   0  0  0  0  0  0  0  0  0  0  0  0
   -2.1694    0.7197   -0.2399 H   0  0  0  0  0  0  0  0  0  0  0  0
   -3.2833   -2.0971    0.1032 H   0  0  0  0  0  0  0  0  0  0  0  0
   -2.4130   -1.5019   -1.3194 H   0  0  0  0  0  0  0  0  0  0  0  0
   -1.2528   -1.5604    1.5067 H   0  0  0  0  0  0  0  0  0  0  0  0
   -0.9648   -2.8054    0.2665 H   0  0  0  0  0  0  0  0  0  0  0  0
    1.0657   -0.9756    1.5004 H   0  0  0  0  0  0  0  0  0  0  0  0
    1.3653   -2.2416    0.2864 H   0  0  0  0  0  0  0  0  0  0  0  0
    1.7847    0.7530   -0.1405 H   0  0  0  0  0  0  0  0  0  0  0  0
    2.1001   -0.5020   -1.3381 H   0  0  0  0  0  0  0  0  0  0  0  0
    3.5131   -0.2138    1.3570 H   0  0  0  0  0  0  0  0  0  0  0  0
    3.7673   -1.5412    0.2250 H   0  0  0  0  0  0  0  0  0  0  0  0
    5.5588    0.0204   -0.0748 H   0  0  0  0  0  0  0  0  0  0  0  0
    4.5273    0.1149   -1.5015 H   0  0  0  0  0  0  0  0  0  0  0  0
    5.2513    2.3666   -0.6984 H   0  0  0  0  0  0  0  0  0  0  0  0
    4.4485    2.0721    0.8443 H   0  0  0  0  0  0  0  0  0  0  0  0
    3.4995    2.2037   -0.6379 H   0  0  0  0  0  0  0  0  0  0  0  0
  1  2  1  0  0  0  0
  2  3  1  0  0  0  0
  3  4  1  0  0  0  0
  4  5  1  0  0  0  0
  5  6  1  0  0  0  0
  6  7  1  0  0  0  0
  7  8  1  0  0  0  0
  8  9  1  0  0  0  0
  9 10  1  0  0  0  0
 10 11  1  0  0  0  0
  1 12  1  0  0  0  0
  1 13  1  0  0  0  0
  1 14  1  0  0  0  0
  2 15  1  0  0  0  0
  2 16  1  0  0  0  0
  3 17  1  0  0  0  0
  3 18  1  0  0  0  0
  4 19  1  0  0  0  0
  4 20  1  0  0  0  0
  5 21  1  0  0  0  0
  5 22  1  0  0  0  0
  7 23  1  0  0  0  0
  7 24  1  0  0  0  0
  8 25  1  0  0  0  0
  8 26  1  0  0  0  0
  9 27  1  0  0  0  0
  9 28  1  0  0  0  0
 10 29  1  0  0  0  0
 10 30  1  0  0  0  0
 11 31  1  0  0  0  0
 11 32  1  0  0  0  0
 11 33  1  0  0  0  0
M  END
