 xtb: 6.7.1 (edcfbbe)
          07082608403D

 23 23  0     0  0            999 V2000
   -3.5141    0.1373    0.9878 C   0  0  0  0  0  0  0  0  0  0  0  0
   -2.7194    0.4660   -0.2760 C   0  0  0  0  0  0  0  0  0  0  0  0
   -3.4250   -0.0964   -1.3708 O   0  0  0  0  0  0  0  0  0  0  0  0
   -1.3306   -0.0967   -0.1788 C   0  0  0  0  0  0  0  0  0  0  0  0
   -0.2372    0.6460   -0.0276 C   0  0  0  0  0  0  0  0  0  0  0  0
    1.1337    0.1699    0.0963 C   0  0  0  0  0  0  0  0  0  0  0  0
    1.4985   -1.1620   -0.1067 C   0  0  0  0  0  0  0  0  0  0  0  0
    2.8139   -1.5618    0.0258 C   0  0  0  0  0  0  0  0  0  0  0  0
    3.7952   -0.6441    0.3646 C   0  0  0  0  0  0  0  0  0  0  0  0
    3.4502    0.6818    0.5656 C   0  0  0  0  0  0  0  0  0  0  0  0
    2.1356    1.0837    0.4294 C   0  0  0  0  0  0  0  0  0  0  0  0
   -3.5642   -0.9404    1.1173 H   0  0  0  0  0  0  0  0  0  0  0  0
   -3.0365    0.5839    1.8553 H   0  0  0  0  0  0  0  0  0  0  0  0
   -4.5253    0.5219    0.8899 H   0  0  0  0  0  0  0  0  0  0  0  0
   -2.6670    1.5617   -0.3948 H   0  0  0  0  0  0  0  0  0  0  0  0
   -2.9045    0.0239   -2.1719 H   0  0  0  0  0  0  0  0  0  0  0  0
   -1.2855   -1.1750   -0.2341 H   0  0  0  0  0  0  0  0  0  0  0  0
   -0.3501    1.7229    0.0346 H   0  0  0  0  0  0  0  0  0  0  0  0
    0.7494   -1.8900   -0.3775 H   0  0  0  0  0  0  0  0  0  0  0  0
    3.0779   -2.5968   -0.1369 H   0  0  0  0  0  0  0  0  0  0  0  0
    4.8224   -0.9608    0.4688 H   0  0  0  0  0  0  0  0  0  0  0  0
    4.2093    1.4046    0.8279 H   0  0  0  0  0  0  0  0  0  0  0  0
    1.8733    2.1206    0.5876 H   0  0  0  0  0  0  0  0  0  0  0  0
  1  2  1  0  0  0  0
  2  3  1  0  0  0  0
  2  4  1  0  0  0  0
  4  5  2  0  0  0  0
  5  6  1  0  0  0  0
  6  7  4  0  0  0  0
  7  8  4  0  0  0  0
  8  9  4  0  0  0  0
  9 10  4  0  0  0  0
  6 11  4  0  0  0  0
 10 11  4  0  0  0  0
  1 12  1  0  0  0  0
  1 13  1  0  0  0  0
  1 14  1  0  0  0  0
  2 15  1  0  0  0  0
  3 16  1  0  0  0  0
  4 17  1  0  0  0  0
  5 18  1  0  0  0  0
  7 19  1  0  0  0  0
  8 20  1  0  0  0  0
  9 21  1  0  0  0  0
 10 22  1  0  0  0  0
 11 23  1  0  0  0  0
M  END
