 xtb: 6.7.1 (edcfbbe)
          07082607003D

 42 44  0     0  0            999 V2000
    2.8298   -0.8412    0.9216 C   0  0  0  0  0  0  0  0  0  0  0  0
    1.9249   -0.1646   -0.1103 C   0  0  0  0  0  0  0  0  0  0  0  0
    2.7614    0.9437   -0.7598 C   0  0  0  0  0  0  0  0  0  0  0  0
    1.4110   -1.1074   -1.2230 C   0  0  0  0  0  0  0  0  0  0  0  0
    0.9086   -2.4224   -0.6325 C   0  0  0  0  0  0  0  0  0  0  0  0
   -0.3148   -1.9676    0.1786 C   0  0  0  0  0  0  0  0  0  0  0  0
   -0.4964   -0.4773   -0.2001 C   0  0  0  0  0  0  0  0  0  0  0  0
    0.0846   -0.4605   -1.6215 C   0  0  0  0  0  0  0  0  0  0  0  0
    0.5970    0.3131    0.5642 C   0  0  0  0  0  0  0  0  0  0  0  0
    0.4014    1.8330    0.5628 C   0  0  0  0  0  0  0  0  0  0  0  0
    1.3105    2.3696    1.5110 O   0  0  0  0  0  0  0  0  0  0  0  0
   -1.0368    2.2105    0.9110 C   0  0  0  0  0  0  0  0  0  0  0  0
   -1.9898    1.5566   -0.0761 C   0  0  0  0  0  0  0  0  0  0  0  0
   -1.9416    0.0236   -0.0012 C   0  0  0  0  0  0  0  0  0  0  0  0
   -2.4839   -0.4355    1.3603 C   0  0  0  0  0  0  0  0  0  0  0  0
   -2.8744   -0.5198   -1.0916 C   0  0  0  0  0  0  0  0  0  0  0  0
    3.2298   -0.0815    1.5893 H   0  0  0  0  0  0  0  0  0  0  0  0
    2.2924   -1.5661    1.5259 H   0  0  0  0  0  0  0  0  0  0  0  0
    3.6617   -1.3439    0.4314 H   0  0  0  0  0  0  0  0  0  0  0  0
    2.9836    1.7258   -0.0401 H   0  0  0  0  0  0  0  0  0  0  0  0
    3.7030    0.5192   -1.1034 H   0  0  0  0  0  0  0  0  0  0  0  0
    2.2641    1.3819   -1.6213 H   0  0  0  0  0  0  0  0  0  0  0  0
    2.1350   -1.2426   -2.0263 H   0  0  0  0  0  0  0  0  0  0  0  0
    0.6131   -3.0965   -1.4387 H   0  0  0  0  0  0  0  0  0  0  0  0
    1.6542   -2.9372   -0.0323 H   0  0  0  0  0  0  0  0  0  0  0  0
   -1.1931   -2.5499   -0.0952 H   0  0  0  0  0  0  0  0  0  0  0  0
   -0.1586   -2.0862    1.2497 H   0  0  0  0  0  0  0  0  0  0  0  0
    0.1892    0.5421   -2.0285 H   0  0  0  0  0  0  0  0  0  0  0  0
   -0.4740   -1.0762   -2.3233 H   0  0  0  0  0  0  0  0  0  0  0  0
    0.6065    0.0290    1.6193 H   0  0  0  0  0  0  0  0  0  0  0  0
    0.6221    2.2488   -0.4311 H   0  0  0  0  0  0  0  0  0  0  0  0
    1.1467    3.3156    1.5891 H   0  0  0  0  0  0  0  0  0  0  0  0
   -1.2597    1.8988    1.9318 H   0  0  0  0  0  0  0  0  0  0  0  0
   -1.1433    3.2993    0.8647 H   0  0  0  0  0  0  0  0  0  0  0  0
   -3.0112    1.8917    0.1175 H   0  0  0  0  0  0  0  0  0  0  0  0
   -1.7244    1.8769   -1.0866 H   0  0  0  0  0  0  0  0  0  0  0  0
   -1.7752   -0.2373    2.1584 H   0  0  0  0  0  0  0  0  0  0  0  0
   -2.6944   -1.5012    1.3525 H   0  0  0  0  0  0  0  0  0  0  0  0
   -3.4115    0.0872    1.5863 H   0  0  0  0  0  0  0  0  0  0  0  0
   -3.9006   -0.2340   -0.8695 H   0  0  0  0  0  0  0  0  0  0  0  0
   -2.8325   -1.6042   -1.1476 H   0  0  0  0  0  0  0  0  0  0  0  0
   -2.6142   -0.1134   -2.0654 H   0  0  0  0  0  0  0  0  0  0  0  0
  1  2  1  0  0  0  0
  2  3  1  0  0  0  0
  2  4  1  0  0  0  0
  4  5  1  0  0  0  0
  5  6  1  0  0  0  0
  6  7  1  0  0  0  0
  4  8  1  0  0  0  0
  7  8  1  0  0  0  0
  2  9  1  0  0  0  0
  7  9  1  0  0  0  0
  9 10  1  0  0  0  0
 10 11  1  0  0  0  0
 10 12  1  0  0  0  0
 12 13  1  0  0  0  0
  7 14  1  0  0  0  0
 13 14  1  0  0  0  0
 14 15  1  0  0  0  0
 14 16  1  0  0  0  0
  1 17  1  0  0  0  0
  1 18  1  0  0  0  0
  1 19  1  0  0  0  0
  3 20  1  0  0  0  0
  3 21  1  0  0  0  0
  3 22  1  0  0  0  0
  4 23  1  0  0  0  0
  5 24  1  0  0  0  0
  5 25  1  0  0  0  0
  6 26  1  0  0  0  0
  6 27  1  0  0  0  0
  8 28  1  0  0  0  0
  8 29  1  0  0  0  0
  9 30  1  0  0  0  0
 10 31  1  0  0  0  0
 11 32  1  0  0  0  0
 12 33  1  0  0  0  0
 12 34  1  0  0  0  0
 13 35  1  0  0  0  0
 13 36  1  0  0  0  0
 15 37  1  0  0  0  0
 15 38  1  0  0  0  0
 15 39  1  0  0  0  0
 16 40  1  0  0  0  0
 16 41  1  0  0  0  0
 16 42  1  0  0  0  0
M  END
