 xtb: 6.7.1 (edcfbbe)
          07082623263D

 24 24  0     0  0            999 V2000
    3.3604    0.6163   -0.5839 C   0  0  0  0  0  0  0  0  0  0  0  0
    2.3137   -0.1462   -0.0018 O   0  0  0  0  0  0  0  0  0  0  0  0
    1.2482    0.5442    0.4341 C   0  0  0  0  0  0  0  0  0  0  0  0
    1.1737    1.7422    0.3648 O   0  0  0  0  0  0  0  0  0  0  0  0
    0.2161   -0.3861    1.0444 C   0  0  0  0  0  0  0  0  0  0  0  0
   -1.0115    0.3841    1.5347 C   0  0  0  0  0  0  0  0  0  0  0  0
   -1.8289    0.9379    0.3702 C   0  0  0  0  0  0  0  0  0  0  0  0
   -2.2256   -0.1745   -0.5945 C   0  0  0  0  0  0  0  0  0  0  0  0
   -0.9823   -0.8901   -1.1128 C   0  0  0  0  0  0  0  0  0  0  0  0
   -0.1892   -1.4806    0.0488 C   0  0  0  0  0  0  0  0  0  0  0  0
    3.6357    1.4451    0.0713 H   0  0  0  0  0  0  0  0  0  0  0  0
    3.0432    1.0212   -1.5474 H   0  0  0  0  0  0  0  0  0  0  0  0
    4.1977   -0.0641   -0.7164 H   0  0  0  0  0  0  0  0  0  0  0  0
    0.7143   -0.8619    1.8980 H   0  0  0  0  0  0  0  0  0  0  0  0
   -1.6318   -0.2916    2.1281 H   0  0  0  0  0  0  0  0  0  0  0  0
   -0.6898    1.2061    2.1762 H   0  0  0  0  0  0  0  0  0  0  0  0
   -2.7220    1.4323    0.7576 H   0  0  0  0  0  0  0  0  0  0  0  0
   -1.2342    1.6844   -0.1569 H   0  0  0  0  0  0  0  0  0  0  0  0
   -2.8684   -0.8939   -0.0806 H   0  0  0  0  0  0  0  0  0  0  0  0
   -2.7911    0.2429   -1.4299 H   0  0  0  0  0  0  0  0  0  0  0  0
   -1.2672   -1.6859   -1.8046 H   0  0  0  0  0  0  0  0  0  0  0  0
   -0.3570   -0.1791   -1.6579 H   0  0  0  0  0  0  0  0  0  0  0  0
   -0.8076   -2.2144    0.5710 H   0  0  0  0  0  0  0  0  0  0  0  0
    0.7035   -1.9882   -0.3190 H   0  0  0  0  0  0  0  0  0  0  0  0
  1  2  1  0  0  0  0
  2  3  1  0  0  0  0
  3  4  2  0  0  0  0
  3  5  1  0  0  0  0
  5  6  1  0  0  0  0
  6  7  1  0  0  0  0
  7  8  1  0  0  0  0
  8  9  1  0  0  0  0
  5 10  1  0  0  0  0
  9 10  1  0  0  0  0
  1 11  1  0  0  0  0
  1 12  1  0  0  0  0
  1 13  1  0  0  0  0
  5 14  1  0  0  0  0
  6 15  1  0  0  0  0
  6 16  1  0  0  0  0
  7 17  1  0  0  0  0
  7 18  1  0  0  0  0
  8 19  1  0  0  0  0
  8 20  1  0  0  0  0
  9 21  1  0  0  0  0
  9 22  1  0  0  0  0
 10 23  1  0  0  0  0
 10 24  1  0  0  0  0
M  END
