 xtb: 6.7.1 (edcfbbe)
          07092601063D

 20 19  0     0  0            999 V2000
    3.1512    0.5887   -0.0884 C   0  0  0  0  0  0  0  0  0  0  0  0
    2.1570   -0.3850    0.5249 C   0  0  0  0  0  0  0  0  0  0  0  0
    1.0246   -0.5735   -0.3299 O   0  0  0  0  0  0  0  0  0  0  0  0
    0.0562    0.3170   -0.2609 C   0  0  0  0  0  0  0  0  0  0  0  0
    0.0063    1.2507    0.4990 O   0  0  0  0  0  0  0  0  0  0  0  0
   -1.0776   -0.0159   -1.2517 C   0  0  0  0  0  0  0  0  0  0  0  0
   -0.6756   -0.8795   -2.2640 O   0  0  0  0  0  0  0  0  0  0  0  0
   -2.1809   -0.6448   -0.3891 C   0  0  0  0  0  0  0  0  0  0  0  0
   -2.9561    0.3067    0.4591 C   0  0  0  0  0  0  0  0  0  0  0  0
   -2.3369   -1.8396   -0.4289 O   0  0  0  0  0  0  0  0  0  0  0  0
    2.7037    1.5765   -0.1706 H   0  0  0  0  0  0  0  0  0  0  0  0
    3.4440    0.2496   -1.0790 H   0  0  0  0  0  0  0  0  0  0  0  0
    4.0334    0.6531    0.5419 H   0  0  0  0  0  0  0  0  0  0  0  0
    1.8097   -0.0176    1.4960 H   0  0  0  0  0  0  0  0  0  0  0  0
    2.5929   -1.3798    0.6337 H   0  0  0  0  0  0  0  0  0  0  0  0
   -1.4215    0.9252   -1.6927 H   0  0  0  0  0  0  0  0  0  0  0  0
   -0.8805   -1.7828   -1.9695 H   0  0  0  0  0  0  0  0  0  0  0  0
   -2.2806    1.0290    0.9140 H   0  0  0  0  0  0  0  0  0  0  0  0
   -3.6532    0.8535   -0.1741 H   0  0  0  0  0  0  0  0  0  0  0  0
   -3.5161   -0.2316    1.2193 H   0  0  0  0  0  0  0  0  0  0  0  0
  1  2  1  0  0  0  0
  2  3  1  0  0  0  0
  3  4  1  0  0  0  0
  4  5  2  0  0  0  0
  4  6  1  0  0  0  0
  6  7  1  0  0  0  0
  6  8  1  0  0  0  0
  8  9  1  0  0  0  0
  8 10  2  0  0  0  0
  1 11  1  0  0  0  0
  1 12  1  0  0  0  0
  1 13  1  0  0  0  0
  2 14  1  0  0  0  0
  2 15  1  0  0  0  0
  6 16  1  0  0  0  0
  7 17  1  0  0  0  0
  9 18  1  0  0  0  0
  9 19  1  0  0  0  0
  9 20  1  0  0  0  0
M  END
