 xtb: 6.7.1 (edcfbbe)
          07072616553D

 38 39  0     0  0            999 V2000
   -0.0338   -1.7754   -0.7817 O   0  0  0  0  0  0  0  0  0  0  0  0
    0.1893   -1.0338    0.1477 C   0  0  0  0  0  0  0  0  0  0  0  0
    1.4452   -1.0827    0.9812 C   0  0  0  0  0  0  0  0  0  0  0  0
    2.6809   -1.0284    0.0508 C   0  0  0  0  0  0  0  0  0  0  0  0
    2.7375   -2.1953   -0.7315 O   0  0  0  0  0  0  0  0  0  0  0  0
    2.6515    0.2560   -0.8195 C   0  0  0  0  0  0  0  0  0  0  0  0
    4.0722    0.8127   -0.7642 C   0  0  0  0  0  0  0  0  0  0  0  0
    4.5144    0.4821    0.6577 C   0  0  0  0  0  0  0  0  0  0  0  0
    3.9938   -0.9383    0.8585 C   0  0  0  0  0  0  0  0  0  0  0  0
   -0.6198   -0.0546    0.5320 O   0  0  0  0  0  0  0  0  0  0  0  0
   -1.8468    0.1276   -0.1953 C   0  0  0  0  0  0  0  0  0  0  0  0
   -2.9226   -0.8176    0.3357 C   0  0  0  0  0  0  0  0  0  0  0  0
   -4.2449   -0.5618   -0.3805 C   0  0  0  0  0  0  0  0  0  0  0  0
   -4.6740    0.8926   -0.2120 C   0  0  0  0  0  0  0  0  0  0  0  0
   -3.5942    1.8304   -0.7436 C   0  0  0  0  0  0  0  0  0  0  0  0
   -2.2694    1.5825   -0.0285 C   0  0  0  0  0  0  0  0  0  0  0  0
    1.4503   -0.2550    1.6881 H   0  0  0  0  0  0  0  0  0  0  0  0
    1.4669   -2.0309    1.5229 H   0  0  0  0  0  0  0  0  0  0  0  0
    1.8549   -2.3521   -1.1036 H   0  0  0  0  0  0  0  0  0  0  0  0
    2.3360    0.0222   -1.8357 H   0  0  0  0  0  0  0  0  0  0  0  0
    1.9513    0.9781   -0.3964 H   0  0  0  0  0  0  0  0  0  0  0  0
    4.7052    0.2840   -1.4773 H   0  0  0  0  0  0  0  0  0  0  0  0
    4.1107    1.8787   -0.9844 H   0  0  0  0  0  0  0  0  0  0  0  0
    4.0355    1.1638    1.3633 H   0  0  0  0  0  0  0  0  0  0  0  0
    5.5927    0.5495    0.7910 H   0  0  0  0  0  0  0  0  0  0  0  0
    3.8464   -1.1904    1.9070 H   0  0  0  0  0  0  0  0  0  0  0  0
    4.6841   -1.6608    0.4233 H   0  0  0  0  0  0  0  0  0  0  0  0
   -1.6515   -0.0994   -1.2514 H   0  0  0  0  0  0  0  0  0  0  0  0
   -3.0383   -0.6486    1.4088 H   0  0  0  0  0  0  0  0  0  0  0  0
   -2.6019   -1.8498    0.1832 H   0  0  0  0  0  0  0  0  0  0  0  0
   -5.0108   -1.2275    0.0207 H   0  0  0  0  0  0  0  0  0  0  0  0
   -4.1283   -0.7860   -1.4430 H   0  0  0  0  0  0  0  0  0  0  0  0
   -5.6107    1.0668   -0.7444 H   0  0  0  0  0  0  0  0  0  0  0  0
   -4.8459    1.1002    0.8464 H   0  0  0  0  0  0  0  0  0  0  0  0
   -3.8965    2.8692   -0.6005 H   0  0  0  0  0  0  0  0  0  0  0  0
   -3.4641    1.6629   -1.8150 H   0  0  0  0  0  0  0  0  0  0  0  0
   -1.4916    2.2364   -0.4267 H   0  0  0  0  0  0  0  0  0  0  0  0
   -2.3741    1.7926    1.0375 H   0  0  0  0  0  0  0  0  0  0  0  0
  1  2  2  0  0  0  0
  2  3  1  0  0  0  0
  3  4  1  0  0  0  0
  4  5  1  0  0  0  0
  4  6  1  0  0  0  0
  6  7  1  0  0  0  0
  7  8  1  0  0  0  0
  4  9  1  0  0  0  0
  8  9  1  0  0  0  0
  2 10  1  0  0  0  0
 10 11  1  0  0  0  0
 11 12  1  0  0  0  0
 12 13  1  0  0  0  0
 13 14  1  0  0  0  0
 14 15  1  0  0  0  0
 11 16  1  0  0  0  0
 15 16  1  0  0  0  0
  3 17  1  0  0  0  0
  3 18  1  0  0  0  0
  5 19  1  0  0  0  0
  6 20  1  0  0  0  0
  6 21  1  0  0  0  0
  7 22  1  0  0  0  0
  7 23  1  0  0  0  0
  8 24  1  0  0  0  0
  8 25  1  0  0  0  0
  9 26  1  0  0  0  0
  9 27  1  0  0  0  0
 11 28  1  0  0  0  0
 12 29  1  0  0  0  0
 12 30  1  0  0  0  0
 13 31  1  0  0  0  0
 13 32  1  0  0  0  0
 14 33  1  0  0  0  0
 14 34  1  0  0  0  0
 15 35  1  0  0  0  0
 15 36  1  0  0  0  0
 16 37  1  0  0  0  0
 16 38  1  0  0  0  0
M  END
