 xtb: 6.7.1 (edcfbbe)
          07082605393D

 31 33  0     0  0            999 V2000
   -1.5326   -2.3834   -2.2097 O   0  0  0  0  0  0  0  0  0  0  0  0
   -1.1691   -2.3515   -1.0673 C   0  0  0  0  0  0  0  0  0  0  0  0
   -1.0959   -1.1043   -0.2088 C   0  0  0  0  0  0  0  0  0  0  0  0
   -2.5214   -0.8494    0.3359 C   0  0  0  0  0  0  0  0  0  0  0  0
   -2.6398    0.5477    0.8562 C   0  0  0  0  0  0  0  0  0  0  0  0
   -2.1825    1.5491    0.1213 C   0  0  0  0  0  0  0  0  0  0  0  0
   -1.5336    1.2354   -1.1901 C   0  0  0  0  0  0  0  0  0  0  0  0
   -0.5211    0.0989   -1.0127 C   0  0  0  0  0  0  0  0  0  0  0  0
    0.6882    0.5048   -0.1678 C   0  0  0  0  0  0  0  0  0  0  0  0
    1.9304    1.0413   -0.8561 C   0  0  0  0  0  0  0  0  0  0  0  0
    3.0681    1.0310    0.1262 C   0  0  0  0  0  0  0  0  0  0  0  0
    3.0631    0.3582    1.2673 C   0  0  0  0  0  0  0  0  0  0  0  0
    1.9371   -0.5202    1.7334 C   0  0  0  0  0  0  0  0  0  0  0  0
    1.0270   -0.7994    0.5524 C   0  0  0  0  0  0  0  0  0  0  0  0
   -0.2317   -1.3419    0.8982 O   0  0  0  0  0  0  0  0  0  0  0  0
   -0.8678   -3.2655   -0.5208 H   0  0  0  0  0  0  0  0  0  0  0  0
   -2.7200   -1.5837    1.1155 H   0  0  0  0  0  0  0  0  0  0  0  0
   -3.2310   -1.0002   -0.4836 H   0  0  0  0  0  0  0  0  0  0  0  0
   -3.0970    0.6944    1.8217 H   0  0  0  0  0  0  0  0  0  0  0  0
   -2.2449    2.5773    0.4422 H   0  0  0  0  0  0  0  0  0  0  0  0
   -1.0262    2.1079   -1.6029 H   0  0  0  0  0  0  0  0  0  0  0  0
   -2.2945    0.9141   -1.9079 H   0  0  0  0  0  0  0  0  0  0  0  0
   -0.1991   -0.2533   -1.9978 H   0  0  0  0  0  0  0  0  0  0  0  0
    0.3575    1.2241    0.5891 H   0  0  0  0  0  0  0  0  0  0  0  0
    2.1880    0.4209   -1.7213 H   0  0  0  0  0  0  0  0  0  0  0  0
    1.7685    2.0581   -1.2213 H   0  0  0  0  0  0  0  0  0  0  0  0
    3.9292    1.6255   -0.1463 H   0  0  0  0  0  0  0  0  0  0  0  0
    3.9141    0.4152    1.9316 H   0  0  0  0  0  0  0  0  0  0  0  0
    1.3672   -0.0213    2.5224 H   0  0  0  0  0  0  0  0  0  0  0  0
    2.3314   -1.4483    2.1513 H   0  0  0  0  0  0  0  0  0  0  0  0
    1.5383   -1.4816   -0.1500 H   0  0  0  0  0  0  0  0  0  0  0  0
  1  2  2  0  0  0  0
  2  3  1  0  0  0  0
  3  4  1  0  0  0  0
  4  5  1  0  0  0  0
  5  6  2  0  0  0  0
  6  7  1  0  0  0  0
  3  8  1  0  0  0  0
  7  8  1  0  0  0  0
  8  9  1  0  0  0  0
  9 10  1  0  0  0  0
 10 11  1  0  0  0  0
 11 12  2  0  0  0  0
 12 13  1  0  0  0  0
  9 14  1  0  0  0  0
 13 14  1  0  0  0  0
  3 15  1  0  0  0  0
 14 15  1  0  0  0  0
  2 16  1  0  0  0  0
  4 17  1  0  0  0  0
  4 18  1  0  0  0  0
  5 19  1  0  0  0  0
  6 20  1  0  0  0  0
  7 21  1  0  0  0  0
  7 22  1  0  0  0  0
  8 23  1  0  0  0  0
  9 24  1  0  0  0  0
 10 25  1  0  0  0  0
 10 26  1  0  0  0  0
 11 27  1  0  0  0  0
 12 28  1  0  0  0  0
 13 29  1  0  0  0  0
 13 30  1  0  0  0  0
 14 31  1  0  0  0  0
M  END
