 xtb: 6.7.1 (edcfbbe)
          07082618163D

 21 20  0     0  0            999 V2000
    1.8107   -1.1688    0.3475 C   0  0  0  0  0  0  0  0  0  0  0  0
    1.1464   -0.0381   -0.4302 C   0  0  0  0  0  0  0  0  0  0  0  0
   -0.1988    0.4158    0.1765 C   0  0  0  0  0  0  0  0  0  0  0  0
   -0.7978    1.5237   -0.7017 C   0  0  0  0  0  0  0  0  0  0  0  0
   -0.0019    0.9530    1.5974 C   0  0  0  0  0  0  0  0  0  0  0  0
   -1.1004   -0.6788    0.3439 O   0  0  0  0  0  0  0  0  0  0  0  0
   -1.6026   -1.2999   -0.8107 C   0  0  0  0  0  0  0  0  0  0  0  0
    2.1877   -0.8155    1.3034 H   0  0  0  0  0  0  0  0  0  0  0  0
    1.0947   -1.9657    0.5334 H   0  0  0  0  0  0  0  0  0  0  0  0
    2.6459   -1.5748   -0.2194 H   0  0  0  0  0  0  0  0  0  0  0  0
    0.9762   -0.3627   -1.4596 H   0  0  0  0  0  0  0  0  0  0  0  0
    1.8102    0.8272   -0.4705 H   0  0  0  0  0  0  0  0  0  0  0  0
   -0.1890    2.4200   -0.6215 H   0  0  0  0  0  0  0  0  0  0  0  0
   -1.8065    1.7567   -0.3676 H   0  0  0  0  0  0  0  0  0  0  0  0
   -0.8322    1.2269   -1.7476 H   0  0  0  0  0  0  0  0  0  0  0  0
    0.2614    0.1378    2.2635 H   0  0  0  0  0  0  0  0  0  0  0  0
    0.7811    1.7055    1.6164 H   0  0  0  0  0  0  0  0  0  0  0  0
   -0.9297    1.3930    1.9528 H   0  0  0  0  0  0  0  0  0  0  0  0
   -2.2009   -2.1375   -0.4532 H   0  0  0  0  0  0  0  0  0  0  0  0
   -0.8090   -1.6861   -1.4589 H   0  0  0  0  0  0  0  0  0  0  0  0
   -2.2457   -0.6320   -1.3941 H   0  0  0  0  0  0  0  0  0  0  0  0
  1  2  1  0  0  0  0
  2  3  1  0  0  0  0
  3  4  1  0  0  0  0
  3  5  1  0  0  0  0
  3  6  1  0  0  0  0
  6  7  1  0  0  0  0
  1  8  1  0  0  0  0
  1  9  1  0  0  0  0
  1 10  1  0  0  0  0
  2 11  1  0  0  0  0
  2 12  1  0  0  0  0
  4 13  1  0  0  0  0
  4 14  1  0  0  0  0
  4 15  1  0  0  0  0
  5 16  1  0  0  0  0
  5 17  1  0  0  0  0
  5 18  1  0  0  0  0
  7 19  1  0  0  0  0
  7 20  1  0  0  0  0
  7 21  1  0  0  0  0
M  END
