 xtb: 6.7.1 (edcfbbe)
          07092600523D

 18 18  0     0  0            999 V2000
    3.0490    0.7000    0.5849 C   0  0  0  0  0  0  0  0  0  0  0  0
    1.9433   -0.2307    0.1628 C   0  0  0  0  0  0  0  0  0  0  0  0
    1.7087   -1.2992    0.6602 O   0  0  0  0  0  0  0  0  0  0  0  0
    1.2522    0.2854   -0.8613 O   0  0  0  0  0  0  0  0  0  0  0  0
    0.1494   -0.4833   -1.3589 C   0  0  0  0  0  0  0  0  0  0  0  0
   -1.0905   -0.2365   -0.5673 C   0  0  0  0  0  0  0  0  0  0  0  0
   -1.4695   -0.6681    0.6706 C   0  0  0  0  0  0  0  0  0  0  0  0
   -2.7345   -0.0834    0.9196 C   0  0  0  0  0  0  0  0  0  0  0  0
   -3.0267    0.6571   -0.1831 C   0  0  0  0  0  0  0  0  0  0  0  0
   -2.0381    0.5750   -1.0872 O   0  0  0  0  0  0  0  0  0  0  0  0
    2.9040    0.9702    1.6284 H   0  0  0  0  0  0  0  0  0  0  0  0
    3.0497    1.5900   -0.0356 H   0  0  0  0  0  0  0  0  0  0  0  0
    4.0015    0.1818    0.5020 H   0  0  0  0  0  0  0  0  0  0  0  0
    0.0057   -0.1566   -2.3897 H   0  0  0  0  0  0  0  0  0  0  0  0
    0.4178   -1.5446   -1.3170 H   0  0  0  0  0  0  0  0  0  0  0  0
   -0.9107   -1.3173    1.3128 H   0  0  0  0  0  0  0  0  0  0  0  0
   -3.3372   -0.2024    1.7963 H   0  0  0  0  0  0  0  0  0  0  0  0
   -3.8741    1.2624   -0.4375 H   0  0  0  0  0  0  0  0  0  0  0  0
  1  2  1  0  0  0  0
  2  3  2  0  0  0  0
  2  4  1  0  0  0  0
  4  5  1  0  0  0  0
  5  6  1  0  0  0  0
  6  7  2  0  0  0  0
  7  8  4  0  0  0  0
  8  9  2  0  0  0  0
  6 10  1  0  0  0  0
  9 10  1  0  0  0  0
  1 11  1  0  0  0  0
  1 12  1  0  0  0  0
  1 13  1  0  0  0  0
  5 14  1  0  0  0  0
  5 15  1  0  0  0  0
  7 16  1  0  0  0  0
  8 17  1  0  0  0  0
  9 18  1  0  0  0  0
M  END
