 xtb: 6.7.1 (edcfbbe)
          07082610183D

 23 23  0     0  0            999 V2000
   -3.6664    0.6517    0.3429 C   0  0  0  0  0  0  0  0  0  0  0  0
   -2.5077   -0.0669   -0.2600 C   0  0  0  0  0  0  0  0  0  0  0  0
   -1.3714    0.5066   -0.6139 C   0  0  0  0  0  0  0  0  0  0  0  0
   -0.1949   -0.2282   -1.2016 C   0  0  0  0  0  0  0  0  0  0  0  0
   -0.5535   -1.5663   -1.4784 O   0  0  0  0  0  0  0  0  0  0  0  0
    0.9537   -0.1353   -0.2156 C   0  0  0  0  0  0  0  0  0  0  0  0
    1.9703    0.7946   -0.3810 C   0  0  0  0  0  0  0  0  0  0  0  0
    2.9987    0.8750    0.5417 C   0  0  0  0  0  0  0  0  0  0  0  0
    3.0200    0.0253    1.6345 C   0  0  0  0  0  0  0  0  0  0  0  0
    2.0068   -0.9034    1.8049 C   0  0  0  0  0  0  0  0  0  0  0  0
    0.9768   -0.9812    0.8858 C   0  0  0  0  0  0  0  0  0  0  0  0
   -3.4521    1.7111    0.4614 H   0  0  0  0  0  0  0  0  0  0  0  0
   -3.9022    0.2283    1.3190 H   0  0  0  0  0  0  0  0  0  0  0  0
   -4.5482    0.5375   -0.2869 H   0  0  0  0  0  0  0  0  0  0  0  0
   -2.6329   -1.1283   -0.4186 H   0  0  0  0  0  0  0  0  0  0  0  0
   -1.2036    1.5661   -0.4736 H   0  0  0  0  0  0  0  0  0  0  0  0
    0.0993    0.2786   -2.1392 H   0  0  0  0  0  0  0  0  0  0  0  0
    0.2413   -2.0453   -1.7357 H   0  0  0  0  0  0  0  0  0  0  0  0
    1.9571    1.4571   -1.2354 H   0  0  0  0  0  0  0  0  0  0  0  0
    3.7873    1.6005    0.4049 H   0  0  0  0  0  0  0  0  0  0  0  0
    3.8248    0.0872    2.3522 H   0  0  0  0  0  0  0  0  0  0  0  0
    2.0180   -1.5663    2.6577 H   0  0  0  0  0  0  0  0  0  0  0  0
    0.1788   -1.6984    1.0104 H   0  0  0  0  0  0  0  0  0  0  0  0
  1  2  1  0  0  0  0
  2  3  2  0  0  0  0
  3  4  1  0  0  0  0
  4  5  1  0  0  0  0
  4  6  1  0  0  0  0
  6  7  4  0  0  0  0
  7  8  4  0  0  0  0
  8  9  4  0  0  0  0
  9 10  4  0  0  0  0
  6 11  4  0  0  0  0
 10 11  4  0  0  0  0
  1 12  1  0  0  0  0
  1 13  1  0  0  0  0
  1 14  1  0  0  0  0
  2 15  1  0  0  0  0
  3 16  1  0  0  0  0
  4 17  1  0  0  0  0
  5 18  1  0  0  0  0
  7 19  1  0  0  0  0
  8 20  1  0  0  0  0
  9 21  1  0  0  0  0
 10 22  1  0  0  0  0
 11 23  1  0  0  0  0
M  END
