 xtb: 6.7.1 (edcfbbe)
          07092600343D

 17 17  0     0  0            999 V2000
   -2.6948   -0.4288    0.1706 C   0  0  0  0  0  0  0  0  0  0  0  0
   -1.6983    0.6999    0.0789 C   0  0  0  0  0  0  0  0  0  0  0  0
   -2.0490    1.8583    0.0652 O   0  0  0  0  0  0  0  0  0  0  0  0
   -0.2593    0.3297    0.0055 C   0  0  0  0  0  0  0  0  0  0  0  0
    0.6733    1.3653   -0.0798 C   0  0  0  0  0  0  0  0  0  0  0  0
    2.0259    1.1042   -0.1514 C   0  0  0  0  0  0  0  0  0  0  0  0
    2.4602   -0.2137   -0.1379 C   0  0  0  0  0  0  0  0  0  0  0  0
    4.1476   -0.5588   -0.2266 Cl  0  0  0  0  0  0  0  0  0  0  0  0
    1.5518   -1.2594   -0.0538 C   0  0  0  0  0  0  0  0  0  0  0  0
    0.1992   -0.9869    0.0175 C   0  0  0  0  0  0  0  0  0  0  0  0
   -2.6122   -1.0735   -0.7015 H   0  0  0  0  0  0  0  0  0  0  0  0
   -3.6989   -0.0151    0.2173 H   0  0  0  0  0  0  0  0  0  0  0  0
   -2.5087   -1.0214    1.0635 H   0  0  0  0  0  0  0  0  0  0  0  0
    0.3080    2.3814   -0.0884 H   0  0  0  0  0  0  0  0  0  0  0  0
    2.7411    1.9088   -0.2170 H   0  0  0  0  0  0  0  0  0  0  0  0
    1.9063   -2.2783   -0.0445 H   0  0  0  0  0  0  0  0  0  0  0  0
   -0.4922   -1.8118    0.0824 H   0  0  0  0  0  0  0  0  0  0  0  0
  1  2  1  0  0  0  0
  2  3  2  0  0  0  0
  2  4  1  0  0  0  0
  4  5  4  0  0  0  0
  5  6  4  0  0  0  0
  6  7  4  0  0  0  0
  7  8  1  0  0  0  0
  7  9  4  0  0  0  0
  4 10  4  0  0  0  0
  9 10  4  0  0  0  0
  1 11  1  0  0  0  0
  1 12  1  0  0  0  0
  1 13  1  0  0  0  0
  5 14  1  0  0  0  0
  6 15  1  0  0  0  0
  9 16  1  0  0  0  0
 10 17  1  0  0  0  0
M  END
