 xtb: 6.7.1 (edcfbbe)
          07092600303D

 22 22  0     0  0            999 V2000
    3.3518   -0.3460    0.5081 C   0  0  0  0  0  0  0  0  0  0  0  0
    2.2487   -1.1838    0.2723 O   0  0  0  0  0  0  0  0  0  0  0  0
    1.0183   -0.6126    0.1134 C   0  0  0  0  0  0  0  0  0  0  0  0
    0.7634    0.7508    0.1677 C   0  0  0  0  0  0  0  0  0  0  0  0
   -0.5303    1.2272   -0.0112 C   0  0  0  0  0  0  0  0  0  0  0  0
   -0.8024    2.7000    0.0713 C   0  0  0  0  0  0  0  0  0  0  0  0
   -1.5615    0.3321   -0.2430 C   0  0  0  0  0  0  0  0  0  0  0  0
   -1.3219   -1.0360   -0.3009 C   0  0  0  0  0  0  0  0  0  0  0  0
   -2.4485   -1.9980   -0.5314 C   0  0  0  0  0  0  0  0  0  0  0  0
   -0.0311   -1.4991   -0.1219 C   0  0  0  0  0  0  0  0  0  0  0  0
    3.2347    0.2245    1.4357 H   0  0  0  0  0  0  0  0  0  0  0  0
    3.5182    0.3460   -0.3245 H   0  0  0  0  0  0  0  0  0  0  0  0
    4.2114   -1.0082    0.6008 H   0  0  0  0  0  0  0  0  0  0  0  0
    1.5578    1.4591    0.3460 H   0  0  0  0  0  0  0  0  0  0  0  0
   -1.6663    2.9686   -0.5321 H   0  0  0  0  0  0  0  0  0  0  0  0
   -1.0117    2.9822    1.1039 H   0  0  0  0  0  0  0  0  0  0  0  0
    0.0566    3.2753   -0.2667 H   0  0  0  0  0  0  0  0  0  0  0  0
   -2.5669    0.7028   -0.3831 H   0  0  0  0  0  0  0  0  0  0  0  0
   -2.8818   -2.2977    0.4233 H   0  0  0  0  0  0  0  0  0  0  0  0
   -2.0959   -2.8937   -1.0368 H   0  0  0  0  0  0  0  0  0  0  0  0
   -3.2338   -1.5397   -1.1281 H   0  0  0  0  0  0  0  0  0  0  0  0
    0.1913   -2.5541   -0.1628 H   0  0  0  0  0  0  0  0  0  0  0  0
  1  2  1  0  0  0  0
  2  3  1  0  0  0  0
  3  4  4  0  0  0  0
  4  5  4  0  0  0  0
  5  6  1  0  0  0  0
  5  7  4  0  0  0  0
  7  8  4  0  0  0  0
  8  9  1  0  0  0  0
  3 10  4  0  0  0  0
  8 10  4  0  0  0  0
  1 11  1  0  0  0  0
  1 12  1  0  0  0  0
  1 13  1  0  0  0  0
  4 14  1  0  0  0  0
  6 15  1  0  0  0  0
  6 16  1  0  0  0  0
  6 17  1  0  0  0  0
  7 18  1  0  0  0  0
  9 19  1  0  0  0  0
  9 20  1  0  0  0  0
  9 21  1  0  0  0  0
 10 22  1  0  0  0  0
M  END
