 xtb: 6.7.1 (edcfbbe)
          07082609383D

 42 41  0     0  0            999 V2000
    4.7109    1.5878   -0.5999 C   0  0  0  0  0  0  0  0  0  0  0  0
    4.3688    0.3447   -0.3196 C   0  0  0  0  0  0  0  0  0  0  0  0
    3.2650   -0.0632    0.6268 C   0  0  0  0  0  0  0  0  0  0  0  0
    3.8503   -1.0242    1.6767 C   0  0  0  0  0  0  0  0  0  0  0  0
    2.6709    1.0471    1.2748 O   0  0  0  0  0  0  0  0  0  0  0  0
    2.1403   -0.7676   -0.1522 C   0  0  0  0  0  0  0  0  0  0  0  0
    1.5392    0.1275   -1.2417 C   0  0  0  0  0  0  0  0  0  0  0  0
    0.3104   -0.5051   -1.8146 C   0  0  0  0  0  0  0  0  0  0  0  0
   -0.9429   -0.0928   -1.6650 C   0  0  0  0  0  0  0  0  0  0  0  0
   -2.0897   -0.8507   -2.2668 C   0  0  0  0  0  0  0  0  0  0  0  0
   -1.3373    1.1367   -0.8897 C   0  0  0  0  0  0  0  0  0  0  0  0
   -1.3126    0.9035    0.6344 C   0  0  0  0  0  0  0  0  0  0  0  0
   -2.1851   -0.2485    1.0281 C   0  0  0  0  0  0  0  0  0  0  0  0
   -3.4867   -0.2118    1.2891 C   0  0  0  0  0  0  0  0  0  0  0  0
   -4.2496   -1.4566    1.6416 C   0  0  0  0  0  0  0  0  0  0  0  0
   -4.3312    1.0275    1.2511 C   0  0  0  0  0  0  0  0  0  0  0  0
    5.5115    1.8180   -1.2819 H   0  0  0  0  0  0  0  0  0  0  0  0
    4.1910    2.4302   -0.1732 H   0  0  0  0  0  0  0  0  0  0  0  0
    4.8894   -0.4881   -0.7725 H   0  0  0  0  0  0  0  0  0  0  0  0
    3.0765   -1.3009    2.3892 H   0  0  0  0  0  0  0  0  0  0  0  0
    4.2321   -1.9245    1.2036 H   0  0  0  0  0  0  0  0  0  0  0  0
    4.6654   -0.5419    2.2153 H   0  0  0  0  0  0  0  0  0  0  0  0
    3.3541    1.5041    1.7767 H   0  0  0  0  0  0  0  0  0  0  0  0
    1.3588   -1.0344    0.5613 H   0  0  0  0  0  0  0  0  0  0  0  0
    2.5288   -1.6862   -0.5947 H   0  0  0  0  0  0  0  0  0  0  0  0
    2.2814    0.2712   -2.0324 H   0  0  0  0  0  0  0  0  0  0  0  0
    1.3159    1.0984   -0.8045 H   0  0  0  0  0  0  0  0  0  0  0  0
    0.4973   -1.4097   -2.3818 H   0  0  0  0  0  0  0  0  0  0  0  0
   -1.7507   -1.7609   -2.7555 H   0  0  0  0  0  0  0  0  0  0  0  0
   -2.6050   -0.2328   -3.0027 H   0  0  0  0  0  0  0  0  0  0  0  0
   -2.8076   -1.1121   -1.4902 H   0  0  0  0  0  0  0  0  0  0  0  0
   -2.3479    1.4303   -1.1798 H   0  0  0  0  0  0  0  0  0  0  0  0
   -0.6647    1.9643   -1.1246 H   0  0  0  0  0  0  0  0  0  0  0  0
   -1.6365    1.8221    1.1283 H   0  0  0  0  0  0  0  0  0  0  0  0
   -0.2877    0.7028    0.9458 H   0  0  0  0  0  0  0  0  0  0  0  0
   -1.6825   -1.2072    1.0591 H   0  0  0  0  0  0  0  0  0  0  0  0
   -4.6565   -1.3780    2.6500 H   0  0  0  0  0  0  0  0  0  0  0  0
   -5.0883   -1.5925    0.9586 H   0  0  0  0  0  0  0  0  0  0  0  0
   -3.6138   -2.3370    1.5929 H   0  0  0  0  0  0  0  0  0  0  0  0
   -4.9572    1.0825    2.1412 H   0  0  0  0  0  0  0  0  0  0  0  0
   -3.7313    1.9298    1.1897 H   0  0  0  0  0  0  0  0  0  0  0  0
   -4.9929    0.9983    0.3844 H   0  0  0  0  0  0  0  0  0  0  0  0
  1  2  2  0  0  0  0
  2  3  1  0  0  0  0
  3  4  1  0  0  0  0
  3  5  1  0  0  0  0
  3  6  1  0  0  0  0
  6  7  1  0  0  0  0
  7  8  1  0  0  0  0
  8  9  2  0  0  0  0
  9 10  1  0  0  0  0
  9 11  1  0  0  0  0
 11 12  1  0  0  0  0
 12 13  1  0  0  0  0
 13 14  2  0  0  0  0
 14 15  1  0  0  0  0
 14 16  1  0  0  0  0
  1 17  1  0  0  0  0
  1 18  1  0  0  0  0
  2 19  1  0  0  0  0
  4 20  1  0  0  0  0
  4 21  1  0  0  0  0
  4 22  1  0  0  0  0
  5 23  1  0  0  0  0
  6 24  1  0  0  0  0
  6 25  1  0  0  0  0
  7 26  1  0  0  0  0
  7 27  1  0  0  0  0
  8 28  1  0  0  0  0
 10 29  1  0  0  0  0
 10 30  1  0  0  0  0
 10 31  1  0  0  0  0
 11 32  1  0  0  0  0
 11 33  1  0  0  0  0
 12 34  1  0  0  0  0
 12 35  1  0  0  0  0
 13 36  1  0  0  0  0
 15 37  1  0  0  0  0
 15 38  1  0  0  0  0
 15 39  1  0  0  0  0
 16 40  1  0  0  0  0
 16 41  1  0  0  0  0
 16 42  1  0  0  0  0
M  END
