 xtb: 6.7.1 (edcfbbe)
          07072613403D

 31 32  0     0  0            999 V2000
    3.7396    0.3454   -0.7545 C   0  0  0  0  0  0  0  0  0  0  0  0
    3.3627   -0.1619    0.6317 C   0  0  0  0  0  0  0  0  0  0  0  0
    2.1668   -1.1137    0.5905 C   0  0  0  0  0  0  0  0  0  0  0  0
    0.9715   -0.4561    0.1032 N   0  0  0  0  0  0  0  0  0  0  0  0
    0.2593    0.4627    0.8482 C   0  0  0  0  0  0  0  0  0  0  0  0
    0.4748    0.7302    2.0004 O   0  0  0  0  0  0  0  0  0  0  0  0
   -0.7714    1.0763   -0.0848 C   0  0  0  0  0  0  0  0  0  0  0  0
   -2.0580    1.5304    0.5993 C   0  0  0  0  0  0  0  0  0  0  0  0
   -2.9890    0.3641    0.9068 C   0  0  0  0  0  0  0  0  0  0  0  0
   -3.2584   -0.4325   -0.3645 C   0  0  0  0  0  0  0  0  0  0  0  0
   -1.9574   -1.0513   -0.8591 C   0  0  0  0  0  0  0  0  0  0  0  0
   -0.9050    0.0232   -1.1876 C   0  0  0  0  0  0  0  0  0  0  0  0
    0.4369   -0.6849   -1.1486 C   0  0  0  0  0  0  0  0  0  0  0  0
    0.9317   -1.3885   -1.9887 O   0  0  0  0  0  0  0  0  0  0  0  0
    3.9447   -0.4880   -1.4223 H   0  0  0  0  0  0  0  0  0  0  0  0
    2.9315    0.9327   -1.1858 H   0  0  0  0  0  0  0  0  0  0  0  0
    4.6252    0.9737   -0.6998 H   0  0  0  0  0  0  0  0  0  0  0  0
    4.2055   -0.6996    1.0689 H   0  0  0  0  0  0  0  0  0  0  0  0
    3.1225    0.6780    1.2863 H   0  0  0  0  0  0  0  0  0  0  0  0
    2.3646   -1.9485   -0.0861 H   0  0  0  0  0  0  0  0  0  0  0  0
    1.9576   -1.4895    1.5960 H   0  0  0  0  0  0  0  0  0  0  0  0
   -0.2775    1.9647   -0.5018 H   0  0  0  0  0  0  0  0  0  0  0  0
   -2.5751    2.2375   -0.0534 H   0  0  0  0  0  0  0  0  0  0  0  0
   -1.7884    2.0501    1.5207 H   0  0  0  0  0  0  0  0  0  0  0  0
   -3.9233    0.7462    1.3209 H   0  0  0  0  0  0  0  0  0  0  0  0
   -2.5303   -0.2853    1.6553 H   0  0  0  0  0  0  0  0  0  0  0  0
   -3.6754    0.2245   -1.1305 H   0  0  0  0  0  0  0  0  0  0  0  0
   -3.9819   -1.2252   -0.1676 H   0  0  0  0  0  0  0  0  0  0  0  0
   -2.1260   -1.6601   -1.7484 H   0  0  0  0  0  0  0  0  0  0  0  0
   -1.5678   -1.7085   -0.0764 H   0  0  0  0  0  0  0  0  0  0  0  0
   -1.1099    0.4540   -2.1686 H   0  0  0  0  0  0  0  0  0  0  0  0
  1  2  1  0  0  0  0
  2  3  1  0  0  0  0
  3  4  1  0  0  0  0
  4  5  1  0  0  0  0
  5  6  2  0  0  0  0
  5  7  1  0  0  0  0
  7  8  1  0  0  0  0
  8  9  1  0  0  0  0
  9 10  1  0  0  0  0
 10 11  1  0  0  0  0
  7 12  1  0  0  0  0
 11 12  1  0  0  0  0
  4 13  1  0  0  0  0
 12 13  1  0  0  0  0
 13 14  2  0  0  0  0
  1 15  1  0  0  0  0
  1 16  1  0  0  0  0
  1 17  1  0  0  0  0
  2 18  1  0  0  0  0
  2 19  1  0  0  0  0
  3 20  1  0  0  0  0
  3 21  1  0  0  0  0
  7 22  1  0  0  0  0
  8 23  1  0  0  0  0
  8 24  1  0  0  0  0
  9 25  1  0  0  0  0
  9 26  1  0  0  0  0
 10 27  1  0  0  0  0
 10 28  1  0  0  0  0
 11 29  1  0  0  0  0
 11 30  1  0  0  0  0
 12 31  1  0  0  0  0
M  END
