 xtb: 6.7.1 (edcfbbe)
          07082617373D

 14 13  0     0  0            999 V2000
   -1.6999    1.1519   -0.2702 O   0  0  0  0  0  0  0  0  0  0  0  0
   -1.4874    0.0898    0.6297 C   0  0  0  0  0  0  0  0  0  0  0  0
   -0.7786   -1.0749   -0.0104 C   0  0  0  0  0  0  0  0  0  0  0  0
    0.5117   -1.0850   -0.3163 C   0  0  0  0  0  0  0  0  0  0  0  0
    1.4577    0.0528   -0.0425 C   0  0  0  0  0  0  0  0  0  0  0  0
    1.0834    1.1785   -0.8272 O   0  0  0  0  0  0  0  0  0  0  0  0
   -0.8440    1.3504   -0.6839 H   0  0  0  0  0  0  0  0  0  0  0  0
   -0.9040    0.4420    1.4981 H   0  0  0  0  0  0  0  0  0  0  0  0
   -2.4771   -0.2115    0.9800 H   0  0  0  0  0  0  0  0  0  0  0  0
   -1.3895   -1.9275   -0.2687 H   0  0  0  0  0  0  0  0  0  0  0  0
    0.9403   -1.9427   -0.8135 H   0  0  0  0  0  0  0  0  0  0  0  0
    1.4206    0.3171    1.0260 H   0  0  0  0  0  0  0  0  0  0  0  0
    2.4833   -0.2485   -0.2896 H   0  0  0  0  0  0  0  0  0  0  0  0
    1.6834    1.9079   -0.6413 H   0  0  0  0  0  0  0  0  0  0  0  0
  1  2  1  0  0  0  0
  2  3  1  0  0  0  0
  3  4  2  0  0  0  0
  4  5  1  0  0  0  0
  5  6  1  0  0  0  0
  1  7  1  0  0  0  0
  2  8  1  0  0  0  0
  2  9  1  0  0  0  0
  3 10  1  0  0  0  0
  4 11  1  0  0  0  0
  5 12  1  0  0  0  0
  5 13  1  0  0  0  0
  6 14  1  0  0  0  0
M  END
