 xtb: 6.7.1 (edcfbbe)
          07082607113D

 29 29  0     0  0            999 V2000
   -2.1884    1.1676    0.3074 C   0  0  0  0  0  0  0  0  0  0  0  0
   -1.4174   -0.1161   -0.0290 C   0  0  0  0  0  0  0  0  0  0  0  0
   -2.0036   -0.6790   -1.3309 C   0  0  0  0  0  0  0  0  0  0  0  0
   -1.6460   -1.1330    1.0913 C   0  0  0  0  0  0  0  0  0  0  0  0
    0.0858    0.2169   -0.2348 C   0  0  0  0  0  0  0  0  0  0  0  0
    0.7477    0.8530    0.9915 C   0  0  0  0  0  0  0  0  0  0  0  0
    2.1732    1.3114    0.6706 C   0  0  0  0  0  0  0  0  0  0  0  0
    3.0054    0.1633    0.1550 C   0  0  0  0  0  0  0  0  0  0  0  0
    4.0757   -0.1403    0.6178 O   0  0  0  0  0  0  0  0  0  0  0  0
    2.3612   -0.5681   -0.9970 C   0  0  0  0  0  0  0  0  0  0  0  0
    0.9323   -0.9920   -0.6454 C   0  0  0  0  0  0  0  0  0  0  0  0
   -1.9421    1.5326    1.3004 H   0  0  0  0  0  0  0  0  0  0  0  0
   -3.2585    0.9741    0.2850 H   0  0  0  0  0  0  0  0  0  0  0  0
   -1.9707    1.9503   -0.4161 H   0  0  0  0  0  0  0  0  0  0  0  0
   -1.7727   -0.0288   -2.1719 H   0  0  0  0  0  0  0  0  0  0  0  0
   -1.6213   -1.6732   -1.5439 H   0  0  0  0  0  0  0  0  0  0  0  0
   -3.0855   -0.7542   -1.2484 H   0  0  0  0  0  0  0  0  0  0  0  0
   -1.2827   -0.7579    2.0442 H   0  0  0  0  0  0  0  0  0  0  0  0
   -1.1508   -2.0756    0.8751 H   0  0  0  0  0  0  0  0  0  0  0  0
   -2.7112   -1.3296    1.1928 H   0  0  0  0  0  0  0  0  0  0  0  0
    0.1286    0.9472   -1.0531 H   0  0  0  0  0  0  0  0  0  0  0  0
    0.1810    1.7182    1.3342 H   0  0  0  0  0  0  0  0  0  0  0  0
    0.7885    0.1287    1.8067 H   0  0  0  0  0  0  0  0  0  0  0  0
    2.6490    1.7353    1.5565 H   0  0  0  0  0  0  0  0  0  0  0  0
    2.1418    2.0811   -0.1052 H   0  0  0  0  0  0  0  0  0  0  0  0
    2.3393    0.1074   -1.8562 H   0  0  0  0  0  0  0  0  0  0  0  0
    2.9665   -1.4377   -1.2585 H   0  0  0  0  0  0  0  0  0  0  0  0
    0.9725   -1.7106    0.1749 H   0  0  0  0  0  0  0  0  0  0  0  0
    0.5022   -1.4911   -1.5131 H   0  0  0  0  0  0  0  0  0  0  0  0
  1  2  1  0  0  0  0
  2  3  1  0  0  0  0
  2  4  1  0  0  0  0
  2  5  1  0  0  0  0
  5  6  1  0  0  0  0
  6  7  1  0  0  0  0
  7  8  1  0  0  0  0
  8  9  2  0  0  0  0
  8 10  1  0  0  0  0
  5 11  1  0  0  0  0
 10 11  1  0  0  0  0
  1 12  1  0  0  0  0
  1 13  1  0  0  0  0
  1 14  1  0  0  0  0
  3 15  1  0  0  0  0
  3 16  1  0  0  0  0
  3 17  1  0  0  0  0
  4 18  1  0  0  0  0
  4 19  1  0  0  0  0
  4 20  1  0  0  0  0
  5 21  1  0  0  0  0
  6 22  1  0  0  0  0
  6 23  1  0  0  0  0
  7 24  1  0  0  0  0
  7 25  1  0  0  0  0
 10 26  1  0  0  0  0
 10 27  1  0  0  0  0
 11 28  1  0  0  0  0
 11 29  1  0  0  0  0
M  END
