 xtb: 6.7.1 (edcfbbe)
          07092602423D

 30 29  0     0  0            999 V2000
   -5.0504   -0.2789    0.2237 C   0  0  0  0  0  0  0  0  0  0  0  0
   -3.7985    0.5351   -0.0784 C   0  0  0  0  0  0  0  0  0  0  0  0
   -2.5286   -0.2893    0.1135 C   0  0  0  0  0  0  0  0  0  0  0  0
   -1.2657    0.5248   -0.1575 C   0  0  0  0  0  0  0  0  0  0  0  0
    0.0014   -0.3365   -0.0646 C   0  0  0  0  0  0  0  0  0  0  0  0
   -0.0273   -1.3917   -1.0009 O   0  0  0  0  0  0  0  0  0  0  0  0
    1.2626    0.5222   -0.2319 C   0  0  0  0  0  0  0  0  0  0  0  0
    2.5376   -0.2946   -0.0356 C   0  0  0  0  0  0  0  0  0  0  0  0
    3.7957    0.5272   -0.3018 C   0  0  0  0  0  0  0  0  0  0  0  0
    5.0615   -0.2895   -0.0737 C   0  0  0  0  0  0  0  0  0  0  0  0
   -5.0403   -0.6241    1.2551 H   0  0  0  0  0  0  0  0  0  0  0  0
   -5.1048   -1.1491   -0.4264 H   0  0  0  0  0  0  0  0  0  0  0  0
   -5.9448    0.3208    0.0713 H   0  0  0  0  0  0  0  0  0  0  0  0
   -3.7650    1.4076    0.5785 H   0  0  0  0  0  0  0  0  0  0  0  0
   -3.8425    0.8990   -1.1078 H   0  0  0  0  0  0  0  0  0  0  0  0
   -2.4945   -0.6692    1.1369 H   0  0  0  0  0  0  0  0  0  0  0  0
   -2.5458   -1.1517   -0.5561 H   0  0  0  0  0  0  0  0  0  0  0  0
   -1.1928    1.3432    0.5609 H   0  0  0  0  0  0  0  0  0  0  0  0
   -1.3224    0.9635   -1.1586 H   0  0  0  0  0  0  0  0  0  0  0  0
    0.0295   -0.8375    0.9092 H   0  0  0  0  0  0  0  0  0  0  0  0
   -0.0529   -1.0061   -1.8848 H   0  0  0  0  0  0  0  0  0  0  0  0
    1.2613    0.9608   -1.2346 H   0  0  0  0  0  0  0  0  0  0  0  0
    1.2338    1.3406    0.4895 H   0  0  0  0  0  0  0  0  0  0  0  0
    2.5136   -1.1570   -0.7049 H   0  0  0  0  0  0  0  0  0  0  0  0
    2.5629   -0.6744    0.9882 H   0  0  0  0  0  0  0  0  0  0  0  0
    3.7798    0.8911   -1.3320 H   0  0  0  0  0  0  0  0  0  0  0  0
    3.8027    1.3997    0.3559 H   0  0  0  0  0  0  0  0  0  0  0  0
    5.1113   -0.6347    0.9565 H   0  0  0  0  0  0  0  0  0  0  0  0
    5.9466    0.3084   -0.2785 H   0  0  0  0  0  0  0  0  0  0  0  0
    5.0758   -1.1598   -0.7258 H   0  0  0  0  0  0  0  0  0  0  0  0
  1  2  1  0  0  0  0
  2  3  1  0  0  0  0
  3  4  1  0  0  0  0
  4  5  1  0  0  0  0
  5  6  1  0  0  0  0
  5  7  1  0  0  0  0
  7  8  1  0  0  0  0
  8  9  1  0  0  0  0
  9 10  1  0  0  0  0
  1 11  1  0  0  0  0
  1 12  1  0  0  0  0
  1 13  1  0  0  0  0
  2 14  1  0  0  0  0
  2 15  1  0  0  0  0
  3 16  1  0  0  0  0
  3 17  1  0  0  0  0
  4 18  1  0  0  0  0
  4 19  1  0  0  0  0
  5 20  1  0  0  0  0
  6 21  1  0  0  0  0
  7 22  1  0  0  0  0
  7 23  1  0  0  0  0
  8 24  1  0  0  0  0
  8 25  1  0  0  0  0
  9 26  1  0  0  0  0
  9 27  1  0  0  0  0
 10 28  1  0  0  0  0
 10 29  1  0  0  0  0
 10 30  1  0  0  0  0
M  END
