 xtb: 6.7.1 (edcfbbe)
          07082607353D

 29 28  0     0  0            999 V2000
   -3.1268   -0.8467   -0.0387 C   0  0  0  0  0  0  0  0  0  0  0  0
   -2.8557    0.4043    0.7432 C   0  0  0  0  0  0  0  0  0  0  0  0
   -4.0760    1.2428    0.9903 C   0  0  0  0  0  0  0  0  0  0  0  0
   -1.6601    0.7778    1.1840 C   0  0  0  0  0  0  0  0  0  0  0  0
   -0.3614    0.0598    0.9801 C   0  0  0  0  0  0  0  0  0  0  0  0
    0.3176    0.5228   -0.3235 C   0  0  0  0  0  0  0  0  0  0  0  0
    1.6204   -0.1904   -0.5376 C   0  0  0  0  0  0  0  0  0  0  0  0
    1.5390   -1.6356   -0.9352 C   0  0  0  0  0  0  0  0  0  0  0  0
    2.7868    0.4162   -0.3483 C   0  0  0  0  0  0  0  0  0  0  0  0
    4.1276   -0.2392   -0.5113 C   0  0  0  0  0  0  0  0  0  0  0  0
    5.2077    0.6475   -0.3374 O   0  0  0  0  0  0  0  0  0  0  0  0
   -3.3366   -0.5940   -1.0787 H   0  0  0  0  0  0  0  0  0  0  0  0
   -4.0039   -1.3551    0.3597 H   0  0  0  0  0  0  0  0  0  0  0  0
   -2.2875   -1.5345   -0.0184 H   0  0  0  0  0  0  0  0  0  0  0  0
   -4.7999    0.6893    1.5885 H   0  0  0  0  0  0  0  0  0  0  0  0
   -3.8254    2.1620    1.5132 H   0  0  0  0  0  0  0  0  0  0  0  0
   -4.5556    1.4976    0.0454 H   0  0  0  0  0  0  0  0  0  0  0  0
   -1.5788    1.7176    1.7153 H   0  0  0  0  0  0  0  0  0  0  0  0
   -0.5123   -1.0196    0.9426 H   0  0  0  0  0  0  0  0  0  0  0  0
    0.3090    0.2737    1.8149 H   0  0  0  0  0  0  0  0  0  0  0  0
   -0.3573    0.3224   -1.1591 H   0  0  0  0  0  0  0  0  0  0  0  0
    0.4821    1.6004   -0.2708 H   0  0  0  0  0  0  0  0  0  0  0  0
    2.1587   -1.8281   -1.8104 H   0  0  0  0  0  0  0  0  0  0  0  0
    0.5161   -1.9196   -1.1669 H   0  0  0  0  0  0  0  0  0  0  0  0
    1.9051   -2.2746   -0.1318 H   0  0  0  0  0  0  0  0  0  0  0  0
    2.8191    1.4542   -0.0457 H   0  0  0  0  0  0  0  0  0  0  0  0
    4.2667   -1.0180    0.2467 H   0  0  0  0  0  0  0  0  0  0  0  0
    4.1898   -0.7266   -1.4998 H   0  0  0  0  0  0  0  0  0  0  0  0
    5.0914    1.3936   -0.9361 H   0  0  0  0  0  0  0  0  0  0  0  0
  1  2  1  0  0  0  0
  2  3  1  0  0  0  0
  2  4  2  0  0  0  0
  4  5  1  0  0  0  0
  5  6  1  0  0  0  0
  6  7  1  0  0  0  0
  7  8  1  0  0  0  0
  7  9  2  0  0  0  0
  9 10  1  0  0  0  0
 10 11  1  0  0  0  0
  1 12  1  0  0  0  0
  1 13  1  0  0  0  0
  1 14  1  0  0  0  0
  3 15  1  0  0  0  0
  3 16  1  0  0  0  0
  3 17  1  0  0  0  0
  4 18  1  0  0  0  0
  5 19  1  0  0  0  0
  5 20  1  0  0  0  0
  6 21  1  0  0  0  0
  6 22  1  0  0  0  0
  8 23  1  0  0  0  0
  8 24  1  0  0  0  0
  8 25  1  0  0  0  0
  9 26  1  0  0  0  0
 10 27  1  0  0  0  0
 10 28  1  0  0  0  0
 11 29  1  0  0  0  0
M  END
