 xtb: 6.7.1 (edcfbbe)
          07082617443D

 13 13  0     0  0            999 V2000
   -1.2394   -0.5365   -0.3581 C   0  0  0  0  0  0  0  0  0  0  0  0
    0.0692    0.2434   -0.3623 C   0  0  0  0  0  0  0  0  0  0  0  0
    1.2512   -0.6192    0.0615 C   0  0  0  0  0  0  0  0  0  0  0  0
   -0.0580    1.3572    0.6137 N   0  0  0  0  0  0  0  0  0  0  0  0
    0.0503    2.4811    0.1871 O   0  0  0  0  0  0  0  0  0  0  0  0
   -0.2628    1.0633    1.7653 O   0  0  0  0  0  0  0  0  0  0  0  0
   -1.4431   -0.9091    0.6435 H   0  0  0  0  0  0  0  0  0  0  0  0
   -2.0674    0.0949   -0.6734 H   0  0  0  0  0  0  0  0  0  0  0  0
   -1.1690   -1.3801   -1.0391 H   0  0  0  0  0  0  0  0  0  0  0  0
    0.2487    0.7080   -1.3361 H   0  0  0  0  0  0  0  0  0  0  0  0
    1.0914   -0.9932    1.0705 H   0  0  0  0  0  0  0  0  0  0  0  0
    1.3533   -1.4638   -0.6142 H   0  0  0  0  0  0  0  0  0  0  0  0
    2.1757   -0.0460    0.0415 H   0  0  0  0  0  0  0  0  0  0  0  0
  1  2  1  0  0  0  0
  2  3  1  0  0  0  0
  2  4  1  0  0  0  0
  4  5  4  0  0  0  0
  4  6  4  0  0  0  0
  5  6  1  0  0  0  0
  1  7  1  0  0  0  0
  1  8  1  0  0  0  0
  1  9  1  0  0  0  0
  2 10  1  0  0  0  0
  3 11  1  0  0  0  0
  3 12  1  0  0  0  0
  3 13  1  0  0  0  0
M  END
