 xtb: 6.7.1 (edcfbbe)
          07092603403D

 23 22  0     0  0            999 V2000
   -2.7667    1.2007    1.6455 O   0  0  0  0  0  0  0  0  0  0  0  0
   -3.3086   -0.0219    1.2261 C   0  0  0  0  0  0  0  0  0  0  0  0
   -2.6601   -0.4985   -0.0731 C   0  0  0  0  0  0  0  0  0  0  0  0
   -1.2904   -0.7021    0.2038 O   0  0  0  0  0  0  0  0  0  0  0  0
   -0.5265   -1.0288   -0.9295 C   0  0  0  0  0  0  0  0  0  0  0  0
    0.9413   -1.0876   -0.5273 C   0  0  0  0  0  0  0  0  0  0  0  0
    1.4405    0.2254   -0.4558 O   0  0  0  0  0  0  0  0  0  0  0  0
    2.7683    0.2945   -0.0036 C   0  0  0  0  0  0  0  0  0  0  0  0
    3.2305    1.7397   -0.0707 C   0  0  0  0  0  0  0  0  0  0  0  0
    3.4856    2.2397   -1.7579 Cl  0  0  0  0  0  0  0  0  0  0  0  0
   -1.8062    1.1144    1.5875 H   0  0  0  0  0  0  0  0  0  0  0  0
   -4.3785    0.1384    1.0779 H   0  0  0  0  0  0  0  0  0  0  0  0
   -3.1624   -0.7931    1.9961 H   0  0  0  0  0  0  0  0  0  0  0  0
   -3.1289   -1.4315   -0.4196 H   0  0  0  0  0  0  0  0  0  0  0  0
   -2.7785    0.2669   -0.8540 H   0  0  0  0  0  0  0  0  0  0  0  0
   -0.6509   -0.2655   -1.7103 H   0  0  0  0  0  0  0  0  0  0  0  0
   -0.8428   -2.0034   -1.3323 H   0  0  0  0  0  0  0  0  0  0  0  0
    1.5084   -1.6694   -1.2703 H   0  0  0  0  0  0  0  0  0  0  0  0
    1.0261   -1.5841    0.4502 H   0  0  0  0  0  0  0  0  0  0  0  0
    2.8351   -0.0542    1.0411 H   0  0  0  0  0  0  0  0  0  0  0  0
    3.4203   -0.3437   -0.6199 H   0  0  0  0  0  0  0  0  0  0  0  0
    4.1778    1.8691    0.4507 H   0  0  0  0  0  0  0  0  0  0  0  0
    2.4668    2.3950    0.3456 H   0  0  0  0  0  0  0  0  0  0  0  0
  1  2  1  0  0  0  0
  2  3  1  0  0  0  0
  3  4  1  0  0  0  0
  4  5  1  0  0  0  0
  5  6  1  0  0  0  0
  6  7  1  0  0  0  0
  7  8  1  0  0  0  0
  8  9  1  0  0  0  0
  9 10  1  0  0  0  0
  1 11  1  0  0  0  0
  2 12  1  0  0  0  0
  2 13  1  0  0  0  0
  3 14  1  0  0  0  0
  3 15  1  0  0  0  0
  5 16  1  0  0  0  0
  5 17  1  0  0  0  0
  6 18  1  0  0  0  0
  6 19  1  0  0  0  0
  8 20  1  0  0  0  0
  8 21  1  0  0  0  0
  9 22  1  0  0  0  0
  9 23  1  0  0  0  0
M  END
