 xtb: 6.7.1 (edcfbbe)
          07072612283D

 27 27  0     0  0            999 V2000
   -3.5407   -0.8363   -0.9043 C   0  0  0  0  0  0  0  0  0  0  0  0
   -2.7834    0.4192   -0.4899 C   0  0  0  0  0  0  0  0  0  0  0  0
   -1.4600    0.0825    0.1928 C   0  0  0  0  0  0  0  0  0  0  0  0
   -0.6964    1.3402    0.6002 C   0  0  0  0  0  0  0  0  0  0  0  0
    0.5903    1.0215    1.3614 C   0  0  0  0  0  0  0  0  0  0  0  0
    1.5282    0.2780    0.5444 N   0  0  0  0  0  0  0  0  0  0  0  0
    1.7492   -1.0731    0.6984 C   0  0  0  0  0  0  0  0  0  0  0  0
    1.2201   -1.7632    1.5285 O   0  0  0  0  0  0  0  0  0  0  0  0
    2.7660   -1.4963   -0.3433 C   0  0  0  0  0  0  0  0  0  0  0  0
    3.1171   -0.2199   -1.0979 C   0  0  0  0  0  0  0  0  0  0  0  0
    2.2715    0.8632   -0.4566 C   0  0  0  0  0  0  0  0  0  0  0  0
    2.2392    2.0312   -0.7395 O   0  0  0  0  0  0  0  0  0  0  0  0
   -4.4822   -0.5757   -1.3820 H   0  0  0  0  0  0  0  0  0  0  0  0
   -3.7552   -1.4554   -0.0361 H   0  0  0  0  0  0  0  0  0  0  0  0
   -2.9516   -1.4243   -1.6049 H   0  0  0  0  0  0  0  0  0  0  0  0
   -3.4013    1.0065    0.1930 H   0  0  0  0  0  0  0  0  0  0  0  0
   -2.5883    1.0347   -1.3711 H   0  0  0  0  0  0  0  0  0  0  0  0
   -1.6520   -0.5272    1.0784 H   0  0  0  0  0  0  0  0  0  0  0  0
   -0.8492   -0.5147   -0.4889 H   0  0  0  0  0  0  0  0  0  0  0  0
   -0.4465    1.9280   -0.2853 H   0  0  0  0  0  0  0  0  0  0  0  0
   -1.3254    1.9562    1.2453 H   0  0  0  0  0  0  0  0  0  0  0  0
    0.3766    0.4029    2.2363 H   0  0  0  0  0  0  0  0  0  0  0  0
    1.0776    1.9501    1.6704 H   0  0  0  0  0  0  0  0  0  0  0  0
    3.6224   -1.9476    0.1580 H   0  0  0  0  0  0  0  0  0  0  0  0
    2.3222   -2.2616   -0.9808 H   0  0  0  0  0  0  0  0  0  0  0  0
    4.1689    0.0531   -1.0093 H   0  0  0  0  0  0  0  0  0  0  0  0
    2.8829   -0.2719   -2.1615 H   0  0  0  0  0  0  0  0  0  0  0  0
  1  2  1  0  0  0  0
  2  3  1  0  0  0  0
  3  4  1  0  0  0  0
  4  5  1  0  0  0  0
  5  6  1  0  0  0  0
  6  7  1  0  0  0  0
  7  8  2  0  0  0  0
  7  9  1  0  0  0  0
  9 10  1  0  0  0  0
  6 11  1  0  0  0  0
 10 11  1  0  0  0  0
 11 12  2  0  0  0  0
  1 13  1  0  0  0  0
  1 14  1  0  0  0  0
  1 15  1  0  0  0  0
  2 16  1  0  0  0  0
  2 17  1  0  0  0  0
  3 18  1  0  0  0  0
  3 19  1  0  0  0  0
  4 20  1  0  0  0  0
  4 21  1  0  0  0  0
  5 22  1  0  0  0  0
  5 23  1  0  0  0  0
  9 24  1  0  0  0  0
  9 25  1  0  0  0  0
 10 26  1  0  0  0  0
 10 27  1  0  0  0  0
M  END
