 xtb: 6.7.1 (edcfbbe)
          07082601393D

 37 37  0     0  0            999 V2000
    5.1889    1.5143    0.2536 C   0  0  0  0  0  0  0  0  0  0  0  0
    3.7819    1.2051    0.7497 C   0  0  0  0  0  0  0  0  0  0  0  0
    2.9360    0.5290   -0.3266 C   0  0  0  0  0  0  0  0  0  0  0  0
    1.5275    0.2167    0.1691 C   0  0  0  0  0  0  0  0  0  0  0  0
    0.6928   -0.4747   -0.9094 C   0  0  0  0  0  0  0  0  0  0  0  0
   -0.6446   -0.7884   -0.4354 N   0  0  0  0  0  0  0  0  0  0  0  0
   -0.9356   -2.0606   -0.0492 C   0  0  0  0  0  0  0  0  0  0  0  0
   -0.1052   -2.9451   -0.0888 O   0  0  0  0  0  0  0  0  0  0  0  0
   -2.3726   -2.2932    0.3919 C   0  0  0  0  0  0  0  0  0  0  0  0
   -2.7225   -3.7751    0.3403 C   0  0  0  0  0  0  0  0  0  0  0  0
   -1.5413    0.3016   -0.3118 C   0  0  0  0  0  0  0  0  0  0  0  0
   -1.8839    0.7972    0.9416 C   0  0  0  0  0  0  0  0  0  0  0  0
   -2.7399    1.8782    1.0492 C   0  0  0  0  0  0  0  0  0  0  0  0
   -3.2529    2.4766   -0.0894 C   0  0  0  0  0  0  0  0  0  0  0  0
   -2.9060    1.9915   -1.3392 C   0  0  0  0  0  0  0  0  0  0  0  0
   -2.0525    0.9090   -1.4531 C   0  0  0  0  0  0  0  0  0  0  0  0
    5.1530    2.1806   -0.6057 H   0  0  0  0  0  0  0  0  0  0  0  0
    5.6969    0.5998   -0.0442 H   0  0  0  0  0  0  0  0  0  0  0  0
    5.7741    1.9933    1.0351 H   0  0  0  0  0  0  0  0  0  0  0  0
    3.8409    0.5516    1.6228 H   0  0  0  0  0  0  0  0  0  0  0  0
    3.2948    2.1319    1.0622 H   0  0  0  0  0  0  0  0  0  0  0  0
    3.4215   -0.3987   -0.6370 H   0  0  0  0  0  0  0  0  0  0  0  0
    2.8759    1.1814   -1.2014 H   0  0  0  0  0  0  0  0  0  0  0  0
    1.0304    1.1425    0.4719 H   0  0  0  0  0  0  0  0  0  0  0  0
    1.5835   -0.4384    1.0409 H   0  0  0  0  0  0  0  0  0  0  0  0
    1.1593   -1.4217   -1.1904 H   0  0  0  0  0  0  0  0  0  0  0  0
    0.6151    0.1674   -1.7918 H   0  0  0  0  0  0  0  0  0  0  0  0
   -3.0473   -1.7129   -0.2409 H   0  0  0  0  0  0  0  0  0  0  0  0
   -2.4786   -1.9272    1.4160 H   0  0  0  0  0  0  0  0  0  0  0  0
   -3.7203   -3.9451    0.7375 H   0  0  0  0  0  0  0  0  0  0  0  0
   -2.6849   -4.1365   -0.6842 H   0  0  0  0  0  0  0  0  0  0  0  0
   -2.0041   -4.3445    0.9238 H   0  0  0  0  0  0  0  0  0  0  0  0
   -1.4700    0.3354    1.8257 H   0  0  0  0  0  0  0  0  0  0  0  0
   -3.0020    2.2590    2.0252 H   0  0  0  0  0  0  0  0  0  0  0  0
   -3.9198    3.3210   -0.0030 H   0  0  0  0  0  0  0  0  0  0  0  0
   -3.3037    2.4561   -2.2293 H   0  0  0  0  0  0  0  0  0  0  0  0
   -1.7850    0.5229   -2.4257 H   0  0  0  0  0  0  0  0  0  0  0  0
  1  2  1  0  0  0  0
  2  3  1  0  0  0  0
  3  4  1  0  0  0  0
  4  5  1  0  0  0  0
  5  6  1  0  0  0  0
  6  7  4  0  0  0  0
  7  8  2  0  0  0  0
  7  9  1  0  0  0  0
  9 10  1  0  0  0  0
  6 11  1  0  0  0  0
 11 12  4  0  0  0  0
 12 13  4  0  0  0  0
 13 14  4  0  0  0  0
 14 15  4  0  0  0  0
 11 16  4  0  0  0  0
 15 16  4  0  0  0  0
  1 17  1  0  0  0  0
  1 18  1  0  0  0  0
  1 19  1  0  0  0  0
  2 20  1  0  0  0  0
  2 21  1  0  0  0  0
  3 22  1  0  0  0  0
  3 23  1  0  0  0  0
  4 24  1  0  0  0  0
  4 25  1  0  0  0  0
  5 26  1  0  0  0  0
  5 27  1  0  0  0  0
  9 28  1  0  0  0  0
  9 29  1  0  0  0  0
 10 30  1  0  0  0  0
 10 31  1  0  0  0  0
 10 32  1  0  0  0  0
 12 33  1  0  0  0  0
 13 34  1  0  0  0  0
 14 35  1  0  0  0  0
 15 36  1  0  0  0  0
 16 37  1  0  0  0  0
M  END
