 xtb: 6.7.1 (edcfbbe)
          07092601303D

 26 25  0     0  0            999 V2000
   -3.9465   -1.3299    0.0267 C   0  0  0  0  0  0  0  0  0  0  0  0
   -2.6888   -0.5028   -0.2073 C   0  0  0  0  0  0  0  0  0  0  0  0
   -2.4029    0.4318    0.9659 C   0  0  0  0  0  0  0  0  0  0  0  0
   -1.1598    1.2898    0.7191 C   0  0  0  0  0  0  0  0  0  0  0  0
    0.0821    0.4281    0.6829 C   0  0  0  0  0  0  0  0  0  0  0  0
    0.4137   -0.3407    1.5465 O   0  0  0  0  0  0  0  0  0  0  0  0
    0.7682    0.6243   -0.4485 O   0  0  0  0  0  0  0  0  0  0  0  0
    1.9800   -0.1112   -0.6160 C   0  0  0  0  0  0  0  0  0  0  0  0
    3.1612    0.6002    0.0387 C   0  0  0  0  0  0  0  0  0  0  0  0
    4.4629   -0.1462   -0.2186 C   0  0  0  0  0  0  0  0  0  0  0  0
   -4.8111   -0.6819    0.1543 H   0  0  0  0  0  0  0  0  0  0  0  0
   -3.8398   -1.9388    0.9215 H   0  0  0  0  0  0  0  0  0  0  0  0
   -4.1335   -1.9895   -0.8174 H   0  0  0  0  0  0  0  0  0  0  0  0
   -2.8048    0.0867   -1.1201 H   0  0  0  0  0  0  0  0  0  0  0  0
   -1.8365   -1.1708   -0.3496 H   0  0  0  0  0  0  0  0  0  0  0  0
   -2.2455   -0.1581    1.8707 H   0  0  0  0  0  0  0  0  0  0  0  0
   -3.2623    1.0853    1.1290 H   0  0  0  0  0  0  0  0  0  0  0  0
   -1.0414    2.0031    1.5377 H   0  0  0  0  0  0  0  0  0  0  0  0
   -1.2394    1.8358   -0.2208 H   0  0  0  0  0  0  0  0  0  0  0  0
    1.8546   -1.1085   -0.1810 H   0  0  0  0  0  0  0  0  0  0  0  0
    2.1230   -0.1921   -1.6959 H   0  0  0  0  0  0  0  0  0  0  0  0
    2.9765    0.6657    1.1126 H   0  0  0  0  0  0  0  0  0  0  0  0
    3.2253    1.6155   -0.3587 H   0  0  0  0  0  0  0  0  0  0  0  0
    4.4093   -1.1545    0.1846 H   0  0  0  0  0  0  0  0  0  0  0  0
    4.6628   -0.2119   -1.2858 H   0  0  0  0  0  0  0  0  0  0  0  0
    5.2927    0.3705    0.2563 H   0  0  0  0  0  0  0  0  0  0  0  0
  1  2  1  0  0  0  0
  2  3  1  0  0  0  0
  3  4  1  0  0  0  0
  4  5  1  0  0  0  0
  5  6  2  0  0  0  0
  5  7  1  0  0  0  0
  7  8  1  0  0  0  0
  8  9  1  0  0  0  0
  9 10  1  0  0  0  0
  1 11  1  0  0  0  0
  1 12  1  0  0  0  0
  1 13  1  0  0  0  0
  2 14  1  0  0  0  0
  2 15  1  0  0  0  0
  3 16  1  0  0  0  0
  3 17  1  0  0  0  0
  4 18  1  0  0  0  0
  4 19  1  0  0  0  0
  8 20  1  0  0  0  0
  8 21  1  0  0  0  0
  9 22  1  0  0  0  0
  9 23  1  0  0  0  0
 10 24  1  0  0  0  0
 10 25  1  0  0  0  0
 10 26  1  0  0  0  0
M  END
