 xtb: 6.7.1 (edcfbbe)
          07092600173D

 20 20  0     0  0            999 V2000
    2.6181    0.0003    0.6164 C   0  0  0  0  0  0  0  0  0  0  0  0
    1.8843   -1.1219   -0.0684 C   0  0  0  0  0  0  0  0  0  0  0  0
    1.9878   -2.2758    0.2565 O   0  0  0  0  0  0  0  0  0  0  0  0
    0.9623   -0.6716   -1.1906 C   0  0  0  0  0  0  0  0  0  0  0  0
   -0.2976   -0.1361   -0.5601 C   0  0  0  0  0  0  0  0  0  0  0  0
   -1.1914   -1.0116    0.0450 C   0  0  0  0  0  0  0  0  0  0  0  0
   -2.3386   -0.5337    0.6513 C   0  0  0  0  0  0  0  0  0  0  0  0
   -2.6053    0.8255    0.6610 C   0  0  0  0  0  0  0  0  0  0  0  0
   -1.7182    1.7035    0.0631 C   0  0  0  0  0  0  0  0  0  0  0  0
   -0.5677    1.2256   -0.5407 C   0  0  0  0  0  0  0  0  0  0  0  0
    3.3609    0.4104   -0.0659 H   0  0  0  0  0  0  0  0  0  0  0  0
    1.9210    0.7932    0.8776 H   0  0  0  0  0  0  0  0  0  0  0  0
    3.1189   -0.3645    1.5092 H   0  0  0  0  0  0  0  0  0  0  0  0
    0.7275   -1.5324   -1.8187 H   0  0  0  0  0  0  0  0  0  0  0  0
    1.4454    0.1017   -1.7875 H   0  0  0  0  0  0  0  0  0  0  0  0
   -0.9781   -2.0705    0.0420 H   0  0  0  0  0  0  0  0  0  0  0  0
   -3.0263   -1.2231    1.1183 H   0  0  0  0  0  0  0  0  0  0  0  0
   -3.5016    1.1990    1.1334 H   0  0  0  0  0  0  0  0  0  0  0  0
   -1.9208    2.7646    0.0663 H   0  0  0  0  0  0  0  0  0  0  0  0
    0.1193    1.9175   -1.0082 H   0  0  0  0  0  0  0  0  0  0  0  0
  1  2  1  0  0  0  0
  2  3  2  0  0  0  0
  2  4  1  0  0  0  0
  4  5  1  0  0  0  0
  5  6  4  0  0  0  0
  6  7  4  0  0  0  0
  7  8  4  0  0  0  0
  8  9  4  0  0  0  0
  5 10  4  0  0  0  0
  9 10  4  0  0  0  0
  1 11  1  0  0  0  0
  1 12  1  0  0  0  0
  1 13  1  0  0  0  0
  4 14  1  0  0  0  0
  4 15  1  0  0  0  0
  6 16  1  0  0  0  0
  7 17  1  0  0  0  0
  8 18  1  0  0  0  0
  9 19  1  0  0  0  0
 10 20  1  0  0  0  0
M  END
