 xtb: 6.7.1 (edcfbbe)
          07082611363D

 31 30  0     0  0            999 V2000
   -5.3715    0.3456    0.4045 C   0  0  0  0  0  0  0  0  0  0  0  0
   -4.1749   -0.0844   -0.4350 C   0  0  0  0  0  0  0  0  0  0  0  0
   -2.8528    0.2002    0.2736 C   0  0  0  0  0  0  0  0  0  0  0  0
   -1.6478   -0.2351   -0.5565 C   0  0  0  0  0  0  0  0  0  0  0  0
   -0.3285    0.0414    0.1605 C   0  0  0  0  0  0  0  0  0  0  0  0
    0.8768   -0.4138   -0.6584 C   0  0  0  0  0  0  0  0  0  0  0  0
    2.1945   -0.1450    0.0640 C   0  0  0  0  0  0  0  0  0  0  0  0
    3.3984   -0.6202   -0.7470 C   0  0  0  0  0  0  0  0  0  0  0  0
    4.7119   -0.3421   -0.0160 C   0  0  0  0  0  0  0  0  0  0  0  0
    4.9638    1.1283    0.1359 C   0  0  0  0  0  0  0  0  0  0  0  0
    5.3613    1.6719    1.1268 O   0  0  0  0  0  0  0  0  0  0  0  0
   -6.3023    0.1340   -0.1167 H   0  0  0  0  0  0  0  0  0  0  0  0
   -5.3814   -0.1854    1.3540 H   0  0  0  0  0  0  0  0  0  0  0  0
   -5.3286    1.4129    0.6111 H   0  0  0  0  0  0  0  0  0  0  0  0
   -4.2466   -1.1536   -0.6479 H   0  0  0  0  0  0  0  0  0  0  0  0
   -4.1930    0.4443   -1.3909 H   0  0  0  0  0  0  0  0  0  0  0  0
   -2.7794    1.2699    0.4832 H   0  0  0  0  0  0  0  0  0  0  0  0
   -2.8384   -0.3249    1.2317 H   0  0  0  0  0  0  0  0  0  0  0  0
   -1.7247   -1.3039   -0.7706 H   0  0  0  0  0  0  0  0  0  0  0  0
   -1.6575    0.2935   -1.5128 H   0  0  0  0  0  0  0  0  0  0  0  0
   -0.3262   -0.4765    1.1225 H   0  0  0  0  0  0  0  0  0  0  0  0
   -0.2441    1.1116    0.3629 H   0  0  0  0  0  0  0  0  0  0  0  0
    0.7901   -1.4837   -0.8632 H   0  0  0  0  0  0  0  0  0  0  0  0
    0.8777    0.1062   -1.6194 H   0  0  0  0  0  0  0  0  0  0  0  0
    2.2911    0.9258    0.2601 H   0  0  0  0  0  0  0  0  0  0  0  0
    2.1871   -0.6551    1.0299 H   0  0  0  0  0  0  0  0  0  0  0  0
    3.3103   -1.6924   -0.9332 H   0  0  0  0  0  0  0  0  0  0  0  0
    3.4081   -0.1144   -1.7156 H   0  0  0  0  0  0  0  0  0  0  0  0
    5.5454   -0.7443   -0.6003 H   0  0  0  0  0  0  0  0  0  0  0  0
    4.7224   -0.8172    0.9663 H   0  0  0  0  0  0  0  0  0  0  0  0
    4.7587    1.7064   -0.7891 H   0  0  0  0  0  0  0  0  0  0  0  0
  1  2  1  0  0  0  0
  2  3  1  0  0  0  0
  3  4  1  0  0  0  0
  4  5  1  0  0  0  0
  5  6  1  0  0  0  0
  6  7  1  0  0  0  0
  7  8  1  0  0  0  0
  8  9  1  0  0  0  0
  9 10  1  0  0  0  0
 10 11  2  0  0  0  0
  1 12  1  0  0  0  0
  1 13  1  0  0  0  0
  1 14  1  0  0  0  0
  2 15  1  0  0  0  0
  2 16  1  0  0  0  0
  3 17  1  0  0  0  0
  3 18  1  0  0  0  0
  4 19  1  0  0  0  0
  4 20  1  0  0  0  0
  5 21  1  0  0  0  0
  5 22  1  0  0  0  0
  6 23  1  0  0  0  0
  6 24  1  0  0  0  0
  7 25  1  0  0  0  0
  7 26  1  0  0  0  0
  8 27  1  0  0  0  0
  8 28  1  0  0  0  0
  9 29  1  0  0  0  0
  9 30  1  0  0  0  0
 10 31  1  0  0  0  0
M  END
