 xtb: 6.7.1 (edcfbbe)
          07092618343D

 25 25  0     0  0            999 V2000
    4.4973   -0.4149    0.4622 C   0  0  0  0  0  0  0  0  0  0  0  0
    3.2141    0.2761    0.0185 C   0  0  0  0  0  0  0  0  0  0  0  0
    1.9777   -0.5181    0.4301 C   0  0  0  0  0  0  0  0  0  0  0  0
    0.6929    0.1723   -0.0133 C   0  0  0  0  0  0  0  0  0  0  0  0
   -0.3969   -0.6264    0.4062 O   0  0  0  0  0  0  0  0  0  0  0  0
   -1.6580   -0.2193    0.1265 C   0  0  0  0  0  0  0  0  0  0  0  0
   -1.9898    0.9480   -0.5565 C   0  0  0  0  0  0  0  0  0  0  0  0
   -3.3176    1.2655   -0.7872 C   0  0  0  0  0  0  0  0  0  0  0  0
   -4.3133    0.4207   -0.3377 C   0  0  0  0  0  0  0  0  0  0  0  0
   -6.1387    0.8646   -0.6591 Br  0  0  0  0  0  0  0  0  0  0  0  0
   -4.0032   -0.7458    0.3440 C   0  0  0  0  0  0  0  0  0  0  0  0
   -2.6819   -1.0606    0.5729 C   0  0  0  0  0  0  0  0  0  0  0  0
    4.5719   -1.4037    0.0158 H   0  0  0  0  0  0  0  0  0  0  0  0
    4.5165   -0.5254    1.5438 H   0  0  0  0  0  0  0  0  0  0  0  0
    5.3661    0.1649    0.1605 H   0  0  0  0  0  0  0  0  0  0  0  0
    3.2223    0.3954   -1.0674 H   0  0  0  0  0  0  0  0  0  0  0  0
    3.1669    1.2738    0.4609 H   0  0  0  0  0  0  0  0  0  0  0  0
    1.9540   -0.6367    1.5146 H   0  0  0  0  0  0  0  0  0  0  0  0
    2.0095   -1.5148   -0.0130 H   0  0  0  0  0  0  0  0  0  0  0  0
    0.6824    0.2820   -1.1068 H   0  0  0  0  0  0  0  0  0  0  0  0
    0.6263    1.1711    0.4402 H   0  0  0  0  0  0  0  0  0  0  0  0
   -1.2272    1.6204   -0.9153 H   0  0  0  0  0  0  0  0  0  0  0  0
   -3.5703    2.1712   -1.3169 H   0  0  0  0  0  0  0  0  0  0  0  0
   -4.7889   -1.3989    0.6909 H   0  0  0  0  0  0  0  0  0  0  0  0
   -2.4122   -1.9614    1.1004 H   0  0  0  0  0  0  0  0  0  0  0  0
  1  2  1  0  0  0  0
  2  3  1  0  0  0  0
  3  4  1  0  0  0  0
  4  5  1  0  0  0  0
  5  6  1  0  0  0  0
  6  7  4  0  0  0  0
  7  8  4  0  0  0  0
  8  9  4  0  0  0  0
  9 10  1  0  0  0  0
  9 11  4  0  0  0  0
  6 12  4  0  0  0  0
 11 12  4  0  0  0  0
  1 13  1  0  0  0  0
  1 14  1  0  0  0  0
  1 15  1  0  0  0  0
  2 16  1  0  0  0  0
  2 17  1  0  0  0  0
  3 18  1  0  0  0  0
  3 19  1  0  0  0  0
  4 20  1  0  0  0  0
  4 21  1  0  0  0  0
  7 22  1  0  0  0  0
  8 23  1  0  0  0  0
 11 24  1  0  0  0  0
 12 25  1  0  0  0  0
M  END
