 xtb: 6.7.1 (edcfbbe)
          07082609553D

 26 26  0     0  0            999 V2000
    3.5097    1.4261    0.2904 C   0  0  0  0  0  0  0  0  0  0  0  0
    2.8757    0.2669   -0.4413 C   0  0  0  0  0  0  0  0  0  0  0  0
    3.3425   -0.1977   -1.4490 O   0  0  0  0  0  0  0  0  0  0  0  0
    1.6044   -0.2506    0.1964 C   0  0  0  0  0  0  0  0  0  0  0  0
    0.9516   -1.3590   -0.6233 C   0  0  0  0  0  0  0  0  0  0  0  0
   -0.3538   -1.8510    0.0121 C   0  0  0  0  0  0  0  0  0  0  0  0
   -1.3841   -0.7584    0.0598 C   0  0  0  0  0  0  0  0  0  0  0  0
   -2.0459   -0.3710   -1.0994 C   0  0  0  0  0  0  0  0  0  0  0  0
   -2.9705    0.6571   -1.0756 C   0  0  0  0  0  0  0  0  0  0  0  0
   -3.2474    1.3156    0.1110 C   0  0  0  0  0  0  0  0  0  0  0  0
   -2.5964    0.9368    1.2719 C   0  0  0  0  0  0  0  0  0  0  0  0
   -1.6708   -0.0921    1.2444 C   0  0  0  0  0  0  0  0  0  0  0  0
    4.4598    1.6840   -0.1695 H   0  0  0  0  0  0  0  0  0  0  0  0
    2.8456    2.2868    0.2453 H   0  0  0  0  0  0  0  0  0  0  0  0
    3.6646    1.1744    1.3366 H   0  0  0  0  0  0  0  0  0  0  0  0
    0.9118    0.5858    0.3187 H   0  0  0  0  0  0  0  0  0  0  0  0
    1.8507   -0.6155    1.1971 H   0  0  0  0  0  0  0  0  0  0  0  0
    0.7518   -0.9824   -1.6277 H   0  0  0  0  0  0  0  0  0  0  0  0
    1.6502   -2.1921   -0.7177 H   0  0  0  0  0  0  0  0  0  0  0  0
   -0.7361   -2.6864   -0.5787 H   0  0  0  0  0  0  0  0  0  0  0  0
   -0.1507   -2.2145    1.0218 H   0  0  0  0  0  0  0  0  0  0  0  0
   -1.8365   -0.8846   -2.0274 H   0  0  0  0  0  0  0  0  0  0  0  0
   -3.4780    0.9454   -1.9848 H   0  0  0  0  0  0  0  0  0  0  0  0
   -3.9700    2.1181    0.1309 H   0  0  0  0  0  0  0  0  0  0  0  0
   -2.8098    1.4433    2.2022 H   0  0  0  0  0  0  0  0  0  0  0  0
   -1.1682   -0.3850    2.1558 H   0  0  0  0  0  0  0  0  0  0  0  0
  1  2  1  0  0  0  0
  2  3  2  0  0  0  0
  2  4  1  0  0  0  0
  4  5  1  0  0  0  0
  5  6  1  0  0  0  0
  6  7  1  0  0  0  0
  7  8  4  0  0  0  0
  8  9  4  0  0  0  0
  9 10  4  0  0  0  0
 10 11  4  0  0  0  0
  7 12  4  0  0  0  0
 11 12  4  0  0  0  0
  1 13  1  0  0  0  0
  1 14  1  0  0  0  0
  1 15  1  0  0  0  0
  4 16  1  0  0  0  0
  4 17  1  0  0  0  0
  5 18  1  0  0  0  0
  5 19  1  0  0  0  0
  6 20  1  0  0  0  0
  6 21  1  0  0  0  0
  8 22  1  0  0  0  0
  9 23  1  0  0  0  0
 10 24  1  0  0  0  0
 11 25  1  0  0  0  0
 12 26  1  0  0  0  0
M  END
