 xtb: 6.7.1 (edcfbbe)
          07072621573D

 34 33  0     0  0            999 V2000
    3.3020    1.5214    0.5546 C   0  0  0  0  0  0  0  0  0  0  0  0
    2.5302    0.3774   -0.0994 C   0  0  0  0  0  0  0  0  0  0  0  0
    1.1072    0.2433    0.4610 C   0  0  0  0  0  0  0  0  0  0  0  0
    1.1426   -0.2409    1.7965 O   0  0  0  0  0  0  0  0  0  0  0  0
    0.1935   -0.6927   -0.3687 C   0  0  0  0  0  0  0  0  0  0  0  0
   -0.0165   -0.1294   -1.7794 C   0  0  0  0  0  0  0  0  0  0  0  0
    0.8440   -2.0777   -0.5099 C   0  0  0  0  0  0  0  0  0  0  0  0
   -1.1779   -0.9027    0.3559 C   0  0  0  0  0  0  0  0  0  0  0  0
   -1.0449   -1.8637    1.3777 O   0  0  0  0  0  0  0  0  0  0  0  0
   -1.8813    0.3451    0.9464 C   0  0  0  0  0  0  0  0  0  0  0  0
   -3.1961   -0.1134    1.5845 C   0  0  0  0  0  0  0  0  0  0  0  0
   -2.1937    1.4533   -0.0560 C   0  0  0  0  0  0  0  0  0  0  0  0
    3.4619    1.3469    1.6181 H   0  0  0  0  0  0  0  0  0  0  0  0
    2.7669    2.4622    0.4369 H   0  0  0  0  0  0  0  0  0  0  0  0
    4.2792    1.6246    0.0891 H   0  0  0  0  0  0  0  0  0  0  0  0
    3.0652   -0.5592    0.0626 H   0  0  0  0  0  0  0  0  0  0  0  0
    2.4743    0.5634   -1.1707 H   0  0  0  0  0  0  0  0  0  0  0  0
    0.6546    1.2485    0.4627 H   0  0  0  0  0  0  0  0  0  0  0  0
    1.7884    0.2780    2.2859 H   0  0  0  0  0  0  0  0  0  0  0  0
   -0.2045    0.9387   -1.7733 H   0  0  0  0  0  0  0  0  0  0  0  0
    0.8595   -0.3125   -2.3975 H   0  0  0  0  0  0  0  0  0  0  0  0
   -0.8601   -0.6244   -2.2531 H   0  0  0  0  0  0  0  0  0  0  0  0
    1.7020   -2.0336   -1.1755 H   0  0  0  0  0  0  0  0  0  0  0  0
    0.1223   -2.7783   -0.9215 H   0  0  0  0  0  0  0  0  0  0  0  0
    1.1663   -2.4527    0.4565 H   0  0  0  0  0  0  0  0  0  0  0  0
   -1.8617   -1.3629   -0.3690 H   0  0  0  0  0  0  0  0  0  0  0  0
   -0.3609   -1.5308    1.9746 H   0  0  0  0  0  0  0  0  0  0  0  0
   -1.2432    0.7439    1.7419 H   0  0  0  0  0  0  0  0  0  0  0  0
   -3.8996   -0.4171    0.8121 H   0  0  0  0  0  0  0  0  0  0  0  0
   -3.6407    0.6950    2.1608 H   0  0  0  0  0  0  0  0  0  0  0  0
   -3.0231   -0.9604    2.2423 H   0  0  0  0  0  0  0  0  0  0  0  0
   -2.8855    2.1616    0.3965 H   0  0  0  0  0  0  0  0  0  0  0  0
   -1.3066    2.0064   -0.3507 H   0  0  0  0  0  0  0  0  0  0  0  0
   -2.6635    1.0427   -0.9464 H   0  0  0  0  0  0  0  0  0  0  0  0
  1  2  1  0  0  0  0
  2  3  1  0  0  0  0
  3  4  1  0  0  0  0
  3  5  1  0  0  0  0
  5  6  1  0  0  0  0
  5  7  1  0  0  0  0
  5  8  1  0  0  0  0
  8  9  1  0  0  0  0
  8 10  1  0  0  0  0
 10 11  1  0  0  0  0
 10 12  1  0  0  0  0
  1 13  1  0  0  0  0
  1 14  1  0  0  0  0
  1 15  1  0  0  0  0
  2 16  1  0  0  0  0
  2 17  1  0  0  0  0
  3 18  1  0  0  0  0
  4 19  1  0  0  0  0
  6 20  1  0  0  0  0
  6 21  1  0  0  0  0
  6 22  1  0  0  0  0
  7 23  1  0  0  0  0
  7 24  1  0  0  0  0
  7 25  1  0  0  0  0
  8 26  1  0  0  0  0
  9 27  1  0  0  0  0
 10 28  1  0  0  0  0
 11 29  1  0  0  0  0
 11 30  1  0  0  0  0
 11 31  1  0  0  0  0
 12 32  1  0  0  0  0
 12 33  1  0  0  0  0
 12 34  1  0  0  0  0
M  END
