 xtb: 6.7.1 (edcfbbe)
          07082614423D

 26 27  0     0  0            999 V2000
    2.2485    1.2456   -1.0762 C   0  0  0  0  0  0  0  0  0  0  0  0
    1.3501    0.3123   -0.8056 C   0  0  0  0  0  0  0  0  0  0  0  0
    1.7149   -1.0148   -0.1849 C   0  0  0  0  0  0  0  0  0  0  0  0
    0.5446   -1.6816    0.5641 C   0  0  0  0  0  0  0  0  0  0  0  0
   -0.7946   -1.1407    0.0748 C   0  0  0  0  0  0  0  0  0  0  0  0
   -0.7047   -0.8996   -1.4395 C   0  0  0  0  0  0  0  0  0  0  0  0
   -0.1090    0.4744   -1.0868 C   0  0  0  0  0  0  0  0  0  0  0  0
   -0.8781    0.3935    0.2620 C   0  0  0  0  0  0  0  0  0  0  0  0
   -2.3083    0.9135    0.1547 C   0  0  0  0  0  0  0  0  0  0  0  0
   -0.2297    1.0263    1.4860 C   0  0  0  0  0  0  0  0  0  0  0  0
    1.9752    2.1756   -1.5450 H   0  0  0  0  0  0  0  0  0  0  0  0
    3.2929    1.1172   -0.8446 H   0  0  0  0  0  0  0  0  0  0  0  0
    2.5720   -0.8914    0.4798 H   0  0  0  0  0  0  0  0  0  0  0  0
    2.0445   -1.6742   -0.9936 H   0  0  0  0  0  0  0  0  0  0  0  0
    0.6329   -1.5137    1.6385 H   0  0  0  0  0  0  0  0  0  0  0  0
    0.5786   -2.7616    0.4021 H   0  0  0  0  0  0  0  0  0  0  0  0
   -1.6285   -1.7328    0.4560 H   0  0  0  0  0  0  0  0  0  0  0  0
   -0.0754   -1.5776   -2.0110 H   0  0  0  0  0  0  0  0  0  0  0  0
   -1.6750   -0.8278   -1.9234 H   0  0  0  0  0  0  0  0  0  0  0  0
   -0.3188    1.3223   -1.7386 H   0  0  0  0  0  0  0  0  0  0  0  0
   -2.8593    0.6704    1.0618 H   0  0  0  0  0  0  0  0  0  0  0  0
   -2.8386    0.4822   -0.6891 H   0  0  0  0  0  0  0  0  0  0  0  0
   -2.3051    1.9958    0.0371 H   0  0  0  0  0  0  0  0  0  0  0  0
   -0.7319    0.6871    2.3907 H   0  0  0  0  0  0  0  0  0  0  0  0
   -0.3236    2.1094    1.4289 H   0  0  0  0  0  0  0  0  0  0  0  0
    0.8264    0.7901    1.5620 H   0  0  0  0  0  0  0  0  0  0  0  0
  1  2  2  0  0  0  0
  2  3  1  0  0  0  0
  3  4  1  0  0  0  0
  4  5  1  0  0  0  0
  5  6  1  0  0  0  0
  2  7  1  0  0  0  0
  6  7  1  0  0  0  0
  5  8  1  0  0  0  0
  7  8  1  0  0  0  0
  8  9  1  0  0  0  0
  8 10  1  0  0  0  0
  1 11  1  0  0  0  0
  1 12  1  0  0  0  0
  3 13  1  0  0  0  0
  3 14  1  0  0  0  0
  4 15  1  0  0  0  0
  4 16  1  0  0  0  0
  5 17  1  0  0  0  0
  6 18  1  0  0  0  0
  6 19  1  0  0  0  0
  7 20  1  0  0  0  0
  9 21  1  0  0  0  0
  9 22  1  0  0  0  0
  9 23  1  0  0  0  0
 10 24  1  0  0  0  0
 10 25  1  0  0  0  0
 10 26  1  0  0  0  0
M  END
