 xtb: 6.7.1 (edcfbbe)
          07082620093D

 16 15  0     0  0            999 V2000
    2.7738   -0.3654    0.4725 C   0  0  0  0  0  0  0  0  0  0  0  0
    1.7696   -0.1237   -0.5059 O   0  0  0  0  0  0  0  0  0  0  0  0
    0.5337   -0.5151   -0.2109 C   0  0  0  0  0  0  0  0  0  0  0  0
    0.2209   -1.0764    0.8064 O   0  0  0  0  0  0  0  0  0  0  0  0
   -0.4300   -0.1449   -1.3213 C   0  0  0  0  0  0  0  0  0  0  0  0
   -1.3628    0.9401   -0.7828 C   0  0  0  0  0  0  0  0  0  0  0  0
   -2.4303    0.4174    0.1285 C   0  0  0  0  0  0  0  0  0  0  0  0
   -1.2103    2.0980   -1.0630 O   0  0  0  0  0  0  0  0  0  0  0  0
    3.7278   -0.3089   -0.0455 H   0  0  0  0  0  0  0  0  0  0  0  0
    2.7217    0.3952    1.2540 H   0  0  0  0  0  0  0  0  0  0  0  0
    2.6335   -1.3500    0.9229 H   0  0  0  0  0  0  0  0  0  0  0  0
    0.1334    0.2335   -2.1728 H   0  0  0  0  0  0  0  0  0  0  0  0
   -1.0098   -1.0278   -1.5873 H   0  0  0  0  0  0  0  0  0  0  0  0
   -3.1460   -0.1657   -0.4485 H   0  0  0  0  0  0  0  0  0  0  0  0
   -2.9484    1.2368    0.6191 H   0  0  0  0  0  0  0  0  0  0  0  0
   -1.9770   -0.2431    0.8661 H   0  0  0  0  0  0  0  0  0  0  0  0
  1  2  1  0  0  0  0
  2  3  1  0  0  0  0
  3  4  2  0  0  0  0
  3  5  1  0  0  0  0
  5  6  1  0  0  0  0
  6  7  1  0  0  0  0
  6  8  2  0  0  0  0
  1  9  1  0  0  0  0
  1 10  1  0  0  0  0
  1 11  1  0  0  0  0
  5 12  1  0  0  0  0
  5 13  1  0  0  0  0
  7 14  1  0  0  0  0
  7 15  1  0  0  0  0
  7 16  1  0  0  0  0
M  END
