 xtb: 6.7.1 (edcfbbe)
          07082615513D

 24 23  0     0  0            999 V2000
    0.2084   -2.3210   -0.0382 C   0  0  0  0  0  0  0  0  0  0  0  0
    0.0901   -1.0030   -0.0665 C   0  0  0  0  0  0  0  0  0  0  0  0
    1.1380   -0.1262   -0.6935 C   0  0  0  0  0  0  0  0  0  0  0  0
    2.1242    0.3955    0.3582 C   0  0  0  0  0  0  0  0  0  0  0  0
    3.1859    1.2932   -0.2640 C   0  0  0  0  0  0  0  0  0  0  0  0
   -1.0997   -0.3010    0.5264 C   0  0  0  0  0  0  0  0  0  0  0  0
   -2.1590   -0.0085   -0.5427 C   0  0  0  0  0  0  0  0  0  0  0  0
   -3.3659    0.7116    0.0447 C   0  0  0  0  0  0  0  0  0  0  0  0
   -0.5292   -2.9493    0.4324 H   0  0  0  0  0  0  0  0  0  0  0  0
    1.0479   -2.8274   -0.4845 H   0  0  0  0  0  0  0  0  0  0  0  0
    0.6639    0.7250   -1.1870 H   0  0  0  0  0  0  0  0  0  0  0  0
    1.6927   -0.6904   -1.4457 H   0  0  0  0  0  0  0  0  0  0  0  0
    2.6025   -0.4555    0.8478 H   0  0  0  0  0  0  0  0  0  0  0  0
    1.5804    0.9533    1.1237 H   0  0  0  0  0  0  0  0  0  0  0  0
    3.7533    0.7488   -1.0159 H   0  0  0  0  0  0  0  0  0  0  0  0
    3.8776    1.6508    0.4954 H   0  0  0  0  0  0  0  0  0  0  0  0
    2.7255    2.1555   -0.7420 H   0  0  0  0  0  0  0  0  0  0  0  0
   -0.7866    0.6413    0.9814 H   0  0  0  0  0  0  0  0  0  0  0  0
   -1.5479   -0.9223    1.3041 H   0  0  0  0  0  0  0  0  0  0  0  0
   -2.4762   -0.9511   -0.9938 H   0  0  0  0  0  0  0  0  0  0  0  0
   -1.7203    0.6042   -1.3333 H   0  0  0  0  0  0  0  0  0  0  0  0
   -3.0682    1.6617    0.4838 H   0  0  0  0  0  0  0  0  0  0  0  0
   -3.8302    0.1074    0.8213 H   0  0  0  0  0  0  0  0  0  0  0  0
   -4.1073    0.9076   -0.7267 H   0  0  0  0  0  0  0  0  0  0  0  0
  1  2  2  0  0  0  0
  2  3  1  0  0  0  0
  3  4  1  0  0  0  0
  4  5  1  0  0  0  0
  2  6  1  0  0  0  0
  6  7  1  0  0  0  0
  7  8  1  0  0  0  0
  1  9  1  0  0  0  0
  1 10  1  0  0  0  0
  3 11  1  0  0  0  0
  3 12  1  0  0  0  0
  4 13  1  0  0  0  0
  4 14  1  0  0  0  0
  5 15  1  0  0  0  0
  5 16  1  0  0  0  0
  5 17  1  0  0  0  0
  6 18  1  0  0  0  0
  6 19  1  0  0  0  0
  7 20  1  0  0  0  0
  7 21  1  0  0  0  0
  8 22  1  0  0  0  0
  8 23  1  0  0  0  0
  8 24  1  0  0  0  0
M  END
