 xtb: 6.7.1 (edcfbbe)
          07092614473D

 28 28  0     0  0            999 V2000
    5.3554    0.2681    0.0331 C   0  0  0  0  0  0  0  0  0  0  0  0
    3.9553    0.7576    0.0900 C   0  0  0  0  0  0  0  0  0  0  0  0
    2.8736    0.0113   -0.1141 C   0  0  0  0  0  0  0  0  0  0  0  0
    1.5209    0.5875   -0.0347 C   0  0  0  0  0  0  0  0  0  0  0  0
    1.2696    1.7464    0.1984 O   0  0  0  0  0  0  0  0  0  0  0  0
    0.5919   -0.3498   -0.2657 O   0  0  0  0  0  0  0  0  0  0  0  0
   -0.7804    0.0590   -0.2245 C   0  0  0  0  0  0  0  0  0  0  0  0
   -1.5779   -0.8889   -1.1135 C   0  0  0  0  0  0  0  0  0  0  0  0
   -3.0583   -0.5218   -1.0782 C   0  0  0  0  0  0  0  0  0  0  0  0
   -3.5860   -0.5600    0.3530 C   0  0  0  0  0  0  0  0  0  0  0  0
   -2.7836    0.3867    1.2406 C   0  0  0  0  0  0  0  0  0  0  0  0
   -1.3026    0.0236    1.2115 C   0  0  0  0  0  0  0  0  0  0  0  0
    5.8451    0.4343    0.9922 H   0  0  0  0  0  0  0  0  0  0  0  0
    5.3950   -0.7910   -0.2086 H   0  0  0  0  0  0  0  0  0  0  0  0
    5.9138    0.8276   -0.7168 H   0  0  0  0  0  0  0  0  0  0  0  0
    3.8165    1.8073    0.3168 H   0  0  0  0  0  0  0  0  0  0  0  0
    2.9248   -1.0421   -0.3443 H   0  0  0  0  0  0  0  0  0  0  0  0
   -0.8411    1.0871   -0.6059 H   0  0  0  0  0  0  0  0  0  0  0  0
   -1.1949   -0.8395   -2.1342 H   0  0  0  0  0  0  0  0  0  0  0  0
   -1.4358   -1.9082   -0.7492 H   0  0  0  0  0  0  0  0  0  0  0  0
   -3.1914    0.4825   -1.4864 H   0  0  0  0  0  0  0  0  0  0  0  0
   -3.6220   -1.2160   -1.7041 H   0  0  0  0  0  0  0  0  0  0  0  0
   -3.5058   -1.5776    0.7418 H   0  0  0  0  0  0  0  0  0  0  0  0
   -4.6405   -0.2778    0.3670 H   0  0  0  0  0  0  0  0  0  0  0  0
   -3.1510    0.3392    2.2673 H   0  0  0  0  0  0  0  0  0  0  0  0
   -2.9096    1.4119    0.8861 H   0  0  0  0  0  0  0  0  0  0  0  0
   -0.7269    0.7242    1.8192 H   0  0  0  0  0  0  0  0  0  0  0  0
   -1.1541   -0.9816    1.6132 H   0  0  0  0  0  0  0  0  0  0  0  0
  1  2  1  0  0  0  0
  2  3  2  0  0  0  0
  3  4  1  0  0  0  0
  4  5  2  0  0  0  0
  4  6  1  0  0  0  0
  6  7  1  0  0  0  0
  7  8  1  0  0  0  0
  8  9  1  0  0  0  0
  9 10  1  0  0  0  0
 10 11  1  0  0  0  0
  7 12  1  0  0  0  0
 11 12  1  0  0  0  0
  1 13  1  0  0  0  0
  1 14  1  0  0  0  0
  1 15  1  0  0  0  0
  2 16  1  0  0  0  0
  3 17  1  0  0  0  0
  7 18  1  0  0  0  0
  8 19  1  0  0  0  0
  8 20  1  0  0  0  0
  9 21  1  0  0  0  0
  9 22  1  0  0  0  0
 10 23  1  0  0  0  0
 10 24  1  0  0  0  0
 11 25  1  0  0  0  0
 11 26  1  0  0  0  0
 12 27  1  0  0  0  0
 12 28  1  0  0  0  0
M  END
