 xtb: 6.7.1 (edcfbbe)
          07092600553D

 16 16  0     0  0            999 V2000
    3.2869    0.4455   -1.5567 N   0  0  0  0  0  0  0  0  0  0  0  0
    2.7161    0.2526   -0.5861 C   0  0  0  0  0  0  0  0  0  0  0  0
    1.9717    0.0097    0.6276 C   0  0  0  0  0  0  0  0  0  0  0  0
    0.4967   -0.0222    0.3077 C   0  0  0  0  0  0  0  0  0  0  0  0
   -0.1182   -1.2139   -0.0529 C   0  0  0  0  0  0  0  0  0  0  0  0
   -1.4644   -1.2460   -0.3676 C   0  0  0  0  0  0  0  0  0  0  0  0
   -2.2003   -0.0726   -0.3257 C   0  0  0  0  0  0  0  0  0  0  0  0
   -3.8840   -0.1054   -0.7132 Cl  0  0  0  0  0  0  0  0  0  0  0  0
   -1.6006    1.1268    0.0237 C   0  0  0  0  0  0  0  0  0  0  0  0
   -0.2537    1.1458    0.3363 C   0  0  0  0  0  0  0  0  0  0  0  0
    2.1999    0.8093    1.3374 H   0  0  0  0  0  0  0  0  0  0  0  0
    2.3005   -0.9444    1.0482 H   0  0  0  0  0  0  0  0  0  0  0  0
    0.4566   -2.1279   -0.0892 H   0  0  0  0  0  0  0  0  0  0  0  0
   -1.9403   -2.1734   -0.6443 H   0  0  0  0  0  0  0  0  0  0  0  0
   -2.1819    2.0348    0.0498 H   0  0  0  0  0  0  0  0  0  0  0  0
    0.2150    2.0813    0.6050 H   0  0  0  0  0  0  0  0  0  0  0  0
  1  2  3  0  0  0  0
  2  3  1  0  0  0  0
  3  4  1  0  0  0  0
  4  5  4  0  0  0  0
  5  6  4  0  0  0  0
  6  7  4  0  0  0  0
  7  8  1  0  0  0  0
  7  9  4  0  0  0  0
  4 10  4  0  0  0  0
  9 10  4  0  0  0  0
  3 11  1  0  0  0  0
  3 12  1  0  0  0  0
  5 13  1  0  0  0  0
  6 14  1  0  0  0  0
  9 15  1  0  0  0  0
 10 16  1  0  0  0  0
M  END
