 xtb: 6.7.1 (edcfbbe)
          07082620513D

 27 26  0     0  0            999 V2000
    3.6821   -1.0686   -0.2780 C   0  0  0  0  0  0  0  0  0  0  0  0
    2.6205   -0.0052   -0.5311 C   0  0  0  0  0  0  0  0  0  0  0  0
    1.3117   -0.3279    0.1866 C   0  0  0  0  0  0  0  0  0  0  0  0
    0.2431    0.7299   -0.0800 C   0  0  0  0  0  0  0  0  0  0  0  0
   -1.0397    0.5111    0.7274 C   0  0  0  0  0  0  0  0  0  0  0  0
   -1.7384   -0.8278    0.4475 C   0  0  0  0  0  0  0  0  0  0  0  0
   -2.0110   -1.1256   -1.0228 C   0  0  0  0  0  0  0  0  0  0  0  0
   -2.0023    1.6830    0.5077 C   0  0  0  0  0  0  0  0  0  0  0  0
   -3.0686    1.5768    1.4275 O   0  0  0  0  0  0  0  0  0  0  0  0
    3.8929   -1.1506    0.7861 H   0  0  0  0  0  0  0  0  0  0  0  0
    4.6070   -0.8185   -0.7928 H   0  0  0  0  0  0  0  0  0  0  0  0
    3.3429   -2.0390   -0.6342 H   0  0  0  0  0  0  0  0  0  0  0  0
    2.4335    0.0722   -1.6049 H   0  0  0  0  0  0  0  0  0  0  0  0
    2.9907    0.9647   -0.1905 H   0  0  0  0  0  0  0  0  0  0  0  0
    0.9592   -1.3052   -0.1457 H   0  0  0  0  0  0  0  0  0  0  0  0
    1.4966   -0.3892    1.2616 H   0  0  0  0  0  0  0  0  0  0  0  0
    0.6519    1.7097    0.1823 H   0  0  0  0  0  0  0  0  0  0  0  0
    0.0079    0.7538   -1.1456 H   0  0  0  0  0  0  0  0  0  0  0  0
   -0.7841    0.5200    1.7929 H   0  0  0  0  0  0  0  0  0  0  0  0
   -1.1328   -1.6339    0.8654 H   0  0  0  0  0  0  0  0  0  0  0  0
   -2.6848   -0.8131    0.9908 H   0  0  0  0  0  0  0  0  0  0  0  0
   -2.6023   -0.3378   -1.4820 H   0  0  0  0  0  0  0  0  0  0  0  0
   -1.0863   -1.2346   -1.5833 H   0  0  0  0  0  0  0  0  0  0  0  0
   -2.5683   -2.0561   -1.1094 H   0  0  0  0  0  0  0  0  0  0  0  0
   -2.3806    1.6753   -0.5236 H   0  0  0  0  0  0  0  0  0  0  0  0
   -1.4625    2.6293    0.6618 H   0  0  0  0  0  0  0  0  0  0  0  0
   -3.6782    2.3074    1.2863 H   0  0  0  0  0  0  0  0  0  0  0  0
  1  2  1  0  0  0  0
  2  3  1  0  0  0  0
  3  4  1  0  0  0  0
  4  5  1  0  0  0  0
  5  6  1  0  0  0  0
  6  7  1  0  0  0  0
  5  8  1  0  0  0  0
  8  9  1  0  0  0  0
  1 10  1  0  0  0  0
  1 11  1  0  0  0  0
  1 12  1  0  0  0  0
  2 13  1  0  0  0  0
  2 14  1  0  0  0  0
  3 15  1  0  0  0  0
  3 16  1  0  0  0  0
  4 17  1  0  0  0  0
  4 18  1  0  0  0  0
  5 19  1  0  0  0  0
  6 20  1  0  0  0  0
  6 21  1  0  0  0  0
  7 22  1  0  0  0  0
  7 23  1  0  0  0  0
  7 24  1  0  0  0  0
  8 25  1  0  0  0  0
  8 26  1  0  0  0  0
  9 27  1  0  0  0  0
M  END
