 xtb: 6.7.1 (edcfbbe)
          07072600023D

 77 78  0     0  0            999 V2000
    0.2595    0.6766    4.3314 C   0  0  0  0  0  0  0  0  0  0  0  0
    0.4460    0.2784    3.0781 C   0  0  0  0  0  0  0  0  0  0  0  0
   -0.6432   -0.3257    2.2340 C   0  0  0  0  0  0  0  0  0  0  0  0
   -1.0799    0.6376    1.1197 C   0  0  0  0  0  0  0  0  0  0  0  0
   -1.7652    1.8861    1.6917 C   0  0  0  0  0  0  0  0  0  0  0  0
   -3.2328    1.4865    1.8804 C   0  0  0  0  0  0  0  0  0  0  0  0
   -3.4161    0.2614    1.0346 C   0  0  0  0  0  0  0  0  0  0  0  0
   -4.4914   -0.3905    1.1153 N   0  0  0  0  0  0  0  0  0  0  0  0
   -4.5647   -1.5971    0.3662 O   0  0  0  0  0  0  0  0  0  0  0  0
   -5.6579   -1.7315   -0.4006 C   0  0  0  0  0  0  0  0  0  0  0  0
   -6.4774   -0.8742   -0.5878 O   0  0  0  0  0  0  0  0  0  0  0  0
   -5.6554   -3.0901   -1.0488 C   0  0  0  0  0  0  0  0  0  0  0  0
   -5.5331   -3.0617   -2.5895 C   0  0  0  0  0  0  0  0  0  0  0  0
   -6.7505   -3.9897   -2.6946 C   0  0  0  0  0  0  0  0  0  0  0  0
   -7.0409   -3.7441   -1.2079 C   0  0  0  0  0  0  0  0  0  0  0  0
   -2.1659   -0.0040    0.2431 C   0  0  0  0  0  0  0  0  0  0  0  0
   -2.2424    0.6656   -1.1404 C   0  0  0  0  0  0  0  0  0  0  0  0
   -3.2237   -0.0279   -2.0818 C   0  0  0  0  0  0  0  0  0  0  0  0
   -3.2956    0.6417   -3.4553 C   0  0  0  0  0  0  0  0  0  0  0  0
   -4.1635    1.9019   -3.4710 C   0  0  0  0  0  0  0  0  0  0  0  0
   -5.6539    1.5931   -3.3765 C   0  0  0  0  0  0  0  0  0  0  0  0
    1.6013    0.3690    2.3659 O   0  0  0  0  0  0  0  0  0  0  0  0
    2.7209    0.9681    2.9790 C   0  0  0  0  0  0  0  0  0  0  0  0
    3.8519    0.9714    1.9976 C   0  0  0  0  0  0  0  0  0  0  0  0
    5.0410    1.5159    2.2267 C   0  0  0  0  0  0  0  0  0  0  0  0
    5.3600    2.1879    3.5308 C   0  0  0  0  0  0  0  0  0  0  0  0
    6.1433    1.4485    1.2115 C   0  0  0  0  0  0  0  0  0  0  0  0
    7.2094    0.4141    1.6213 C   0  0  0  0  0  0  0  0  0  0  0  0
    8.3127    0.3592    0.6094 C   0  0  0  0  0  0  0  0  0  0  0  0
    8.3792   -0.4256   -0.4594 C   0  0  0  0  0  0  0  0  0  0  0  0
    7.3423   -1.4375   -0.8455 C   0  0  0  0  0  0  0  0  0  0  0  0
    9.5427   -0.3575   -1.4055 C   0  0  0  0  0  0  0  0  0  0  0  0
   -0.6994    0.5520    4.7985 H   0  0  0  0  0  0  0  0  0  0  0  0
    1.0287    1.1160    4.9393 H   0  0  0  0  0  0  0  0  0  0  0  0
   -0.2544   -1.2374    1.7750 H   0  0  0  0  0  0  0  0  0  0  0  0
   -1.4962   -0.5847    2.8602 H   0  0  0  0  0  0  0  0  0  0  0  0
   -0.1964    0.9015    0.5340 H   0  0  0  0  0  0  0  0  0  0  0  0
   -1.6803    2.7126    0.9857 H   0  0  0  0  0  0  0  0  0  0  0  0
   -1.3041    2.1968    2.6280 H   0  0  0  0  0  0  0  0  0  0  0  0
   -3.9274    2.2675    1.5712 H   0  0  0  0  0  0  0  0  0  0  0  0
   -3.4640    1.2474    2.9182 H   0  0  0  0  0  0  0  0  0  0  0  0
   -4.9129   -3.7251   -0.5675 H   0  0  0  0  0  0  0  0  0  0  0  0
   -5.7266   -2.0689   -2.9903 H   0  0  0  0  0  0  0  0  0  0  0  0
   -4.5960   -3.4388   -2.9927 H   0  0  0  0  0  0  0  0  0  0  0  0
   -7.5266   -3.6780   -3.3891 H   0  0  0  0  0  0  0  0  0  0  0  0
   -6.4773   -5.0213   -2.9071 H   0  0  0  0  0  0  0  0  0  0  0  0
   -7.8365   -3.0193   -1.0487 H   0  0  0  0  0  0  0  0  0  0  0  0
   -7.2203   -4.6236   -0.5942 H   0  0  0  0  0  0  0  0  0  0  0  0
   -2.0081   -1.0775    0.1061 H   0  0  0  0  0  0  0  0  0  0  0  0
   -1.2442    0.6409   -1.5856 H   0  0  0  0  0  0  0  0  0  0  0  0
   -2.5285    1.7111   -1.0190 H   0  0  0  0  0  0  0  0  0  0  0  0
   -2.9177   -1.0704   -2.2025 H   0  0  0  0  0  0  0  0  0  0  0  0
   -4.2183   -0.0215   -1.6408 H   0  0  0  0  0  0  0  0  0  0  0  0
   -3.7061   -0.0683   -4.1771 H   0  0  0  0  0  0  0  0  0  0  0  0
   -2.2832    0.8931   -3.7820 H   0  0  0  0  0  0  0  0  0  0  0  0
   -3.8753    2.5580   -2.6476 H   0  0  0  0  0  0  0  0  0  0  0  0
   -3.9753    2.4438   -4.4013 H   0  0  0  0  0  0  0  0  0  0  0  0
   -6.2318    2.5140   -3.4082 H   0  0  0  0  0  0  0  0  0  0  0  0
   -5.9638    0.9673   -4.2113 H   0  0  0  0  0  0  0  0  0  0  0  0
   -5.8994    1.0756   -2.4525 H   0  0  0  0  0  0  0  0  0  0  0  0
    2.9998    0.4067    3.8856 H   0  0  0  0  0  0  0  0  0  0  0  0
    2.4741    1.9963    3.2895 H   0  0  0  0  0  0  0  0  0  0  0  0
    3.6297    0.4858    1.0595 H   0  0  0  0  0  0  0  0  0  0  0  0
    6.3492    2.6362    3.5083 H   0  0  0  0  0  0  0  0  0  0  0  0
    5.3214    1.4716    4.3514 H   0  0  0  0  0  0  0  0  0  0  0  0
    4.6309    2.9688    3.7455 H   0  0  0  0  0  0  0  0  0  0  0  0
    6.6192    2.4273    1.1144 H   0  0  0  0  0  0  0  0  0  0  0  0
    5.7406    1.1680    0.2374 H   0  0  0  0  0  0  0  0  0  0  0  0
    6.7268   -0.5576    1.7342 H   0  0  0  0  0  0  0  0  0  0  0  0
    7.6252    0.6932    2.5912 H   0  0  0  0  0  0  0  0  0  0  0  0
    9.1106    1.0730    0.7728 H   0  0  0  0  0  0  0  0  0  0  0  0
    7.8048   -2.4159   -0.9745 H   0  0  0  0  0  0  0  0  0  0  0  0
    6.8938   -1.1582   -1.7990 H   0  0  0  0  0  0  0  0  0  0  0  0
    6.5511   -1.5198   -0.1080 H   0  0  0  0  0  0  0  0  0  0  0  0
    9.1965   -0.1314   -2.4138 H   0  0  0  0  0  0  0  0  0  0  0  0
   10.0562   -1.3182   -1.4415 H   0  0  0  0  0  0  0  0  0  0  0  0
   10.2551    0.4053   -1.1029 H   0  0  0  0  0  0  0  0  0  0  0  0
  1  2  2  0  0  0  0
  2  3  1  0  0  0  0
  3  4  1  0  0  0  0
  4  5  1  0  0  0  0
  5  6  1  0  0  0  0
  6  7  1  0  0  0  0
  7  8  2  0  0  0  0
  8  9  1  0  0  0  0
  9 10  1  0  0  0  0
 10 11  2  0  0  0  0
 10 12  1  0  0  0  0
 12 13  1  0  0  0  0
 13 14  1  0  0  0  0
 12 15  1  0  0  0  0
 14 15  1  0  0  0  0
  4 16  1  0  0  0  0
  7 16  1  0  0  0  0
 16 17  1  0  0  0  0
 17 18  1  0  0  0  0
 18 19  1  0  0  0  0
 19 20  1  0  0  0  0
 20 21  1  0  0  0  0
  2 22  1  0  0  0  0
 22 23  1  0  0  0  0
 23 24  1  0  0  0  0
 24 25  2  0  0  0  0
 25 26  1  0  0  0  0
 25 27  1  0  0  0  0
 27 28  1  0  0  0  0
 28 29  1  0  0  0  0
 29 30  2  0  0  0  0
 30 31  1  0  0  0  0
 30 32  1  0  0  0  0
  1 33  1  0  0  0  0
  1 34  1  0  0  0  0
  3 35  1  0  0  0  0
  3 36  1  0  0  0  0
  4 37  1  0  0  0  0
  5 38  1  0  0  0  0
  5 39  1  0  0  0  0
  6 40  1  0  0  0  0
  6 41  1  0  0  0  0
 12 42  1  0  0  0  0
 13 43  1  0  0  0  0
 13 44  1  0  0  0  0
 14 45  1  0  0  0  0
 14 46  1  0  0  0  0
 15 47  1  0  0  0  0
 15 48  1  0  0  0  0
 16 49  1  0  0  0  0
 17 50  1  0  0  0  0
 17 51  1  0  0  0  0
 18 52  1  0  0  0  0
 18 53  1  0  0  0  0
 19 54  1  0  0  0  0
 19 55  1  0  0  0  0
 20 56  1  0  0  0  0
 20 57  1  0  0  0  0
 21 58  1  0  0  0  0
 21 59  1  0  0  0  0
 21 60  1  0  0  0  0
 23 61  1  0  0  0  0
 23 62  1  0  0  0  0
 24 63  1  0  0  0  0
 26 64  1  0  0  0  0
 26 65  1  0  0  0  0
 26 66  1  0  0  0  0
 27 67  1  0  0  0  0
 27 68  1  0  0  0  0
 28 69  1  0  0  0  0
 28 70  1  0  0  0  0
 29 71  1  0  0  0  0
 31 72  1  0  0  0  0
 31 73  1  0  0  0  0
 31 74  1  0  0  0  0
 32 75  1  0  0  0  0
 32 76  1  0  0  0  0
 32 77  1  0  0  0  0
M  END
