 xtb: 6.7.1 (edcfbbe)
          07092606453D

 27 26  0     0  0            999 V2000
    3.9870    1.3105   -0.1979 C   0  0  0  0  0  0  0  0  0  0  0  0
    3.0310    0.6933    0.4797 C   0  0  0  0  0  0  0  0  0  0  0  0
    1.9598   -0.0555   -0.2167 C   0  0  0  0  0  0  0  0  0  0  0  0
    1.8705   -0.1774   -1.4148 O   0  0  0  0  0  0  0  0  0  0  0  0
    1.1078   -0.5799    0.6665 O   0  0  0  0  0  0  0  0  0  0  0  0
   -0.0096   -1.3341    0.1743 C   0  0  0  0  0  0  0  0  0  0  0  0
    0.0093   -2.6974    0.8573 C   0  0  0  0  0  0  0  0  0  0  0  0
   -1.3029   -0.5737    0.4773 C   0  0  0  0  0  0  0  0  0  0  0  0
   -1.3884    0.8173   -0.1628 C   0  0  0  0  0  0  0  0  0  0  0  0
   -1.3893    0.7457   -1.6882 C   0  0  0  0  0  0  0  0  0  0  0  0
   -2.6517    1.5214    0.3305 C   0  0  0  0  0  0  0  0  0  0  0  0
    4.7755    1.8611    0.2856 H   0  0  0  0  0  0  0  0  0  0  0  0
    3.9945    1.2728   -1.2753 H   0  0  0  0  0  0  0  0  0  0  0  0
    2.9713    0.6966    1.5574 H   0  0  0  0  0  0  0  0  0  0  0  0
    0.1171   -1.4579   -0.9070 H   0  0  0  0  0  0  0  0  0  0  0  0
   -0.0826   -2.5762    1.9338 H   0  0  0  0  0  0  0  0  0  0  0  0
    0.9431   -3.2118    0.6432 H   0  0  0  0  0  0  0  0  0  0  0  0
   -0.8165   -3.3031    0.4955 H   0  0  0  0  0  0  0  0  0  0  0  0
   -2.1403   -1.1821    0.1304 H   0  0  0  0  0  0  0  0  0  0  0  0
   -1.3850   -0.4684    1.5618 H   0  0  0  0  0  0  0  0  0  0  0  0
   -0.5193    1.4025    0.1590 H   0  0  0  0  0  0  0  0  0  0  0  0
   -1.5609    1.7349   -2.1069 H   0  0  0  0  0  0  0  0  0  0  0  0
   -2.1790    0.0835   -2.0382 H   0  0  0  0  0  0  0  0  0  0  0  0
   -0.4360    0.3862   -2.0659 H   0  0  0  0  0  0  0  0  0  0  0  0
   -2.6579    1.5927    1.4160 H   0  0  0  0  0  0  0  0  0  0  0  0
   -2.7107    2.5273   -0.0784 H   0  0  0  0  0  0  0  0  0  0  0  0
   -3.5369    0.9717    0.0170 H   0  0  0  0  0  0  0  0  0  0  0  0
  1  2  2  0  0  0  0
  2  3  1  0  0  0  0
  3  4  2  0  0  0  0
  3  5  1  0  0  0  0
  5  6  1  0  0  0  0
  6  7  1  0  0  0  0
  6  8  1  0  0  0  0
  8  9  1  0  0  0  0
  9 10  1  0  0  0  0
  9 11  1  0  0  0  0
  1 12  1  0  0  0  0
  1 13  1  0  0  0  0
  2 14  1  0  0  0  0
  6 15  1  0  0  0  0
  7 16  1  0  0  0  0
  7 17  1  0  0  0  0
  7 18  1  0  0  0  0
  8 19  1  0  0  0  0
  8 20  1  0  0  0  0
  9 21  1  0  0  0  0
 10 22  1  0  0  0  0
 10 23  1  0  0  0  0
 10 24  1  0  0  0  0
 11 25  1  0  0  0  0
 11 26  1  0  0  0  0
 11 27  1  0  0  0  0
M  END
