 xtb: 6.7.1 (edcfbbe)
          07062618213D

 44 43  0     0  0            999 V2000
   -3.4862   -3.0642   -0.2032 C   0  0  0  0  0  0  0  0  0  0  0  0
   -1.9639   -3.1073   -0.1378 C   0  0  0  0  0  0  0  0  0  0  0  0
   -1.3739   -2.0568    0.8018 C   0  0  0  0  0  0  0  0  0  0  0  0
   -1.6114   -0.6249    0.3147 C   0  0  0  0  0  0  0  0  0  0  0  0
   -0.7841    0.3243    0.9560 O   0  0  0  0  0  0  0  0  0  0  0  0
   -1.1212    0.6140    2.2935 C   0  0  0  0  0  0  0  0  0  0  0  0
   -0.3521    1.8682    2.6952 C   0  0  0  0  0  0  0  0  0  0  0  0
   -0.8773    2.9591    1.9594 O   0  0  0  0  0  0  0  0  0  0  0  0
    0.0498    3.9756    1.6796 C   0  0  0  0  0  0  0  0  0  0  0  0
    1.0664    3.6301    0.5797 C   0  0  0  0  0  0  0  0  0  0  0  0
    2.0822    4.2533    0.4351 O   0  0  0  0  0  0  0  0  0  0  0  0
    0.6450    2.5856   -0.2056 N   0  0  0  0  0  0  0  0  0  0  0  0
    1.3267    2.0294   -1.2758 C   0  0  0  0  0  0  0  0  0  0  0  0
    2.4282    2.3126   -1.6417 O   0  0  0  0  0  0  0  0  0  0  0  0
    0.5255    1.1137   -1.8469 O   0  0  0  0  0  0  0  0  0  0  0  0
    1.0786    0.3467   -2.9170 C   0  0  0  0  0  0  0  0  0  0  0  0
    1.1971   -1.1257   -2.5259 C   0  0  0  0  0  0  0  0  0  0  0  0
    2.0414   -1.3544   -1.2714 C   0  0  0  0  0  0  0  0  0  0  0  0
    3.5048   -0.9683   -1.4542 C   0  0  0  0  0  0  0  0  0  0  0  0
   -3.8591   -3.8817   -0.8157 H   0  0  0  0  0  0  0  0  0  0  0  0
   -3.8319   -2.1302   -0.6380 H   0  0  0  0  0  0  0  0  0  0  0  0
   -3.9134   -3.1618    0.7925 H   0  0  0  0  0  0  0  0  0  0  0  0
   -1.5531   -2.9676   -1.1400 H   0  0  0  0  0  0  0  0  0  0  0  0
   -1.6523   -4.0943    0.2111 H   0  0  0  0  0  0  0  0  0  0  0  0
   -0.2947   -2.2088    0.8753 H   0  0  0  0  0  0  0  0  0  0  0  0
   -1.8022   -2.1849    1.7986 H   0  0  0  0  0  0  0  0  0  0  0  0
   -1.3471   -0.5418   -0.7424 H   0  0  0  0  0  0  0  0  0  0  0  0
   -2.6652   -0.3415    0.4433 H   0  0  0  0  0  0  0  0  0  0  0  0
   -0.8491   -0.2140    2.9618 H   0  0  0  0  0  0  0  0  0  0  0  0
   -2.1997    0.8059    2.3799 H   0  0  0  0  0  0  0  0  0  0  0  0
   -0.4662    2.0518    3.7724 H   0  0  0  0  0  0  0  0  0  0  0  0
    0.7098    1.7209    2.4687 H   0  0  0  0  0  0  0  0  0  0  0  0
    0.6012    4.2892    2.5755 H   0  0  0  0  0  0  0  0  0  0  0  0
   -0.5361    4.8292    1.3242 H   0  0  0  0  0  0  0  0  0  0  0  0
   -0.2130    2.1049    0.0670 H   0  0  0  0  0  0  0  0  0  0  0  0
    2.0549    0.7630   -3.1795 H   0  0  0  0  0  0  0  0  0  0  0  0
    0.3996    0.4576   -3.7680 H   0  0  0  0  0  0  0  0  0  0  0  0
    0.1947   -1.5241   -2.3559 H   0  0  0  0  0  0  0  0  0  0  0  0
    1.6352   -1.6595   -3.3714 H   0  0  0  0  0  0  0  0  0  0  0  0
    1.9790   -2.4142   -1.0108 H   0  0  0  0  0  0  0  0  0  0  0  0
    1.6115   -0.7839   -0.4451 H   0  0  0  0  0  0  0  0  0  0  0  0
    4.0781   -1.2508   -0.5742 H   0  0  0  0  0  0  0  0  0  0  0  0
    3.9290   -1.4784   -2.3170 H   0  0  0  0  0  0  0  0  0  0  0  0
    3.6144    0.1036   -1.5944 H   0  0  0  0  0  0  0  0  0  0  0  0
  1  2  1  0  0  0  0
  2  3  1  0  0  0  0
  3  4  1  0  0  0  0
  4  5  1  0  0  0  0
  5  6  1  0  0  0  0
  6  7  1  0  0  0  0
  7  8  1  0  0  0  0
  8  9  1  0  0  0  0
  9 10  1  0  0  0  0
 10 11  2  0  0  0  0
 10 12  1  0  0  0  0
 12 13  1  0  0  0  0
 13 14  2  0  0  0  0
 13 15  1  0  0  0  0
 15 16  1  0  0  0  0
 16 17  1  0  0  0  0
 17 18  1  0  0  0  0
 18 19  1  0  0  0  0
  1 20  1  0  0  0  0
  1 21  1  0  0  0  0
  1 22  1  0  0  0  0
  2 23  1  0  0  0  0
  2 24  1  0  0  0  0
  3 25  1  0  0  0  0
  3 26  1  0  0  0  0
  4 27  1  0  0  0  0
  4 28  1  0  0  0  0
  6 29  1  0  0  0  0
  6 30  1  0  0  0  0
  7 31  1  0  0  0  0
  7 32  1  0  0  0  0
  9 33  1  0  0  0  0
  9 34  1  0  0  0  0
 12 35  1  0  0  0  0
 16 36  1  0  0  0  0
 16 37  1  0  0  0  0
 17 38  1  0  0  0  0
 17 39  1  0  0  0  0
 18 40  1  0  0  0  0
 18 41  1  0  0  0  0
 19 42  1  0  0  0  0
 19 43  1  0  0  0  0
 19 44  1  0  0  0  0
M  END
