 xtb: 6.7.1 (edcfbbe)
          07072606083D

  9  8  0     0  0            999 V2000
   -1.5149   -0.1876   -0.2559 N   0  0  0  0  0  0  0  0  0  0  0  0
   -0.2343   -0.3507   -0.6297 C   0  0  0  0  0  0  0  0  0  0  0  0
    0.1462   -0.8888   -1.6394 O   0  0  0  0  0  0  0  0  0  0  0  0
    0.7156    0.2544    0.4250 C   0  0  0  0  0  0  0  0  0  0  0  0
    0.3124    0.7887    1.4289 O   0  0  0  0  0  0  0  0  0  0  0  0
    1.9872    0.1223    0.1084 O   0  0  0  0  0  0  0  0  0  0  0  0
   -1.7165    0.2799    0.6137 H   0  0  0  0  0  0  0  0  0  0  0  0
   -2.2624   -0.5279   -0.8366 H   0  0  0  0  0  0  0  0  0  0  0  0
    2.5668    0.5098    0.7857 H   0  0  0  0  0  0  0  0  0  0  0  0
  1  2  4  0  0  0  0
  2  3  2  0  0  0  0
  2  4  1  0  0  0  0
  4  5  2  0  0  0  0
  4  6  1  0  0  0  0
  1  7  1  0  0  0  0
  1  8  1  0  0  0  0
  6  9  1  0  0  0  0
M  END
