 xtb: 6.7.1 (edcfbbe)
          07062623103D

 27 27  0     0  0            999 V2000
    3.8613    0.8487   -0.4405 C   0  0  0  0  0  0  0  0  0  0  0  0
    2.8785    0.2654    0.5651 C   0  0  0  0  0  0  0  0  0  0  0  0
    1.5836   -0.1438   -0.0828 C   0  0  0  0  0  0  0  0  0  0  0  0
    1.1492    0.2644   -1.1236 O   0  0  0  0  0  0  0  0  0  0  0  0
    0.9584   -1.0726    0.6777 O   0  0  0  0  0  0  0  0  0  0  0  0
   -0.3434   -1.4234    0.3856 C   0  0  0  0  0  0  0  0  0  0  0  0
   -0.6412   -2.7733    0.2634 C   0  0  0  0  0  0  0  0  0  0  0  0
   -1.9369   -3.1737   -0.0058 C   0  0  0  0  0  0  0  0  0  0  0  0
   -2.9372   -2.2294   -0.1740 C   0  0  0  0  0  0  0  0  0  0  0  0
   -2.6433   -0.8845   -0.0557 C   0  0  0  0  0  0  0  0  0  0  0  0
   -1.3491   -0.4640    0.2359 C   0  0  0  0  0  0  0  0  0  0  0  0
   -1.0494    0.9805    0.4239 C   0  0  0  0  0  0  0  0  0  0  0  0
   -0.2150    1.4201    1.1779 O   0  0  0  0  0  0  0  0  0  0  0  0
   -1.8442    1.7491   -0.3239 O   0  0  0  0  0  0  0  0  0  0  0  0
   -1.6161    3.1472   -0.2339 C   0  0  0  0  0  0  0  0  0  0  0  0
    4.7385    1.2376    0.0697 H   0  0  0  0  0  0  0  0  0  0  0  0
    3.3884    1.6542   -0.9958 H   0  0  0  0  0  0  0  0  0  0  0  0
    4.1775    0.0879   -1.1501 H   0  0  0  0  0  0  0  0  0  0  0  0
    3.2970   -0.5920    1.0932 H   0  0  0  0  0  0  0  0  0  0  0  0
    2.6054    1.0167    1.3118 H   0  0  0  0  0  0  0  0  0  0  0  0
    0.1532   -3.4934    0.3831 H   0  0  0  0  0  0  0  0  0  0  0  0
   -2.1631   -4.2256   -0.0937 H   0  0  0  0  0  0  0  0  0  0  0  0
   -3.9459   -2.5427   -0.3955 H   0  0  0  0  0  0  0  0  0  0  0  0
   -3.4150   -0.1406   -0.1769 H   0  0  0  0  0  0  0  0  0  0  0  0
   -2.3847    3.6204   -0.8394 H   0  0  0  0  0  0  0  0  0  0  0  0
   -0.6231    3.3895   -0.6178 H   0  0  0  0  0  0  0  0  0  0  0  0
   -1.6832    3.4773    0.8052 H   0  0  0  0  0  0  0  0  0  0  0  0
  1  2  1  0  0  0  0
  2  3  1  0  0  0  0
  3  4  2  0  0  0  0
  3  5  1  0  0  0  0
  5  6  1  0  0  0  0
  6  7  4  0  0  0  0
  7  8  4  0  0  0  0
  8  9  4  0  0  0  0
  9 10  4  0  0  0  0
  6 11  4  0  0  0  0
 10 11  4  0  0  0  0
 11 12  1  0  0  0  0
 12 13  2  0  0  0  0
 12 14  1  0  0  0  0
 14 15  1  0  0  0  0
  1 16  1  0  0  0  0
  1 17  1  0  0  0  0
  1 18  1  0  0  0  0
  2 19  1  0  0  0  0
  2 20  1  0  0  0  0
  7 21  1  0  0  0  0
  8 22  1  0  0  0  0
  9 23  1  0  0  0  0
 10 24  1  0  0  0  0
 15 25  1  0  0  0  0
 15 26  1  0  0  0  0
 15 27  1  0  0  0  0
M  END
