 xtb: 6.7.1 (edcfbbe)
          07092602143D

 22 21  0     0  0            999 V2000
    2.2915   -1.2678   -0.8508 C   0  0  0  0  0  0  0  0  0  0  0  0
    1.3465   -0.9442   -1.7131 C   0  0  0  0  0  0  0  0  0  0  0  0
    0.1513   -0.0790   -1.4578 C   0  0  0  0  0  0  0  0  0  0  0  0
    0.0659    0.5203   -0.0554 C   0  0  0  0  0  0  0  0  0  0  0  0
   -1.2253    1.3242    0.1130 C   0  0  0  0  0  0  0  0  0  0  0  0
   -1.0884    2.5131    1.0154 C   0  0  0  0  0  0  0  0  0  0  0  0
   -2.2561    0.9823   -0.4070 O   0  0  0  0  0  0  0  0  0  0  0  0
   -0.0244   -0.4888    1.0895 C   0  0  0  0  0  0  0  0  0  0  0  0
   -0.7891   -1.7428    0.7981 C   0  0  0  0  0  0  0  0  0  0  0  0
    0.4355   -0.2216    2.1720 O   0  0  0  0  0  0  0  0  0  0  0  0
    3.1187   -1.8951   -1.1364 H   0  0  0  0  0  0  0  0  0  0  0  0
    2.2905   -0.9327    0.1724 H   0  0  0  0  0  0  0  0  0  0  0  0
    1.4011   -1.3129   -2.7303 H   0  0  0  0  0  0  0  0  0  0  0  0
    0.1729    0.7475   -2.1768 H   0  0  0  0  0  0  0  0  0  0  0  0
   -0.7594   -0.6434   -1.6735 H   0  0  0  0  0  0  0  0  0  0  0  0
    0.9212    1.1716    0.1407 H   0  0  0  0  0  0  0  0  0  0  0  0
   -2.0635    2.9399    1.2349 H   0  0  0  0  0  0  0  0  0  0  0  0
   -0.4662    3.2657    0.5342 H   0  0  0  0  0  0  0  0  0  0  0  0
   -0.5945    2.2071    1.9364 H   0  0  0  0  0  0  0  0  0  0  0  0
   -0.9404   -2.3040    1.7166 H   0  0  0  0  0  0  0  0  0  0  0  0
   -1.7502   -1.4841    0.3571 H   0  0  0  0  0  0  0  0  0  0  0  0
   -0.2377   -2.3553    0.0881 H   0  0  0  0  0  0  0  0  0  0  0  0
  1  2  2  0  0  0  0
  2  3  1  0  0  0  0
  3  4  1  0  0  0  0
  4  5  1  0  0  0  0
  5  6  1  0  0  0  0
  5  7  2  0  0  0  0
  4  8  1  0  0  0  0
  8  9  1  0  0  0  0
  8 10  2  0  0  0  0
  1 11  1  0  0  0  0
  1 12  1  0  0  0  0
  2 13  1  0  0  0  0
  3 14  1  0  0  0  0
  3 15  1  0  0  0  0
  4 16  1  0  0  0  0
  6 17  1  0  0  0  0
  6 18  1  0  0  0  0
  6 19  1  0  0  0  0
  9 20  1  0  0  0  0
  9 21  1  0  0  0  0
  9 22  1  0  0  0  0
M  END
