 xtb: 6.7.1 (edcfbbe)
          07092601363D

 24 23  0     0  0            999 V2000
    4.7202   -0.8265    0.4141 C   0  0  0  0  0  0  0  0  0  0  0  0
    3.5096    0.0269    0.5088 C   0  0  0  0  0  0  0  0  0  0  0  0
    2.2920   -0.3217    0.1028 C   0  0  0  0  0  0  0  0  0  0  0  0
    1.1499    0.5965    0.2381 C   0  0  0  0  0  0  0  0  0  0  0  0
    1.1943    1.7088    0.7080 O   0  0  0  0  0  0  0  0  0  0  0  0
    0.0259    0.0378   -0.2335 O   0  0  0  0  0  0  0  0  0  0  0  0
   -1.1538    0.8336   -0.1575 C   0  0  0  0  0  0  0  0  0  0  0  0
   -2.3381    0.0169   -0.6687 C   0  0  0  0  0  0  0  0  0  0  0  0
   -3.5682    0.9110   -0.7936 C   0  0  0  0  0  0  0  0  0  0  0  0
   -2.6109   -1.1617    0.2619 C   0  0  0  0  0  0  0  0  0  0  0  0
    5.1425   -0.9821    1.4064 H   0  0  0  0  0  0  0  0  0  0  0  0
    4.4913   -1.7910   -0.0319 H   0  0  0  0  0  0  0  0  0  0  0  0
    5.4797   -0.3262   -0.1861 H   0  0  0  0  0  0  0  0  0  0  0  0
    3.6405    1.0094    0.9450 H   0  0  0  0  0  0  0  0  0  0  0  0
    2.0762   -1.2813   -0.3421 H   0  0  0  0  0  0  0  0  0  0  0  0
   -1.3084    1.1443    0.8825 H   0  0  0  0  0  0  0  0  0  0  0  0
   -1.0082    1.7379   -0.7601 H   0  0  0  0  0  0  0  0  0  0  0  0
   -2.0716   -0.3701   -1.6576 H   0  0  0  0  0  0  0  0  0  0  0  0
   -3.3855    1.7272   -1.4884 H   0  0  0  0  0  0  0  0  0  0  0  0
   -4.4159    0.3344   -1.1550 H   0  0  0  0  0  0  0  0  0  0  0  0
   -3.8278    1.3349    0.1739 H   0  0  0  0  0  0  0  0  0  0  0  0
   -1.7172   -1.7712    0.3662 H   0  0  0  0  0  0  0  0  0  0  0  0
   -3.4108   -1.7821   -0.1350 H   0  0  0  0  0  0  0  0  0  0  0  0
   -2.9057   -0.8058    1.2469 H   0  0  0  0  0  0  0  0  0  0  0  0
  1  2  1  0  0  0  0
  2  3  2  0  0  0  0
  3  4  1  0  0  0  0
  4  5  2  0  0  0  0
  4  6  1  0  0  0  0
  6  7  1  0  0  0  0
  7  8  1  0  0  0  0
  8  9  1  0  0  0  0
  8 10  1  0  0  0  0
  1 11  1  0  0  0  0
  1 12  1  0  0  0  0
  1 13  1  0  0  0  0
  2 14  1  0  0  0  0
  3 15  1  0  0  0  0
  7 16  1  0  0  0  0
  7 17  1  0  0  0  0
  8 18  1  0  0  0  0
  9 19  1  0  0  0  0
  9 20  1  0  0  0  0
  9 21  1  0  0  0  0
 10 22  1  0  0  0  0
 10 23  1  0  0  0  0
 10 24  1  0  0  0  0
M  END
