 xtb: 6.7.1 (edcfbbe)
          07082618323D

 18 17  0     0  0            999 V2000
    2.2162   -0.5020   -0.1491 C   0  0  0  0  0  0  0  0  0  0  0  0
    1.0352    0.3189   -0.6597 C   0  0  0  0  0  0  0  0  0  0  0  0
   -0.0250    0.4106    0.3262 N   0  0  0  0  0  0  0  0  0  0  0  0
   -0.1261    1.5138    1.0854 C   0  0  0  0  0  0  0  0  0  0  0  0
    0.6012    2.4770    1.0281 O   0  0  0  0  0  0  0  0  0  0  0  0
   -0.9835   -0.6669    0.4153 C   0  0  0  0  0  0  0  0  0  0  0  0
   -2.1434   -0.4851   -0.5637 C   0  0  0  0  0  0  0  0  0  0  0  0
    2.6233   -0.0433    0.7483 H   0  0  0  0  0  0  0  0  0  0  0  0
    1.9141   -1.5205    0.0863 H   0  0  0  0  0  0  0  0  0  0  0  0
    2.9948   -0.5386   -0.9061 H   0  0  0  0  0  0  0  0  0  0  0  0
    1.3640    1.3400   -0.8666 H   0  0  0  0  0  0  0  0  0  0  0  0
    0.6327   -0.1205   -1.5762 H   0  0  0  0  0  0  0  0  0  0  0  0
   -0.9709    1.4521    1.7982 H   0  0  0  0  0  0  0  0  0  0  0  0
   -0.4683   -1.6086    0.2104 H   0  0  0  0  0  0  0  0  0  0  0  0
   -1.3717   -0.7068    1.4369 H   0  0  0  0  0  0  0  0  0  0  0  0
   -2.8462   -1.3081   -0.4652 H   0  0  0  0  0  0  0  0  0  0  0  0
   -2.6642    0.4472   -0.3596 H   0  0  0  0  0  0  0  0  0  0  0  0
   -1.7821   -0.4591   -1.5887 H   0  0  0  0  0  0  0  0  0  0  0  0
  1  2  1  0  0  0  0
  2  3  1  0  0  0  0
  3  4  4  0  0  0  0
  4  5  2  0  0  0  0
  3  6  1  0  0  0  0
  6  7  1  0  0  0  0
  1  8  1  0  0  0  0
  1  9  1  0  0  0  0
  1 10  1  0  0  0  0
  2 11  1  0  0  0  0
  2 12  1  0  0  0  0
  4 13  1  0  0  0  0
  6 14  1  0  0  0  0
  6 15  1  0  0  0  0
  7 16  1  0  0  0  0
  7 17  1  0  0  0  0
  7 18  1  0  0  0  0
M  END
