 xtb: 6.7.1 (edcfbbe)
          07072622453D

 26 25  0     0  0            999 V2000
    0.3441    2.7157    0.0103 C   0  0  0  0  0  0  0  0  0  0  0  0
    0.8823    1.2946   -0.1284 C   0  0  0  0  0  0  0  0  0  0  0  0
   -0.1281    0.1464    0.1246 C   0  0  0  0  0  0  0  0  0  0  0  0
   -0.4385    0.1246    1.6039 C   0  0  0  0  0  0  0  0  0  0  0  0
   -0.1043   -0.7203    2.3862 O   0  0  0  0  0  0  0  0  0  0  0  0
   -1.4433    0.4085   -0.6362 C   0  0  0  0  0  0  0  0  0  0  0  0
   -2.4779   -0.7034   -0.4860 C   0  0  0  0  0  0  0  0  0  0  0  0
    0.4768   -1.1963   -0.3275 C   0  0  0  0  0  0  0  0  0  0  0  0
    1.8757   -1.4965    0.2299 C   0  0  0  0  0  0  0  0  0  0  0  0
    2.2943   -2.8078   -0.1936 C   0  0  0  0  0  0  0  0  0  0  0  0
    2.6152   -3.8465   -0.5471 N   0  0  0  0  0  0  0  0  0  0  0  0
   -0.4010    2.9383   -0.7481 H   0  0  0  0  0  0  0  0  0  0  0  0
   -0.0902    2.8863    0.9915 H   0  0  0  0  0  0  0  0  0  0  0  0
    1.1660    3.4173   -0.1164 H   0  0  0  0  0  0  0  0  0  0  0  0
    1.2743    1.1717   -1.1414 H   0  0  0  0  0  0  0  0  0  0  0  0
    1.7143    1.1808    0.5700 H   0  0  0  0  0  0  0  0  0  0  0  0
   -1.0279    1.0004    1.9398 H   0  0  0  0  0  0  0  0  0  0  0  0
   -1.8836    1.3334   -0.2607 H   0  0  0  0  0  0  0  0  0  0  0  0
   -1.2140    0.5515   -1.6945 H   0  0  0  0  0  0  0  0  0  0  0  0
   -3.4246   -0.3820   -0.9148 H   0  0  0  0  0  0  0  0  0  0  0  0
   -2.6415   -0.9384    0.5638 H   0  0  0  0  0  0  0  0  0  0  0  0
   -2.1708   -1.6099   -1.0000 H   0  0  0  0  0  0  0  0  0  0  0  0
   -0.1848   -1.9997    0.0004 H   0  0  0  0  0  0  0  0  0  0  0  0
    0.5170   -1.2130   -1.4197 H   0  0  0  0  0  0  0  0  0  0  0  0
    1.8544   -1.4788    1.3221 H   0  0  0  0  0  0  0  0  0  0  0  0
    2.6161   -0.7770   -0.1281 H   0  0  0  0  0  0  0  0  0  0  0  0
  1  2  1  0  0  0  0
  2  3  1  0  0  0  0
  3  4  1  0  0  0  0
  4  5  2  0  0  0  0
  3  6  1  0  0  0  0
  6  7  1  0  0  0  0
  3  8  1  0  0  0  0
  8  9  1  0  0  0  0
  9 10  1  0  0  0  0
 10 11  3  0  0  0  0
  1 12  1  0  0  0  0
  1 13  1  0  0  0  0
  1 14  1  0  0  0  0
  2 15  1  0  0  0  0
  2 16  1  0  0  0  0
  4 17  1  0  0  0  0
  6 18  1  0  0  0  0
  6 19  1  0  0  0  0
  7 20  1  0  0  0  0
  7 21  1  0  0  0  0
  7 22  1  0  0  0  0
  8 23  1  0  0  0  0
  8 24  1  0  0  0  0
  9 25  1  0  0  0  0
  9 26  1  0  0  0  0
M  END
