 xtb: 6.7.1 (edcfbbe)
          07092602013D

 24 23  0     0  0            999 V2000
    3.0345   -0.9378   -1.5600 C   0  0  0  0  0  0  0  0  0  0  0  0
    3.2191   -0.8035   -0.2612 C   0  0  0  0  0  0  0  0  0  0  0  0
    2.1660   -0.4126    0.7247 C   0  0  0  0  0  0  0  0  0  0  0  0
    0.9157   -0.1985    0.0803 O   0  0  0  0  0  0  0  0  0  0  0  0
   -0.1010    0.1570    0.8716 C   0  0  0  0  0  0  0  0  0  0  0  0
    0.0088    0.2947    2.0621 O   0  0  0  0  0  0  0  0  0  0  0  0
   -1.3858    0.3583    0.0745 C   0  0  0  0  0  0  0  0  0  0  0  0
   -2.5078    0.7620    1.0294 C   0  0  0  0  0  0  0  0  0  0  0  0
   -1.7315   -0.9592   -0.6277 C   0  0  0  0  0  0  0  0  0  0  0  0
   -1.1451    1.4611   -0.9619 C   0  0  0  0  0  0  0  0  0  0  0  0
    2.0723   -0.7681   -2.0107 H   0  0  0  0  0  0  0  0  0  0  0  0
    3.8364   -1.2242   -2.2180 H   0  0  0  0  0  0  0  0  0  0  0  0
    4.1863   -0.9759    0.1911 H   0  0  0  0  0  0  0  0  0  0  0  0
    2.4603    0.5055    1.2524 H   0  0  0  0  0  0  0  0  0  0  0  0
    2.0481   -1.1955    1.4870 H   0  0  0  0  0  0  0  0  0  0  0  0
   -2.6626   -0.0096    1.7792 H   0  0  0  0  0  0  0  0  0  0  0  0
   -2.2523    1.6839    1.5453 H   0  0  0  0  0  0  0  0  0  0  0  0
   -3.4333    0.9102    0.4787 H   0  0  0  0  0  0  0  0  0  0  0  0
   -1.8916   -1.7495    0.1027 H   0  0  0  0  0  0  0  0  0  0  0  0
   -2.6420   -0.8385   -1.2105 H   0  0  0  0  0  0  0  0  0  0  0  0
   -0.9266   -1.2592   -1.2934 H   0  0  0  0  0  0  0  0  0  0  0  0
   -0.3342    1.1853   -1.6309 H   0  0  0  0  0  0  0  0  0  0  0  0
   -0.8869    2.3965   -0.4698 H   0  0  0  0  0  0  0  0  0  0  0  0
   -2.0468    1.6179   -1.5497 H   0  0  0  0  0  0  0  0  0  0  0  0
  1  2  2  0  0  0  0
  2  3  1  0  0  0  0
  3  4  1  0  0  0  0
  4  5  1  0  0  0  0
  5  6  2  0  0  0  0
  5  7  1  0  0  0  0
  7  8  1  0  0  0  0
  7  9  1  0  0  0  0
  7 10  1  0  0  0  0
  1 11  1  0  0  0  0
  1 12  1  0  0  0  0
  2 13  1  0  0  0  0
  3 14  1  0  0  0  0
  3 15  1  0  0  0  0
  8 16  1  0  0  0  0
  8 17  1  0  0  0  0
  8 18  1  0  0  0  0
  9 19  1  0  0  0  0
  9 20  1  0  0  0  0
  9 21  1  0  0  0  0
 10 22  1  0  0  0  0
 10 23  1  0  0  0  0
 10 24  1  0  0  0  0
M  END
