 xtb: 6.7.1 (edcfbbe)
          07082620433D

 23 22  0     0  0            999 V2000
   -4.0539   -0.2003    0.1704 C   0  0  0  0  0  0  0  0  0  0  0  0
   -2.7550    0.2967   -0.4519 C   0  0  0  0  0  0  0  0  0  0  0  0
   -1.5327   -0.2439    0.2867 C   0  0  0  0  0  0  0  0  0  0  0  0
   -0.2278    0.2502   -0.3318 C   0  0  0  0  0  0  0  0  0  0  0  0
    0.9803   -0.2961    0.4138 C   0  0  0  0  0  0  0  0  0  0  0  0
    2.1657    0.1998   -0.2097 O   0  0  0  0  0  0  0  0  0  0  0  0
    3.3274   -0.1876    0.3262 C   0  0  0  0  0  0  0  0  0  0  0  0
    4.4911    0.4051   -0.4249 C   0  0  0  0  0  0  0  0  0  0  0  0
    3.4115   -0.9132    1.2810 O   0  0  0  0  0  0  0  0  0  0  0  0
   -4.0999   -1.2866    0.1406 H   0  0  0  0  0  0  0  0  0  0  0  0
   -4.1249    0.1159    1.2087 H   0  0  0  0  0  0  0  0  0  0  0  0
   -4.9121    0.1945   -0.3680 H   0  0  0  0  0  0  0  0  0  0  0  0
   -2.7361    1.3884   -0.4299 H   0  0  0  0  0  0  0  0  0  0  0  0
   -2.7111   -0.0140   -1.4979 H   0  0  0  0  0  0  0  0  0  0  0  0
   -1.5771    0.0662    1.3331 H   0  0  0  0  0  0  0  0  0  0  0  0
   -1.5521   -1.3359    0.2654 H   0  0  0  0  0  0  0  0  0  0  0  0
   -0.1932    1.3408   -0.3078 H   0  0  0  0  0  0  0  0  0  0  0  0
   -0.1683   -0.0618   -1.3760 H   0  0  0  0  0  0  0  0  0  0  0  0
    0.9989   -1.3917    0.3908 H   0  0  0  0  0  0  0  0  0  0  0  0
    0.9739    0.0176    1.4640 H   0  0  0  0  0  0  0  0  0  0  0  0
    4.4493    0.0889   -1.4641 H   0  0  0  0  0  0  0  0  0  0  0  0
    4.4244    1.4897   -0.3973 H   0  0  0  0  0  0  0  0  0  0  0  0
    5.4216    0.0772    0.0274 H   0  0  0  0  0  0  0  0  0  0  0  0
  1  2  1  0  0  0  0
  2  3  1  0  0  0  0
  3  4  1  0  0  0  0
  4  5  1  0  0  0  0
  5  6  1  0  0  0  0
  6  7  1  0  0  0  0
  7  8  1  0  0  0  0
  7  9  2  0  0  0  0
  1 10  1  0  0  0  0
  1 11  1  0  0  0  0
  1 12  1  0  0  0  0
  2 13  1  0  0  0  0
  2 14  1  0  0  0  0
  3 15  1  0  0  0  0
  3 16  1  0  0  0  0
  4 17  1  0  0  0  0
  4 18  1  0  0  0  0
  5 19  1  0  0  0  0
  5 20  1  0  0  0  0
  8 21  1  0  0  0  0
  8 22  1  0  0  0  0
  8 23  1  0  0  0  0
M  END
