 xtb: 6.7.1 (edcfbbe)
          07082611433D

 37 36  0     0  0            999 V2000
    6.7685   -0.3007    0.2795 C   0  0  0  0  0  0  0  0  0  0  0  0
    5.4457    0.0282    0.9604 C   0  0  0  0  0  0  0  0  0  0  0  0
    4.2554   -0.2007    0.0320 C   0  0  0  0  0  0  0  0  0  0  0  0
    2.9265    0.1271    0.7081 C   0  0  0  0  0  0  0  0  0  0  0  0
    1.7368   -0.1021   -0.2207 C   0  0  0  0  0  0  0  0  0  0  0  0
    0.4085    0.2260    0.4566 C   0  0  0  0  0  0  0  0  0  0  0  0
   -0.7818   -0.0028   -0.4716 C   0  0  0  0  0  0  0  0  0  0  0  0
   -2.1093    0.3258    0.2073 C   0  0  0  0  0  0  0  0  0  0  0  0
   -3.3007    0.0974   -0.7196 C   0  0  0  0  0  0  0  0  0  0  0  0
   -4.6238    0.4276   -0.0351 C   0  0  0  0  0  0  0  0  0  0  0  0
   -5.8178    0.2011   -0.9572 C   0  0  0  0  0  0  0  0  0  0  0  0
   -7.1302    0.5193   -0.3053 C   0  0  0  0  0  0  0  0  0  0  0  0
   -7.2820    0.9124    0.8158 O   0  0  0  0  0  0  0  0  0  0  0  0
    7.6019   -0.1309    0.9575 H   0  0  0  0  0  0  0  0  0  0  0  0
    6.7875   -1.3424   -0.0336 H   0  0  0  0  0  0  0  0  0  0  0  0
    6.9096    0.3228   -0.6008 H   0  0  0  0  0  0  0  0  0  0  0  0
    5.3319   -0.5933    1.8517 H   0  0  0  0  0  0  0  0  0  0  0  0
    5.4540    1.0715    1.2846 H   0  0  0  0  0  0  0  0  0  0  0  0
    4.2476   -1.2441   -0.2925 H   0  0  0  0  0  0  0  0  0  0  0  0
    4.3697    0.4206   -0.8596 H   0  0  0  0  0  0  0  0  0  0  0  0
    2.8126   -0.4940    1.5999 H   0  0  0  0  0  0  0  0  0  0  0  0
    2.9346    1.1703    1.0330 H   0  0  0  0  0  0  0  0  0  0  0  0
    1.8503    0.5191   -1.1124 H   0  0  0  0  0  0  0  0  0  0  0  0
    1.7283   -1.1454   -0.5455 H   0  0  0  0  0  0  0  0  0  0  0  0
    0.2951   -0.3951    1.3482 H   0  0  0  0  0  0  0  0  0  0  0  0
    0.4171    1.2692    0.7814 H   0  0  0  0  0  0  0  0  0  0  0  0
   -0.7904   -1.0461   -0.7963 H   0  0  0  0  0  0  0  0  0  0  0  0
   -0.6683    0.6185   -1.3633 H   0  0  0  0  0  0  0  0  0  0  0  0
   -2.2223   -0.2952    1.0988 H   0  0  0  0  0  0  0  0  0  0  0  0
   -2.1003    1.3687    0.5320 H   0  0  0  0  0  0  0  0  0  0  0  0
   -3.3094   -0.9462   -1.0442 H   0  0  0  0  0  0  0  0  0  0  0  0
   -3.1873    0.7191   -1.6114 H   0  0  0  0  0  0  0  0  0  0  0  0
   -4.6207    1.4694    0.2906 H   0  0  0  0  0  0  0  0  0  0  0  0
   -4.7425   -0.1912    0.8562 H   0  0  0  0  0  0  0  0  0  0  0  0
   -5.7363    0.8180   -1.8572 H   0  0  0  0  0  0  0  0  0  0  0  0
   -5.8579   -0.8397   -1.2925 H   0  0  0  0  0  0  0  0  0  0  0  0
   -8.0006    0.3551   -0.9750 H   0  0  0  0  0  0  0  0  0  0  0  0
  1  2  1  0  0  0  0
  2  3  1  0  0  0  0
  3  4  1  0  0  0  0
  4  5  1  0  0  0  0
  5  6  1  0  0  0  0
  6  7  1  0  0  0  0
  7  8  1  0  0  0  0
  8  9  1  0  0  0  0
  9 10  1  0  0  0  0
 10 11  1  0  0  0  0
 11 12  1  0  0  0  0
 12 13  2  0  0  0  0
  1 14  1  0  0  0  0
  1 15  1  0  0  0  0
  1 16  1  0  0  0  0
  2 17  1  0  0  0  0
  2 18  1  0  0  0  0
  3 19  1  0  0  0  0
  3 20  1  0  0  0  0
  4 21  1  0  0  0  0
  4 22  1  0  0  0  0
  5 23  1  0  0  0  0
  5 24  1  0  0  0  0
  6 25  1  0  0  0  0
  6 26  1  0  0  0  0
  7 27  1  0  0  0  0
  7 28  1  0  0  0  0
  8 29  1  0  0  0  0
  8 30  1  0  0  0  0
  9 31  1  0  0  0  0
  9 32  1  0  0  0  0
 10 33  1  0  0  0  0
 10 34  1  0  0  0  0
 11 35  1  0  0  0  0
 11 36  1  0  0  0  0
 12 37  1  0  0  0  0
M  END
