 xtb: 6.7.1 (edcfbbe)
          07092617433D

 32 32  0     0  0            999 V2000
    3.1677    1.3542    0.5917 C   0  0  0  0  0  0  0  0  0  0  0  0
    2.6457    0.4136   -0.1797 C   0  0  0  0  0  0  0  0  0  0  0  0
    2.9076    0.3613   -1.6547 C   0  0  0  0  0  0  0  0  0  0  0  0
    1.7618   -0.6672    0.3735 C   0  0  0  0  0  0  0  0  0  0  0  0
    0.3097   -0.5694   -0.1187 C   0  0  0  0  0  0  0  0  0  0  0  0
   -0.3391    0.7359    0.3381 C   0  0  0  0  0  0  0  0  0  0  0  0
   -1.7872    0.8515   -0.1366 C   0  0  0  0  0  0  0  0  0  0  0  0
   -2.4078    2.1670    0.3250 C   0  0  0  0  0  0  0  0  0  0  0  0
   -2.5857   -0.3429    0.3848 C   0  0  0  0  0  0  0  0  0  0  0  0
   -1.9588   -1.6541   -0.0741 C   0  0  0  0  0  0  0  0  0  0  0  0
   -0.5038   -1.7644    0.3908 C   0  0  0  0  0  0  0  0  0  0  0  0
    0.1000   -2.9470   -0.0998 O   0  0  0  0  0  0  0  0  0  0  0  0
    3.8098    2.1247    0.1982 H   0  0  0  0  0  0  0  0  0  0  0  0
    2.9771    1.3931    1.6511 H   0  0  0  0  0  0  0  0  0  0  0  0
    3.6870    1.0648   -1.9368 H   0  0  0  0  0  0  0  0  0  0  0  0
    3.2111   -0.6418   -1.9497 H   0  0  0  0  0  0  0  0  0  0  0  0
    2.0044    0.6112   -2.2105 H   0  0  0  0  0  0  0  0  0  0  0  0
    2.1477   -1.6430    0.0715 H   0  0  0  0  0  0  0  0  0  0  0  0
    1.7659   -0.6215    1.4646 H   0  0  0  0  0  0  0  0  0  0  0  0
    0.3029   -0.6202   -1.2112 H   0  0  0  0  0  0  0  0  0  0  0  0
    0.2451    1.5762   -0.0415 H   0  0  0  0  0  0  0  0  0  0  0  0
   -0.3149    0.7840    1.4298 H   0  0  0  0  0  0  0  0  0  0  0  0
   -1.7991    0.8252   -1.2323 H   0  0  0  0  0  0  0  0  0  0  0  0
   -1.8393    3.0118   -0.0566 H   0  0  0  0  0  0  0  0  0  0  0  0
   -3.4325    2.2531   -0.0296 H   0  0  0  0  0  0  0  0  0  0  0  0
   -2.4152    2.2224    1.4116 H   0  0  0  0  0  0  0  0  0  0  0  0
   -2.6051   -0.3125    1.4771 H   0  0  0  0  0  0  0  0  0  0  0  0
   -3.6172   -0.2861    0.0306 H   0  0  0  0  0  0  0  0  0  0  0  0
   -1.9775   -1.7128   -1.1651 H   0  0  0  0  0  0  0  0  0  0  0  0
   -2.5322   -2.5000    0.3175 H   0  0  0  0  0  0  0  0  0  0  0  0
   -0.4777   -1.7695    1.4945 H   0  0  0  0  0  0  0  0  0  0  0  0
   -0.4504   -3.6979    0.1463 H   0  0  0  0  0  0  0  0  0  0  0  0
  1  2  2  0  0  0  0
  2  3  1  0  0  0  0
  2  4  1  0  0  0  0
  4  5  1  0  0  0  0
  5  6  1  0  0  0  0
  6  7  1  0  0  0  0
  7  8  1  0  0  0  0
  7  9  1  0  0  0  0
  9 10  1  0  0  0  0
  5 11  1  0  0  0  0
 10 11  1  0  0  0  0
 11 12  1  0  0  0  0
  1 13  1  0  0  0  0
  1 14  1  0  0  0  0
  3 15  1  0  0  0  0
  3 16  1  0  0  0  0
  3 17  1  0  0  0  0
  4 18  1  0  0  0  0
  4 19  1  0  0  0  0
  5 20  1  0  0  0  0
  6 21  1  0  0  0  0
  6 22  1  0  0  0  0
  7 23  1  0  0  0  0
  8 24  1  0  0  0  0
  8 25  1  0  0  0  0
  8 26  1  0  0  0  0
  9 27  1  0  0  0  0
  9 28  1  0  0  0  0
 10 29  1  0  0  0  0
 10 30  1  0  0  0  0
 11 31  1  0  0  0  0
 12 32  1  0  0  0  0
M  END
