 xtb: 6.7.1 (edcfbbe)
          07092618043D

 28 28  0     0  0            999 V2000
    4.9541   -0.4783   -0.9909 C   0  0  0  0  0  0  0  0  0  0  0  0
    3.8191    0.4331   -0.5407 C   0  0  0  0  0  0  0  0  0  0  0  0
    2.4744   -0.2899   -0.5550 C   0  0  0  0  0  0  0  0  0  0  0  0
    1.3332    0.6173   -0.1052 C   0  0  0  0  0  0  0  0  0  0  0  0
   -0.0052   -0.1131   -0.1226 C   0  0  0  0  0  0  0  0  0  0  0  0
   -1.0005    0.7929    0.3046 O   0  0  0  0  0  0  0  0  0  0  0  0
   -2.2916    0.3681    0.3727 C   0  0  0  0  0  0  0  0  0  0  0  0
   -2.7301   -0.9117    0.0510 C   0  0  0  0  0  0  0  0  0  0  0  0
   -4.0750   -1.2272    0.1605 C   0  0  0  0  0  0  0  0  0  0  0  0
   -4.9915   -0.2853    0.5866 C   0  0  0  0  0  0  0  0  0  0  0  0
   -4.5556    0.9913    0.9078 C   0  0  0  0  0  0  0  0  0  0  0  0
   -3.2203    1.3178    0.8030 C   0  0  0  0  0  0  0  0  0  0  0  0
    5.0335   -1.3419   -0.3341 H   0  0  0  0  0  0  0  0  0  0  0  0
    4.7785   -0.8348   -2.0036 H   0  0  0  0  0  0  0  0  0  0  0  0
    5.9023    0.0536   -0.9741 H   0  0  0  0  0  0  0  0  0  0  0  0
    3.7677    1.3023   -1.1998 H   0  0  0  0  0  0  0  0  0  0  0  0
    4.0225    0.7954    0.4692 H   0  0  0  0  0  0  0  0  0  0  0  0
    2.2716   -0.6530   -1.5655 H   0  0  0  0  0  0  0  0  0  0  0  0
    2.5266   -1.1600    0.1040 H   0  0  0  0  0  0  0  0  0  0  0  0
    1.2645    1.4865   -0.7614 H   0  0  0  0  0  0  0  0  0  0  0  0
    1.5193    0.9797    0.9073 H   0  0  0  0  0  0  0  0  0  0  0  0
   -0.2258   -0.4686   -1.1394 H   0  0  0  0  0  0  0  0  0  0  0  0
    0.0323   -0.9818    0.5503 H   0  0  0  0  0  0  0  0  0  0  0  0
   -2.0383   -1.6685   -0.2846 H   0  0  0  0  0  0  0  0  0  0  0  0
   -4.4026   -2.2251   -0.0926 H   0  0  0  0  0  0  0  0  0  0  0  0
   -6.0370   -0.5408    0.6686 H   0  0  0  0  0  0  0  0  0  0  0  0
   -5.2626    1.7363    1.2420 H   0  0  0  0  0  0  0  0  0  0  0  0
   -2.8636    2.3058    1.0486 H   0  0  0  0  0  0  0  0  0  0  0  0
  1  2  1  0  0  0  0
  2  3  1  0  0  0  0
  3  4  1  0  0  0  0
  4  5  1  0  0  0  0
  5  6  1  0  0  0  0
  6  7  1  0  0  0  0
  7  8  4  0  0  0  0
  8  9  4  0  0  0  0
  9 10  4  0  0  0  0
 10 11  4  0  0  0  0
  7 12  4  0  0  0  0
 11 12  4  0  0  0  0
  1 13  1  0  0  0  0
  1 14  1  0  0  0  0
  1 15  1  0  0  0  0
  2 16  1  0  0  0  0
  2 17  1  0  0  0  0
  3 18  1  0  0  0  0
  3 19  1  0  0  0  0
  4 20  1  0  0  0  0
  4 21  1  0  0  0  0
  5 22  1  0  0  0  0
  5 23  1  0  0  0  0
  8 24  1  0  0  0  0
  9 25  1  0  0  0  0
 10 26  1  0  0  0  0
 11 27  1  0  0  0  0
 12 28  1  0  0  0  0
M  END
