 xtb: 6.7.1 (edcfbbe)
          07092619083D

 28 28  0     0  0            999 V2000
    3.7670    0.1340   -0.5686 C   0  0  0  0  0  0  0  0  0  0  0  0
    2.9808   -1.1671   -0.6333 C   0  0  0  0  0  0  0  0  0  0  0  0
    1.7902   -1.0899    0.1519 O   0  0  0  0  0  0  0  0  0  0  0  0
    0.7308   -0.5178   -0.4096 C   0  0  0  0  0  0  0  0  0  0  0  0
    0.7043   -0.1141   -1.5452 O   0  0  0  0  0  0  0  0  0  0  0  0
   -0.4403   -0.4849    0.5492 C   0  0  0  0  0  0  0  0  0  0  0  0
   -1.5271    0.5654    0.2769 C   0  0  0  0  0  0  0  0  0  0  0  0
   -0.8540    1.9371    0.1487 C   0  0  0  0  0  0  0  0  0  0  0  0
   -2.2641    0.2103   -1.0172 C   0  0  0  0  0  0  0  0  0  0  0  0
   -2.5244    0.6170    1.4393 C   0  0  0  0  0  0  0  0  0  0  0  0
   -0.7472   -1.7779    1.1930 C   0  0  0  0  0  0  0  0  0  0  0  0
   -0.0997   -0.7573    1.8819 O   0  0  0  0  0  0  0  0  0  0  0  0
    3.9838    0.3878    0.4661 H   0  0  0  0  0  0  0  0  0  0  0  0
    3.1903    0.9393   -1.0165 H   0  0  0  0  0  0  0  0  0  0  0  0
    4.7004    0.0239   -1.1131 H   0  0  0  0  0  0  0  0  0  0  0  0
    3.5494   -1.9935   -0.2020 H   0  0  0  0  0  0  0  0  0  0  0  0
    2.7086   -1.3967   -1.6692 H   0  0  0  0  0  0  0  0  0  0  0  0
   -0.2877    2.1612    1.0502 H   0  0  0  0  0  0  0  0  0  0  0  0
   -1.6071    2.7088    0.0092 H   0  0  0  0  0  0  0  0  0  0  0  0
   -0.1822    1.9579   -0.7043 H   0  0  0  0  0  0  0  0  0  0  0  0
   -2.7179   -0.7759   -0.9424 H   0  0  0  0  0  0  0  0  0  0  0  0
   -3.0485    0.9398   -1.2030 H   0  0  0  0  0  0  0  0  0  0  0  0
   -1.5783    0.2138   -1.8586 H   0  0  0  0  0  0  0  0  0  0  0  0
   -1.9986    0.6882    2.3881 H   0  0  0  0  0  0  0  0  0  0  0  0
   -3.1632   -0.2629    1.4557 H   0  0  0  0  0  0  0  0  0  0  0  0
   -3.1624    1.4901    1.3294 H   0  0  0  0  0  0  0  0  0  0  0  0
   -0.1398   -2.6440    0.9537 H   0  0  0  0  0  0  0  0  0  0  0  0
   -1.7630   -1.9927    1.4998 H   0  0  0  0  0  0  0  0  0  0  0  0
  1  2  1  0  0  0  0
  2  3  1  0  0  0  0
  3  4  1  0  0  0  0
  4  5  2  0  0  0  0
  4  6  1  0  0  0  0
  6  7  1  0  0  0  0
  7  8  1  0  0  0  0
  7  9  1  0  0  0  0
  7 10  1  0  0  0  0
  6 11  1  0  0  0  0
  6 12  1  0  0  0  0
 11 12  1  0  0  0  0
  1 13  1  0  0  0  0
  1 14  1  0  0  0  0
  1 15  1  0  0  0  0
  2 16  1  0  0  0  0
  2 17  1  0  0  0  0
  8 18  1  0  0  0  0
  8 19  1  0  0  0  0
  8 20  1  0  0  0  0
  9 21  1  0  0  0  0
  9 22  1  0  0  0  0
  9 23  1  0  0  0  0
 10 24  1  0  0  0  0
 10 25  1  0  0  0  0
 10 26  1  0  0  0  0
 11 27  1  0  0  0  0
 11 28  1  0  0  0  0
M  END
