 xtb: 6.7.1 (edcfbbe)
          07072603593D

 36 35  0     0  0            999 V2000
    5.5075   -0.6344    1.5247 C   0  0  0  0  0  0  0  0  0  0  0  0
    4.6658   -0.1152    0.3666 C   0  0  0  0  0  0  0  0  0  0  0  0
    3.3242   -0.8296    0.2965 C   0  0  0  0  0  0  0  0  0  0  0  0
    2.5868   -0.3025   -0.8073 O   0  0  0  0  0  0  0  0  0  0  0  0
    1.3052   -0.6502   -0.8963 C   0  0  0  0  0  0  0  0  0  0  0  0
    0.7568   -1.3961   -0.1244 O   0  0  0  0  0  0  0  0  0  0  0  0
    0.6448   -0.0038   -2.0946 C   0  0  0  0  0  0  0  0  0  0  0  0
   -0.8717   -0.0814   -1.9513 C   0  0  0  0  0  0  0  0  0  0  0  0
   -1.3128    0.8740   -0.8440 C   0  0  0  0  0  0  0  0  0  0  0  0
   -0.6673    1.8768   -0.5942 O   0  0  0  0  0  0  0  0  0  0  0  0
   -2.4567    0.5846   -0.1850 N   0  0  0  0  0  0  0  0  0  0  0  0
   -3.2484   -0.6123   -0.3738 C   0  0  0  0  0  0  0  0  0  0  0  0
   -2.7412   -1.7722    0.4854 C   0  0  0  0  0  0  0  0  0  0  0  0
   -2.8776    1.4803    0.8789 C   0  0  0  0  0  0  0  0  0  0  0  0
   -3.9239    2.4795    0.3934 C   0  0  0  0  0  0  0  0  0  0  0  0
    6.4606   -0.1136    1.5601 H   0  0  0  0  0  0  0  0  0  0  0  0
    4.9941   -0.4781    2.4704 H   0  0  0  0  0  0  0  0  0  0  0  0
    5.7004   -1.6987    1.4114 H   0  0  0  0  0  0  0  0  0  0  0  0
    4.4859    0.9544    0.4833 H   0  0  0  0  0  0  0  0  0  0  0  0
    5.1926   -0.2648   -0.5772 H   0  0  0  0  0  0  0  0  0  0  0  0
    3.4576   -1.9085    0.1522 H   0  0  0  0  0  0  0  0  0  0  0  0
    2.7447   -0.6792    1.2142 H   0  0  0  0  0  0  0  0  0  0  0  0
    0.9715    1.0354   -2.1438 H   0  0  0  0  0  0  0  0  0  0  0  0
    0.9843   -0.5207   -2.9942 H   0  0  0  0  0  0  0  0  0  0  0  0
   -1.1481   -1.1083   -1.7272 H   0  0  0  0  0  0  0  0  0  0  0  0
   -1.3549    0.2296   -2.8804 H   0  0  0  0  0  0  0  0  0  0  0  0
   -3.2520   -0.8911   -1.4292 H   0  0  0  0  0  0  0  0  0  0  0  0
   -4.2794   -0.3745   -0.0977 H   0  0  0  0  0  0  0  0  0  0  0  0
   -3.2920   -2.6796    0.2519 H   0  0  0  0  0  0  0  0  0  0  0  0
   -2.8756   -1.5485    1.5409 H   0  0  0  0  0  0  0  0  0  0  0  0
   -1.6814   -1.9430    0.3129 H   0  0  0  0  0  0  0  0  0  0  0  0
   -1.9917    2.0201    1.2200 H   0  0  0  0  0  0  0  0  0  0  0  0
   -3.2718    0.8838    1.7053 H   0  0  0  0  0  0  0  0  0  0  0  0
   -4.2221    3.1307    1.2106 H   0  0  0  0  0  0  0  0  0  0  0  0
   -4.8075    1.9685    0.0161 H   0  0  0  0  0  0  0  0  0  0  0  0
   -3.5065    3.0886   -0.4040 H   0  0  0  0  0  0  0  0  0  0  0  0
  1  2  1  0  0  0  0
  2  3  1  0  0  0  0
  3  4  1  0  0  0  0
  4  5  1  0  0  0  0
  5  6  2  0  0  0  0
  5  7  1  0  0  0  0
  7  8  1  0  0  0  0
  8  9  1  0  0  0  0
  9 10  2  0  0  0  0
  9 11  4  0  0  0  0
 11 12  1  0  0  0  0
 12 13  1  0  0  0  0
 11 14  1  0  0  0  0
 14 15  1  0  0  0  0
  1 16  1  0  0  0  0
  1 17  1  0  0  0  0
  1 18  1  0  0  0  0
  2 19  1  0  0  0  0
  2 20  1  0  0  0  0
  3 21  1  0  0  0  0
  3 22  1  0  0  0  0
  7 23  1  0  0  0  0
  7 24  1  0  0  0  0
  8 25  1  0  0  0  0
  8 26  1  0  0  0  0
 12 27  1  0  0  0  0
 12 28  1  0  0  0  0
 13 29  1  0  0  0  0
 13 30  1  0  0  0  0
 13 31  1  0  0  0  0
 14 32  1  0  0  0  0
 14 33  1  0  0  0  0
 15 34  1  0  0  0  0
 15 35  1  0  0  0  0
 15 36  1  0  0  0  0
M  END
