 xtb: 6.7.1 (edcfbbe)
          07082617173D

 13 12  0     0  0            999 V2000
   -1.0129    1.3799   -0.0098 O   0  0  0  0  0  0  0  0  0  0  0  0
   -1.1760    0.0036    0.2843 C   0  0  0  0  0  0  0  0  0  0  0  0
    0.1516   -0.5676    0.7788 C   0  0  0  0  0  0  0  0  0  0  0  0
    1.2430   -0.4936   -0.2924 C   0  0  0  0  0  0  0  0  0  0  0  0
    1.7123    0.8119   -0.4994 O   0  0  0  0  0  0  0  0  0  0  0  0
   -1.8553    1.7483   -0.2923 H   0  0  0  0  0  0  0  0  0  0  0  0
   -1.4980   -0.5382   -0.6172 H   0  0  0  0  0  0  0  0  0  0  0  0
   -1.9432   -0.1294    1.0598 H   0  0  0  0  0  0  0  0  0  0  0  0
   -0.0060   -1.6061    1.0710 H   0  0  0  0  0  0  0  0  0  0  0  0
    0.4791   -0.0001    1.6511 H   0  0  0  0  0  0  0  0  0  0  0  0
    2.1106   -1.0834    0.0167 H   0  0  0  0  0  0  0  0  0  0  0  0
    0.8571   -0.9172   -1.2344 H   0  0  0  0  0  0  0  0  0  0  0  0
    0.9378    1.3920   -0.5197 H   0  0  0  0  0  0  0  0  0  0  0  0
  1  2  1  0  0  0  0
  2  3  1  0  0  0  0
  3  4  1  0  0  0  0
  4  5  1  0  0  0  0
  1  6  1  0  0  0  0
  2  7  1  0  0  0  0
  2  8  1  0  0  0  0
  3  9  1  0  0  0  0
  3 10  1  0  0  0  0
  4 11  1  0  0  0  0
  4 12  1  0  0  0  0
  5 13  1  0  0  0  0
M  END
