 xtb: 6.7.1 (edcfbbe)
          07092611253D

 29 29  0     0  0            999 V2000
   -1.4874   -2.4116    1.0429 C   0  0  0  0  0  0  0  0  0  0  0  0
   -0.7051   -1.1283    0.7936 C   0  0  0  0  0  0  0  0  0  0  0  0
    0.5919   -1.3916    0.0273 C   0  0  0  0  0  0  0  0  0  0  0  0
    1.2653   -0.0673   -0.3664 C   0  0  0  0  0  0  0  0  0  0  0  0
    2.2589   -0.3085   -1.5091 C   0  0  0  0  0  0  0  0  0  0  0  0
    2.0248    0.5456    0.8207 C   0  0  0  0  0  0  0  0  0  0  0  0
    0.3075    0.8373   -0.9170 O   0  0  0  0  0  0  0  0  0  0  0  0
   -0.9719    0.9647   -0.3321 C   0  0  0  0  0  0  0  0  0  0  0  0
   -0.9711    1.9541    0.8492 C   0  0  0  0  0  0  0  0  0  0  0  0
   -1.8663    1.5163   -1.4493 C   0  0  0  0  0  0  0  0  0  0  0  0
   -1.5398   -0.2738    0.0309 O   0  0  0  0  0  0  0  0  0  0  0  0
   -1.7420   -2.8767    0.0947 H   0  0  0  0  0  0  0  0  0  0  0  0
   -0.8923   -3.1013    1.6352 H   0  0  0  0  0  0  0  0  0  0  0  0
   -2.4079   -2.1830    1.5724 H   0  0  0  0  0  0  0  0  0  0  0  0
   -0.4757   -0.6593    1.7646 H   0  0  0  0  0  0  0  0  0  0  0  0
    0.3403   -1.9433   -0.8810 H   0  0  0  0  0  0  0  0  0  0  0  0
    1.2748   -1.9908    0.6291 H   0  0  0  0  0  0  0  0  0  0  0  0
    2.7728    0.6181   -1.7482 H   0  0  0  0  0  0  0  0  0  0  0  0
    2.9870   -1.0624   -1.2228 H   0  0  0  0  0  0  0  0  0  0  0  0
    1.7260   -0.6421   -2.3951 H   0  0  0  0  0  0  0  0  0  0  0  0
    2.2794    1.5773    0.5923 H   0  0  0  0  0  0  0  0  0  0  0  0
    2.9419   -0.0128    0.9904 H   0  0  0  0  0  0  0  0  0  0  0  0
    1.4418    0.5254    1.7366 H   0  0  0  0  0  0  0  0  0  0  0  0
   -0.4724    1.5459    1.7222 H   0  0  0  0  0  0  0  0  0  0  0  0
   -0.4598    2.8634    0.5476 H   0  0  0  0  0  0  0  0  0  0  0  0
   -1.9982    2.1861    1.1163 H   0  0  0  0  0  0  0  0  0  0  0  0
   -1.5000    2.4886   -1.7608 H   0  0  0  0  0  0  0  0  0  0  0  0
   -2.8871    1.5955   -1.0908 H   0  0  0  0  0  0  0  0  0  0  0  0
   -1.8355    0.8344   -2.2934 H   0  0  0  0  0  0  0  0  0  0  0  0
  1  2  1  0  0  0  0
  2  3  1  0  0  0  0
  3  4  1  0  0  0  0
  4  5  1  0  0  0  0
  4  6  1  0  0  0  0
  4  7  1  0  0  0  0
  7  8  1  0  0  0  0
  8  9  1  0  0  0  0
  8 10  1  0  0  0  0
  2 11  1  0  0  0  0
  8 11  1  0  0  0  0
  1 12  1  0  0  0  0
  1 13  1  0  0  0  0
  1 14  1  0  0  0  0
  2 15  1  0  0  0  0
  3 16  1  0  0  0  0
  3 17  1  0  0  0  0
  5 18  1  0  0  0  0
  5 19  1  0  0  0  0
  5 20  1  0  0  0  0
  6 21  1  0  0  0  0
  6 22  1  0  0  0  0
  6 23  1  0  0  0  0
  9 24  1  0  0  0  0
  9 25  1  0  0  0  0
  9 26  1  0  0  0  0
 10 27  1  0  0  0  0
 10 28  1  0  0  0  0
 10 29  1  0  0  0  0
M  END
