 xtb: 6.7.1 (edcfbbe)
          07092611123D

 23 23  0     0  0            999 V2000
   -3.7174   -0.2144   -0.7764 O   0  0  0  0  0  0  0  0  0  0  0  0
   -3.0018   -0.9505    0.1782 C   0  0  0  0  0  0  0  0  0  0  0  0
   -1.4917   -0.9412   -0.0737 C   0  0  0  0  0  0  0  0  0  0  0  0
   -0.8522    0.4127    0.2701 C   0  0  0  0  0  0  0  0  0  0  0  0
   -1.4345    1.4027   -0.5640 O   0  0  0  0  0  0  0  0  0  0  0  0
    0.6456    0.3235    0.0914 C   0  0  0  0  0  0  0  0  0  0  0  0
    1.2080    0.5071   -1.1650 C   0  0  0  0  0  0  0  0  0  0  0  0
    2.5762    0.4038   -1.3409 C   0  0  0  0  0  0  0  0  0  0  0  0
    3.3938    0.1119   -0.2627 C   0  0  0  0  0  0  0  0  0  0  0  0
    2.8386   -0.0749    0.9922 C   0  0  0  0  0  0  0  0  0  0  0  0
    1.4708    0.0318    1.1691 C   0  0  0  0  0  0  0  0  0  0  0  0
   -3.2407    0.6178   -0.9074 H   0  0  0  0  0  0  0  0  0  0  0  0
   -3.3810   -1.9748    0.1194 H   0  0  0  0  0  0  0  0  0  0  0  0
   -3.2040   -0.5661    1.1916 H   0  0  0  0  0  0  0  0  0  0  0  0
   -1.3076   -1.1562   -1.1275 H   0  0  0  0  0  0  0  0  0  0  0  0
   -1.0126   -1.7116    0.5314 H   0  0  0  0  0  0  0  0  0  0  0  0
   -1.0771    0.6510    1.3242 H   0  0  0  0  0  0  0  0  0  0  0  0
   -0.9548    2.2294   -0.4475 H   0  0  0  0  0  0  0  0  0  0  0  0
    0.5648    0.7326   -2.0036 H   0  0  0  0  0  0  0  0  0  0  0  0
    3.0039    0.5486   -2.3220 H   0  0  0  0  0  0  0  0  0  0  0  0
    4.4619    0.0302   -0.3992 H   0  0  0  0  0  0  0  0  0  0  0  0
    3.4732   -0.3016    1.8363 H   0  0  0  0  0  0  0  0  0  0  0  0
    1.0384   -0.1120    2.1493 H   0  0  0  0  0  0  0  0  0  0  0  0
  1  2  1  0  0  0  0
  2  3  1  0  0  0  0
  3  4  1  0  0  0  0
  4  5  1  0  0  0  0
  4  6  1  0  0  0  0
  6  7  4  0  0  0  0
  7  8  4  0  0  0  0
  8  9  4  0  0  0  0
  9 10  4  0  0  0  0
  6 11  4  0  0  0  0
 10 11  4  0  0  0  0
  1 12  1  0  0  0  0
  2 13  1  0  0  0  0
  2 14  1  0  0  0  0
  3 15  1  0  0  0  0
  3 16  1  0  0  0  0
  4 17  1  0  0  0  0
  5 18  1  0  0  0  0
  7 19  1  0  0  0  0
  8 20  1  0  0  0  0
  9 21  1  0  0  0  0
 10 22  1  0  0  0  0
 11 23  1  0  0  0  0
M  END
