 xtb: 6.7.1 (edcfbbe)
          07082623483D

 20 20  0     0  0            999 V2000
    1.1194   -0.4874    2.8122 C   0  0  0  0  0  0  0  0  0  0  0  0
    0.4395   -0.8526    1.6388 O   0  0  0  0  0  0  0  0  0  0  0  0
    0.3250    0.0724    0.6436 C   0  0  0  0  0  0  0  0  0  0  0  0
    0.8282    1.3604    0.6891 C   0  0  0  0  0  0  0  0  0  0  0  0
    0.6544    2.2243   -0.3849 C   0  0  0  0  0  0  0  0  0  0  0  0
   -0.0228    1.8033   -1.5072 C   0  0  0  0  0  0  0  0  0  0  0  0
   -0.5344    0.5131   -1.5693 C   0  0  0  0  0  0  0  0  0  0  0  0
   -0.3701   -0.3599   -0.5085 C   0  0  0  0  0  0  0  0  0  0  0  0
   -0.8308   -1.6425   -0.4666 O   0  0  0  0  0  0  0  0  0  0  0  0
   -1.5307   -2.1353   -1.5800 C   0  0  0  0  0  0  0  0  0  0  0  0
    0.6283    0.3493    3.3209 H   0  0  0  0  0  0  0  0  0  0  0  0
    2.1637   -0.2254    2.6101 H   0  0  0  0  0  0  0  0  0  0  0  0
    1.0880   -1.3660    3.4548 H   0  0  0  0  0  0  0  0  0  0  0  0
    1.3613    1.7081    1.5596 H   0  0  0  0  0  0  0  0  0  0  0  0
    1.0545    3.2252   -0.3298 H   0  0  0  0  0  0  0  0  0  0  0  0
   -0.1616    2.4690   -2.3453 H   0  0  0  0  0  0  0  0  0  0  0  0
   -1.0619    0.2013   -2.4566 H   0  0  0  0  0  0  0  0  0  0  0  0
   -1.7979   -3.1605   -1.3282 H   0  0  0  0  0  0  0  0  0  0  0  0
   -2.4439   -1.5611   -1.7708 H   0  0  0  0  0  0  0  0  0  0  0  0
   -0.9085   -2.1358   -2.4816 H   0  0  0  0  0  0  0  0  0  0  0  0
  1  2  1  0  0  0  0
  2  3  1  0  0  0  0
  3  4  4  0  0  0  0
  4  5  4  0  0  0  0
  5  6  4  0  0  0  0
  6  7  4  0  0  0  0
  3  8  4  0  0  0  0
  7  8  4  0  0  0  0
  8  9  1  0  0  0  0
  9 10  1  0  0  0  0
  1 11  1  0  0  0  0
  1 12  1  0  0  0  0
  1 13  1  0  0  0  0
  4 14  1  0  0  0  0
  5 15  1  0  0  0  0
  6 16  1  0  0  0  0
  7 17  1  0  0  0  0
 10 18  1  0  0  0  0
 10 19  1  0  0  0  0
 10 20  1  0  0  0  0
M  END
