 xtb: 6.7.1 (edcfbbe)
          07082608533D

 28 27  0     0  0            999 V2000
    1.6385   -1.7552   -0.4165 C   0  0  0  0  0  0  0  0  0  0  0  0
    1.2444   -0.2853   -0.2767 C   0  0  0  0  0  0  0  0  0  0  0  0
    2.4288    0.4866    0.3186 C   0  0  0  0  0  0  0  0  0  0  0  0
    2.3403    1.9756    0.1674 C   0  0  0  0  0  0  0  0  0  0  0  0
    1.5475    2.5807   -0.4955 O   0  0  0  0  0  0  0  0  0  0  0  0
    0.0001   -0.1056    0.6106 C   0  0  0  0  0  0  0  0  0  0  0  0
   -1.3643   -0.0078   -0.1004 C   0  0  0  0  0  0  0  0  0  0  0  0
   -1.4424    1.2645   -0.9461 C   0  0  0  0  0  0  0  0  0  0  0  0
   -1.6423   -1.2238   -0.9855 C   0  0  0  0  0  0  0  0  0  0  0  0
   -2.4434    0.0614    0.9872 C   0  0  0  0  0  0  0  0  0  0  0  0
    1.9285   -2.1612    0.5513 H   0  0  0  0  0  0  0  0  0  0  0  0
    2.4805   -1.8634   -1.0979 H   0  0  0  0  0  0  0  0  0  0  0  0
    0.8152   -2.3482   -0.8001 H   0  0  0  0  0  0  0  0  0  0  0  0
    1.0474    0.1290   -1.2681 H   0  0  0  0  0  0  0  0  0  0  0  0
    3.3604    0.1901   -0.1764 H   0  0  0  0  0  0  0  0  0  0  0  0
    2.5508    0.2500    1.3790 H   0  0  0  0  0  0  0  0  0  0  0  0
    3.1321    2.5114    0.7342 H   0  0  0  0  0  0  0  0  0  0  0  0
   -0.0382   -0.9328    1.3244 H   0  0  0  0  0  0  0  0  0  0  0  0
    0.1158    0.8143    1.1883 H   0  0  0  0  0  0  0  0  0  0  0  0
   -0.7261    1.2445   -1.7622 H   0  0  0  0  0  0  0  0  0  0  0  0
   -1.2300    2.1419   -0.3408 H   0  0  0  0  0  0  0  0  0  0  0  0
   -2.4375    1.3708   -1.3728 H   0  0  0  0  0  0  0  0  0  0  0  0
   -2.6490   -1.1613   -1.3940 H   0  0  0  0  0  0  0  0  0  0  0  0
   -1.5678   -2.1450   -0.4111 H   0  0  0  0  0  0  0  0  0  0  0  0
   -0.9465   -1.2689   -1.8190 H   0  0  0  0  0  0  0  0  0  0  0  0
   -3.4296    0.1616    0.5395 H   0  0  0  0  0  0  0  0  0  0  0  0
   -2.4361   -0.8403    1.5965 H   0  0  0  0  0  0  0  0  0  0  0  0
   -2.2772    0.9166    1.6385 H   0  0  0  0  0  0  0  0  0  0  0  0
  1  2  1  0  0  0  0
  2  3  1  0  0  0  0
  3  4  1  0  0  0  0
  4  5  2  0  0  0  0
  2  6  1  0  0  0  0
  6  7  1  0  0  0  0
  7  8  1  0  0  0  0
  7  9  1  0  0  0  0
  7 10  1  0  0  0  0
  1 11  1  0  0  0  0
  1 12  1  0  0  0  0
  1 13  1  0  0  0  0
  2 14  1  0  0  0  0
  3 15  1  0  0  0  0
  3 16  1  0  0  0  0
  4 17  1  0  0  0  0
  6 18  1  0  0  0  0
  6 19  1  0  0  0  0
  8 20  1  0  0  0  0
  8 21  1  0  0  0  0
  8 22  1  0  0  0  0
  9 23  1  0  0  0  0
  9 24  1  0  0  0  0
  9 25  1  0  0  0  0
 10 26  1  0  0  0  0
 10 27  1  0  0  0  0
 10 28  1  0  0  0  0
M  END
