 xtb: 6.7.1 (edcfbbe)
          07082620313D

 11 10  0     0  0            999 V2000
    1.4518    0.0145   -1.4135 F   0  0  0  0  0  0  0  0  0  0  0  0
    1.3031    0.0355   -0.0714 C   0  0  0  0  0  0  0  0  0  0  0  0
    1.5137    1.2993    0.3006 F   0  0  0  0  0  0  0  0  0  0  0  0
    2.5655   -0.9918    0.6493 Cl  0  0  0  0  0  0  0  0  0  0  0  0
   -0.0934   -0.4811    0.2941 C   0  0  0  0  0  0  0  0  0  0  0  0
   -0.2785   -0.4291    2.0601 Cl  0  0  0  0  0  0  0  0  0  0  0  0
   -1.2041    0.3090   -0.3972 C   0  0  0  0  0  0  0  0  0  0  0  0
   -1.3619    1.9469    0.2657 Cl  0  0  0  0  0  0  0  0  0  0  0  0
   -2.7366   -0.5681   -0.1983 Cl  0  0  0  0  0  0  0  0  0  0  0  0
   -0.1514   -1.5288   -0.0196 H   0  0  0  0  0  0  0  0  0  0  0  0
   -1.0081    0.3938   -1.4698 H   0  0  0  0  0  0  0  0  0  0  0  0
  1  2  1  0  0  0  0
  2  3  1  0  0  0  0
  2  4  1  0  0  0  0
  2  5  1  0  0  0  0
  5  6  1  0  0  0  0
  5  7  1  0  0  0  0
  7  8  1  0  0  0  0
  7  9  1  0  0  0  0
  5 10  1  0  0  0  0
  7 11  1  0  0  0  0
M  END
