 xtb: 6.7.1 (edcfbbe)
          07092615023D

 30 30  0     0  0            999 V2000
    3.4882    0.8553   -1.3610 C   0  0  0  0  0  0  0  0  0  0  0  0
    3.8616    0.6465    0.1014 C   0  0  0  0  0  0  0  0  0  0  0  0
    2.9085   -0.3332    0.7885 C   0  0  0  0  0  0  0  0  0  0  0  0
    1.5181    0.2551    0.8956 C   0  0  0  0  0  0  0  0  0  0  0  0
    1.2687    1.3617    1.2977 O   0  0  0  0  0  0  0  0  0  0  0  0
    0.5975   -0.6240    0.4966 O   0  0  0  0  0  0  0  0  0  0  0  0
   -0.7785   -0.2170    0.5430 C   0  0  0  0  0  0  0  0  0  0  0  0
   -1.1586    0.4960   -0.7538 C   0  0  0  0  0  0  0  0  0  0  0  0
   -2.6406    0.8568   -0.7409 C   0  0  0  0  0  0  0  0  0  0  0  0
   -3.4952   -0.3912   -0.5407 C   0  0  0  0  0  0  0  0  0  0  0  0
   -3.1098   -1.0966    0.7562 C   0  0  0  0  0  0  0  0  0  0  0  0
   -1.6294   -1.4654    0.7459 C   0  0  0  0  0  0  0  0  0  0  0  0
    2.4880    1.2757   -1.4392 H   0  0  0  0  0  0  0  0  0  0  0  0
    3.5077   -0.0894   -1.9011 H   0  0  0  0  0  0  0  0  0  0  0  0
    4.1854    1.5399   -1.8383 H   0  0  0  0  0  0  0  0  0  0  0  0
    3.8181    1.6007    0.6292 H   0  0  0  0  0  0  0  0  0  0  0  0
    4.8811    0.2622    0.1701 H   0  0  0  0  0  0  0  0  0  0  0  0
    3.2568   -0.5326    1.8047 H   0  0  0  0  0  0  0  0  0  0  0  0
    2.8514   -1.2763    0.2447 H   0  0  0  0  0  0  0  0  0  0  0  0
   -0.9004    0.4742    1.3873 H   0  0  0  0  0  0  0  0  0  0  0  0
   -0.9407   -0.1671   -1.5944 H   0  0  0  0  0  0  0  0  0  0  0  0
   -0.5502    1.3963   -0.8599 H   0  0  0  0  0  0  0  0  0  0  0  0
   -2.8318    1.5623    0.0706 H   0  0  0  0  0  0  0  0  0  0  0  0
   -2.9054    1.3457   -1.6801 H   0  0  0  0  0  0  0  0  0  0  0  0
   -4.5515   -0.1171   -0.5140 H   0  0  0  0  0  0  0  0  0  0  0  0
   -3.3463   -1.0721   -1.3817 H   0  0  0  0  0  0  0  0  0  0  0  0
   -3.7100   -1.9992    0.8846 H   0  0  0  0  0  0  0  0  0  0  0  0
   -3.3118   -0.4356    1.6020 H   0  0  0  0  0  0  0  0  0  0  0  0
   -1.3485   -1.9491    1.6831 H   0  0  0  0  0  0  0  0  0  0  0  0
   -1.4224   -2.1623   -0.0685 H   0  0  0  0  0  0  0  0  0  0  0  0
  1  2  1  0  0  0  0
  2  3  1  0  0  0  0
  3  4  1  0  0  0  0
  4  5  2  0  0  0  0
  4  6  1  0  0  0  0
  6  7  1  0  0  0  0
  7  8  1  0  0  0  0
  8  9  1  0  0  0  0
  9 10  1  0  0  0  0
 10 11  1  0  0  0  0
  7 12  1  0  0  0  0
 11 12  1  0  0  0  0
  1 13  1  0  0  0  0
  1 14  1  0  0  0  0
  1 15  1  0  0  0  0
  2 16  1  0  0  0  0
  2 17  1  0  0  0  0
  3 18  1  0  0  0  0
  3 19  1  0  0  0  0
  7 20  1  0  0  0  0
  8 21  1  0  0  0  0
  8 22  1  0  0  0  0
  9 23  1  0  0  0  0
  9 24  1  0  0  0  0
 10 25  1  0  0  0  0
 10 26  1  0  0  0  0
 11 27  1  0  0  0  0
 11 28  1  0  0  0  0
 12 29  1  0  0  0  0
 12 30  1  0  0  0  0
M  END
