 xtb: 6.7.1 (edcfbbe)
          07082601483D

 31 31  0     0  0            999 V2000
   -4.2817   -1.2226   -0.2003 C   0  0  0  0  0  0  0  0  0  0  0  0
   -3.0952   -1.0248    0.7349 C   0  0  0  0  0  0  0  0  0  0  0  0
   -1.9953   -0.1972    0.0765 C   0  0  0  0  0  0  0  0  0  0  0  0
   -0.8181    0.0251    1.0272 C   0  0  0  0  0  0  0  0  0  0  0  0
    0.2734    0.7642    0.4037 N   0  0  0  0  0  0  0  0  0  0  0  0
    0.0770    2.0972    0.1866 C   0  0  0  0  0  0  0  0  0  0  0  0
    1.1146    2.8232   -0.6416 C   0  0  0  0  0  0  0  0  0  0  0  0
   -0.9171    2.6590    0.6011 O   0  0  0  0  0  0  0  0  0  0  0  0
    1.4628    0.0664    0.1173 C   0  0  0  0  0  0  0  0  0  0  0  0
    1.4204   -1.1362   -0.5833 C   0  0  0  0  0  0  0  0  0  0  0  0
    2.5847   -1.8378   -0.8362 C   0  0  0  0  0  0  0  0  0  0  0  0
    3.8042   -1.3529   -0.3954 C   0  0  0  0  0  0  0  0  0  0  0  0
    3.8510   -0.1653    0.3152 C   0  0  0  0  0  0  0  0  0  0  0  0
    2.6899    0.5372    0.5786 C   0  0  0  0  0  0  0  0  0  0  0  0
   -3.9731   -1.7395   -1.1066 H   0  0  0  0  0  0  0  0  0  0  0  0
   -5.0570   -1.8118    0.2835 H   0  0  0  0  0  0  0  0  0  0  0  0
   -4.7054   -0.2616   -0.4824 H   0  0  0  0  0  0  0  0  0  0  0  0
   -3.4291   -0.5191    1.6430 H   0  0  0  0  0  0  0  0  0  0  0  0
   -2.6934   -1.9991    1.0255 H   0  0  0  0  0  0  0  0  0  0  0  0
   -1.6519   -0.7016   -0.8297 H   0  0  0  0  0  0  0  0  0  0  0  0
   -2.3933    0.7765   -0.2120 H   0  0  0  0  0  0  0  0  0  0  0  0
   -0.4227   -0.9287    1.3828 H   0  0  0  0  0  0  0  0  0  0  0  0
   -1.1659    0.6080    1.8861 H   0  0  0  0  0  0  0  0  0  0  0  0
    1.8094    3.3481    0.0105 H   0  0  0  0  0  0  0  0  0  0  0  0
    0.5961    3.5711   -1.2374 H   0  0  0  0  0  0  0  0  0  0  0  0
    1.6676    2.1501   -1.2897 H   0  0  0  0  0  0  0  0  0  0  0  0
    0.4749   -1.5186   -0.9352 H   0  0  0  0  0  0  0  0  0  0  0  0
    2.5384   -2.7668   -1.3851 H   0  0  0  0  0  0  0  0  0  0  0  0
    4.7117   -1.9013   -0.5973 H   0  0  0  0  0  0  0  0  0  0  0  0
    4.7960    0.2114    0.6777 H   0  0  0  0  0  0  0  0  0  0  0  0
    2.7270    1.4472    1.1571 H   0  0  0  0  0  0  0  0  0  0  0  0
  1  2  1  0  0  0  0
  2  3  1  0  0  0  0
  3  4  1  0  0  0  0
  4  5  1  0  0  0  0
  5  6  4  0  0  0  0
  6  7  1  0  0  0  0
  6  8  2  0  0  0  0
  5  9  1  0  0  0  0
  9 10  4  0  0  0  0
 10 11  4  0  0  0  0
 11 12  4  0  0  0  0
 12 13  4  0  0  0  0
  9 14  4  0  0  0  0
 13 14  4  0  0  0  0
  1 15  1  0  0  0  0
  1 16  1  0  0  0  0
  1 17  1  0  0  0  0
  2 18  1  0  0  0  0
  2 19  1  0  0  0  0
  3 20  1  0  0  0  0
  3 21  1  0  0  0  0
  4 22  1  0  0  0  0
  4 23  1  0  0  0  0
  7 24  1  0  0  0  0
  7 25  1  0  0  0  0
  7 26  1  0  0  0  0
 10 27  1  0  0  0  0
 11 28  1  0  0  0  0
 12 29  1  0  0  0  0
 13 30  1  0  0  0  0
 14 31  1  0  0  0  0
M  END
