 xtb: 6.7.1 (edcfbbe)
          07072611343D

 38 37  0     0  0            999 V2000
   -3.5478    2.2882    0.5378 C   0  0  0  0  0  0  0  0  0  0  0  0
   -2.9911    2.0581   -0.8625 C   0  0  0  0  0  0  0  0  0  0  0  0
   -2.5520    0.6131   -1.1039 C   0  0  0  0  0  0  0  0  0  0  0  0
   -1.3581    0.2053   -0.2433 C   0  0  0  0  0  0  0  0  0  0  0  0
   -0.7233   -1.1224   -0.6716 C   0  0  0  0  0  0  0  0  0  0  0  0
   -1.6716   -2.3251   -0.5784 C   0  0  0  0  0  0  0  0  0  0  0  0
   -2.2343   -2.5934    0.8133 C   0  0  0  0  0  0  0  0  0  0  0  0
    0.5570   -1.3640    0.1332 C   0  0  0  0  0  0  0  0  0  0  0  0
    1.5293   -0.4237   -0.2712 O   0  0  0  0  0  0  0  0  0  0  0  0
    2.7465   -0.5415    0.4258 C   0  0  0  0  0  0  0  0  0  0  0  0
    3.6683    0.5669   -0.0845 C   0  0  0  0  0  0  0  0  0  0  0  0
    3.0636    1.8297    0.1003 O   0  0  0  0  0  0  0  0  0  0  0  0
    5.0054    0.5945    0.6625 C   0  0  0  0  0  0  0  0  0  0  0  0
    5.8474    1.5926    0.1581 O   0  0  0  0  0  0  0  0  0  0  0  0
   -4.3691    1.6031    0.7381 H   0  0  0  0  0  0  0  0  0  0  0  0
   -2.7804    2.1381    1.2925 H   0  0  0  0  0  0  0  0  0  0  0  0
   -3.9207    3.3055    0.6332 H   0  0  0  0  0  0  0  0  0  0  0  0
   -3.7611    2.3143   -1.5943 H   0  0  0  0  0  0  0  0  0  0  0  0
   -2.1430    2.7261   -1.0294 H   0  0  0  0  0  0  0  0  0  0  0  0
   -3.3973   -0.0487   -0.9064 H   0  0  0  0  0  0  0  0  0  0  0  0
   -2.2809    0.5026   -2.1568 H   0  0  0  0  0  0  0  0  0  0  0  0
   -0.5890    0.9765   -0.3226 H   0  0  0  0  0  0  0  0  0  0  0  0
   -1.6562    0.1417    0.8034 H   0  0  0  0  0  0  0  0  0  0  0  0
   -0.4151   -1.0257   -1.7189 H   0  0  0  0  0  0  0  0  0  0  0  0
   -2.4995   -2.1677   -1.2713 H   0  0  0  0  0  0  0  0  0  0  0  0
   -1.1313   -3.2128   -0.9171 H   0  0  0  0  0  0  0  0  0  0  0  0
   -2.8305   -1.7554    1.1632 H   0  0  0  0  0  0  0  0  0  0  0  0
   -2.8739   -3.4729    0.7870 H   0  0  0  0  0  0  0  0  0  0  0  0
   -1.4373   -2.7767    1.5291 H   0  0  0  0  0  0  0  0  0  0  0  0
    0.3677   -1.2549    1.2115 H   0  0  0  0  0  0  0  0  0  0  0  0
    0.9345   -2.3826   -0.0460 H   0  0  0  0  0  0  0  0  0  0  0  0
    2.5786   -0.4186    1.5074 H   0  0  0  0  0  0  0  0  0  0  0  0
    3.2024   -1.5274    0.2542 H   0  0  0  0  0  0  0  0  0  0  0  0
    3.8540    0.4046   -1.1580 H   0  0  0  0  0  0  0  0  0  0  0  0
    2.1496    1.7453   -0.1969 H   0  0  0  0  0  0  0  0  0  0  0  0
    5.5294   -0.3552    0.5388 H   0  0  0  0  0  0  0  0  0  0  0  0
    4.8064    0.7600    1.7317 H   0  0  0  0  0  0  0  0  0  0  0  0
    5.3234    2.4028    0.1120 H   0  0  0  0  0  0  0  0  0  0  0  0
  1  2  1  0  0  0  0
  2  3  1  0  0  0  0
  3  4  1  0  0  0  0
  4  5  1  0  0  0  0
  5  6  1  0  0  0  0
  6  7  1  0  0  0  0
  5  8  1  0  0  0  0
  8  9  1  0  0  0  0
  9 10  1  0  0  0  0
 10 11  1  0  0  0  0
 11 12  1  0  0  0  0
 11 13  1  0  0  0  0
 13 14  1  0  0  0  0
  1 15  1  0  0  0  0
  1 16  1  0  0  0  0
  1 17  1  0  0  0  0
  2 18  1  0  0  0  0
  2 19  1  0  0  0  0
  3 20  1  0  0  0  0
  3 21  1  0  0  0  0
  4 22  1  0  0  0  0
  4 23  1  0  0  0  0
  5 24  1  0  0  0  0
  6 25  1  0  0  0  0
  6 26  1  0  0  0  0
  7 27  1  0  0  0  0
  7 28  1  0  0  0  0
  7 29  1  0  0  0  0
  8 30  1  0  0  0  0
  8 31  1  0  0  0  0
 10 32  1  0  0  0  0
 10 33  1  0  0  0  0
 11 34  1  0  0  0  0
 12 35  1  0  0  0  0
 13 36  1  0  0  0  0
 13 37  1  0  0  0  0
 14 38  1  0  0  0  0
M  END
