 xtb: 6.7.1 (edcfbbe)
          07082618453D

 19 19  0     0  0            999 V2000
    1.8392    1.8424    0.0414 O   0  0  0  0  0  0  0  0  0  0  0  0
    0.9279    0.8299   -0.3404 C   0  0  0  0  0  0  0  0  0  0  0  0
   -0.4795    1.3315   -0.0249 C   0  0  0  0  0  0  0  0  0  0  0  0
   -1.5229    0.2839   -0.3962 C   0  0  0  0  0  0  0  0  0  0  0  0
   -1.2531   -1.0257    0.3390 C   0  0  0  0  0  0  0  0  0  0  0  0
    0.1510   -1.5323    0.0236 C   0  0  0  0  0  0  0  0  0  0  0  0
    1.1945   -0.4845    0.3982 C   0  0  0  0  0  0  0  0  0  0  0  0
    2.7365    1.5140   -0.0801 H   0  0  0  0  0  0  0  0  0  0  0  0
    1.0107    0.6516   -1.4271 H   0  0  0  0  0  0  0  0  0  0  0  0
   -0.5309    1.5545    1.0421 H   0  0  0  0  0  0  0  0  0  0  0  0
   -0.6537    2.2607   -0.5687 H   0  0  0  0  0  0  0  0  0  0  0  0
   -2.5188    0.6542   -0.1463 H   0  0  0  0  0  0  0  0  0  0  0  0
   -1.4917    0.1070   -1.4740 H   0  0  0  0  0  0  0  0  0  0  0  0
   -1.3454   -0.8624    1.4149 H   0  0  0  0  0  0  0  0  0  0  0  0
   -1.9918   -1.7754    0.0484 H   0  0  0  0  0  0  0  0  0  0  0  0
    0.2258   -1.7502   -1.0447 H   0  0  0  0  0  0  0  0  0  0  0  0
    0.3468   -2.4579    0.5687 H   0  0  0  0  0  0  0  0  0  0  0  0
    2.1967   -0.8493    0.1533 H   0  0  0  0  0  0  0  0  0  0  0  0
    1.1588   -0.2921    1.4730 H   0  0  0  0  0  0  0  0  0  0  0  0
  1  2  1  0  0  0  0
  2  3  1  0  0  0  0
  3  4  1  0  0  0  0
  4  5  1  0  0  0  0
  5  6  1  0  0  0  0
  2  7  1  0  0  0  0
  6  7  1  0  0  0  0
  1  8  1  0  0  0  0
  2  9  1  0  0  0  0
  3 10  1  0  0  0  0
  3 11  1  0  0  0  0
  4 12  1  0  0  0  0
  4 13  1  0  0  0  0
  5 14  1  0  0  0  0
  5 15  1  0  0  0  0
  6 16  1  0  0  0  0
  6 17  1  0  0  0  0
  7 18  1  0  0  0  0
  7 19  1  0  0  0  0
M  END
