 xtb: 6.7.1 (edcfbbe)
          07062618083D

 51 55  0     0  0            999 V2000
    6.2282   -1.1076    1.4881 C   0  0  0  0  0  0  0  0  0  0  0  0
    5.3411   -0.8529    0.5406 C   0  0  0  0  0  0  0  0  0  0  0  0
    5.6579   -0.0783   -0.6998 C   0  0  0  0  0  0  0  0  0  0  0  0
    3.9066   -1.3137    0.6721 C   0  0  0  0  0  0  0  0  0  0  0  0
    2.9679   -0.1430    1.0623 C   0  0  0  0  0  0  0  0  0  0  0  0
    2.1033   -0.0259   -0.1554 C   0  0  0  0  0  0  0  0  0  0  0  0
    2.4453   -1.0443   -1.0413 C   0  0  0  0  0  0  0  0  0  0  0  0
    1.8134   -1.1892   -2.2718 C   0  0  0  0  0  0  0  0  0  0  0  0
    0.8172   -0.2898   -2.5782 C   0  0  0  0  0  0  0  0  0  0  0  0
    0.4415    0.7320   -1.6986 C   0  0  0  0  0  0  0  0  0  0  0  0
    1.1070    0.8813   -0.4668 C   0  0  0  0  0  0  0  0  0  0  0  0
    0.8562    1.8721    0.4150 O   0  0  0  0  0  0  0  0  0  0  0  0
   -0.0585    2.8897    0.0393 C   0  0  0  0  0  0  0  0  0  0  0  0
   -0.6355    3.4508    1.3422 C   0  0  0  0  0  0  0  0  0  0  0  0
   -1.3063    2.4694    2.0929 O   0  0  0  0  0  0  0  0  0  0  0  0
   -2.0668    1.5734    1.3940 C   0  0  0  0  0  0  0  0  0  0  0  0
   -2.8547    0.7069    2.1394 C   0  0  0  0  0  0  0  0  0  0  0  0
   -3.6742   -0.2464    1.5494 C   0  0  0  0  0  0  0  0  0  0  0  0
   -4.3626   -1.0067    2.4438 O   0  0  0  0  0  0  0  0  0  0  0  0
   -5.2932   -1.9794    2.0237 C   0  0  0  0  0  0  0  0  0  0  0  0
   -3.7115   -0.3273    0.1427 C   0  0  0  0  0  0  0  0  0  0  0  0
   -4.5275   -1.2648   -0.4468 O   0  0  0  0  0  0  0  0  0  0  0  0
   -4.5481   -1.3490   -1.8502 C   0  0  0  0  0  0  0  0  0  0  0  0
   -2.9170    0.5402   -0.5891 C   0  0  0  0  0  0  0  0  0  0  0  0
   -2.0896    1.4833    0.0080 C   0  0  0  0  0  0  0  0  0  0  0  0
   -1.2076    2.3840   -0.8301 C   0  0  0  0  0  0  0  0  0  0  0  0
   -0.6782    1.6035   -2.0294 C   0  0  0  0  0  0  0  0  0  0  0  0
   -1.1987    1.6731   -3.1229 O   0  0  0  0  0  0  0  0  0  0  0  0
    3.4324   -1.8321   -0.5827 O   0  0  0  0  0  0  0  0  0  0  0  0
    5.9773   -1.6769    2.3666 H   0  0  0  0  0  0  0  0  0  0  0  0
    7.2416   -0.7514    1.4230 H   0  0  0  0  0  0  0  0  0  0  0  0
    6.6829    0.2801   -0.6798 H   0  0  0  0  0  0  0  0  0  0  0  0
    5.5227   -0.7146   -1.5737 H   0  0  0  0  0  0  0  0  0  0  0  0
    4.9846    0.7719   -0.8051 H   0  0  0  0  0  0  0  0  0  0  0  0
    3.8492   -2.1336    1.3957 H   0  0  0  0  0  0  0  0  0  0  0  0
    2.3741   -0.3722    1.9483 H   0  0  0  0  0  0  0  0  0  0  0  0
    3.5273    0.7721    1.2621 H   0  0  0  0  0  0  0  0  0  0  0  0
    2.0979   -1.9792   -2.9462 H   0  0  0  0  0  0  0  0  0  0  0  0
    0.2824   -0.3558   -3.5135 H   0  0  0  0  0  0  0  0  0  0  0  0
    0.4971    3.6817   -0.4885 H   0  0  0  0  0  0  0  0  0  0  0  0
   -1.3131    4.2825    1.1038 H   0  0  0  0  0  0  0  0  0  0  0  0
    0.1691    3.8124    1.9868 H   0  0  0  0  0  0  0  0  0  0  0  0
   -2.8345    0.7709    3.2144 H   0  0  0  0  0  0  0  0  0  0  0  0
   -4.8166   -2.7746    1.4472 H   0  0  0  0  0  0  0  0  0  0  0  0
   -5.7023   -2.3936    2.9453 H   0  0  0  0  0  0  0  0  0  0  0  0
   -6.0993   -1.5398    1.4330 H   0  0  0  0  0  0  0  0  0  0  0  0
   -5.2480   -2.1516   -2.0796 H   0  0  0  0  0  0  0  0  0  0  0  0
   -4.9021   -0.4196   -2.3072 H   0  0  0  0  0  0  0  0  0  0  0  0
   -3.5629   -1.6011   -2.2553 H   0  0  0  0  0  0  0  0  0  0  0  0
   -2.9298    0.4988   -1.6655 H   0  0  0  0  0  0  0  0  0  0  0  0
   -1.7854    3.2381   -1.2024 H   0  0  0  0  0  0  0  0  0  0  0  0
  1  2  2  0  0  0  0
  2  3  1  0  0  0  0
  2  4  1  0  0  0  0
  4  5  1  0  0  0  0
  5  6  1  0  0  0  0
  6  7  4  0  0  0  0
  7  8  4  0  0  0  0
  8  9  4  0  0  0  0
  9 10  4  0  0  0  0
  6 11  4  0  0  0  0
 10 11  4  0  0  0  0
 11 12  1  0  0  0  0
 12 13  1  0  0  0  0
 13 14  1  0  0  0  0
 14 15  1  0  0  0  0
 15 16  1  0  0  0  0
 16 17  4  0  0  0  0
 17 18  4  0  0  0  0
 18 19  1  0  0  0  0
 19 20  1  0  0  0  0
 18 21  4  0  0  0  0
 21 22  1  0  0  0  0
 22 23  1  0  0  0  0
 21 24  4  0  0  0  0
 16 25  4  0  0  0  0
 24 25  4  0  0  0  0
 13 26  1  0  0  0  0
 25 26  1  0  0  0  0
 10 27  1  0  0  0  0
 26 27  1  0  0  0  0
 27 28  2  0  0  0  0
  4 29  1  0  0  0  0
  7 29  1  0  0  0  0
  1 30  1  0  0  0  0
  1 31  1  0  0  0  0
  3 32  1  0  0  0  0
  3 33  1  0  0  0  0
  3 34  1  0  0  0  0
  4 35  1  0  0  0  0
  5 36  1  0  0  0  0
  5 37  1  0  0  0  0
  8 38  1  0  0  0  0
  9 39  1  0  0  0  0
 13 40  1  0  0  0  0
 14 41  1  0  0  0  0
 14 42  1  0  0  0  0
 17 43  1  0  0  0  0
 20 44  1  0  0  0  0
 20 45  1  0  0  0  0
 20 46  1  0  0  0  0
 23 47  1  0  0  0  0
 23 48  1  0  0  0  0
 23 49  1  0  0  0  0
 24 50  1  0  0  0  0
 26 51  1  0  0  0  0
M  END
