 xtb: 6.7.1 (edcfbbe)
          07092603273D

 20 19  0     0  0            999 V2000
    3.5532    0.5817   -0.3157 C   0  0  0  0  0  0  0  0  0  0  0  0
    2.8250   -0.4834   -0.5871 C   0  0  0  0  0  0  0  0  0  0  0  0
    1.6056   -0.4598   -1.4581 C   0  0  0  0  0  0  0  0  0  0  0  0
    0.4699   -0.9976   -0.7659 O   0  0  0  0  0  0  0  0  0  0  0  0
   -0.1957   -0.1741    0.0346 C   0  0  0  0  0  0  0  0  0  0  0  0
    0.0741    0.9852    0.2089 O   0  0  0  0  0  0  0  0  0  0  0  0
   -1.3749   -0.8850    0.6741 C   0  0  0  0  0  0  0  0  0  0  0  0
   -2.6511   -0.2981    0.0734 C   0  0  0  0  0  0  0  0  0  0  0  0
   -3.0097    1.0493    0.6212 C   0  0  0  0  0  0  0  0  0  0  0  0
   -3.2723   -0.8770   -0.7765 O   0  0  0  0  0  0  0  0  0  0  0  0
    4.4225    0.5279    0.3161 H   0  0  0  0  0  0  0  0  0  0  0  0
    3.3094    1.5507   -0.7175 H   0  0  0  0  0  0  0  0  0  0  0  0
    3.0634   -1.4518   -0.1684 H   0  0  0  0  0  0  0  0  0  0  0  0
    1.3814    0.5618   -1.7798 H   0  0  0  0  0  0  0  0  0  0  0  0
    1.7342   -1.1117   -2.3266 H   0  0  0  0  0  0  0  0  0  0  0  0
   -1.3520   -0.6962    1.7465 H   0  0  0  0  0  0  0  0  0  0  0  0
   -1.3132   -1.9499    0.4555 H   0  0  0  0  0  0  0  0  0  0  0  0
   -2.1252    1.6845    0.6127 H   0  0  0  0  0  0  0  0  0  0  0  0
   -3.3370    0.9446    1.6540 H   0  0  0  0  0  0  0  0  0  0  0  0
   -3.8076    1.4989    0.0366 H   0  0  0  0  0  0  0  0  0  0  0  0
  1  2  2  0  0  0  0
  2  3  1  0  0  0  0
  3  4  1  0  0  0  0
  4  5  1  0  0  0  0
  5  6  2  0  0  0  0
  5  7  1  0  0  0  0
  7  8  1  0  0  0  0
  8  9  1  0  0  0  0
  8 10  2  0  0  0  0
  1 11  1  0  0  0  0
  1 12  1  0  0  0  0
  2 13  1  0  0  0  0
  3 14  1  0  0  0  0
  3 15  1  0  0  0  0
  7 16  1  0  0  0  0
  7 17  1  0  0  0  0
  9 18  1  0  0  0  0
  9 19  1  0  0  0  0
  9 20  1  0  0  0  0
M  END
