 xtb: 6.7.1 (edcfbbe)
          07062621303D

 51 52  0     0  0            999 V2000
    5.0259   -0.3248   -1.6748 C   0  0  0  0  0  0  0  0  0  0  0  0
    3.5649   -0.2785   -2.0103 C   0  0  0  0  0  0  0  0  0  0  0  0
    2.8654   -1.6001   -1.8782 C   0  0  0  0  0  0  0  0  0  0  0  0
    2.9081    0.8127   -2.3843 C   0  0  0  0  0  0  0  0  0  0  0  0
    3.4644    2.1993   -2.5092 C   0  0  0  0  0  0  0  0  0  0  0  0
    3.4341    2.9320   -1.1517 C   0  0  0  0  0  0  0  0  0  0  0  0
    2.0294    2.9930   -0.6154 C   0  0  0  0  0  0  0  0  0  0  0  0
    1.2102    4.1501   -1.0988 C   0  0  0  0  0  0  0  0  0  0  0  0
    1.5988    2.0501    0.2145 C   0  0  0  0  0  0  0  0  0  0  0  0
    0.2315    1.8966    0.7933 C   0  0  0  0  0  0  0  0  0  0  0  0
   -0.1296    0.5182    0.6598 O   0  0  0  0  0  0  0  0  0  0  0  0
   -1.2946    0.1509    1.2042 C   0  0  0  0  0  0  0  0  0  0  0  0
   -2.0350    0.9137    1.7802 O   0  0  0  0  0  0  0  0  0  0  0  0
   -1.4955   -1.2898    1.0356 C   0  0  0  0  0  0  0  0  0  0  0  0
   -0.5428   -2.2479    0.7204 C   0  0  0  0  0  0  0  0  0  0  0  0
   -1.2010   -3.4780    0.8535 C   0  0  0  0  0  0  0  0  0  0  0  0
   -0.6531   -4.8426    0.6379 C   0  0  0  0  0  0  0  0  0  0  0  0
   -2.4576   -3.2818    1.2234 N   0  0  0  0  0  0  0  0  0  0  0  0
   -2.6390   -1.9716    1.3303 N   0  0  0  0  0  0  0  0  0  0  0  0
   -3.9116   -1.4751    1.6592 C   0  0  0  0  0  0  0  0  0  0  0  0
   -4.4554   -0.3922    0.9808 C   0  0  0  0  0  0  0  0  0  0  0  0
   -5.7162    0.0602    1.3229 C   0  0  0  0  0  0  0  0  0  0  0  0
   -6.4412   -0.5722    2.3191 C   0  0  0  0  0  0  0  0  0  0  0  0
   -5.9071   -1.6705    2.9722 C   0  0  0  0  0  0  0  0  0  0  0  0
   -4.6437   -2.1256    2.6451 C   0  0  0  0  0  0  0  0  0  0  0  0
    5.4944   -1.1803   -2.1601 H   0  0  0  0  0  0  0  0  0  0  0  0
    5.1554   -0.4456   -0.5987 H   0  0  0  0  0  0  0  0  0  0  0  0
    5.5465    0.5776   -1.9798 H   0  0  0  0  0  0  0  0  0  0  0  0
    3.0530   -2.0267   -0.8931 H   0  0  0  0  0  0  0  0  0  0  0  0
    3.2431   -2.3054   -2.6189 H   0  0  0  0  0  0  0  0  0  0  0  0
    1.7927   -1.4927   -2.0161 H   0  0  0  0  0  0  0  0  0  0  0  0
    1.8472    0.7307   -2.5790 H   0  0  0  0  0  0  0  0  0  0  0  0
    4.4941    2.1791   -2.8707 H   0  0  0  0  0  0  0  0  0  0  0  0
    2.8689    2.7592   -3.2329 H   0  0  0  0  0  0  0  0  0  0  0  0
    4.0763    2.3933   -0.4543 H   0  0  0  0  0  0  0  0  0  0  0  0
    3.8298    3.9415   -1.2809 H   0  0  0  0  0  0  0  0  0  0  0  0
    0.1442    3.9477   -1.0523 H   0  0  0  0  0  0  0  0  0  0  0  0
    1.4138    5.0276   -0.4844 H   0  0  0  0  0  0  0  0  0  0  0  0
    1.4745    4.3951   -2.1254 H   0  0  0  0  0  0  0  0  0  0  0  0
    2.2729    1.2577    0.5083 H   0  0  0  0  0  0  0  0  0  0  0  0
    0.2155    2.1592    1.8604 H   0  0  0  0  0  0  0  0  0  0  0  0
   -0.5212    2.5112    0.2898 H   0  0  0  0  0  0  0  0  0  0  0  0
    0.4762   -2.0684    0.4479 H   0  0  0  0  0  0  0  0  0  0  0  0
    0.1483   -5.0447    1.3474 H   0  0  0  0  0  0  0  0  0  0  0  0
   -1.4427   -5.5756    0.7739 H   0  0  0  0  0  0  0  0  0  0  0  0
   -0.2461   -4.9325   -0.3680 H   0  0  0  0  0  0  0  0  0  0  0  0
   -3.8986    0.0889    0.1925 H   0  0  0  0  0  0  0  0  0  0  0  0
   -6.1372    0.9071    0.8022 H   0  0  0  0  0  0  0  0  0  0  0  0
   -7.4252   -0.2129    2.5811 H   0  0  0  0  0  0  0  0  0  0  0  0
   -6.4741   -2.1718    3.7423 H   0  0  0  0  0  0  0  0  0  0  0  0
   -4.2108   -2.9812    3.1392 H   0  0  0  0  0  0  0  0  0  0  0  0
  1  2  1  0  0  0  0
  2  3  1  0  0  0  0
  2  4  2  0  0  0  0
  4  5  1  0  0  0  0
  5  6  1  0  0  0  0
  6  7  1  0  0  0  0
  7  8  1  0  0  0  0
  7  9  2  0  0  0  0
  9 10  1  0  0  0  0
 10 11  1  0  0  0  0
 11 12  1  0  0  0  0
 12 13  2  0  0  0  0
 12 14  1  0  0  0  0
 14 15  4  0  0  0  0
 15 16  4  0  0  0  0
 16 17  1  0  0  0  0
 16 18  4  0  0  0  0
 14 19  4  0  0  0  0
 18 19  4  0  0  0  0
 19 20  1  0  0  0  0
 20 21  4  0  0  0  0
 21 22  4  0  0  0  0
 22 23  4  0  0  0  0
 23 24  4  0  0  0  0
 20 25  4  0  0  0  0
 24 25  4  0  0  0  0
  1 26  1  0  0  0  0
  1 27  1  0  0  0  0
  1 28  1  0  0  0  0
  3 29  1  0  0  0  0
  3 30  1  0  0  0  0
  3 31  1  0  0  0  0
  4 32  1  0  0  0  0
  5 33  1  0  0  0  0
  5 34  1  0  0  0  0
  6 35  1  0  0  0  0
  6 36  1  0  0  0  0
  8 37  1  0  0  0  0
  8 38  1  0  0  0  0
  8 39  1  0  0  0  0
  9 40  1  0  0  0  0
 10 41  1  0  0  0  0
 10 42  1  0  0  0  0
 15 43  1  0  0  0  0
 17 44  1  0  0  0  0
 17 45  1  0  0  0  0
 17 46  1  0  0  0  0
 21 47  1  0  0  0  0
 22 48  1  0  0  0  0
 23 49  1  0  0  0  0
 24 50  1  0  0  0  0
 25 51  1  0  0  0  0
M  END
