 xtb: 6.7.1 (edcfbbe)
          07082617333D

 16 15  0     0  0            999 V2000
   -2.1339   -0.5339    0.5680 C   0  0  0  0  0  0  0  0  0  0  0  0
   -0.9726   -0.3728   -0.4044 C   0  0  0  0  0  0  0  0  0  0  0  0
    0.2975    0.0786    0.3153 C   0  0  0  0  0  0  0  0  0  0  0  0
    0.0892    1.3721    0.8315 O   0  0  0  0  0  0  0  0  0  0  0  0
    1.5060    0.0849   -0.6303 C   0  0  0  0  0  0  0  0  0  0  0  0
    2.6210    0.5384    0.1130 O   0  0  0  0  0  0  0  0  0  0  0  0
   -3.0439   -0.7952    0.0336 H   0  0  0  0  0  0  0  0  0  0  0  0
   -2.2932    0.3988    1.1013 H   0  0  0  0  0  0  0  0  0  0  0  0
   -1.9189   -1.3159    1.2927 H   0  0  0  0  0  0  0  0  0  0  0  0
   -1.2254    0.3809   -1.1517 H   0  0  0  0  0  0  0  0  0  0  0  0
   -0.7745   -1.3166   -0.9159 H   0  0  0  0  0  0  0  0  0  0  0  0
    0.5220   -0.6159    1.1423 H   0  0  0  0  0  0  0  0  0  0  0  0
    0.9496    1.6976    1.1232 H   0  0  0  0  0  0  0  0  0  0  0  0
    1.3037    0.7620   -1.4714 H   0  0  0  0  0  0  0  0  0  0  0  0
    1.6798   -0.9265   -1.0194 H   0  0  0  0  0  0  0  0  0  0  0  0
    3.3937    0.5635   -0.4591 H   0  0  0  0  0  0  0  0  0  0  0  0
  1  2  1  0  0  0  0
  2  3  1  0  0  0  0
  3  4  1  0  0  0  0
  3  5  1  0  0  0  0
  5  6  1  0  0  0  0
  1  7  1  0  0  0  0
  1  8  1  0  0  0  0
  1  9  1  0  0  0  0
  2 10  1  0  0  0  0
  2 11  1  0  0  0  0
  3 12  1  0  0  0  0
  4 13  1  0  0  0  0
  5 14  1  0  0  0  0
  5 15  1  0  0  0  0
  6 16  1  0  0  0  0
M  END
