 xtb: 6.7.1 (edcfbbe)
          07072611043D

 29 29  0     0  0            999 V2000
    5.0560    0.1068    0.4595 C   0  0  0  0  0  0  0  0  0  0  0  0
    3.6730    0.7003    0.6912 C   0  0  0  0  0  0  0  0  0  0  0  0
    2.5878   -0.1170   -0.0038 C   0  0  0  0  0  0  0  0  0  0  0  0
    1.2061    0.3992    0.3059 C   0  0  0  0  0  0  0  0  0  0  0  0
    0.9095    1.1143    1.2257 O   0  0  0  0  0  0  0  0  0  0  0  0
    0.3209   -0.0351   -0.6070 O   0  0  0  0  0  0  0  0  0  0  0  0
   -1.0447    0.2419   -0.3240 C   0  0  0  0  0  0  0  0  0  0  0  0
   -1.8750    0.0466   -1.5923 C   0  0  0  0  0  0  0  0  0  0  0  0
   -3.3517    0.2784   -1.2918 C   0  0  0  0  0  0  0  0  0  0  0  0
   -3.8332   -0.6737   -0.2022 C   0  0  0  0  0  0  0  0  0  0  0  0
   -3.0114   -0.4957    1.0787 C   0  0  0  0  0  0  0  0  0  0  0  0
   -1.5480   -0.6920    0.7750 C   0  0  0  0  0  0  0  0  0  0  0  0
   -0.8439   -1.5092    1.3023 O   0  0  0  0  0  0  0  0  0  0  0  0
    5.8142    0.7060    0.9573 H   0  0  0  0  0  0  0  0  0  0  0  0
    5.2867    0.0757   -0.6034 H   0  0  0  0  0  0  0  0  0  0  0  0
    5.1081   -0.9066    0.8511 H   0  0  0  0  0  0  0  0  0  0  0  0
    3.6441    1.7258    0.3182 H   0  0  0  0  0  0  0  0  0  0  0  0
    3.4548    0.7342    1.7594 H   0  0  0  0  0  0  0  0  0  0  0  0
    2.6191   -1.1534    0.3435 H   0  0  0  0  0  0  0  0  0  0  0  0
    2.7238   -0.1284   -1.0864 H   0  0  0  0  0  0  0  0  0  0  0  0
   -1.1306    1.2754    0.0421 H   0  0  0  0  0  0  0  0  0  0  0  0
   -1.5208    0.7363   -2.3600 H   0  0  0  0  0  0  0  0  0  0  0  0
   -1.7159   -0.9709   -1.9542 H   0  0  0  0  0  0  0  0  0  0  0  0
   -3.5010    1.3112   -0.9688 H   0  0  0  0  0  0  0  0  0  0  0  0
   -3.9347    0.1235   -2.2010 H   0  0  0  0  0  0  0  0  0  0  0  0
   -3.7354   -1.7044   -0.5492 H   0  0  0  0  0  0  0  0  0  0  0  0
   -4.8868   -0.4923    0.0168 H   0  0  0  0  0  0  0  0  0  0  0  0
   -3.1518    0.5150    1.4675 H   0  0  0  0  0  0  0  0  0  0  0  0
   -3.3193   -1.2117    1.8414 H   0  0  0  0  0  0  0  0  0  0  0  0
  1  2  1  0  0  0  0
  2  3  1  0  0  0  0
  3  4  1  0  0  0  0
  4  5  2  0  0  0  0
  4  6  1  0  0  0  0
  6  7  1  0  0  0  0
  7  8  1  0  0  0  0
  8  9  1  0  0  0  0
  9 10  1  0  0  0  0
 10 11  1  0  0  0  0
  7 12  1  0  0  0  0
 11 12  1  0  0  0  0
 12 13  2  0  0  0  0
  1 14  1  0  0  0  0
  1 15  1  0  0  0  0
  1 16  1  0  0  0  0
  2 17  1  0  0  0  0
  2 18  1  0  0  0  0
  3 19  1  0  0  0  0
  3 20  1  0  0  0  0
  7 21  1  0  0  0  0
  8 22  1  0  0  0  0
  8 23  1  0  0  0  0
  9 24  1  0  0  0  0
  9 25  1  0  0  0  0
 10 26  1  0  0  0  0
 10 27  1  0  0  0  0
 11 28  1  0  0  0  0
 11 29  1  0  0  0  0
M  END
