 xtb: 6.7.1 (edcfbbe)
          07092603493D

 21 20  0     0  0            999 V2000
   -1.3798    1.8052    0.0862 C   0  0  0  0  0  0  0  0  0  0  0  0
   -1.4182    0.3135    0.3986 C   0  0  0  0  0  0  0  0  0  0  0  0
   -0.5904   -0.5186   -0.5997 C   0  0  0  0  0  0  0  0  0  0  0  0
   -0.6492   -2.0160   -0.2735 C   0  0  0  0  0  0  0  0  0  0  0  0
   -1.1339   -0.3262   -1.9388 C   0  0  0  0  0  0  0  0  0  0  0  0
   -1.5844   -0.1975   -2.9803 N   0  0  0  0  0  0  0  0  0  0  0  0
    0.7747   -0.0558   -0.6848 O   0  0  0  0  0  0  0  0  0  0  0  0
    1.5773   -0.1058    0.3833 C   0  0  0  0  0  0  0  0  0  0  0  0
    2.9361    0.4355    0.0227 C   0  0  0  0  0  0  0  0  0  0  0  0
    1.2646   -0.5207    1.4663 O   0  0  0  0  0  0  0  0  0  0  0  0
   -1.7803    2.0016   -0.9065 H   0  0  0  0  0  0  0  0  0  0  0  0
   -1.9738    2.3502    0.8154 H   0  0  0  0  0  0  0  0  0  0  0  0
   -0.3598    2.1820    0.1262 H   0  0  0  0  0  0  0  0  0  0  0  0
   -2.4479   -0.0478    0.3588 H   0  0  0  0  0  0  0  0  0  0  0  0
   -1.0268    0.1302    1.4003 H   0  0  0  0  0  0  0  0  0  0  0  0
   -0.2872   -2.1848    0.7375 H   0  0  0  0  0  0  0  0  0  0  0  0
   -0.0293   -2.5735   -0.9735 H   0  0  0  0  0  0  0  0  0  0  0  0
   -1.6745   -2.3688   -0.3521 H   0  0  0  0  0  0  0  0  0  0  0  0
    2.8371    1.4519   -0.3502 H   0  0  0  0  0  0  0  0  0  0  0  0
    3.3681   -0.1726   -0.7684 H   0  0  0  0  0  0  0  0  0  0  0  0
    3.5777    0.4180    0.8981 H   0  0  0  0  0  0  0  0  0  0  0  0
  1  2  1  0  0  0  0
  2  3  1  0  0  0  0
  3  4  1  0  0  0  0
  3  5  1  0  0  0  0
  5  6  3  0  0  0  0
  3  7  1  0  0  0  0
  7  8  1  0  0  0  0
  8  9  1  0  0  0  0
  8 10  2  0  0  0  0
  1 11  1  0  0  0  0
  1 12  1  0  0  0  0
  1 13  1  0  0  0  0
  2 14  1  0  0  0  0
  2 15  1  0  0  0  0
  4 16  1  0  0  0  0
  4 17  1  0  0  0  0
  4 18  1  0  0  0  0
  9 19  1  0  0  0  0
  9 20  1  0  0  0  0
  9 21  1  0  0  0  0
M  END
