 xtb: 6.7.1 (edcfbbe)
          07092619163D

 27 27  0     0  0            999 V2000
    6.3454    0.5653    0.2282 N   0  0  0  0  0  0  0  0  0  0  0  0
    5.2777    0.1815    0.0878 C   0  0  0  0  0  0  0  0  0  0  0  0
    3.9246   -0.2821   -0.0689 C   0  0  0  0  0  0  0  0  0  0  0  0
    2.9552    0.5565    0.7867 C   0  0  0  0  0  0  0  0  0  0  0  0
    1.5547    0.0588    0.6280 C   0  0  0  0  0  0  0  0  0  0  0  0
    0.5754    0.7710    0.0737 C   0  0  0  0  0  0  0  0  0  0  0  0
   -0.8041    0.3517   -0.1070 C   0  0  0  0  0  0  0  0  0  0  0  0
   -1.7066    1.2219   -0.5707 C   0  0  0  0  0  0  0  0  0  0  0  0
   -3.1580    0.9225   -0.7589 C   0  0  0  0  0  0  0  0  0  0  0  0
   -3.5669   -0.3472   -0.0192 C   0  0  0  0  0  0  0  0  0  0  0  0
   -2.5506   -1.4448   -0.3072 C   0  0  0  0  0  0  0  0  0  0  0  0
   -1.1875   -1.0573    0.2598 C   0  0  0  0  0  0  0  0  0  0  0  0
    3.6483   -0.2087   -1.1248 H   0  0  0  0  0  0  0  0  0  0  0  0
    3.8787   -1.3337    0.2294 H   0  0  0  0  0  0  0  0  0  0  0  0
    3.0216    1.6041    0.4864 H   0  0  0  0  0  0  0  0  0  0  0  0
    3.2590    0.4817    1.8351 H   0  0  0  0  0  0  0  0  0  0  0  0
    1.3800   -0.9451    0.9893 H   0  0  0  0  0  0  0  0  0  0  0  0
    0.7943    1.7767   -0.2665 H   0  0  0  0  0  0  0  0  0  0  0  0
   -1.3952    2.2231   -0.8396 H   0  0  0  0  0  0  0  0  0  0  0  0
   -3.3582    0.8077   -1.8306 H   0  0  0  0  0  0  0  0  0  0  0  0
   -3.7527    1.7733   -0.4154 H   0  0  0  0  0  0  0  0  0  0  0  0
   -4.5662   -0.6579   -0.3296 H   0  0  0  0  0  0  0  0  0  0  0  0
   -3.5915   -0.1518    1.0550 H   0  0  0  0  0  0  0  0  0  0  0  0
   -2.8755   -2.3914    0.1292 H   0  0  0  0  0  0  0  0  0  0  0  0
   -2.4694   -1.5825   -1.3878 H   0  0  0  0  0  0  0  0  0  0  0  0
   -1.2034   -1.1440    1.3510 H   0  0  0  0  0  0  0  0  0  0  0  0
   -0.4290   -1.7493   -0.1133 H   0  0  0  0  0  0  0  0  0  0  0  0
  1  2  3  0  0  0  0
  2  3  1  0  0  0  0
  3  4  1  0  0  0  0
  4  5  1  0  0  0  0
  5  6  2  0  0  0  0
  6  7  1  0  0  0  0
  7  8  2  0  0  0  0
  8  9  1  0  0  0  0
  9 10  1  0  0  0  0
 10 11  1  0  0  0  0
  7 12  1  0  0  0  0
 11 12  1  0  0  0  0
  3 13  1  0  0  0  0
  3 14  1  0  0  0  0
  4 15  1  0  0  0  0
  4 16  1  0  0  0  0
  5 17  1  0  0  0  0
  6 18  1  0  0  0  0
  8 19  1  0  0  0  0
  9 20  1  0  0  0  0
  9 21  1  0  0  0  0
 10 22  1  0  0  0  0
 10 23  1  0  0  0  0
 11 24  1  0  0  0  0
 11 25  1  0  0  0  0
 12 26  1  0  0  0  0
 12 27  1  0  0  0  0
M  END
