 xtb: 6.7.1 (edcfbbe)
          07082616343D

 32 33  0     0  0            999 V2000
   -0.1469   -1.5719    0.7113 C   0  0  0  0  0  0  0  0  0  0  0  0
   -0.4523   -0.4581   -0.3003 C   0  0  0  0  0  0  0  0  0  0  0  0
   -0.1727   -0.9237   -1.6066 O   0  0  0  0  0  0  0  0  0  0  0  0
    0.3916    0.8166   -0.0022 C   0  0  0  0  0  0  0  0  0  0  0  0
    1.8652    0.5496   -0.0742 C   0  0  0  0  0  0  0  0  0  0  0  0
    2.5933    0.2479    1.0715 C   0  0  0  0  0  0  0  0  0  0  0  0
    3.9436   -0.0418    0.9948 C   0  0  0  0  0  0  0  0  0  0  0  0
    4.5876   -0.0385   -0.2312 C   0  0  0  0  0  0  0  0  0  0  0  0
    3.8750    0.2669   -1.3779 C   0  0  0  0  0  0  0  0  0  0  0  0
    2.5248    0.5611   -1.2992 C   0  0  0  0  0  0  0  0  0  0  0  0
   -1.9217   -0.0793   -0.2392 C   0  0  0  0  0  0  0  0  0  0  0  0
   -2.7107   -0.1285   -1.3800 C   0  0  0  0  0  0  0  0  0  0  0  0
   -4.0473    0.2263   -1.3295 C   0  0  0  0  0  0  0  0  0  0  0  0
   -4.6145    0.6378   -0.1370 C   0  0  0  0  0  0  0  0  0  0  0  0
   -3.8343    0.6922    1.0054 C   0  0  0  0  0  0  0  0  0  0  0  0
   -2.4988    0.3381    0.9549 C   0  0  0  0  0  0  0  0  0  0  0  0
    0.9001   -1.8643    0.6433 H   0  0  0  0  0  0  0  0  0  0  0  0
   -0.7665   -2.4371    0.4859 H   0  0  0  0  0  0  0  0  0  0  0  0
   -0.3525   -1.2505    1.7272 H   0  0  0  0  0  0  0  0  0  0  0  0
    0.7637   -1.1524   -1.6443 H   0  0  0  0  0  0  0  0  0  0  0  0
    0.1240    1.1903    0.9856 H   0  0  0  0  0  0  0  0  0  0  0  0
    0.1120    1.5671   -0.7449 H   0  0  0  0  0  0  0  0  0  0  0  0
    2.0982    0.2464    2.0322 H   0  0  0  0  0  0  0  0  0  0  0  0
    4.4959   -0.2706    1.8946 H   0  0  0  0  0  0  0  0  0  0  0  0
    5.6415   -0.2664   -0.2912 H   0  0  0  0  0  0  0  0  0  0  0  0
    4.3724    0.2801   -2.3368 H   0  0  0  0  0  0  0  0  0  0  0  0
    1.9774    0.8147   -2.1963 H   0  0  0  0  0  0  0  0  0  0  0  0
   -2.2665   -0.4515   -2.3074 H   0  0  0  0  0  0  0  0  0  0  0  0
   -4.6469    0.1812   -2.2271 H   0  0  0  0  0  0  0  0  0  0  0  0
   -5.6576    0.9153   -0.0957 H   0  0  0  0  0  0  0  0  0  0  0  0
   -4.2677    1.0129    1.9418 H   0  0  0  0  0  0  0  0  0  0  0  0
   -1.9091    0.3902    1.8585 H   0  0  0  0  0  0  0  0  0  0  0  0
  1  2  1  0  0  0  0
  2  3  1  0  0  0  0
  2  4  1  0  0  0  0
  4  5  1  0  0  0  0
  5  6  4  0  0  0  0
  6  7  4  0  0  0  0
  7  8  4  0  0  0  0
  8  9  4  0  0  0  0
  5 10  4  0  0  0  0
  9 10  4  0  0  0  0
  2 11  1  0  0  0  0
 11 12  4  0  0  0  0
 12 13  4  0  0  0  0
 13 14  4  0  0  0  0
 14 15  4  0  0  0  0
 11 16  4  0  0  0  0
 15 16  4  0  0  0  0
  1 17  1  0  0  0  0
  1 18  1  0  0  0  0
  1 19  1  0  0  0  0
  3 20  1  0  0  0  0
  4 21  1  0  0  0  0
  4 22  1  0  0  0  0
  6 23  1  0  0  0  0
  7 24  1  0  0  0  0
  8 25  1  0  0  0  0
  9 26  1  0  0  0  0
 10 27  1  0  0  0  0
 12 28  1  0  0  0  0
 13 29  1  0  0  0  0
 14 30  1  0  0  0  0
 15 31  1  0  0  0  0
 16 32  1  0  0  0  0
M  END
