 xtb: 6.7.1 (edcfbbe)
          07082620063D

 18 17  0     0  0            999 V2000
    2.3804    0.7389    0.3981 C   0  0  0  0  0  0  0  0  0  0  0  0
    0.9739    0.4717   -0.1220 C   0  0  0  0  0  0  0  0  0  0  0  0
    0.3298   -0.7101    0.5997 C   0  0  0  0  0  0  0  0  0  0  0  0
   -1.0681   -1.0462    0.0406 C   0  0  0  0  0  0  0  0  0  0  0  0
   -1.0223   -1.4201   -1.3083 O   0  0  0  0  0  0  0  0  0  0  0  0
   -1.9867    0.1490    0.2072 C   0  0  0  0  0  0  0  0  0  0  0  0
   -2.4371    0.7622   -0.7270 O   0  0  0  0  0  0  0  0  0  0  0  0
   -2.2341    0.4553    1.4776 O   0  0  0  0  0  0  0  0  0  0  0  0
    2.3586    0.9613    1.4629 H   0  0  0  0  0  0  0  0  0  0  0  0
    2.8236    1.5851   -0.1209 H   0  0  0  0  0  0  0  0  0  0  0  0
    3.0149   -0.1304    0.2424 H   0  0  0  0  0  0  0  0  0  0  0  0
    0.3606    1.3663    0.0132 H   0  0  0  0  0  0  0  0  0  0  0  0
    1.0166    0.2528   -1.1905 H   0  0  0  0  0  0  0  0  0  0  0  0
    0.2329   -0.4989    1.6656 H   0  0  0  0  0  0  0  0  0  0  0  0
    0.9556   -1.5945    0.4736 H   0  0  0  0  0  0  0  0  0  0  0  0
   -1.4847   -1.8831    0.6184 H   0  0  0  0  0  0  0  0  0  0  0  0
   -1.3990   -0.6911   -1.8254 H   0  0  0  0  0  0  0  0  0  0  0  0
   -2.8148    1.2317    1.5349 H   0  0  0  0  0  0  0  0  0  0  0  0
  1  2  1  0  0  0  0
  2  3  1  0  0  0  0
  3  4  1  0  0  0  0
  4  5  1  0  0  0  0
  4  6  1  0  0  0  0
  6  7  2  0  0  0  0
  6  8  1  0  0  0  0
  1  9  1  0  0  0  0
  1 10  1  0  0  0  0
  1 11  1  0  0  0  0
  2 12  1  0  0  0  0
  2 13  1  0  0  0  0
  3 14  1  0  0  0  0
  3 15  1  0  0  0  0
  4 16  1  0  0  0  0
  5 17  1  0  0  0  0
  8 18  1  0  0  0  0
M  END
