 xtb: 6.7.1 (edcfbbe)
          07082610243D

 29 30  0     0  0            999 V2000
    3.2018   -0.7148   -0.5884 C   0  0  0  0  0  0  0  0  0  0  0  0
    1.6852   -0.8114   -0.7021 C   0  0  0  0  0  0  0  0  0  0  0  0
    0.9362   -0.1843    0.4872 C   0  0  0  0  0  0  0  0  0  0  0  0
   -0.5251   -0.5575    0.4022 C   0  0  0  0  0  0  0  0  0  0  0  0
   -0.9023   -1.8531    0.7443 C   0  0  0  0  0  0  0  0  0  0  0  0
   -2.2150   -2.2687    0.6463 C   0  0  0  0  0  0  0  0  0  0  0  0
   -3.1811   -1.3820    0.1994 C   0  0  0  0  0  0  0  0  0  0  0  0
   -2.8197   -0.0914   -0.1308 C   0  0  0  0  0  0  0  0  0  0  0  0
   -1.4989    0.3369   -0.0347 C   0  0  0  0  0  0  0  0  0  0  0  0
   -1.1832    1.7739   -0.3543 C   0  0  0  0  0  0  0  0  0  0  0  0
    0.3107    2.0457   -0.5073 C   0  0  0  0  0  0  0  0  0  0  0  0
    1.1103    1.3387    0.5912 C   0  0  0  0  0  0  0  0  0  0  0  0
    0.7545    1.7952    1.8794 O   0  0  0  0  0  0  0  0  0  0  0  0
    3.5398    0.3164   -0.6464 H   0  0  0  0  0  0  0  0  0  0  0  0
    3.5415   -1.1347    0.3557 H   0  0  0  0  0  0  0  0  0  0  0  0
    3.6706   -1.2688   -1.3986 H   0  0  0  0  0  0  0  0  0  0  0  0
    1.4037   -1.8658   -0.7538 H   0  0  0  0  0  0  0  0  0  0  0  0
    1.3553   -0.3458   -1.6324 H   0  0  0  0  0  0  0  0  0  0  0  0
    1.3518   -0.6192    1.4051 H   0  0  0  0  0  0  0  0  0  0  0  0
   -0.1477   -2.5418    1.0981 H   0  0  0  0  0  0  0  0  0  0  0  0
   -2.4858   -3.2782    0.9177 H   0  0  0  0  0  0  0  0  0  0  0  0
   -4.2111   -1.6951    0.1143 H   0  0  0  0  0  0  0  0  0  0  0  0
   -3.5714    0.6075   -0.4711 H   0  0  0  0  0  0  0  0  0  0  0  0
   -1.5854    2.4004    0.4504 H   0  0  0  0  0  0  0  0  0  0  0  0
   -1.7064    2.0666   -1.2678 H   0  0  0  0  0  0  0  0  0  0  0  0
    0.6601    1.6927   -1.4776 H   0  0  0  0  0  0  0  0  0  0  0  0
    0.4955    3.1200   -0.4536 H   0  0  0  0  0  0  0  0  0  0  0  0
    2.1686    1.6005    0.4987 H   0  0  0  0  0  0  0  0  0  0  0  0
   -0.1525    1.5182    2.0531 H   0  0  0  0  0  0  0  0  0  0  0  0
  1  2  1  0  0  0  0
  2  3  1  0  0  0  0
  3  4  1  0  0  0  0
  4  5  4  0  0  0  0
  5  6  4  0  0  0  0
  6  7  4  0  0  0  0
  7  8  4  0  0  0  0
  4  9  4  0  0  0  0
  8  9  4  0  0  0  0
  9 10  1  0  0  0  0
 10 11  1  0  0  0  0
  3 12  1  0  0  0  0
 11 12  1  0  0  0  0
 12 13  1  0  0  0  0
  1 14  1  0  0  0  0
  1 15  1  0  0  0  0
  1 16  1  0  0  0  0
  2 17  1  0  0  0  0
  2 18  1  0  0  0  0
  3 19  1  0  0  0  0
  5 20  1  0  0  0  0
  6 21  1  0  0  0  0
  7 22  1  0  0  0  0
  8 23  1  0  0  0  0
 10 24  1  0  0  0  0
 10 25  1  0  0  0  0
 11 26  1  0  0  0  0
 11 27  1  0  0  0  0
 12 28  1  0  0  0  0
 13 29  1  0  0  0  0
M  END
