 xtb: 6.7.1 (edcfbbe)
          07092607273D

 20 19  0     0  0            999 V2000
   -1.1866    0.9270    1.8854 C   0  0  0  0  0  0  0  0  0  0  0  0
   -1.5798   -0.1144    0.8445 C   0  0  0  0  0  0  0  0  0  0  0  0
   -0.7636    0.0213   -0.4379 C   0  0  0  0  0  0  0  0  0  0  0  0
   -1.2162   -0.9358   -1.5329 C   0  0  0  0  0  0  0  0  0  0  0  0
    0.6094   -0.2806   -0.0909 O   0  0  0  0  0  0  0  0  0  0  0  0
    1.5531    0.3144   -0.7728 C   0  0  0  0  0  0  0  0  0  0  0  0
    1.4279    1.0955   -1.6693 O   0  0  0  0  0  0  0  0  0  0  0  0
    2.9333   -0.1260   -0.2356 C   0  0  0  0  0  0  0  0  0  0  0  0
    3.0543    0.3885    1.4574 Cl  0  0  0  0  0  0  0  0  0  0  0  0
    4.2161    0.6169   -1.1826 Cl  0  0  0  0  0  0  0  0  0  0  0  0
    3.0516   -1.8905   -0.3283 Cl  0  0  0  0  0  0  0  0  0  0  0  0
   -1.3460    1.9322    1.5011 H   0  0  0  0  0  0  0  0  0  0  0  0
   -0.1380    0.8201    2.1516 H   0  0  0  0  0  0  0  0  0  0  0  0
   -1.7838    0.8035    2.7848 H   0  0  0  0  0  0  0  0  0  0  0  0
   -2.6347   -0.0064    0.5896 H   0  0  0  0  0  0  0  0  0  0  0  0
   -1.4234   -1.1159    1.2476 H   0  0  0  0  0  0  0  0  0  0  0  0
   -0.7924    1.0533   -0.8083 H   0  0  0  0  0  0  0  0  0  0  0  0
   -0.5912   -0.8168   -2.4148 H   0  0  0  0  0  0  0  0  0  0  0  0
   -2.2460   -0.7234   -1.8044 H   0  0  0  0  0  0  0  0  0  0  0  0
   -1.1437   -1.9630   -1.1841 H   0  0  0  0  0  0  0  0  0  0  0  0
  1  2  1  0  0  0  0
  2  3  1  0  0  0  0
  3  4  1  0  0  0  0
  3  5  1  0  0  0  0
  5  6  4  0  0  0  0
  6  7  2  0  0  0  0
  6  8  1  0  0  0  0
  8  9  1  0  0  0  0
  8 10  1  0  0  0  0
  8 11  1  0  0  0  0
  1 12  1  0  0  0  0
  1 13  1  0  0  0  0
  1 14  1  0  0  0  0
  2 15  1  0  0  0  0
  2 16  1  0  0  0  0
  3 17  1  0  0  0  0
  4 18  1  0  0  0  0
  4 19  1  0  0  0  0
  4 20  1  0  0  0  0
M  END
