 xtb: 6.7.1 (edcfbbe)
          07072620363D

 30 30  0     0  0            999 V2000
   -3.1617   -1.1509   -0.6034 C   0  0  0  0  0  0  0  0  0  0  0  0
   -2.4736   -0.8409    0.5775 O   0  0  0  0  0  0  0  0  0  0  0  0
   -2.2401    0.5464    0.7854 C   0  0  0  0  0  0  0  0  0  0  0  0
   -3.4965    1.2767    1.2631 C   0  0  0  0  0  0  0  0  0  0  0  0
   -1.1227    0.6587    1.8270 C   0  0  0  0  0  0  0  0  0  0  0  0
    0.1639   -0.0071    1.3445 C   0  0  0  0  0  0  0  0  0  0  0  0
    0.8504    0.7863    0.2535 C   0  0  0  0  0  0  0  0  0  0  0  0
    0.4863    1.8978   -0.0648 O   0  0  0  0  0  0  0  0  0  0  0  0
    2.0056    0.1365   -0.4231 C   0  0  0  0  0  0  0  0  0  0  0  0
    2.5287    0.7656   -1.5538 C   0  0  0  0  0  0  0  0  0  0  0  0
    3.5968    0.2193   -2.2374 C   0  0  0  0  0  0  0  0  0  0  0  0
    4.1645   -0.9648   -1.7957 C   0  0  0  0  0  0  0  0  0  0  0  0
    3.6588   -1.5950   -0.6697 C   0  0  0  0  0  0  0  0  0  0  0  0
    2.5855   -1.0536    0.0136 C   0  0  0  0  0  0  0  0  0  0  0  0
   -3.1498   -2.2365   -0.6904 H   0  0  0  0  0  0  0  0  0  0  0  0
   -2.6665   -0.7107   -1.4789 H   0  0  0  0  0  0  0  0  0  0  0  0
   -4.2023   -0.8080   -0.5796 H   0  0  0  0  0  0  0  0  0  0  0  0
   -1.8987    0.9988   -0.1587 H   0  0  0  0  0  0  0  0  0  0  0  0
   -4.2794    1.2381    0.5097 H   0  0  0  0  0  0  0  0  0  0  0  0
   -3.2614    2.3186    1.4598 H   0  0  0  0  0  0  0  0  0  0  0  0
   -3.8667    0.8153    2.1757 H   0  0  0  0  0  0  0  0  0  0  0  0
   -0.9352    1.7140    2.0260 H   0  0  0  0  0  0  0  0  0  0  0  0
   -1.4586    0.1751    2.7449 H   0  0  0  0  0  0  0  0  0  0  0  0
   -0.0712   -1.0055    0.9720 H   0  0  0  0  0  0  0  0  0  0  0  0
    0.8651   -0.1075    2.1769 H   0  0  0  0  0  0  0  0  0  0  0  0
    2.0740    1.6894   -1.8798 H   0  0  0  0  0  0  0  0  0  0  0  0
    3.9886    0.7147   -3.1134 H   0  0  0  0  0  0  0  0  0  0  0  0
    5.0005   -1.3964   -2.3262 H   0  0  0  0  0  0  0  0  0  0  0  0
    4.1048   -2.5156   -0.3227 H   0  0  0  0  0  0  0  0  0  0  0  0
    2.2113   -1.5586    0.8903 H   0  0  0  0  0  0  0  0  0  0  0  0
  1  2  1  0  0  0  0
  2  3  1  0  0  0  0
  3  4  1  0  0  0  0
  3  5  1  0  0  0  0
  5  6  1  0  0  0  0
  6  7  1  0  0  0  0
  7  8  2  0  0  0  0
  7  9  1  0  0  0  0
  9 10  4  0  0  0  0
 10 11  4  0  0  0  0
 11 12  4  0  0  0  0
 12 13  4  0  0  0  0
  9 14  4  0  0  0  0
 13 14  4  0  0  0  0
  1 15  1  0  0  0  0
  1 16  1  0  0  0  0
  1 17  1  0  0  0  0
  3 18  1  0  0  0  0
  4 19  1  0  0  0  0
  4 20  1  0  0  0  0
  4 21  1  0  0  0  0
  5 22  1  0  0  0  0
  5 23  1  0  0  0  0
  6 24  1  0  0  0  0
  6 25  1  0  0  0  0
 10 26  1  0  0  0  0
 11 27  1  0  0  0  0
 12 28  1  0  0  0  0
 13 29  1  0  0  0  0
 14 30  1  0  0  0  0
M  END
