 xtb: 6.7.1 (edcfbbe)
          07092621143D

 32 31  0     0  0            999 V2000
    4.4672    1.6267   -0.3575 C   0  0  0  0  0  0  0  0  0  0  0  0
    4.0049    0.2218   -0.7240 C   0  0  0  0  0  0  0  0  0  0  0  0
    2.7174   -0.1575    0.0033 C   0  0  0  0  0  0  0  0  0  0  0  0
    2.2532   -1.5679   -0.3516 C   0  0  0  0  0  0  0  0  0  0  0  0
    0.9674   -1.9438    0.3898 C   0  0  0  0  0  0  0  0  0  0  0  0
   -0.1860   -1.0945   -0.0947 C   0  0  0  0  0  0  0  0  0  0  0  0
   -0.5449   -1.0099   -1.2398 O   0  0  0  0  0  0  0  0  0  0  0  0
   -0.7536   -0.4313    0.9181 O   0  0  0  0  0  0  0  0  0  0  0  0
   -1.8662    0.4085    0.6064 C   0  0  0  0  0  0  0  0  0  0  0  0
   -3.1663   -0.3913    0.5726 C   0  0  0  0  0  0  0  0  0  0  0  0
   -4.4012    0.4973    0.4330 C   0  0  0  0  0  0  0  0  0  0  0  0
   -4.4714    1.2149   -0.9100 C   0  0  0  0  0  0  0  0  0  0  0  0
    4.6582    1.6992    0.7112 H   0  0  0  0  0  0  0  0  0  0  0  0
    3.7056    2.3582   -0.6186 H   0  0  0  0  0  0  0  0  0  0  0  0
    5.3823    1.8800   -0.8875 H   0  0  0  0  0  0  0  0  0  0  0  0
    3.8391    0.1633   -1.8017 H   0  0  0  0  0  0  0  0  0  0  0  0
    4.7881   -0.4963   -0.4696 H   0  0  0  0  0  0  0  0  0  0  0  0
    2.8784   -0.0896    1.0822 H   0  0  0  0  0  0  0  0  0  0  0  0
    1.9331    0.5560   -0.2596 H   0  0  0  0  0  0  0  0  0  0  0  0
    2.0672   -1.6320   -1.4254 H   0  0  0  0  0  0  0  0  0  0  0  0
    3.0362   -2.2852   -0.0977 H   0  0  0  0  0  0  0  0  0  0  0  0
    0.7199   -2.9871    0.1835 H   0  0  0  0  0  0  0  0  0  0  0  0
    1.0813   -1.8079    1.4651 H   0  0  0  0  0  0  0  0  0  0  0  0
   -1.8911    1.1606    1.3983 H   0  0  0  0  0  0  0  0  0  0  0  0
   -1.6833    0.8856   -0.3608 H   0  0  0  0  0  0  0  0  0  0  0  0
   -3.2357   -0.9672    1.4987 H   0  0  0  0  0  0  0  0  0  0  0  0
   -3.1218   -1.0941   -0.2618 H   0  0  0  0  0  0  0  0  0  0  0  0
   -5.2870   -0.1314    0.5450 H   0  0  0  0  0  0  0  0  0  0  0  0
   -4.4124    1.2317    1.2419 H   0  0  0  0  0  0  0  0  0  0  0  0
   -4.3912    0.5006   -1.7258 H   0  0  0  0  0  0  0  0  0  0  0  0
   -3.6692    1.9411   -1.0090 H   0  0  0  0  0  0  0  0  0  0  0  0
   -5.4182    1.7414   -1.0058 H   0  0  0  0  0  0  0  0  0  0  0  0
  1  2  1  0  0  0  0
  2  3  1  0  0  0  0
  3  4  1  0  0  0  0
  4  5  1  0  0  0  0
  5  6  1  0  0  0  0
  6  7  2  0  0  0  0
  6  8  1  0  0  0  0
  8  9  1  0  0  0  0
  9 10  1  0  0  0  0
 10 11  1  0  0  0  0
 11 12  1  0  0  0  0
  1 13  1  0  0  0  0
  1 14  1  0  0  0  0
  1 15  1  0  0  0  0
  2 16  1  0  0  0  0
  2 17  1  0  0  0  0
  3 18  1  0  0  0  0
  3 19  1  0  0  0  0
  4 20  1  0  0  0  0
  4 21  1  0  0  0  0
  5 22  1  0  0  0  0
  5 23  1  0  0  0  0
  9 24  1  0  0  0  0
  9 25  1  0  0  0  0
 10 26  1  0  0  0  0
 10 27  1  0  0  0  0
 11 28  1  0  0  0  0
 11 29  1  0  0  0  0
 12 30  1  0  0  0  0
 12 31  1  0  0  0  0
 12 32  1  0  0  0  0
M  END
