 xtb: 6.7.1 (edcfbbe)
          07092609343D

 27 27  0     0  0            999 V2000
   -1.2151    1.8237   -1.1367 C   0  0  0  0  0  0  0  0  0  0  0  0
   -1.5588    0.3389   -1.0941 C   0  0  0  0  0  0  0  0  0  0  0  0
   -0.9854   -0.4023    0.1325 C   0  0  0  0  0  0  0  0  0  0  0  0
   -1.6938    0.0892    1.3981 C   0  0  0  0  0  0  0  0  0  0  0  0
   -1.2818   -1.9039   -0.0109 C   0  0  0  0  0  0  0  0  0  0  0  0
    0.5223   -0.2136    0.1898 C   0  0  0  0  0  0  0  0  0  0  0  0
    1.3027   -0.5941   -0.9000 C   0  0  0  0  0  0  0  0  0  0  0  0
    2.6764   -0.4436   -0.8906 C   0  0  0  0  0  0  0  0  0  0  0  0
    3.3111    0.0914    0.2169 C   0  0  0  0  0  0  0  0  0  0  0  0
    2.5527    0.4694    1.3086 C   0  0  0  0  0  0  0  0  0  0  0  0
    1.1758    0.3186    1.2944 C   0  0  0  0  0  0  0  0  0  0  0  0
   -1.6680    2.3581   -0.3058 H   0  0  0  0  0  0  0  0  0  0  0  0
   -1.5845    2.2639   -2.0605 H   0  0  0  0  0  0  0  0  0  0  0  0
   -0.1378    1.9682   -1.0939 H   0  0  0  0  0  0  0  0  0  0  0  0
   -2.6449    0.2199   -1.0945 H   0  0  0  0  0  0  0  0  0  0  0  0
   -1.1825   -0.1308   -2.0045 H   0  0  0  0  0  0  0  0  0  0  0  0
   -1.4982    1.1414    1.5841 H   0  0  0  0  0  0  0  0  0  0  0  0
   -2.7685   -0.0407    1.2848 H   0  0  0  0  0  0  0  0  0  0  0  0
   -1.3766   -0.4858    2.2652 H   0  0  0  0  0  0  0  0  0  0  0  0
   -0.8437   -2.3105   -0.9183 H   0  0  0  0  0  0  0  0  0  0  0  0
   -0.8734   -2.4494    0.8374 H   0  0  0  0  0  0  0  0  0  0  0  0
   -2.3562   -2.0732   -0.0452 H   0  0  0  0  0  0  0  0  0  0  0  0
    0.8363   -1.0139   -1.7788 H   0  0  0  0  0  0  0  0  0  0  0  0
    3.2540   -0.7454   -1.7527 H   0  0  0  0  0  0  0  0  0  0  0  0
    4.3845    0.2112    0.2273 H   0  0  0  0  0  0  0  0  0  0  0  0
    3.0330    0.8873    2.1820 H   0  0  0  0  0  0  0  0  0  0  0  0
    0.6203    0.6261    2.1654 H   0  0  0  0  0  0  0  0  0  0  0  0
  1  2  1  0  0  0  0
  2  3  1  0  0  0  0
  3  4  1  0  0  0  0
  3  5  1  0  0  0  0
  3  6  1  0  0  0  0
  6  7  4  0  0  0  0
  7  8  4  0  0  0  0
  8  9  4  0  0  0  0
  9 10  4  0  0  0  0
  6 11  4  0  0  0  0
 10 11  4  0  0  0  0
  1 12  1  0  0  0  0
  1 13  1  0  0  0  0
  1 14  1  0  0  0  0
  2 15  1  0  0  0  0
  2 16  1  0  0  0  0
  4 17  1  0  0  0  0
  4 18  1  0  0  0  0
  4 19  1  0  0  0  0
  5 20  1  0  0  0  0
  5 21  1  0  0  0  0
  5 22  1  0  0  0  0
  7 23  1  0  0  0  0
  8 24  1  0  0  0  0
  9 25  1  0  0  0  0
 10 26  1  0  0  0  0
 11 27  1  0  0  0  0
M  END
