 xtb: 6.7.1 (edcfbbe)
          07082618183D

 17 16  0     0  0            999 V2000
    2.6578    0.5198   -0.0098 C   0  0  0  0  0  0  0  0  0  0  0  0
    1.4099    0.3399    0.6078 O   0  0  0  0  0  0  0  0  0  0  0  0
    0.4456   -0.2353   -0.2488 C   0  0  0  0  0  0  0  0  0  0  0  0
   -0.8644   -0.3404    0.5368 C   0  0  0  0  0  0  0  0  0  0  0  0
   -1.2217    0.9228    1.0547 O   0  0  0  0  0  0  0  0  0  0  0  0
   -2.0176   -0.7963   -0.3668 C   0  0  0  0  0  0  0  0  0  0  0  0
   -2.2656    0.1369   -1.3817 O   0  0  0  0  0  0  0  0  0  0  0  0
    3.0788   -0.4380   -0.3377 H   0  0  0  0  0  0  0  0  0  0  0  0
    3.3118    0.9684    0.7351 H   0  0  0  0  0  0  0  0  0  0  0  0
    2.5785    1.1851   -0.8781 H   0  0  0  0  0  0  0  0  0  0  0  0
    0.2936    0.3989   -1.1345 H   0  0  0  0  0  0  0  0  0  0  0  0
    0.7662   -1.2322   -0.5822 H   0  0  0  0  0  0  0  0  0  0  0  0
   -0.7315   -1.0595    1.3596 H   0  0  0  0  0  0  0  0  0  0  0  0
   -0.4187    1.3102    1.4248 H   0  0  0  0  0  0  0  0  0  0  0  0
   -1.7686   -1.7409   -0.8536 H   0  0  0  0  0  0  0  0  0  0  0  0
   -2.9117   -0.9364    0.2561 H   0  0  0  0  0  0  0  0  0  0  0  0
   -2.3422    0.9971   -0.9462 H   0  0  0  0  0  0  0  0  0  0  0  0
  1  2  1  0  0  0  0
  2  3  1  0  0  0  0
  3  4  1  0  0  0  0
  4  5  1  0  0  0  0
  4  6  1  0  0  0  0
  6  7  1  0  0  0  0
  1  8  1  0  0  0  0
  1  9  1  0  0  0  0
  1 10  1  0  0  0  0
  3 11  1  0  0  0  0
  3 12  1  0  0  0  0
  4 13  1  0  0  0  0
  5 14  1  0  0  0  0
  6 15  1  0  0  0  0
  6 16  1  0  0  0  0
  7 17  1  0  0  0  0
M  END
