 xtb: 6.7.1 (edcfbbe)
          07092618463D

 26 26  0     0  0            999 V2000
    2.9659   -1.2195   -0.9701 C   0  0  0  0  0  0  0  0  0  0  0  0
    2.9005   -0.1597   -0.1715 C   0  0  0  0  0  0  0  0  0  0  0  0
    4.0055    0.8341   -0.0065 C   0  0  0  0  0  0  0  0  0  0  0  0
    1.6882    0.1316    0.6417 C   0  0  0  0  0  0  0  0  0  0  0  0
    1.5828    1.0845    1.3739 O   0  0  0  0  0  0  0  0  0  0  0  0
    0.7209   -0.7862    0.4797 O   0  0  0  0  0  0  0  0  0  0  0  0
   -0.4802   -0.5871    1.2124 C   0  0  0  0  0  0  0  0  0  0  0  0
   -1.3775    0.4868    0.5697 C   0  0  0  0  0  0  0  0  0  0  0  0
   -1.6462    0.1878   -0.9202 C   0  0  0  0  0  0  0  0  0  0  0  0
   -3.1730    0.2109   -1.0227 C   0  0  0  0  0  0  0  0  0  0  0  0
   -3.5839   -0.1300    0.4087 C   0  0  0  0  0  0  0  0  0  0  0  0
   -2.6321    0.5189    1.2268 O   0  0  0  0  0  0  0  0  0  0  0  0
    3.8454   -1.4252   -1.5573 H   0  0  0  0  0  0  0  0  0  0  0  0
    2.1467   -1.9107   -1.0582 H   0  0  0  0  0  0  0  0  0  0  0  0
    4.8608    0.5708   -0.6217 H   0  0  0  0  0  0  0  0  0  0  0  0
    3.6523    1.8270   -0.2794 H   0  0  0  0  0  0  0  0  0  0  0  0
    4.3083    0.8784    1.0382 H   0  0  0  0  0  0  0  0  0  0  0  0
   -0.9898   -1.5529    1.2090 H   0  0  0  0  0  0  0  0  0  0  0  0
   -0.2484   -0.2918    2.2403 H   0  0  0  0  0  0  0  0  0  0  0  0
   -0.9090    1.4655    0.7182 H   0  0  0  0  0  0  0  0  0  0  0  0
   -1.2540   -0.7974   -1.1749 H   0  0  0  0  0  0  0  0  0  0  0  0
   -1.1753    0.9224   -1.5696 H   0  0  0  0  0  0  0  0  0  0  0  0
   -3.5608   -0.4987   -1.7495 H   0  0  0  0  0  0  0  0  0  0  0  0
   -3.5227    1.2111   -1.2781 H   0  0  0  0  0  0  0  0  0  0  0  0
   -4.5677    0.2472    0.6891 H   0  0  0  0  0  0  0  0  0  0  0  0
   -3.5567   -1.2177    0.5720 H   0  0  0  0  0  0  0  0  0  0  0  0
  1  2  2  0  0  0  0
  2  3  1  0  0  0  0
  2  4  1  0  0  0  0
  4  5  2  0  0  0  0
  4  6  1  0  0  0  0
  6  7  1  0  0  0  0
  7  8  1  0  0  0  0
  8  9  1  0  0  0  0
  9 10  1  0  0  0  0
 10 11  1  0  0  0  0
  8 12  1  0  0  0  0
 11 12  1  0  0  0  0
  1 13  1  0  0  0  0
  1 14  1  0  0  0  0
  3 15  1  0  0  0  0
  3 16  1  0  0  0  0
  3 17  1  0  0  0  0
  7 18  1  0  0  0  0
  7 19  1  0  0  0  0
  8 20  1  0  0  0  0
  9 21  1  0  0  0  0
  9 22  1  0  0  0  0
 10 23  1  0  0  0  0
 10 24  1  0  0  0  0
 11 25  1  0  0  0  0
 11 26  1  0  0  0  0
M  END
