 xtb: 6.7.1 (edcfbbe)
          07062618373D

 53 56  0     0  0            999 V2000
   -5.6804    1.1654    0.3205 C   0  0  0  0  0  0  0  0  0  0  0  0
   -6.7539    1.1709    1.2090 C   0  0  0  0  0  0  0  0  0  0  0  0
   -7.1526   -0.0417    1.7126 C   0  0  0  0  0  0  0  0  0  0  0  0
   -6.5090   -1.2244    1.3473 C   0  0  0  0  0  0  0  0  0  0  0  0
   -5.4532   -1.2308    0.4721 C   0  0  0  0  0  0  0  0  0  0  0  0
   -5.0336   -0.0029   -0.0512 C   0  0  0  0  0  0  0  0  0  0  0  0
   -3.8581    0.0279   -0.9866 C   0  0  0  0  0  0  0  0  0  0  0  0
   -2.5324   -0.1170   -0.2296 C   0  0  0  0  0  0  0  0  0  0  0  0
   -2.2607    1.0672    0.6936 C   0  0  0  0  0  0  0  0  0  0  0  0
   -0.9133    0.9300    1.3937 C   0  0  0  0  0  0  0  0  0  0  0  0
    0.1094    0.9742    0.4277 O   0  0  0  0  0  0  0  0  0  0  0  0
    1.3987    0.8056    0.9665 C   0  0  0  0  0  0  0  0  0  0  0  0
    2.4140    0.8064   -0.1709 C   0  0  0  0  0  0  0  0  0  0  0  0
    2.2139   -0.3896   -1.0972 C   0  0  0  0  0  0  0  0  0  0  0  0
    3.1876   -0.3791   -2.2821 C   0  0  0  0  0  0  0  0  0  0  0  0
    4.6105   -0.5422   -1.8271 C   0  0  0  0  0  0  0  0  0  0  0  0
    5.0876   -1.7979   -1.4801 C   0  0  0  0  0  0  0  0  0  0  0  0
    6.3863   -1.9996   -1.0203 C   0  0  0  0  0  0  0  0  0  0  0  0
    7.1906   -0.8916   -0.9203 C   0  0  0  0  0  0  0  0  0  0  0  0
    6.7231    0.3758   -1.2659 C   0  0  0  0  0  0  0  0  0  0  0  0
    5.4431    0.5755   -1.7193 C   0  0  0  0  0  0  0  0  0  0  0  0
    7.7224    1.2965   -1.0755 O   0  0  0  0  0  0  0  0  0  0  0  0
    8.8338    0.5672   -0.6031 C   0  0  0  0  0  0  0  0  0  0  0  0
    8.4958   -0.7987   -0.5054 O   0  0  0  0  0  0  0  0  0  0  0  0
   -7.1046   -2.2820    1.9868 O   0  0  0  0  0  0  0  0  0  0  0  0
   -8.1458   -1.7281    2.7610 C   0  0  0  0  0  0  0  0  0  0  0  0
   -8.1682   -0.3282    2.5903 O   0  0  0  0  0  0  0  0  0  0  0  0
   -5.3466    2.1052   -0.0923 H   0  0  0  0  0  0  0  0  0  0  0  0
   -7.2524    2.0834    1.4897 H   0  0  0  0  0  0  0  0  0  0  0  0
   -4.9691   -2.1527    0.1948 H   0  0  0  0  0  0  0  0  0  0  0  0
   -3.8516    0.9658   -1.5435 H   0  0  0  0  0  0  0  0  0  0  0  0
   -3.9436   -0.7929   -1.7017 H   0  0  0  0  0  0  0  0  0  0  0  0
   -1.7136   -0.1901   -0.9461 H   0  0  0  0  0  0  0  0  0  0  0  0
   -2.5523   -1.0361    0.3597 H   0  0  0  0  0  0  0  0  0  0  0  0
   -2.2508    1.9882    0.1090 H   0  0  0  0  0  0  0  0  0  0  0  0
   -3.0458    1.1425    1.4478 H   0  0  0  0  0  0  0  0  0  0  0  0
   -0.8670   -0.0231    1.9460 H   0  0  0  0  0  0  0  0  0  0  0  0
   -0.7772    1.7464    2.1220 H   0  0  0  0  0  0  0  0  0  0  0  0
    1.4520   -0.1448    1.5227 H   0  0  0  0  0  0  0  0  0  0  0  0
    1.6188    1.6213    1.6749 H   0  0  0  0  0  0  0  0  0  0  0  0
    2.2915    1.7299   -0.7385 H   0  0  0  0  0  0  0  0  0  0  0  0
    3.4193    0.7887    0.2529 H   0  0  0  0  0  0  0  0  0  0  0  0
    1.1899   -0.3676   -1.4715 H   0  0  0  0  0  0  0  0  0  0  0  0
    2.3493   -1.3122   -0.5289 H   0  0  0  0  0  0  0  0  0  0  0  0
    2.9261   -1.1977   -2.9558 H   0  0  0  0  0  0  0  0  0  0  0  0
    3.0778    0.5593   -2.8271 H   0  0  0  0  0  0  0  0  0  0  0  0
    4.4328   -2.6512   -1.5728 H   0  0  0  0  0  0  0  0  0  0  0  0
    6.7493   -2.9786   -0.7562 H   0  0  0  0  0  0  0  0  0  0  0  0
    5.0977    1.5609   -1.9844 H   0  0  0  0  0  0  0  0  0  0  0  0
    9.6784    0.6892   -1.3009 H   0  0  0  0  0  0  0  0  0  0  0  0
    9.1284    0.9462    0.3891 H   0  0  0  0  0  0  0  0  0  0  0  0
   -9.1105   -2.1543    2.4401 H   0  0  0  0  0  0  0  0  0  0  0  0
   -7.9818   -1.9674    3.8243 H   0  0  0  0  0  0  0  0  0  0  0  0
  1  2  4  0  0  0  0
  2  3  4  0  0  0  0
  3  4  4  0  0  0  0
  4  5  4  0  0  0  0
  1  6  4  0  0  0  0
  5  6  4  0  0  0  0
  6  7  1  0  0  0  0
  7  8  1  0  0  0  0
  8  9  1  0  0  0  0
  9 10  1  0  0  0  0
 10 11  1  0  0  0  0
 11 12  1  0  0  0  0
 12 13  1  0  0  0  0
 13 14  1  0  0  0  0
 14 15  1  0  0  0  0
 15 16  1  0  0  0  0
 16 17  4  0  0  0  0
 17 18  4  0  0  0  0
 18 19  4  0  0  0  0
 19 20  4  0  0  0  0
 16 21  4  0  0  0  0
 20 21  4  0  0  0  0
 20 22  1  0  0  0  0
 22 23  1  0  0  0  0
 19 24  1  0  0  0  0
 23 24  1  0  0  0  0
  4 25  1  0  0  0  0
 25 26  1  0  0  0  0
  3 27  1  0  0  0  0
 26 27  1  0  0  0  0
  1 28  1  0  0  0  0
  2 29  1  0  0  0  0
  5 30  1  0  0  0  0
  7 31  1  0  0  0  0
  7 32  1  0  0  0  0
  8 33  1  0  0  0  0
  8 34  1  0  0  0  0
  9 35  1  0  0  0  0
  9 36  1  0  0  0  0
 10 37  1  0  0  0  0
 10 38  1  0  0  0  0
 12 39  1  0  0  0  0
 12 40  1  0  0  0  0
 13 41  1  0  0  0  0
 13 42  1  0  0  0  0
 14 43  1  0  0  0  0
 14 44  1  0  0  0  0
 15 45  1  0  0  0  0
 15 46  1  0  0  0  0
 17 47  1  0  0  0  0
 18 48  1  0  0  0  0
 21 49  1  0  0  0  0
 23 50  1  0  0  0  0
 23 51  1  0  0  0  0
 26 52  1  0  0  0  0
 26 53  1  0  0  0  0
M  END
