 xtb: 6.7.1 (edcfbbe)
          07082616143D

 26 25  0     0  0            999 V2000
   -1.9064   -1.7877    1.5706 H   0  0  0  0  0  0  0  0  0  0  0  0
   -1.7840   -0.7209    1.7635 C   0  0  0  0  0  0  0  0  0  0  0  0
   -0.7501   -0.5391    2.0395 H   0  0  0  0  0  0  0  0  0  0  0  0
   -2.4186   -0.4657    2.6116 H   0  0  0  0  0  0  0  0  0  0  0  0
   -2.2016    0.0647    0.5557 C   0  0  0  0  0  0  0  0  0  0  0  0
   -1.3811    0.7369   -0.2429 C   0  0  0  0  0  0  0  0  0  0  0  0
    0.1084    0.8423   -0.1474 C   0  0  0  0  0  0  0  0  0  0  0  0
    0.7819   -0.0674   -1.1924 C   0  0  0  0  0  0  0  0  0  0  0  0
    2.2777   -0.0044   -1.0684 C   0  0  0  0  0  0  0  0  0  0  0  0
    3.0009    0.7627   -1.8845 C   0  0  0  0  0  0  0  0  0  0  0  0
    2.9357   -0.7631   -0.0124 C   0  0  0  0  0  0  0  0  0  0  0  0
    2.3568   -1.6056    0.8355 C   0  0  0  0  0  0  0  0  0  0  0  0
   -3.6807    0.0304    0.2972 C   0  0  0  0  0  0  0  0  0  0  0  0
   -4.2204    0.4822    1.1296 H   0  0  0  0  0  0  0  0  0  0  0  0
   -4.0230   -1.0000    0.2032 H   0  0  0  0  0  0  0  0  0  0  0  0
   -3.9362    0.5667   -0.6128 H   0  0  0  0  0  0  0  0  0  0  0  0
   -1.8055    1.2501   -1.0975 H   0  0  0  0  0  0  0  0  0  0  0  0
    0.4118    1.8744   -0.3416 H   0  0  0  0  0  0  0  0  0  0  0  0
    0.4670    0.5732    0.8455 H   0  0  0  0  0  0  0  0  0  0  0  0
    0.4814    0.2580   -2.1899 H   0  0  0  0  0  0  0  0  0  0  0  0
    0.4316   -1.0912   -1.0540 H   0  0  0  0  0  0  0  0  0  0  0  0
    2.5469    1.3365   -2.6748 H   0  0  0  0  0  0  0  0  0  0  0  0
    4.0713    0.8433   -1.7927 H   0  0  0  0  0  0  0  0  0  0  0  0
    4.0053   -0.6036    0.0548 H   0  0  0  0  0  0  0  0  0  0  0  0
    1.3016   -1.8180    0.8200 H   0  0  0  0  0  0  0  0  0  0  0  0
    2.9294   -2.1263    1.5846 H   0  0  0  0  0  0  0  0  0  0  0  0
  1  2  1  0  0  0  0
  2  3  1  0  0  0  0
  2  4  1  0  0  0  0
  2  5  1  0  0  0  0
  5  6  2  0  0  0  0
  6  7  1  0  0  0  0
  7  8  1  0  0  0  0
  8  9  1  0  0  0  0
  9 10  2  0  0  0  0
  9 11  1  0  0  0  0
 11 12  2  0  0  0  0
  5 13  1  0  0  0  0
 13 14  1  0  0  0  0
 13 15  1  0  0  0  0
 13 16  1  0  0  0  0
  6 17  1  0  0  0  0
  7 18  1  0  0  0  0
  7 19  1  0  0  0  0
  8 20  1  0  0  0  0
  8 21  1  0  0  0  0
 10 22  1  0  0  0  0
 10 23  1  0  0  0  0
 11 24  1  0  0  0  0
 12 25  1  0  0  0  0
 12 26  1  0  0  0  0
M  END
