 xtb: 6.7.1 (edcfbbe)
          07072620513D

 27 28  0     0  0            999 V2000
    2.7344   -0.4445    1.5654 C   0  0  0  0  0  0  0  0  0  0  0  0
    1.8405    0.1473    0.5240 C   0  0  0  0  0  0  0  0  0  0  0  0
    2.2829    0.9569   -0.4339 C   0  0  0  0  0  0  0  0  0  0  0  0
    1.4368    1.4907   -1.4011 N   0  0  0  0  0  0  0  0  0  0  0  0
    0.0814    1.4058   -1.3863 C   0  0  0  0  0  0  0  0  0  0  0  0
   -0.5790    1.8489   -2.3036 O   0  0  0  0  0  0  0  0  0  0  0  0
   -0.5314    0.7865   -0.1392 C   0  0  0  0  0  0  0  0  0  0  0  0
   -1.8131    0.0013   -0.5022 C   0  0  0  0  0  0  0  0  0  0  0  0
   -3.0128    0.4233    0.3374 C   0  0  0  0  0  0  0  0  0  0  0  0
   -1.4558   -1.4834   -0.2993 C   0  0  0  0  0  0  0  0  0  0  0  0
    0.0656   -1.5291   -0.1860 C   0  0  0  0  0  0  0  0  0  0  0  0
    0.3880   -0.2248    0.5577 C   0  0  0  0  0  0  0  0  0  0  0  0
    2.4293   -0.1166    2.5592 H   0  0  0  0  0  0  0  0  0  0  0  0
    3.7680   -0.1508    1.4037 H   0  0  0  0  0  0  0  0  0  0  0  0
    2.6709   -1.5318    1.5421 H   0  0  0  0  0  0  0  0  0  0  0  0
    3.3193    1.2452   -0.5251 H   0  0  0  0  0  0  0  0  0  0  0  0
    1.8452    1.9681   -2.1926 H   0  0  0  0  0  0  0  0  0  0  0  0
   -0.7666    1.6307    0.5177 H   0  0  0  0  0  0  0  0  0  0  0  0
   -2.0459    0.1977   -1.5524 H   0  0  0  0  0  0  0  0  0  0  0  0
   -3.2589    1.4658    0.1499 H   0  0  0  0  0  0  0  0  0  0  0  0
   -2.8048    0.2993    1.3990 H   0  0  0  0  0  0  0  0  0  0  0  0
   -3.8799   -0.1827    0.0837 H   0  0  0  0  0  0  0  0  0  0  0  0
   -1.8251   -2.1059   -1.1125 H   0  0  0  0  0  0  0  0  0  0  0  0
   -1.9004   -1.8430    0.6308 H   0  0  0  0  0  0  0  0  0  0  0  0
    0.4206   -2.4137    0.3408 H   0  0  0  0  0  0  0  0  0  0  0  0
    0.5251   -1.5048   -1.1758 H   0  0  0  0  0  0  0  0  0  0  0  0
    0.0654   -0.3365    1.5984 H   0  0  0  0  0  0  0  0  0  0  0  0
  1  2  1  0  0  0  0
  2  3  2  0  0  0  0
  3  4  1  0  0  0  0
  4  5  4  0  0  0  0
  5  6  2  0  0  0  0
  5  7  1  0  0  0  0
  7  8  1  0  0  0  0
  8  9  1  0  0  0  0
  8 10  1  0  0  0  0
 10 11  1  0  0  0  0
  2 12  1  0  0  0  0
  7 12  1  0  0  0  0
 11 12  1  0  0  0  0
  1 13  1  0  0  0  0
  1 14  1  0  0  0  0
  1 15  1  0  0  0  0
  3 16  1  0  0  0  0
  4 17  1  0  0  0  0
  7 18  1  0  0  0  0
  8 19  1  0  0  0  0
  9 20  1  0  0  0  0
  9 21  1  0  0  0  0
  9 22  1  0  0  0  0
 10 23  1  0  0  0  0
 10 24  1  0  0  0  0
 11 25  1  0  0  0  0
 11 26  1  0  0  0  0
 12 27  1  0  0  0  0
M  END
