 xtb: 6.7.1 (edcfbbe)
          07082603293D

 30 30  0     0  0            999 V2000
   -1.0235   -0.7173    2.0831 C   0  0  0  0  0  0  0  0  0  0  0  0
   -0.5594    0.5515    1.3596 C   0  0  0  0  0  0  0  0  0  0  0  0
   -0.9524    0.6758   -0.0341 N   0  0  0  0  0  0  0  0  0  0  0  0
   -2.3517    1.0410   -0.2188 C   0  0  0  0  0  0  0  0  0  0  0  0
   -2.5480    2.5491   -0.0971 C   0  0  0  0  0  0  0  0  0  0  0  0
   -0.5430   -0.4304   -0.8897 C   0  0  0  0  0  0  0  0  0  0  0  0
   -0.7798   -0.0906   -2.2335 O   0  0  0  0  0  0  0  0  0  0  0  0
    0.9225   -0.7522   -0.6907 C   0  0  0  0  0  0  0  0  0  0  0  0
    1.8706    0.2571   -0.8175 C   0  0  0  0  0  0  0  0  0  0  0  0
    3.2171   -0.0265   -0.6848 C   0  0  0  0  0  0  0  0  0  0  0  0
    3.6315   -1.3239   -0.4317 C   0  0  0  0  0  0  0  0  0  0  0  0
    2.6937   -2.3345   -0.3138 C   0  0  0  0  0  0  0  0  0  0  0  0
    1.3450   -2.0499   -0.4452 C   0  0  0  0  0  0  0  0  0  0  0  0
   -0.7808   -0.6396    3.1397 H   0  0  0  0  0  0  0  0  0  0  0  0
   -2.0984   -0.8528    1.9874 H   0  0  0  0  0  0  0  0  0  0  0  0
   -0.5237   -1.5940    1.6793 H   0  0  0  0  0  0  0  0  0  0  0  0
   -0.9574    1.4267    1.8767 H   0  0  0  0  0  0  0  0  0  0  0  0
    0.5317    0.6047    1.4094 H   0  0  0  0  0  0  0  0  0  0  0  0
   -2.6426    0.7284   -1.2238 H   0  0  0  0  0  0  0  0  0  0  0  0
   -3.0071    0.5245    0.4975 H   0  0  0  0  0  0  0  0  0  0  0  0
   -2.3113    2.8978    0.9050 H   0  0  0  0  0  0  0  0  0  0  0  0
   -3.5824    2.8037   -0.3139 H   0  0  0  0  0  0  0  0  0  0  0  0
   -1.9034    3.0681   -0.8014 H   0  0  0  0  0  0  0  0  0  0  0  0
   -1.1519   -1.3392   -0.7319 H   0  0  0  0  0  0  0  0  0  0  0  0
   -0.2962    0.7238   -2.4181 H   0  0  0  0  0  0  0  0  0  0  0  0
    1.5436    1.2709   -1.0018 H   0  0  0  0  0  0  0  0  0  0  0  0
    3.9458    0.7654   -0.7793 H   0  0  0  0  0  0  0  0  0  0  0  0
    4.6834   -1.5459   -0.3286 H   0  0  0  0  0  0  0  0  0  0  0  0
    3.0121   -3.3484   -0.1208 H   0  0  0  0  0  0  0  0  0  0  0  0
    0.6157   -2.8433   -0.3613 H   0  0  0  0  0  0  0  0  0  0  0  0
  1  2  1  0  0  0  0
  2  3  1  0  0  0  0
  3  4  1  0  0  0  0
  4  5  1  0  0  0  0
  3  6  1  0  0  0  0
  6  7  1  0  0  0  0
  6  8  1  0  0  0  0
  8  9  4  0  0  0  0
  9 10  4  0  0  0  0
 10 11  4  0  0  0  0
 11 12  4  0  0  0  0
  8 13  4  0  0  0  0
 12 13  4  0  0  0  0
  1 14  1  0  0  0  0
  1 15  1  0  0  0  0
  1 16  1  0  0  0  0
  2 17  1  0  0  0  0
  2 18  1  0  0  0  0
  4 19  1  0  0  0  0
  4 20  1  0  0  0  0
  5 21  1  0  0  0  0
  5 22  1  0  0  0  0
  5 23  1  0  0  0  0
  6 24  1  0  0  0  0
  7 25  1  0  0  0  0
  9 26  1  0  0  0  0
 10 27  1  0  0  0  0
 11 28  1  0  0  0  0
 12 29  1  0  0  0  0
 13 30  1  0  0  0  0
M  END
