 xtb: 6.7.1 (edcfbbe)
          07072604373D

 36 35  0     0  0            999 V2000
   -3.6469   -0.9129    1.9976 C   0  0  0  0  0  0  0  0  0  0  0  0
   -2.4920    0.0564    1.7612 C   0  0  0  0  0  0  0  0  0  0  0  0
   -2.2020    0.2107    0.3460 N   0  0  0  0  0  0  0  0  0  0  0  0
   -2.9584    1.2174   -0.3660 C   0  0  0  0  0  0  0  0  0  0  0  0
   -2.2956    2.5942   -0.2841 C   0  0  0  0  0  0  0  0  0  0  0  0
   -1.1791   -0.5022   -0.1784 C   0  0  0  0  0  0  0  0  0  0  0  0
   -0.5273   -1.2788    0.4961 O   0  0  0  0  0  0  0  0  0  0  0  0
   -0.8928   -0.3154   -1.6662 C   0  0  0  0  0  0  0  0  0  0  0  0
    0.4935   -0.8727   -1.9740 C   0  0  0  0  0  0  0  0  0  0  0  0
    1.5206   -0.0982   -1.1710 C   0  0  0  0  0  0  0  0  0  0  0  0
    1.3798    1.0458   -0.8170 O   0  0  0  0  0  0  0  0  0  0  0  0
    2.5997   -0.8337   -0.9381 O   0  0  0  0  0  0  0  0  0  0  0  0
    3.6366   -0.2602   -0.1237 C   0  0  0  0  0  0  0  0  0  0  0  0
    3.3030   -0.4940    1.3453 C   0  0  0  0  0  0  0  0  0  0  0  0
    4.9466   -0.9182   -0.5315 C   0  0  0  0  0  0  0  0  0  0  0  0
   -4.5553   -0.5662    1.5090 H   0  0  0  0  0  0  0  0  0  0  0  0
   -3.8400   -1.0061    3.0628 H   0  0  0  0  0  0  0  0  0  0  0  0
   -3.3908   -1.8923    1.6023 H   0  0  0  0  0  0  0  0  0  0  0  0
   -2.7236    1.0373    2.1834 H   0  0  0  0  0  0  0  0  0  0  0  0
   -1.5890   -0.3320    2.2369 H   0  0  0  0  0  0  0  0  0  0  0  0
   -3.0821    0.9184   -1.4083 H   0  0  0  0  0  0  0  0  0  0  0  0
   -3.9551    1.2649    0.0815 H   0  0  0  0  0  0  0  0  0  0  0  0
   -2.2901    2.9532    0.7420 H   0  0  0  0  0  0  0  0  0  0  0  0
   -2.8393    3.3081   -0.8974 H   0  0  0  0  0  0  0  0  0  0  0  0
   -1.2648    2.5444   -0.6258 H   0  0  0  0  0  0  0  0  0  0  0  0
   -0.9098    0.7410   -1.9269 H   0  0  0  0  0  0  0  0  0  0  0  0
   -1.6540   -0.8429   -2.2453 H   0  0  0  0  0  0  0  0  0  0  0  0
    0.7266   -0.7643   -3.0352 H   0  0  0  0  0  0  0  0  0  0  0  0
    0.5668   -1.9238   -1.6991 H   0  0  0  0  0  0  0  0  0  0  0  0
    3.6660    0.8186   -0.3275 H   0  0  0  0  0  0  0  0  0  0  0  0
    4.0620   -0.0412    1.9771 H   0  0  0  0  0  0  0  0  0  0  0  0
    2.3368   -0.0528    1.5772 H   0  0  0  0  0  0  0  0  0  0  0  0
    3.2528   -1.5609    1.5485 H   0  0  0  0  0  0  0  0  0  0  0  0
    4.8909   -1.9890   -0.3543 H   0  0  0  0  0  0  0  0  0  0  0  0
    5.1427   -0.7502   -1.5874 H   0  0  0  0  0  0  0  0  0  0  0  0
    5.7637   -0.5024    0.0509 H   0  0  0  0  0  0  0  0  0  0  0  0
  1  2  1  0  0  0  0
  2  3  1  0  0  0  0
  3  4  1  0  0  0  0
  4  5  1  0  0  0  0
  3  6  4  0  0  0  0
  6  7  2  0  0  0  0
  6  8  1  0  0  0  0
  8  9  1  0  0  0  0
  9 10  1  0  0  0  0
 10 11  2  0  0  0  0
 10 12  1  0  0  0  0
 12 13  1  0  0  0  0
 13 14  1  0  0  0  0
 13 15  1  0  0  0  0
  1 16  1  0  0  0  0
  1 17  1  0  0  0  0
  1 18  1  0  0  0  0
  2 19  1  0  0  0  0
  2 20  1  0  0  0  0
  4 21  1  0  0  0  0
  4 22  1  0  0  0  0
  5 23  1  0  0  0  0
  5 24  1  0  0  0  0
  5 25  1  0  0  0  0
  8 26  1  0  0  0  0
  8 27  1  0  0  0  0
  9 28  1  0  0  0  0
  9 29  1  0  0  0  0
 13 30  1  0  0  0  0
 14 31  1  0  0  0  0
 14 32  1  0  0  0  0
 14 33  1  0  0  0  0
 15 34  1  0  0  0  0
 15 35  1  0  0  0  0
 15 36  1  0  0  0  0
M  END
