 xtb: 6.7.1 (edcfbbe)
          07072616453D

 38 39  0     0  0            999 V2000
    0.8315    1.5043    1.9774 O   0  0  0  0  0  0  0  0  0  0  0  0
    0.7646    1.4224    0.7793 C   0  0  0  0  0  0  0  0  0  0  0  0
   -0.3985    1.8955   -0.0609 C   0  0  0  0  0  0  0  0  0  0  0  0
   -1.4215    0.7355   -0.2080 C   0  0  0  0  0  0  0  0  0  0  0  0
   -0.7514   -0.4571   -0.5667 O   0  0  0  0  0  0  0  0  0  0  0  0
   -2.4605    1.1177   -1.2768 C   0  0  0  0  0  0  0  0  0  0  0  0
   -3.5225    0.0295   -1.4120 C   0  0  0  0  0  0  0  0  0  0  0  0
   -4.2181   -0.2083   -0.0764 C   0  0  0  0  0  0  0  0  0  0  0  0
   -3.1912   -0.6094    0.9769 C   0  0  0  0  0  0  0  0  0  0  0  0
   -2.1298    0.4761    1.1266 C   0  0  0  0  0  0  0  0  0  0  0  0
    1.6985    0.8667    0.0052 O   0  0  0  0  0  0  0  0  0  0  0  0
    2.7929    0.2107    0.6585 C   0  0  0  0  0  0  0  0  0  0  0  0
    2.4404   -1.2578    0.9513 C   0  0  0  0  0  0  0  0  0  0  0  0
    3.1046   -2.0477   -0.1737 C   0  0  0  0  0  0  0  0  0  0  0  0
    4.4067   -1.2863   -0.4036 C   0  0  0  0  0  0  0  0  0  0  0  0
    3.9859    0.1818   -0.3093 C   0  0  0  0  0  0  0  0  0  0  0  0
   -0.8746    2.7467    0.4220 H   0  0  0  0  0  0  0  0  0  0  0  0
   -0.0308    2.1831   -1.0475 H   0  0  0  0  0  0  0  0  0  0  0  0
   -0.1813   -0.2758   -1.3228 H   0  0  0  0  0  0  0  0  0  0  0  0
   -1.9589    1.2659   -2.2375 H   0  0  0  0  0  0  0  0  0  0  0  0
   -2.9293    2.0608   -0.9912 H   0  0  0  0  0  0  0  0  0  0  0  0
   -3.0418   -0.8965   -1.7332 H   0  0  0  0  0  0  0  0  0  0  0  0
   -4.2491    0.3197   -2.1737 H   0  0  0  0  0  0  0  0  0  0  0  0
   -4.7288    0.7052    0.2385 H   0  0  0  0  0  0  0  0  0  0  0  0
   -4.9689   -0.9936   -0.1843 H   0  0  0  0  0  0  0  0  0  0  0  0
   -3.6798   -0.7752    1.9386 H   0  0  0  0  0  0  0  0  0  0  0  0
   -2.7044   -1.5373    0.6743 H   0  0  0  0  0  0  0  0  0  0  0  0
   -2.5945    1.4039    1.4635 H   0  0  0  0  0  0  0  0  0  0  0  0
   -1.3889    0.1774    1.8684 H   0  0  0  0  0  0  0  0  0  0  0  0
    3.0032    0.7613    1.5808 H   0  0  0  0  0  0  0  0  0  0  0  0
    2.8574   -1.5465    1.9158 H   0  0  0  0  0  0  0  0  0  0  0  0
    1.3607   -1.3960    0.9829 H   0  0  0  0  0  0  0  0  0  0  0  0
    2.4863   -2.0094   -1.0712 H   0  0  0  0  0  0  0  0  0  0  0  0
    3.2671   -3.0907    0.0917 H   0  0  0  0  0  0  0  0  0  0  0  0
    5.1164   -1.5229    0.3906 H   0  0  0  0  0  0  0  0  0  0  0  0
    4.8707   -1.5201   -1.3603 H   0  0  0  0  0  0  0  0  0  0  0  0
    4.7970    0.8260    0.0247 H   0  0  0  0  0  0  0  0  0  0  0  0
    3.6406    0.5404   -1.2796 H   0  0  0  0  0  0  0  0  0  0  0  0
  1  2  2  0  0  0  0
  2  3  1  0  0  0  0
  3  4  1  0  0  0  0
  4  5  1  0  0  0  0
  4  6  1  0  0  0  0
  6  7  1  0  0  0  0
  7  8  1  0  0  0  0
  8  9  1  0  0  0  0
  4 10  1  0  0  0  0
  9 10  1  0  0  0  0
  2 11  1  0  0  0  0
 11 12  1  0  0  0  0
 12 13  1  0  0  0  0
 13 14  1  0  0  0  0
 14 15  1  0  0  0  0
 12 16  1  0  0  0  0
 15 16  1  0  0  0  0
  3 17  1  0  0  0  0
  3 18  1  0  0  0  0
  5 19  1  0  0  0  0
  6 20  1  0  0  0  0
  6 21  1  0  0  0  0
  7 22  1  0  0  0  0
  7 23  1  0  0  0  0
  8 24  1  0  0  0  0
  8 25  1  0  0  0  0
  9 26  1  0  0  0  0
  9 27  1  0  0  0  0
 10 28  1  0  0  0  0
 10 29  1  0  0  0  0
 12 30  1  0  0  0  0
 13 31  1  0  0  0  0
 13 32  1  0  0  0  0
 14 33  1  0  0  0  0
 14 34  1  0  0  0  0
 15 35  1  0  0  0  0
 15 36  1  0  0  0  0
 16 37  1  0  0  0  0
 16 38  1  0  0  0  0
M  END
