 xtb: 6.7.1 (edcfbbe)
          07082618083D

 19 18  0     0  0            999 V2000
    2.0767   -0.3528   -0.5965 C   0  0  0  0  0  0  0  0  0  0  0  0
    1.0948   -0.2757    0.5462 C   0  0  0  0  0  0  0  0  0  0  0  0
    1.4480   -0.4212    1.6895 O   0  0  0  0  0  0  0  0  0  0  0  0
   -0.3617    0.0288    0.1849 C   0  0  0  0  0  0  0  0  0  0  0  0
   -0.4631    1.5548    0.0365 C   0  0  0  0  0  0  0  0  0  0  0  0
   -1.2656   -0.4278    1.3326 C   0  0  0  0  0  0  0  0  0  0  0  0
   -0.7955   -0.6524   -1.1143 C   0  0  0  0  0  0  0  0  0  0  0  0
    1.9280   -1.2893   -1.1302 H   0  0  0  0  0  0  0  0  0  0  0  0
    3.0900   -0.3325   -0.2036 H   0  0  0  0  0  0  0  0  0  0  0  0
    1.9358    0.4661   -1.2954 H   0  0  0  0  0  0  0  0  0  0  0  0
   -1.4943    1.8364   -0.1655 H   0  0  0  0  0  0  0  0  0  0  0  0
    0.1564    1.9141   -0.7821 H   0  0  0  0  0  0  0  0  0  0  0  0
   -0.1440    2.0456    0.9531 H   0  0  0  0  0  0  0  0  0  0  0  0
   -1.2322   -1.5104    1.4321 H   0  0  0  0  0  0  0  0  0  0  0  0
   -2.2937   -0.1247    1.1502 H   0  0  0  0  0  0  0  0  0  0  0  0
   -0.9299    0.0078    2.2698 H   0  0  0  0  0  0  0  0  0  0  0  0
   -1.8529   -0.4616   -1.2859 H   0  0  0  0  0  0  0  0  0  0  0  0
   -0.2439   -0.2763   -1.9715 H   0  0  0  0  0  0  0  0  0  0  0  0
   -0.6528   -1.7290   -1.0498 H   0  0  0  0  0  0  0  0  0  0  0  0
  1  2  1  0  0  0  0
  2  3  2  0  0  0  0
  2  4  1  0  0  0  0
  4  5  1  0  0  0  0
  4  6  1  0  0  0  0
  4  7  1  0  0  0  0
  1  8  1  0  0  0  0
  1  9  1  0  0  0  0
  1 10  1  0  0  0  0
  5 11  1  0  0  0  0
  5 12  1  0  0  0  0
  5 13  1  0  0  0  0
  6 14  1  0  0  0  0
  6 15  1  0  0  0  0
  6 16  1  0  0  0  0
  7 17  1  0  0  0  0
  7 18  1  0  0  0  0
  7 19  1  0  0  0  0
M  END
