 xtb: 6.7.1 (edcfbbe)
          07072603473D

 42 41  0     0  0            999 V2000
    5.9344    0.5202   -0.4786 C   0  0  0  0  0  0  0  0  0  0  0  0
    4.8784    1.6182   -0.4460 C   0  0  0  0  0  0  0  0  0  0  0  0
    3.6069    1.1579    0.2523 C   0  0  0  0  0  0  0  0  0  0  0  0
    2.9925    0.1371   -0.5342 O   0  0  0  0  0  0  0  0  0  0  0  0
    2.0513   -0.5894    0.0575 C   0  0  0  0  0  0  0  0  0  0  0  0
    1.7405   -0.4826    1.2169 O   0  0  0  0  0  0  0  0  0  0  0  0
    1.4526   -1.6036   -0.8982 C   0  0  0  0  0  0  0  0  0  0  0  0
   -0.0229   -1.7872   -0.5507 C   0  0  0  0  0  0  0  0  0  0  0  0
   -0.7055   -0.4191   -0.6242 C   0  0  0  0  0  0  0  0  0  0  0  0
   -0.0945    0.5327   -1.0777 O   0  0  0  0  0  0  0  0  0  0  0  0
   -1.9735   -0.3149   -0.1652 N   0  0  0  0  0  0  0  0  0  0  0  0
   -2.7415   -1.4359    0.3589 C   0  0  0  0  0  0  0  0  0  0  0  0
   -4.0941   -1.5775   -0.3457 C   0  0  0  0  0  0  0  0  0  0  0  0
   -2.9030   -1.3336    1.8779 C   0  0  0  0  0  0  0  0  0  0  0  0
   -2.5878    1.0169   -0.0901 C   0  0  0  0  0  0  0  0  0  0  0  0
   -1.7704    1.9602    0.7924 C   0  0  0  0  0  0  0  0  0  0  0  0
   -2.8022    1.6059   -1.4841 C   0  0  0  0  0  0  0  0  0  0  0  0
    6.2135    0.2288    0.5317 H   0  0  0  0  0  0  0  0  0  0  0  0
    6.8255    0.8641   -0.9978 H   0  0  0  0  0  0  0  0  0  0  0  0
    5.5465   -0.3533   -0.9961 H   0  0  0  0  0  0  0  0  0  0  0  0
    4.6253    1.9156   -1.4645 H   0  0  0  0  0  0  0  0  0  0  0  0
    5.2621    2.4922    0.0828 H   0  0  0  0  0  0  0  0  0  0  0  0
    3.8216    0.7572    1.2498 H   0  0  0  0  0  0  0  0  0  0  0  0
    2.8943    1.9833    0.3590 H   0  0  0  0  0  0  0  0  0  0  0  0
    1.5792   -1.2349   -1.9146 H   0  0  0  0  0  0  0  0  0  0  0  0
    1.9890   -2.5480   -0.7872 H   0  0  0  0  0  0  0  0  0  0  0  0
   -0.0924   -2.1735    0.4668 H   0  0  0  0  0  0  0  0  0  0  0  0
   -0.4897   -2.4878   -1.2453 H   0  0  0  0  0  0  0  0  0  0  0  0
   -2.1817   -2.3463    0.1429 H   0  0  0  0  0  0  0  0  0  0  0  0
   -4.5581   -2.5136   -0.0454 H   0  0  0  0  0  0  0  0  0  0  0  0
   -3.9547   -1.5914   -1.4239 H   0  0  0  0  0  0  0  0  0  0  0  0
   -4.7746   -0.7689   -0.0939 H   0  0  0  0  0  0  0  0  0  0  0  0
   -1.9284   -1.2228    2.3475 H   0  0  0  0  0  0  0  0  0  0  0  0
   -3.5185   -0.4818    2.1546 H   0  0  0  0  0  0  0  0  0  0  0  0
   -3.3743   -2.2353    2.2607 H   0  0  0  0  0  0  0  0  0  0  0  0
   -3.5650    0.8805    0.3792 H   0  0  0  0  0  0  0  0  0  0  0  0
   -2.3107    2.8941    0.9269 H   0  0  0  0  0  0  0  0  0  0  0  0
   -0.8117    2.1696    0.3295 H   0  0  0  0  0  0  0  0  0  0  0  0
   -1.5938    1.5110    1.7668 H   0  0  0  0  0  0  0  0  0  0  0  0
   -3.3190    2.5589   -1.4039 H   0  0  0  0  0  0  0  0  0  0  0  0
   -1.8443    1.7635   -1.9692 H   0  0  0  0  0  0  0  0  0  0  0  0
   -3.4010    0.9337   -2.0947 H   0  0  0  0  0  0  0  0  0  0  0  0
  1  2  1  0  0  0  0
  2  3  1  0  0  0  0
  3  4  1  0  0  0  0
  4  5  1  0  0  0  0
  5  6  2  0  0  0  0
  5  7  1  0  0  0  0
  7  8  1  0  0  0  0
  8  9  1  0  0  0  0
  9 10  2  0  0  0  0
  9 11  4  0  0  0  0
 11 12  1  0  0  0  0
 12 13  1  0  0  0  0
 12 14  1  0  0  0  0
 11 15  1  0  0  0  0
 15 16  1  0  0  0  0
 15 17  1  0  0  0  0
  1 18  1  0  0  0  0
  1 19  1  0  0  0  0
  1 20  1  0  0  0  0
  2 21  1  0  0  0  0
  2 22  1  0  0  0  0
  3 23  1  0  0  0  0
  3 24  1  0  0  0  0
  7 25  1  0  0  0  0
  7 26  1  0  0  0  0
  8 27  1  0  0  0  0
  8 28  1  0  0  0  0
 12 29  1  0  0  0  0
 13 30  1  0  0  0  0
 13 31  1  0  0  0  0
 13 32  1  0  0  0  0
 14 33  1  0  0  0  0
 14 34  1  0  0  0  0
 14 35  1  0  0  0  0
 15 36  1  0  0  0  0
 16 37  1  0  0  0  0
 16 38  1  0  0  0  0
 16 39  1  0  0  0  0
 17 40  1  0  0  0  0
 17 41  1  0  0  0  0
 17 42  1  0  0  0  0
M  END
