 xtb: 6.7.1 (edcfbbe)
          07092609073D

 28 27  0     0  0            999 V2000
   -2.9807   -1.8594   -0.6939 C   0  0  0  0  0  0  0  0  0  0  0  0
   -1.9434   -0.7643   -0.9041 C   0  0  0  0  0  0  0  0  0  0  0  0
   -1.0177   -0.6276    0.3132 C   0  0  0  0  0  0  0  0  0  0  0  0
    0.0006    0.4498    0.0950 C   0  0  0  0  0  0  0  0  0  0  0  0
    1.2723    0.0377   -0.5863 C   0  0  0  0  0  0  0  0  0  0  0  0
    2.3077   -0.4504    0.4368 C   0  0  0  0  0  0  0  0  0  0  0  0
    3.5907   -0.9046   -0.2455 C   0  0  0  0  0  0  0  0  0  0  0  0
   -0.2024    1.7171    0.4934 C   0  0  0  0  0  0  0  0  0  0  0  0
   -1.4282    2.2127    1.2154 C   0  0  0  0  0  0  0  0  0  0  0  0
    0.7805    2.7015    0.2564 C   0  0  0  0  0  0  0  0  0  0  0  0
    1.5584    3.5282    0.0820 N   0  0  0  0  0  0  0  0  0  0  0  0
   -2.4958   -2.8195   -0.5304 H   0  0  0  0  0  0  0  0  0  0  0  0
   -3.6013   -1.6382    0.1718 H   0  0  0  0  0  0  0  0  0  0  0  0
   -3.6257   -1.9449   -1.5652 H   0  0  0  0  0  0  0  0  0  0  0  0
   -2.4470    0.1875   -1.0854 H   0  0  0  0  0  0  0  0  0  0  0  0
   -1.3455   -0.9923   -1.7890 H   0  0  0  0  0  0  0  0  0  0  0  0
   -1.6225   -0.4156    1.1963 H   0  0  0  0  0  0  0  0  0  0  0  0
   -0.5070   -1.5800    0.4718 H   0  0  0  0  0  0  0  0  0  0  0  0
    1.0649   -0.7689   -1.2932 H   0  0  0  0  0  0  0  0  0  0  0  0
    1.6985    0.8787   -1.1372 H   0  0  0  0  0  0  0  0  0  0  0  0
    1.8883   -1.2766    1.0161 H   0  0  0  0  0  0  0  0  0  0  0  0
    2.5300    0.3646    1.1287 H   0  0  0  0  0  0  0  0  0  0  0  0
    3.3912   -1.7244   -0.9328 H   0  0  0  0  0  0  0  0  0  0  0  0
    4.3142   -1.2432    0.4922 H   0  0  0  0  0  0  0  0  0  0  0  0
    4.0311   -0.0844   -0.8075 H   0  0  0  0  0  0  0  0  0  0  0  0
   -2.3296    1.9848    0.6494 H   0  0  0  0  0  0  0  0  0  0  0  0
   -1.5100    1.7420    2.1953 H   0  0  0  0  0  0  0  0  0  0  0  0
   -1.3717    3.2897    1.3570 H   0  0  0  0  0  0  0  0  0  0  0  0
  1  2  1  0  0  0  0
  2  3  1  0  0  0  0
  3  4  1  0  0  0  0
  4  5  1  0  0  0  0
  5  6  1  0  0  0  0
  6  7  1  0  0  0  0
  4  8  2  0  0  0  0
  8  9  1  0  0  0  0
  8 10  1  0  0  0  0
 10 11  3  0  0  0  0
  1 12  1  0  0  0  0
  1 13  1  0  0  0  0
  1 14  1  0  0  0  0
  2 15  1  0  0  0  0
  2 16  1  0  0  0  0
  3 17  1  0  0  0  0
  3 18  1  0  0  0  0
  5 19  1  0  0  0  0
  5 20  1  0  0  0  0
  6 21  1  0  0  0  0
  6 22  1  0  0  0  0
  7 23  1  0  0  0  0
  7 24  1  0  0  0  0
  7 25  1  0  0  0  0
  9 26  1  0  0  0  0
  9 27  1  0  0  0  0
  9 28  1  0  0  0  0
M  END
