 xtb: 6.7.1 (edcfbbe)
          07072619523D

 32 32  0     0  0            999 V2000
    4.9481   -0.1411   -0.6660 C   0  0  0  0  0  0  0  0  0  0  0  0
    3.6417    0.4686   -0.1605 C   0  0  0  0  0  0  0  0  0  0  0  0
    3.7662    0.8086    1.3231 C   0  0  0  0  0  0  0  0  0  0  0  0
    2.4864   -0.5003   -0.4271 C   0  0  0  0  0  0  0  0  0  0  0  0
    1.1134    0.0874   -0.1153 C   0  0  0  0  0  0  0  0  0  0  0  0
    0.1458   -0.8195   -0.6056 O   0  0  0  0  0  0  0  0  0  0  0  0
   -1.1719   -0.5261   -0.4446 C   0  0  0  0  0  0  0  0  0  0  0  0
   -1.6698    0.6158    0.1730 C   0  0  0  0  0  0  0  0  0  0  0  0
   -3.0376    0.8035    0.2764 C   0  0  0  0  0  0  0  0  0  0  0  0
   -3.9323   -0.1309   -0.2207 C   0  0  0  0  0  0  0  0  0  0  0  0
   -5.4194    0.0939   -0.0977 C   0  0  0  0  0  0  0  0  0  0  0  0
   -5.7902    0.8113    1.0569 O   0  0  0  0  0  0  0  0  0  0  0  0
   -3.4296   -1.2721   -0.8361 C   0  0  0  0  0  0  0  0  0  0  0  0
   -2.0707   -1.4679   -0.9504 C   0  0  0  0  0  0  0  0  0  0  0  0
    5.7752    0.5482   -0.5133 H   0  0  0  0  0  0  0  0  0  0  0  0
    5.1664   -1.0627   -0.1310 H   0  0  0  0  0  0  0  0  0  0  0  0
    4.8826   -0.3679   -1.7274 H   0  0  0  0  0  0  0  0  0  0  0  0
    3.4528    1.3944   -0.7161 H   0  0  0  0  0  0  0  0  0  0  0  0
    4.6299    1.4483    1.4903 H   0  0  0  0  0  0  0  0  0  0  0  0
    2.8848    1.3326    1.6829 H   0  0  0  0  0  0  0  0  0  0  0  0
    3.8942   -0.0985    1.9097 H   0  0  0  0  0  0  0  0  0  0  0  0
    2.6227   -1.4101    0.1601 H   0  0  0  0  0  0  0  0  0  0  0  0
    2.4887   -0.7841   -1.4814 H   0  0  0  0  0  0  0  0  0  0  0  0
    1.0019    1.0631   -0.6100 H   0  0  0  0  0  0  0  0  0  0  0  0
    0.9832    0.2230    0.9662 H   0  0  0  0  0  0  0  0  0  0  0  0
   -1.0072    1.3671    0.5731 H   0  0  0  0  0  0  0  0  0  0  0  0
   -3.4191    1.6950    0.7528 H   0  0  0  0  0  0  0  0  0  0  0  0
   -5.7741    0.7013   -0.9376 H   0  0  0  0  0  0  0  0  0  0  0  0
   -5.9429   -0.8735   -0.1354 H   0  0  0  0  0  0  0  0  0  0  0  0
   -5.4353    0.3542    1.8275 H   0  0  0  0  0  0  0  0  0  0  0  0
   -4.1113   -2.0121   -1.2303 H   0  0  0  0  0  0  0  0  0  0  0  0
   -1.6725   -2.3496   -1.4270 H   0  0  0  0  0  0  0  0  0  0  0  0
  1  2  1  0  0  0  0
  2  3  1  0  0  0  0
  2  4  1  0  0  0  0
  4  5  1  0  0  0  0
  5  6  1  0  0  0  0
  6  7  1  0  0  0  0
  7  8  4  0  0  0  0
  8  9  4  0  0  0  0
  9 10  4  0  0  0  0
 10 11  1  0  0  0  0
 11 12  1  0  0  0  0
 10 13  4  0  0  0  0
  7 14  4  0  0  0  0
 13 14  4  0  0  0  0
  1 15  1  0  0  0  0
  1 16  1  0  0  0  0
  1 17  1  0  0  0  0
  2 18  1  0  0  0  0
  3 19  1  0  0  0  0
  3 20  1  0  0  0  0
  3 21  1  0  0  0  0
  4 22  1  0  0  0  0
  4 23  1  0  0  0  0
  5 24  1  0  0  0  0
  5 25  1  0  0  0  0
  8 26  1  0  0  0  0
  9 27  1  0  0  0  0
 11 28  1  0  0  0  0
 11 29  1  0  0  0  0
 12 30  1  0  0  0  0
 13 31  1  0  0  0  0
 14 32  1  0  0  0  0
M  END
