 xtb: 6.7.1 (edcfbbe)
          07092611003D

 23 23  0     0  0            999 V2000
   -3.8841   -0.3851    0.2561 C   0  0  0  0  0  0  0  0  0  0  0  0
   -2.6489   -0.3499   -0.6330 C   0  0  0  0  0  0  0  0  0  0  0  0
   -1.3688   -0.3793    0.1952 C   0  0  0  0  0  0  0  0  0  0  0  0
   -0.2744   -0.3443   -0.6949 O   0  0  0  0  0  0  0  0  0  0  0  0
    0.9983   -0.3623   -0.1709 C   0  0  0  0  0  0  0  0  0  0  0  0
    1.3224   -0.4124    1.1728 C   0  0  0  0  0  0  0  0  0  0  0  0
    2.6544   -0.4253    1.5640 C   0  0  0  0  0  0  0  0  0  0  0  0
    3.6609   -0.3884    0.6202 C   0  0  0  0  0  0  0  0  0  0  0  0
    3.3466   -0.3381   -0.7284 C   0  0  0  0  0  0  0  0  0  0  0  0
    2.0235   -0.3247   -1.1325 C   0  0  0  0  0  0  0  0  0  0  0  0
    1.7147   -0.2753   -2.4555 O   0  0  0  0  0  0  0  0  0  0  0  0
   -4.7856   -0.3635   -0.3503 H   0  0  0  0  0  0  0  0  0  0  0  0
   -3.8965   -1.2905    0.8588 H   0  0  0  0  0  0  0  0  0  0  0  0
   -3.8990    0.4724    0.9252 H   0  0  0  0  0  0  0  0  0  0  0  0
   -2.6510    0.5559   -1.2419 H   0  0  0  0  0  0  0  0  0  0  0  0
   -2.6486   -1.2074   -1.3083 H   0  0  0  0  0  0  0  0  0  0  0  0
   -1.3329   -1.2952    0.8014 H   0  0  0  0  0  0  0  0  0  0  0  0
   -1.3354    0.4885    0.8686 H   0  0  0  0  0  0  0  0  0  0  0  0
    0.5495   -0.4418    1.9246 H   0  0  0  0  0  0  0  0  0  0  0  0
    2.8940   -0.4646    2.6156 H   0  0  0  0  0  0  0  0  0  0  0  0
    4.6952   -0.3985    0.9275 H   0  0  0  0  0  0  0  0  0  0  0  0
    4.1152   -0.3086   -1.4838 H   0  0  0  0  0  0  0  0  0  0  0  0
    0.7504   -0.2738   -2.5308 H   0  0  0  0  0  0  0  0  0  0  0  0
  1  2  1  0  0  0  0
  2  3  1  0  0  0  0
  3  4  1  0  0  0  0
  4  5  1  0  0  0  0
  5  6  4  0  0  0  0
  6  7  4  0  0  0  0
  7  8  4  0  0  0  0
  8  9  4  0  0  0  0
  5 10  4  0  0  0  0
  9 10  4  0  0  0  0
 10 11  1  0  0  0  0
  1 12  1  0  0  0  0
  1 13  1  0  0  0  0
  1 14  1  0  0  0  0
  2 15  1  0  0  0  0
  2 16  1  0  0  0  0
  3 17  1  0  0  0  0
  3 18  1  0  0  0  0
  6 19  1  0  0  0  0
  7 20  1  0  0  0  0
  8 21  1  0  0  0  0
  9 22  1  0  0  0  0
 11 23  1  0  0  0  0
M  END
