 xtb: 6.7.1 (edcfbbe)
          07092603053D

 22 21  0     0  0            999 V2000
    3.9086    0.1634   -0.1740 C   0  0  0  0  0  0  0  0  0  0  0  0
    2.5689    0.6661    0.3292 C   0  0  0  0  0  0  0  0  0  0  0  0
    1.6396   -0.4214    0.3079 O   0  0  0  0  0  0  0  0  0  0  0  0
    0.3544   -0.1160    0.4752 C   0  0  0  0  0  0  0  0  0  0  0  0
   -0.0534    1.0013    0.6628 O   0  0  0  0  0  0  0  0  0  0  0  0
   -0.5156   -1.3525    0.3976 C   0  0  0  0  0  0  0  0  0  0  0  0
   -1.9866   -0.9601    0.4980 C   0  0  0  0  0  0  0  0  0  0  0  0
   -2.3801   -0.1186   -0.7081 C   0  0  0  0  0  0  0  0  0  0  0  0
   -3.2872    1.0366   -0.3979 C   0  0  0  0  0  0  0  0  0  0  0  0
   -1.9808   -0.3706   -1.8160 O   0  0  0  0  0  0  0  0  0  0  0  0
    4.2703   -0.6399    0.4619 H   0  0  0  0  0  0  0  0  0  0  0  0
    3.8088   -0.2143   -1.1879 H   0  0  0  0  0  0  0  0  0  0  0  0
    4.6290    0.9761   -0.1663 H   0  0  0  0  0  0  0  0  0  0  0  0
    2.6451    1.0417    1.3561 H   0  0  0  0  0  0  0  0  0  0  0  0
    2.1797    1.4729   -0.3014 H   0  0  0  0  0  0  0  0  0  0  0  0
   -0.3213   -1.8383   -0.5604 H   0  0  0  0  0  0  0  0  0  0  0  0
   -0.2238   -2.0387    1.1939 H   0  0  0  0  0  0  0  0  0  0  0  0
   -2.6082   -1.8584    0.4963 H   0  0  0  0  0  0  0  0  0  0  0  0
   -2.1703   -0.4052    1.4171 H   0  0  0  0  0  0  0  0  0  0  0  0
   -4.1164    0.7161    0.2283 H   0  0  0  0  0  0  0  0  0  0  0  0
   -3.6581    1.4898   -1.3132 H   0  0  0  0  0  0  0  0  0  0  0  0
   -2.7026    1.7701    0.1557 H   0  0  0  0  0  0  0  0  0  0  0  0
  1  2  1  0  0  0  0
  2  3  1  0  0  0  0
  3  4  1  0  0  0  0
  4  5  2  0  0  0  0
  4  6  1  0  0  0  0
  6  7  1  0  0  0  0
  7  8  1  0  0  0  0
  8  9  1  0  0  0  0
  8 10  2  0  0  0  0
  1 11  1  0  0  0  0
  1 12  1  0  0  0  0
  1 13  1  0  0  0  0
  2 14  1  0  0  0  0
  2 15  1  0  0  0  0
  6 16  1  0  0  0  0
  6 17  1  0  0  0  0
  7 18  1  0  0  0  0
  7 19  1  0  0  0  0
  9 20  1  0  0  0  0
  9 21  1  0  0  0  0
  9 22  1  0  0  0  0
M  END
