 xtb: 6.7.1 (edcfbbe)
          07072605523D

 29 30  0     0  0            999 V2000
   -2.5430    2.5747   -0.2276 C   0  0  0  0  0  0  0  0  0  0  0  0
   -2.1186    1.3838    0.4219 O   0  0  0  0  0  0  0  0  0  0  0  0
   -0.9603    0.8631   -0.0033 C   0  0  0  0  0  0  0  0  0  0  0  0
   -0.2929    1.3596   -0.8711 O   0  0  0  0  0  0  0  0  0  0  0  0
   -0.6674   -0.4240    0.7252 C   0  0  0  0  0  0  0  0  0  0  0  0
    0.8264   -0.8242    0.7703 C   0  0  0  0  0  0  0  0  0  0  0  0
    1.7717    0.2074    0.1813 C   0  0  0  0  0  0  0  0  0  0  0  0
    2.4781    0.0485   -0.7743 O   0  0  0  0  0  0  0  0  0  0  0  0
    1.7876    1.3064    0.9497 O   0  0  0  0  0  0  0  0  0  0  0  0
    2.5805    2.3818    0.4655 C   0  0  0  0  0  0  0  0  0  0  0  0
    0.8489   -2.1778    0.0146 C   0  0  0  0  0  0  0  0  0  0  0  0
    0.4990   -1.8701   -1.4186 C   0  0  0  0  0  0  0  0  0  0  0  0
   -0.7862   -1.5439   -1.4527 C   0  0  0  0  0  0  0  0  0  0  0  0
   -1.3123   -1.6233   -0.0423 C   0  0  0  0  0  0  0  0  0  0  0  0
   -0.4725   -2.7831    0.5014 C   0  0  0  0  0  0  0  0  0  0  0  0
   -2.6209    2.4119   -1.3043 H   0  0  0  0  0  0  0  0  0  0  0  0
   -3.5132    2.8228    0.1947 H   0  0  0  0  0  0  0  0  0  0  0  0
   -1.8279    3.3792   -0.0453 H   0  0  0  0  0  0  0  0  0  0  0  0
   -1.0991   -0.3517    1.7250 H   0  0  0  0  0  0  0  0  0  0  0  0
    1.1306   -0.9648    1.8117 H   0  0  0  0  0  0  0  0  0  0  0  0
    2.5472    3.1544    1.2292 H   0  0  0  0  0  0  0  0  0  0  0  0
    2.1636    2.7470   -0.4748 H   0  0  0  0  0  0  0  0  0  0  0  0
    3.6064    2.0497    0.2948 H   0  0  0  0  0  0  0  0  0  0  0  0
    1.7595   -2.7488    0.1718 H   0  0  0  0  0  0  0  0  0  0  0  0
    1.2108   -1.8620   -2.2202 H   0  0  0  0  0  0  0  0  0  0  0  0
   -1.3662   -1.2108   -2.2928 H   0  0  0  0  0  0  0  0  0  0  0  0
   -2.3918   -1.6768    0.0751 H   0  0  0  0  0  0  0  0  0  0  0  0
   -0.7055   -3.7278    0.0131 H   0  0  0  0  0  0  0  0  0  0  0  0
   -0.5326   -2.9013    1.5823 H   0  0  0  0  0  0  0  0  0  0  0  0
  1  2  1  0  0  0  0
  2  3  1  0  0  0  0
  3  4  2  0  0  0  0
  3  5  1  0  0  0  0
  5  6  1  0  0  0  0
  6  7  1  0  0  0  0
  7  8  2  0  0  0  0
  7  9  1  0  0  0  0
  9 10  1  0  0  0  0
  6 11  1  0  0  0  0
 11 12  1  0  0  0  0
 12 13  2  0  0  0  0
  5 14  1  0  0  0  0
 13 14  1  0  0  0  0
 11 15  1  0  0  0  0
 14 15  1  0  0  0  0
  1 16  1  0  0  0  0
  1 17  1  0  0  0  0
  1 18  1  0  0  0  0
  5 19  1  0  0  0  0
  6 20  1  0  0  0  0
 10 21  1  0  0  0  0
 10 22  1  0  0  0  0
 10 23  1  0  0  0  0
 11 24  1  0  0  0  0
 12 25  1  0  0  0  0
 13 26  1  0  0  0  0
 14 27  1  0  0  0  0
 15 28  1  0  0  0  0
 15 29  1  0  0  0  0
M  END
