 xtb: 6.7.1 (edcfbbe)
          07072601023D

 74 74  0     0  0            999 V2000
   -6.5294   -2.0186    0.1823 C   0  0  0  0  0  0  0  0  0  0  0  0
   -6.2215   -3.2977    0.2867 C   0  0  0  0  0  0  0  0  0  0  0  0
   -5.4409   -4.0607   -0.7426 C   0  0  0  0  0  0  0  0  0  0  0  0
   -4.0622   -4.3307   -0.1570 C   0  0  0  0  0  0  0  0  0  0  0  0
   -3.7502   -5.2911    0.4814 O   0  0  0  0  0  0  0  0  0  0  0  0
   -3.2821   -3.2725   -0.4308 O   0  0  0  0  0  0  0  0  0  0  0  0
   -1.9697   -3.3312    0.1060 N   0  0  0  0  0  0  0  0  0  0  0  0
   -1.3425   -2.2369    0.0772 C   0  0  0  0  0  0  0  0  0  0  0  0
    0.0666   -2.1534    0.5729 C   0  0  0  0  0  0  0  0  0  0  0  0
    0.3560   -0.6533    0.6212 C   0  0  0  0  0  0  0  0  0  0  0  0
   -0.5368   -0.0467   -0.4693 C   0  0  0  0  0  0  0  0  0  0  0  0
    0.1110   -0.1363   -1.8600 C   0  0  0  0  0  0  0  0  0  0  0  0
    1.4151    0.6139   -1.9012 C   0  0  0  0  0  0  0  0  0  0  0  0
    2.5905    0.0106   -2.0318 C   0  0  0  0  0  0  0  0  0  0  0  0
    1.1946    1.9518   -1.7706 O   0  0  0  0  0  0  0  0  0  0  0  0
    2.3137    2.8138   -1.6565 C   0  0  0  0  0  0  0  0  0  0  0  0
    2.9655    2.7007   -0.3094 C   0  0  0  0  0  0  0  0  0  0  0  0
    4.2582    2.6319   -0.0134 C   0  0  0  0  0  0  0  0  0  0  0  0
    5.3781    2.6395   -1.0063 C   0  0  0  0  0  0  0  0  0  0  0  0
    4.6888    2.5233    1.4275 C   0  0  0  0  0  0  0  0  0  0  0  0
    4.7582    1.0599    1.8994 C   0  0  0  0  0  0  0  0  0  0  0  0
    5.8922    0.3112    1.2745 C   0  0  0  0  0  0  0  0  0  0  0  0
    5.8223   -0.8710    0.6741 C   0  0  0  0  0  0  0  0  0  0  0  0
    7.0395   -1.5320    0.0987 C   0  0  0  0  0  0  0  0  0  0  0  0
    4.5420   -1.6459    0.5271 C   0  0  0  0  0  0  0  0  0  0  0  0
   -1.8171   -0.8933   -0.4087 C   0  0  0  0  0  0  0  0  0  0  0  0
   -2.8732   -0.3294    0.5572 C   0  0  0  0  0  0  0  0  0  0  0  0
   -3.6260    0.8588   -0.0347 C   0  0  0  0  0  0  0  0  0  0  0  0
   -4.6603    1.4088    0.9441 C   0  0  0  0  0  0  0  0  0  0  0  0
   -5.4619    2.5624    0.3459 C   0  0  0  0  0  0  0  0  0  0  0  0
   -6.4915    3.1062    1.3285 C   0  0  0  0  0  0  0  0  0  0  0  0
   -6.2523   -1.4352   -0.6805 H   0  0  0  0  0  0  0  0  0  0  0  0
   -7.0812   -1.5043    0.9508 H   0  0  0  0  0  0  0  0  0  0  0  0
   -6.4989   -3.8654    1.1643 H   0  0  0  0  0  0  0  0  0  0  0  0
   -5.3380   -3.4766   -1.6561 H   0  0  0  0  0  0  0  0  0  0  0  0
   -5.9177   -5.0190   -0.9483 H   0  0  0  0  0  0  0  0  0  0  0  0
    0.7237   -2.6592   -0.1368 H   0  0  0  0  0  0  0  0  0  0  0  0
    0.1807   -2.6522    1.5338 H   0  0  0  0  0  0  0  0  0  0  0  0
    0.0727   -0.2514    1.5951 H   0  0  0  0  0  0  0  0  0  0  0  0
    1.4079   -0.4288    0.4539 H   0  0  0  0  0  0  0  0  0  0  0  0
   -0.7400    1.0056   -0.2625 H   0  0  0  0  0  0  0  0  0  0  0  0
   -0.5706    0.3096   -2.5880 H   0  0  0  0  0  0  0  0  0  0  0  0
    0.2803   -1.1777   -2.1313 H   0  0  0  0  0  0  0  0  0  0  0  0
    2.6316   -1.0554   -2.1587 H   0  0  0  0  0  0  0  0  0  0  0  0
    3.5317    0.5268   -2.0313 H   0  0  0  0  0  0  0  0  0  0  0  0
    1.8882    3.8181   -1.7714 H   0  0  0  0  0  0  0  0  0  0  0  0
    3.0112    2.6379   -2.4817 H   0  0  0  0  0  0  0  0  0  0  0  0
    2.2437    2.6805    0.4981 H   0  0  0  0  0  0  0  0  0  0  0  0
    5.9862    1.7454   -0.8683 H   0  0  0  0  0  0  0  0  0  0  0  0
    5.0283    2.6748   -2.0334 H   0  0  0  0  0  0  0  0  0  0  0  0
    6.0165    3.5060   -0.8353 H   0  0  0  0  0  0  0  0  0  0  0  0
    3.9758    3.0547    2.0608 H   0  0  0  0  0  0  0  0  0  0  0  0
    5.6691    2.9857    1.5561 H   0  0  0  0  0  0  0  0  0  0  0  0
    3.8070    0.5726    1.6876 H   0  0  0  0  0  0  0  0  0  0  0  0
    4.9009    1.0612    2.9853 H   0  0  0  0  0  0  0  0  0  0  0  0
    6.8543    0.8022    1.3602 H   0  0  0  0  0  0  0  0  0  0  0  0
    7.9303   -0.9278    0.2526 H   0  0  0  0  0  0  0  0  0  0  0  0
    7.1938   -2.5050    0.5647 H   0  0  0  0  0  0  0  0  0  0  0  0
    6.9083   -1.6950   -0.9713 H   0  0  0  0  0  0  0  0  0  0  0  0
    4.6997   -2.5282   -0.0878 H   0  0  0  0  0  0  0  0  0  0  0  0
    3.7717   -1.0349    0.0600 H   0  0  0  0  0  0  0  0  0  0  0  0
    4.1735   -1.9695    1.5001 H   0  0  0  0  0  0  0  0  0  0  0  0
   -2.2844   -1.0016   -1.3926 H   0  0  0  0  0  0  0  0  0  0  0  0
   -2.3881   -0.0326    1.4893 H   0  0  0  0  0  0  0  0  0  0  0  0
   -3.5945   -1.1149    0.7935 H   0  0  0  0  0  0  0  0  0  0  0  0
   -4.1296    0.5432   -0.9517 H   0  0  0  0  0  0  0  0  0  0  0  0
   -2.9242    1.6518   -0.3014 H   0  0  0  0  0  0  0  0  0  0  0  0
   -5.3428    0.6064    1.2332 H   0  0  0  0  0  0  0  0  0  0  0  0
   -4.1544    1.7530    1.8494 H   0  0  0  0  0  0  0  0  0  0  0  0
   -4.7788    3.3638    0.0549 H   0  0  0  0  0  0  0  0  0  0  0  0
   -5.9703    2.2177   -0.5576 H   0  0  0  0  0  0  0  0  0  0  0  0
   -7.0498    3.9268    0.8841 H   0  0  0  0  0  0  0  0  0  0  0  0
   -7.1952    2.3271    1.6138 H   0  0  0  0  0  0  0  0  0  0  0  0
   -6.0034    3.4716    2.2295 H   0  0  0  0  0  0  0  0  0  0  0  0
  1  2  2  0  0  0  0
  2  3  1  0  0  0  0
  3  4  1  0  0  0  0
  4  5  2  0  0  0  0
  4  6  1  0  0  0  0
  6  7  1  0  0  0  0
  7  8  2  0  0  0  0
  8  9  1  0  0  0  0
  9 10  1  0  0  0  0
 10 11  1  0  0  0  0
 11 12  1  0  0  0  0
 12 13  1  0  0  0  0
 13 14  2  0  0  0  0
 13 15  1  0  0  0  0
 15 16  1  0  0  0  0
 16 17  1  0  0  0  0
 17 18  2  0  0  0  0
 18 19  1  0  0  0  0
 18 20  1  0  0  0  0
 20 21  1  0  0  0  0
 21 22  1  0  0  0  0
 22 23  2  0  0  0  0
 23 24  1  0  0  0  0
 23 25  1  0  0  0  0
  8 26  1  0  0  0  0
 11 26  1  0  0  0  0
 26 27  1  0  0  0  0
 27 28  1  0  0  0  0
 28 29  1  0  0  0  0
 29 30  1  0  0  0  0
 30 31  1  0  0  0  0
  1 32  1  0  0  0  0
  1 33  1  0  0  0  0
  2 34  1  0  0  0  0
  3 35  1  0  0  0  0
  3 36  1  0  0  0  0
  9 37  1  0  0  0  0
  9 38  1  0  0  0  0
 10 39  1  0  0  0  0
 10 40  1  0  0  0  0
 11 41  1  0  0  0  0
 12 42  1  0  0  0  0
 12 43  1  0  0  0  0
 14 44  1  0  0  0  0
 14 45  1  0  0  0  0
 16 46  1  0  0  0  0
 16 47  1  0  0  0  0
 17 48  1  0  0  0  0
 19 49  1  0  0  0  0
 19 50  1  0  0  0  0
 19 51  1  0  0  0  0
 20 52  1  0  0  0  0
 20 53  1  0  0  0  0
 21 54  1  0  0  0  0
 21 55  1  0  0  0  0
 22 56  1  0  0  0  0
 24 57  1  0  0  0  0
 24 58  1  0  0  0  0
 24 59  1  0  0  0  0
 25 60  1  0  0  0  0
 25 61  1  0  0  0  0
 25 62  1  0  0  0  0
 26 63  1  0  0  0  0
 27 64  1  0  0  0  0
 27 65  1  0  0  0  0
 28 66  1  0  0  0  0
 28 67  1  0  0  0  0
 29 68  1  0  0  0  0
 29 69  1  0  0  0  0
 30 70  1  0  0  0  0
 30 71  1  0  0  0  0
 31 72  1  0  0  0  0
 31 73  1  0  0  0  0
 31 74  1  0  0  0  0
M  END
