 xtb: 6.7.1 (edcfbbe)
          07072613313D

 29 30  0     0  0            999 V2000
    2.7744    0.9870    0.7165 C   0  0  0  0  0  0  0  0  0  0  0  0
    2.9944    0.1719   -0.5518 C   0  0  0  0  0  0  0  0  0  0  0  0
    2.2871   -1.1828   -0.4962 C   0  0  0  0  0  0  0  0  0  0  0  0
    0.8523   -1.0301   -0.3641 N   0  0  0  0  0  0  0  0  0  0  0  0
    0.0453   -0.6249   -1.4039 C   0  0  0  0  0  0  0  0  0  0  0  0
    0.4320   -0.3984   -2.5204 O   0  0  0  0  0  0  0  0  0  0  0  0
   -1.3739   -0.5125   -0.8778 C   0  0  0  0  0  0  0  0  0  0  0  0
   -1.8901    0.9302   -1.0499 C   0  0  0  0  0  0  0  0  0  0  0  0
   -3.0869    1.1417   -0.1762 C   0  0  0  0  0  0  0  0  0  0  0  0
   -3.0248    0.7523    1.0875 C   0  0  0  0  0  0  0  0  0  0  0  0
   -1.7598    0.1234    1.5823 C   0  0  0  0  0  0  0  0  0  0  0  0
   -1.2885   -0.9546    0.5852 C   0  0  0  0  0  0  0  0  0  0  0  0
    0.1773   -1.2746    0.8123 C   0  0  0  0  0  0  0  0  0  0  0  0
    0.6926   -1.6679    1.8257 O   0  0  0  0  0  0  0  0  0  0  0  0
    3.3458    1.9110    0.6766 H   0  0  0  0  0  0  0  0  0  0  0  0
    1.7235    1.2436    0.8357 H   0  0  0  0  0  0  0  0  0  0  0  0
    3.0862    0.4223    1.5922 H   0  0  0  0  0  0  0  0  0  0  0  0
    4.0608   -0.0115   -0.6915 H   0  0  0  0  0  0  0  0  0  0  0  0
    2.6302    0.7243   -1.4200 H   0  0  0  0  0  0  0  0  0  0  0  0
    2.6222   -1.7569    0.3709 H   0  0  0  0  0  0  0  0  0  0  0  0
    2.4850   -1.7427   -1.4141 H   0  0  0  0  0  0  0  0  0  0  0  0
   -2.0198   -1.1761   -1.4586 H   0  0  0  0  0  0  0  0  0  0  0  0
   -2.1118    1.1149   -2.0997 H   0  0  0  0  0  0  0  0  0  0  0  0
   -1.0985    1.6251   -0.7490 H   0  0  0  0  0  0  0  0  0  0  0  0
   -3.9644    1.6020   -0.6009 H   0  0  0  0  0  0  0  0  0  0  0  0
   -3.8474    0.8711    1.7741 H   0  0  0  0  0  0  0  0  0  0  0  0
   -0.9847    0.8935    1.6602 H   0  0  0  0  0  0  0  0  0  0  0  0
   -1.8829   -0.3215    2.5683 H   0  0  0  0  0  0  0  0  0  0  0  0
   -1.8757   -1.8599    0.7608 H   0  0  0  0  0  0  0  0  0  0  0  0
  1  2  1  0  0  0  0
  2  3  1  0  0  0  0
  3  4  1  0  0  0  0
  4  5  1  0  0  0  0
  5  6  2  0  0  0  0
  5  7  1  0  0  0  0
  7  8  1  0  0  0  0
  8  9  1  0  0  0  0
  9 10  2  0  0  0  0
 10 11  1  0  0  0  0
  7 12  1  0  0  0  0
 11 12  1  0  0  0  0
  4 13  1  0  0  0  0
 12 13  1  0  0  0  0
 13 14  2  0  0  0  0
  1 15  1  0  0  0  0
  1 16  1  0  0  0  0
  1 17  1  0  0  0  0
  2 18  1  0  0  0  0
  2 19  1  0  0  0  0
  3 20  1  0  0  0  0
  3 21  1  0  0  0  0
  7 22  1  0  0  0  0
  8 23  1  0  0  0  0
  8 24  1  0  0  0  0
  9 25  1  0  0  0  0
 10 26  1  0  0  0  0
 11 27  1  0  0  0  0
 11 28  1  0  0  0  0
 12 29  1  0  0  0  0
M  END
