 xtb: 6.7.1 (edcfbbe)
          07082618473D

 13 13  0     0  0            999 V2000
    2.5130   -0.7203   -0.6179 O   0  0  0  0  0  0  0  0  0  0  0  0
    1.3618   -0.4243   -0.5055 C   0  0  0  0  0  0  0  0  0  0  0  0
    0.7873    0.8081    0.1796 C   0  0  0  0  0  0  0  0  0  0  0  0
   -0.6930    0.4631    0.3676 C   0  0  0  0  0  0  0  0  0  0  0  0
   -0.9895   -0.0209    1.6476 O   0  0  0  0  0  0  0  0  0  0  0  0
   -0.9081   -0.5994   -0.7330 C   0  0  0  0  0  0  0  0  0  0  0  0
    0.3609   -1.1823   -0.9844 O   0  0  0  0  0  0  0  0  0  0  0  0
    0.9251    1.6670   -0.4776 H   0  0  0  0  0  0  0  0  0  0  0  0
    1.2986    1.0081    1.1198 H   0  0  0  0  0  0  0  0  0  0  0  0
   -1.3546    1.3200    0.2297 H   0  0  0  0  0  0  0  0  0  0  0  0
   -0.4276   -0.7809    1.8445 H   0  0  0  0  0  0  0  0  0  0  0  0
   -1.2817   -0.1506   -1.6586 H   0  0  0  0  0  0  0  0  0  0  0  0
   -1.5922   -1.3875   -0.4118 H   0  0  0  0  0  0  0  0  0  0  0  0
  1  2  2  0  0  0  0
  2  3  1  0  0  0  0
  3  4  1  0  0  0  0
  4  5  1  0  0  0  0
  4  6  1  0  0  0  0
  2  7  1  0  0  0  0
  6  7  1  0  0  0  0
  3  8  1  0  0  0  0
  3  9  1  0  0  0  0
  4 10  1  0  0  0  0
  5 11  1  0  0  0  0
  6 12  1  0  0  0  0
  6 13  1  0  0  0  0
M  END
