 xtb: 6.7.1 (edcfbbe)
          07062618053D

 22 22  0     0  0            999 V2000
   -0.9558   -1.2557    0.5987 C   0  0  0  0  0  0  0  0  0  0  0  0
   -1.1293    0.2196    0.2835 C   0  0  0  0  0  0  0  0  0  0  0  0
   -1.5565    0.4488   -1.1661 C   0  0  0  0  0  0  0  0  0  0  0  0
    0.1381    1.0357    0.6035 C   0  0  0  0  0  0  0  0  0  0  0  0
    1.1981    0.6702   -0.2688 O   0  0  0  0  0  0  0  0  0  0  0  0
    2.1467   -0.1376    0.2053 C   0  0  0  0  0  0  0  0  0  0  0  0
    2.2286   -0.5203    1.3375 O   0  0  0  0  0  0  0  0  0  0  0  0
    3.1050   -0.5231   -0.9056 C   0  0  0  0  0  0  0  0  0  0  0  0
    2.2540   -1.7132   -1.9268 Cl  0  0  0  0  0  0  0  0  0  0  0  0
   -2.2199    0.7973    1.1394 N   0  0  0  0  0  0  0  0  0  0  0  0
   -2.8939    0.0444    1.7905 O   0  0  0  0  0  0  0  0  0  0  0  0
   -2.3530    1.9974    1.0981 O   0  0  0  0  0  0  0  0  0  0  0  0
   -0.2222   -1.6915   -0.0748 H   0  0  0  0  0  0  0  0  0  0  0  0
   -0.6170   -1.3989    1.6224 H   0  0  0  0  0  0  0  0  0  0  0  0
   -1.8978   -1.7831    0.4716 H   0  0  0  0  0  0  0  0  0  0  0  0
   -0.7431    0.1712   -1.8310 H   0  0  0  0  0  0  0  0  0  0  0  0
   -1.7969    1.4978   -1.3263 H   0  0  0  0  0  0  0  0  0  0  0  0
   -2.4278   -0.1564   -1.4058 H   0  0  0  0  0  0  0  0  0  0  0  0
   -0.0544    2.0988    0.4370 H   0  0  0  0  0  0  0  0  0  0  0  0
    0.4510    0.8669    1.6402 H   0  0  0  0  0  0  0  0  0  0  0  0
    3.9939   -1.0003   -0.4974 H   0  0  0  0  0  0  0  0  0  0  0  0
    3.3521    0.3322   -1.5320 H   0  0  0  0  0  0  0  0  0  0  0  0
  1  2  1  0  0  0  0
  2  3  1  0  0  0  0
  2  4  1  0  0  0  0
  4  5  1  0  0  0  0
  5  6  1  0  0  0  0
  6  7  2  0  0  0  0
  6  8  1  0  0  0  0
  8  9  1  0  0  0  0
  2 10  1  0  0  0  0
 10 11  2  0  0  0  0
 10 12  4  0  0  0  0
 11 12  1  0  0  0  0
  1 13  1  0  0  0  0
  1 14  1  0  0  0  0
  1 15  1  0  0  0  0
  3 16  1  0  0  0  0
  3 17  1  0  0  0  0
  3 18  1  0  0  0  0
  4 19  1  0  0  0  0
  4 20  1  0  0  0  0
  8 21  1  0  0  0  0
  8 22  1  0  0  0  0
M  END
