 xtb: 6.7.1 (edcfbbe)
          07092613593D

 24 24  0     0  0            999 V2000
    3.7754   -0.3975    0.3671 C   0  0  0  0  0  0  0  0  0  0  0  0
    2.7368    0.2099   -0.5571 C   0  0  0  0  0  0  0  0  0  0  0  0
    1.4501   -0.2518   -0.1463 O   0  0  0  0  0  0  0  0  0  0  0  0
    0.4240    0.1354   -0.9370 C   0  0  0  0  0  0  0  0  0  0  0  0
    0.5563    0.8401   -1.9106 O   0  0  0  0  0  0  0  0  0  0  0  0
   -0.7578   -0.3874   -0.5350 N   0  0  0  0  0  0  0  0  0  0  0  0
   -0.9671   -1.1004    0.7059 C   0  0  0  0  0  0  0  0  0  0  0  0
   -1.8362   -0.2426    1.6344 C   0  0  0  0  0  0  0  0  0  0  0  0
   -3.0490    0.1135    1.0112 O   0  0  0  0  0  0  0  0  0  0  0  0
   -2.8217    0.8426   -0.1756 C   0  0  0  0  0  0  0  0  0  0  0  0
   -1.9887    0.0311   -1.1729 C   0  0  0  0  0  0  0  0  0  0  0  0
    3.7355   -1.4822    0.3133 H   0  0  0  0  0  0  0  0  0  0  0  0
    3.5882   -0.0934    1.3936 H   0  0  0  0  0  0  0  0  0  0  0  0
    4.7653   -0.0627    0.0717 H   0  0  0  0  0  0  0  0  0  0  0  0
    2.9058   -0.0865   -1.5981 H   0  0  0  0  0  0  0  0  0  0  0  0
    2.7540    1.3047   -0.5103 H   0  0  0  0  0  0  0  0  0  0  0  0
   -1.4921   -2.0362    0.4822 H   0  0  0  0  0  0  0  0  0  0  0  0
   -0.0073   -1.3201    1.1684 H   0  0  0  0  0  0  0  0  0  0  0  0
   -1.2799    0.6642    1.9185 H   0  0  0  0  0  0  0  0  0  0  0  0
   -2.1071   -0.7981    2.5335 H   0  0  0  0  0  0  0  0  0  0  0  0
   -3.8062    1.0693   -0.5867 H   0  0  0  0  0  0  0  0  0  0  0  0
   -2.2973    1.7820    0.0567 H   0  0  0  0  0  0  0  0  0  0  0  0
   -2.5461   -0.8606   -1.4792 H   0  0  0  0  0  0  0  0  0  0  0  0
   -1.7350    0.6294   -2.0480 H   0  0  0  0  0  0  0  0  0  0  0  0
  1  2  1  0  0  0  0
  2  3  1  0  0  0  0
  3  4  1  0  0  0  0
  4  5  2  0  0  0  0
  4  6  1  0  0  0  0
  6  7  1  0  0  0  0
  7  8  1  0  0  0  0
  8  9  1  0  0  0  0
  9 10  1  0  0  0  0
  6 11  1  0  0  0  0
 10 11  1  0  0  0  0
  1 12  1  0  0  0  0
  1 13  1  0  0  0  0
  1 14  1  0  0  0  0
  2 15  1  0  0  0  0
  2 16  1  0  0  0  0
  7 17  1  0  0  0  0
  7 18  1  0  0  0  0
  8 19  1  0  0  0  0
  8 20  1  0  0  0  0
 10 21  1  0  0  0  0
 10 22  1  0  0  0  0
 11 23  1  0  0  0  0
 11 24  1  0  0  0  0
M  END
