 xtb: 6.7.1 (edcfbbe)
          07082615383D

 26 27  0     0  0            999 V2000
    2.7150    0.8968   -0.0203 C   0  0  0  0  0  0  0  0  0  0  0  0
    1.4851    0.0529   -0.0985 C   0  0  0  0  0  0  0  0  0  0  0  0
    1.2984   -0.9393   -0.9620 C   0  0  0  0  0  0  0  0  0  0  0  0
    0.0073   -1.7093   -0.9678 C   0  0  0  0  0  0  0  0  0  0  0  0
   -0.9087   -1.1807    0.1331 C   0  0  0  0  0  0  0  0  0  0  0  0
   -0.0748   -1.0501    1.4171 C   0  0  0  0  0  0  0  0  0  0  0  0
    0.3643    0.3209    0.8673 C   0  0  0  0  0  0  0  0  0  0  0  0
   -0.9828    0.3660    0.0932 C   0  0  0  0  0  0  0  0  0  0  0  0
   -2.1273    0.9146    0.9410 C   0  0  0  0  0  0  0  0  0  0  0  0
   -1.0228    1.0622   -1.2607 C   0  0  0  0  0  0  0  0  0  0  0  0
    3.4473    0.5900   -0.7633 H   0  0  0  0  0  0  0  0  0  0  0  0
    3.1645    0.8183    0.9697 H   0  0  0  0  0  0  0  0  0  0  0  0
    2.4618    1.9439   -0.1872 H   0  0  0  0  0  0  0  0  0  0  0  0
    2.0478   -1.2200   -1.6882 H   0  0  0  0  0  0  0  0  0  0  0  0
    0.2107   -2.7724   -0.8013 H   0  0  0  0  0  0  0  0  0  0  0  0
   -0.4751   -1.6255   -1.9463 H   0  0  0  0  0  0  0  0  0  0  0  0
   -1.8508   -1.7295    0.1796 H   0  0  0  0  0  0  0  0  0  0  0  0
    0.7169   -1.7844    1.5552 H   0  0  0  0  0  0  0  0  0  0  0  0
   -0.6724   -0.9897    2.3223 H   0  0  0  0  0  0  0  0  0  0  0  0
    0.5817    1.1256    1.5684 H   0  0  0  0  0  0  0  0  0  0  0  0
   -3.0760    0.7488    0.4332 H   0  0  0  0  0  0  0  0  0  0  0  0
   -2.1800    0.4429    1.9174 H   0  0  0  0  0  0  0  0  0  0  0  0
   -2.0026    1.9861    1.0881 H   0  0  0  0  0  0  0  0  0  0  0  0
   -1.9300    0.7810   -1.7926 H   0  0  0  0  0  0  0  0  0  0  0  0
   -0.1667    0.8092   -1.8777 H   0  0  0  0  0  0  0  0  0  0  0  0
   -1.0310    2.1417   -1.1196 H   0  0  0  0  0  0  0  0  0  0  0  0
  1  2  1  0  0  0  0
  2  3  2  0  0  0  0
  3  4  1  0  0  0  0
  4  5  1  0  0  0  0
  5  6  1  0  0  0  0
  2  7  1  0  0  0  0
  6  7  1  0  0  0  0
  5  8  1  0  0  0  0
  7  8  1  0  0  0  0
  8  9  1  0  0  0  0
  8 10  1  0  0  0  0
  1 11  1  0  0  0  0
  1 12  1  0  0  0  0
  1 13  1  0  0  0  0
  3 14  1  0  0  0  0
  4 15  1  0  0  0  0
  4 16  1  0  0  0  0
  5 17  1  0  0  0  0
  6 18  1  0  0  0  0
  6 19  1  0  0  0  0
  7 20  1  0  0  0  0
  9 21  1  0  0  0  0
  9 22  1  0  0  0  0
  9 23  1  0  0  0  0
 10 24  1  0  0  0  0
 10 25  1  0  0  0  0
 10 26  1  0  0  0  0
M  END
