 xtb: 6.7.1 (edcfbbe)
          07082622473D

 16 16  0     0  0            999 V2000
    3.0705   -0.6642    1.9027 N   0  0  0  0  0  0  0  0  0  0  0  0
    2.5863   -0.5003    0.8807 C   0  0  0  0  0  0  0  0  0  0  0  0
    1.9488   -0.2906   -0.3971 C   0  0  0  0  0  0  0  0  0  0  0  0
    0.4717   -0.0583   -0.1807 C   0  0  0  0  0  0  0  0  0  0  0  0
   -0.0118    1.2256    0.0305 C   0  0  0  0  0  0  0  0  0  0  0  0
   -1.3617    1.4355    0.2500 C   0  0  0  0  0  0  0  0  0  0  0  0
   -2.2381    0.3640    0.2650 C   0  0  0  0  0  0  0  0  0  0  0  0
   -1.7595   -0.9191    0.0618 C   0  0  0  0  0  0  0  0  0  0  0  0
   -0.4098   -1.1302   -0.1578 C   0  0  0  0  0  0  0  0  0  0  0  0
    2.1179   -1.1755   -1.0167 H   0  0  0  0  0  0  0  0  0  0  0  0
    2.4137    0.5750   -0.8769 H   0  0  0  0  0  0  0  0  0  0  0  0
    0.6698    2.0645    0.0234 H   0  0  0  0  0  0  0  0  0  0  0  0
   -1.7288    2.4383    0.4106 H   0  0  0  0  0  0  0  0  0  0  0  0
   -3.2913    0.5283    0.4359 H   0  0  0  0  0  0  0  0  0  0  0  0
   -2.4381   -1.7591    0.0751 H   0  0  0  0  0  0  0  0  0  0  0  0
   -0.0396   -2.1340   -0.3122 H   0  0  0  0  0  0  0  0  0  0  0  0
  1  2  3  0  0  0  0
  2  3  1  0  0  0  0
  3  4  1  0  0  0  0
  4  5  4  0  0  0  0
  5  6  4  0  0  0  0
  6  7  4  0  0  0  0
  7  8  4  0  0  0  0
  4  9  4  0  0  0  0
  8  9  4  0  0  0  0
  3 10  1  0  0  0  0
  3 11  1  0  0  0  0
  5 12  1  0  0  0  0
  6 13  1  0  0  0  0
  7 14  1  0  0  0  0
  8 15  1  0  0  0  0
  9 16  1  0  0  0  0
M  END
