 xtb: 6.7.1 (edcfbbe)
          07072602453D

 34 34  0     0  0            999 V2000
    5.2397   -1.4653    1.4504 C   0  0  0  0  0  0  0  0  0  0  0  0
    4.5802   -0.2717    0.7707 C   0  0  0  0  0  0  0  0  0  0  0  0
    3.0711   -0.4641    0.6429 C   0  0  0  0  0  0  0  0  0  0  0  0
    2.4136    0.7271   -0.0364 C   0  0  0  0  0  0  0  0  0  0  0  0
    1.0083    0.4841   -0.1194 O   0  0  0  0  0  0  0  0  0  0  0  0
    0.2817    1.4294   -0.6988 C   0  0  0  0  0  0  0  0  0  0  0  0
    0.7229    2.4580   -1.1460 O   0  0  0  0  0  0  0  0  0  0  0  0
   -1.1754    1.0708   -0.7374 C   0  0  0  0  0  0  0  0  0  0  0  0
   -2.0657    1.9397   -1.2616 C   0  0  0  0  0  0  0  0  0  0  0  0
   -3.4678    1.5759   -1.4039 C   0  0  0  0  0  0  0  0  0  0  0  0
   -4.3428    2.3338   -1.7562 O   0  0  0  0  0  0  0  0  0  0  0  0
   -3.7194    0.0985   -1.1330 C   0  0  0  0  0  0  0  0  0  0  0  0
   -2.8541   -0.4246    0.0141 C   0  0  0  0  0  0  0  0  0  0  0  0
   -3.2709    0.2197    1.3395 C   0  0  0  0  0  0  0  0  0  0  0  0
   -2.9260   -1.9469    0.1064 C   0  0  0  0  0  0  0  0  0  0  0  0
   -1.4621   -0.1195   -0.2137 O   0  0  0  0  0  0  0  0  0  0  0  0
    5.0669   -2.3739    0.8782 H   0  0  0  0  0  0  0  0  0  0  0  0
    4.8343   -1.6077    2.4494 H   0  0  0  0  0  0  0  0  0  0  0  0
    6.3125   -1.3111    1.5340 H   0  0  0  0  0  0  0  0  0  0  0  0
    4.7815    0.6332    1.3478 H   0  0  0  0  0  0  0  0  0  0  0  0
    5.0123   -0.1336   -0.2225 H   0  0  0  0  0  0  0  0  0  0  0  0
    2.8585   -1.3628    0.0615 H   0  0  0  0  0  0  0  0  0  0  0  0
    2.6280   -0.5945    1.6316 H   0  0  0  0  0  0  0  0  0  0  0  0
    2.5805    1.6511    0.5291 H   0  0  0  0  0  0  0  0  0  0  0  0
    2.8078    0.8776   -1.0480 H   0  0  0  0  0  0  0  0  0  0  0  0
   -1.7285    2.9012   -1.6113 H   0  0  0  0  0  0  0  0  0  0  0  0
   -3.4789   -0.4379   -2.0565 H   0  0  0  0  0  0  0  0  0  0  0  0
   -4.7748   -0.0620   -0.9140 H   0  0  0  0  0  0  0  0  0  0  0  0
   -4.2937   -0.0546    1.5817 H   0  0  0  0  0  0  0  0  0  0  0  0
   -2.6146   -0.1196    2.1372 H   0  0  0  0  0  0  0  0  0  0  0  0
   -3.2082    1.3038    1.2729 H   0  0  0  0  0  0  0  0  0  0  0  0
   -2.5851   -2.3950   -0.8234 H   0  0  0  0  0  0  0  0  0  0  0  0
   -2.2850   -2.2960    0.9112 H   0  0  0  0  0  0  0  0  0  0  0  0
   -3.9466   -2.2628    0.2999 H   0  0  0  0  0  0  0  0  0  0  0  0
  1  2  1  0  0  0  0
  2  3  1  0  0  0  0
  3  4  1  0  0  0  0
  4  5  1  0  0  0  0
  5  6  1  0  0  0  0
  6  7  2  0  0  0  0
  6  8  1  0  0  0  0
  8  9  2  0  0  0  0
  9 10  1  0  0  0  0
 10 11  2  0  0  0  0
 10 12  1  0  0  0  0
 12 13  1  0  0  0  0
 13 14  1  0  0  0  0
 13 15  1  0  0  0  0
  8 16  1  0  0  0  0
 13 16  1  0  0  0  0
  1 17  1  0  0  0  0
  1 18  1  0  0  0  0
  1 19  1  0  0  0  0
  2 20  1  0  0  0  0
  2 21  1  0  0  0  0
  3 22  1  0  0  0  0
  3 23  1  0  0  0  0
  4 24  1  0  0  0  0
  4 25  1  0  0  0  0
  9 26  1  0  0  0  0
 12 27  1  0  0  0  0
 12 28  1  0  0  0  0
 14 29  1  0  0  0  0
 14 30  1  0  0  0  0
 14 31  1  0  0  0  0
 15 32  1  0  0  0  0
 15 33  1  0  0  0  0
 15 34  1  0  0  0  0
M  END
