 xtb: 6.7.1 (edcfbbe)
          07072613103D

 37 37  0     0  0            999 V2000
    5.4435    1.1414    0.7655 C   0  0  0  0  0  0  0  0  0  0  0  0
    4.0933    0.8523    0.1225 C   0  0  0  0  0  0  0  0  0  0  0  0
    3.9692   -0.6129   -0.2904 C   0  0  0  0  0  0  0  0  0  0  0  0
    2.6201   -0.9169   -0.9247 C   0  0  0  0  0  0  0  0  0  0  0  0
    1.5939   -0.7401    0.0561 O   0  0  0  0  0  0  0  0  0  0  0  0
    0.4237   -1.3262   -0.1746 C   0  0  0  0  0  0  0  0  0  0  0  0
    0.1845   -1.9787   -1.1644 O   0  0  0  0  0  0  0  0  0  0  0  0
   -0.5564   -1.0704    0.9411 C   0  0  0  0  0  0  0  0  0  0  0  0
   -1.9444   -0.6595    0.3815 C   0  0  0  0  0  0  0  0  0  0  0  0
   -2.4882   -1.7227   -0.3629 O   0  0  0  0  0  0  0  0  0  0  0  0
   -2.8980   -0.3771    1.5509 C   0  0  0  0  0  0  0  0  0  0  0  0
   -4.2522    0.1087    1.0436 C   0  0  0  0  0  0  0  0  0  0  0  0
   -4.0881    1.3697    0.2029 C   0  0  0  0  0  0  0  0  0  0  0  0
   -3.1627    1.0846   -0.9744 C   0  0  0  0  0  0  0  0  0  0  0  0
   -1.7995    0.6094   -0.4798 C   0  0  0  0  0  0  0  0  0  0  0  0
    6.2519    0.9202    0.0719 H   0  0  0  0  0  0  0  0  0  0  0  0
    5.5137    2.1879    1.0514 H   0  0  0  0  0  0  0  0  0  0  0  0
    5.5812    0.5326    1.6561 H   0  0  0  0  0  0  0  0  0  0  0  0
    3.2930    1.0901    0.8247 H   0  0  0  0  0  0  0  0  0  0  0  0
    3.9661    1.4861   -0.7578 H   0  0  0  0  0  0  0  0  0  0  0  0
    4.7492   -0.8627   -1.0118 H   0  0  0  0  0  0  0  0  0  0  0  0
    4.0982   -1.2504    0.5860 H   0  0  0  0  0  0  0  0  0  0  0  0
    2.4189   -0.2392   -1.7622 H   0  0  0  0  0  0  0  0  0  0  0  0
    2.5754   -1.9462   -1.2970 H   0  0  0  0  0  0  0  0  0  0  0  0
   -0.6812   -2.0012    1.4999 H   0  0  0  0  0  0  0  0  0  0  0  0
   -0.1548   -0.3065    1.6050 H   0  0  0  0  0  0  0  0  0  0  0  0
   -1.8131   -2.0183   -0.9934 H   0  0  0  0  0  0  0  0  0  0  0  0
   -3.0288   -1.2959    2.1244 H   0  0  0  0  0  0  0  0  0  0  0  0
   -2.4510    0.3783    2.1998 H   0  0  0  0  0  0  0  0  0  0  0  0
   -4.6953   -0.6782    0.4326 H   0  0  0  0  0  0  0  0  0  0  0  0
   -4.9123    0.3008    1.8918 H   0  0  0  0  0  0  0  0  0  0  0  0
   -3.6653    2.1690    0.8172 H   0  0  0  0  0  0  0  0  0  0  0  0
   -5.0613    1.7042   -0.1613 H   0  0  0  0  0  0  0  0  0  0  0  0
   -3.0397    1.9793   -1.5882 H   0  0  0  0  0  0  0  0  0  0  0  0
   -3.6034    0.3015   -1.5937 H   0  0  0  0  0  0  0  0  0  0  0  0
   -1.1539    0.3954   -1.3351 H   0  0  0  0  0  0  0  0  0  0  0  0
   -1.3264    1.3918    0.1176 H   0  0  0  0  0  0  0  0  0  0  0  0
  1  2  1  0  0  0  0
  2  3  1  0  0  0  0
  3  4  1  0  0  0  0
  4  5  1  0  0  0  0
  5  6  1  0  0  0  0
  6  7  2  0  0  0  0
  6  8  1  0  0  0  0
  8  9  1  0  0  0  0
  9 10  1  0  0  0  0
  9 11  1  0  0  0  0
 11 12  1  0  0  0  0
 12 13  1  0  0  0  0
 13 14  1  0  0  0  0
  9 15  1  0  0  0  0
 14 15  1  0  0  0  0
  1 16  1  0  0  0  0
  1 17  1  0  0  0  0
  1 18  1  0  0  0  0
  2 19  1  0  0  0  0
  2 20  1  0  0  0  0
  3 21  1  0  0  0  0
  3 22  1  0  0  0  0
  4 23  1  0  0  0  0
  4 24  1  0  0  0  0
  8 25  1  0  0  0  0
  8 26  1  0  0  0  0
 10 27  1  0  0  0  0
 11 28  1  0  0  0  0
 11 29  1  0  0  0  0
 12 30  1  0  0  0  0
 12 31  1  0  0  0  0
 13 32  1  0  0  0  0
 13 33  1  0  0  0  0
 14 34  1  0  0  0  0
 14 35  1  0  0  0  0
 15 36  1  0  0  0  0
 15 37  1  0  0  0  0
M  END
