 xtb: 6.7.1 (edcfbbe)
          07092615173D

 24 24  0     0  0            999 V2000
    3.9428    0.7616    0.3173 C   0  0  0  0  0  0  0  0  0  0  0  0
    2.6562    1.0549   -0.4419 C   0  0  0  0  0  0  0  0  0  0  0  0
    1.5992    0.0052   -0.1731 C   0  0  0  0  0  0  0  0  0  0  0  0
    1.8080   -1.1057    0.2283 O   0  0  0  0  0  0  0  0  0  0  0  0
    0.3830    0.5046   -0.4515 O   0  0  0  0  0  0  0  0  0  0  0  0
   -0.7538   -0.2969   -0.3449 C   0  0  0  0  0  0  0  0  0  0  0  0
   -0.8082   -1.5589   -0.9121 C   0  0  0  0  0  0  0  0  0  0  0  0
   -1.9744   -2.2987   -0.8184 C   0  0  0  0  0  0  0  0  0  0  0  0
   -3.0759   -1.7737   -0.1679 C   0  0  0  0  0  0  0  0  0  0  0  0
   -3.0131   -0.5077    0.3891 C   0  0  0  0  0  0  0  0  0  0  0  0
   -1.8556    0.2519    0.3140 C   0  0  0  0  0  0  0  0  0  0  0  0
   -1.7641    1.6197    0.9158 C   0  0  0  0  0  0  0  0  0  0  0  0
    3.7765    0.8354    1.3891 H   0  0  0  0  0  0  0  0  0  0  0  0
    4.2813   -0.2473    0.0970 H   0  0  0  0  0  0  0  0  0  0  0  0
    4.7199    1.4666    0.0341 H   0  0  0  0  0  0  0  0  0  0  0  0
    2.2511    2.0344   -0.1849 H   0  0  0  0  0  0  0  0  0  0  0  0
    2.8440    1.0471   -1.5193 H   0  0  0  0  0  0  0  0  0  0  0  0
    0.0570   -1.9587   -1.4169 H   0  0  0  0  0  0  0  0  0  0  0  0
   -2.0174   -3.2841   -1.2564 H   0  0  0  0  0  0  0  0  0  0  0  0
   -3.9863   -2.3492   -0.0928 H   0  0  0  0  0  0  0  0  0  0  0  0
   -3.8756   -0.1003    0.8963 H   0  0  0  0  0  0  0  0  0  0  0  0
   -0.9824    1.6457    1.6746 H   0  0  0  0  0  0  0  0  0  0  0  0
   -2.7077    1.9040    1.3734 H   0  0  0  0  0  0  0  0  0  0  0  0
   -1.5045    2.3503    0.1511 H   0  0  0  0  0  0  0  0  0  0  0  0
  1  2  1  0  0  0  0
  2  3  1  0  0  0  0
  3  4  2  0  0  0  0
  3  5  1  0  0  0  0
  5  6  1  0  0  0  0
  6  7  4  0  0  0  0
  7  8  4  0  0  0  0
  8  9  4  0  0  0  0
  9 10  4  0  0  0  0
  6 11  4  0  0  0  0
 10 11  4  0  0  0  0
 11 12  1  0  0  0  0
  1 13  1  0  0  0  0
  1 14  1  0  0  0  0
  1 15  1  0  0  0  0
  2 16  1  0  0  0  0
  2 17  1  0  0  0  0
  7 18  1  0  0  0  0
  8 19  1  0  0  0  0
  9 20  1  0  0  0  0
 10 21  1  0  0  0  0
 12 22  1  0  0  0  0
 12 23  1  0  0  0  0
 12 24  1  0  0  0  0
M  END
