 xtb: 6.7.1 (edcfbbe)
          07092600433D

 19 19  0     0  0            999 V2000
    4.6752    0.7683    1.0824 Br  0  0  0  0  0  0  0  0  0  0  0  0
    3.2595   -0.4555    0.5796 C   0  0  0  0  0  0  0  0  0  0  0  0
    1.9237    0.2682    0.5873 C   0  0  0  0  0  0  0  0  0  0  0  0
    0.9553   -0.6827    0.2141 O   0  0  0  0  0  0  0  0  0  0  0  0
   -0.3549   -0.2926    0.1396 C   0  0  0  0  0  0  0  0  0  0  0  0
   -1.2571   -1.2873   -0.2360 C   0  0  0  0  0  0  0  0  0  0  0  0
   -2.6020   -1.0007   -0.3417 C   0  0  0  0  0  0  0  0  0  0  0  0
   -3.0675    0.2779   -0.0756 C   0  0  0  0  0  0  0  0  0  0  0  0
   -2.1734    1.2633    0.2965 C   0  0  0  0  0  0  0  0  0  0  0  0
   -0.8191    0.9886    0.4065 C   0  0  0  0  0  0  0  0  0  0  0  0
    3.4922   -0.8342   -0.4144 H   0  0  0  0  0  0  0  0  0  0  0  0
    3.2639   -1.2737    1.2981 H   0  0  0  0  0  0  0  0  0  0  0  0
    1.9451    1.1060   -0.1249 H   0  0  0  0  0  0  0  0  0  0  0  0
    1.7163    0.6655    1.5916 H   0  0  0  0  0  0  0  0  0  0  0  0
   -0.8760   -2.2757   -0.4389 H   0  0  0  0  0  0  0  0  0  0  0  0
   -3.2915   -1.7787   -0.6333 H   0  0  0  0  0  0  0  0  0  0  0  0
   -4.1199    0.5019   -0.1585 H   0  0  0  0  0  0  0  0  0  0  0  0
   -2.5246    2.2627    0.5061 H   0  0  0  0  0  0  0  0  0  0  0  0
   -0.1452    1.7787    0.6991 H   0  0  0  0  0  0  0  0  0  0  0  0
  1  2  1  0  0  0  0
  2  3  1  0  0  0  0
  3  4  1  0  0  0  0
  4  5  1  0  0  0  0
  5  6  4  0  0  0  0
  6  7  4  0  0  0  0
  7  8  4  0  0  0  0
  8  9  4  0  0  0  0
  5 10  4  0  0  0  0
  9 10  4  0  0  0  0
  2 11  1  0  0  0  0
  2 12  1  0  0  0  0
  3 13  1  0  0  0  0
  3 14  1  0  0  0  0
  6 15  1  0  0  0  0
  7 16  1  0  0  0  0
  8 17  1  0  0  0  0
  9 18  1  0  0  0  0
 10 19  1  0  0  0  0
M  END
