 xtb: 6.7.1 (edcfbbe)
          07082623333D

 18 18  0     0  0            999 V2000
    3.4437   -0.1102   -0.0012 C   0  0  0  0  0  0  0  0  0  0  0  0
    2.0354    0.3869    0.1964 C   0  0  0  0  0  0  0  0  0  0  0  0
    1.7306    1.3920    0.7763 O   0  0  0  0  0  0  0  0  0  0  0  0
    1.1675   -0.4705   -0.3690 O   0  0  0  0  0  0  0  0  0  0  0  0
   -0.2019   -0.2259   -0.3727 C   0  0  0  0  0  0  0  0  0  0  0  0
   -0.7425    1.0271   -0.6180 C   0  0  0  0  0  0  0  0  0  0  0  0
   -2.1191    1.1733   -0.6502 C   0  0  0  0  0  0  0  0  0  0  0  0
   -2.9481    0.0839   -0.4488 C   0  0  0  0  0  0  0  0  0  0  0  0
   -2.3995   -1.1664   -0.2146 C   0  0  0  0  0  0  0  0  0  0  0  0
   -1.0272   -1.3256   -0.1743 C   0  0  0  0  0  0  0  0  0  0  0  0
    3.4953   -1.1753    0.2060 H   0  0  0  0  0  0  0  0  0  0  0  0
    3.7307    0.0501   -1.0386 H   0  0  0  0  0  0  0  0  0  0  0  0
    4.1179    0.4390    0.6484 H   0  0  0  0  0  0  0  0  0  0  0  0
   -0.0984    1.8771   -0.7751 H   0  0  0  0  0  0  0  0  0  0  0  0
   -2.5425    2.1486   -0.8370 H   0  0  0  0  0  0  0  0  0  0  0  0
   -4.0202    0.2074   -0.4754 H   0  0  0  0  0  0  0  0  0  0  0  0
   -3.0411   -2.0207   -0.0595 H   0  0  0  0  0  0  0  0  0  0  0  0
   -0.5806   -2.2909    0.0073 H   0  0  0  0  0  0  0  0  0  0  0  0
  1  2  1  0  0  0  0
  2  3  2  0  0  0  0
  2  4  1  0  0  0  0
  4  5  1  0  0  0  0
  5  6  4  0  0  0  0
  6  7  4  0  0  0  0
  7  8  4  0  0  0  0
  8  9  4  0  0  0  0
  5 10  4  0  0  0  0
  9 10  4  0  0  0  0
  1 11  1  0  0  0  0
  1 12  1  0  0  0  0
  1 13  1  0  0  0  0
  6 14  1  0  0  0  0
  7 15  1  0  0  0  0
  8 16  1  0  0  0  0
  9 17  1  0  0  0  0
 10 18  1  0  0  0  0
M  END
