 xtb: 6.7.1 (edcfbbe)
          07082622323D

 17 17  0     0  0            999 V2000
   -2.3013   -1.0421   -0.2195 C   0  0  0  0  0  0  0  0  0  0  0  0
   -1.0466   -0.2408   -0.0518 C   0  0  0  0  0  0  0  0  0  0  0  0
   -1.1049    1.1008    0.3143 C   0  0  0  0  0  0  0  0  0  0  0  0
    0.0506    1.8447    0.4923 C   0  0  0  0  0  0  0  0  0  0  0  0
    1.2863    1.2581    0.3070 C   0  0  0  0  0  0  0  0  0  0  0  0
    1.3664   -0.0860   -0.0597 C   0  0  0  0  0  0  0  0  0  0  0  0
    2.6763   -0.7142   -0.2591 C   0  0  0  0  0  0  0  0  0  0  0  0
    3.7423   -0.1671   -0.1320 O   0  0  0  0  0  0  0  0  0  0  0  0
    0.1976   -0.8241   -0.2358 C   0  0  0  0  0  0  0  0  0  0  0  0
   -3.1249   -0.4106   -0.5438 H   0  0  0  0  0  0  0  0  0  0  0  0
   -2.1591   -1.8394   -0.9450 H   0  0  0  0  0  0  0  0  0  0  0  0
   -2.5799   -1.4973    0.7314 H   0  0  0  0  0  0  0  0  0  0  0  0
   -2.0690    1.5668    0.4602 H   0  0  0  0  0  0  0  0  0  0  0  0
   -0.0188    2.8848    0.7747 H   0  0  0  0  0  0  0  0  0  0  0  0
    2.2016    1.8152    0.4373 H   0  0  0  0  0  0  0  0  0  0  0  0
    2.6171   -1.7836   -0.5495 H   0  0  0  0  0  0  0  0  0  0  0  0
    0.2663   -1.8651   -0.5210 H   0  0  0  0  0  0  0  0  0  0  0  0
  1  2  1  0  0  0  0
  2  3  4  0  0  0  0
  3  4  4  0  0  0  0
  4  5  4  0  0  0  0
  5  6  4  0  0  0  0
  6  7  1  0  0  0  0
  7  8  2  0  0  0  0
  2  9  4  0  0  0  0
  6  9  4  0  0  0  0
  1 10  1  0  0  0  0
  1 11  1  0  0  0  0
  1 12  1  0  0  0  0
  3 13  1  0  0  0  0
  4 14  1  0  0  0  0
  5 15  1  0  0  0  0
  7 16  1  0  0  0  0
  9 17  1  0  0  0  0
M  END
