 xtb: 6.7.1 (edcfbbe)
          07082623523D

 26 26  0     0  0            999 V2000
   -3.5552    0.5804   -0.7054 C   0  0  0  0  0  0  0  0  0  0  0  0
   -2.2079   -0.1295   -0.7611 C   0  0  0  0  0  0  0  0  0  0  0  0
   -1.2847    0.3559    0.3514 C   0  0  0  0  0  0  0  0  0  0  0  0
    0.1537   -0.1792    0.2501 C   0  0  0  0  0  0  0  0  0  0  0  0
    0.1854   -1.7155    0.3198 C   0  0  0  0  0  0  0  0  0  0  0  0
    0.8272    0.3994    1.3558 O   0  0  0  0  0  0  0  0  0  0  0  0
    2.2369    0.3157    1.3207 C   0  0  0  0  0  0  0  0  0  0  0  0
    2.7857    0.8869    0.0141 C   0  0  0  0  0  0  0  0  0  0  0  0
    2.0631    0.1780   -1.1302 C   0  0  0  0  0  0  0  0  0  0  0  0
    0.6639    0.2953   -0.9809 O   0  0  0  0  0  0  0  0  0  0  0  0
   -4.0422    0.3995    0.2505 H   0  0  0  0  0  0  0  0  0  0  0  0
   -3.4276    1.6534   -0.8263 H   0  0  0  0  0  0  0  0  0  0  0  0
   -4.2081    0.2208   -1.4972 H   0  0  0  0  0  0  0  0  0  0  0  0
   -2.3684   -1.2048   -0.6696 H   0  0  0  0  0  0  0  0  0  0  0  0
   -1.7272    0.0637   -1.7207 H   0  0  0  0  0  0  0  0  0  0  0  0
   -1.6751    0.0780    1.3307 H   0  0  0  0  0  0  0  0  0  0  0  0
   -1.2133    1.4437    0.3134 H   0  0  0  0  0  0  0  0  0  0  0  0
   -0.4029   -2.0457    1.1707 H   0  0  0  0  0  0  0  0  0  0  0  0
   -0.2294   -2.1245   -0.5963 H   0  0  0  0  0  0  0  0  0  0  0  0
    1.1998   -2.0870    0.4372 H   0  0  0  0  0  0  0  0  0  0  0  0
    2.5763    0.8918    2.1845 H   0  0  0  0  0  0  0  0  0  0  0  0
    2.5712   -0.7255    1.4433 H   0  0  0  0  0  0  0  0  0  0  0  0
    3.8620    0.7339   -0.0524 H   0  0  0  0  0  0  0  0  0  0  0  0
    2.5659    1.9545   -0.0318 H   0  0  0  0  0  0  0  0  0  0  0  0
    2.2875    0.6404   -2.0941 H   0  0  0  0  0  0  0  0  0  0  0  0
    2.3634   -0.8796   -1.1691 H   0  0  0  0  0  0  0  0  0  0  0  0
  1  2  1  0  0  0  0
  2  3  1  0  0  0  0
  3  4  1  0  0  0  0
  4  5  1  0  0  0  0
  4  6  1  0  0  0  0
  6  7  1  0  0  0  0
  7  8  1  0  0  0  0
  8  9  1  0  0  0  0
  4 10  1  0  0  0  0
  9 10  1  0  0  0  0
  1 11  1  0  0  0  0
  1 12  1  0  0  0  0
  1 13  1  0  0  0  0
  2 14  1  0  0  0  0
  2 15  1  0  0  0  0
  3 16  1  0  0  0  0
  3 17  1  0  0  0  0
  5 18  1  0  0  0  0
  5 19  1  0  0  0  0
  5 20  1  0  0  0  0
  7 21  1  0  0  0  0
  7 22  1  0  0  0  0
  8 23  1  0  0  0  0
  8 24  1  0  0  0  0
  9 25  1  0  0  0  0
  9 26  1  0  0  0  0
M  END
