 xtb: 6.7.1 (edcfbbe)
          07082619333D

 20 19  0     0  0            999 V2000
   -3.2885   -0.4103   -0.1785 C   0  0  0  0  0  0  0  0  0  0  0  0
   -2.1658    0.4750    0.3290 C   0  0  0  0  0  0  0  0  0  0  0  0
   -0.9321   -0.2345    0.1963 O   0  0  0  0  0  0  0  0  0  0  0  0
    0.1909    0.4762    0.3330 C   0  0  0  0  0  0  0  0  0  0  0  0
    0.2091    1.6543    0.5749 O   0  0  0  0  0  0  0  0  0  0  0  0
    1.4129   -0.3932    0.0994 C   0  0  0  0  0  0  0  0  0  0  0  0
    2.5554    0.0489    1.0076 C   0  0  0  0  0  0  0  0  0  0  0  0
    1.7962   -0.2575   -1.3777 C   0  0  0  0  0  0  0  0  0  0  0  0
   -3.3222   -1.3345    0.3920 H   0  0  0  0  0  0  0  0  0  0  0  0
   -4.2374    0.1076   -0.0741 H   0  0  0  0  0  0  0  0  0  0  0  0
   -3.1300   -0.6545   -1.2255 H   0  0  0  0  0  0  0  0  0  0  0  0
   -2.0992    1.4079   -0.2418 H   0  0  0  0  0  0  0  0  0  0  0  0
   -2.3097    0.7320    1.3846 H   0  0  0  0  0  0  0  0  0  0  0  0
    1.1350   -1.4306    0.3049 H   0  0  0  0  0  0  0  0  0  0  0  0
    2.2970   -0.1062    2.0524 H   0  0  0  0  0  0  0  0  0  0  0  0
    3.4562   -0.5166    0.7826 H   0  0  0  0  0  0  0  0  0  0  0  0
    2.7537    1.1072    0.8580 H   0  0  0  0  0  0  0  0  0  0  0  0
    0.9792   -0.5843   -2.0169 H   0  0  0  0  0  0  0  0  0  0  0  0
    2.6709   -0.8669   -1.5922 H   0  0  0  0  0  0  0  0  0  0  0  0
    2.0283    0.7799   -1.6080 H   0  0  0  0  0  0  0  0  0  0  0  0
  1  2  1  0  0  0  0
  2  3  1  0  0  0  0
  3  4  1  0  0  0  0
  4  5  2  0  0  0  0
  4  6  1  0  0  0  0
  6  7  1  0  0  0  0
  6  8  1  0  0  0  0
  1  9  1  0  0  0  0
  1 10  1  0  0  0  0
  1 11  1  0  0  0  0
  2 12  1  0  0  0  0
  2 13  1  0  0  0  0
  6 14  1  0  0  0  0
  7 15  1  0  0  0  0
  7 16  1  0  0  0  0
  7 17  1  0  0  0  0
  8 18  1  0  0  0  0
  8 19  1  0  0  0  0
  8 20  1  0  0  0  0
M  END
