 xtb: 6.7.1 (edcfbbe)
          07092618543D

 22 22  0     0  0            999 V2000
    0.9486   -2.9311    2.2230 C   0  0  0  0  0  0  0  0  0  0  0  0
    0.6927   -2.6150    0.7620 C   0  0  0  0  0  0  0  0  0  0  0  0
    0.3656   -1.2294    0.6545 O   0  0  0  0  0  0  0  0  0  0  0  0
    0.1081   -0.7743   -0.5702 C   0  0  0  0  0  0  0  0  0  0  0  0
    0.1473   -1.4968   -1.5558 O   0  0  0  0  0  0  0  0  0  0  0  0
   -0.2212    0.6552   -0.6158 C   0  0  0  0  0  0  0  0  0  0  0  0
   -0.2492    1.4280    0.5488 C   0  0  0  0  0  0  0  0  0  0  0  0
   -0.5590    2.7677    0.4968 C   0  0  0  0  0  0  0  0  0  0  0  0
   -0.8477    3.3608   -0.7282 C   0  0  0  0  0  0  0  0  0  0  0  0
   -0.8263    2.6195   -1.8880 C   0  0  0  0  0  0  0  0  0  0  0  0
   -0.5139    1.2572   -1.8563 C   0  0  0  0  0  0  0  0  0  0  0  0
   -0.5064    0.5815   -3.0090 O   0  0  0  0  0  0  0  0  0  0  0  0
    1.7715   -2.3284    2.5978 H   0  0  0  0  0  0  0  0  0  0  0  0
    1.2000   -3.9822    2.3299 H   0  0  0  0  0  0  0  0  0  0  0  0
    0.0622   -2.7153    2.8135 H   0  0  0  0  0  0  0  0  0  0  0  0
   -0.1394   -3.2068    0.3637 H   0  0  0  0  0  0  0  0  0  0  0  0
    1.5770   -2.8183    0.1472 H   0  0  0  0  0  0  0  0  0  0  0  0
   -0.0225    0.9502    1.4887 H   0  0  0  0  0  0  0  0  0  0  0  0
   -0.5780    3.3561    1.4011 H   0  0  0  0  0  0  0  0  0  0  0  0
   -1.0911    4.4120   -0.7719 H   0  0  0  0  0  0  0  0  0  0  0  0
   -1.0478    3.0648   -2.8449 H   0  0  0  0  0  0  0  0  0  0  0  0
   -0.2705   -0.3555   -2.8199 H   0  0  0  0  0  0  0  0  0  0  0  0
  1  2  1  0  0  0  0
  2  3  1  0  0  0  0
  3  4  1  0  0  0  0
  4  5  2  0  0  0  0
  4  6  1  0  0  0  0
  6  7  4  0  0  0  0
  7  8  4  0  0  0  0
  8  9  4  0  0  0  0
  9 10  4  0  0  0  0
  6 11  4  0  0  0  0
 10 11  4  0  0  0  0
 11 12  1  0  0  0  0
  1 13  1  0  0  0  0
  1 14  1  0  0  0  0
  1 15  1  0  0  0  0
  2 16  1  0  0  0  0
  2 17  1  0  0  0  0
  7 18  1  0  0  0  0
  8 19  1  0  0  0  0
  9 20  1  0  0  0  0
 10 21  1  0  0  0  0
 12 22  1  0  0  0  0
M  END
