 xtb: 6.7.1 (edcfbbe)
          07082622003D

 19 20  0     0  0            999 V2000
    2.4374   -0.5926   -0.3131 C   0  0  0  0  0  0  0  0  0  0  0  0
    2.3998    0.7810   -0.1459 C   0  0  0  0  0  0  0  0  0  0  0  0
    1.1951    1.4322    0.0831 C   0  0  0  0  0  0  0  0  0  0  0  0
    0.0355    0.6863    0.1354 C   0  0  0  0  0  0  0  0  0  0  0  0
    0.0734   -0.6958   -0.0328 C   0  0  0  0  0  0  0  0  0  0  0  0
    1.2712   -1.3436   -0.2548 C   0  0  0  0  0  0  0  0  0  0  0  0
   -1.3058   -1.2763    0.0802 C   0  0  0  0  0  0  0  0  0  0  0  0
   -2.2186   -0.0505   -0.0845 C   0  0  0  0  0  0  0  0  0  0  0  0
   -1.3723    1.1474    0.3752 C   0  0  0  0  0  0  0  0  0  0  0  0
    3.3822   -1.0850   -0.4919 H   0  0  0  0  0  0  0  0  0  0  0  0
    3.3154    1.3522   -0.1952 H   0  0  0  0  0  0  0  0  0  0  0  0
    1.1680    2.5046    0.2129 H   0  0  0  0  0  0  0  0  0  0  0  0
    1.3029   -2.4158   -0.3860 H   0  0  0  0  0  0  0  0  0  0  0  0
   -1.5009   -2.0460   -0.6668 H   0  0  0  0  0  0  0  0  0  0  0  0
   -1.4335   -1.7281    1.0683 H   0  0  0  0  0  0  0  0  0  0  0  0
   -2.4732    0.0708   -1.1387 H   0  0  0  0  0  0  0  0  0  0  0  0
   -3.1455   -0.1446    0.4793 H   0  0  0  0  0  0  0  0  0  0  0  0
   -1.5177    1.3417    1.4419 H   0  0  0  0  0  0  0  0  0  0  0  0
   -1.6135    2.0621   -0.1668 H   0  0  0  0  0  0  0  0  0  0  0  0
  1  2  4  0  0  0  0
  2  3  4  0  0  0  0
  3  4  4  0  0  0  0
  4  5  4  0  0  0  0
  1  6  4  0  0  0  0
  5  6  4  0  0  0  0
  5  7  1  0  0  0  0
  7  8  1  0  0  0  0
  4  9  1  0  0  0  0
  8  9  1  0  0  0  0
  1 10  1  0  0  0  0
  2 11  1  0  0  0  0
  3 12  1  0  0  0  0
  6 13  1  0  0  0  0
  7 14  1  0  0  0  0
  7 15  1  0  0  0  0
  8 16  1  0  0  0  0
  8 17  1  0  0  0  0
  9 18  1  0  0  0  0
  9 19  1  0  0  0  0
M  END
