 xtb: 6.7.1 (edcfbbe)
          07082617293D

 12 12  0     0  0            999 V2000
    2.2872   -1.2308    0.3377 O   0  0  0  0  0  0  0  0  0  0  0  0
    1.2007   -0.7413    0.2542 C   0  0  0  0  0  0  0  0  0  0  0  0
    0.8536    0.6497   -0.2622 C   0  0  0  0  0  0  0  0  0  0  0  0
   -0.6491    0.5648   -0.5012 C   0  0  0  0  0  0  0  0  0  0  0  0
   -1.0648   -0.5530    0.4632 C   0  0  0  0  0  0  0  0  0  0  0  0
    0.0805   -1.3761    0.6297 O   0  0  0  0  0  0  0  0  0  0  0  0
    1.1064    1.3685    0.5199 H   0  0  0  0  0  0  0  0  0  0  0  0
    1.4375    0.8874   -1.1480 H   0  0  0  0  0  0  0  0  0  0  0  0
   -0.8543    0.2699   -1.5307 H   0  0  0  0  0  0  0  0  0  0  0  0
   -1.1737    1.4937   -0.2919 H   0  0  0  0  0  0  0  0  0  0  0  0
   -1.8752   -1.1778    0.0848 H   0  0  0  0  0  0  0  0  0  0  0  0
   -1.3488   -0.1549    1.4444 H   0  0  0  0  0  0  0  0  0  0  0  0
  1  2  2  0  0  0  0
  2  3  1  0  0  0  0
  3  4  1  0  0  0  0
  4  5  1  0  0  0  0
  2  6  1  0  0  0  0
  5  6  1  0  0  0  0
  3  7  1  0  0  0  0
  3  8  1  0  0  0  0
  4  9  1  0  0  0  0
  4 10  1  0  0  0  0
  5 11  1  0  0  0  0
  5 12  1  0  0  0  0
M  END
