 xtb: 6.7.1 (edcfbbe)
          07082619143D

 22 22  0     0  0            999 V2000
    2.3473   -0.2030   -0.4906 C   0  0  0  0  0  0  0  0  0  0  0  0
    0.9409   -0.3433    0.0845 C   0  0  0  0  0  0  0  0  0  0  0  0
    0.0422   -1.1446   -0.8579 C   0  0  0  0  0  0  0  0  0  0  0  0
   -1.3711   -1.2834   -0.3023 C   0  0  0  0  0  0  0  0  0  0  0  0
   -1.9787    0.0938   -0.0598 C   0  0  0  0  0  0  0  0  0  0  0  0
   -1.1005    0.8945    0.8945 C   0  0  0  0  0  0  0  0  0  0  0  0
    0.3239    1.0355    0.3487 C   0  0  0  0  0  0  0  0  0  0  0  0
    1.1554    1.7163    1.2702 O   0  0  0  0  0  0  0  0  0  0  0  0
    2.9607    0.3924    0.1792 H   0  0  0  0  0  0  0  0  0  0  0  0
    2.3133    0.2892   -1.4607 H   0  0  0  0  0  0  0  0  0  0  0  0
    2.8059   -1.1814   -0.6143 H   0  0  0  0  0  0  0  0  0  0  0  0
    1.0079   -0.8590    1.0478 H   0  0  0  0  0  0  0  0  0  0  0  0
    0.0016   -0.6401   -1.8267 H   0  0  0  0  0  0  0  0  0  0  0  0
    0.4788   -2.1328   -1.0154 H   0  0  0  0  0  0  0  0  0  0  0  0
   -1.9919   -1.8467   -1.0021 H   0  0  0  0  0  0  0  0  0  0  0  0
   -1.3397   -1.8364    0.6390 H   0  0  0  0  0  0  0  0  0  0  0  0
   -2.9827   -0.0047    0.3578 H   0  0  0  0  0  0  0  0  0  0  0  0
   -2.0612    0.6268   -1.0102 H   0  0  0  0  0  0  0  0  0  0  0  0
   -1.5295    1.8885    1.0548 H   0  0  0  0  0  0  0  0  0  0  0  0
   -1.0499    0.3902    1.8624 H   0  0  0  0  0  0  0  0  0  0  0  0
    0.2917    1.5973   -0.6013 H   0  0  0  0  0  0  0  0  0  0  0  0
    0.7357    2.5512    1.5026 H   0  0  0  0  0  0  0  0  0  0  0  0
  1  2  1  0  0  0  0
  2  3  1  0  0  0  0
  3  4  1  0  0  0  0
  4  5  1  0  0  0  0
  5  6  1  0  0  0  0
  2  7  1  0  0  0  0
  6  7  1  0  0  0  0
  7  8  1  0  0  0  0
  1  9  1  0  0  0  0
  1 10  1  0  0  0  0
  1 11  1  0  0  0  0
  2 12  1  0  0  0  0
  3 13  1  0  0  0  0
  3 14  1  0  0  0  0
  4 15  1  0  0  0  0
  4 16  1  0  0  0  0
  5 17  1  0  0  0  0
  5 18  1  0  0  0  0
  6 19  1  0  0  0  0
  6 20  1  0  0  0  0
  7 21  1  0  0  0  0
  8 22  1  0  0  0  0
M  END
