 xtb: 6.7.1 (edcfbbe)
          07062614293D

 60 63  0     0  0            999 V2000
    5.1435   -1.1050   -0.1728 C   0  0  0  0  0  0  0  0  0  0  0  0
    3.9022   -1.8527    0.2123 C   0  0  0  0  0  0  0  0  0  0  0  0
    2.9479   -2.0758   -0.9250 C   0  0  0  0  0  0  0  0  0  0  0  0
    3.6286   -2.2879    1.4361 C   0  0  0  0  0  0  0  0  0  0  0  0
    4.4681   -2.1007    2.6644 C   0  0  0  0  0  0  0  0  0  0  0  0
    4.1827   -0.7363    3.3248 C   0  0  0  0  0  0  0  0  0  0  0  0
    2.7305   -0.6273    3.6915 C   0  0  0  0  0  0  0  0  0  0  0  0
    2.3006   -1.3490    4.9361 C   0  0  0  0  0  0  0  0  0  0  0  0
    1.8919    0.0516    2.9172 C   0  0  0  0  0  0  0  0  0  0  0  0
    0.4165    0.1886    3.1191 C   0  0  0  0  0  0  0  0  0  0  0  0
   -0.2359   -0.0395    1.8631 O   0  0  0  0  0  0  0  0  0  0  0  0
   -1.0377    0.9113    1.3872 C   0  0  0  0  0  0  0  0  0  0  0  0
   -1.3335    1.9265    1.9722 O   0  0  0  0  0  0  0  0  0  0  0  0
   -1.4614    0.5708    0.0213 C   0  0  0  0  0  0  0  0  0  0  0  0
   -0.7823   -0.2077   -0.8944 C   0  0  0  0  0  0  0  0  0  0  0  0
   -1.4699   -0.0343   -2.1157 C   0  0  0  0  0  0  0  0  0  0  0  0
   -1.1824   -0.6207   -3.4147 C   0  0  0  0  0  0  0  0  0  0  0  0
   -1.9524   -0.2600   -4.5208 C   0  0  0  0  0  0  0  0  0  0  0  0
   -1.6880   -0.8021   -5.7628 C   0  0  0  0  0  0  0  0  0  0  0  0
   -0.6532   -1.7108   -5.9203 C   0  0  0  0  0  0  0  0  0  0  0  0
    0.1140   -2.0765   -4.8267 C   0  0  0  0  0  0  0  0  0  0  0  0
   -0.1461   -1.5379   -3.5806 C   0  0  0  0  0  0  0  0  0  0  0  0
   -2.4883    0.7987   -1.9386 N   0  0  0  0  0  0  0  0  0  0  0  0
   -2.4908    1.1600   -0.6613 N   0  0  0  0  0  0  0  0  0  0  0  0
   -3.5061    1.9930   -0.1907 C   0  0  0  0  0  0  0  0  0  0  0  0
   -4.0502    1.8266    1.0816 C   0  0  0  0  0  0  0  0  0  0  0  0
   -5.0615    2.6624    1.5044 C   0  0  0  0  0  0  0  0  0  0  0  0
   -5.5398    3.6494    0.6494 C   0  0  0  0  0  0  0  0  0  0  0  0
   -6.5986    4.5177    1.0930 N   0  0  0  0  0  0  0  0  0  0  0  0
   -6.9902    5.3680    0.3214 O   0  0  0  0  0  0  0  0  0  0  0  0
   -7.0385    4.3458    2.2102 O   0  0  0  0  0  0  0  0  0  0  0  0
   -5.0223    3.8010   -0.6330 C   0  0  0  0  0  0  0  0  0  0  0  0
   -4.0069    2.9700   -1.0520 C   0  0  0  0  0  0  0  0  0  0  0  0
    4.8961   -0.0668   -0.3966 H   0  0  0  0  0  0  0  0  0  0  0  0
    5.8899   -1.1144    0.6149 H   0  0  0  0  0  0  0  0  0  0  0  0
    5.5783   -1.5396   -1.0723 H   0  0  0  0  0  0  0  0  0  0  0  0
    2.0420   -2.5710   -0.5829 H   0  0  0  0  0  0  0  0  0  0  0  0
    3.4115   -2.6943   -1.6939 H   0  0  0  0  0  0  0  0  0  0  0  0
    2.6846   -1.1228   -1.3853 H   0  0  0  0  0  0  0  0  0  0  0  0
    2.6884   -2.7969    1.6026 H   0  0  0  0  0  0  0  0  0  0  0  0
    5.5314   -2.1570    2.4248 H   0  0  0  0  0  0  0  0  0  0  0  0
    4.2436   -2.8977    3.3754 H   0  0  0  0  0  0  0  0  0  0  0  0
    4.8036   -0.6331    4.2175 H   0  0  0  0  0  0  0  0  0  0  0  0
    4.4502    0.0540    2.6228 H   0  0  0  0  0  0  0  0  0  0  0  0
    3.1274   -1.9137    5.3579 H   0  0  0  0  0  0  0  0  0  0  0  0
    1.4847   -2.0393    4.7267 H   0  0  0  0  0  0  0  0  0  0  0  0
    1.9540   -0.6402    5.6871 H   0  0  0  0  0  0  0  0  0  0  0  0
    2.2611    0.5506    2.0320 H   0  0  0  0  0  0  0  0  0  0  0  0
    0.1515    1.1955    3.4676 H   0  0  0  0  0  0  0  0  0  0  0  0
    0.0292   -0.5496    3.8257 H   0  0  0  0  0  0  0  0  0  0  0  0
    0.0920   -0.7901   -0.6940 H   0  0  0  0  0  0  0  0  0  0  0  0
   -2.7549    0.4472   -4.3820 H   0  0  0  0  0  0  0  0  0  0  0  0
   -2.2893   -0.5167   -6.6134 H   0  0  0  0  0  0  0  0  0  0  0  0
   -0.4461   -2.1336   -6.8922 H   0  0  0  0  0  0  0  0  0  0  0  0
    0.9197   -2.7863   -4.9457 H   0  0  0  0  0  0  0  0  0  0  0  0
    0.4560   -1.8341   -2.7358 H   0  0  0  0  0  0  0  0  0  0  0  0
   -3.6909    1.0457    1.7309 H   0  0  0  0  0  0  0  0  0  0  0  0
   -5.4975    2.5598    2.4861 H   0  0  0  0  0  0  0  0  0  0  0  0
   -5.4217    4.5703   -1.2758 H   0  0  0  0  0  0  0  0  0  0  0  0
   -3.5855    3.0571   -2.0404 H   0  0  0  0  0  0  0  0  0  0  0  0
  1  2  1  0  0  0  0
  2  3  1  0  0  0  0
  2  4  2  0  0  0  0
  4  5  1  0  0  0  0
  5  6  1  0  0  0  0
  6  7  1  0  0  0  0
  7  8  1  0  0  0  0
  7  9  2  0  0  0  0
  9 10  1  0  0  0  0
 10 11  1  0  0  0  0
 11 12  1  0  0  0  0
 12 13  2  0  0  0  0
 12 14  1  0  0  0  0
 14 15  4  0  0  0  0
 15 16  4  0  0  0  0
 16 17  1  0  0  0  0
 17 18  4  0  0  0  0
 18 19  4  0  0  0  0
 19 20  4  0  0  0  0
 20 21  4  0  0  0  0
 17 22  4  0  0  0  0
 21 22  4  0  0  0  0
 16 23  4  0  0  0  0
 14 24  1  0  0  0  0
 23 24  4  0  0  0  0
 24 25  1  0  0  0  0
 25 26  4  0  0  0  0
 26 27  4  0  0  0  0
 27 28  4  0  0  0  0
 28 29  1  0  0  0  0
 29 30  4  0  0  0  0
 29 31  4  0  0  0  0
 30 31  1  0  0  0  0
 28 32  4  0  0  0  0
 25 33  4  0  0  0  0
 32 33  4  0  0  0  0
  1 34  1  0  0  0  0
  1 35  1  0  0  0  0
  1 36  1  0  0  0  0
  3 37  1  0  0  0  0
  3 38  1  0  0  0  0
  3 39  1  0  0  0  0
  4 40  1  0  0  0  0
  5 41  1  0  0  0  0
  5 42  1  0  0  0  0
  6 43  1  0  0  0  0
  6 44  1  0  0  0  0
  8 45  1  0  0  0  0
  8 46  1  0  0  0  0
  8 47  1  0  0  0  0
  9 48  1  0  0  0  0
 10 49  1  0  0  0  0
 10 50  1  0  0  0  0
 15 51  1  0  0  0  0
 18 52  1  0  0  0  0
 19 53  1  0  0  0  0
 20 54  1  0  0  0  0
 21 55  1  0  0  0  0
 22 56  1  0  0  0  0
 26 57  1  0  0  0  0
 27 58  1  0  0  0  0
 32 59  1  0  0  0  0
 33 60  1  0  0  0  0
M  END
