 xtb: 6.7.1 (edcfbbe)
          07152615153D

 60 63  0     0  0            999 V2000
    5.1530   -1.1268   -0.1727 C   0  0  0  0  0  0  0  0  0  0  0  0
    3.9076   -1.8626    0.2218 C   0  0  0  0  0  0  0  0  0  0  0  0
    2.9464   -2.0839   -0.9101 C   0  0  0  0  0  0  0  0  0  0  0  0
    3.6353   -2.2884    1.4492 C   0  0  0  0  0  0  0  0  0  0  0  0
    4.4800   -2.1001    2.6737 C   0  0  0  0  0  0  0  0  0  0  0  0
    4.2030   -0.7312    3.3285 C   0  0  0  0  0  0  0  0  0  0  0  0
    2.7498   -0.6071    3.6860 C   0  0  0  0  0  0  0  0  0  0  0  0
    2.3032   -1.3273    4.9257 C   0  0  0  0  0  0  0  0  0  0  0  0
    1.9237    0.0824    2.9075 C   0  0  0  0  0  0  0  0  0  0  0  0
    0.4489    0.2349    3.1009 C   0  0  0  0  0  0  0  0  0  0  0  0
   -0.1995   -0.0028    1.8444 O   0  0  0  0  0  0  0  0  0  0  0  0
   -1.0241    0.9313    1.3746 C   0  0  0  0  0  0  0  0  0  0  0  0
   -1.3361    1.9400    1.9625 O   0  0  0  0  0  0  0  0  0  0  0  0
   -1.4516    0.5826    0.0121 C   0  0  0  0  0  0  0  0  0  0  0  0
   -0.7708   -0.1899   -0.9076 C   0  0  0  0  0  0  0  0  0  0  0  0
   -1.4725   -0.0299   -2.1227 C   0  0  0  0  0  0  0  0  0  0  0  0
   -1.1910   -0.6169   -3.4228 C   0  0  0  0  0  0  0  0  0  0  0  0
   -1.9839   -0.2768   -4.5193 C   0  0  0  0  0  0  0  0  0  0  0  0
   -1.7267   -0.8193   -5.7626 C   0  0  0  0  0  0  0  0  0  0  0  0
   -0.6763   -1.7078   -5.9310 C   0  0  0  0  0  0  0  0  0  0  0  0
    0.1137   -2.0531   -4.8471 C   0  0  0  0  0  0  0  0  0  0  0  0
   -0.1392   -1.5141   -3.5996 C   0  0  0  0  0  0  0  0  0  0  0  0
   -2.5002    0.7901   -1.9385 N   0  0  0  0  0  0  0  0  0  0  0  0
   -2.4953    1.1555   -0.6626 N   0  0  0  0  0  0  0  0  0  0  0  0
   -3.5155    1.9792   -0.1859 C   0  0  0  0  0  0  0  0  0  0  0  0
   -4.0520    1.8064    1.0888 C   0  0  0  0  0  0  0  0  0  0  0  0
   -5.0681    2.6333    1.5176 C   0  0  0  0  0  0  0  0  0  0  0  0
   -5.5587    3.6174    0.6662 C   0  0  0  0  0  0  0  0  0  0  0  0
   -6.6227    4.4762    1.1160 N   0  0  0  0  0  0  0  0  0  0  0  0
   -7.0286    5.3207    0.3455 O   0  0  0  0  0  0  0  0  0  0  0  0
   -7.0512    4.3035    2.2375 O   0  0  0  0  0  0  0  0  0  0  0  0
   -5.0488    3.7750   -0.6184 C   0  0  0  0  0  0  0  0  0  0  0  0
   -4.0287    2.9530   -1.0435 C   0  0  0  0  0  0  0  0  0  0  0  0
    4.9146   -0.0851   -0.3903 H   0  0  0  0  0  0  0  0  0  0  0  0
    5.9068   -1.1470    0.6077 H   0  0  0  0  0  0  0  0  0  0  0  0
    5.5743   -1.5627   -1.0778 H   0  0  0  0  0  0  0  0  0  0  0  0
    2.0350   -2.5633   -0.5603 H   0  0  0  0  0  0  0  0  0  0  0  0
    3.3990   -2.7158   -1.6746 H   0  0  0  0  0  0  0  0  0  0  0  0
    2.6947   -1.1317   -1.3783 H   0  0  0  0  0  0  0  0  0  0  0  0
    2.6917   -2.7887    1.6221 H   0  0  0  0  0  0  0  0  0  0  0  0
    5.5422   -2.1621    2.4311 H   0  0  0  0  0  0  0  0  0  0  0  0
    4.2540   -2.8927    3.3890 H   0  0  0  0  0  0  0  0  0  0  0  0
    4.8196   -0.6310    4.2245 H   0  0  0  0  0  0  0  0  0  0  0  0
    4.4820    0.0546    2.6259 H   0  0  0  0  0  0  0  0  0  0  0  0
    3.1254   -1.8879    5.3617 H   0  0  0  0  0  0  0  0  0  0  0  0
    1.4939   -2.0215    4.7044 H   0  0  0  0  0  0  0  0  0  0  0  0
    1.9417   -0.6187    5.6697 H   0  0  0  0  0  0  0  0  0  0  0  0
    2.3037    0.5785    2.0254 H   0  0  0  0  0  0  0  0  0  0  0  0
    0.1911    1.2484    3.4352 H   0  0  0  0  0  0  0  0  0  0  0  0
    0.0521   -0.4902    3.8157 H   0  0  0  0  0  0  0  0  0  0  0  0
    0.1128   -0.7601   -0.7136 H   0  0  0  0  0  0  0  0  0  0  0  0
   -2.7984    0.4148   -4.3718 H   0  0  0  0  0  0  0  0  0  0  0  0
   -2.3458   -0.5499   -6.6056 H   0  0  0  0  0  0  0  0  0  0  0  0
   -0.4745   -2.1307   -6.9041 H   0  0  0  0  0  0  0  0  0  0  0  0
    0.9318   -2.7470   -4.9747 H   0  0  0  0  0  0  0  0  0  0  0  0
    0.4809   -1.7943   -2.7622 H   0  0  0  0  0  0  0  0  0  0  0  0
   -3.6829    1.0277    1.7351 H   0  0  0  0  0  0  0  0  0  0  0  0
   -5.4984    2.5259    2.5013 H   0  0  0  0  0  0  0  0  0  0  0  0
   -5.4577    4.5418   -1.2582 H   0  0  0  0  0  0  0  0  0  0  0  0
   -3.6127    3.0449   -2.0338 H   0  0  0  0  0  0  0  0  0  0  0  0
  1  2  1  0  0  0  0
  2  3  1  0  0  0  0
  2  4  2  0  0  0  0
  4  5  1  0  0  0  0
  5  6  1  0  0  0  0
  6  7  1  0  0  0  0
  7  8  1  0  0  0  0
  7  9  2  0  0  0  0
  9 10  1  0  0  0  0
 10 11  1  0  0  0  0
 11 12  1  0  0  0  0
 12 13  2  0  0  0  0
 12 14  1  0  0  0  0
 14 15  4  0  0  0  0
 15 16  4  0  0  0  0
 16 17  1  0  0  0  0
 17 18  4  0  0  0  0
 18 19  4  0  0  0  0
 19 20  4  0  0  0  0
 20 21  4  0  0  0  0
 17 22  4  0  0  0  0
 21 22  4  0  0  0  0
 16 23  4  0  0  0  0
 14 24  1  0  0  0  0
 23 24  4  0  0  0  0
 24 25  1  0  0  0  0
 25 26  4  0  0  0  0
 26 27  4  0  0  0  0
 27 28  4  0  0  0  0
 28 29  1  0  0  0  0
 29 30  4  0  0  0  0
 29 31  4  0  0  0  0
 30 31  1  0  0  0  0
 28 32  4  0  0  0  0
 25 33  4  0  0  0  0
 32 33  4  0  0  0  0
  1 34  1  0  0  0  0
  1 35  1  0  0  0  0
  1 36  1  0  0  0  0
  3 37  1  0  0  0  0
  3 38  1  0  0  0  0
  3 39  1  0  0  0  0
  4 40  1  0  0  0  0
  5 41  1  0  0  0  0
  5 42  1  0  0  0  0
  6 43  1  0  0  0  0
  6 44  1  0  0  0  0
  8 45  1  0  0  0  0
  8 46  1  0  0  0  0
  8 47  1  0  0  0  0
  9 48  1  0  0  0  0
 10 49  1  0  0  0  0
 10 50  1  0  0  0  0
 15 51  1  0  0  0  0
 18 52  1  0  0  0  0
 19 53  1  0  0  0  0
 20 54  1  0  0  0  0
 21 55  1  0  0  0  0
 22 56  1  0  0  0  0
 26 57  1  0  0  0  0
 27 58  1  0  0  0  0
 32 59  1  0  0  0  0
 33 60  1  0  0  0  0
M  END
