 xtb: 6.7.1 (edcfbbe)
          07072613173D

 35 35  0     0  0            999 V2000
    5.4873    0.6702   -1.7517 C   0  0  0  0  0  0  0  0  0  0  0  0
    5.4847   -0.3702   -0.6375 C   0  0  0  0  0  0  0  0  0  0  0  0
    4.3139   -0.2099    0.3314 C   0  0  0  0  0  0  0  0  0  0  0  0
    2.9686   -0.4827   -0.3253 C   0  0  0  0  0  0  0  0  0  0  0  0
    1.9653   -0.4977    0.6960 O   0  0  0  0  0  0  0  0  0  0  0  0
    0.7188   -0.7507    0.3006 C   0  0  0  0  0  0  0  0  0  0  0  0
    0.3975   -0.9433   -0.8443 O   0  0  0  0  0  0  0  0  0  0  0  0
   -0.2474   -0.7925    1.4804 C   0  0  0  0  0  0  0  0  0  0  0  0
   -1.6373   -0.7256    1.0956 N   0  0  0  0  0  0  0  0  0  0  0  0
   -2.0482    0.5988    0.6337 C   0  0  0  0  0  0  0  0  0  0  0  0
   -3.4668    0.5296    0.1412 C   0  0  0  0  0  0  0  0  0  0  0  0
   -4.5299    0.6292    1.0286 C   0  0  0  0  0  0  0  0  0  0  0  0
   -5.8334    0.5305    0.5756 C   0  0  0  0  0  0  0  0  0  0  0  0
   -6.0879    0.3275   -0.7702 C   0  0  0  0  0  0  0  0  0  0  0  0
   -5.0332    0.2197   -1.6603 C   0  0  0  0  0  0  0  0  0  0  0  0
   -3.7300    0.3181   -1.2057 C   0  0  0  0  0  0  0  0  0  0  0  0
    6.3866    0.5710   -2.3549 H   0  0  0  0  0  0  0  0  0  0  0  0
    5.4646    1.6746   -1.3350 H   0  0  0  0  0  0  0  0  0  0  0  0
    4.6276    0.5465   -2.4045 H   0  0  0  0  0  0  0  0  0  0  0  0
    5.4572   -1.3706   -1.0746 H   0  0  0  0  0  0  0  0  0  0  0  0
    6.4127   -0.2829   -0.0689 H   0  0  0  0  0  0  0  0  0  0  0  0
    4.3097    0.7998    0.7455 H   0  0  0  0  0  0  0  0  0  0  0  0
    4.4306   -0.9097    1.1611 H   0  0  0  0  0  0  0  0  0  0  0  0
    2.7076    0.2872   -1.0582 H   0  0  0  0  0  0  0  0  0  0  0  0
    2.9672   -1.4534   -0.8344 H   0  0  0  0  0  0  0  0  0  0  0  0
   -0.0752   -1.7379    2.0070 H   0  0  0  0  0  0  0  0  0  0  0  0
   -0.0115    0.0235    2.1674 H   0  0  0  0  0  0  0  0  0  0  0  0
   -1.8032   -1.3952    0.3473 H   0  0  0  0  0  0  0  0  0  0  0  0
   -1.9758    1.2784    1.4896 H   0  0  0  0  0  0  0  0  0  0  0  0
   -1.3972    0.9793   -0.1695 H   0  0  0  0  0  0  0  0  0  0  0  0
   -4.3307    0.7829    2.0788 H   0  0  0  0  0  0  0  0  0  0  0  0
   -6.6538    0.6120    1.2739 H   0  0  0  0  0  0  0  0  0  0  0  0
   -7.1057    0.2529   -1.1244 H   0  0  0  0  0  0  0  0  0  0  0  0
   -5.2260    0.0590   -2.7111 H   0  0  0  0  0  0  0  0  0  0  0  0
   -2.9070    0.2316   -1.9012 H   0  0  0  0  0  0  0  0  0  0  0  0
  1  2  1  0  0  0  0
  2  3  1  0  0  0  0
  3  4  1  0  0  0  0
  4  5  1  0  0  0  0
  5  6  1  0  0  0  0
  6  7  2  0  0  0  0
  6  8  1  0  0  0  0
  8  9  1  0  0  0  0
  9 10  1  0  0  0  0
 10 11  1  0  0  0  0
 11 12  4  0  0  0  0
 12 13  4  0  0  0  0
 13 14  4  0  0  0  0
 14 15  4  0  0  0  0
 11 16  4  0  0  0  0
 15 16  4  0  0  0  0
  1 17  1  0  0  0  0
  1 18  1  0  0  0  0
  1 19  1  0  0  0  0
  2 20  1  0  0  0  0
  2 21  1  0  0  0  0
  3 22  1  0  0  0  0
  3 23  1  0  0  0  0
  4 24  1  0  0  0  0
  4 25  1  0  0  0  0
  8 26  1  0  0  0  0
  8 27  1  0  0  0  0
  9 28  1  0  0  0  0
 10 29  1  0  0  0  0
 10 30  1  0  0  0  0
 12 31  1  0  0  0  0
 13 32  1  0  0  0  0
 14 33  1  0  0  0  0
 15 34  1  0  0  0  0
 16 35  1  0  0  0  0
M  END
