 xtb: 6.7.1 (edcfbbe)
          07082620183D

 16 15  0     0  0            999 V2000
    3.2074    1.3357   -0.6078 N   0  0  0  0  0  0  0  0  0  0  0  0
    2.5878    0.3866   -0.4599 C   0  0  0  0  0  0  0  0  0  0  0  0
    1.7800   -0.7939   -0.2859 C   0  0  0  0  0  0  0  0  0  0  0  0
    0.3307   -0.5352   -0.7173 C   0  0  0  0  0  0  0  0  0  0  0  0
   -0.3307    0.5352    0.1490 C   0  0  0  0  0  0  0  0  0  0  0  0
   -1.7800    0.7939   -0.2824 C   0  0  0  0  0  0  0  0  0  0  0  0
   -2.5878   -0.3866   -0.1087 C   0  0  0  0  0  0  0  0  0  0  0  0
   -3.2073   -1.3357    0.0398 N   0  0  0  0  0  0  0  0  0  0  0  0
    2.2150   -1.5990   -0.8845 H   0  0  0  0  0  0  0  0  0  0  0  0
    1.8164   -1.0877    0.7671 H   0  0  0  0  0  0  0  0  0  0  0  0
    0.3185   -0.2192   -1.7638 H   0  0  0  0  0  0  0  0  0  0  0  0
   -0.2318   -1.4686   -0.6398 H   0  0  0  0  0  0  0  0  0  0  0  0
   -0.3185    0.2192    1.1954 H   0  0  0  0  0  0  0  0  0  0  0  0
    0.2318    1.4685    0.0715 H   0  0  0  0  0  0  0  0  0  0  0  0
   -2.2150    1.5989    0.3162 H   0  0  0  0  0  0  0  0  0  0  0  0
   -1.8163    1.0878   -1.3355 H   0  0  0  0  0  0  0  0  0  0  0  0
  1  2  3  0  0  0  0
  2  3  1  0  0  0  0
  3  4  1  0  0  0  0
  4  5  1  0  0  0  0
  5  6  1  0  0  0  0
  6  7  1  0  0  0  0
  7  8  3  0  0  0  0
  3  9  1  0  0  0  0
  3 10  1  0  0  0  0
  4 11  1  0  0  0  0
  4 12  1  0  0  0  0
  5 13  1  0  0  0  0
  5 14  1  0  0  0  0
  6 15  1  0  0  0  0
  6 16  1  0  0  0  0
M  END
