 xtb: 6.7.1 (edcfbbe)
          07072615503D

 25 25  0     0  0            999 V2000
   -2.4158   -2.2830    0.2147 C   0  0  0  0  0  0  0  0  0  0  0  0
   -2.2232   -0.7752    0.1711 C   0  0  0  0  0  0  0  0  0  0  0  0
   -0.8330   -0.5334    0.0735 O   0  0  0  0  0  0  0  0  0  0  0  0
   -0.3701    0.7305    0.0282 C   0  0  0  0  0  0  0  0  0  0  0  0
   -1.1900    1.8594    0.0521 C   0  0  0  0  0  0  0  0  0  0  0  0
   -0.6509    3.1320    0.0158 C   0  0  0  0  0  0  0  0  0  0  0  0
    0.7204    3.3169   -0.0379 C   0  0  0  0  0  0  0  0  0  0  0  0
    1.5440    2.2106   -0.0595 C   0  0  0  0  0  0  0  0  0  0  0  0
    1.0253    0.9181   -0.0337 C   0  0  0  0  0  0  0  0  0  0  0  0
    2.0138   -0.1853   -0.0638 C   0  0  0  0  0  0  0  0  0  0  0  0
    3.2050   -0.0112    0.0577 O   0  0  0  0  0  0  0  0  0  0  0  0
    1.4787   -1.3961   -0.2539 O   0  0  0  0  0  0  0  0  0  0  0  0
    2.3963   -2.4755   -0.2912 C   0  0  0  0  0  0  0  0  0  0  0  0
   -1.8824   -2.6978    1.0652 H   0  0  0  0  0  0  0  0  0  0  0  0
   -3.4722   -2.5206    0.3022 H   0  0  0  0  0  0  0  0  0  0  0  0
   -2.0200   -2.7310   -0.6922 H   0  0  0  0  0  0  0  0  0  0  0  0
   -2.7450   -0.3516   -0.6982 H   0  0  0  0  0  0  0  0  0  0  0  0
   -2.6254   -0.3141    1.0841 H   0  0  0  0  0  0  0  0  0  0  0  0
   -2.2620    1.7498    0.0983 H   0  0  0  0  0  0  0  0  0  0  0  0
   -1.3135    3.9848    0.0324 H   0  0  0  0  0  0  0  0  0  0  0  0
    1.1384    4.3110   -0.0624 H   0  0  0  0  0  0  0  0  0  0  0  0
    2.6179    2.3143   -0.0981 H   0  0  0  0  0  0  0  0  0  0  0  0
    3.1343   -2.3223   -1.0820 H   0  0  0  0  0  0  0  0  0  0  0  0
    1.8071   -3.3682   -0.4844 H   0  0  0  0  0  0  0  0  0  0  0  0
    2.9223   -2.5620    0.6622 H   0  0  0  0  0  0  0  0  0  0  0  0
  1  2  1  0  0  0  0
  2  3  1  0  0  0  0
  3  4  1  0  0  0  0
  4  5  4  0  0  0  0
  5  6  4  0  0  0  0
  6  7  4  0  0  0  0
  7  8  4  0  0  0  0
  4  9  4  0  0  0  0
  8  9  4  0  0  0  0
  9 10  1  0  0  0  0
 10 11  2  0  0  0  0
 10 12  1  0  0  0  0
 12 13  1  0  0  0  0
  1 14  1  0  0  0  0
  1 15  1  0  0  0  0
  1 16  1  0  0  0  0
  2 17  1  0  0  0  0
  2 18  1  0  0  0  0
  5 19  1  0  0  0  0
  6 20  1  0  0  0  0
  7 21  1  0  0  0  0
  8 22  1  0  0  0  0
 13 23  1  0  0  0  0
 13 24  1  0  0  0  0
 13 25  1  0  0  0  0
M  END
