 xtb: 6.7.1 (edcfbbe)
          07082621533D

 18 17  0     0  0            999 V2000
    2.1599   -1.7542   -0.3359 C   0  0  0  0  0  0  0  0  0  0  0  0
    0.7454   -1.3007   -0.1037 C   0  0  0  0  0  0  0  0  0  0  0  0
   -0.2367   -1.9776   -0.2994 O   0  0  0  0  0  0  0  0  0  0  0  0
    0.7114   -0.0524    0.3483 O   0  0  0  0  0  0  0  0  0  0  0  0
   -0.5565    0.5262    0.7021 C   0  0  0  0  0  0  0  0  0  0  0  0
   -0.2952    1.6239    1.7177 C   0  0  0  0  0  0  0  0  0  0  0  0
   -1.2415    1.0943   -0.5639 C   0  0  0  0  0  0  0  0  0  0  0  0
   -1.7730    0.1406   -1.3493 N   0  0  0  0  0  0  0  0  0  0  0  0
   -1.3004    2.2767   -0.8031 O   0  0  0  0  0  0  0  0  0  0  0  0
    2.1599   -2.7674   -0.7255 H   0  0  0  0  0  0  0  0  0  0  0  0
    2.6420   -1.0809   -1.0402 H   0  0  0  0  0  0  0  0  0  0  0  0
    2.7116   -1.7147    0.6001 H   0  0  0  0  0  0  0  0  0  0  0  0
   -1.1926   -0.2667    1.1178 H   0  0  0  0  0  0  0  0  0  0  0  0
    0.2601    1.2294    2.5644 H   0  0  0  0  0  0  0  0  0  0  0  0
   -1.2418    2.0314    2.0599 H   0  0  0  0  0  0  0  0  0  0  0  0
    0.2765    2.4193    1.2477 H   0  0  0  0  0  0  0  0  0  0  0  0
   -1.6307   -0.8402   -1.1509 H   0  0  0  0  0  0  0  0  0  0  0  0
   -2.1983    0.4130   -2.2208 H   0  0  0  0  0  0  0  0  0  0  0  0
  1  2  1  0  0  0  0
  2  3  2  0  0  0  0
  2  4  1  0  0  0  0
  4  5  1  0  0  0  0
  5  6  1  0  0  0  0
  5  7  1  0  0  0  0
  7  8  4  0  0  0  0
  7  9  2  0  0  0  0
  1 10  1  0  0  0  0
  1 11  1  0  0  0  0
  1 12  1  0  0  0  0
  5 13  1  0  0  0  0
  6 14  1  0  0  0  0
  6 15  1  0  0  0  0
  6 16  1  0  0  0  0
  8 17  1  0  0  0  0
  8 18  1  0  0  0  0
M  END
