 xtb: 6.7.1 (edcfbbe)
          07092618403D

 25 25  0     0  0            999 V2000
    2.7003    0.2139    1.6985 C   0  0  0  0  0  0  0  0  0  0  0  0
    2.7046    0.1029    0.1789 C   0  0  0  0  0  0  0  0  0  0  0  0
    1.3573   -0.3844   -0.3617 C   0  0  0  0  0  0  0  0  0  0  0  0
    1.4261   -0.6529   -1.8653 C   0  0  0  0  0  0  0  0  0  0  0  0
    0.4181    0.6462   -0.0776 O   0  0  0  0  0  0  0  0  0  0  0  0
   -0.9060    0.3828   -0.0211 C   0  0  0  0  0  0  0  0  0  0  0  0
   -1.7184    1.4820    0.2795 C   0  0  0  0  0  0  0  0  0  0  0  0
   -3.0851    1.3476    0.3819 C   0  0  0  0  0  0  0  0  0  0  0  0
   -3.6589    0.1016    0.1840 C   0  0  0  0  0  0  0  0  0  0  0  0
   -5.5499   -0.0972    0.3243 Br  0  0  0  0  0  0  0  0  0  0  0  0
   -2.8778   -0.9974   -0.1151 C   0  0  0  0  0  0  0  0  0  0  0  0
   -1.5043   -0.8597   -0.2202 C   0  0  0  0  0  0  0  0  0  0  0  0
    3.6535    0.5976    2.0528 H   0  0  0  0  0  0  0  0  0  0  0  0
    1.9127    0.8900    2.0210 H   0  0  0  0  0  0  0  0  0  0  0  0
    2.5295   -0.7594    2.1544 H   0  0  0  0  0  0  0  0  0  0  0  0
    3.4810   -0.5926   -0.1429 H   0  0  0  0  0  0  0  0  0  0  0  0
    2.9134    1.0799   -0.2591 H   0  0  0  0  0  0  0  0  0  0  0  0
    1.0728   -1.3015    0.1735 H   0  0  0  0  0  0  0  0  0  0  0  0
    0.4464   -0.9170   -2.2568 H   0  0  0  0  0  0  0  0  0  0  0  0
    1.7706    0.2404   -2.3805 H   0  0  0  0  0  0  0  0  0  0  0  0
    2.1166   -1.4669   -2.0679 H   0  0  0  0  0  0  0  0  0  0  0  0
   -1.2461    2.4395    0.4311 H   0  0  0  0  0  0  0  0  0  0  0  0
   -3.7026    2.2013    0.6149 H   0  0  0  0  0  0  0  0  0  0  0  0
   -3.3345   -1.9630   -0.2694 H   0  0  0  0  0  0  0  0  0  0  0  0
   -0.9191   -1.7338   -0.4571 H   0  0  0  0  0  0  0  0  0  0  0  0
  1  2  1  0  0  0  0
  2  3  1  0  0  0  0
  3  4  1  0  0  0  0
  3  5  1  0  0  0  0
  5  6  1  0  0  0  0
  6  7  4  0  0  0  0
  7  8  4  0  0  0  0
  8  9  4  0  0  0  0
  9 10  1  0  0  0  0
  9 11  4  0  0  0  0
  6 12  4  0  0  0  0
 11 12  4  0  0  0  0
  1 13  1  0  0  0  0
  1 14  1  0  0  0  0
  1 15  1  0  0  0  0
  2 16  1  0  0  0  0
  2 17  1  0  0  0  0
  3 18  1  0  0  0  0
  4 19  1  0  0  0  0
  4 20  1  0  0  0  0
  4 21  1  0  0  0  0
  7 22  1  0  0  0  0
  8 23  1  0  0  0  0
 11 24  1  0  0  0  0
 12 25  1  0  0  0  0
M  END
