 xtb: 6.7.1 (edcfbbe)
          07082619563D

 22 21  0     0  0            999 V2000
   -3.6307   -0.1670   -0.2292 C   0  0  0  0  0  0  0  0  0  0  0  0
   -2.3493    0.1449    0.5340 C   0  0  0  0  0  0  0  0  0  0  0  0
   -1.1057   -0.1348   -0.3065 C   0  0  0  0  0  0  0  0  0  0  0  0
    0.1830    0.1752    0.4511 C   0  0  0  0  0  0  0  0  0  0  0  0
    1.4213   -0.1065   -0.3945 C   0  0  0  0  0  0  0  0  0  0  0  0
    2.7113    0.2021    0.3592 C   0  0  0  0  0  0  0  0  0  0  0  0
    3.9432   -0.0672   -0.4523 C   0  0  0  0  0  0  0  0  0  0  0  0
    3.9691   -0.4806   -1.5762 O   0  0  0  0  0  0  0  0  0  0  0  0
   -3.6552   -1.2148   -0.5207 H   0  0  0  0  0  0  0  0  0  0  0  0
   -4.5035    0.0387    0.3862 H   0  0  0  0  0  0  0  0  0  0  0  0
   -3.6950    0.4394   -1.1300 H   0  0  0  0  0  0  0  0  0  0  0  0
   -2.3529    1.1953    0.8346 H   0  0  0  0  0  0  0  0  0  0  0  0
   -2.3131   -0.4587    1.4439 H   0  0  0  0  0  0  0  0  0  0  0  0
   -1.1427    0.4684   -1.2165 H   0  0  0  0  0  0  0  0  0  0  0  0
   -1.1030   -1.1849   -0.6075 H   0  0  0  0  0  0  0  0  0  0  0  0
    0.1796    1.2260    0.7522 H   0  0  0  0  0  0  0  0  0  0  0  0
    0.2193   -0.4284    1.3617 H   0  0  0  0  0  0  0  0  0  0  0  0
    1.4307   -1.1552   -0.6975 H   0  0  0  0  0  0  0  0  0  0  0  0
    1.3911    0.4945   -1.3052 H   0  0  0  0  0  0  0  0  0  0  0  0
    2.7794   -0.3950    1.2735 H   0  0  0  0  0  0  0  0  0  0  0  0
    2.7399    1.2517    0.6669 H   0  0  0  0  0  0  0  0  0  0  0  0
    4.8831    0.1570    0.0948 H   0  0  0  0  0  0  0  0  0  0  0  0
  1  2  1  0  0  0  0
  2  3  1  0  0  0  0
  3  4  1  0  0  0  0
  4  5  1  0  0  0  0
  5  6  1  0  0  0  0
  6  7  1  0  0  0  0
  7  8  2  0  0  0  0
  1  9  1  0  0  0  0
  1 10  1  0  0  0  0
  1 11  1  0  0  0  0
  2 12  1  0  0  0  0
  2 13  1  0  0  0  0
  3 14  1  0  0  0  0
  3 15  1  0  0  0  0
  4 16  1  0  0  0  0
  4 17  1  0  0  0  0
  5 18  1  0  0  0  0
  5 19  1  0  0  0  0
  6 20  1  0  0  0  0
  6 21  1  0  0  0  0
  7 22  1  0  0  0  0
M  END
