 xtb: 6.7.1 (edcfbbe)
          07072609043D

 28 28  0     0  0            999 V2000
   -3.7740   -0.2476    0.3213 C   0  0  0  0  0  0  0  0  0  0  0  0
   -2.3517    0.1103   -0.1000 C   0  0  0  0  0  0  0  0  0  0  0  0
   -1.5570   -1.1469   -0.4571 C   0  0  0  0  0  0  0  0  0  0  0  0
   -0.1333   -0.7965   -0.8783 C   0  0  0  0  0  0  0  0  0  0  0  0
    0.5686   -0.0347    0.2405 C   0  0  0  0  0  0  0  0  0  0  0  0
    1.8851    0.3246   -0.2175 O   0  0  0  0  0  0  0  0  0  0  0  0
    2.9186    0.0736    0.5688 C   0  0  0  0  0  0  0  0  0  0  0  0
    2.8753   -0.4000    1.6701 O   0  0  0  0  0  0  0  0  0  0  0  0
    4.2202    0.4648   -0.1375 C   0  0  0  0  0  0  0  0  0  0  0  0
    4.4727   -0.4855   -1.1897 C   0  0  0  0  0  0  0  0  0  0  0  0
    4.6575   -1.2482   -2.0195 N   0  0  0  0  0  0  0  0  0  0  0  0
   -0.2055    1.2301    0.6017 C   0  0  0  0  0  0  0  0  0  0  0  0
   -1.6296    0.8703    1.0137 C   0  0  0  0  0  0  0  0  0  0  0  0
   -3.7602   -0.8853    1.2024 H   0  0  0  0  0  0  0  0  0  0  0  0
   -4.2871   -0.7779   -0.4774 H   0  0  0  0  0  0  0  0  0  0  0  0
   -4.3409    0.6500    0.5568 H   0  0  0  0  0  0  0  0  0  0  0  0
   -2.4005    0.7538   -0.9855 H   0  0  0  0  0  0  0  0  0  0  0  0
   -1.5258   -1.8105    0.4100 H   0  0  0  0  0  0  0  0  0  0  0  0
   -2.0531   -1.6810   -1.2691 H   0  0  0  0  0  0  0  0  0  0  0  0
   -0.1486   -0.1683   -1.7710 H   0  0  0  0  0  0  0  0  0  0  0  0
    0.4301   -1.7014   -1.1132 H   0  0  0  0  0  0  0  0  0  0  0  0
    0.6793   -0.6712    1.1268 H   0  0  0  0  0  0  0  0  0  0  0  0
    4.1142    1.4593   -0.5753 H   0  0  0  0  0  0  0  0  0  0  0  0
    5.0415    0.4456    0.5813 H   0  0  0  0  0  0  0  0  0  0  0  0
    0.3041    1.7506    1.4155 H   0  0  0  0  0  0  0  0  0  0  0  0
   -0.2221    1.8902   -0.2683 H   0  0  0  0  0  0  0  0  0  0  0  0
   -1.5999    0.2493    1.9119 H   0  0  0  0  0  0  0  0  0  0  0  0
   -2.1777    1.7826    1.2559 H   0  0  0  0  0  0  0  0  0  0  0  0
  1  2  1  0  0  0  0
  2  3  1  0  0  0  0
  3  4  1  0  0  0  0
  4  5  1  0  0  0  0
  5  6  1  0  0  0  0
  6  7  1  0  0  0  0
  7  8  2  0  0  0  0
  7  9  1  0  0  0  0
  9 10  1  0  0  0  0
 10 11  3  0  0  0  0
  5 12  1  0  0  0  0
  2 13  1  0  0  0  0
 12 13  1  0  0  0  0
  1 14  1  0  0  0  0
  1 15  1  0  0  0  0
  1 16  1  0  0  0  0
  2 17  1  0  0  0  0
  3 18  1  0  0  0  0
  3 19  1  0  0  0  0
  4 20  1  0  0  0  0
  4 21  1  0  0  0  0
  5 22  1  0  0  0  0
  9 23  1  0  0  0  0
  9 24  1  0  0  0  0
 12 25  1  0  0  0  0
 12 26  1  0  0  0  0
 13 27  1  0  0  0  0
 13 28  1  0  0  0  0
M  END
