 xtb: 6.7.1 (edcfbbe)
          07072601183D

 77 77  0     0  0            999 V2000
   -4.2516    2.1318   -2.8276 C   0  0  0  0  0  0  0  0  0  0  0  0
   -3.1845    2.8739   -2.6016 C   0  0  0  0  0  0  0  0  0  0  0  0
   -1.9552    2.3917   -1.8993 C   0  0  0  0  0  0  0  0  0  0  0  0
   -1.6998    3.2117   -0.6239 C   0  0  0  0  0  0  0  0  0  0  0  0
   -0.4621    2.7114    0.0882 C   0  0  0  0  0  0  0  0  0  0  0  0
    0.5755    3.3030    0.1833 O   0  0  0  0  0  0  0  0  0  0  0  0
   -0.6988    1.4782    0.5618 O   0  0  0  0  0  0  0  0  0  0  0  0
    0.3644    0.9108    1.3138 N   0  0  0  0  0  0  0  0  0  0  0  0
    0.2973   -0.3372    1.4816 C   0  0  0  0  0  0  0  0  0  0  0  0
    1.3372   -1.0503    2.2781 C   0  0  0  0  0  0  0  0  0  0  0  0
    1.3688   -2.4267    1.6210 C   0  0  0  0  0  0  0  0  0  0  0  0
   -0.0959   -2.7079    1.2469 C   0  0  0  0  0  0  0  0  0  0  0  0
   -0.2302   -3.7262    0.1009 C   0  0  0  0  0  0  0  0  0  0  0  0
    0.0542   -3.1571   -1.2666 C   0  0  0  0  0  0  0  0  0  0  0  0
   -0.8747   -3.0792   -2.2143 C   0  0  0  0  0  0  0  0  0  0  0  0
    1.3472   -2.7603   -1.3747 O   0  0  0  0  0  0  0  0  0  0  0  0
    1.7549   -1.9643   -2.4818 C   0  0  0  0  0  0  0  0  0  0  0  0
    2.9154   -1.1369   -2.0174 C   0  0  0  0  0  0  0  0  0  0  0  0
    2.9149    0.1776   -1.8206 C   0  0  0  0  0  0  0  0  0  0  0  0
    1.7572    1.0842   -2.1125 C   0  0  0  0  0  0  0  0  0  0  0  0
    4.1188    0.8676   -1.2460 C   0  0  0  0  0  0  0  0  0  0  0  0
    3.9789    0.9615    0.2866 C   0  0  0  0  0  0  0  0  0  0  0  0
    5.1025    1.7521    0.8790 C   0  0  0  0  0  0  0  0  0  0  0  0
    5.0700    3.0150    1.2876 C   0  0  0  0  0  0  0  0  0  0  0  0
    3.8700    3.9112    1.2476 C   0  0  0  0  0  0  0  0  0  0  0  0
    6.2994    3.6770    1.8427 C   0  0  0  0  0  0  0  0  0  0  0  0
   -0.7075   -1.3235    0.9482 C   0  0  0  0  0  0  0  0  0  0  0  0
   -2.0835   -1.0907    1.5890 C   0  0  0  0  0  0  0  0  0  0  0  0
   -3.1739   -1.9786    0.9965 C   0  0  0  0  0  0  0  0  0  0  0  0
   -4.5476   -1.6399    1.5707 C   0  0  0  0  0  0  0  0  0  0  0  0
   -5.6451   -2.5352    1.0004 C   0  0  0  0  0  0  0  0  0  0  0  0
   -7.0124   -2.1945    1.5798 C   0  0  0  0  0  0  0  0  0  0  0  0
   -5.1181    2.5163   -3.3375 H   0  0  0  0  0  0  0  0  0  0  0  0
   -4.3000    1.1005   -2.5177 H   0  0  0  0  0  0  0  0  0  0  0  0
   -3.1582    3.9077   -2.9205 H   0  0  0  0  0  0  0  0  0  0  0  0
   -1.0925    2.4978   -2.5630 H   0  0  0  0  0  0  0  0  0  0  0  0
   -2.0652    1.3383   -1.6366 H   0  0  0  0  0  0  0  0  0  0  0  0
   -1.5505    4.2627   -0.8712 H   0  0  0  0  0  0  0  0  0  0  0  0
   -2.5564    3.1136    0.0448 H   0  0  0  0  0  0  0  0  0  0  0  0
    0.9853   -1.1242    3.3109 H   0  0  0  0  0  0  0  0  0  0  0  0
    2.2897   -0.5266    2.2776 H   0  0  0  0  0  0  0  0  0  0  0  0
    1.7747   -3.1946    2.2784 H   0  0  0  0  0  0  0  0  0  0  0  0
    1.9742   -2.3856    0.7168 H   0  0  0  0  0  0  0  0  0  0  0  0
   -0.6015   -3.1289    2.1228 H   0  0  0  0  0  0  0  0  0  0  0  0
    0.4749   -4.5392    0.2898 H   0  0  0  0  0  0  0  0  0  0  0  0
   -1.2365   -4.1436    0.0905 H   0  0  0  0  0  0  0  0  0  0  0  0
   -1.8761   -3.4142   -2.0192 H   0  0  0  0  0  0  0  0  0  0  0  0
   -0.6830   -2.7100   -3.2054 H   0  0  0  0  0  0  0  0  0  0  0  0
    0.9291   -1.3319   -2.8178 H   0  0  0  0  0  0  0  0  0  0  0  0
    2.0494   -2.6234   -3.3109 H   0  0  0  0  0  0  0  0  0  0  0  0
    3.7973   -1.7119   -1.7703 H   0  0  0  0  0  0  0  0  0  0  0  0
    0.7999    0.5830   -1.9925 H   0  0  0  0  0  0  0  0  0  0  0  0
    1.7838    1.9432   -1.4473 H   0  0  0  0  0  0  0  0  0  0  0  0
    1.8252    1.4518   -3.1376 H   0  0  0  0  0  0  0  0  0  0  0  0
    5.0312    0.3196   -1.4882 H   0  0  0  0  0  0  0  0  0  0  0  0
    4.2018    1.8760   -1.6543 H   0  0  0  0  0  0  0  0  0  0  0  0
    3.0140    1.4025    0.5343 H   0  0  0  0  0  0  0  0  0  0  0  0
    3.9997   -0.0549    0.6890 H   0  0  0  0  0  0  0  0  0  0  0  0
    6.0424    1.2152    0.9379 H   0  0  0  0  0  0  0  0  0  0  0  0
    2.9567    3.3916    0.9809 H   0  0  0  0  0  0  0  0  0  0  0  0
    3.7275    4.3831    2.2192 H   0  0  0  0  0  0  0  0  0  0  0  0
    4.0322    4.7064    0.5194 H   0  0  0  0  0  0  0  0  0  0  0  0
    7.1578    3.0104    1.8146 H   0  0  0  0  0  0  0  0  0  0  0  0
    6.5352    4.5741    1.2706 H   0  0  0  0  0  0  0  0  0  0  0  0
    6.1296    3.9810    2.8757 H   0  0  0  0  0  0  0  0  0  0  0  0
   -0.8063   -1.1715   -0.1323 H   0  0  0  0  0  0  0  0  0  0  0  0
   -2.0123   -1.2671    2.6655 H   0  0  0  0  0  0  0  0  0  0  0  0
   -2.3625   -0.0451    1.4435 H   0  0  0  0  0  0  0  0  0  0  0  0
   -2.9507   -3.0265    1.2043 H   0  0  0  0  0  0  0  0  0  0  0  0
   -3.1929   -1.8515   -0.0883 H   0  0  0  0  0  0  0  0  0  0  0  0
   -4.5219   -1.7507    2.6575 H   0  0  0  0  0  0  0  0  0  0  0  0
   -4.7846   -0.5959    1.3518 H   0  0  0  0  0  0  0  0  0  0  0  0
   -5.4088   -3.5793    1.2191 H   0  0  0  0  0  0  0  0  0  0  0  0
   -5.6733   -2.4238   -0.0861 H   0  0  0  0  0  0  0  0  0  0  0  0
   -7.2752   -1.1628    1.3559 H   0  0  0  0  0  0  0  0  0  0  0  0
   -7.7788   -2.8426    1.1614 H   0  0  0  0  0  0  0  0  0  0  0  0
   -7.0101   -2.3191    2.6606 H   0  0  0  0  0  0  0  0  0  0  0  0
  1  2  2  0  0  0  0
  2  3  1  0  0  0  0
  3  4  1  0  0  0  0
  4  5  1  0  0  0  0
  5  6  2  0  0  0  0
  5  7  1  0  0  0  0
  7  8  1  0  0  0  0
  8  9  2  0  0  0  0
  9 10  1  0  0  0  0
 10 11  1  0  0  0  0
 11 12  1  0  0  0  0
 12 13  1  0  0  0  0
 13 14  1  0  0  0  0
 14 15  2  0  0  0  0
 14 16  1  0  0  0  0
 16 17  1  0  0  0  0
 17 18  1  0  0  0  0
 18 19  2  0  0  0  0
 19 20  1  0  0  0  0
 19 21  1  0  0  0  0
 21 22  1  0  0  0  0
 22 23  1  0  0  0  0
 23 24  2  0  0  0  0
 24 25  1  0  0  0  0
 24 26  1  0  0  0  0
  9 27  1  0  0  0  0
 12 27  1  0  0  0  0
 27 28  1  0  0  0  0
 28 29  1  0  0  0  0
 29 30  1  0  0  0  0
 30 31  1  0  0  0  0
 31 32  1  0  0  0  0
  1 33  1  0  0  0  0
  1 34  1  0  0  0  0
  2 35  1  0  0  0  0
  3 36  1  0  0  0  0
  3 37  1  0  0  0  0
  4 38  1  0  0  0  0
  4 39  1  0  0  0  0
 10 40  1  0  0  0  0
 10 41  1  0  0  0  0
 11 42  1  0  0  0  0
 11 43  1  0  0  0  0
 12 44  1  0  0  0  0
 13 45  1  0  0  0  0
 13 46  1  0  0  0  0
 15 47  1  0  0  0  0
 15 48  1  0  0  0  0
 17 49  1  0  0  0  0
 17 50  1  0  0  0  0
 18 51  1  0  0  0  0
 20 52  1  0  0  0  0
 20 53  1  0  0  0  0
 20 54  1  0  0  0  0
 21 55  1  0  0  0  0
 21 56  1  0  0  0  0
 22 57  1  0  0  0  0
 22 58  1  0  0  0  0
 23 59  1  0  0  0  0
 25 60  1  0  0  0  0
 25 61  1  0  0  0  0
 25 62  1  0  0  0  0
 26 63  1  0  0  0  0
 26 64  1  0  0  0  0
 26 65  1  0  0  0  0
 27 66  1  0  0  0  0
 28 67  1  0  0  0  0
 28 68  1  0  0  0  0
 29 69  1  0  0  0  0
 29 70  1  0  0  0  0
 30 71  1  0  0  0  0
 30 72  1  0  0  0  0
 31 73  1  0  0  0  0
 31 74  1  0  0  0  0
 32 75  1  0  0  0  0
 32 76  1  0  0  0  0
 32 77  1  0  0  0  0
M  END
