 xtb: 6.7.1 (edcfbbe)
          07092619013D

 22 22  0     0  0            999 V2000
    3.4441   -0.3979    0.0112 C   0  0  0  0  0  0  0  0  0  0  0  0
    2.0585   -1.0220   -0.0356 C   0  0  0  0  0  0  0  0  0  0  0  0
    1.1230    0.0383    0.0025 O   0  0  0  0  0  0  0  0  0  0  0  0
   -0.1921   -0.2192   -0.0255 C   0  0  0  0  0  0  0  0  0  0  0  0
   -0.7392   -1.5016   -0.0971 C   0  0  0  0  0  0  0  0  0  0  0  0
   -2.1082   -1.6857   -0.1307 C   0  0  0  0  0  0  0  0  0  0  0  0
   -2.9689   -0.6007   -0.0966 C   0  0  0  0  0  0  0  0  0  0  0  0
   -2.4460    0.6740   -0.0260 C   0  0  0  0  0  0  0  0  0  0  0  0
   -1.0698    0.8873    0.0123 C   0  0  0  0  0  0  0  0  0  0  0  0
   -0.5397    2.2611    0.1006 C   0  0  0  0  0  0  0  0  0  0  0  0
    0.6117    2.5825    0.2486 O   0  0  0  0  0  0  0  0  0  0  0  0
   -1.5105    3.1977    0.0023 O   0  0  0  0  0  0  0  0  0  0  0  0
    4.2040   -1.1740   -0.0040 H   0  0  0  0  0  0  0  0  0  0  0  0
    3.5479    0.1939    0.9157 H   0  0  0  0  0  0  0  0  0  0  0  0
    3.5801    0.2588   -0.8429 H   0  0  0  0  0  0  0  0  0  0  0  0
    1.9113   -1.6881    0.8260 H   0  0  0  0  0  0  0  0  0  0  0  0
    1.9333   -1.6052   -0.9588 H   0  0  0  0  0  0  0  0  0  0  0  0
   -0.0942   -2.3655   -0.1259 H   0  0  0  0  0  0  0  0  0  0  0  0
   -2.5039   -2.6894   -0.1845 H   0  0  0  0  0  0  0  0  0  0  0  0
   -4.0369   -0.7505   -0.1238 H   0  0  0  0  0  0  0  0  0  0  0  0
   -3.0998    1.5310    0.0037 H   0  0  0  0  0  0  0  0  0  0  0  0
   -1.1047    4.0754    0.0708 H   0  0  0  0  0  0  0  0  0  0  0  0
  1  2  1  0  0  0  0
  2  3  1  0  0  0  0
  3  4  1  0  0  0  0
  4  5  4  0  0  0  0
  5  6  4  0  0  0  0
  6  7  4  0  0  0  0
  7  8  4  0  0  0  0
  4  9  4  0  0  0  0
  8  9  4  0  0  0  0
  9 10  1  0  0  0  0
 10 11  2  0  0  0  0
 10 12  1  0  0  0  0
  1 13  1  0  0  0  0
  1 14  1  0  0  0  0
  1 15  1  0  0  0  0
  2 16  1  0  0  0  0
  2 17  1  0  0  0  0
  5 18  1  0  0  0  0
  6 19  1  0  0  0  0
  7 20  1  0  0  0  0
  8 21  1  0  0  0  0
 12 22  1  0  0  0  0
M  END
