 xtb: 6.7.1 (edcfbbe)
          07082613533D

 23 24  0     0  0            999 V2000
   -2.2612    0.4653    1.4838 O   0  0  0  0  0  0  0  0  0  0  0  0
   -2.0847    0.6639    0.0996 C   0  0  0  0  0  0  0  0  0  0  0  0
   -2.0112   -0.6561   -0.6765 C   0  0  0  0  0  0  0  0  0  0  0  0
   -0.8299   -1.4957   -0.1977 C   0  0  0  0  0  0  0  0  0  0  0  0
    0.4444   -0.7020   -0.0820 C   0  0  0  0  0  0  0  0  0  0  0  0
    1.6535   -1.3805    0.0345 C   0  0  0  0  0  0  0  0  0  0  0  0
    2.8467   -0.6987    0.1688 C   0  0  0  0  0  0  0  0  0  0  0  0
    2.8442    0.6864    0.1916 C   0  0  0  0  0  0  0  0  0  0  0  0
    1.6488    1.3686    0.0806 C   0  0  0  0  0  0  0  0  0  0  0  0
    0.4415    0.6905   -0.0565 C   0  0  0  0  0  0  0  0  0  0  0  0
   -0.8285    1.4871   -0.1998 C   0  0  0  0  0  0  0  0  0  0  0  0
   -1.4604    0.0549    1.8298 H   0  0  0  0  0  0  0  0  0  0  0  0
   -2.9734    1.2246   -0.2120 H   0  0  0  0  0  0  0  0  0  0  0  0
   -1.9002   -0.4252   -1.7372 H   0  0  0  0  0  0  0  0  0  0  0  0
   -2.9387   -1.2149   -0.5421 H   0  0  0  0  0  0  0  0  0  0  0  0
   -0.6741   -2.3343   -0.8806 H   0  0  0  0  0  0  0  0  0  0  0  0
   -1.0644   -1.9293    0.7815 H   0  0  0  0  0  0  0  0  0  0  0  0
    1.6499   -2.4616    0.0166 H   0  0  0  0  0  0  0  0  0  0  0  0
    3.7751   -1.2435    0.2548 H   0  0  0  0  0  0  0  0  0  0  0  0
    3.7708    1.2310    0.2963 H   0  0  0  0  0  0  0  0  0  0  0  0
    1.6422    2.4495    0.0987 H   0  0  0  0  0  0  0  0  0  0  0  0
   -0.7983    2.3499    0.4705 H   0  0  0  0  0  0  0  0  0  0  0  0
   -0.8920    1.8701   -1.2228 H   0  0  0  0  0  0  0  0  0  0  0  0
  1  2  1  0  0  0  0
  2  3  1  0  0  0  0
  3  4  1  0  0  0  0
  4  5  1  0  0  0  0
  5  6  4  0  0  0  0
  6  7  4  0  0  0  0
  7  8  4  0  0  0  0
  8  9  4  0  0  0  0
  5 10  4  0  0  0  0
  9 10  4  0  0  0  0
  2 11  1  0  0  0  0
 10 11  1  0  0  0  0
  1 12  1  0  0  0  0
  2 13  1  0  0  0  0
  3 14  1  0  0  0  0
  3 15  1  0  0  0  0
  4 16  1  0  0  0  0
  4 17  1  0  0  0  0
  6 18  1  0  0  0  0
  7 19  1  0  0  0  0
  8 20  1  0  0  0  0
  9 21  1  0  0  0  0
 11 22  1  0  0  0  0
 11 23  1  0  0  0  0
M  END
