 xtb: 6.7.1 (edcfbbe)
          07092602473D

 24 23  0     0  0            999 V2000
   -3.6746    0.5063   -0.8158 C   0  0  0  0  0  0  0  0  0  0  0  0
   -2.4850    0.0206   -0.0484 C   0  0  0  0  0  0  0  0  0  0  0  0
   -2.8012   -0.7213    1.2058 C   0  0  0  0  0  0  0  0  0  0  0  0
   -1.2401    0.2558   -0.4889 C   0  0  0  0  0  0  0  0  0  0  0  0
    0.0061   -0.1395    0.1824 C   0  0  0  0  0  0  0  0  0  0  0  0
    0.0388   -0.8833    1.1547 O   0  0  0  0  0  0  0  0  0  0  0  0
    1.2094    0.4446   -0.4267 C   0  0  0  0  0  0  0  0  0  0  0  0
    2.4787    0.1218   -0.1378 C   0  0  0  0  0  0  0  0  0  0  0  0
    3.6184    0.7731   -0.8567 C   0  0  0  0  0  0  0  0  0  0  0  0
    2.8716   -0.8831    0.8916 C   0  0  0  0  0  0  0  0  0  0  0  0
   -4.2092    1.2572   -0.2337 H   0  0  0  0  0  0  0  0  0  0  0  0
   -3.3890    0.9437   -1.7691 H   0  0  0  0  0  0  0  0  0  0  0  0
   -4.3626   -0.3189   -0.9959 H   0  0  0  0  0  0  0  0  0  0  0  0
   -2.8876   -1.7854    0.9838 H   0  0  0  0  0  0  0  0  0  0  0  0
   -3.7456   -0.3830    1.6274 H   0  0  0  0  0  0  0  0  0  0  0  0
   -2.0023   -0.6130    1.9341 H   0  0  0  0  0  0  0  0  0  0  0  0
   -1.1165    0.8065   -1.4120 H   0  0  0  0  0  0  0  0  0  0  0  0
    1.0290    1.1865   -1.1935 H   0  0  0  0  0  0  0  0  0  0  0  0
    3.2787    1.5685   -1.5151 H   0  0  0  0  0  0  0  0  0  0  0  0
    4.1526    0.0321   -1.4517 H   0  0  0  0  0  0  0  0  0  0  0  0
    4.3245    1.1854   -0.1369 H   0  0  0  0  0  0  0  0  0  0  0  0
    2.1012   -1.6398    1.0109 H   0  0  0  0  0  0  0  0  0  0  0  0
    3.8216   -1.3478    0.6352 H   0  0  0  0  0  0  0  0  0  0  0  0
    2.9830   -0.3871    1.8563 H   0  0  0  0  0  0  0  0  0  0  0  0
  1  2  1  0  0  0  0
  2  3  1  0  0  0  0
  2  4  2  0  0  0  0
  4  5  1  0  0  0  0
  5  6  2  0  0  0  0
  5  7  1  0  0  0  0
  7  8  2  0  0  0  0
  8  9  1  0  0  0  0
  8 10  1  0  0  0  0
  1 11  1  0  0  0  0
  1 12  1  0  0  0  0
  1 13  1  0  0  0  0
  3 14  1  0  0  0  0
  3 15  1  0  0  0  0
  3 16  1  0  0  0  0
  4 17  1  0  0  0  0
  7 18  1  0  0  0  0
  9 19  1  0  0  0  0
  9 20  1  0  0  0  0
  9 21  1  0  0  0  0
 10 22  1  0  0  0  0
 10 23  1  0  0  0  0
 10 24  1  0  0  0  0
M  END
