 xtb: 6.7.1 (edcfbbe)
          07082612013D

 42 43  0     0  0            999 V2000
   -1.9944   -2.0810   -1.2611 C   0  0  0  0  0  0  0  0  0  0  0  0
   -1.5813   -1.8602    0.1980 C   0  0  0  0  0  0  0  0  0  0  0  0
   -0.1858   -2.4232    0.5020 C   0  0  0  0  0  0  0  0  0  0  0  0
    0.9687   -1.8417   -0.3092 C   0  0  0  0  0  0  0  0  0  0  0  0
    1.3329   -0.4023    0.0692 C   0  0  0  0  0  0  0  0  0  0  0  0
    2.8059   -0.0912   -0.3215 C   0  0  0  0  0  0  0  0  0  0  0  0
    3.0401   -0.1522   -1.8302 C   0  0  0  0  0  0  0  0  0  0  0  0
    3.2467    1.2784    0.2182 C   0  0  0  0  0  0  0  0  0  0  0  0
    3.6529   -1.0876    0.2404 O   0  0  0  0  0  0  0  0  0  0  0  0
    0.3335    0.6014   -0.5190 C   0  0  0  0  0  0  0  0  0  0  0  0
   -0.9609    0.6209    0.2351 C   0  0  0  0  0  0  0  0  0  0  0  0
   -1.7340   -0.4107    0.5597 C   0  0  0  0  0  0  0  0  0  0  0  0
   -2.9102    0.0149    1.3985 C   0  0  0  0  0  0  0  0  0  0  0  0
   -2.8969    1.5457    1.3163 C   0  0  0  0  0  0  0  0  0  0  0  0
   -1.5004    1.9239    0.7878 C   0  0  0  0  0  0  0  0  0  0  0  0
   -1.5723    3.0447   -0.2471 C   0  0  0  0  0  0  0  0  0  0  0  0
   -3.0415   -1.8174   -1.3935 H   0  0  0  0  0  0  0  0  0  0  0  0
   -1.8624   -3.1245   -1.5397 H   0  0  0  0  0  0  0  0  0  0  0  0
   -1.4062   -1.4623   -1.9320 H   0  0  0  0  0  0  0  0  0  0  0  0
   -2.2826   -2.4271    0.8238 H   0  0  0  0  0  0  0  0  0  0  0  0
   -0.2181   -3.5012    0.3202 H   0  0  0  0  0  0  0  0  0  0  0  0
    0.0174   -2.2784    1.5666 H   0  0  0  0  0  0  0  0  0  0  0  0
    1.8475   -2.4688   -0.1389 H   0  0  0  0  0  0  0  0  0  0  0  0
    0.7319   -1.8940   -1.3716 H   0  0  0  0  0  0  0  0  0  0  0  0
    1.2820   -0.3200    1.1641 H   0  0  0  0  0  0  0  0  0  0  0  0
    4.0824    0.0754   -2.0376 H   0  0  0  0  0  0  0  0  0  0  0  0
    2.4104    0.5643   -2.3476 H   0  0  0  0  0  0  0  0  0  0  0  0
    2.8330   -1.1519   -2.1981 H   0  0  0  0  0  0  0  0  0  0  0  0
    2.8343    2.0927   -0.3693 H   0  0  0  0  0  0  0  0  0  0  0  0
    2.9400    1.4034    1.2557 H   0  0  0  0  0  0  0  0  0  0  0  0
    4.3318    1.3415    0.1675 H   0  0  0  0  0  0  0  0  0  0  0  0
    3.5647   -1.0550    1.1995 H   0  0  0  0  0  0  0  0  0  0  0  0
    0.1494    0.3561   -1.5681 H   0  0  0  0  0  0  0  0  0  0  0  0
    0.7615    1.6018   -0.4860 H   0  0  0  0  0  0  0  0  0  0  0  0
   -3.8457   -0.4123    1.0324 H   0  0  0  0  0  0  0  0  0  0  0  0
   -2.7719   -0.3338    2.4266 H   0  0  0  0  0  0  0  0  0  0  0  0
   -3.1107    2.0126    2.2764 H   0  0  0  0  0  0  0  0  0  0  0  0
   -3.6518    1.8822    0.6048 H   0  0  0  0  0  0  0  0  0  0  0  0
   -0.8547    2.2560    1.6114 H   0  0  0  0  0  0  0  0  0  0  0  0
   -0.5809    3.3517   -0.5719 H   0  0  0  0  0  0  0  0  0  0  0  0
   -2.0704    3.9131    0.1795 H   0  0  0  0  0  0  0  0  0  0  0  0
   -2.1338    2.7160   -1.1190 H   0  0  0  0  0  0  0  0  0  0  0  0
  1  2  1  0  0  0  0
  2  3  1  0  0  0  0
  3  4  1  0  0  0  0
  4  5  1  0  0  0  0
  5  6  1  0  0  0  0
  6  7  1  0  0  0  0
  6  8  1  0  0  0  0
  6  9  1  0  0  0  0
  5 10  1  0  0  0  0
 10 11  1  0  0  0  0
  2 12  1  0  0  0  0
 11 12  2  0  0  0  0
 12 13  1  0  0  0  0
 13 14  1  0  0  0  0
 11 15  1  0  0  0  0
 14 15  1  0  0  0  0
 15 16  1  0  0  0  0
  1 17  1  0  0  0  0
  1 18  1  0  0  0  0
  1 19  1  0  0  0  0
  2 20  1  0  0  0  0
  3 21  1  0  0  0  0
  3 22  1  0  0  0  0
  4 23  1  0  0  0  0
  4 24  1  0  0  0  0
  5 25  1  0  0  0  0
  7 26  1  0  0  0  0
  7 27  1  0  0  0  0
  7 28  1  0  0  0  0
  8 29  1  0  0  0  0
  8 30  1  0  0  0  0
  8 31  1  0  0  0  0
  9 32  1  0  0  0  0
 10 33  1  0  0  0  0
 10 34  1  0  0  0  0
 13 35  1  0  0  0  0
 13 36  1  0  0  0  0
 14 37  1  0  0  0  0
 14 38  1  0  0  0  0
 15 39  1  0  0  0  0
 16 40  1  0  0  0  0
 16 41  1  0  0  0  0
 16 42  1  0  0  0  0
M  END
