 xtb: 6.7.1 (edcfbbe)
          07092609233D

 22 21  0     0  0            999 V2000
   -3.8628   -0.3542   -0.4697 C   0  0  0  0  0  0  0  0  0  0  0  0
   -2.7453   -0.4516    0.5507 C   0  0  0  0  0  0  0  0  0  0  0  0
   -1.5287   -0.0545   -0.0800 O   0  0  0  0  0  0  0  0  0  0  0  0
   -0.4089   -0.1981    0.6332 C   0  0  0  0  0  0  0  0  0  0  0  0
   -0.3817   -0.6402    1.7572 O   0  0  0  0  0  0  0  0  0  0  0  0
    0.7708    0.2557   -0.1423 C   0  0  0  0  0  0  0  0  0  0  0  0
    0.4848    0.7420   -1.4390 C   0  0  0  0  0  0  0  0  0  0  0  0
    0.2552    1.1374   -2.4907 N   0  0  0  0  0  0  0  0  0  0  0  0
    2.0388    0.2217    0.3329 C   0  0  0  0  0  0  0  0  0  0  0  0
    3.1862    0.6974   -0.4909 C   0  0  0  0  0  0  0  0  0  0  0  0
    2.3703   -0.2850    1.6913 C   0  0  0  0  0  0  0  0  0  0  0  0
   -3.6591   -1.0113   -1.3109 H   0  0  0  0  0  0  0  0  0  0  0  0
   -4.8037   -0.6423   -0.0097 H   0  0  0  0  0  0  0  0  0  0  0  0
   -3.9412    0.6646   -0.8395 H   0  0  0  0  0  0  0  0  0  0  0  0
   -2.6314   -1.4747    0.9279 H   0  0  0  0  0  0  0  0  0  0  0  0
   -2.9282    0.2073    1.4079 H   0  0  0  0  0  0  0  0  0  0  0  0
    3.6998    1.5046    0.0318 H   0  0  0  0  0  0  0  0  0  0  0  0
    2.8696    1.0515   -1.4684 H   0  0  0  0  0  0  0  0  0  0  0  0
    3.9037   -0.1132   -0.6201 H   0  0  0  0  0  0  0  0  0  0  0  0
    2.0342   -1.3148    1.8057 H   0  0  0  0  0  0  0  0  0  0  0  0
    3.4396   -0.2289    1.8771 H   0  0  0  0  0  0  0  0  0  0  0  0
    1.8380    0.2867    2.4505 H   0  0  0  0  0  0  0  0  0  0  0  0
  1  2  1  0  0  0  0
  2  3  1  0  0  0  0
  3  4  1  0  0  0  0
  4  5  2  0  0  0  0
  4  6  1  0  0  0  0
  6  7  1  0  0  0  0
  7  8  3  0  0  0  0
  6  9  2  0  0  0  0
  9 10  1  0  0  0  0
  9 11  1  0  0  0  0
  1 12  1  0  0  0  0
  1 13  1  0  0  0  0
  1 14  1  0  0  0  0
  2 15  1  0  0  0  0
  2 16  1  0  0  0  0
 10 17  1  0  0  0  0
 10 18  1  0  0  0  0
 10 19  1  0  0  0  0
 11 20  1  0  0  0  0
 11 21  1  0  0  0  0
 11 22  1  0  0  0  0
M  END
