 xtb: 6.7.1 (edcfbbe)
          07082617513D

 13 12  0     0  0            999 V2000
   -1.2485   -0.5136    0.0003 C   0  0  0  0  0  0  0  0  0  0  0  0
    0.0871    0.2293   -0.1587 C   0  0  0  0  0  0  0  0  0  0  0  0
    1.2682   -0.6423    0.2764 C   0  0  0  0  0  0  0  0  0  0  0  0
    0.3157    0.5968   -1.5087 O   0  0  0  0  0  0  0  0  0  0  0  0
    0.0448    1.4262    0.6802 C   0  0  0  0  0  0  0  0  0  0  0  0
   -0.0114    2.3819    1.3048 N   0  0  0  0  0  0  0  0  0  0  0  0
   -2.0802    0.1266   -0.2921 H   0  0  0  0  0  0  0  0  0  0  0  0
   -1.2437   -1.3966   -0.6348 H   0  0  0  0  0  0  0  0  0  0  0  0
   -1.3921   -0.8173    1.0341 H   0  0  0  0  0  0  0  0  0  0  0  0
    1.1679   -0.9261    1.3205 H   0  0  0  0  0  0  0  0  0  0  0  0
    2.1965   -0.0934    0.1396 H   0  0  0  0  0  0  0  0  0  0  0  0
    1.2967   -1.5339   -0.3442 H   0  0  0  0  0  0  0  0  0  0  0  0
   -0.4009    1.1625   -1.8175 H   0  0  0  0  0  0  0  0  0  0  0  0
  1  2  1  0  0  0  0
  2  3  1  0  0  0  0
  2  4  1  0  0  0  0
  2  5  1  0  0  0  0
  5  6  3  0  0  0  0
  1  7  1  0  0  0  0
  1  8  1  0  0  0  0
  1  9  1  0  0  0  0
  3 10  1  0  0  0  0
  3 11  1  0  0  0  0
  3 12  1  0  0  0  0
  4 13  1  0  0  0  0
M  END
