 xtb: 6.7.1 (edcfbbe)
          07082620163D

 16 15  0     0  0            999 V2000
   -2.9469    0.2469    0.0947 C   0  0  0  0  0  0  0  0  0  0  0  0
   -1.6851   -0.5112    0.4575 C   0  0  0  0  0  0  0  0  0  0  0  0
   -0.5593    0.2501    0.0109 O   0  0  0  0  0  0  0  0  0  0  0  0
    0.6365   -0.2554    0.2407 C   0  0  0  0  0  0  0  0  0  0  0  0
    0.8538   -1.3050    0.7955 O   0  0  0  0  0  0  0  0  0  0  0  0
    1.7516    0.6689   -0.2928 C   0  0  0  0  0  0  0  0  0  0  0  0
    3.1234    0.1261   -0.0492 C   0  0  0  0  0  0  0  0  0  0  0  0
    1.4967    1.7075   -0.8405 O   0  0  0  0  0  0  0  0  0  0  0  0
   -2.9468    1.2223    0.5731 H   0  0  0  0  0  0  0  0  0  0  0  0
   -3.8174   -0.3128    0.4245 H   0  0  0  0  0  0  0  0  0  0  0  0
   -3.0002    0.3897   -0.9809 H   0  0  0  0  0  0  0  0  0  0  0  0
   -1.6543   -1.4961   -0.0222 H   0  0  0  0  0  0  0  0  0  0  0  0
   -1.6006   -0.6591    1.5402 H   0  0  0  0  0  0  0  0  0  0  0  0
    3.2620   -0.0248    1.0197 H   0  0  0  0  0  0  0  0  0  0  0  0
    3.2090   -0.8506   -0.5217 H   0  0  0  0  0  0  0  0  0  0  0  0
    3.8776    0.8036   -0.4381 H   0  0  0  0  0  0  0  0  0  0  0  0
  1  2  1  0  0  0  0
  2  3  1  0  0  0  0
  3  4  1  0  0  0  0
  4  5  2  0  0  0  0
  4  6  1  0  0  0  0
  6  7  1  0  0  0  0
  6  8  2  0  0  0  0
  1  9  1  0  0  0  0
  1 10  1  0  0  0  0
  1 11  1  0  0  0  0
  2 12  1  0  0  0  0
  2 13  1  0  0  0  0
  7 14  1  0  0  0  0
  7 15  1  0  0  0  0
  7 16  1  0  0  0  0
M  END
