 xtb: 6.7.1 (edcfbbe)
          07082623233D

 18 18  0     0  0            999 V2000
    4.0292   -0.5151   -0.5572 O   0  0  0  0  0  0  0  0  0  0  0  0
    3.3614    0.4622   -0.7252 C   0  0  0  0  0  0  0  0  0  0  0  0
    2.0637    0.5730   -0.5297 O   0  0  0  0  0  0  0  0  0  0  0  0
    1.3868   -0.6105   -0.0652 C   0  0  0  0  0  0  0  0  0  0  0  0
   -0.0705   -0.2877    0.0964 C   0  0  0  0  0  0  0  0  0  0  0  0
   -0.9481   -0.4527   -0.9672 C   0  0  0  0  0  0  0  0  0  0  0  0
   -2.2869   -0.1331   -0.8253 C   0  0  0  0  0  0  0  0  0  0  0  0
   -2.7594    0.3570    0.3803 C   0  0  0  0  0  0  0  0  0  0  0  0
   -1.8886    0.5292    1.4428 C   0  0  0  0  0  0  0  0  0  0  0  0
   -0.5498    0.2097    1.3012 C   0  0  0  0  0  0  0  0  0  0  0  0
    3.7513    1.4331   -1.0773 H   0  0  0  0  0  0  0  0  0  0  0  0
    1.5438   -1.4092   -0.7984 H   0  0  0  0  0  0  0  0  0  0  0  0
    1.8392   -0.9179    0.8839 H   0  0  0  0  0  0  0  0  0  0  0  0
   -0.5807   -0.8342   -1.9087 H   0  0  0  0  0  0  0  0  0  0  0  0
   -2.9626   -0.2671   -1.6569 H   0  0  0  0  0  0  0  0  0  0  0  0
   -3.8045    0.6048    0.4915 H   0  0  0  0  0  0  0  0  0  0  0  0
   -2.2529    0.9129    2.3842 H   0  0  0  0  0  0  0  0  0  0  0  0
    0.1286    0.3454    2.1308 H   0  0  0  0  0  0  0  0  0  0  0  0
  1  2  2  0  0  0  0
  2  3  1  0  0  0  0
  3  4  1  0  0  0  0
  4  5  1  0  0  0  0
  5  6  4  0  0  0  0
  6  7  4  0  0  0  0
  7  8  4  0  0  0  0
  8  9  4  0  0  0  0
  5 10  4  0  0  0  0
  9 10  4  0  0  0  0
  2 11  1  0  0  0  0
  4 12  1  0  0  0  0
  4 13  1  0  0  0  0
  6 14  1  0  0  0  0
  7 15  1  0  0  0  0
  8 16  1  0  0  0  0
  9 17  1  0  0  0  0
 10 18  1  0  0  0  0
M  END
