 xtb: 6.7.1 (edcfbbe)
          07082621203D

 21 20  0     0  0            999 V2000
   -1.8587   -0.8421    1.0598 C   0  0  0  0  0  0  0  0  0  0  0  0
   -1.5642    0.3860    0.2029 C   0  0  0  0  0  0  0  0  0  0  0  0
   -2.6919    0.6424   -0.7926 C   0  0  0  0  0  0  0  0  0  0  0  0
   -0.2467    0.2070   -0.5469 C   0  0  0  0  0  0  0  0  0  0  0  0
    0.8249    0.1608    0.4037 O   0  0  0  0  0  0  0  0  0  0  0  0
    2.0392   -0.0255   -0.0844 C   0  0  0  0  0  0  0  0  0  0  0  0
    2.3104   -0.1576   -1.2529 O   0  0  0  0  0  0  0  0  0  0  0  0
    3.1078   -0.0605    0.9934 C   0  0  0  0  0  0  0  0  0  0  0  0
    4.3677   -0.2557    0.4239 O   0  0  0  0  0  0  0  0  0  0  0  0
   -1.0336   -1.0317    1.7411 H   0  0  0  0  0  0  0  0  0  0  0  0
   -2.0000   -1.7183    0.4305 H   0  0  0  0  0  0  0  0  0  0  0  0
   -2.7622   -0.6878    1.6439 H   0  0  0  0  0  0  0  0  0  0  0  0
   -1.4569    1.2557    0.8588 H   0  0  0  0  0  0  0  0  0  0  0  0
   -2.7943   -0.1989   -1.4745 H   0  0  0  0  0  0  0  0  0  0  0  0
   -2.4976    1.5379   -1.3778 H   0  0  0  0  0  0  0  0  0  0  0  0
   -3.6330    0.7736   -0.2653 H   0  0  0  0  0  0  0  0  0  0  0  0
   -0.0663    1.0390   -1.2363 H   0  0  0  0  0  0  0  0  0  0  0  0
   -0.2452   -0.7223   -1.1271 H   0  0  0  0  0  0  0  0  0  0  0  0
    2.8791   -0.8736    1.6950 H   0  0  0  0  0  0  0  0  0  0  0  0
    3.0838    0.8865    1.5486 H   0  0  0  0  0  0  0  0  0  0  0  0
    4.2379   -0.3149   -0.5379 H   0  0  0  0  0  0  0  0  0  0  0  0
  1  2  1  0  0  0  0
  2  3  1  0  0  0  0
  2  4  1  0  0  0  0
  4  5  1  0  0  0  0
  5  6  1  0  0  0  0
  6  7  2  0  0  0  0
  6  8  1  0  0  0  0
  8  9  1  0  0  0  0
  1 10  1  0  0  0  0
  1 11  1  0  0  0  0
  1 12  1  0  0  0  0
  2 13  1  0  0  0  0
  3 14  1  0  0  0  0
  3 15  1  0  0  0  0
  3 16  1  0  0  0  0
  4 17  1  0  0  0  0
  4 18  1  0  0  0  0
  8 19  1  0  0  0  0
  8 20  1  0  0  0  0
  9 21  1  0  0  0  0
M  END
