 xtb: 6.7.1 (edcfbbe)
          07082619593D

 22 21  0     0  0            999 V2000
   -3.5879   -0.8751    0.0961 C   0  0  0  0  0  0  0  0  0  0  0  0
   -2.4622    0.1460    0.2061 C   0  0  0  0  0  0  0  0  0  0  0  0
   -1.0933   -0.4861   -0.0343 C   0  0  0  0  0  0  0  0  0  0  0  0
    0.0322    0.5378    0.0762 C   0  0  0  0  0  0  0  0  0  0  0  0
    1.4033   -0.0877   -0.1630 C   0  0  0  0  0  0  0  0  0  0  0  0
    2.5278    0.9211   -0.0554 C   0  0  0  0  0  0  0  0  0  0  0  0
    3.9050    0.3435   -0.2855 C   0  0  0  0  0  0  0  0  0  0  0  0
    2.3462    2.0849    0.1921 O   0  0  0  0  0  0  0  0  0  0  0  0
   -3.6008   -1.3244   -0.8947 H   0  0  0  0  0  0  0  0  0  0  0  0
   -4.5516   -0.4027    0.2708 H   0  0  0  0  0  0  0  0  0  0  0  0
   -3.4571   -1.6685    0.8291 H   0  0  0  0  0  0  0  0  0  0  0  0
   -2.6225    0.9432   -0.5230 H   0  0  0  0  0  0  0  0  0  0  0  0
   -2.4788    0.5994    1.1995 H   0  0  0  0  0  0  0  0  0  0  0  0
   -0.9329   -1.2841    0.6954 H   0  0  0  0  0  0  0  0  0  0  0  0
   -1.0767   -0.9400   -1.0286 H   0  0  0  0  0  0  0  0  0  0  0  0
    0.0195    0.9946    1.0676 H   0  0  0  0  0  0  0  0  0  0  0  0
   -0.1238    1.3375   -0.6502 H   0  0  0  0  0  0  0  0  0  0  0  0
    1.5878   -0.8845    0.5622 H   0  0  0  0  0  0  0  0  0  0  0  0
    1.4445   -0.5415   -1.1565 H   0  0  0  0  0  0  0  0  0  0  0  0
    4.1040   -0.4398    0.4422 H   0  0  0  0  0  0  0  0  0  0  0  0
    3.9605   -0.0963   -1.2786 H   0  0  0  0  0  0  0  0  0  0  0  0
    4.6566    1.1227   -0.1927 H   0  0  0  0  0  0  0  0  0  0  0  0
  1  2  1  0  0  0  0
  2  3  1  0  0  0  0
  3  4  1  0  0  0  0
  4  5  1  0  0  0  0
  5  6  1  0  0  0  0
  6  7  1  0  0  0  0
  6  8  2  0  0  0  0
  1  9  1  0  0  0  0
  1 10  1  0  0  0  0
  1 11  1  0  0  0  0
  2 12  1  0  0  0  0
  2 13  1  0  0  0  0
  3 14  1  0  0  0  0
  3 15  1  0  0  0  0
  4 16  1  0  0  0  0
  4 17  1  0  0  0  0
  5 18  1  0  0  0  0
  5 19  1  0  0  0  0
  7 20  1  0  0  0  0
  7 21  1  0  0  0  0
  7 22  1  0  0  0  0
M  END
