 xtb: 6.7.1 (edcfbbe)
          07072612053D

 36 36  0     0  0            999 V2000
    4.4469    2.1445   -0.0572 C   0  0  0  0  0  0  0  0  0  0  0  0
    4.6064    0.8293    0.6966 C   0  0  0  0  0  0  0  0  0  0  0  0
    3.6260   -0.2514    0.2395 C   0  0  0  0  0  0  0  0  0  0  0  0
    2.1706    0.0705    0.5723 C   0  0  0  0  0  0  0  0  0  0  0  0
    1.2412   -1.0918    0.2306 C   0  0  0  0  0  0  0  0  0  0  0  0
   -0.2154   -0.7764    0.5615 C   0  0  0  0  0  0  0  0  0  0  0  0
   -1.1356   -1.9506    0.2368 C   0  0  0  0  0  0  0  0  0  0  0  0
   -2.5854   -1.6873    0.6433 C   0  0  0  0  0  0  0  0  0  0  0  0
   -3.1561   -0.5774   -0.0929 N   0  0  0  0  0  0  0  0  0  0  0  0
   -3.3329    0.6745    0.4540 C   0  0  0  0  0  0  0  0  0  0  0  0
   -3.0664    0.9702    1.5884 O   0  0  0  0  0  0  0  0  0  0  0  0
   -3.9224    1.5681   -0.6195 C   0  0  0  0  0  0  0  0  0  0  0  0
   -4.0768    0.6722   -1.8424 C   0  0  0  0  0  0  0  0  0  0  0  0
   -3.5622   -0.6853   -1.4046 C   0  0  0  0  0  0  0  0  0  0  0  0
   -3.5125   -1.6950   -2.0554 O   0  0  0  0  0  0  0  0  0  0  0  0
    5.2201    2.8478    0.2439 H   0  0  0  0  0  0  0  0  0  0  0  0
    4.5317    1.9808   -1.1295 H   0  0  0  0  0  0  0  0  0  0  0  0
    3.4804    2.5971    0.1478 H   0  0  0  0  0  0  0  0  0  0  0  0
    4.4727    1.0065    1.7663 H   0  0  0  0  0  0  0  0  0  0  0  0
    5.6241    0.4598    0.5483 H   0  0  0  0  0  0  0  0  0  0  0  0
    3.8951   -1.1932    0.7246 H   0  0  0  0  0  0  0  0  0  0  0  0
    3.7270   -0.3966   -0.8387 H   0  0  0  0  0  0  0  0  0  0  0  0
    2.0860    0.2965    1.6379 H   0  0  0  0  0  0  0  0  0  0  0  0
    1.8514    0.9549    0.0186 H   0  0  0  0  0  0  0  0  0  0  0  0
    1.3280   -1.3249   -0.8334 H   0  0  0  0  0  0  0  0  0  0  0  0
    1.5524   -1.9785    0.7881 H   0  0  0  0  0  0  0  0  0  0  0  0
   -0.5284    0.1047   -0.0040 H   0  0  0  0  0  0  0  0  0  0  0  0
   -0.3033   -0.5313    1.6223 H   0  0  0  0  0  0  0  0  0  0  0  0
   -1.1021   -2.1665   -0.8329 H   0  0  0  0  0  0  0  0  0  0  0  0
   -0.7930   -2.8397    0.7692 H   0  0  0  0  0  0  0  0  0  0  0  0
   -3.1940   -2.5722    0.4393 H   0  0  0  0  0  0  0  0  0  0  0  0
   -2.6467   -1.4278    1.7028 H   0  0  0  0  0  0  0  0  0  0  0  0
   -4.8694    1.9741   -0.2635 H   0  0  0  0  0  0  0  0  0  0  0  0
   -3.2506    2.4103   -0.7881 H   0  0  0  0  0  0  0  0  0  0  0  0
   -3.4953    1.0129   -2.6995 H   0  0  0  0  0  0  0  0  0  0  0  0
   -5.1114    0.5709   -2.1706 H   0  0  0  0  0  0  0  0  0  0  0  0
  1  2  1  0  0  0  0
  2  3  1  0  0  0  0
  3  4  1  0  0  0  0
  4  5  1  0  0  0  0
  5  6  1  0  0  0  0
  6  7  1  0  0  0  0
  7  8  1  0  0  0  0
  8  9  1  0  0  0  0
  9 10  1  0  0  0  0
 10 11  2  0  0  0  0
 10 12  1  0  0  0  0
 12 13  1  0  0  0  0
  9 14  1  0  0  0  0
 13 14  1  0  0  0  0
 14 15  2  0  0  0  0
  1 16  1  0  0  0  0
  1 17  1  0  0  0  0
  1 18  1  0  0  0  0
  2 19  1  0  0  0  0
  2 20  1  0  0  0  0
  3 21  1  0  0  0  0
  3 22  1  0  0  0  0
  4 23  1  0  0  0  0
  4 24  1  0  0  0  0
  5 25  1  0  0  0  0
  5 26  1  0  0  0  0
  6 27  1  0  0  0  0
  6 28  1  0  0  0  0
  7 29  1  0  0  0  0
  7 30  1  0  0  0  0
  8 31  1  0  0  0  0
  8 32  1  0  0  0  0
 12 33  1  0  0  0  0
 12 34  1  0  0  0  0
 13 35  1  0  0  0  0
 13 36  1  0  0  0  0
M  END
