 xtb: 6.7.1 (edcfbbe)
          07082602063D

 27 27  0     0  0            999 V2000
   -4.9895   -0.1394    0.1000 C   0  0  0  0  0  0  0  0  0  0  0  0
   -3.6012   -0.5560   -0.3690 C   0  0  0  0  0  0  0  0  0  0  0  0
   -2.5062    0.2032    0.3753 C   0  0  0  0  0  0  0  0  0  0  0  0
   -1.1165   -0.2129   -0.0931 C   0  0  0  0  0  0  0  0  0  0  0  0
   -0.1669    0.5352    0.6442 O   0  0  0  0  0  0  0  0  0  0  0  0
    1.1488    0.3478    0.4122 C   0  0  0  0  0  0  0  0  0  0  0  0
    1.6797   -0.5462   -0.5195 C   0  0  0  0  0  0  0  0  0  0  0  0
    3.0464   -0.6505   -0.6679 C   0  0  0  0  0  0  0  0  0  0  0  0
    3.9167    0.1244    0.0993 C   0  0  0  0  0  0  0  0  0  0  0  0
    5.3607   -0.0031   -0.0750 C   0  0  0  0  0  0  0  0  0  0  0  0
    5.9126   -0.7446   -0.8513 O   0  0  0  0  0  0  0  0  0  0  0  0
    3.3797    1.0180    1.0308 C   0  0  0  0  0  0  0  0  0  0  0  0
    2.0194    1.1283    1.1852 C   0  0  0  0  0  0  0  0  0  0  0  0
   -5.1087   -0.3381    1.1624 H   0  0  0  0  0  0  0  0  0  0  0  0
   -5.7553   -0.6900   -0.4407 H   0  0  0  0  0  0  0  0  0  0  0  0
   -5.1462    0.9233   -0.0692 H   0  0  0  0  0  0  0  0  0  0  0  0
   -3.5077   -0.3671   -1.4408 H   0  0  0  0  0  0  0  0  0  0  0  0
   -3.4702   -1.6286   -0.2090 H   0  0  0  0  0  0  0  0  0  0  0  0
   -2.6223    1.2765    0.2161 H   0  0  0  0  0  0  0  0  0  0  0  0
   -2.5849    0.0155    1.4474 H   0  0  0  0  0  0  0  0  0  0  0  0
   -1.0046   -0.0106   -1.1671 H   0  0  0  0  0  0  0  0  0  0  0  0
   -0.9667   -1.2874    0.0796 H   0  0  0  0  0  0  0  0  0  0  0  0
    1.0338   -1.1593   -1.1277 H   0  0  0  0  0  0  0  0  0  0  0  0
    3.4692   -1.3382   -1.3850 H   0  0  0  0  0  0  0  0  0  0  0  0
    5.9494    0.6630    0.5890 H   0  0  0  0  0  0  0  0  0  0  0  0
    4.0424    1.6242    1.6315 H   0  0  0  0  0  0  0  0  0  0  0  0
    1.5880    1.8124    1.8989 H   0  0  0  0  0  0  0  0  0  0  0  0
  1  2  1  0  0  0  0
  2  3  1  0  0  0  0
  3  4  1  0  0  0  0
  4  5  1  0  0  0  0
  5  6  1  0  0  0  0
  6  7  4  0  0  0  0
  7  8  4  0  0  0  0
  8  9  4  0  0  0  0
  9 10  1  0  0  0  0
 10 11  2  0  0  0  0
  9 12  4  0  0  0  0
  6 13  4  0  0  0  0
 12 13  2  0  0  0  0
  1 14  1  0  0  0  0
  1 15  1  0  0  0  0
  1 16  1  0  0  0  0
  2 17  1  0  0  0  0
  2 18  1  0  0  0  0
  3 19  1  0  0  0  0
  3 20  1  0  0  0  0
  4 21  1  0  0  0  0
  4 22  1  0  0  0  0
  7 23  1  0  0  0  0
  8 24  1  0  0  0  0
 10 25  1  0  0  0  0
 12 26  1  0  0  0  0
 13 27  1  0  0  0  0
M  END
