 xtb: 6.7.1 (edcfbbe)
          07082603433D

 24 23  0     0  0            999 V2000
    4.6641    0.1724    0.4692 C   0  0  0  0  0  0  0  0  0  0  0  0
    3.5443    0.1449   -0.5539 C   0  0  0  0  0  0  0  0  0  0  0  0
    2.2998    0.0862    0.1404 O   0  0  0  0  0  0  0  0  0  0  0  0
    1.1945    0.0552   -0.6195 C   0  0  0  0  0  0  0  0  0  0  0  0
    1.2180    0.0747   -1.8272 O   0  0  0  0  0  0  0  0  0  0  0  0
   -0.0158   -0.0044    0.2154 C   0  0  0  0  0  0  0  0  0  0  0  0
   -1.2297   -0.0429   -0.3259 C   0  0  0  0  0  0  0  0  0  0  0  0
   -2.5123   -0.1041    0.4350 C   0  0  0  0  0  0  0  0  0  0  0  0
   -3.3617    1.1263    0.1069 C   0  0  0  0  0  0  0  0  0  0  0  0
   -3.2647   -1.3858    0.0683 C   0  0  0  0  0  0  0  0  0  0  0  0
    4.5610    1.0418    1.1129 H   0  0  0  0  0  0  0  0  0  0  0  0
    5.6229    0.2172   -0.0391 H   0  0  0  0  0  0  0  0  0  0  0  0
    4.6291   -0.7218    1.0858 H   0  0  0  0  0  0  0  0  0  0  0  0
    3.6242   -0.7289   -1.2111 H   0  0  0  0  0  0  0  0  0  0  0  0
    3.5559    1.0420   -1.1838 H   0  0  0  0  0  0  0  0  0  0  0  0
    0.1495   -0.0144    1.2822 H   0  0  0  0  0  0  0  0  0  0  0  0
   -1.3120   -0.0295   -1.4057 H   0  0  0  0  0  0  0  0  0  0  0  0
   -2.2959   -0.1123    1.5083 H   0  0  0  0  0  0  0  0  0  0  0  0
   -3.5910    1.1559   -0.9558 H   0  0  0  0  0  0  0  0  0  0  0  0
   -4.2962    1.0967    0.6623 H   0  0  0  0  0  0  0  0  0  0  0  0
   -2.8297    2.0373    0.3707 H   0  0  0  0  0  0  0  0  0  0  0  0
   -4.1981   -1.4453    0.6231 H   0  0  0  0  0  0  0  0  0  0  0  0
   -2.6638   -2.2607    0.3046 H   0  0  0  0  0  0  0  0  0  0  0  0
   -3.4923   -1.4003   -0.9951 H   0  0  0  0  0  0  0  0  0  0  0  0
  1  2  1  0  0  0  0
  2  3  1  0  0  0  0
  3  4  1  0  0  0  0
  4  5  2  0  0  0  0
  4  6  1  0  0  0  0
  6  7  2  0  0  0  0
  7  8  1  0  0  0  0
  8  9  1  0  0  0  0
  8 10  1  0  0  0  0
  1 11  1  0  0  0  0
  1 12  1  0  0  0  0
  1 13  1  0  0  0  0
  2 14  1  0  0  0  0
  2 15  1  0  0  0  0
  6 16  1  0  0  0  0
  7 17  1  0  0  0  0
  8 18  1  0  0  0  0
  9 19  1  0  0  0  0
  9 20  1  0  0  0  0
  9 21  1  0  0  0  0
 10 22  1  0  0  0  0
 10 23  1  0  0  0  0
 10 24  1  0  0  0  0
M  END
