 xtb: 6.7.1 (edcfbbe)
          07092612173D

 23 23  0     0  0            999 V2000
    4.0109   -0.3838   -1.2271 C   0  0  0  0  0  0  0  0  0  0  0  0
    2.8989    0.3017   -1.0454 C   0  0  0  0  0  0  0  0  0  0  0  0
    1.8116   -0.0842   -0.0937 C   0  0  0  0  0  0  0  0  0  0  0  0
    1.3546    1.0757    0.5715 O   0  0  0  0  0  0  0  0  0  0  0  0
    0.2964    0.8258    1.4669 C   0  0  0  0  0  0  0  0  0  0  0  0
   -0.9885    0.4226    0.7830 C   0  0  0  0  0  0  0  0  0  0  0  0
   -1.4030    1.1059   -0.3540 C   0  0  0  0  0  0  0  0  0  0  0  0
   -2.5738    0.7497   -0.9976 C   0  0  0  0  0  0  0  0  0  0  0  0
   -3.3470   -0.2892   -0.5062 C   0  0  0  0  0  0  0  0  0  0  0  0
   -2.9413   -0.9724    0.6272 C   0  0  0  0  0  0  0  0  0  0  0  0
   -1.7643   -0.6219    1.2660 C   0  0  0  0  0  0  0  0  0  0  0  0
    4.7576   -0.0760   -1.9384 H   0  0  0  0  0  0  0  0  0  0  0  0
    4.2172   -1.2881   -0.6786 H   0  0  0  0  0  0  0  0  0  0  0  0
    2.7041    1.2128   -1.5925 H   0  0  0  0  0  0  0  0  0  0  0  0
    2.1741   -0.8247    0.6369 H   0  0  0  0  0  0  0  0  0  0  0  0
    0.9804   -0.5446   -0.6568 H   0  0  0  0  0  0  0  0  0  0  0  0
    0.1498    1.7719    1.9993 H   0  0  0  0  0  0  0  0  0  0  0  0
    0.5889    0.0560    2.1987 H   0  0  0  0  0  0  0  0  0  0  0  0
   -0.7913    1.9130   -0.7299 H   0  0  0  0  0  0  0  0  0  0  0  0
   -2.8856    1.2846   -1.8829 H   0  0  0  0  0  0  0  0  0  0  0  0
   -4.2629   -0.5668   -1.0068 H   0  0  0  0  0  0  0  0  0  0  0  0
   -3.5400   -1.7848    1.0126 H   0  0  0  0  0  0  0  0  0  0  0  0
   -1.4470   -1.1614    2.1476 H   0  0  0  0  0  0  0  0  0  0  0  0
  1  2  2  0  0  0  0
  2  3  1  0  0  0  0
  3  4  1  0  0  0  0
  4  5  1  0  0  0  0
  5  6  1  0  0  0  0
  6  7  4  0  0  0  0
  7  8  4  0  0  0  0
  8  9  4  0  0  0  0
  9 10  4  0  0  0  0
  6 11  4  0  0  0  0
 10 11  4  0  0  0  0
  1 12  1  0  0  0  0
  1 13  1  0  0  0  0
  2 14  1  0  0  0  0
  3 15  1  0  0  0  0
  3 16  1  0  0  0  0
  5 17  1  0  0  0  0
  5 18  1  0  0  0  0
  7 19  1  0  0  0  0
  8 20  1  0  0  0  0
  9 21  1  0  0  0  0
 10 22  1  0  0  0  0
 11 23  1  0  0  0  0
M  END
