 xtb: 6.7.1 (edcfbbe)
          07072617203D

 35 36  0     0  0            999 V2000
    0.0964   -2.4829    1.1833 O   0  0  0  0  0  0  0  0  0  0  0  0
   -0.2505   -1.5198    0.5359 C   0  0  0  0  0  0  0  0  0  0  0  0
    0.0969   -0.2758    0.8055 O   0  0  0  0  0  0  0  0  0  0  0  0
    0.9661   -0.0592    1.9297 C   0  0  0  0  0  0  0  0  0  0  0  0
    2.4329   -0.2803    1.5352 C   0  0  0  0  0  0  0  0  0  0  0  0
    2.9285    1.1089    1.1449 C   0  0  0  0  0  0  0  0  0  0  0  0
    2.2631    2.0048    2.1860 C   0  0  0  0  0  0  0  0  0  0  0  0
    0.8530    1.4217    2.3255 C   0  0  0  0  0  0  0  0  0  0  0  0
   -1.1606   -1.6823   -0.6823 C   0  0  0  0  0  0  0  0  0  0  0  0
   -1.3699   -3.0678   -0.8573 O   0  0  0  0  0  0  0  0  0  0  0  0
   -2.5272   -1.0098   -0.4397 C   0  0  0  0  0  0  0  0  0  0  0  0
   -2.4883    0.5093   -0.5450 C   0  0  0  0  0  0  0  0  0  0  0  0
   -1.9098    0.9399   -1.8882 C   0  0  0  0  0  0  0  0  0  0  0  0
   -0.4971    0.3890   -2.0459 C   0  0  0  0  0  0  0  0  0  0  0  0
   -0.5000   -1.1321   -1.9604 C   0  0  0  0  0  0  0  0  0  0  0  0
    0.6564   -0.7465    2.7230 H   0  0  0  0  0  0  0  0  0  0  0  0
    2.9850   -0.6496    2.3994 H   0  0  0  0  0  0  0  0  0  0  0  0
    2.5205   -1.0114    0.7332 H   0  0  0  0  0  0  0  0  0  0  0  0
    2.5717    1.3660    0.1465 H   0  0  0  0  0  0  0  0  0  0  0  0
    4.0142    1.1826    1.1569 H   0  0  0  0  0  0  0  0  0  0  0  0
    2.7969    1.9237    3.1338 H   0  0  0  0  0  0  0  0  0  0  0  0
    2.2454    3.0523    1.8909 H   0  0  0  0  0  0  0  0  0  0  0  0
    0.4555    1.5412    3.3314 H   0  0  0  0  0  0  0  0  0  0  0  0
    0.1700    1.9070    1.6282 H   0  0  0  0  0  0  0  0  0  0  0  0
   -0.9332   -3.5222   -0.1173 H   0  0  0  0  0  0  0  0  0  0  0  0
   -2.9043   -1.3188    0.5381 H   0  0  0  0  0  0  0  0  0  0  0  0
   -3.2006   -1.4158   -1.1974 H   0  0  0  0  0  0  0  0  0  0  0  0
   -1.8780    0.9198    0.2602 H   0  0  0  0  0  0  0  0  0  0  0  0
   -3.5024    0.8983   -0.4303 H   0  0  0  0  0  0  0  0  0  0  0  0
   -2.5415    0.5617   -2.6950 H   0  0  0  0  0  0  0  0  0  0  0  0
   -1.8940    2.0296   -1.9547 H   0  0  0  0  0  0  0  0  0  0  0  0
   -0.0831    0.6877   -3.0115 H   0  0  0  0  0  0  0  0  0  0  0  0
    0.1397    0.8026   -1.2635 H   0  0  0  0  0  0  0  0  0  0  0  0
   -1.0691   -1.5481   -2.7943 H   0  0  0  0  0  0  0  0  0  0  0  0
    0.5177   -1.5236   -2.0281 H   0  0  0  0  0  0  0  0  0  0  0  0
  1  2  2  0  0  0  0
  2  3  1  0  0  0  0
  3  4  1  0  0  0  0
  4  5  1  0  0  0  0
  5  6  1  0  0  0  0
  6  7  1  0  0  0  0
  4  8  1  0  0  0  0
  7  8  1  0  0  0  0
  2  9  1  0  0  0  0
  9 10  1  0  0  0  0
  9 11  1  0  0  0  0
 11 12  1  0  0  0  0
 12 13  1  0  0  0  0
 13 14  1  0  0  0  0
  9 15  1  0  0  0  0
 14 15  1  0  0  0  0
  4 16  1  0  0  0  0
  5 17  1  0  0  0  0
  5 18  1  0  0  0  0
  6 19  1  0  0  0  0
  6 20  1  0  0  0  0
  7 21  1  0  0  0  0
  7 22  1  0  0  0  0
  8 23  1  0  0  0  0
  8 24  1  0  0  0  0
 10 25  1  0  0  0  0
 11 26  1  0  0  0  0
 11 27  1  0  0  0  0
 12 28  1  0  0  0  0
 12 29  1  0  0  0  0
 13 30  1  0  0  0  0
 13 31  1  0  0  0  0
 14 32  1  0  0  0  0
 14 33  1  0  0  0  0
 15 34  1  0  0  0  0
 15 35  1  0  0  0  0
M  END
