 xtb: 6.7.1 (edcfbbe)
          07092613343D

 19 19  0     0  0            999 V2000
   -2.5394   -1.1453    0.6789 C   0  0  0  0  0  0  0  0  0  0  0  0
   -2.0055    0.1574    0.6415 O   0  0  0  0  0  0  0  0  0  0  0  0
   -0.6985    0.3034    0.2481 C   0  0  0  0  0  0  0  0  0  0  0  0
    0.1541   -0.7134   -0.1188 C   0  0  0  0  0  0  0  0  0  0  0  0
    1.4709   -0.4265   -0.5014 C   0  0  0  0  0  0  0  0  0  0  0  0
    2.3535   -1.5250   -0.8857 C   0  0  0  0  0  0  0  0  0  0  0  0
    2.0492   -2.6933   -0.9067 O   0  0  0  0  0  0  0  0  0  0  0  0
    1.9183    0.8916   -0.5102 C   0  0  0  0  0  0  0  0  0  0  0  0
    1.0679    1.9156   -0.1433 C   0  0  0  0  0  0  0  0  0  0  0  0
   -0.2379    1.6378    0.2367 C   0  0  0  0  0  0  0  0  0  0  0  0
   -1.0641    2.6427    0.5942 O   0  0  0  0  0  0  0  0  0  0  0  0
   -1.9949   -1.7774    1.3861 H   0  0  0  0  0  0  0  0  0  0  0  0
   -3.5698   -1.0318    1.0117 H   0  0  0  0  0  0  0  0  0  0  0  0
   -2.5247   -1.6090   -0.3115 H   0  0  0  0  0  0  0  0  0  0  0  0
   -0.1529   -1.7473   -0.1256 H   0  0  0  0  0  0  0  0  0  0  0  0
    3.3734   -1.1983   -1.1717 H   0  0  0  0  0  0  0  0  0  0  0  0
    2.9331    1.1120   -0.8051 H   0  0  0  0  0  0  0  0  0  0  0  0
    1.3915    2.9440   -0.1423 H   0  0  0  0  0  0  0  0  0  0  0  0
   -1.9243    2.2628    0.8250 H   0  0  0  0  0  0  0  0  0  0  0  0
  1  2  1  0  0  0  0
  2  3  1  0  0  0  0
  3  4  4  0  0  0  0
  4  5  4  0  0  0  0
  5  6  1  0  0  0  0
  6  7  2  0  0  0  0
  5  8  4  0  0  0  0
  8  9  4  0  0  0  0
  3 10  4  0  0  0  0
  9 10  4  0  0  0  0
 10 11  1  0  0  0  0
  1 12  1  0  0  0  0
  1 13  1  0  0  0  0
  1 14  1  0  0  0  0
  4 15  1  0  0  0  0
  6 16  1  0  0  0  0
  8 17  1  0  0  0  0
  9 18  1  0  0  0  0
 11 19  1  0  0  0  0
M  END
