 xtb: 6.7.1 (edcfbbe)
          07092606303D

 29 28  0     0  0            999 V2000
    3.0145    1.2260    0.7728 C   0  0  0  0  0  0  0  0  0  0  0  0
    3.2594   -0.1770    0.2315 C   0  0  0  0  0  0  0  0  0  0  0  0
    2.1467   -0.6160   -0.7194 C   0  0  0  0  0  0  0  0  0  0  0  0
    0.8370   -0.8197    0.0199 C   0  0  0  0  0  0  0  0  0  0  0  0
    0.7519   -1.2902    1.1249 O   0  0  0  0  0  0  0  0  0  0  0  0
   -0.1790   -0.4197   -0.7386 O   0  0  0  0  0  0  0  0  0  0  0  0
   -1.5530   -0.5100   -0.2839 C   0  0  0  0  0  0  0  0  0  0  0  0
   -2.3752   -0.0120   -1.4732 C   0  0  0  0  0  0  0  0  0  0  0  0
   -1.9135   -1.9638    0.0269 C   0  0  0  0  0  0  0  0  0  0  0  0
   -1.7592    0.3659    0.9631 C   0  0  0  0  0  0  0  0  0  0  0  0
   -1.4012    1.8334    0.7530 C   0  0  0  0  0  0  0  0  0  0  0  0
    2.9461    1.9463   -0.0405 H   0  0  0  0  0  0  0  0  0  0  0  0
    2.0873    1.2539    1.3405 H   0  0  0  0  0  0  0  0  0  0  0  0
    3.8262    1.5268    1.4308 H   0  0  0  0  0  0  0  0  0  0  0  0
    4.2144   -0.2066   -0.2966 H   0  0  0  0  0  0  0  0  0  0  0  0
    3.3037   -0.8830    1.0622 H   0  0  0  0  0  0  0  0  0  0  0  0
    2.4067   -1.5747   -1.1755 H   0  0  0  0  0  0  0  0  0  0  0  0
    1.9930    0.1119   -1.5165 H   0  0  0  0  0  0  0  0  0  0  0  0
   -3.4210    0.0729   -1.1929 H   0  0  0  0  0  0  0  0  0  0  0  0
   -2.2855   -0.7095   -2.3019 H   0  0  0  0  0  0  0  0  0  0  0  0
   -2.0112    0.9561   -1.8030 H   0  0  0  0  0  0  0  0  0  0  0  0
   -2.9753   -2.0376    0.2449 H   0  0  0  0  0  0  0  0  0  0  0  0
   -1.6854   -2.5946   -0.8299 H   0  0  0  0  0  0  0  0  0  0  0  0
   -1.3509   -2.3220    0.8844 H   0  0  0  0  0  0  0  0  0  0  0  0
   -1.1434   -0.0416    1.7662 H   0  0  0  0  0  0  0  0  0  0  0  0
   -2.8042    0.2803    1.2657 H   0  0  0  0  0  0  0  0  0  0  0  0
   -2.1021    2.3188    0.0786 H   0  0  0  0  0  0  0  0  0  0  0  0
   -1.4271    2.3584    1.7050 H   0  0  0  0  0  0  0  0  0  0  0  0
   -0.3997    1.9271    0.3385 H   0  0  0  0  0  0  0  0  0  0  0  0
  1  2  1  0  0  0  0
  2  3  1  0  0  0  0
  3  4  1  0  0  0  0
  4  5  2  0  0  0  0
  4  6  1  0  0  0  0
  6  7  1  0  0  0  0
  7  8  1  0  0  0  0
  7  9  1  0  0  0  0
  7 10  1  0  0  0  0
 10 11  1  0  0  0  0
  1 12  1  0  0  0  0
  1 13  1  0  0  0  0
  1 14  1  0  0  0  0
  2 15  1  0  0  0  0
  2 16  1  0  0  0  0
  3 17  1  0  0  0  0
  3 18  1  0  0  0  0
  8 19  1  0  0  0  0
  8 20  1  0  0  0  0
  8 21  1  0  0  0  0
  9 22  1  0  0  0  0
  9 23  1  0  0  0  0
  9 24  1  0  0  0  0
 10 25  1  0  0  0  0
 10 26  1  0  0  0  0
 11 27  1  0  0  0  0
 11 28  1  0  0  0  0
 11 29  1  0  0  0  0
M  END
