 xtb: 6.7.1 (edcfbbe)
          07082613023D

 22 22  0     0  0            999 V2000
   -1.2356   -1.5843    0.9028 C   0  0  0  0  0  0  0  0  0  0  0  0
   -1.1295   -0.3352    0.0781 C   0  0  0  0  0  0  0  0  0  0  0  0
   -2.2554    0.4551   -0.1166 C   0  0  0  0  0  0  0  0  0  0  0  0
   -2.2039    1.6085   -0.8779 C   0  0  0  0  0  0  0  0  0  0  0  0
   -1.0104    1.9872   -1.4652 C   0  0  0  0  0  0  0  0  0  0  0  0
    0.1160    1.2066   -1.2816 C   0  0  0  0  0  0  0  0  0  0  0  0
    0.0753    0.0473   -0.5171 C   0  0  0  0  0  0  0  0  0  0  0  0
    1.3424   -0.7378   -0.3244 C   0  0  0  0  0  0  0  0  0  0  0  0
    2.1353   -0.2013    0.8703 C   0  0  0  0  0  0  0  0  0  0  0  0
    3.2983   -0.9866    1.0208 O   0  0  0  0  0  0  0  0  0  0  0  0
   -2.2254   -1.6640    1.3458 H   0  0  0  0  0  0  0  0  0  0  0  0
   -0.4982   -1.5919    1.7028 H   0  0  0  0  0  0  0  0  0  0  0  0
   -1.0677   -2.4652    0.2834 H   0  0  0  0  0  0  0  0  0  0  0  0
   -3.1907    0.1606    0.3387 H   0  0  0  0  0  0  0  0  0  0  0  0
   -3.0928    2.2069   -1.0134 H   0  0  0  0  0  0  0  0  0  0  0  0
   -0.9568    2.8843   -2.0643 H   0  0  0  0  0  0  0  0  0  0  0  0
    1.0492    1.4976   -1.7430 H   0  0  0  0  0  0  0  0  0  0  0  0
    1.9746   -0.6558   -1.2100 H   0  0  0  0  0  0  0  0  0  0  0  0
    1.1391   -1.7942   -0.1546 H   0  0  0  0  0  0  0  0  0  0  0  0
    1.5186   -0.2472    1.7802 H   0  0  0  0  0  0  0  0  0  0  0  0
    2.3969    0.8520    0.6928 H   0  0  0  0  0  0  0  0  0  0  0  0
    3.8206   -0.6426    1.7521 H   0  0  0  0  0  0  0  0  0  0  0  0
  1  2  1  0  0  0  0
  2  3  4  0  0  0  0
  3  4  4  0  0  0  0
  4  5  4  0  0  0  0
  5  6  4  0  0  0  0
  2  7  4  0  0  0  0
  6  7  4  0  0  0  0
  7  8  1  0  0  0  0
  8  9  1  0  0  0  0
  9 10  1  0  0  0  0
  1 11  1  0  0  0  0
  1 12  1  0  0  0  0
  1 13  1  0  0  0  0
  3 14  1  0  0  0  0
  4 15  1  0  0  0  0
  5 16  1  0  0  0  0
  6 17  1  0  0  0  0
  8 18  1  0  0  0  0
  8 19  1  0  0  0  0
  9 20  1  0  0  0  0
  9 21  1  0  0  0  0
 10 22  1  0  0  0  0
M  END
