 xtb: 6.7.1 (edcfbbe)
          07082623583D

 24 24  0     0  0            999 V2000
    2.0332   -1.2306    0.8188 C   0  0  0  0  0  0  0  0  0  0  0  0
    1.4557   -0.2997   -0.2526 C   0  0  0  0  0  0  0  0  0  0  0  0
    0.8129   -1.1031   -1.3445 C   0  0  0  0  0  0  0  0  0  0  0  0
   -0.4912   -1.1729   -1.5511 C   0  0  0  0  0  0  0  0  0  0  0  0
   -1.5050   -0.4480   -0.7241 C   0  0  0  0  0  0  0  0  0  0  0  0
   -0.9134    0.0709    0.5867 C   0  0  0  0  0  0  0  0  0  0  0  0
   -1.8632    1.0490    1.2720 C   0  0  0  0  0  0  0  0  0  0  0  0
    0.4662    0.7151    0.3523 C   0  0  0  0  0  0  0  0  0  0  0  0
    0.3624    1.8921   -0.5767 C   0  0  0  0  0  0  0  0  0  0  0  0
    0.5252    3.0387   -0.2634 O   0  0  0  0  0  0  0  0  0  0  0  0
    2.5390   -0.6561    1.5913 H   0  0  0  0  0  0  0  0  0  0  0  0
    1.2472   -1.8227    1.2808 H   0  0  0  0  0  0  0  0  0  0  0  0
    2.7520   -1.9124    0.3702 H   0  0  0  0  0  0  0  0  0  0  0  0
    2.2959    0.2591   -0.6857 H   0  0  0  0  0  0  0  0  0  0  0  0
    1.4954   -1.6603   -1.9715 H   0  0  0  0  0  0  0  0  0  0  0  0
   -0.8840   -1.7697   -2.3631 H   0  0  0  0  0  0  0  0  0  0  0  0
   -1.9195    0.3821   -1.3057 H   0  0  0  0  0  0  0  0  0  0  0  0
   -2.3378   -1.1216   -0.5039 H   0  0  0  0  0  0  0  0  0  0  0  0
   -0.7596   -0.7853    1.2522 H   0  0  0  0  0  0  0  0  0  0  0  0
   -2.8264    0.5766    1.4534 H   0  0  0  0  0  0  0  0  0  0  0  0
   -1.4556    1.3749    2.2261 H   0  0  0  0  0  0  0  0  0  0  0  0
   -2.0219    1.9297    0.6531 H   0  0  0  0  0  0  0  0  0  0  0  0
    0.8499    1.0786    1.3116 H   0  0  0  0  0  0  0  0  0  0  0  0
    0.1428    1.6156   -1.6262 H   0  0  0  0  0  0  0  0  0  0  0  0
  1  2  1  0  0  0  0
  2  3  1  0  0  0  0
  3  4  2  0  0  0  0
  4  5  1  0  0  0  0
  5  6  1  0  0  0  0
  6  7  1  0  0  0  0
  2  8  1  0  0  0  0
  6  8  1  0  0  0  0
  8  9  1  0  0  0  0
  9 10  2  0  0  0  0
  1 11  1  0  0  0  0
  1 12  1  0  0  0  0
  1 13  1  0  0  0  0
  2 14  1  0  0  0  0
  3 15  1  0  0  0  0
  4 16  1  0  0  0  0
  5 17  1  0  0  0  0
  5 18  1  0  0  0  0
  6 19  1  0  0  0  0
  7 20  1  0  0  0  0
  7 21  1  0  0  0  0
  7 22  1  0  0  0  0
  8 23  1  0  0  0  0
  9 24  1  0  0  0  0
M  END
