 xtb: 6.7.1 (edcfbbe)
          07092619253D

 27 27  0     0  0            999 V2000
    3.5239   -0.1820   -0.6752 C   0  0  0  0  0  0  0  0  0  0  0  0
    2.3944   -0.3835   -0.0245 C   0  0  0  0  0  0  0  0  0  0  0  0
    1.1201   -0.8290   -0.6685 C   0  0  0  0  0  0  0  0  0  0  0  0
    0.0584    0.2910   -0.6310 C   0  0  0  0  0  0  0  0  0  0  0  0
   -1.2148   -0.1055   -1.3946 C   0  0  0  0  0  0  0  0  0  0  0  0
   -2.0336   -1.1599   -0.6566 C   0  0  0  0  0  0  0  0  0  0  0  0
   -2.3958   -0.6679    0.7399 C   0  0  0  0  0  0  0  0  0  0  0  0
   -1.1277   -0.3340    1.5316 C   0  0  0  0  0  0  0  0  0  0  0  0
   -0.3001    0.6591    0.7801 C   0  0  0  0  0  0  0  0  0  0  0  0
    0.0718    1.8222    1.3283 C   0  0  0  0  0  0  0  0  0  0  0  0
    0.8380    2.7887    0.6548 C   0  0  0  0  0  0  0  0  0  0  0  0
    1.4590    3.5969    0.1262 N   0  0  0  0  0  0  0  0  0  0  0  0
    3.6017   -0.3433   -1.7380 H   0  0  0  0  0  0  0  0  0  0  0  0
    4.4179    0.1518   -0.1775 H   0  0  0  0  0  0  0  0  0  0  0  0
    2.3422   -0.2080    1.0425 H   0  0  0  0  0  0  0  0  0  0  0  0
    0.7444   -1.7162   -0.1547 H   0  0  0  0  0  0  0  0  0  0  0  0
    1.3075   -1.0906   -1.7115 H   0  0  0  0  0  0  0  0  0  0  0  0
    0.5002    1.1647   -1.1238 H   0  0  0  0  0  0  0  0  0  0  0  0
   -1.8285    0.7894   -1.5268 H   0  0  0  0  0  0  0  0  0  0  0  0
   -0.9407   -0.4691   -2.3868 H   0  0  0  0  0  0  0  0  0  0  0  0
   -1.4691   -2.0914   -0.5842 H   0  0  0  0  0  0  0  0  0  0  0  0
   -2.9442   -1.3703   -1.2213 H   0  0  0  0  0  0  0  0  0  0  0  0
   -3.0149    0.2290    0.6604 H   0  0  0  0  0  0  0  0  0  0  0  0
   -2.9710   -1.4274    1.2728 H   0  0  0  0  0  0  0  0  0  0  0  0
   -1.3900    0.0545    2.5178 H   0  0  0  0  0  0  0  0  0  0  0  0
   -0.5502   -1.2516    1.6761 H   0  0  0  0  0  0  0  0  0  0  0  0
   -0.1988    2.0824    2.3443 H   0  0  0  0  0  0  0  0  0  0  0  0
  1  2  2  0  0  0  0
  2  3  1  0  0  0  0
  3  4  1  0  0  0  0
  4  5  1  0  0  0  0
  5  6  1  0  0  0  0
  6  7  1  0  0  0  0
  7  8  1  0  0  0  0
  4  9  1  0  0  0  0
  8  9  1  0  0  0  0
  9 10  2  0  0  0  0
 10 11  1  0  0  0  0
 11 12  3  0  0  0  0
  1 13  1  0  0  0  0
  1 14  1  0  0  0  0
  2 15  1  0  0  0  0
  3 16  1  0  0  0  0
  3 17  1  0  0  0  0
  4 18  1  0  0  0  0
  5 19  1  0  0  0  0
  5 20  1  0  0  0  0
  6 21  1  0  0  0  0
  6 22  1  0  0  0  0
  7 23  1  0  0  0  0
  7 24  1  0  0  0  0
  8 25  1  0  0  0  0
  8 26  1  0  0  0  0
 10 27  1  0  0  0  0
M  END
