 xtb: 6.7.1 (edcfbbe)
          07092617193D

 21 21  0     0  0            999 V2000
    3.6119   -0.9358    0.3334 C   0  0  0  0  0  0  0  0  0  0  0  0
    2.7929    0.3139    0.0728 C   0  0  0  0  0  0  0  0  0  0  0  0
    1.4113   -0.0489    0.0577 O   0  0  0  0  0  0  0  0  0  0  0  0
    0.5431    0.9414   -0.1611 C   0  0  0  0  0  0  0  0  0  0  0  0
    0.8734    2.0886   -0.3397 O   0  0  0  0  0  0  0  0  0  0  0  0
   -0.8688    0.4740   -0.1600 C   0  0  0  0  0  0  0  0  0  0  0  0
   -1.8756    1.4108   -0.3774 C   0  0  0  0  0  0  0  0  0  0  0  0
   -3.1994    1.0129   -0.3832 C   0  0  0  0  0  0  0  0  0  0  0  0
   -3.5308   -0.3155   -0.1736 C   0  0  0  0  0  0  0  0  0  0  0  0
   -2.5213   -1.2426    0.0423 C   0  0  0  0  0  0  0  0  0  0  0  0
   -2.9322   -2.9007    0.3042 Cl  0  0  0  0  0  0  0  0  0  0  0  0
   -1.1908   -0.8629    0.0517 C   0  0  0  0  0  0  0  0  0  0  0  0
    4.6680   -0.6831    0.3492 H   0  0  0  0  0  0  0  0  0  0  0  0
    3.3364   -1.3716    1.2900 H   0  0  0  0  0  0  0  0  0  0  0  0
    3.4338   -1.6702   -0.4476 H   0  0  0  0  0  0  0  0  0  0  0  0
    3.0490    0.7673   -0.8915 H   0  0  0  0  0  0  0  0  0  0  0  0
    2.9512    1.0671    0.8530 H   0  0  0  0  0  0  0  0  0  0  0  0
   -1.5970    2.4407   -0.5387 H   0  0  0  0  0  0  0  0  0  0  0  0
   -3.9820    1.7369   -0.5515 H   0  0  0  0  0  0  0  0  0  0  0  0
   -4.5615   -0.6341   -0.1766 H   0  0  0  0  0  0  0  0  0  0  0  0
   -0.4116   -1.5883    0.2200 H   0  0  0  0  0  0  0  0  0  0  0  0
  1  2  1  0  0  0  0
  2  3  1  0  0  0  0
  3  4  1  0  0  0  0
  4  5  2  0  0  0  0
  4  6  1  0  0  0  0
  6  7  4  0  0  0  0
  7  8  4  0  0  0  0
  8  9  4  0  0  0  0
  9 10  4  0  0  0  0
 10 11  1  0  0  0  0
  6 12  4  0  0  0  0
 10 12  4  0  0  0  0
  1 13  1  0  0  0  0
  1 14  1  0  0  0  0
  1 15  1  0  0  0  0
  2 16  1  0  0  0  0
  2 17  1  0  0  0  0
  7 18  1  0  0  0  0
  8 19  1  0  0  0  0
  9 20  1  0  0  0  0
 12 21  1  0  0  0  0
M  END
