 xtb: 6.7.1 (edcfbbe)
          07082622053D

 15 15  0     0  0            999 V2000
   -2.2754    0.0986    0.0684 C   0  0  0  0  0  0  0  0  0  0  0  0
   -0.7823    0.0078    0.0064 C   0  0  0  0  0  0  0  0  0  0  0  0
   -0.1458   -1.2190   -0.1422 C   0  0  0  0  0  0  0  0  0  0  0  0
    1.2333   -1.3046   -0.1781 C   0  0  0  0  0  0  0  0  0  0  0  0
    2.0041   -0.1582   -0.0650 C   0  0  0  0  0  0  0  0  0  0  0  0
    3.7245   -0.2684   -0.1130 Cl  0  0  0  0  0  0  0  0  0  0  0  0
    1.3789    1.0753    0.0850 C   0  0  0  0  0  0  0  0  0  0  0  0
    2.3166    2.5156    0.2263 Cl  0  0  0  0  0  0  0  0  0  0  0  0
   -0.0036    1.1520    0.1200 C   0  0  0  0  0  0  0  0  0  0  0  0
   -2.7359   -0.7072   -0.4972 H   0  0  0  0  0  0  0  0  0  0  0  0
   -2.6229    1.0512   -0.3227 H   0  0  0  0  0  0  0  0  0  0  0  0
   -2.6081    0.0175    1.1034 H   0  0  0  0  0  0  0  0  0  0  0  0
   -0.7345   -2.1194   -0.2323 H   0  0  0  0  0  0  0  0  0  0  0  0
    1.7220   -2.2588   -0.2954 H   0  0  0  0  0  0  0  0  0  0  0  0
   -0.4710    2.1177    0.2364 H   0  0  0  0  0  0  0  0  0  0  0  0
  1  2  1  0  0  0  0
  2  3  4  0  0  0  0
  3  4  4  0  0  0  0
  4  5  4  0  0  0  0
  5  6  1  0  0  0  0
  5  7  4  0  0  0  0
  7  8  1  0  0  0  0
  2  9  4  0  0  0  0
  7  9  4  0  0  0  0
  1 10  1  0  0  0  0
  1 11  1  0  0  0  0
  1 12  1  0  0  0  0
  3 13  1  0  0  0  0
  4 14  1  0  0  0  0
  9 15  1  0  0  0  0
M  END
