 xtb: 6.7.1 (edcfbbe)
          07082617233D

 12 11  0     0  0            999 V2000
   -0.4578    1.2701    0.0844 C   0  0  0  0  0  0  0  0  0  0  0  0
   -0.1142   -0.1274   -0.0242 N   0  0  0  0  0  0  0  0  0  0  0  0
    1.2815   -0.4563    0.0782 C   0  0  0  0  0  0  0  0  0  0  0  0
   -1.0758   -1.0460   -0.2108 C   0  0  0  0  0  0  0  0  0  0  0  0
   -2.2579   -0.8147   -0.3019 O   0  0  0  0  0  0  0  0  0  0  0  0
    0.0229    1.8448   -0.7105 H   0  0  0  0  0  0  0  0  0  0  0  0
   -1.5390    1.3555   -0.0078 H   0  0  0  0  0  0  0  0  0  0  0  0
   -0.1411    1.6673    1.0514 H   0  0  0  0  0  0  0  0  0  0  0  0
    1.4184   -1.5309   -0.0259 H   0  0  0  0  0  0  0  0  0  0  0  0
    1.6770   -0.1417    1.0482 H   0  0  0  0  0  0  0  0  0  0  0  0
    1.8501    0.0503   -0.7067 H   0  0  0  0  0  0  0  0  0  0  0  0
   -0.6641   -2.0710   -0.2745 H   0  0  0  0  0  0  0  0  0  0  0  0
  1  2  1  0  0  0  0
  2  3  1  0  0  0  0
  2  4  4  0  0  0  0
  4  5  2  0  0  0  0
  1  6  1  0  0  0  0
  1  7  1  0  0  0  0
  1  8  1  0  0  0  0
  3  9  1  0  0  0  0
  3 10  1  0  0  0  0
  3 11  1  0  0  0  0
  4 12  1  0  0  0  0
M  END
