 xtb: 6.7.1 (edcfbbe)
          07072614203D

 23 22  0     0  0            999 V2000
   -3.8968    0.4553   -0.6962 C   0  0  0  0  0  0  0  0  0  0  0  0
   -2.7083   -0.3251   -0.1456 C   0  0  0  0  0  0  0  0  0  0  0  0
   -1.3950    0.4048   -0.3550 C   0  0  0  0  0  0  0  0  0  0  0  0
   -0.0666   -0.6328    0.3452 S   0  0  0  0  0  0  0  0  0  0  0  0
   -0.2734   -0.7405    1.7640 O   0  0  0  0  0  0  0  0  0  0  0  0
    0.0002   -1.8558   -0.4079 O   0  0  0  0  0  0  0  0  0  0  0  0
    1.4700    0.3086    0.0554 C   0  0  0  0  0  0  0  0  0  0  0  0
    2.6210   -0.5041    0.6177 C   0  0  0  0  0  0  0  0  0  0  0  0
    3.9649    0.1913    0.4299 C   0  0  0  0  0  0  0  0  0  0  0  0
   -3.7842    0.6208   -1.7653 H   0  0  0  0  0  0  0  0  0  0  0  0
   -4.8180   -0.0961   -0.5291 H   0  0  0  0  0  0  0  0  0  0  0  0
   -3.9808    1.4221   -0.2049 H   0  0  0  0  0  0  0  0  0  0  0  0
   -2.8348   -0.4986    0.9244 H   0  0  0  0  0  0  0  0  0  0  0  0
   -2.6385   -1.2988   -0.6337 H   0  0  0  0  0  0  0  0  0  0  0  0
   -1.1668    0.5417   -1.4085 H   0  0  0  0  0  0  0  0  0  0  0  0
   -1.3661    1.3540    0.1732 H   0  0  0  0  0  0  0  0  0  0  0  0
    1.5560    0.4503   -1.0185 H   0  0  0  0  0  0  0  0  0  0  0  0
    1.3567    1.2625    0.5632 H   0  0  0  0  0  0  0  0  0  0  0  0
    2.4307   -0.6754    1.6786 H   0  0  0  0  0  0  0  0  0  0  0  0
    2.6270   -1.4756    0.1205 H   0  0  0  0  0  0  0  0  0  0  0  0
    3.9711    1.1551    0.9341 H   0  0  0  0  0  0  0  0  0  0  0  0
    4.7639   -0.4178    0.8434 H   0  0  0  0  0  0  0  0  0  0  0  0
    4.1677    0.3538   -0.6263 H   0  0  0  0  0  0  0  0  0  0  0  0
  1  2  1  0  0  0  0
  2  3  1  0  0  0  0
  3  4  1  0  0  0  0
  4  5  2  0  0  0  0
  4  6  2  0  0  0  0
  4  7  1  0  0  0  0
  7  8  1  0  0  0  0
  8  9  1  0  0  0  0
  1 10  1  0  0  0  0
  1 11  1  0  0  0  0
  1 12  1  0  0  0  0
  2 13  1  0  0  0  0
  2 14  1  0  0  0  0
  3 15  1  0  0  0  0
  3 16  1  0  0  0  0
  7 17  1  0  0  0  0
  7 18  1  0  0  0  0
  8 19  1  0  0  0  0
  8 20  1  0  0  0  0
  9 21  1  0  0  0  0
  9 22  1  0  0  0  0
  9 23  1  0  0  0  0
M  END
