 xtb: 6.7.1 (edcfbbe)
          07082616213D

 29 29  0     0  0            999 V2000
    3.7670   -0.0065   -0.7590 C   0  0  0  0  0  0  0  0  0  0  0  0
    2.3145   -0.0842   -0.3988 C   0  0  0  0  0  0  0  0  0  0  0  0
    1.8696    0.0897    0.8373 C   0  0  0  0  0  0  0  0  0  0  0  0
    0.4283    0.0372    1.2472 C   0  0  0  0  0  0  0  0  0  0  0  0
   -0.5421    0.1239    0.0550 C   0  0  0  0  0  0  0  0  0  0  0  0
   -0.6178    1.4631   -0.4066 O   0  0  0  0  0  0  0  0  0  0  0  0
   -1.9735   -0.2916    0.4800 C   0  0  0  0  0  0  0  0  0  0  0  0
   -2.4683    0.5548    1.6538 C   0  0  0  0  0  0  0  0  0  0  0  0
   -2.9622   -0.1560   -0.6787 C   0  0  0  0  0  0  0  0  0  0  0  0
   -0.0054   -0.8038   -1.0517 C   0  0  0  0  0  0  0  0  0  0  0  0
    1.3742   -0.3624   -1.5373 C   0  0  0  0  0  0  0  0  0  0  0  0
    3.9233    0.7302   -1.5469 H   0  0  0  0  0  0  0  0  0  0  0  0
    4.3704    0.2678    0.1024 H   0  0  0  0  0  0  0  0  0  0  0  0
    4.1138   -0.9692   -1.1346 H   0  0  0  0  0  0  0  0  0  0  0  0
    2.5685    0.2804    1.6416 H   0  0  0  0  0  0  0  0  0  0  0  0
    0.2472   -0.8896    1.8003 H   0  0  0  0  0  0  0  0  0  0  0  0
    0.2297    0.8687    1.9277 H   0  0  0  0  0  0  0  0  0  0  0  0
    0.2841    1.7767   -0.5290 H   0  0  0  0  0  0  0  0  0  0  0  0
   -1.9331   -1.3418    0.7910 H   0  0  0  0  0  0  0  0  0  0  0  0
   -1.8939    0.3646    2.5562 H   0  0  0  0  0  0  0  0  0  0  0  0
   -3.5098    0.3231    1.8642 H   0  0  0  0  0  0  0  0  0  0  0  0
   -2.3913    1.6083    1.3988 H   0  0  0  0  0  0  0  0  0  0  0  0
   -3.9768   -0.3114   -0.3192 H   0  0  0  0  0  0  0  0  0  0  0  0
   -2.8895    0.8418   -1.1015 H   0  0  0  0  0  0  0  0  0  0  0  0
   -2.7695   -0.8867   -1.4592 H   0  0  0  0  0  0  0  0  0  0  0  0
    0.0544   -1.8161   -0.6489 H   0  0  0  0  0  0  0  0  0  0  0  0
   -0.6901   -0.8074   -1.8985 H   0  0  0  0  0  0  0  0  0  0  0  0
    1.2795    0.5361   -2.1581 H   0  0  0  0  0  0  0  0  0  0  0  0
    1.7989   -1.1400   -2.1777 H   0  0  0  0  0  0  0  0  0  0  0  0
  1  2  1  0  0  0  0
  2  3  2  0  0  0  0
  3  4  1  0  0  0  0
  4  5  1  0  0  0  0
  5  6  1  0  0  0  0
  5  7  1  0  0  0  0
  7  8  1  0  0  0  0
  7  9  1  0  0  0  0
  5 10  1  0  0  0  0
  2 11  1  0  0  0  0
 10 11  1  0  0  0  0
  1 12  1  0  0  0  0
  1 13  1  0  0  0  0
  1 14  1  0  0  0  0
  3 15  1  0  0  0  0
  4 16  1  0  0  0  0
  4 17  1  0  0  0  0
  6 18  1  0  0  0  0
  7 19  1  0  0  0  0
  8 20  1  0  0  0  0
  8 21  1  0  0  0  0
  8 22  1  0  0  0  0
  9 23  1  0  0  0  0
  9 24  1  0  0  0  0
  9 25  1  0  0  0  0
 10 26  1  0  0  0  0
 10 27  1  0  0  0  0
 11 28  1  0  0  0  0
 11 29  1  0  0  0  0
M  END
