 xtb: 6.7.1 (edcfbbe)
          07062622143D

 59 59  0     0  0            999 V2000
    7.9896   -0.0806    0.5416 C   0  0  0  0  0  0  0  0  0  0  0  0
    7.4874    0.4661   -0.7616 C   0  0  0  0  0  0  0  0  0  0  0  0
    8.5033    1.2768   -1.5126 C   0  0  0  0  0  0  0  0  0  0  0  0
    6.2619    0.2822   -1.2385 C   0  0  0  0  0  0  0  0  0  0  0  0
    5.1449   -0.4716   -0.5836 C   0  0  0  0  0  0  0  0  0  0  0  0
    4.3283    0.4566    0.3365 C   0  0  0  0  0  0  0  0  0  0  0  0
    3.1819   -0.2782    0.9660 C   0  0  0  0  0  0  0  0  0  0  0  0
    3.5223   -1.2688    2.0410 C   0  0  0  0  0  0  0  0  0  0  0  0
    1.9323   -0.0900    0.5574 C   0  0  0  0  0  0  0  0  0  0  0  0
    0.7443   -0.8133    1.1037 C   0  0  0  0  0  0  0  0  0  0  0  0
   -0.4355   -0.2179    0.5732 O   0  0  0  0  0  0  0  0  0  0  0  0
   -1.5798   -0.8853    0.7734 C   0  0  0  0  0  0  0  0  0  0  0  0
   -1.6195   -1.9422    1.3663 O   0  0  0  0  0  0  0  0  0  0  0  0
   -2.6971   -0.1490    0.1873 C   0  0  0  0  0  0  0  0  0  0  0  0
   -2.5911    1.1054   -0.4110 C   0  0  0  0  0  0  0  0  0  0  0  0
   -3.8839    1.4333   -0.8137 C   0  0  0  0  0  0  0  0  0  0  0  0
   -4.3645    2.6739   -1.4971 C   0  0  0  0  0  0  0  0  0  0  0  0
   -5.1093    2.3138   -2.7828 C   0  0  0  0  0  0  0  0  0  0  0  0
   -5.2742    3.4636   -0.5535 C   0  0  0  0  0  0  0  0  0  0  0  0
   -4.7139    0.4499   -0.4852 N   0  0  0  0  0  0  0  0  0  0  0  0
   -4.0153   -0.4945    0.1113 N   0  0  0  0  0  0  0  0  0  0  0  0
   -4.7138   -1.6965    0.5653 C   0  0  0  0  0  0  0  0  0  0  0  0
   -4.5956   -1.8050    2.0872 C   0  0  0  0  0  0  0  0  0  0  0  0
   -4.1140   -2.9237   -0.1247 C   0  0  0  0  0  0  0  0  0  0  0  0
   -6.1858   -1.5598    0.1749 C   0  0  0  0  0  0  0  0  0  0  0  0
    7.3228   -0.8286    0.9585 H   0  0  0  0  0  0  0  0  0  0  0  0
    8.9739   -0.5268    0.4063 H   0  0  0  0  0  0  0  0  0  0  0  0
    8.0915    0.7283    1.2659 H   0  0  0  0  0  0  0  0  0  0  0  0
    8.0806    1.6979   -2.4208 H   0  0  0  0  0  0  0  0  0  0  0  0
    8.8717    2.0904   -0.8882 H   0  0  0  0  0  0  0  0  0  0  0  0
    9.3576    0.6559   -1.7825 H   0  0  0  0  0  0  0  0  0  0  0  0
    6.0020    0.7480   -2.1804 H   0  0  0  0  0  0  0  0  0  0  0  0
    5.5271   -1.3107   -0.0012 H   0  0  0  0  0  0  0  0  0  0  0  0
    4.4788   -0.8730   -1.3498 H   0  0  0  0  0  0  0  0  0  0  0  0
    3.9572    1.2973   -0.2514 H   0  0  0  0  0  0  0  0  0  0  0  0
    4.9893    0.8491    1.1123 H   0  0  0  0  0  0  0  0  0  0  0  0
    2.9034   -1.1055    2.9223 H   0  0  0  0  0  0  0  0  0  0  0  0
    4.5658   -1.1855    2.3316 H   0  0  0  0  0  0  0  0  0  0  0  0
    3.3367   -2.2863    1.6977 H   0  0  0  0  0  0  0  0  0  0  0  0
    1.7029    0.6197   -0.2229 H   0  0  0  0  0  0  0  0  0  0  0  0
    0.7078   -0.7608    2.2009 H   0  0  0  0  0  0  0  0  0  0  0  0
    0.7605   -1.8792    0.8337 H   0  0  0  0  0  0  0  0  0  0  0  0
   -1.6964    1.6812   -0.5247 H   0  0  0  0  0  0  0  0  0  0  0  0
   -3.4895    3.2850   -1.7448 H   0  0  0  0  0  0  0  0  0  0  0  0
   -4.4537    1.7786   -3.4661 H   0  0  0  0  0  0  0  0  0  0  0  0
   -5.9576    1.6771   -2.5465 H   0  0  0  0  0  0  0  0  0  0  0  0
   -5.4678    3.2134   -3.2781 H   0  0  0  0  0  0  0  0  0  0  0  0
   -4.7384    3.7370    0.3530 H   0  0  0  0  0  0  0  0  0  0  0  0
   -6.1326    2.8557   -0.2793 H   0  0  0  0  0  0  0  0  0  0  0  0
   -5.6252    4.3724   -1.0373 H   0  0  0  0  0  0  0  0  0  0  0  0
   -3.5615   -1.9562    2.3800 H   0  0  0  0  0  0  0  0  0  0  0  0
   -5.1798   -2.6508    2.4390 H   0  0  0  0  0  0  0  0  0  0  0  0
   -4.9724   -0.9000    2.5591 H   0  0  0  0  0  0  0  0  0  0  0  0
   -4.1303   -2.7940   -1.2049 H   0  0  0  0  0  0  0  0  0  0  0  0
   -4.6965   -3.8051    0.1287 H   0  0  0  0  0  0  0  0  0  0  0  0
   -3.0912   -3.0847    0.2002 H   0  0  0  0  0  0  0  0  0  0  0  0
   -6.7271   -2.4442    0.4997 H   0  0  0  0  0  0  0  0  0  0  0  0
   -6.2872   -1.4573   -0.9015 H   0  0  0  0  0  0  0  0  0  0  0  0
   -6.6249   -0.6836    0.6425 H   0  0  0  0  0  0  0  0  0  0  0  0
  1  2  1  0  0  0  0
  2  3  1  0  0  0  0
  2  4  2  0  0  0  0
  4  5  1  0  0  0  0
  5  6  1  0  0  0  0
  6  7  1  0  0  0  0
  7  8  1  0  0  0  0
  7  9  2  0  0  0  0
  9 10  1  0  0  0  0
 10 11  1  0  0  0  0
 11 12  1  0  0  0  0
 12 13  2  0  0  0  0
 12 14  1  0  0  0  0
 14 15  4  0  0  0  0
 15 16  4  0  0  0  0
 16 17  1  0  0  0  0
 17 18  1  0  0  0  0
 17 19  1  0  0  0  0
 16 20  4  0  0  0  0
 14 21  4  0  0  0  0
 20 21  4  0  0  0  0
 21 22  1  0  0  0  0
 22 23  1  0  0  0  0
 22 24  1  0  0  0  0
 22 25  1  0  0  0  0
  1 26  1  0  0  0  0
  1 27  1  0  0  0  0
  1 28  1  0  0  0  0
  3 29  1  0  0  0  0
  3 30  1  0  0  0  0
  3 31  1  0  0  0  0
  4 32  1  0  0  0  0
  5 33  1  0  0  0  0
  5 34  1  0  0  0  0
  6 35  1  0  0  0  0
  6 36  1  0  0  0  0
  8 37  1  0  0  0  0
  8 38  1  0  0  0  0
  8 39  1  0  0  0  0
  9 40  1  0  0  0  0
 10 41  1  0  0  0  0
 10 42  1  0  0  0  0
 15 43  1  0  0  0  0
 17 44  1  0  0  0  0
 18 45  1  0  0  0  0
 18 46  1  0  0  0  0
 18 47  1  0  0  0  0
 19 48  1  0  0  0  0
 19 49  1  0  0  0  0
 19 50  1  0  0  0  0
 23 51  1  0  0  0  0
 23 52  1  0  0  0  0
 23 53  1  0  0  0  0
 24 54  1  0  0  0  0
 24 55  1  0  0  0  0
 24 56  1  0  0  0  0
 25 57  1  0  0  0  0
 25 58  1  0  0  0  0
 25 59  1  0  0  0  0
M  END
