 xtb: 6.7.1 (edcfbbe)
          07062621093D

 41 41  0     0  0            999 V2000
   -6.1949   -0.8701   -1.6875 C   0  0  0  0  0  0  0  0  0  0  0  0
   -5.1815   -0.1610   -0.8363 C   0  0  0  0  0  0  0  0  0  0  0  0
   -5.7294    0.3280    0.4714 C   0  0  0  0  0  0  0  0  0  0  0  0
   -3.9265   -0.0108   -1.2426 C   0  0  0  0  0  0  0  0  0  0  0  0
   -2.8015    0.6400   -0.4997 C   0  0  0  0  0  0  0  0  0  0  0  0
   -1.9445   -0.4181    0.2221 C   0  0  0  0  0  0  0  0  0  0  0  0
   -0.8320    0.2324    0.9893 C   0  0  0  0  0  0  0  0  0  0  0  0
   -1.1990    0.9038    2.2804 C   0  0  0  0  0  0  0  0  0  0  0  0
    0.4109    0.2508    0.5226 C   0  0  0  0  0  0  0  0  0  0  0  0
    1.5586    0.9240    1.2142 C   0  0  0  0  0  0  0  0  0  0  0  0
    2.7773    0.6766    0.5143 O   0  0  0  0  0  0  0  0  0  0  0  0
    3.6010   -0.2377    1.0127 C   0  0  0  0  0  0  0  0  0  0  0  0
    3.4543   -0.8300    2.0467 O   0  0  0  0  0  0  0  0  0  0  0  0
    4.7695   -0.4363    0.0904 C   0  0  0  0  0  0  0  0  0  0  0  0
    4.5874   -0.7560   -1.2517 C   0  0  0  0  0  0  0  0  0  0  0  0
    3.3399   -0.8770   -1.7307 F   0  0  0  0  0  0  0  0  0  0  0  0
    5.6509   -0.9807   -2.1068 C   0  0  0  0  0  0  0  0  0  0  0  0
    6.9414   -0.8770   -1.6172 C   0  0  0  0  0  0  0  0  0  0  0  0
    7.1651   -0.5567   -0.2896 C   0  0  0  0  0  0  0  0  0  0  0  0
    6.0815   -0.3470    0.5452 C   0  0  0  0  0  0  0  0  0  0  0  0
    6.3082   -0.0151    1.8225 F   0  0  0  0  0  0  0  0  0  0  0  0
   -7.0071   -0.1927   -1.9513 H   0  0  0  0  0  0  0  0  0  0  0  0
   -5.7477   -1.2480   -2.6030 H   0  0  0  0  0  0  0  0  0  0  0  0
   -6.6283   -1.7063   -1.1394 H   0  0  0  0  0  0  0  0  0  0  0  0
   -6.6516    0.8838    0.3056 H   0  0  0  0  0  0  0  0  0  0  0  0
   -5.0302    0.9671    1.0005 H   0  0  0  0  0  0  0  0  0  0  0  0
   -5.9678   -0.5218    1.1116 H   0  0  0  0  0  0  0  0  0  0  0  0
   -3.6433   -0.4307   -2.1997 H   0  0  0  0  0  0  0  0  0  0  0  0
   -3.1731    1.3599    0.2294 H   0  0  0  0  0  0  0  0  0  0  0  0
   -2.1638    1.1776   -1.2049 H   0  0  0  0  0  0  0  0  0  0  0  0
   -1.5384   -1.1088   -0.5182 H   0  0  0  0  0  0  0  0  0  0  0  0
   -2.5851   -0.9835    0.9023 H   0  0  0  0  0  0  0  0  0  0  0  0
   -1.0310    1.9789    2.2178 H   0  0  0  0  0  0  0  0  0  0  0  0
   -2.2423    0.7288    2.5278 H   0  0  0  0  0  0  0  0  0  0  0  0
   -0.5826    0.5239    3.0944 H   0  0  0  0  0  0  0  0  0  0  0  0
    0.6644   -0.2307   -0.4103 H   0  0  0  0  0  0  0  0  0  0  0  0
    1.4314    2.0125    1.2238 H   0  0  0  0  0  0  0  0  0  0  0  0
    1.6617    0.5679    2.2471 H   0  0  0  0  0  0  0  0  0  0  0  0
    5.4566   -1.2322   -3.1370 H   0  0  0  0  0  0  0  0  0  0  0  0
    7.7787   -1.0470   -2.2755 H   0  0  0  0  0  0  0  0  0  0  0  0
    8.1626   -0.4681    0.1092 H   0  0  0  0  0  0  0  0  0  0  0  0
  1  2  1  0  0  0  0
  2  3  1  0  0  0  0
  2  4  2  0  0  0  0
  4  5  1  0  0  0  0
  5  6  1  0  0  0  0
  6  7  1  0  0  0  0
  7  8  1  0  0  0  0
  7  9  2  0  0  0  0
  9 10  1  0  0  0  0
 10 11  1  0  0  0  0
 11 12  1  0  0  0  0
 12 13  2  0  0  0  0
 12 14  1  0  0  0  0
 14 15  4  0  0  0  0
 15 16  1  0  0  0  0
 15 17  4  0  0  0  0
 17 18  4  0  0  0  0
 18 19  4  0  0  0  0
 14 20  4  0  0  0  0
 19 20  4  0  0  0  0
 20 21  1  0  0  0  0
  1 22  1  0  0  0  0
  1 23  1  0  0  0  0
  1 24  1  0  0  0  0
  3 25  1  0  0  0  0
  3 26  1  0  0  0  0
  3 27  1  0  0  0  0
  4 28  1  0  0  0  0
  5 29  1  0  0  0  0
  5 30  1  0  0  0  0
  6 31  1  0  0  0  0
  6 32  1  0  0  0  0
  8 33  1  0  0  0  0
  8 34  1  0  0  0  0
  8 35  1  0  0  0  0
  9 36  1  0  0  0  0
 10 37  1  0  0  0  0
 10 38  1  0  0  0  0
 17 39  1  0  0  0  0
 18 40  1  0  0  0  0
 19 41  1  0  0  0  0
M  END
