 xtb: 6.7.1 (edcfbbe)
          07082617043D

 26 26  0     0  0            999 V2000
    3.7280    0.1306    0.5492 C   0  0  0  0  0  0  0  0  0  0  0  0
    2.2453   -0.0364    0.4793 C   0  0  0  0  0  0  0  0  0  0  0  0
    1.4908   -0.4322    1.5062 C   0  0  0  0  0  0  0  0  0  0  0  0
    0.0603   -0.6088    1.3589 C   0  0  0  0  0  0  0  0  0  0  0  0
   -0.6016   -0.1049    0.3140 C   0  0  0  0  0  0  0  0  0  0  0  0
   -2.0877   -0.2701    0.1443 C   0  0  0  0  0  0  0  0  0  0  0  0
   -2.7887    1.0794   -0.0255 C   0  0  0  0  0  0  0  0  0  0  0  0
   -2.3977   -1.1904   -1.0407 C   0  0  0  0  0  0  0  0  0  0  0  0
    0.1650    0.7101   -0.6956 C   0  0  0  0  0  0  0  0  0  0  0  0
    1.5902    0.1879   -0.8587 C   0  0  0  0  0  0  0  0  0  0  0  0
    4.2132   -0.4854   -0.2085 H   0  0  0  0  0  0  0  0  0  0  0  0
    4.0022    1.1681    0.3538 H   0  0  0  0  0  0  0  0  0  0  0  0
    4.1084   -0.1508    1.5280 H   0  0  0  0  0  0  0  0  0  0  0  0
    1.9287   -0.6473    2.4704 H   0  0  0  0  0  0  0  0  0  0  0  0
   -0.4576   -1.1592    2.1317 H   0  0  0  0  0  0  0  0  0  0  0  0
   -2.4780   -0.7468    1.0509 H   0  0  0  0  0  0  0  0  0  0  0  0
   -2.4726    1.5697   -0.9427 H   0  0  0  0  0  0  0  0  0  0  0  0
   -2.5593    1.7330    0.8130 H   0  0  0  0  0  0  0  0  0  0  0  0
   -3.8666    0.9381   -0.0683 H   0  0  0  0  0  0  0  0  0  0  0  0
   -3.4698   -1.3588   -1.1152 H   0  0  0  0  0  0  0  0  0  0  0  0
   -2.0564   -0.7502   -1.9747 H   0  0  0  0  0  0  0  0  0  0  0  0
   -1.9036   -2.1506   -0.9115 H   0  0  0  0  0  0  0  0  0  0  0  0
   -0.3376    0.7084   -1.6630 H   0  0  0  0  0  0  0  0  0  0  0  0
    0.1973    1.7480   -0.3421 H   0  0  0  0  0  0  0  0  0  0  0  0
    2.1767    0.8876   -1.4577 H   0  0  0  0  0  0  0  0  0  0  0  0
    1.5712   -0.7692   -1.3957 H   0  0  0  0  0  0  0  0  0  0  0  0
  1  2  1  0  0  0  0
  2  3  2  0  0  0  0
  3  4  1  0  0  0  0
  4  5  2  0  0  0  0
  5  6  1  0  0  0  0
  6  7  1  0  0  0  0
  6  8  1  0  0  0  0
  5  9  1  0  0  0  0
  2 10  1  0  0  0  0
  9 10  1  0  0  0  0
  1 11  1  0  0  0  0
  1 12  1  0  0  0  0
  1 13  1  0  0  0  0
  3 14  1  0  0  0  0
  4 15  1  0  0  0  0
  6 16  1  0  0  0  0
  7 17  1  0  0  0  0
  7 18  1  0  0  0  0
  7 19  1  0  0  0  0
  8 20  1  0  0  0  0
  8 21  1  0  0  0  0
  8 22  1  0  0  0  0
  9 23  1  0  0  0  0
  9 24  1  0  0  0  0
 10 25  1  0  0  0  0
 10 26  1  0  0  0  0
M  END
