 xtb: 6.7.1 (edcfbbe)
          07062617263D

 59 61  0     0  0            999 V2000
    3.1648   -2.2434    0.4479 C   0  0  0  0  0  0  0  0  0  0  0  0
    3.9500   -1.9658   -0.8012 C   0  0  0  0  0  0  0  0  0  0  0  0
    5.4106   -1.7238   -0.5627 C   0  0  0  0  0  0  0  0  0  0  0  0
    3.3617   -1.9361   -1.9909 C   0  0  0  0  0  0  0  0  0  0  0  0
    4.0103   -1.6284   -3.3072 C   0  0  0  0  0  0  0  0  0  0  0  0
    4.0718   -0.1067   -3.5557 C   0  0  0  0  0  0  0  0  0  0  0  0
    2.6910    0.4906   -3.5204 C   0  0  0  0  0  0  0  0  0  0  0  0
    1.9536    0.4631   -4.8231 C   0  0  0  0  0  0  0  0  0  0  0  0
    2.2145    0.9777   -2.3805 C   0  0  0  0  0  0  0  0  0  0  0  0
    0.8540    1.5327   -2.1175 C   0  0  0  0  0  0  0  0  0  0  0  0
    0.3743    0.9079   -0.9195 O   0  0  0  0  0  0  0  0  0  0  0  0
   -0.7946    1.3360   -0.4453 C   0  0  0  0  0  0  0  0  0  0  0  0
   -1.4651    2.1957   -0.9677 O   0  0  0  0  0  0  0  0  0  0  0  0
   -1.1070    0.6497    0.8145 C   0  0  0  0  0  0  0  0  0  0  0  0
   -0.2245   -0.0118    1.6503 C   0  0  0  0  0  0  0  0  0  0  0  0
   -0.9610   -0.3106    2.8092 C   0  0  0  0  0  0  0  0  0  0  0  0
   -0.5021   -1.0521    4.0229 C   0  0  0  0  0  0  0  0  0  0  0  0
   -1.0623   -2.4769    3.9867 C   0  0  0  0  0  0  0  0  0  0  0  0
   -0.9499   -0.3292    5.2922 C   0  0  0  0  0  0  0  0  0  0  0  0
   -2.1965    0.1418    2.6871 N   0  0  0  0  0  0  0  0  0  0  0  0
   -2.2945    0.7150    1.4902 N   0  0  0  0  0  0  0  0  0  0  0  0
   -3.5271    1.2352    1.0912 C   0  0  0  0  0  0  0  0  0  0  0  0
   -4.3332    1.8271    2.0645 C   0  0  0  0  0  0  0  0  0  0  0  0
   -5.5653    2.3376    1.7204 C   0  0  0  0  0  0  0  0  0  0  0  0
   -5.9927    2.2500    0.3995 C   0  0  0  0  0  0  0  0  0  0  0  0
   -7.2765    2.7878    0.0336 N   0  0  0  0  0  0  0  0  0  0  0  0
   -7.9337    3.3187    0.9043 O   0  0  0  0  0  0  0  0  0  0  0  0
   -7.6265    2.6764   -1.1224 O   0  0  0  0  0  0  0  0  0  0  0  0
   -5.2059    1.6377   -0.5700 C   0  0  0  0  0  0  0  0  0  0  0  0
   -3.9760    1.1205   -0.2229 C   0  0  0  0  0  0  0  0  0  0  0  0
    2.1013   -2.3170    0.2355 H   0  0  0  0  0  0  0  0  0  0  0  0
    3.3259   -1.4484    1.1760 H   0  0  0  0  0  0  0  0  0  0  0  0
    3.4944   -3.1773    0.9039 H   0  0  0  0  0  0  0  0  0  0  0  0
    5.8136   -2.4902    0.0984 H   0  0  0  0  0  0  0  0  0  0  0  0
    5.9828   -1.7227   -1.4849 H   0  0  0  0  0  0  0  0  0  0  0  0
    5.5517   -0.7598   -0.0727 H   0  0  0  0  0  0  0  0  0  0  0  0
    2.2941   -2.1040   -2.0391 H   0  0  0  0  0  0  0  0  0  0  0  0
    5.0251   -2.0280   -3.3476 H   0  0  0  0  0  0  0  0  0  0  0  0
    3.4358   -2.0997   -4.1068 H   0  0  0  0  0  0  0  0  0  0  0  0
    4.5352    0.0780   -4.5269 H   0  0  0  0  0  0  0  0  0  0  0  0
    4.6933    0.3448   -2.7820 H   0  0  0  0  0  0  0  0  0  0  0  0
    2.2971    1.2826   -5.4551 H   0  0  0  0  0  0  0  0  0  0  0  0
    2.1572   -0.4676   -5.3490 H   0  0  0  0  0  0  0  0  0  0  0  0
    0.8801    0.5635   -4.6951 H   0  0  0  0  0  0  0  0  0  0  0  0
    2.8377    0.9542   -1.4975 H   0  0  0  0  0  0  0  0  0  0  0  0
    0.1436    1.3389   -2.9266 H   0  0  0  0  0  0  0  0  0  0  0  0
    0.8864    2.6184   -1.9532 H   0  0  0  0  0  0  0  0  0  0  0  0
    0.8037   -0.2279    1.4480 H   0  0  0  0  0  0  0  0  0  0  0  0
    0.5920   -1.1013    3.9970 H   0  0  0  0  0  0  0  0  0  0  0  0
   -0.7216   -3.0369    4.8541 H   0  0  0  0  0  0  0  0  0  0  0  0
   -2.1488   -2.4452    3.9930 H   0  0  0  0  0  0  0  0  0  0  0  0
   -0.7342   -2.9948    3.0880 H   0  0  0  0  0  0  0  0  0  0  0  0
   -0.6226   -0.8763    6.1730 H   0  0  0  0  0  0  0  0  0  0  0  0
   -2.0333   -0.2510    5.3055 H   0  0  0  0  0  0  0  0  0  0  0  0
   -0.5295    0.6731    5.3293 H   0  0  0  0  0  0  0  0  0  0  0  0
   -3.9732    1.8730    3.0797 H   0  0  0  0  0  0  0  0  0  0  0  0
   -6.2038    2.8086    2.4518 H   0  0  0  0  0  0  0  0  0  0  0  0
   -5.5754    1.5690   -1.5815 H   0  0  0  0  0  0  0  0  0  0  0  0
   -3.3708    0.6278   -0.9650 H   0  0  0  0  0  0  0  0  0  0  0  0
  1  2  1  0  0  0  0
  2  3  1  0  0  0  0
  2  4  2  0  0  0  0
  4  5  1  0  0  0  0
  5  6  1  0  0  0  0
  6  7  1  0  0  0  0
  7  8  1  0  0  0  0
  7  9  2  0  0  0  0
  9 10  1  0  0  0  0
 10 11  1  0  0  0  0
 11 12  1  0  0  0  0
 12 13  2  0  0  0  0
 12 14  1  0  0  0  0
 14 15  4  0  0  0  0
 15 16  4  0  0  0  0
 16 17  1  0  0  0  0
 17 18  1  0  0  0  0
 17 19  1  0  0  0  0
 16 20  4  0  0  0  0
 14 21  1  0  0  0  0
 20 21  1  0  0  0  0
 21 22  1  0  0  0  0
 22 23  4  0  0  0  0
 23 24  4  0  0  0  0
 24 25  4  0  0  0  0
 25 26  1  0  0  0  0
 26 27  4  0  0  0  0
 26 28  4  0  0  0  0
 27 28  1  0  0  0  0
 25 29  4  0  0  0  0
 22 30  4  0  0  0  0
 29 30  4  0  0  0  0
  1 31  1  0  0  0  0
  1 32  1  0  0  0  0
  1 33  1  0  0  0  0
  3 34  1  0  0  0  0
  3 35  1  0  0  0  0
  3 36  1  0  0  0  0
  4 37  1  0  0  0  0
  5 38  1  0  0  0  0
  5 39  1  0  0  0  0
  6 40  1  0  0  0  0
  6 41  1  0  0  0  0
  8 42  1  0  0  0  0
  8 43  1  0  0  0  0
  8 44  1  0  0  0  0
  9 45  1  0  0  0  0
 10 46  1  0  0  0  0
 10 47  1  0  0  0  0
 15 48  1  0  0  0  0
 17 49  1  0  0  0  0
 18 50  1  0  0  0  0
 18 51  1  0  0  0  0
 18 52  1  0  0  0  0
 19 53  1  0  0  0  0
 19 54  1  0  0  0  0
 19 55  1  0  0  0  0
 23 56  1  0  0  0  0
 24 57  1  0  0  0  0
 29 58  1  0  0  0  0
 30 59  1  0  0  0  0
M  END
