 xtb: 6.7.1 (edcfbbe)
          07092603583D

 23 22  0     0  0            999 V2000
   -1.1965   -1.8243    0.0787 C   0  0  0  0  0  0  0  0  0  0  0  0
   -0.8837   -0.3377   -0.0903 C   0  0  0  0  0  0  0  0  0  0  0  0
   -1.7467    0.5050    0.8510 C   0  0  0  0  0  0  0  0  0  0  0  0
   -1.1340    0.0680   -1.5666 C   0  0  0  0  0  0  0  0  0  0  0  0
   -1.3287    1.4293   -1.7764 O   0  0  0  0  0  0  0  0  0  0  0  0
    0.5297   -0.1696    0.2605 N   0  0  0  0  0  0  0  0  0  0  0  0
    1.3079    0.9050    0.0880 C   0  0  0  0  0  0  0  0  0  0  0  0
    1.0170    1.9221   -0.5172 O   0  0  0  0  0  0  0  0  0  0  0  0
    2.6845    0.7514    0.7461 C   0  0  0  0  0  0  0  0  0  0  0  0
    3.0364   -0.5847    1.0219 O   0  0  0  0  0  0  0  0  0  0  0  0
   -0.9724   -2.1477    1.0936 H   0  0  0  0  0  0  0  0  0  0  0  0
   -2.2495   -2.0089   -0.1120 H   0  0  0  0  0  0  0  0  0  0  0  0
   -0.6098   -2.4194   -0.6181 H   0  0  0  0  0  0  0  0  0  0  0  0
   -1.4833    1.5552    0.7587 H   0  0  0  0  0  0  0  0  0  0  0  0
   -1.5986    0.1909    1.8819 H   0  0  0  0  0  0  0  0  0  0  0  0
   -2.7947    0.3924    0.5894 H   0  0  0  0  0  0  0  0  0  0  0  0
   -0.2965   -0.3149   -2.1730 H   0  0  0  0  0  0  0  0  0  0  0  0
   -2.0513   -0.4202   -1.9067 H   0  0  0  0  0  0  0  0  0  0  0  0
   -0.5327    1.8923   -1.4462 H   0  0  0  0  0  0  0  0  0  0  0  0
    0.9275   -0.8917    0.8492 H   0  0  0  0  0  0  0  0  0  0  0  0
    2.6459    1.2662    1.7113 H   0  0  0  0  0  0  0  0  0  0  0  0
    3.4294    1.2578    0.1231 H   0  0  0  0  0  0  0  0  0  0  0  0
    3.3001   -1.0164    0.2020 H   0  0  0  0  0  0  0  0  0  0  0  0
  1  2  1  0  0  0  0
  2  3  1  0  0  0  0
  2  4  1  0  0  0  0
  4  5  1  0  0  0  0
  2  6  1  0  0  0  0
  6  7  4  0  0  0  0
  7  8  2  0  0  0  0
  7  9  1  0  0  0  0
  9 10  1  0  0  0  0
  1 11  1  0  0  0  0
  1 12  1  0  0  0  0
  1 13  1  0  0  0  0
  3 14  1  0  0  0  0
  3 15  1  0  0  0  0
  3 16  1  0  0  0  0
  4 17  1  0  0  0  0
  4 18  1  0  0  0  0
  5 19  1  0  0  0  0
  6 20  1  0  0  0  0
  9 21  1  0  0  0  0
  9 22  1  0  0  0  0
 10 23  1  0  0  0  0
M  END
