 xtb: 6.7.1 (edcfbbe)
          07062618583D

 55 56  0     0  0            999 V2000
    7.8584    0.2034   -3.3782 C   0  0  0  0  0  0  0  0  0  0  0  0
    7.3979    0.0304   -2.1436 C   0  0  0  0  0  0  0  0  0  0  0  0
    6.4558   -1.0015   -1.7760 C   0  0  0  0  0  0  0  0  0  0  0  0
    6.0048   -1.1848   -0.5364 C   0  0  0  0  0  0  0  0  0  0  0  0
    5.0381   -2.2524   -0.1312 C   0  0  0  0  0  0  0  0  0  0  0  0
    3.8591   -1.6720    0.5888 C   0  0  0  0  0  0  0  0  0  0  0  0
    2.9293   -0.8255    0.1212 C   0  0  0  0  0  0  0  0  0  0  0  0
    2.7964   -0.2631   -1.2445 C   0  0  0  0  0  0  0  0  0  0  0  0
    1.9441   -0.4345    1.1946 C   0  0  0  0  0  0  0  0  0  0  0  0
    0.6105   -0.6808    0.7415 O   0  0  0  0  0  0  0  0  0  0  0  0
   -0.3666    0.0041    1.3592 C   0  0  0  0  0  0  0  0  0  0  0  0
   -0.1615    0.8241    2.2202 O   0  0  0  0  0  0  0  0  0  0  0  0
   -1.6873   -0.3889    0.8295 C   0  0  0  0  0  0  0  0  0  0  0  0
   -2.8499    0.5789    1.0058 C   0  0  0  0  0  0  0  0  0  0  0  0
   -3.7683    0.8141   -0.1042 C   0  0  0  0  0  0  0  0  0  0  0  0
   -4.6033    1.8516   -0.2548 C   0  0  0  0  0  0  0  0  0  0  0  0
   -4.7779    3.0000    0.6863 C   0  0  0  0  0  0  0  0  0  0  0  0
   -5.4513    1.8435   -1.4692 C   0  0  0  0  0  0  0  0  0  0  0  0
   -5.4234    0.9914   -2.3269 O   0  0  0  0  0  0  0  0  0  0  0  0
   -6.2792    2.8999   -1.5205 O   0  0  0  0  0  0  0  0  0  0  0  0
   -7.1332    2.9625   -2.6504 C   0  0  0  0  0  0  0  0  0  0  0  0
   -2.8332   -0.7269    1.7641 C   0  0  0  0  0  0  0  0  0  0  0  0
   -2.6213   -0.6610    3.2578 C   0  0  0  0  0  0  0  0  0  0  0  0
   -3.7549   -1.8480    1.3435 C   0  0  0  0  0  0  0  0  0  0  0  0
    2.3233   -1.2926    2.4059 C   0  0  0  0  0  0  0  0  0  0  0  0
    3.6160   -1.9835    2.0071 C   0  0  0  0  0  0  0  0  0  0  0  0
    4.3091   -2.6627    2.7244 O   0  0  0  0  0  0  0  0  0  0  0  0
    7.5466   -0.4328   -4.1906 H   0  0  0  0  0  0  0  0  0  0  0  0
    8.5616    0.9806   -3.6225 H   0  0  0  0  0  0  0  0  0  0  0  0
    7.7274    0.6805   -1.3434 H   0  0  0  0  0  0  0  0  0  0  0  0
    6.1243   -1.6525   -2.5759 H   0  0  0  0  0  0  0  0  0  0  0  0
    6.3399   -0.5375    0.2635 H   0  0  0  0  0  0  0  0  0  0  0  0
    5.5302   -2.9410    0.5637 H   0  0  0  0  0  0  0  0  0  0  0  0
    4.7105   -2.8159   -1.0080 H   0  0  0  0  0  0  0  0  0  0  0  0
    3.4538   -0.7722   -1.9424 H   0  0  0  0  0  0  0  0  0  0  0  0
    3.0541    0.7965   -1.2360 H   0  0  0  0  0  0  0  0  0  0  0  0
    1.7632   -0.3498   -1.5776 H   0  0  0  0  0  0  0  0  0  0  0  0
    2.0223    0.6365    1.4296 H   0  0  0  0  0  0  0  0  0  0  0  0
   -1.6285   -0.9544   -0.0912 H   0  0  0  0  0  0  0  0  0  0  0  0
   -2.6057    1.4459    1.6075 H   0  0  0  0  0  0  0  0  0  0  0  0
   -3.7881    0.0652   -0.8860 H   0  0  0  0  0  0  0  0  0  0  0  0
   -5.7961    3.0089    1.0719 H   0  0  0  0  0  0  0  0  0  0  0  0
   -4.0879    2.9396    1.5214 H   0  0  0  0  0  0  0  0  0  0  0  0
   -4.6213    3.9398    0.1599 H   0  0  0  0  0  0  0  0  0  0  0  0
   -7.7778    2.0816   -2.6891 H   0  0  0  0  0  0  0  0  0  0  0  0
   -6.5455    3.0045   -3.5700 H   0  0  0  0  0  0  0  0  0  0  0  0
   -7.7268    3.8658   -2.5341 H   0  0  0  0  0  0  0  0  0  0  0  0
   -3.5670   -0.4513    3.7545 H   0  0  0  0  0  0  0  0  0  0  0  0
   -2.2453   -1.6136    3.6285 H   0  0  0  0  0  0  0  0  0  0  0  0
   -1.9106    0.1173    3.5200 H   0  0  0  0  0  0  0  0  0  0  0  0
   -4.7493   -1.6831    1.7546 H   0  0  0  0  0  0  0  0  0  0  0  0
   -3.3817   -2.7973    1.7246 H   0  0  0  0  0  0  0  0  0  0  0  0
   -3.8404   -1.9203    0.2638 H   0  0  0  0  0  0  0  0  0  0  0  0
    1.5592   -2.0503    2.5887 H   0  0  0  0  0  0  0  0  0  0  0  0
    2.4479   -0.7164    3.3215 H   0  0  0  0  0  0  0  0  0  0  0  0
  1  2  2  0  0  0  0
  2  3  1  0  0  0  0
  3  4  2  0  0  0  0
  4  5  1  0  0  0  0
  5  6  1  0  0  0  0
  6  7  2  0  0  0  0
  7  8  1  0  0  0  0
  7  9  1  0  0  0  0
  9 10  1  0  0  0  0
 10 11  1  0  0  0  0
 11 12  2  0  0  0  0
 11 13  1  0  0  0  0
 13 14  1  0  0  0  0
 14 15  1  0  0  0  0
 15 16  2  0  0  0  0
 16 17  1  0  0  0  0
 16 18  1  0  0  0  0
 18 19  2  0  0  0  0
 18 20  1  0  0  0  0
 20 21  1  0  0  0  0
 13 22  1  0  0  0  0
 14 22  1  0  0  0  0
 22 23  1  0  0  0  0
 22 24  1  0  0  0  0
  9 25  1  0  0  0  0
  6 26  1  0  0  0  0
 25 26  1  0  0  0  0
 26 27  2  0  0  0  0
  1 28  1  0  0  0  0
  1 29  1  0  0  0  0
  2 30  1  0  0  0  0
  3 31  1  0  0  0  0
  4 32  1  0  0  0  0
  5 33  1  0  0  0  0
  5 34  1  0  0  0  0
  8 35  1  0  0  0  0
  8 36  1  0  0  0  0
  8 37  1  0  0  0  0
  9 38  1  0  0  0  0
 13 39  1  0  0  0  0
 14 40  1  0  0  0  0
 15 41  1  0  0  0  0
 17 42  1  0  0  0  0
 17 43  1  0  0  0  0
 17 44  1  0  0  0  0
 21 45  1  0  0  0  0
 21 46  1  0  0  0  0
 21 47  1  0  0  0  0
 23 48  1  0  0  0  0
 23 49  1  0  0  0  0
 23 50  1  0  0  0  0
 24 51  1  0  0  0  0
 24 52  1  0  0  0  0
 24 53  1  0  0  0  0
 25 54  1  0  0  0  0
 25 55  1  0  0  0  0
M  END
