 xtb: 6.7.1 (edcfbbe)
          07092619433D

 33 33  0     0  0            999 V2000
    4.0327   -0.9980    0.7664 C   0  0  0  0  0  0  0  0  0  0  0  0
    2.8677   -0.0854    0.4051 C   0  0  0  0  0  0  0  0  0  0  0  0
    2.3644   -0.3398   -1.0130 C   0  0  0  0  0  0  0  0  0  0  0  0
    1.1629    0.5424   -1.3523 C   0  0  0  0  0  0  0  0  0  0  0  0
    0.0743    0.3793   -0.4032 N   0  0  0  0  0  0  0  0  0  0  0  0
   -0.8661    1.4839   -0.4451 C   0  0  0  0  0  0  0  0  0  0  0  0
   -1.9068    1.3093    0.6658 C   0  0  0  0  0  0  0  0  0  0  0  0
   -2.9423    2.4248    0.6518 C   0  0  0  0  0  0  0  0  0  0  0  0
   -2.5894    0.0819    0.5136 O   0  0  0  0  0  0  0  0  0  0  0  0
   -1.6962   -1.0127    0.5289 C   0  0  0  0  0  0  0  0  0  0  0  0
   -2.5154   -2.2856    0.3683 C   0  0  0  0  0  0  0  0  0  0  0  0
   -0.6488   -0.8670   -0.5795 C   0  0  0  0  0  0  0  0  0  0  0  0
    3.7341   -2.0424    0.7045 H   0  0  0  0  0  0  0  0  0  0  0  0
    4.3751   -0.7995    1.7792 H   0  0  0  0  0  0  0  0  0  0  0  0
    4.8671   -0.8415    0.0855 H   0  0  0  0  0  0  0  0  0  0  0  0
    2.0415   -0.2426    1.0993 H   0  0  0  0  0  0  0  0  0  0  0  0
    3.1800    0.9573    0.4926 H   0  0  0  0  0  0  0  0  0  0  0  0
    2.1008   -1.3934   -1.1204 H   0  0  0  0  0  0  0  0  0  0  0  0
    3.1588   -0.1272   -1.7322 H   0  0  0  0  0  0  0  0  0  0  0  0
    1.4791    1.5882   -1.3052 H   0  0  0  0  0  0  0  0  0  0  0  0
    0.8320    0.3365   -2.3866 H   0  0  0  0  0  0  0  0  0  0  0  0
   -0.3221    2.4175   -0.2860 H   0  0  0  0  0  0  0  0  0  0  0  0
   -1.3883    1.5390   -1.4182 H   0  0  0  0  0  0  0  0  0  0  0  0
   -1.3716    1.3007    1.6321 H   0  0  0  0  0  0  0  0  0  0  0  0
   -3.4596    2.4338   -0.3039 H   0  0  0  0  0  0  0  0  0  0  0  0
   -3.6728    2.2541    1.4372 H   0  0  0  0  0  0  0  0  0  0  0  0
   -2.4614    3.3859    0.8099 H   0  0  0  0  0  0  0  0  0  0  0  0
   -1.1652   -1.0235    1.4976 H   0  0  0  0  0  0  0  0  0  0  0  0
   -3.2595   -2.3424    1.1574 H   0  0  0  0  0  0  0  0  0  0  0  0
   -3.0292   -2.2733   -0.5892 H   0  0  0  0  0  0  0  0  0  0  0  0
   -1.8694   -3.1576    0.4192 H   0  0  0  0  0  0  0  0  0  0  0  0
    0.0507   -1.7009   -0.5182 H   0  0  0  0  0  0  0  0  0  0  0  0
   -1.1571   -0.9019   -1.5613 H   0  0  0  0  0  0  0  0  0  0  0  0
  1  2  1  0  0  0  0
  2  3  1  0  0  0  0
  3  4  1  0  0  0  0
  4  5  1  0  0  0  0
  5  6  1  0  0  0  0
  6  7  1  0  0  0  0
  7  8  1  0  0  0  0
  7  9  1  0  0  0  0
  9 10  1  0  0  0  0
 10 11  1  0  0  0  0
  5 12  1  0  0  0  0
 10 12  1  0  0  0  0
  1 13  1  0  0  0  0
  1 14  1  0  0  0  0
  1 15  1  0  0  0  0
  2 16  1  0  0  0  0
  2 17  1  0  0  0  0
  3 18  1  0  0  0  0
  3 19  1  0  0  0  0
  4 20  1  0  0  0  0
  4 21  1  0  0  0  0
  6 22  1  0  0  0  0
  6 23  1  0  0  0  0
  7 24  1  0  0  0  0
  8 25  1  0  0  0  0
  8 26  1  0  0  0  0
  8 27  1  0  0  0  0
 10 28  1  0  0  0  0
 11 29  1  0  0  0  0
 11 30  1  0  0  0  0
 11 31  1  0  0  0  0
 12 32  1  0  0  0  0
 12 33  1  0  0  0  0
M  END
