 xtb: 6.7.1 (edcfbbe)
          07082620403D

 23 22  0     0  0            999 V2000
   -4.1120   -0.5569    0.2499 C   0  0  0  0  0  0  0  0  0  0  0  0
   -2.8937    0.1916   -0.2758 C   0  0  0  0  0  0  0  0  0  0  0  0
   -1.5928   -0.4249    0.2306 C   0  0  0  0  0  0  0  0  0  0  0  0
   -0.3701    0.3211   -0.2932 C   0  0  0  0  0  0  0  0  0  0  0  0
    0.9213   -0.2855    0.2054 C   0  0  0  0  0  0  0  0  0  0  0  0
    1.0164   -1.2409    0.9291 O   0  0  0  0  0  0  0  0  0  0  0  0
    1.9745    0.3892   -0.2700 O   0  0  0  0  0  0  0  0  0  0  0  0
    3.2656   -0.0805    0.1254 C   0  0  0  0  0  0  0  0  0  0  0  0
    4.3151    0.8096   -0.5126 C   0  0  0  0  0  0  0  0  0  0  0  0
   -4.0875   -1.5961   -0.0696 H   0  0  0  0  0  0  0  0  0  0  0  0
   -5.0292   -0.1047   -0.1203 H   0  0  0  0  0  0  0  0  0  0  0  0
   -4.1323   -0.5351    1.3371 H   0  0  0  0  0  0  0  0  0  0  0  0
   -2.9014    0.1748   -1.3683 H   0  0  0  0  0  0  0  0  0  0  0  0
   -2.9462    1.2364    0.0392 H   0  0  0  0  0  0  0  0  0  0  0  0
   -1.5779   -0.4114    1.3218 H   0  0  0  0  0  0  0  0  0  0  0  0
   -1.5333   -1.4693   -0.0807 H   0  0  0  0  0  0  0  0  0  0  0  0
   -0.3910    1.3680    0.0181 H   0  0  0  0  0  0  0  0  0  0  0  0
   -0.3463    0.3094   -1.3853 H   0  0  0  0  0  0  0  0  0  0  0  0
    3.3305   -0.0552    1.2190 H   0  0  0  0  0  0  0  0  0  0  0  0
    3.3755   -1.1224   -0.1959 H   0  0  0  0  0  0  0  0  0  0  0  0
    4.2269    0.7751   -1.5950 H   0  0  0  0  0  0  0  0  0  0  0  0
    4.1821    1.8376   -0.1865 H   0  0  0  0  0  0  0  0  0  0  0  0
    5.3058    0.4701   -0.2250 H   0  0  0  0  0  0  0  0  0  0  0  0
  1  2  1  0  0  0  0
  2  3  1  0  0  0  0
  3  4  1  0  0  0  0
  4  5  1  0  0  0  0
  5  6  2  0  0  0  0
  5  7  1  0  0  0  0
  7  8  1  0  0  0  0
  8  9  1  0  0  0  0
  1 10  1  0  0  0  0
  1 11  1  0  0  0  0
  1 12  1  0  0  0  0
  2 13  1  0  0  0  0
  2 14  1  0  0  0  0
  3 15  1  0  0  0  0
  3 16  1  0  0  0  0
  4 17  1  0  0  0  0
  4 18  1  0  0  0  0
  8 19  1  0  0  0  0
  8 20  1  0  0  0  0
  9 21  1  0  0  0  0
  9 22  1  0  0  0  0
  9 23  1  0  0  0  0
M  END
