 xtb: 6.7.1 (edcfbbe)
          07072618273D

 30 31  0     0  0            999 V2000
    2.7677    0.3760   -0.3401 C   0  0  0  0  0  0  0  0  0  0  0  0
    1.3264    0.2982    0.1616 C   0  0  0  0  0  0  0  0  0  0  0  0
    1.3757    0.0809    1.6668 C   0  0  0  0  0  0  0  0  0  0  0  0
    0.4540    1.4486   -0.3914 C   0  0  0  0  0  0  0  0  0  0  0  0
   -0.8512    1.5502    0.3881 C   0  0  0  0  0  0  0  0  0  0  0  0
   -1.6685    0.2369    0.3263 C   0  0  0  0  0  0  0  0  0  0  0  0
   -2.2960   -0.0442    1.5675 O   0  0  0  0  0  0  0  0  0  0  0  0
   -0.8554   -1.0403   -0.0801 C   0  0  0  0  0  0  0  0  0  0  0  0
   -1.6950   -1.8658   -1.0729 C   0  0  0  0  0  0  0  0  0  0  0  0
   -0.5757   -1.8583    1.0321 O   0  0  0  0  0  0  0  0  0  0  0  0
    0.4648   -0.6242   -0.7395 C   0  0  0  0  0  0  0  0  0  0  0  0
    0.2093    0.5942   -1.6426 C   0  0  0  0  0  0  0  0  0  0  0  0
    2.8252    0.5498   -1.4102 H   0  0  0  0  0  0  0  0  0  0  0  0
    3.2921    1.1860    0.1638 H   0  0  0  0  0  0  0  0  0  0  0  0
    3.2848   -0.5553   -0.1189 H   0  0  0  0  0  0  0  0  0  0  0  0
    1.9118   -0.8397    1.8825 H   0  0  0  0  0  0  0  0  0  0  0  0
    0.3931   -0.0038    2.1127 H   0  0  0  0  0  0  0  0  0  0  0  0
    1.9047    0.9110    2.1346 H   0  0  0  0  0  0  0  0  0  0  0  0
    0.9220    2.4272   -0.5111 H   0  0  0  0  0  0  0  0  0  0  0  0
   -0.6379    1.7950    1.4305 H   0  0  0  0  0  0  0  0  0  0  0  0
   -1.4587    2.3613   -0.0240 H   0  0  0  0  0  0  0  0  0  0  0  0
   -2.4561    0.3652   -0.4319 H   0  0  0  0  0  0  0  0  0  0  0  0
   -2.8051    0.7272    1.8333 H   0  0  0  0  0  0  0  0  0  0  0  0
   -2.6670   -2.0870   -0.6371 H   0  0  0  0  0  0  0  0  0  0  0  0
   -1.8353   -1.3398   -2.0126 H   0  0  0  0  0  0  0  0  0  0  0  0
   -1.1831   -2.8050   -1.2666 H   0  0  0  0  0  0  0  0  0  0  0  0
   -1.3048   -1.7483    1.6561 H   0  0  0  0  0  0  0  0  0  0  0  0
    0.9596   -1.4965   -1.1642 H   0  0  0  0  0  0  0  0  0  0  0  0
   -0.7709    0.6784   -2.1054 H   0  0  0  0  0  0  0  0  0  0  0  0
    0.9695    0.7219   -2.4076 H   0  0  0  0  0  0  0  0  0  0  0  0
  1  2  1  0  0  0  0
  2  3  1  0  0  0  0
  2  4  1  0  0  0  0
  4  5  1  0  0  0  0
  5  6  1  0  0  0  0
  6  7  1  0  0  0  0
  6  8  1  0  0  0  0
  8  9  1  0  0  0  0
  8 10  1  0  0  0  0
  2 11  1  0  0  0  0
  8 11  1  0  0  0  0
  4 12  1  0  0  0  0
 11 12  1  0  0  0  0
  1 13  1  0  0  0  0
  1 14  1  0  0  0  0
  1 15  1  0  0  0  0
  3 16  1  0  0  0  0
  3 17  1  0  0  0  0
  3 18  1  0  0  0  0
  4 19  1  0  0  0  0
  5 20  1  0  0  0  0
  5 21  1  0  0  0  0
  6 22  1  0  0  0  0
  7 23  1  0  0  0  0
  9 24  1  0  0  0  0
  9 25  1  0  0  0  0
  9 26  1  0  0  0  0
 10 27  1  0  0  0  0
 11 28  1  0  0  0  0
 12 29  1  0  0  0  0
 12 30  1  0  0  0  0
M  END
