 xtb: 6.7.1 (edcfbbe)
          07082610033D

 23 23  0     0  0            999 V2000
   -2.0535    1.0889    0.6877 C   0  0  0  0  0  0  0  0  0  0  0  0
   -2.2752   -0.0371   -0.2865 C   0  0  0  0  0  0  0  0  0  0  0  0
   -2.8868    0.0957   -1.3159 O   0  0  0  0  0  0  0  0  0  0  0  0
   -1.6437   -1.3579    0.1081 C   0  0  0  0  0  0  0  0  0  0  0  0
   -0.4207   -1.6313   -0.7895 C   0  0  0  0  0  0  0  0  0  0  0  0
    0.6598   -0.6169   -0.5451 C   0  0  0  0  0  0  0  0  0  0  0  0
    1.5346   -0.7661    0.5243 C   0  0  0  0  0  0  0  0  0  0  0  0
    2.5056    0.1858    0.7800 C   0  0  0  0  0  0  0  0  0  0  0  0
    2.6129    1.3024   -0.0316 C   0  0  0  0  0  0  0  0  0  0  0  0
    1.7458    1.4604   -1.0995 C   0  0  0  0  0  0  0  0  0  0  0  0
    0.7754    0.5071   -1.3534 C   0  0  0  0  0  0  0  0  0  0  0  0
   -2.5051    0.8351    1.6449 H   0  0  0  0  0  0  0  0  0  0  0  0
   -2.4919    2.0096    0.3119 H   0  0  0  0  0  0  0  0  0  0  0  0
   -0.9847    1.2255    0.8426 H   0  0  0  0  0  0  0  0  0  0  0  0
   -1.3406   -1.3462    1.1549 H   0  0  0  0  0  0  0  0  0  0  0  0
   -2.3746   -2.1530   -0.0509 H   0  0  0  0  0  0  0  0  0  0  0  0
   -0.7410   -1.5962   -1.8319 H   0  0  0  0  0  0  0  0  0  0  0  0
   -0.0458   -2.6339   -0.5729 H   0  0  0  0  0  0  0  0  0  0  0  0
    1.4561   -1.6379    1.1589 H   0  0  0  0  0  0  0  0  0  0  0  0
    3.1808    0.0555    1.6133 H   0  0  0  0  0  0  0  0  0  0  0  0
    3.3709    2.0457    0.1665 H   0  0  0  0  0  0  0  0  0  0  0  0
    1.8253    2.3288   -1.7368 H   0  0  0  0  0  0  0  0  0  0  0  0
    0.0963    0.6361   -2.1839 H   0  0  0  0  0  0  0  0  0  0  0  0
  1  2  1  0  0  0  0
  2  3  2  0  0  0  0
  2  4  1  0  0  0  0
  4  5  1  0  0  0  0
  5  6  1  0  0  0  0
  6  7  4  0  0  0  0
  7  8  4  0  0  0  0
  8  9  4  0  0  0  0
  9 10  4  0  0  0  0
  6 11  4  0  0  0  0
 10 11  4  0  0  0  0
  1 12  1  0  0  0  0
  1 13  1  0  0  0  0
  1 14  1  0  0  0  0
  4 15  1  0  0  0  0
  4 16  1  0  0  0  0
  5 17  1  0  0  0  0
  5 18  1  0  0  0  0
  7 19  1  0  0  0  0
  8 20  1  0  0  0  0
  9 21  1  0  0  0  0
 10 22  1  0  0  0  0
 11 23  1  0  0  0  0
M  END
