 xtb: 6.7.1 (edcfbbe)
          07092601553D

 26 25  0     0  0            999 V2000
   -4.4711   -0.0327   -0.8422 C   0  0  0  0  0  0  0  0  0  0  0  0
   -3.2968   -0.5569   -0.0252 C   0  0  0  0  0  0  0  0  0  0  0  0
   -2.0007    0.1687   -0.3749 C   0  0  0  0  0  0  0  0  0  0  0  0
   -0.8195   -0.3529    0.4361 C   0  0  0  0  0  0  0  0  0  0  0  0
    0.4672    0.3618    0.0868 C   0  0  0  0  0  0  0  0  0  0  0  0
    0.5740    1.2516   -0.7154 O   0  0  0  0  0  0  0  0  0  0  0  0
    1.4819   -0.1280    0.8040 O   0  0  0  0  0  0  0  0  0  0  0  0
    2.7850    0.4443    0.5947 C   0  0  0  0  0  0  0  0  0  0  0  0
    3.4536   -0.2222   -0.6028 C   0  0  0  0  0  0  0  0  0  0  0  0
    3.5728    0.2419    1.8807 C   0  0  0  0  0  0  0  0  0  0  0  0
   -5.3859   -0.5599   -0.5817 H   0  0  0  0  0  0  0  0  0  0  0  0
   -4.2860   -0.1694   -1.9052 H   0  0  0  0  0  0  0  0  0  0  0  0
   -4.6205    1.0284   -0.6562 H   0  0  0  0  0  0  0  0  0  0  0  0
   -3.1748   -1.6267   -0.2107 H   0  0  0  0  0  0  0  0  0  0  0  0
   -3.5089   -0.4278    1.0388 H   0  0  0  0  0  0  0  0  0  0  0  0
   -1.7847    0.0458   -1.4377 H   0  0  0  0  0  0  0  0  0  0  0  0
   -2.1150    1.2382   -0.1898 H   0  0  0  0  0  0  0  0  0  0  0  0
   -0.6684   -1.4205    0.2612 H   0  0  0  0  0  0  0  0  0  0  0  0
   -0.9952   -0.2224    1.5064 H   0  0  0  0  0  0  0  0  0  0  0  0
    2.6507    1.5142    0.3876 H   0  0  0  0  0  0  0  0  0  0  0  0
    4.4448    0.1963   -0.7518 H   0  0  0  0  0  0  0  0  0  0  0  0
    3.5401   -1.2931   -0.4332 H   0  0  0  0  0  0  0  0  0  0  0  0
    2.8630   -0.0517   -1.4996 H   0  0  0  0  0  0  0  0  0  0  0  0
    4.5594    0.6850    1.7815 H   0  0  0  0  0  0  0  0  0  0  0  0
    3.0575    0.7082    2.7162 H   0  0  0  0  0  0  0  0  0  0  0  0
    3.6775   -0.8203    2.0862 H   0  0  0  0  0  0  0  0  0  0  0  0
  1  2  1  0  0  0  0
  2  3  1  0  0  0  0
  3  4  1  0  0  0  0
  4  5  1  0  0  0  0
  5  6  2  0  0  0  0
  5  7  1  0  0  0  0
  7  8  1  0  0  0  0
  8  9  1  0  0  0  0
  8 10  1  0  0  0  0
  1 11  1  0  0  0  0
  1 12  1  0  0  0  0
  1 13  1  0  0  0  0
  2 14  1  0  0  0  0
  2 15  1  0  0  0  0
  3 16  1  0  0  0  0
  3 17  1  0  0  0  0
  4 18  1  0  0  0  0
  4 19  1  0  0  0  0
  8 20  1  0  0  0  0
  9 21  1  0  0  0  0
  9 22  1  0  0  0  0
  9 23  1  0  0  0  0
 10 24  1  0  0  0  0
 10 25  1  0  0  0  0
 10 26  1  0  0  0  0
M  END
