 xtb: 6.7.1 (edcfbbe)
          07082621563D

 20 19  0     0  0            999 V2000
    3.0306   -0.0713    0.0319 C   0  0  0  0  0  0  0  0  0  0  0  0
    1.7065   -0.4710   -0.6071 C   0  0  0  0  0  0  0  0  0  0  0  0
    1.5593    0.0277   -1.9234 O   0  0  0  0  0  0  0  0  0  0  0  0
    0.5337   -0.0531    0.3020 C   0  0  0  0  0  0  0  0  0  0  0  0
    0.5742   -0.1659    1.5087 O   0  0  0  0  0  0  0  0  0  0  0  0
   -0.5196    0.4340   -0.3800 N   0  0  0  0  0  0  0  0  0  0  0  0
   -1.7648    0.8068    0.2486 C   0  0  0  0  0  0  0  0  0  0  0  0
   -2.8097   -0.3161    0.1614 C   0  0  0  0  0  0  0  0  0  0  0  0
   -3.1908   -0.6017   -1.1627 O   0  0  0  0  0  0  0  0  0  0  0  0
    3.1144    1.0145    0.0696 H   0  0  0  0  0  0  0  0  0  0  0  0
    3.0635   -0.4527    1.0480 H   0  0  0  0  0  0  0  0  0  0  0  0
    3.8662   -0.4742   -0.5351 H   0  0  0  0  0  0  0  0  0  0  0  0
    1.6564   -1.5635   -0.7016 H   0  0  0  0  0  0  0  0  0  0  0  0
    1.9131    0.9248   -1.9481 H   0  0  0  0  0  0  0  0  0  0  0  0
   -0.4564    0.4388   -1.3890 H   0  0  0  0  0  0  0  0  0  0  0  0
   -1.5485    1.0101    1.2994 H   0  0  0  0  0  0  0  0  0  0  0  0
   -2.1520    1.7071   -0.2344 H   0  0  0  0  0  0  0  0  0  0  0  0
   -2.4173   -1.2125    0.6587 H   0  0  0  0  0  0  0  0  0  0  0  0
   -3.7211    0.0003    0.6723 H   0  0  0  0  0  0  0  0  0  0  0  0
   -2.4378   -0.9822   -1.6285 H   0  0  0  0  0  0  0  0  0  0  0  0
  1  2  1  0  0  0  0
  2  3  1  0  0  0  0
  2  4  1  0  0  0  0
  4  5  2  0  0  0  0
  4  6  4  0  0  0  0
  6  7  1  0  0  0  0
  7  8  1  0  0  0  0
  8  9  1  0  0  0  0
  1 10  1  0  0  0  0
  1 11  1  0  0  0  0
  1 12  1  0  0  0  0
  2 13  1  0  0  0  0
  3 14  1  0  0  0  0
  6 15  1  0  0  0  0
  7 16  1  0  0  0  0
  7 17  1  0  0  0  0
  8 18  1  0  0  0  0
  8 19  1  0  0  0  0
  9 20  1  0  0  0  0
M  END
