 xtb: 6.7.1 (edcfbbe)
          07082619193D

 14 14  0     0  0            999 V2000
    0.5320   -2.2668   -0.1695 C   0  0  0  0  0  0  0  0  0  0  0  0
   -0.4590   -1.3047   -0.7825 C   0  0  0  0  0  0  0  0  0  0  0  0
   -1.2767   -1.6472   -1.6092 O   0  0  0  0  0  0  0  0  0  0  0  0
   -0.3725    0.0743   -0.3158 C   0  0  0  0  0  0  0  0  0  0  0  0
    0.4700    0.6556    0.6004 C   0  0  0  0  0  0  0  0  0  0  0  0
    0.2269    2.0272    0.7708 C   0  0  0  0  0  0  0  0  0  0  0  0
   -0.7946    2.4744   -0.0149 C   0  0  0  0  0  0  0  0  0  0  0  0
   -1.4799    1.2385   -0.9757 S   0  0  0  0  0  0  0  0  0  0  0  0
    0.3960   -2.3027    0.9090 H   0  0  0  0  0  0  0  0  0  0  0  0
    0.3765   -3.2573   -0.5880 H   0  0  0  0  0  0  0  0  0  0  0  0
    1.5472   -1.9385   -0.3805 H   0  0  0  0  0  0  0  0  0  0  0  0
    1.2351    0.1194    1.1320 H   0  0  0  0  0  0  0  0  0  0  0  0
    0.7819    2.6560    1.4438 H   0  0  0  0  0  0  0  0  0  0  0  0
   -1.1828    3.4719   -0.0798 H   0  0  0  0  0  0  0  0  0  0  0  0
  1  2  1  0  0  0  0
  2  3  2  0  0  0  0
  2  4  1  0  0  0  0
  4  5  2  0  0  0  0
  5  6  4  0  0  0  0
  6  7  2  0  0  0  0
  4  8  1  0  0  0  0
  7  8  1  0  0  0  0
  1  9  1  0  0  0  0
  1 10  1  0  0  0  0
  1 11  1  0  0  0  0
  5 12  1  0  0  0  0
  6 13  1  0  0  0  0
  7 14  1  0  0  0  0
M  END
