 xtb: 6.7.1 (edcfbbe)
          07092619503D

 26 27  0     0  0            999 V2000
   -0.9754    0.7383   -1.0034 C   0  0  0  0  0  0  0  0  0  0  0  0
   -0.3103    0.0385   -0.0860 C   0  0  0  0  0  0  0  0  0  0  0  0
    1.1599   -0.0197   -0.0775 C   0  0  0  0  0  0  0  0  0  0  0  0
    1.8300   -1.1917    0.2695 C   0  0  0  0  0  0  0  0  0  0  0  0
    3.2115   -1.2426    0.2763 C   0  0  0  0  0  0  0  0  0  0  0  0
    3.9537   -0.1212   -0.0523 C   0  0  0  0  0  0  0  0  0  0  0  0
    3.3015    1.0530   -0.3893 C   0  0  0  0  0  0  0  0  0  0  0  0
    1.9206    1.1030   -0.4018 C   0  0  0  0  0  0  0  0  0  0  0  0
   -1.0342   -0.7377    0.9840 C   0  0  0  0  0  0  0  0  0  0  0  0
   -2.4526   -0.2131    1.1818 C   0  0  0  0  0  0  0  0  0  0  0  0
   -3.1640   -0.1526   -0.1644 C   0  0  0  0  0  0  0  0  0  0  0  0
   -2.4654    0.8585   -1.0689 C   0  0  0  0  0  0  0  0  0  0  0  0
   -0.4340    1.2733   -1.7721 H   0  0  0  0  0  0  0  0  0  0  0  0
    1.2664   -2.0781    0.5202 H   0  0  0  0  0  0  0  0  0  0  0  0
    3.7124   -2.1629    0.5412 H   0  0  0  0  0  0  0  0  0  0  0  0
    5.0330   -0.1606   -0.0422 H   0  0  0  0  0  0  0  0  0  0  0  0
    3.8729    1.9357   -0.6387 H   0  0  0  0  0  0  0  0  0  0  0  0
    1.4207    2.0288   -0.6460 H   0  0  0  0  0  0  0  0  0  0  0  0
   -0.4733   -0.6771    1.9199 H   0  0  0  0  0  0  0  0  0  0  0  0
   -1.0796   -1.7929    0.6959 H   0  0  0  0  0  0  0  0  0  0  0  0
   -2.4140    0.7880    1.6163 H   0  0  0  0  0  0  0  0  0  0  0  0
   -2.9958   -0.8613    1.8725 H   0  0  0  0  0  0  0  0  0  0  0  0
   -4.2117    0.1251   -0.0331 H   0  0  0  0  0  0  0  0  0  0  0  0
   -3.1341   -1.1405   -0.6294 H   0  0  0  0  0  0  0  0  0  0  0  0
   -2.7418    1.8762   -0.7690 H   0  0  0  0  0  0  0  0  0  0  0  0
   -2.7963    0.7333   -2.1038 H   0  0  0  0  0  0  0  0  0  0  0  0
  1  2  2  0  0  0  0
  2  3  1  0  0  0  0
  3  4  4  0  0  0  0
  4  5  4  0  0  0  0
  5  6  4  0  0  0  0
  6  7  4  0  0  0  0
  3  8  4  0  0  0  0
  7  8  4  0  0  0  0
  2  9  1  0  0  0  0
  9 10  1  0  0  0  0
 10 11  1  0  0  0  0
  1 12  1  0  0  0  0
 11 12  1  0  0  0  0
  1 13  1  0  0  0  0
  4 14  1  0  0  0  0
  5 15  1  0  0  0  0
  6 16  1  0  0  0  0
  7 17  1  0  0  0  0
  8 18  1  0  0  0  0
  9 19  1  0  0  0  0
  9 20  1  0  0  0  0
 10 21  1  0  0  0  0
 10 22  1  0  0  0  0
 11 23  1  0  0  0  0
 11 24  1  0  0  0  0
 12 25  1  0  0  0  0
 12 26  1  0  0  0  0
M  END
