 xtb: 6.7.1 (edcfbbe)
          07082622423D

 16 16  0     0  0            999 V2000
    2.6472   -0.2047   -0.4080 C   0  0  0  0  0  0  0  0  0  0  0  0
    1.6348    0.7596   -0.2628 O   0  0  0  0  0  0  0  0  0  0  0  0
    0.3610    0.3481   -0.0602 C   0  0  0  0  0  0  0  0  0  0  0  0
   -0.0641   -0.9731    0.0218 C   0  0  0  0  0  0  0  0  0  0  0  0
   -1.4025   -1.2642    0.2329 C   0  0  0  0  0  0  0  0  0  0  0  0
   -2.3355   -0.2530    0.3653 C   0  0  0  0  0  0  0  0  0  0  0  0
   -1.9296    1.0697    0.2862 C   0  0  0  0  0  0  0  0  0  0  0  0
   -0.5976    1.3571    0.0762 C   0  0  0  0  0  0  0  0  0  0  0  0
   -0.0085    3.1583   -0.0371 Br  0  0  0  0  0  0  0  0  0  0  0  0
    2.7425   -0.8238    0.4896 H   0  0  0  0  0  0  0  0  0  0  0  0
    3.5670    0.3581   -0.5575 H   0  0  0  0  0  0  0  0  0  0  0  0
    2.4684   -0.8454   -1.2774 H   0  0  0  0  0  0  0  0  0  0  0  0
    0.6448   -1.7796   -0.0783 H   0  0  0  0  0  0  0  0  0  0  0  0
   -1.7117   -2.2967    0.2934 H   0  0  0  0  0  0  0  0  0  0  0  0
   -3.3758   -0.4855    0.5294 H   0  0  0  0  0  0  0  0  0  0  0  0
   -2.6405    1.8751    0.3867 H   0  0  0  0  0  0  0  0  0  0  0  0
  1  2  1  0  0  0  0
  2  3  1  0  0  0  0
  3  4  4  0  0  0  0
  4  5  4  0  0  0  0
  5  6  4  0  0  0  0
  6  7  4  0  0  0  0
  3  8  4  0  0  0  0
  7  8  4  0  0  0  0
  8  9  1  0  0  0  0
  1 10  1  0  0  0  0
  1 11  1  0  0  0  0
  1 12  1  0  0  0  0
  4 13  1  0  0  0  0
  5 14  1  0  0  0  0
  6 15  1  0  0  0  0
  7 16  1  0  0  0  0
M  END
