 xtb: 6.7.1 (edcfbbe)
          07092609563D

 23 23  0     0  0            999 V2000
   -4.5507    0.3782    0.3652 C   0  0  0  0  0  0  0  0  0  0  0  0
   -3.2137    0.8101    0.3561 O   0  0  0  0  0  0  0  0  0  0  0  0
   -2.3133   -0.2053   -0.0145 C   0  0  0  0  0  0  0  0  0  0  0  0
   -0.9035    0.3766    0.0113 C   0  0  0  0  0  0  0  0  0  0  0  0
   -0.0138   -0.6501   -0.3614 O   0  0  0  0  0  0  0  0  0  0  0  0
    1.3212   -0.3713   -0.4130 C   0  0  0  0  0  0  0  0  0  0  0  0
    2.1459   -1.4326   -0.7891 C   0  0  0  0  0  0  0  0  0  0  0  0
    3.5114   -1.2587   -0.8729 C   0  0  0  0  0  0  0  0  0  0  0  0
    4.0790   -0.0270   -0.5841 C   0  0  0  0  0  0  0  0  0  0  0  0
    3.2639    1.0249   -0.2116 C   0  0  0  0  0  0  0  0  0  0  0  0
    1.8903    0.8633   -0.1236 C   0  0  0  0  0  0  0  0  0  0  0  0
   -4.7000   -0.4398    1.0807 H   0  0  0  0  0  0  0  0  0  0  0  0
   -4.8656    0.0372   -0.6287 H   0  0  0  0  0  0  0  0  0  0  0  0
   -5.1508    1.2354    0.6626 H   0  0  0  0  0  0  0  0  0  0  0  0
   -2.5390   -0.5779   -1.0251 H   0  0  0  0  0  0  0  0  0  0  0  0
   -2.3735   -1.0545    0.6829 H   0  0  0  0  0  0  0  0  0  0  0  0
   -0.8498    1.2204   -0.6888 H   0  0  0  0  0  0  0  0  0  0  0  0
   -0.6840    0.7428    1.0225 H   0  0  0  0  0  0  0  0  0  0  0  0
    1.6871   -2.3835   -1.0099 H   0  0  0  0  0  0  0  0  0  0  0  0
    4.1379   -2.0884   -1.1651 H   0  0  0  0  0  0  0  0  0  0  0  0
    5.1477    0.1091   -0.6497 H   0  0  0  0  0  0  0  0  0  0  0  0
    3.6948    1.9890    0.0157 H   0  0  0  0  0  0  0  0  0  0  0  0
    1.2784    1.7018    0.1697 H   0  0  0  0  0  0  0  0  0  0  0  0
  1  2  1  0  0  0  0
  2  3  1  0  0  0  0
  3  4  1  0  0  0  0
  4  5  1  0  0  0  0
  5  6  1  0  0  0  0
  6  7  4  0  0  0  0
  7  8  4  0  0  0  0
  8  9  4  0  0  0  0
  9 10  4  0  0  0  0
  6 11  4  0  0  0  0
 10 11  4  0  0  0  0
  1 12  1  0  0  0  0
  1 13  1  0  0  0  0
  1 14  1  0  0  0  0
  3 15  1  0  0  0  0
  3 16  1  0  0  0  0
  4 17  1  0  0  0  0
  4 18  1  0  0  0  0
  7 19  1  0  0  0  0
  8 20  1  0  0  0  0
  9 21  1  0  0  0  0
 10 22  1  0  0  0  0
 11 23  1  0  0  0  0
M  END
