 xtb: 6.7.1 (edcfbbe)
          07092605273D

 23 22  0     0  0            999 V2000
   -3.5592   -0.2824   -1.0232 C   0  0  0  0  0  0  0  0  0  0  0  0
   -2.6288   -0.5122    0.1604 C   0  0  0  0  0  0  0  0  0  0  0  0
   -1.2518    0.0473   -0.0925 C   0  0  0  0  0  0  0  0  0  0  0  0
   -0.7568    0.2501   -1.1700 O   0  0  0  0  0  0  0  0  0  0  0  0
   -0.6124    0.2935    1.0597 O   0  0  0  0  0  0  0  0  0  0  0  0
    0.7322    0.7485    0.9246 C   0  0  0  0  0  0  0  0  0  0  0  0
    1.3701    0.7610    2.3067 C   0  0  0  0  0  0  0  0  0  0  0  0
    1.4955   -0.2081    0.0029 C   0  0  0  0  0  0  0  0  0  0  0  0
    1.3691   -1.4018    0.0193 O   0  0  0  0  0  0  0  0  0  0  0  0
    2.3584    0.4583   -0.7569 O   0  0  0  0  0  0  0  0  0  0  0  0
    3.1230   -0.3249   -1.6669 C   0  0  0  0  0  0  0  0  0  0  0  0
   -3.1059   -0.6725   -1.9304 H   0  0  0  0  0  0  0  0  0  0  0  0
   -3.7407    0.7802   -1.1643 H   0  0  0  0  0  0  0  0  0  0  0  0
   -4.5107   -0.7810   -0.8589 H   0  0  0  0  0  0  0  0  0  0  0  0
   -3.0214   -0.0718    1.0775 H   0  0  0  0  0  0  0  0  0  0  0  0
   -2.4986   -1.5837    0.3348 H   0  0  0  0  0  0  0  0  0  0  0  0
    0.7372    1.7466    0.4692 H   0  0  0  0  0  0  0  0  0  0  0  0
    1.3907   -0.2499    2.7058 H   0  0  0  0  0  0  0  0  0  0  0  0
    0.7870    1.3915    2.9723 H   0  0  0  0  0  0  0  0  0  0  0  0
    2.3836    1.1461    2.2400 H   0  0  0  0  0  0  0  0  0  0  0  0
    3.6144   -1.1453   -1.1400 H   0  0  0  0  0  0  0  0  0  0  0  0
    3.8554    0.3477   -2.1057 H   0  0  0  0  0  0  0  0  0  0  0  0
    2.4698   -0.7374   -2.4377 H   0  0  0  0  0  0  0  0  0  0  0  0
  1  2  1  0  0  0  0
  2  3  1  0  0  0  0
  3  4  2  0  0  0  0
  3  5  1  0  0  0  0
  5  6  1  0  0  0  0
  6  7  1  0  0  0  0
  6  8  1  0  0  0  0
  8  9  2  0  0  0  0
  8 10  1  0  0  0  0
 10 11  1  0  0  0  0
  1 12  1  0  0  0  0
  1 13  1  0  0  0  0
  1 14  1  0  0  0  0
  2 15  1  0  0  0  0
  2 16  1  0  0  0  0
  6 17  1  0  0  0  0
  7 18  1  0  0  0  0
  7 19  1  0  0  0  0
  7 20  1  0  0  0  0
 11 21  1  0  0  0  0
 11 22  1  0  0  0  0
 11 23  1  0  0  0  0
M  END
