 xtb: 6.7.1 (edcfbbe)
          07082617323D

 13 13  0     0  0            999 V2000
   -1.2246   -0.7940   -0.1000 C   0  0  0  0  0  0  0  0  0  0  0  0
    0.1132   -0.0991   -0.1956 C   0  0  0  0  0  0  0  0  0  0  0  0
    0.0532    1.4133   -0.2164 C   0  0  0  0  0  0  0  0  0  0  0  0
   -0.4038    2.0287    1.3934 Cl  0  0  0  0  0  0  0  0  0  0  0  0
    1.3243   -0.7402    0.3302 C   0  0  0  0  0  0  0  0  0  0  0  0
    1.0741   -0.6594   -1.0469 O   0  0  0  0  0  0  0  0  0  0  0  0
   -1.7228   -0.5030    0.8218 H   0  0  0  0  0  0  0  0  0  0  0  0
   -1.0888   -1.8719   -0.1105 H   0  0  0  0  0  0  0  0  0  0  0  0
   -1.8509   -0.5145   -0.9446 H   0  0  0  0  0  0  0  0  0  0  0  0
    1.0264    1.8346   -0.4678 H   0  0  0  0  0  0  0  0  0  0  0  0
   -0.6985    1.7672   -0.9222 H   0  0  0  0  0  0  0  0  0  0  0  0
    2.1419   -0.1302    0.6961 H   0  0  0  0  0  0  0  0  0  0  0  0
    1.2564   -1.7314    0.7623 H   0  0  0  0  0  0  0  0  0  0  0  0
  1  2  1  0  0  0  0
  2  3  1  0  0  0  0
  3  4  1  0  0  0  0
  2  5  1  0  0  0  0
  2  6  1  0  0  0  0
  5  6  1  0  0  0  0
  1  7  1  0  0  0  0
  1  8  1  0  0  0  0
  1  9  1  0  0  0  0
  3 10  1  0  0  0  0
  3 11  1  0  0  0  0
  5 12  1  0  0  0  0
  5 13  1  0  0  0  0
M  END
