 xtb: 6.7.1 (edcfbbe)
          07062622403D

 45 44  0     0  0            999 V2000
    5.1216   -0.7028   -2.3258 C   0  0  0  0  0  0  0  0  0  0  0  0
    4.8987    0.3257   -1.2235 C   0  0  0  0  0  0  0  0  0  0  0  0
    3.4166    0.6285   -1.0113 C   0  0  0  0  0  0  0  0  0  0  0  0
    3.1862    1.7418    0.0054 C   0  0  0  0  0  0  0  0  0  0  0  0
    2.7791   -0.5608   -0.5204 O   0  0  0  0  0  0  0  0  0  0  0  0
    1.5923   -0.8800   -1.0203 C   0  0  0  0  0  0  0  0  0  0  0  0
    1.0657   -0.3375   -1.9590 O   0  0  0  0  0  0  0  0  0  0  0  0
    1.0019   -2.0770   -0.2954 C   0  0  0  0  0  0  0  0  0  0  0  0
   -0.5096   -1.8882   -0.1870 C   0  0  0  0  0  0  0  0  0  0  0  0
   -0.7841   -0.5394    0.4798 C   0  0  0  0  0  0  0  0  0  0  0  0
    0.1519    0.1517    0.8446 O   0  0  0  0  0  0  0  0  0  0  0  0
   -2.0709   -0.1539    0.6336 N   0  0  0  0  0  0  0  0  0  0  0  0
   -2.3483    1.1662    1.2149 C   0  0  0  0  0  0  0  0  0  0  0  0
   -1.8535    1.2505    2.6587 C   0  0  0  0  0  0  0  0  0  0  0  0
   -1.7620    2.2879    0.3580 C   0  0  0  0  0  0  0  0  0  0  0  0
   -3.2159   -0.9432    0.2006 C   0  0  0  0  0  0  0  0  0  0  0  0
   -3.9679   -0.2563   -0.9426 C   0  0  0  0  0  0  0  0  0  0  0  0
   -4.1463   -1.2736    1.3716 C   0  0  0  0  0  0  0  0  0  0  0  0
    4.7198   -0.3429   -3.2706 H   0  0  0  0  0  0  0  0  0  0  0  0
    4.6240   -1.6365   -2.0743 H   0  0  0  0  0  0  0  0  0  0  0  0
    6.1833   -0.9005   -2.4533 H   0  0  0  0  0  0  0  0  0  0  0  0
    5.4048    1.2586   -1.4772 H   0  0  0  0  0  0  0  0  0  0  0  0
    5.3131   -0.0456   -0.2845 H   0  0  0  0  0  0  0  0  0  0  0  0
    2.9421    0.8914   -1.9656 H   0  0  0  0  0  0  0  0  0  0  0  0
    3.7330    1.5302    0.9210 H   0  0  0  0  0  0  0  0  0  0  0  0
    3.5139    2.6960   -0.3974 H   0  0  0  0  0  0  0  0  0  0  0  0
    2.1265    1.7933    0.2426 H   0  0  0  0  0  0  0  0  0  0  0  0
    1.2283   -2.9800   -0.8655 H   0  0  0  0  0  0  0  0  0  0  0  0
    1.4647   -2.1460    0.6877 H   0  0  0  0  0  0  0  0  0  0  0  0
   -0.9322   -1.8777   -1.1932 H   0  0  0  0  0  0  0  0  0  0  0  0
   -0.9480   -2.7044    0.3895 H   0  0  0  0  0  0  0  0  0  0  0  0
   -3.4351    1.2788    1.2216 H   0  0  0  0  0  0  0  0  0  0  0  0
   -2.1472    2.2038    3.0909 H   0  0  0  0  0  0  0  0  0  0  0  0
   -0.7717    1.1692    2.6863 H   0  0  0  0  0  0  0  0  0  0  0  0
   -2.2827    0.4489    3.2556 H   0  0  0  0  0  0  0  0  0  0  0  0
   -0.6788    2.2279    0.3535 H   0  0  0  0  0  0  0  0  0  0  0  0
   -2.0613    3.2516    0.7626 H   0  0  0  0  0  0  0  0  0  0  0  0
   -2.1182    2.2101   -0.6663 H   0  0  0  0  0  0  0  0  0  0  0  0
   -2.8374   -1.8905   -0.1830 H   0  0  0  0  0  0  0  0  0  0  0  0
   -4.4478    0.6616   -0.6142 H   0  0  0  0  0  0  0  0  0  0  0  0
   -4.7354   -0.9231   -1.3275 H   0  0  0  0  0  0  0  0  0  0  0  0
   -3.2784   -0.0183   -1.7489 H   0  0  0  0  0  0  0  0  0  0  0  0
   -3.5813   -1.7313    2.1802 H   0  0  0  0  0  0  0  0  0  0  0  0
   -4.6460   -0.3889    1.7562 H   0  0  0  0  0  0  0  0  0  0  0  0
   -4.9078   -1.9755    1.0414 H   0  0  0  0  0  0  0  0  0  0  0  0
  1  2  1  0  0  0  0
  2  3  1  0  0  0  0
  3  4  1  0  0  0  0
  3  5  1  0  0  0  0
  5  6  1  0  0  0  0
  6  7  2  0  0  0  0
  6  8  1  0  0  0  0
  8  9  1  0  0  0  0
  9 10  1  0  0  0  0
 10 11  2  0  0  0  0
 10 12  4  0  0  0  0
 12 13  1  0  0  0  0
 13 14  1  0  0  0  0
 13 15  1  0  0  0  0
 12 16  1  0  0  0  0
 16 17  1  0  0  0  0
 16 18  1  0  0  0  0
  1 19  1  0  0  0  0
  1 20  1  0  0  0  0
  1 21  1  0  0  0  0
  2 22  1  0  0  0  0
  2 23  1  0  0  0  0
  3 24  1  0  0  0  0
  4 25  1  0  0  0  0
  4 26  1  0  0  0  0
  4 27  1  0  0  0  0
  8 28  1  0  0  0  0
  8 29  1  0  0  0  0
  9 30  1  0  0  0  0
  9 31  1  0  0  0  0
 13 32  1  0  0  0  0
 14 33  1  0  0  0  0
 14 34  1  0  0  0  0
 14 35  1  0  0  0  0
 15 36  1  0  0  0  0
 15 37  1  0  0  0  0
 15 38  1  0  0  0  0
 16 39  1  0  0  0  0
 17 40  1  0  0  0  0
 17 41  1  0  0  0  0
 17 42  1  0  0  0  0
 18 43  1  0  0  0  0
 18 44  1  0  0  0  0
 18 45  1  0  0  0  0
M  END
