 xtb: 6.7.1 (edcfbbe)
          07082619463D

 22 21  0     0  0            999 V2000
   -2.5993   -0.8715   -0.7657 C   0  0  0  0  0  0  0  0  0  0  0  0
   -1.6188    0.0283   -0.0229 C   0  0  0  0  0  0  0  0  0  0  0  0
   -0.2049   -0.5593   -0.0333 C   0  0  0  0  0  0  0  0  0  0  0  0
    0.2801   -0.4546   -1.3631 O   0  0  0  0  0  0  0  0  0  0  0  0
    0.7389    0.1178    0.9875 C   0  0  0  0  0  0  0  0  0  0  0  0
    2.1121   -0.5573    0.9930 C   0  0  0  0  0  0  0  0  0  0  0  0
    0.9028    1.6239    0.7196 C   0  0  0  0  0  0  0  0  0  0  0  0
    1.4652    1.9085   -0.5338 O   0  0  0  0  0  0  0  0  0  0  0  0
   -3.5854   -0.4148   -0.7934 H   0  0  0  0  0  0  0  0  0  0  0  0
   -2.2577   -1.0262   -1.7857 H   0  0  0  0  0  0  0  0  0  0  0  0
   -2.6799   -1.8394   -0.2751 H   0  0  0  0  0  0  0  0  0  0  0  0
   -1.5958    1.0042   -0.5086 H   0  0  0  0  0  0  0  0  0  0  0  0
   -1.9416    0.1602    1.0111 H   0  0  0  0  0  0  0  0  0  0  0  0
   -0.2749   -1.6257    0.2409 H   0  0  0  0  0  0  0  0  0  0  0  0
    1.1247   -0.9148   -1.4169 H   0  0  0  0  0  0  0  0  0  0  0  0
    0.2794    0.0010    1.9741 H   0  0  0  0  0  0  0  0  0  0  0  0
    2.0160   -1.6409    1.0368 H   0  0  0  0  0  0  0  0  0  0  0  0
    2.6834   -0.2286    1.8573 H   0  0  0  0  0  0  0  0  0  0  0  0
    2.6734   -0.2806    0.1022 H   0  0  0  0  0  0  0  0  0  0  0  0
   -0.0712    2.1236    0.8281 H   0  0  0  0  0  0  0  0  0  0  0  0
    1.5843    2.0512    1.4611 H   0  0  0  0  0  0  0  0  0  0  0  0
    0.9690    1.3949   -1.1914 H   0  0  0  0  0  0  0  0  0  0  0  0
  1  2  1  0  0  0  0
  2  3  1  0  0  0  0
  3  4  1  0  0  0  0
  3  5  1  0  0  0  0
  5  6  1  0  0  0  0
  5  7  1  0  0  0  0
  7  8  1  0  0  0  0
  1  9  1  0  0  0  0
  1 10  1  0  0  0  0
  1 11  1  0  0  0  0
  2 12  1  0  0  0  0
  2 13  1  0  0  0  0
  3 14  1  0  0  0  0
  4 15  1  0  0  0  0
  5 16  1  0  0  0  0
  6 17  1  0  0  0  0
  6 18  1  0  0  0  0
  6 19  1  0  0  0  0
  7 20  1  0  0  0  0
  7 21  1  0  0  0  0
  8 22  1  0  0  0  0
M  END
