 xtb: 6.7.1 (edcfbbe)
          07072622243D

 29 29  0     0  0            999 V2000
   -3.4264    0.8396    1.4823 C   0  0  0  0  0  0  0  0  0  0  0  0
   -3.4327   -0.1979    0.3666 C   0  0  0  0  0  0  0  0  0  0  0  0
   -2.1254   -0.1868   -0.4309 C   0  0  0  0  0  0  0  0  0  0  0  0
   -2.2160   -1.0983   -1.6558 C   0  0  0  0  0  0  0  0  0  0  0  0
   -1.1110   -0.6365    0.4561 O   0  0  0  0  0  0  0  0  0  0  0  0
    0.1960   -0.3702    0.2031 C   0  0  0  0  0  0  0  0  0  0  0  0
    0.6895    0.3786   -0.8603 C   0  0  0  0  0  0  0  0  0  0  0  0
    2.0521    0.5871   -0.9861 C   0  0  0  0  0  0  0  0  0  0  0  0
    2.9503    0.0646   -0.0691 C   0  0  0  0  0  0  0  0  0  0  0  0
    4.4314    0.3031   -0.2287 C   0  0  0  0  0  0  0  0  0  0  0  0
    4.7447    1.5514   -0.8034 O   0  0  0  0  0  0  0  0  0  0  0  0
    2.4545   -0.6831    0.9931 C   0  0  0  0  0  0  0  0  0  0  0  0
    1.1008   -0.9000    1.1272 C   0  0  0  0  0  0  0  0  0  0  0  0
   -4.3460    0.7823    2.0591 H   0  0  0  0  0  0  0  0  0  0  0  0
   -2.5861    0.6635    2.1488 H   0  0  0  0  0  0  0  0  0  0  0  0
   -3.3385    1.8437    1.0720 H   0  0  0  0  0  0  0  0  0  0  0  0
   -3.5616   -1.1935    0.7936 H   0  0  0  0  0  0  0  0  0  0  0  0
   -4.2605   -0.0060   -0.3178 H   0  0  0  0  0  0  0  0  0  0  0  0
   -1.9135    0.8454   -0.7453 H   0  0  0  0  0  0  0  0  0  0  0  0
   -2.4946   -2.1020   -1.3442 H   0  0  0  0  0  0  0  0  0  0  0  0
   -1.2573   -1.1523   -2.1663 H   0  0  0  0  0  0  0  0  0  0  0  0
   -2.9634   -0.7217   -2.3488 H   0  0  0  0  0  0  0  0  0  0  0  0
    0.0309    0.8057   -1.6003 H   0  0  0  0  0  0  0  0  0  0  0  0
    2.4271    1.1673   -1.8170 H   0  0  0  0  0  0  0  0  0  0  0  0
    4.8573   -0.4401   -0.9115 H   0  0  0  0  0  0  0  0  0  0  0  0
    4.9300    0.1919    0.7460 H   0  0  0  0  0  0  0  0  0  0  0  0
    4.3219    2.2421   -0.2815 H   0  0  0  0  0  0  0  0  0  0  0  0
    3.1372   -1.0998    1.7197 H   0  0  0  0  0  0  0  0  0  0  0  0
    0.7093   -1.4783    1.9493 H   0  0  0  0  0  0  0  0  0  0  0  0
  1  2  1  0  0  0  0
  2  3  1  0  0  0  0
  3  4  1  0  0  0  0
  3  5  1  0  0  0  0
  5  6  1  0  0  0  0
  6  7  4  0  0  0  0
  7  8  4  0  0  0  0
  8  9  4  0  0  0  0
  9 10  1  0  0  0  0
 10 11  1  0  0  0  0
  9 12  4  0  0  0  0
  6 13  4  0  0  0  0
 12 13  4  0  0  0  0
  1 14  1  0  0  0  0
  1 15  1  0  0  0  0
  1 16  1  0  0  0  0
  2 17  1  0  0  0  0
  2 18  1  0  0  0  0
  3 19  1  0  0  0  0
  4 20  1  0  0  0  0
  4 21  1  0  0  0  0
  4 22  1  0  0  0  0
  7 23  1  0  0  0  0
  8 24  1  0  0  0  0
 10 25  1  0  0  0  0
 10 26  1  0  0  0  0
 11 27  1  0  0  0  0
 12 28  1  0  0  0  0
 13 29  1  0  0  0  0
M  END
