 xtb: 6.7.1 (edcfbbe)
          07072606493D

 41 41  0     0  0            999 V2000
   -3.8364    0.9177   -0.3269 C   0  0  0  0  0  0  0  0  0  0  0  0
   -2.5280    0.8053   -1.0512 C   0  0  0  0  0  0  0  0  0  0  0  0
   -1.6874    2.0475   -0.9930 C   0  0  0  0  0  0  0  0  0  0  0  0
   -2.1089   -0.2820   -1.6868 C   0  0  0  0  0  0  0  0  0  0  0  0
   -2.8236   -1.5973   -1.7803 C   0  0  0  0  0  0  0  0  0  0  0  0
   -2.5862   -2.4469   -0.5148 C   0  0  0  0  0  0  0  0  0  0  0  0
   -1.1145   -2.6507   -0.2931 C   0  0  0  0  0  0  0  0  0  0  0  0
   -0.4545   -3.7135   -1.1230 C   0  0  0  0  0  0  0  0  0  0  0  0
   -0.4591   -1.8874    0.5737 C   0  0  0  0  0  0  0  0  0  0  0  0
    1.0079   -1.9160    0.8494 C   0  0  0  0  0  0  0  0  0  0  0  0
    1.4660   -0.5591    0.8558 O   0  0  0  0  0  0  0  0  0  0  0  0
    2.6967   -0.3381    1.3152 C   0  0  0  0  0  0  0  0  0  0  0  0
    3.4319   -1.2070    1.7186 O   0  0  0  0  0  0  0  0  0  0  0  0
    3.0567    1.1044    1.2750 C   0  0  0  0  0  0  0  0  0  0  0  0
    2.1698    2.0658    0.7969 C   0  0  0  0  0  0  0  0  0  0  0  0
    2.5385    3.3969    0.7732 C   0  0  0  0  0  0  0  0  0  0  0  0
    3.7967    3.7583    1.2295 C   0  0  0  0  0  0  0  0  0  0  0  0
    4.3043    5.5914    1.1966 Br  0  0  0  0  0  0  0  0  0  0  0  0
    4.6924    2.8154    1.7087 C   0  0  0  0  0  0  0  0  0  0  0  0
    4.3164    1.4867    1.7291 C   0  0  0  0  0  0  0  0  0  0  0  0
   -4.3179    1.8647   -0.5673 H   0  0  0  0  0  0  0  0  0  0  0  0
   -4.5142    0.1080   -0.5785 H   0  0  0  0  0  0  0  0  0  0  0  0
   -3.6673    0.8989    0.7503 H   0  0  0  0  0  0  0  0  0  0  0  0
   -2.1998    2.8760   -1.4823 H   0  0  0  0  0  0  0  0  0  0  0  0
   -0.7281    1.8965   -1.4815 H   0  0  0  0  0  0  0  0  0  0  0  0
   -1.5148    2.3345    0.0444 H   0  0  0  0  0  0  0  0  0  0  0  0
   -1.1348   -0.2585   -2.1571 H   0  0  0  0  0  0  0  0  0  0  0  0
   -3.8983   -1.4511   -1.9054 H   0  0  0  0  0  0  0  0  0  0  0  0
   -2.4573   -2.1418   -2.6521 H   0  0  0  0  0  0  0  0  0  0  0  0
   -3.0218   -1.9292    0.3400 H   0  0  0  0  0  0  0  0  0  0  0  0
   -3.0873   -3.4105   -0.6300 H   0  0  0  0  0  0  0  0  0  0  0  0
    0.4090   -3.3171   -1.6547 H   0  0  0  0  0  0  0  0  0  0  0  0
   -1.1503   -4.1189   -1.8525 H   0  0  0  0  0  0  0  0  0  0  0  0
   -0.1095   -4.5307   -0.4905 H   0  0  0  0  0  0  0  0  0  0  0  0
   -0.9916   -1.1352    1.1379 H   0  0  0  0  0  0  0  0  0  0  0  0
    1.5676   -2.4751    0.0934 H   0  0  0  0  0  0  0  0  0  0  0  0
    1.2275   -2.3617    1.8294 H   0  0  0  0  0  0  0  0  0  0  0  0
    1.1958    1.7647    0.4453 H   0  0  0  0  0  0  0  0  0  0  0  0
    1.8588    4.1498    0.4042 H   0  0  0  0  0  0  0  0  0  0  0  0
    5.6668    3.1194    2.0588 H   0  0  0  0  0  0  0  0  0  0  0  0
    4.9891    0.7263    2.0955 H   0  0  0  0  0  0  0  0  0  0  0  0
  1  2  1  0  0  0  0
  2  3  1  0  0  0  0
  2  4  2  0  0  0  0
  4  5  1  0  0  0  0
  5  6  1  0  0  0  0
  6  7  1  0  0  0  0
  7  8  1  0  0  0  0
  7  9  2  0  0  0  0
  9 10  1  0  0  0  0
 10 11  1  0  0  0  0
 11 12  1  0  0  0  0
 12 13  2  0  0  0  0
 12 14  1  0  0  0  0
 14 15  4  0  0  0  0
 15 16  4  0  0  0  0
 16 17  4  0  0  0  0
 17 18  1  0  0  0  0
 17 19  4  0  0  0  0
 14 20  4  0  0  0  0
 19 20  4  0  0  0  0
  1 21  1  0  0  0  0
  1 22  1  0  0  0  0
  1 23  1  0  0  0  0
  3 24  1  0  0  0  0
  3 25  1  0  0  0  0
  3 26  1  0  0  0  0
  4 27  1  0  0  0  0
  5 28  1  0  0  0  0
  5 29  1  0  0  0  0
  6 30  1  0  0  0  0
  6 31  1  0  0  0  0
  8 32  1  0  0  0  0
  8 33  1  0  0  0  0
  8 34  1  0  0  0  0
  9 35  1  0  0  0  0
 10 36  1  0  0  0  0
 10 37  1  0  0  0  0
 15 38  1  0  0  0  0
 16 39  1  0  0  0  0
 19 40  1  0  0  0  0
 20 41  1  0  0  0  0
M  END
