 xtb: 6.7.1 (edcfbbe)
          07082620213D

 19 18  0     0  0            999 V2000
    2.3607    0.3508    0.9179 C   0  0  0  0  0  0  0  0  0  0  0  0
    1.4647   -0.7228    1.0852 O   0  0  0  0  0  0  0  0  0  0  0  0
    1.0063   -1.2558   -0.1380 C   0  0  0  0  0  0  0  0  0  0  0  0
    0.1289   -0.3040   -0.9632 C   0  0  0  0  0  0  0  0  0  0  0  0
    0.4502   -0.0031   -2.0995 O   0  0  0  0  0  0  0  0  0  0  0  0
   -0.9930    0.1627   -0.3793 N   0  0  0  0  0  0  0  0  0  0  0  0
   -1.8891    0.9995   -1.1458 C   0  0  0  0  0  0  0  0  0  0  0  0
   -1.4695   -0.2023    0.9326 C   0  0  0  0  0  0  0  0  0  0  0  0
    1.8888    1.1901    0.3956 H   0  0  0  0  0  0  0  0  0  0  0  0
    3.2453    0.0386    0.3512 H   0  0  0  0  0  0  0  0  0  0  0  0
    2.6574    0.6619    1.9176 H   0  0  0  0  0  0  0  0  0  0  0  0
    1.8544   -1.5343   -0.7788 H   0  0  0  0  0  0  0  0  0  0  0  0
    0.4394   -2.1568    0.1128 H   0  0  0  0  0  0  0  0  0  0  0  0
   -2.0255    1.9627   -0.6495 H   0  0  0  0  0  0  0  0  0  0  0  0
   -1.4516    1.1556   -2.1296 H   0  0  0  0  0  0  0  0  0  0  0  0
   -2.8615    0.5133   -1.2522 H   0  0  0  0  0  0  0  0  0  0  0  0
   -0.6643   -0.5997    1.5424 H   0  0  0  0  0  0  0  0  0  0  0  0
   -2.2720   -0.9437    0.8573 H   0  0  0  0  0  0  0  0  0  0  0  0
   -1.8696    0.6872    1.4234 H   0  0  0  0  0  0  0  0  0  0  0  0
  1  2  1  0  0  0  0
  2  3  1  0  0  0  0
  3  4  1  0  0  0  0
  4  5  2  0  0  0  0
  4  6  4  0  0  0  0
  6  7  1  0  0  0  0
  6  8  1  0  0  0  0
  1  9  1  0  0  0  0
  1 10  1  0  0  0  0
  1 11  1  0  0  0  0
  3 12  1  0  0  0  0
  3 13  1  0  0  0  0
  7 14  1  0  0  0  0
  7 15  1  0  0  0  0
  7 16  1  0  0  0  0
  8 17  1  0  0  0  0
  8 18  1  0  0  0  0
  8 19  1  0  0  0  0
M  END
