 xtb: 6.7.1 (edcfbbe)
          07062620183D

 36 36  0     0  0            999 V2000
   -3.6279   -1.3522   -0.6877 C   0  0  0  0  0  0  0  0  0  0  0  0
   -3.8973   -0.2937    0.3716 C   0  0  0  0  0  0  0  0  0  0  0  0
   -3.1205    0.8727    0.1041 O   0  0  0  0  0  0  0  0  0  0  0  0
   -2.0848    1.1356    0.9043 C   0  0  0  0  0  0  0  0  0  0  0  0
   -1.8425    0.5442    1.9256 O   0  0  0  0  0  0  0  0  0  0  0  0
   -1.3160    2.3391    0.3977 C   0  0  0  0  0  0  0  0  0  0  0  0
   -0.6570    2.0426   -0.9520 C   0  0  0  0  0  0  0  0  0  0  0  0
    0.3051    0.8489   -0.8405 C   0  0  0  0  0  0  0  0  0  0  0  0
    1.0472    0.5954   -2.1577 C   0  0  0  0  0  0  0  0  0  0  0  0
   -0.4502   -0.2855   -0.4652 O   0  0  0  0  0  0  0  0  0  0  0  0
    0.3139   -1.0528    0.4327 C   0  0  0  0  0  0  0  0  0  0  0  0
    1.3489   -0.0692    1.0070 C   0  0  0  0  0  0  0  0  0  0  0  0
    2.7793   -0.6181    0.9972 C   0  0  0  0  0  0  0  0  0  0  0  0
    3.0750   -1.2038   -0.2486 O   0  0  0  0  0  0  0  0  0  0  0  0
    4.4044   -1.6456   -0.3403 C   0  0  0  0  0  0  0  0  0  0  0  0
    1.2298    1.0852    0.2043 O   0  0  0  0  0  0  0  0  0  0  0  0
   -4.1746   -2.2604   -0.4496 H   0  0  0  0  0  0  0  0  0  0  0  0
   -3.9403   -0.9933   -1.6650 H   0  0  0  0  0  0  0  0  0  0  0  0
   -2.5627   -1.5661   -0.7220 H   0  0  0  0  0  0  0  0  0  0  0  0
   -4.9452    0.0208    0.3575 H   0  0  0  0  0  0  0  0  0  0  0  0
   -3.6392   -0.6650    1.3688 H   0  0  0  0  0  0  0  0  0  0  0  0
   -2.0128    3.1702    0.2826 H   0  0  0  0  0  0  0  0  0  0  0  0
   -0.5533    2.5958    1.1327 H   0  0  0  0  0  0  0  0  0  0  0  0
   -1.4185    1.7919   -1.6896 H   0  0  0  0  0  0  0  0  0  0  0  0
   -0.0969    2.9153   -1.2858 H   0  0  0  0  0  0  0  0  0  0  0  0
    1.7518   -0.2199   -2.0135 H   0  0  0  0  0  0  0  0  0  0  0  0
    0.3348    0.3313   -2.9338 H   0  0  0  0  0  0  0  0  0  0  0  0
    1.5931    1.4888   -2.4455 H   0  0  0  0  0  0  0  0  0  0  0  0
   -0.3576   -1.4393    1.2018 H   0  0  0  0  0  0  0  0  0  0  0  0
    0.8129   -1.8753   -0.0925 H   0  0  0  0  0  0  0  0  0  0  0  0
    1.0967    0.2135    2.0377 H   0  0  0  0  0  0  0  0  0  0  0  0
    3.4703    0.2125    1.2001 H   0  0  0  0  0  0  0  0  0  0  0  0
    2.8812   -1.3645    1.8009 H   0  0  0  0  0  0  0  0  0  0  0  0
    4.5198   -2.0842   -1.3295 H   0  0  0  0  0  0  0  0  0  0  0  0
    4.6240   -2.4018    0.4238 H   0  0  0  0  0  0  0  0  0  0  0  0
    5.1088   -0.8131   -0.2240 H   0  0  0  0  0  0  0  0  0  0  0  0
  1  2  1  0  0  0  0
  2  3  1  0  0  0  0
  3  4  1  0  0  0  0
  4  5  2  0  0  0  0
  4  6  1  0  0  0  0
  6  7  1  0  0  0  0
  7  8  1  0  0  0  0
  8  9  1  0  0  0  0
  8 10  1  0  0  0  0
 10 11  1  0  0  0  0
 11 12  1  0  0  0  0
 12 13  1  0  0  0  0
 13 14  1  0  0  0  0
 14 15  1  0  0  0  0
  8 16  1  0  0  0  0
 12 16  1  0  0  0  0
  1 17  1  0  0  0  0
  1 18  1  0  0  0  0
  1 19  1  0  0  0  0
  2 20  1  0  0  0  0
  2 21  1  0  0  0  0
  6 22  1  0  0  0  0
  6 23  1  0  0  0  0
  7 24  1  0  0  0  0
  7 25  1  0  0  0  0
  9 26  1  0  0  0  0
  9 27  1  0  0  0  0
  9 28  1  0  0  0  0
 11 29  1  0  0  0  0
 11 30  1  0  0  0  0
 12 31  1  0  0  0  0
 13 32  1  0  0  0  0
 13 33  1  0  0  0  0
 15 34  1  0  0  0  0
 15 35  1  0  0  0  0
 15 36  1  0  0  0  0
M  END
