 xtb: 6.7.1 (edcfbbe)
          07072616383D

 26 27  0     0  0            999 V2000
    1.7878   -2.7016    0.8267 O   0  0  0  0  0  0  0  0  0  0  0  0
    0.9710   -1.7108    0.2538 C   0  0  0  0  0  0  0  0  0  0  0  0
   -0.2569   -1.4066    1.1517 C   0  0  0  0  0  0  0  0  0  0  0  0
   -1.1879   -0.4606    0.4567 C   0  0  0  0  0  0  0  0  0  0  0  0
   -1.0804    0.9117    0.6456 C   0  0  0  0  0  0  0  0  0  0  0  0
   -1.9007    1.7912   -0.0370 C   0  0  0  0  0  0  0  0  0  0  0  0
   -2.8418    1.2921   -0.9218 C   0  0  0  0  0  0  0  0  0  0  0  0
   -3.8727    2.3838   -1.7804 Cl  0  0  0  0  0  0  0  0  0  0  0  0
   -2.9685   -0.0725   -1.1251 C   0  0  0  0  0  0  0  0  0  0  0  0
   -2.1391   -0.9383   -0.4369 C   0  0  0  0  0  0  0  0  0  0  0  0
    1.7238   -0.4424   -0.0089 C   0  0  0  0  0  0  0  0  0  0  0  0
    1.7768    0.3794   -1.0943 C   0  0  0  0  0  0  0  0  0  0  0  0
    2.6142    1.4626   -0.7291 C   0  0  0  0  0  0  0  0  0  0  0  0
    3.0056    1.2184    0.5482 C   0  0  0  0  0  0  0  0  0  0  0  0
    2.4694    0.0696    0.9972 O   0  0  0  0  0  0  0  0  0  0  0  0
    2.2253   -2.3231    1.5992 H   0  0  0  0  0  0  0  0  0  0  0  0
    0.6267   -2.1213   -0.7006 H   0  0  0  0  0  0  0  0  0  0  0  0
   -0.7549   -2.3529    1.3675 H   0  0  0  0  0  0  0  0  0  0  0  0
    0.0992   -0.9746    2.0896 H   0  0  0  0  0  0  0  0  0  0  0  0
   -0.3493    1.3030    1.3376 H   0  0  0  0  0  0  0  0  0  0  0  0
   -1.8119    2.8554    0.1145 H   0  0  0  0  0  0  0  0  0  0  0  0
   -3.7077   -0.4498   -1.8143 H   0  0  0  0  0  0  0  0  0  0  0  0
   -2.2354   -2.0024   -0.5941 H   0  0  0  0  0  0  0  0  0  0  0  0
    1.2815    0.2325   -2.0314 H   0  0  0  0  0  0  0  0  0  0  0  0
    2.8842    2.3010   -1.3372 H   0  0  0  0  0  0  0  0  0  0  0  0
    3.6416    1.7560    1.2230 H   0  0  0  0  0  0  0  0  0  0  0  0
  1  2  1  0  0  0  0
  2  3  1  0  0  0  0
  3  4  1  0  0  0  0
  4  5  4  0  0  0  0
  5  6  4  0  0  0  0
  6  7  4  0  0  0  0
  7  8  1  0  0  0  0
  7  9  4  0  0  0  0
  4 10  4  0  0  0  0
  9 10  4  0  0  0  0
  2 11  1  0  0  0  0
 11 12  2  0  0  0  0
 12 13  4  0  0  0  0
 13 14  2  0  0  0  0
 11 15  1  0  0  0  0
 14 15  1  0  0  0  0
  1 16  1  0  0  0  0
  2 17  1  0  0  0  0
  3 18  1  0  0  0  0
  3 19  1  0  0  0  0
  5 20  1  0  0  0  0
  6 21  1  0  0  0  0
  9 22  1  0  0  0  0
 10 23  1  0  0  0  0
 12 24  1  0  0  0  0
 13 25  1  0  0  0  0
 14 26  1  0  0  0  0
M  END
