 xtb: 6.7.1 (edcfbbe)
          07082603373D

 27 27  0     0  0            999 V2000
   -0.3693   -2.4181    1.5853 C   0  0  0  0  0  0  0  0  0  0  0  0
   -0.3485   -0.9133    1.8665 C   0  0  0  0  0  0  0  0  0  0  0  0
   -0.4986   -0.1112    0.6702 N   0  0  0  0  0  0  0  0  0  0  0  0
   -1.8611    0.1458    0.2541 C   0  0  0  0  0  0  0  0  0  0  0  0
   -2.2889    1.5923    0.5646 C   0  0  0  0  0  0  0  0  0  0  0  0
   -2.2136    1.8800    1.9393 O   0  0  0  0  0  0  0  0  0  0  0  0
    0.5594    0.0972   -0.1924 C   0  0  0  0  0  0  0  0  0  0  0  0
    0.3952    0.8184   -1.3834 C   0  0  0  0  0  0  0  0  0  0  0  0
    1.4582    1.0522   -2.2330 C   0  0  0  0  0  0  0  0  0  0  0  0
    2.7267    0.5906   -1.9304 C   0  0  0  0  0  0  0  0  0  0  0  0
    2.9089   -0.1150   -0.7545 C   0  0  0  0  0  0  0  0  0  0  0  0
    1.8514   -0.3628    0.0979 C   0  0  0  0  0  0  0  0  0  0  0  0
    0.4360   -2.6915    0.9084 H   0  0  0  0  0  0  0  0  0  0  0  0
   -0.2536   -2.9734    2.5125 H   0  0  0  0  0  0  0  0  0  0  0  0
   -1.3125   -2.7040    1.1250 H   0  0  0  0  0  0  0  0  0  0  0  0
   -1.1700   -0.6627    2.5433 H   0  0  0  0  0  0  0  0  0  0  0  0
    0.5812   -0.6392    2.3716 H   0  0  0  0  0  0  0  0  0  0  0  0
   -1.9927   -0.0533   -0.8134 H   0  0  0  0  0  0  0  0  0  0  0  0
   -2.5234   -0.5284    0.8019 H   0  0  0  0  0  0  0  0  0  0  0  0
   -1.6696    2.2989   -0.0031 H   0  0  0  0  0  0  0  0  0  0  0  0
   -3.3347    1.7343    0.2828 H   0  0  0  0  0  0  0  0  0  0  0  0
   -1.2938    1.7780    2.2111 H   0  0  0  0  0  0  0  0  0  0  0  0
   -0.5696    1.2116   -1.6600 H   0  0  0  0  0  0  0  0  0  0  0  0
    1.2884    1.6092   -3.1435 H   0  0  0  0  0  0  0  0  0  0  0  0
    3.5553    0.7776   -2.5959 H   0  0  0  0  0  0  0  0  0  0  0  0
    3.8897   -0.4871   -0.4943 H   0  0  0  0  0  0  0  0  0  0  0  0
    2.0496   -0.9261    0.9951 H   0  0  0  0  0  0  0  0  0  0  0  0
  1  2  1  0  0  0  0
  2  3  1  0  0  0  0
  3  4  1  0  0  0  0
  4  5  1  0  0  0  0
  5  6  1  0  0  0  0
  3  7  1  0  0  0  0
  7  8  4  0  0  0  0
  8  9  4  0  0  0  0
  9 10  4  0  0  0  0
 10 11  4  0  0  0  0
  7 12  4  0  0  0  0
 11 12  4  0  0  0  0
  1 13  1  0  0  0  0
  1 14  1  0  0  0  0
  1 15  1  0  0  0  0
  2 16  1  0  0  0  0
  2 17  1  0  0  0  0
  4 18  1  0  0  0  0
  4 19  1  0  0  0  0
  5 20  1  0  0  0  0
  5 21  1  0  0  0  0
  6 22  1  0  0  0  0
  8 23  1  0  0  0  0
  9 24  1  0  0  0  0
 10 25  1  0  0  0  0
 11 26  1  0  0  0  0
 12 27  1  0  0  0  0
M  END
