 xtb: 6.7.1 (edcfbbe)
          07072623173D

 34 33  0     0  0            999 V2000
    4.2621    1.4421   -0.4422 C   0  0  0  0  0  0  0  0  0  0  0  0
    2.9843    1.2918    0.3729 C   0  0  0  0  0  0  0  0  0  0  0  0
    1.9510    0.4291   -0.3471 C   0  0  0  0  0  0  0  0  0  0  0  0
    0.6916    0.2372    0.5033 C   0  0  0  0  0  0  0  0  0  0  0  0
    1.0558   -0.4296    1.6881 O   0  0  0  0  0  0  0  0  0  0  0  0
   -0.4123   -0.5246   -0.2674 C   0  0  0  0  0  0  0  0  0  0  0  0
   -0.1109   -2.0308   -0.3198 C   0  0  0  0  0  0  0  0  0  0  0  0
   -0.6932   -2.7019   -1.5573 C   0  0  0  0  0  0  0  0  0  0  0  0
   -1.8065   -0.2894    0.3491 C   0  0  0  0  0  0  0  0  0  0  0  0
   -1.7313   -0.5797    1.7363 O   0  0  0  0  0  0  0  0  0  0  0  0
   -2.3431    1.1268    0.0973 C   0  0  0  0  0  0  0  0  0  0  0  0
   -3.8210    1.2616    0.4540 C   0  0  0  0  0  0  0  0  0  0  0  0
    4.0506    1.9051   -1.4043 H   0  0  0  0  0  0  0  0  0  0  0  0
    4.9817    2.0628    0.0864 H   0  0  0  0  0  0  0  0  0  0  0  0
    4.7156    0.4701   -0.6233 H   0  0  0  0  0  0  0  0  0  0  0  0
    3.2085    0.8294    1.3344 H   0  0  0  0  0  0  0  0  0  0  0  0
    2.5571    2.2787    0.5669 H   0  0  0  0  0  0  0  0  0  0  0  0
    1.6728    0.8971   -1.2937 H   0  0  0  0  0  0  0  0  0  0  0  0
    2.3905   -0.5456   -0.5599 H   0  0  0  0  0  0  0  0  0  0  0  0
    0.3073    1.2408    0.7551 H   0  0  0  0  0  0  0  0  0  0  0  0
    0.2322   -0.6438    2.1461 H   0  0  0  0  0  0  0  0  0  0  0  0
   -0.4377   -0.1320   -1.2886 H   0  0  0  0  0  0  0  0  0  0  0  0
    0.9686   -2.1795   -0.3093 H   0  0  0  0  0  0  0  0  0  0  0  0
   -0.5110   -2.5013    0.5794 H   0  0  0  0  0  0  0  0  0  0  0  0
   -0.4769   -3.7676   -1.5444 H   0  0  0  0  0  0  0  0  0  0  0  0
   -1.7729   -2.5762   -1.6038 H   0  0  0  0  0  0  0  0  0  0  0  0
   -0.2617   -2.2759   -2.4609 H   0  0  0  0  0  0  0  0  0  0  0  0
   -2.5055   -0.9998   -0.1243 H   0  0  0  0  0  0  0  0  0  0  0  0
   -2.5918   -0.4048    2.1299 H   0  0  0  0  0  0  0  0  0  0  0  0
   -1.7641    1.8427    0.6828 H   0  0  0  0  0  0  0  0  0  0  0  0
   -2.2064    1.3631   -0.9588 H   0  0  0  0  0  0  0  0  0  0  0  0
   -4.1769    2.2570    0.2003 H   0  0  0  0  0  0  0  0  0  0  0  0
   -4.4161    0.5352   -0.0966 H   0  0  0  0  0  0  0  0  0  0  0  0
   -3.9906    1.1120    1.5194 H   0  0  0  0  0  0  0  0  0  0  0  0
  1  2  1  0  0  0  0
  2  3  1  0  0  0  0
  3  4  1  0  0  0  0
  4  5  1  0  0  0  0
  4  6  1  0  0  0  0
  6  7  1  0  0  0  0
  7  8  1  0  0  0  0
  6  9  1  0  0  0  0
  9 10  1  0  0  0  0
  9 11  1  0  0  0  0
 11 12  1  0  0  0  0
  1 13  1  0  0  0  0
  1 14  1  0  0  0  0
  1 15  1  0  0  0  0
  2 16  1  0  0  0  0
  2 17  1  0  0  0  0
  3 18  1  0  0  0  0
  3 19  1  0  0  0  0
  4 20  1  0  0  0  0
  5 21  1  0  0  0  0
  6 22  1  0  0  0  0
  7 23  1  0  0  0  0
  7 24  1  0  0  0  0
  8 25  1  0  0  0  0
  8 26  1  0  0  0  0
  8 27  1  0  0  0  0
  9 28  1  0  0  0  0
 10 29  1  0  0  0  0
 11 30  1  0  0  0  0
 11 31  1  0  0  0  0
 12 32  1  0  0  0  0
 12 33  1  0  0  0  0
 12 34  1  0  0  0  0
M  END
