 xtb: 6.7.1 (edcfbbe)
          07082617593D

 19 18  0     0  0            999 V2000
   -2.4786    0.2963   -0.7972 C   0  0  0  0  0  0  0  0  0  0  0  0
   -1.2127    0.0286    0.0132 C   0  0  0  0  0  0  0  0  0  0  0  0
   -0.9415    1.1892    0.7615 O   0  0  0  0  0  0  0  0  0  0  0  0
   -0.0485   -0.3500   -0.9192 C   0  0  0  0  0  0  0  0  0  0  0  0
    1.1817   -0.9371   -0.2197 C   0  0  0  0  0  0  0  0  0  0  0  0
    2.0720    0.0797    0.4943 C   0  0  0  0  0  0  0  0  0  0  0  0
    1.5244    0.3904    1.7655 O   0  0  0  0  0  0  0  0  0  0  0  0
   -2.2924    1.0861   -1.5202 H   0  0  0  0  0  0  0  0  0  0  0  0
   -2.7978   -0.6020   -1.3184 H   0  0  0  0  0  0  0  0  0  0  0  0
   -3.2705    0.6232   -0.1292 H   0  0  0  0  0  0  0  0  0  0  0  0
   -1.4002   -0.8172    0.6981 H   0  0  0  0  0  0  0  0  0  0  0  0
   -0.1434    1.0120    1.2857 H   0  0  0  0  0  0  0  0  0  0  0  0
    0.2407    0.5373   -1.4870 H   0  0  0  0  0  0  0  0  0  0  0  0
   -0.4199   -1.0943   -1.6262 H   0  0  0  0  0  0  0  0  0  0  0  0
    1.7964   -1.4366   -0.9710 H   0  0  0  0  0  0  0  0  0  0  0  0
    0.8682   -1.6845    0.5119 H   0  0  0  0  0  0  0  0  0  0  0  0
    3.0740   -0.3503    0.6285 H   0  0  0  0  0  0  0  0  0  0  0  0
    2.1645    0.9904   -0.1127 H   0  0  0  0  0  0  0  0  0  0  0  0
    2.0837    1.0388    2.2046 H   0  0  0  0  0  0  0  0  0  0  0  0
  1  2  1  0  0  0  0
  2  3  1  0  0  0  0
  2  4  1  0  0  0  0
  4  5  1  0  0  0  0
  5  6  1  0  0  0  0
  6  7  1  0  0  0  0
  1  8  1  0  0  0  0
  1  9  1  0  0  0  0
  1 10  1  0  0  0  0
  2 11  1  0  0  0  0
  3 12  1  0  0  0  0
  4 13  1  0  0  0  0
  4 14  1  0  0  0  0
  5 15  1  0  0  0  0
  5 16  1  0  0  0  0
  6 17  1  0  0  0  0
  6 18  1  0  0  0  0
  7 19  1  0  0  0  0
M  END
