 xtb: 6.7.1 (edcfbbe)
          07092621363D

 30 29  0     0  0            999 V2000
   -5.2384    0.9884   -1.1228 C   0  0  0  0  0  0  0  0  0  0  0  0
   -4.3279    0.0285   -1.0618 C   0  0  0  0  0  0  0  0  0  0  0  0
   -3.1719    0.1251   -0.1413 C   0  0  0  0  0  0  0  0  0  0  0  0
   -2.9577    1.0461    0.6088 O   0  0  0  0  0  0  0  0  0  0  0  0
   -2.3961   -0.9575   -0.2474 O   0  0  0  0  0  0  0  0  0  0  0  0
   -1.2260   -1.0242    0.5837 C   0  0  0  0  0  0  0  0  0  0  0  0
   -0.9474   -2.4992    0.8328 C   0  0  0  0  0  0  0  0  0  0  0  0
   -0.0756   -0.2957   -0.1170 C   0  0  0  0  0  0  0  0  0  0  0  0
    1.1855   -0.2031    0.7373 C   0  0  0  0  0  0  0  0  0  0  0  0
    2.2582    0.6458    0.0584 C   0  0  0  0  0  0  0  0  0  0  0  0
    3.5378    0.7235    0.8878 C   0  0  0  0  0  0  0  0  0  0  0  0
    4.6066    1.5657    0.2021 C   0  0  0  0  0  0  0  0  0  0  0  0
   -5.1467    1.8601   -0.4952 H   0  0  0  0  0  0  0  0  0  0  0  0
   -6.0865    0.9390   -1.7840 H   0  0  0  0  0  0  0  0  0  0  0  0
   -4.3683   -0.8656   -1.6652 H   0  0  0  0  0  0  0  0  0  0  0  0
   -1.4559   -0.5112    1.5273 H   0  0  0  0  0  0  0  0  0  0  0  0
   -1.8401   -2.9827    1.2214 H   0  0  0  0  0  0  0  0  0  0  0  0
   -0.1461   -2.6112    1.5561 H   0  0  0  0  0  0  0  0  0  0  0  0
   -0.6648   -2.9872   -0.0964 H   0  0  0  0  0  0  0  0  0  0  0  0
   -0.4172    0.7142   -0.3565 H   0  0  0  0  0  0  0  0  0  0  0  0
    0.1452   -0.8083   -1.0563 H   0  0  0  0  0  0  0  0  0  0  0  0
    0.9336    0.2384    1.7041 H   0  0  0  0  0  0  0  0  0  0  0  0
    1.5860   -1.2021    0.9185 H   0  0  0  0  0  0  0  0  0  0  0  0
    1.8721    1.6546   -0.1033 H   0  0  0  0  0  0  0  0  0  0  0  0
    2.4897    0.2194   -0.9207 H   0  0  0  0  0  0  0  0  0  0  0  0
    3.9225   -0.2856    1.0532 H   0  0  0  0  0  0  0  0  0  0  0  0
    3.3080    1.1539    1.8650 H   0  0  0  0  0  0  0  0  0  0  0  0
    5.5089    1.6077    0.8077 H   0  0  0  0  0  0  0  0  0  0  0  0
    4.8627    1.1419   -0.7666 H   0  0  0  0  0  0  0  0  0  0  0  0
    4.2498    2.5814    0.0467 H   0  0  0  0  0  0  0  0  0  0  0  0
  1  2  2  0  0  0  0
  2  3  1  0  0  0  0
  3  4  2  0  0  0  0
  3  5  1  0  0  0  0
  5  6  1  0  0  0  0
  6  7  1  0  0  0  0
  6  8  1  0  0  0  0
  8  9  1  0  0  0  0
  9 10  1  0  0  0  0
 10 11  1  0  0  0  0
 11 12  1  0  0  0  0
  1 13  1  0  0  0  0
  1 14  1  0  0  0  0
  2 15  1  0  0  0  0
  6 16  1  0  0  0  0
  7 17  1  0  0  0  0
  7 18  1  0  0  0  0
  7 19  1  0  0  0  0
  8 20  1  0  0  0  0
  8 21  1  0  0  0  0
  9 22  1  0  0  0  0
  9 23  1  0  0  0  0
 10 24  1  0  0  0  0
 10 25  1  0  0  0  0
 11 26  1  0  0  0  0
 11 27  1  0  0  0  0
 12 28  1  0  0  0  0
 12 29  1  0  0  0  0
 12 30  1  0  0  0  0
M  END
