 xtb: 6.7.1 (edcfbbe)
          07092604043D

 25 24  0     0  0            999 V2000
   -0.6748   -3.4666   -0.8459 O   0  0  0  0  0  0  0  0  0  0  0  0
   -0.4957   -2.0752   -0.9326 C   0  0  0  0  0  0  0  0  0  0  0  0
    0.0009   -1.4735    0.3910 C   0  0  0  0  0  0  0  0  0  0  0  0
    0.2483   -0.0469    0.2658 N   0  0  0  0  0  0  0  0  0  0  0  0
    1.5747    0.2474   -0.2519 C   0  0  0  0  0  0  0  0  0  0  0  0
    1.6896    1.6818   -0.7979 C   0  0  0  0  0  0  0  0  0  0  0  0
    0.6378    2.0349   -1.6512 O   0  0  0  0  0  0  0  0  0  0  0  0
   -0.1346    0.7184    1.4432 C   0  0  0  0  0  0  0  0  0  0  0  0
   -1.6300    1.0606    1.3285 C   0  0  0  0  0  0  0  0  0  0  0  0
   -1.9299    1.5156    0.0337 O   0  0  0  0  0  0  0  0  0  0  0  0
   -1.3300   -3.6589   -0.1660 H   0  0  0  0  0  0  0  0  0  0  0  0
   -1.4287   -1.5773   -1.2345 H   0  0  0  0  0  0  0  0  0  0  0  0
    0.2406   -1.9253   -1.7240 H   0  0  0  0  0  0  0  0  0  0  0  0
   -0.7708   -1.6320    1.1507 H   0  0  0  0  0  0  0  0  0  0  0  0
    0.9025   -2.0182    0.7131 H   0  0  0  0  0  0  0  0  0  0  0  0
    2.3622    0.0925    0.5055 H   0  0  0  0  0  0  0  0  0  0  0  0
    1.7526   -0.4433   -1.0771 H   0  0  0  0  0  0  0  0  0  0  0  0
    2.6042    1.7498   -1.3928 H   0  0  0  0  0  0  0  0  0  0  0  0
    1.7773    2.4028    0.0282 H   0  0  0  0  0  0  0  0  0  0  0  0
   -0.1767    2.0919   -1.1302 H   0  0  0  0  0  0  0  0  0  0  0  0
    0.4334    1.6482    1.4594 H   0  0  0  0  0  0  0  0  0  0  0  0
    0.0626    0.1853    2.3845 H   0  0  0  0  0  0  0  0  0  0  0  0
   -2.2422    0.1792    1.5692 H   0  0  0  0  0  0  0  0  0  0  0  0
   -1.8961    1.8629    2.0188 H   0  0  0  0  0  0  0  0  0  0  0  0
   -1.5769    0.8457   -0.5731 H   0  0  0  0  0  0  0  0  0  0  0  0
  1  2  1  0  0  0  0
  2  3  1  0  0  0  0
  3  4  1  0  0  0  0
  4  5  1  0  0  0  0
  5  6  1  0  0  0  0
  6  7  1  0  0  0  0
  4  8  1  0  0  0  0
  8  9  1  0  0  0  0
  9 10  1  0  0  0  0
  1 11  1  0  0  0  0
  2 12  1  0  0  0  0
  2 13  1  0  0  0  0
  3 14  1  0  0  0  0
  3 15  1  0  0  0  0
  5 16  1  0  0  0  0
  5 17  1  0  0  0  0
  6 18  1  0  0  0  0
  6 19  1  0  0  0  0
  7 20  1  0  0  0  0
  8 21  1  0  0  0  0
  8 22  1  0  0  0  0
  9 23  1  0  0  0  0
  9 24  1  0  0  0  0
 10 25  1  0  0  0  0
M  END
