 xtb: 6.7.1 (edcfbbe)
          07092617513D

 26 26  0     0  0            999 V2000
    4.0773    0.4163   -1.4264 C   0  0  0  0  0  0  0  0  0  0  0  0
    2.7658    0.2991   -1.5025 C   0  0  0  0  0  0  0  0  0  0  0  0
    1.8981   -0.2421   -0.4112 C   0  0  0  0  0  0  0  0  0  0  0  0
    0.9107   -1.0728   -0.9852 O   0  0  0  0  0  0  0  0  0  0  0  0
    0.0173   -1.6246   -0.0388 C   0  0  0  0  0  0  0  0  0  0  0  0
   -0.8390   -0.5922    0.6561 C   0  0  0  0  0  0  0  0  0  0  0  0
   -0.6867   -0.3730    2.0184 C   0  0  0  0  0  0  0  0  0  0  0  0
   -1.4426    0.5809    2.6765 C   0  0  0  0  0  0  0  0  0  0  0  0
   -2.3583    1.3345    1.9649 C   0  0  0  0  0  0  0  0  0  0  0  0
   -2.5126    1.1250    0.6061 C   0  0  0  0  0  0  0  0  0  0  0  0
   -1.7644    0.1674   -0.0659 C   0  0  0  0  0  0  0  0  0  0  0  0
   -1.9611   -0.0534   -1.5342 C   0  0  0  0  0  0  0  0  0  0  0  0
    4.6254    0.1121   -0.5497 H   0  0  0  0  0  0  0  0  0  0  0  0
    4.6575    0.8311   -2.2324 H   0  0  0  0  0  0  0  0  0  0  0  0
    2.2259    0.5996   -2.3890 H   0  0  0  0  0  0  0  0  0  0  0  0
    1.4174    0.5971    0.1220 H   0  0  0  0  0  0  0  0  0  0  0  0
    2.4953   -0.8085    0.3205 H   0  0  0  0  0  0  0  0  0  0  0  0
    0.5808   -2.2004    0.7119 H   0  0  0  0  0  0  0  0  0  0  0  0
   -0.6066   -2.3157   -0.6132 H   0  0  0  0  0  0  0  0  0  0  0  0
    0.0330   -0.9609    2.5718 H   0  0  0  0  0  0  0  0  0  0  0  0
   -1.3131    0.7363    3.7373 H   0  0  0  0  0  0  0  0  0  0  0  0
   -2.9512    2.0855    2.4661 H   0  0  0  0  0  0  0  0  0  0  0  0
   -3.2288    1.7164    0.0530 H   0  0  0  0  0  0  0  0  0  0  0  0
   -2.4858   -0.9948   -1.7024 H   0  0  0  0  0  0  0  0  0  0  0  0
   -1.0032   -0.1127   -2.0447 H   0  0  0  0  0  0  0  0  0  0  0  0
   -2.5511    0.7497   -1.9688 H   0  0  0  0  0  0  0  0  0  0  0  0
  1  2  2  0  0  0  0
  2  3  1  0  0  0  0
  3  4  1  0  0  0  0
  4  5  1  0  0  0  0
  5  6  1  0  0  0  0
  6  7  4  0  0  0  0
  7  8  4  0  0  0  0
  8  9  4  0  0  0  0
  9 10  4  0  0  0  0
  6 11  4  0  0  0  0
 10 11  4  0  0  0  0
 11 12  1  0  0  0  0
  1 13  1  0  0  0  0
  1 14  1  0  0  0  0
  2 15  1  0  0  0  0
  3 16  1  0  0  0  0
  3 17  1  0  0  0  0
  5 18  1  0  0  0  0
  5 19  1  0  0  0  0
  7 20  1  0  0  0  0
  8 21  1  0  0  0  0
  9 22  1  0  0  0  0
 10 23  1  0  0  0  0
 12 24  1  0  0  0  0
 12 25  1  0  0  0  0
 12 26  1  0  0  0  0
M  END
