 xtb: 6.7.1 (edcfbbe)
          07082620563D

 23 22  0     0  0            999 V2000
   -4.0595    0.0791   -0.1337 C   0  0  0  0  0  0  0  0  0  0  0  0
   -2.5790    0.0329   -0.4879 C   0  0  0  0  0  0  0  0  0  0  0  0
   -1.6981    0.2586    0.7472 C   0  0  0  0  0  0  0  0  0  0  0  0
   -0.2522    0.2282    0.3890 C   0  0  0  0  0  0  0  0  0  0  0  0
    0.6232   -0.6456    0.8809 C   0  0  0  0  0  0  0  0  0  0  0  0
    2.0576   -0.7369    0.5534 C   0  0  0  0  0  0  0  0  0  0  0  0
    2.7495   -1.5985    1.0507 O   0  0  0  0  0  0  0  0  0  0  0  0
    2.6160    0.2834   -0.4213 C   0  0  0  0  0  0  0  0  0  0  0  0
    4.1075    0.0846   -0.6559 C   0  0  0  0  0  0  0  0  0  0  0  0
   -4.3007   -0.6870    0.5998 H   0  0  0  0  0  0  0  0  0  0  0  0
   -4.3234    1.0483    0.2840 H   0  0  0  0  0  0  0  0  0  0  0  0
   -4.6676   -0.0905   -1.0189 H   0  0  0  0  0  0  0  0  0  0  0  0
   -2.3580    0.7983   -1.2351 H   0  0  0  0  0  0  0  0  0  0  0  0
   -2.3367   -0.9387   -0.9236 H   0  0  0  0  0  0  0  0  0  0  0  0
   -1.9387    1.2379    1.1720 H   0  0  0  0  0  0  0  0  0  0  0  0
   -1.9171   -0.5024    1.4978 H   0  0  0  0  0  0  0  0  0  0  0  0
    0.0542    0.9716   -0.3351 H   0  0  0  0  0  0  0  0  0  0  0  0
    0.2968   -1.3879    1.5991 H   0  0  0  0  0  0  0  0  0  0  0  0
    2.4256    1.2814   -0.0199 H   0  0  0  0  0  0  0  0  0  0  0  0
    2.0701    0.1911   -1.3632 H   0  0  0  0  0  0  0  0  0  0  0  0
    4.2946   -0.9080   -1.0575 H   0  0  0  0  0  0  0  0  0  0  0  0
    4.4865    0.8260   -1.3551 H   0  0  0  0  0  0  0  0  0  0  0  0
    4.6494    0.1741    0.2821 H   0  0  0  0  0  0  0  0  0  0  0  0
  1  2  1  0  0  0  0
  2  3  1  0  0  0  0
  3  4  1  0  0  0  0
  4  5  2  0  0  0  0
  5  6  1  0  0  0  0
  6  7  2  0  0  0  0
  6  8  1  0  0  0  0
  8  9  1  0  0  0  0
  1 10  1  0  0  0  0
  1 11  1  0  0  0  0
  1 12  1  0  0  0  0
  2 13  1  0  0  0  0
  2 14  1  0  0  0  0
  3 15  1  0  0  0  0
  3 16  1  0  0  0  0
  4 17  1  0  0  0  0
  5 18  1  0  0  0  0
  8 19  1  0  0  0  0
  8 20  1  0  0  0  0
  9 21  1  0  0  0  0
  9 22  1  0  0  0  0
  9 23  1  0  0  0  0
M  END
