 xtb: 6.7.1 (edcfbbe)
          07092614263D

 22 22  0     0  0            999 V2000
    3.7929   -0.7436   -0.3505 C   0  0  0  0  0  0  0  0  0  0  0  0
    2.9429    0.1753   -0.7651 C   0  0  0  0  0  0  0  0  0  0  0  0
    1.4511    0.0253   -0.7553 C   0  0  0  0  0  0  0  0  0  0  0  0
    0.7646    0.9918    0.2336 C   0  0  0  0  0  0  0  0  0  0  0  0
   -0.4194    0.1816    0.7392 C   0  0  0  0  0  0  0  0  0  0  0  0
   -1.6658    0.3887   -0.1073 C   0  0  0  0  0  0  0  0  0  0  0  0
   -1.6499    0.7887   -1.2416 O   0  0  0  0  0  0  0  0  0  0  0  0
   -2.7540    0.0573    0.5746 O   0  0  0  0  0  0  0  0  0  0  0  0
   -3.9994    0.1070   -0.1129 C   0  0  0  0  0  0  0  0  0  0  0  0
    0.0247   -1.2732    0.4820 C   0  0  0  0  0  0  0  0  0  0  0  0
   -0.4803   -2.2539    0.9380 O   0  0  0  0  0  0  0  0  0  0  0  0
    1.0581   -1.2856   -0.3477 O   0  0  0  0  0  0  0  0  0  0  0  0
    3.4518   -1.6971    0.0140 H   0  0  0  0  0  0  0  0  0  0  0  0
    4.8561   -0.5800   -0.3713 H   0  0  0  0  0  0  0  0  0  0  0  0
    3.2759    1.1335   -1.1390 H   0  0  0  0  0  0  0  0  0  0  0  0
    1.0567    0.1827   -1.7690 H   0  0  0  0  0  0  0  0  0  0  0  0
    0.4538    1.9063   -0.2672 H   0  0  0  0  0  0  0  0  0  0  0  0
    1.4426    1.2354    1.0525 H   0  0  0  0  0  0  0  0  0  0  0  0
   -0.6712    0.3133    1.7905 H   0  0  0  0  0  0  0  0  0  0  0  0
   -3.9734    0.8789   -0.8843 H   0  0  0  0  0  0  0  0  0  0  0  0
   -4.7596    0.3293    0.6323 H   0  0  0  0  0  0  0  0  0  0  0  0
   -4.1983   -0.8617   -0.5742 H   0  0  0  0  0  0  0  0  0  0  0  0
  1  2  2  0  0  0  0
  2  3  1  0  0  0  0
  3  4  1  0  0  0  0
  4  5  1  0  0  0  0
  5  6  1  0  0  0  0
  6  7  2  0  0  0  0
  6  8  1  0  0  0  0
  8  9  1  0  0  0  0
  5 10  1  0  0  0  0
 10 11  2  0  0  0  0
  3 12  1  0  0  0  0
 10 12  1  0  0  0  0
  1 13  1  0  0  0  0
  1 14  1  0  0  0  0
  2 15  1  0  0  0  0
  3 16  1  0  0  0  0
  4 17  1  0  0  0  0
  4 18  1  0  0  0  0
  5 19  1  0  0  0  0
  9 20  1  0  0  0  0
  9 21  1  0  0  0  0
  9 22  1  0  0  0  0
M  END
