 xtb: 6.7.1 (edcfbbe)
          07092603313D

 22 21  0     0  0            999 V2000
    3.6817   -0.7638    0.4800 C   0  0  0  0  0  0  0  0  0  0  0  0
    2.6993    0.3356    0.8556 C   0  0  0  0  0  0  0  0  0  0  0  0
    1.7307    0.5424   -0.1771 O   0  0  0  0  0  0  0  0  0  0  0  0
    0.6626   -0.2451   -0.1823 C   0  0  0  0  0  0  0  0  0  0  0  0
    0.4448   -1.1175    0.6182 O   0  0  0  0  0  0  0  0  0  0  0  0
   -0.2749    0.1255   -1.3166 C   0  0  0  0  0  0  0  0  0  0  0  0
   -1.5220    0.7542   -0.6932 C   0  0  0  0  0  0  0  0  0  0  0  0
   -1.6715    1.9454   -0.6516 O   0  0  0  0  0  0  0  0  0  0  0  0
   -2.4862   -0.2516   -0.1257 C   0  0  0  0  0  0  0  0  0  0  0  0
   -3.6120    0.4021    0.6643 C   0  0  0  0  0  0  0  0  0  0  0  0
    4.1643   -0.5301   -0.4659 H   0  0  0  0  0  0  0  0  0  0  0  0
    3.1603   -1.7135    0.3868 H   0  0  0  0  0  0  0  0  0  0  0  0
    4.4396   -0.8535    1.2527 H   0  0  0  0  0  0  0  0  0  0  0  0
    2.1780    0.0794    1.7834 H   0  0  0  0  0  0  0  0  0  0  0  0
    3.2044    1.2972    0.9639 H   0  0  0  0  0  0  0  0  0  0  0  0
   -0.5452   -0.7815   -1.8553 H   0  0  0  0  0  0  0  0  0  0  0  0
    0.2191    0.8446   -1.9679 H   0  0  0  0  0  0  0  0  0  0  0  0
   -2.8938   -0.8322   -0.9578 H   0  0  0  0  0  0  0  0  0  0  0  0
   -1.9128   -0.9423    0.4991 H   0  0  0  0  0  0  0  0  0  0  0  0
   -4.1577    1.0995    0.0336 H   0  0  0  0  0  0  0  0  0  0  0  0
   -4.3014   -0.3506    1.0375 H   0  0  0  0  0  0  0  0  0  0  0  0
   -3.2073    0.9559    1.5073 H   0  0  0  0  0  0  0  0  0  0  0  0
  1  2  1  0  0  0  0
  2  3  1  0  0  0  0
  3  4  1  0  0  0  0
  4  5  2  0  0  0  0
  4  6  1  0  0  0  0
  6  7  1  0  0  0  0
  7  8  2  0  0  0  0
  7  9  1  0  0  0  0
  9 10  1  0  0  0  0
  1 11  1  0  0  0  0
  1 12  1  0  0  0  0
  1 13  1  0  0  0  0
  2 14  1  0  0  0  0
  2 15  1  0  0  0  0
  6 16  1  0  0  0  0
  6 17  1  0  0  0  0
  9 18  1  0  0  0  0
  9 19  1  0  0  0  0
 10 20  1  0  0  0  0
 10 21  1  0  0  0  0
 10 22  1  0  0  0  0
M  END
