 xtb: 6.7.1 (edcfbbe)
          07072619013D

 31 30  0     0  0            999 V2000
    3.0729    0.8054   -0.3406 C   0  0  0  0  0  0  0  0  0  0  0  0
    1.7253    0.4974    0.3200 C   0  0  0  0  0  0  0  0  0  0  0  0
    1.9604   -0.4830    1.4656 C   0  0  0  0  0  0  0  0  0  0  0  0
    0.7559    0.0184   -0.7883 C   0  0  0  0  0  0  0  0  0  0  0  0
    0.6822    1.0347   -1.7662 O   0  0  0  0  0  0  0  0  0  0  0  0
   -0.6880   -0.4218   -0.3733 C   0  0  0  0  0  0  0  0  0  0  0  0
   -1.4836   -0.6007   -1.6772 C   0  0  0  0  0  0  0  0  0  0  0  0
   -0.6843   -1.7782    0.3402 C   0  0  0  0  0  0  0  0  0  0  0  0
   -1.3321    0.6618    0.5328 C   0  0  0  0  0  0  0  0  0  0  0  0
   -2.7478    0.3263    1.0022 C   0  0  0  0  0  0  0  0  0  0  0  0
   -1.3191    1.9395   -0.0846 O   0  0  0  0  0  0  0  0  0  0  0  0
    3.7298    1.3178    0.3585 H   0  0  0  0  0  0  0  0  0  0  0  0
    3.5543   -0.1183   -0.6558 H   0  0  0  0  0  0  0  0  0  0  0  0
    2.9333    1.4345   -1.2153 H   0  0  0  0  0  0  0  0  0  0  0  0
    1.3284    1.4349    0.7256 H   0  0  0  0  0  0  0  0  0  0  0  0
    2.1672   -1.4797    1.0841 H   0  0  0  0  0  0  0  0  0  0  0  0
    2.8231   -0.1560    2.0432 H   0  0  0  0  0  0  0  0  0  0  0  0
    1.1138   -0.5330    2.1436 H   0  0  0  0  0  0  0  0  0  0  0  0
    1.2193   -0.8323   -1.3038 H   0  0  0  0  0  0  0  0  0  0  0  0
    0.2578    1.7921   -1.3342 H   0  0  0  0  0  0  0  0  0  0  0  0
   -2.5041   -0.9149   -1.4732 H   0  0  0  0  0  0  0  0  0  0  0  0
   -1.4987    0.3117   -2.2678 H   0  0  0  0  0  0  0  0  0  0  0  0
   -1.0071   -1.3696   -2.2809 H   0  0  0  0  0  0  0  0  0  0  0  0
    0.0367   -2.4444   -0.1268 H   0  0  0  0  0  0  0  0  0  0  0  0
   -1.6644   -2.2434    0.2618 H   0  0  0  0  0  0  0  0  0  0  0  0
   -0.4388   -1.6893    1.3926 H   0  0  0  0  0  0  0  0  0  0  0  0
   -0.7025    0.7840    1.4201 H   0  0  0  0  0  0  0  0  0  0  0  0
   -3.4277    0.2243    0.1590 H   0  0  0  0  0  0  0  0  0  0  0  0
   -2.7599   -0.5921    1.5793 H   0  0  0  0  0  0  0  0  0  0  0  0
   -3.1085    1.1361    1.6335 H   0  0  0  0  0  0  0  0  0  0  0  0
   -1.9939    1.9377   -0.7740 H   0  0  0  0  0  0  0  0  0  0  0  0
  1  2  1  0  0  0  0
  2  3  1  0  0  0  0
  2  4  1  0  0  0  0
  4  5  1  0  0  0  0
  4  6  1  0  0  0  0
  6  7  1  0  0  0  0
  6  8  1  0  0  0  0
  6  9  1  0  0  0  0
  9 10  1  0  0  0  0
  9 11  1  0  0  0  0
  1 12  1  0  0  0  0
  1 13  1  0  0  0  0
  1 14  1  0  0  0  0
  2 15  1  0  0  0  0
  3 16  1  0  0  0  0
  3 17  1  0  0  0  0
  3 18  1  0  0  0  0
  4 19  1  0  0  0  0
  5 20  1  0  0  0  0
  7 21  1  0  0  0  0
  7 22  1  0  0  0  0
  7 23  1  0  0  0  0
  8 24  1  0  0  0  0
  8 25  1  0  0  0  0
  8 26  1  0  0  0  0
  9 27  1  0  0  0  0
 10 28  1  0  0  0  0
 10 29  1  0  0  0  0
 10 30  1  0  0  0  0
 11 31  1  0  0  0  0
M  END
