 xtb: 6.7.1 (edcfbbe)
          07092602323D

 23 22  0     0  0            999 V2000
    4.0929   -0.3935   -0.8828 C   0  0  0  0  0  0  0  0  0  0  0  0
    2.9936   -0.0413    0.1115 C   0  0  0  0  0  0  0  0  0  0  0  0
    1.6076   -0.1832   -0.5128 C   0  0  0  0  0  0  0  0  0  0  0  0
    0.5125    0.1689    0.4816 C   0  0  0  0  0  0  0  0  0  0  0  0
   -0.7566    0.0162   -0.1629 O   0  0  0  0  0  0  0  0  0  0  0  0
   -1.8320    0.2862    0.5708 C   0  0  0  0  0  0  0  0  0  0  0  0
   -1.8005    0.6432    1.7189 O   0  0  0  0  0  0  0  0  0  0  0  0
   -3.1014    0.0828   -0.2362 C   0  0  0  0  0  0  0  0  0  0  0  0
   -4.3192    0.3939    0.6119 C   0  0  0  0  0  0  0  0  0  0  0  0
   -5.9520    0.1359   -0.4146 Br  0  0  0  0  0  0  0  0  0  0  0  0
    3.9843   -1.4202   -1.2244 H   0  0  0  0  0  0  0  0  0  0  0  0
    5.0714   -0.2868   -0.4215 H   0  0  0  0  0  0  0  0  0  0  0  0
    4.0485    0.2621   -1.7494 H   0  0  0  0  0  0  0  0  0  0  0  0
    3.1304    0.9854    0.4574 H   0  0  0  0  0  0  0  0  0  0  0  0
    3.0662   -0.6963    0.9822 H   0  0  0  0  0  0  0  0  0  0  0  0
    1.4574   -1.2085   -0.8551 H   0  0  0  0  0  0  0  0  0  0  0  0
    1.5216    0.4738   -1.3801 H   0  0  0  0  0  0  0  0  0  0  0  0
    0.5444   -0.4875    1.3584 H   0  0  0  0  0  0  0  0  0  0  0  0
    0.6089    1.2030    0.8309 H   0  0  0  0  0  0  0  0  0  0  0  0
   -3.0584    0.7298   -1.1159 H   0  0  0  0  0  0  0  0  0  0  0  0
   -3.1225   -0.9504   -0.5916 H   0  0  0  0  0  0  0  0  0  0  0  0
   -4.3809   -0.2652    1.4763 H   0  0  0  0  0  0  0  0  0  0  0  0
   -4.3163    1.4297    0.9474 H   0  0  0  0  0  0  0  0  0  0  0  0
  1  2  1  0  0  0  0
  2  3  1  0  0  0  0
  3  4  1  0  0  0  0
  4  5  1  0  0  0  0
  5  6  1  0  0  0  0
  6  7  2  0  0  0  0
  6  8  1  0  0  0  0
  8  9  1  0  0  0  0
  9 10  1  0  0  0  0
  1 11  1  0  0  0  0
  1 12  1  0  0  0  0
  1 13  1  0  0  0  0
  2 14  1  0  0  0  0
  2 15  1  0  0  0  0
  3 16  1  0  0  0  0
  3 17  1  0  0  0  0
  4 18  1  0  0  0  0
  4 19  1  0  0  0  0
  8 20  1  0  0  0  0
  8 21  1  0  0  0  0
  9 22  1  0  0  0  0
  9 23  1  0  0  0  0
M  END
