 xtb: 6.7.1 (edcfbbe)
          07082607193D

 27 28  0     0  0            999 V2000
   -2.2823    1.0205   -1.2243 C   0  0  0  0  0  0  0  0  0  0  0  0
   -1.1746    0.2781   -0.5078 C   0  0  0  0  0  0  0  0  0  0  0  0
   -1.6199   -0.5130    0.7471 C   0  0  0  0  0  0  0  0  0  0  0  0
   -0.5059   -1.5597    0.9357 C   0  0  0  0  0  0  0  0  0  0  0  0
    0.5321   -1.1461   -0.1147 C   0  0  0  0  0  0  0  0  0  0  0  0
   -0.3926   -0.7887   -1.2816 C   0  0  0  0  0  0  0  0  0  0  0  0
    1.1418    0.2231    0.2524 C   0  0  0  0  0  0  0  0  0  0  0  0
    2.2958    0.5964   -0.6861 C   0  0  0  0  0  0  0  0  0  0  0  0
    1.6412    0.3628    1.6923 C   0  0  0  0  0  0  0  0  0  0  0  0
   -0.0456    1.1547    0.0073 C   0  0  0  0  0  0  0  0  0  0  0  0
   -0.0797    2.3378    0.2127 O   0  0  0  0  0  0  0  0  0  0  0  0
   -2.6989    1.7834   -0.5706 H   0  0  0  0  0  0  0  0  0  0  0  0
   -1.8920    1.5113   -2.1133 H   0  0  0  0  0  0  0  0  0  0  0  0
   -3.0750    0.3365   -1.5207 H   0  0  0  0  0  0  0  0  0  0  0  0
   -2.5868   -0.9816    0.5626 H   0  0  0  0  0  0  0  0  0  0  0  0
   -1.7265    0.1455    1.6095 H   0  0  0  0  0  0  0  0  0  0  0  0
   -0.8740   -2.5612    0.7084 H   0  0  0  0  0  0  0  0  0  0  0  0
   -0.1062   -1.5795    1.9464 H   0  0  0  0  0  0  0  0  0  0  0  0
    1.2830   -1.9098   -0.3141 H   0  0  0  0  0  0  0  0  0  0  0  0
    0.1166   -0.3886   -2.1557 H   0  0  0  0  0  0  0  0  0  0  0  0
   -1.0223   -1.6222   -1.5893 H   0  0  0  0  0  0  0  0  0  0  0  0
    2.5574    1.6427   -0.5444 H   0  0  0  0  0  0  0  0  0  0  0  0
    3.1672   -0.0160   -0.4614 H   0  0  0  0  0  0  0  0  0  0  0  0
    2.0330    0.4509   -1.7305 H   0  0  0  0  0  0  0  0  0  0  0  0
    2.1176    1.3327    1.8132 H   0  0  0  0  0  0  0  0  0  0  0  0
    2.3684   -0.4152    1.9162 H   0  0  0  0  0  0  0  0  0  0  0  0
    0.8282    0.3052    2.4105 H   0  0  0  0  0  0  0  0  0  0  0  0
  1  2  1  0  0  0  0
  2  3  1  0  0  0  0
  3  4  1  0  0  0  0
  4  5  1  0  0  0  0
  2  6  1  0  0  0  0
  5  6  1  0  0  0  0
  5  7  1  0  0  0  0
  7  8  1  0  0  0  0
  7  9  1  0  0  0  0
  2 10  1  0  0  0  0
  7 10  1  0  0  0  0
 10 11  2  0  0  0  0
  1 12  1  0  0  0  0
  1 13  1  0  0  0  0
  1 14  1  0  0  0  0
  3 15  1  0  0  0  0
  3 16  1  0  0  0  0
  4 17  1  0  0  0  0
  4 18  1  0  0  0  0
  5 19  1  0  0  0  0
  6 20  1  0  0  0  0
  6 21  1  0  0  0  0
  8 22  1  0  0  0  0
  8 23  1  0  0  0  0
  8 24  1  0  0  0  0
  9 25  1  0  0  0  0
  9 26  1  0  0  0  0
  9 27  1  0  0  0  0
M  END
