 xtb: 6.7.1 (edcfbbe)
          07092611063D

 29 29  0     0  0            999 V2000
    4.1260   -1.6246    0.2422 C   0  0  0  0  0  0  0  0  0  0  0  0
    3.1466   -0.5129    0.5933 C   0  0  0  0  0  0  0  0  0  0  0  0
    1.7504   -0.8032    0.0531 C   0  0  0  0  0  0  0  0  0  0  0  0
    0.9025    0.2651    0.4125 O   0  0  0  0  0  0  0  0  0  0  0  0
   -0.4789    0.0529    0.1708 C   0  0  0  0  0  0  0  0  0  0  0  0
   -0.8667    0.1862   -1.3036 C   0  0  0  0  0  0  0  0  0  0  0  0
   -2.3771    0.0478   -1.4695 C   0  0  0  0  0  0  0  0  0  0  0  0
   -3.1115    1.0908   -0.6322 C   0  0  0  0  0  0  0  0  0  0  0  0
   -2.7262    0.9641    0.8369 C   0  0  0  0  0  0  0  0  0  0  0  0
   -1.2176    1.1070    1.0104 C   0  0  0  0  0  0  0  0  0  0  0  0
   -0.8950    0.9647    2.3733 O   0  0  0  0  0  0  0  0  0  0  0  0
    5.1121   -1.3974    0.6384 H   0  0  0  0  0  0  0  0  0  0  0  0
    4.2060   -1.7381   -0.8365 H   0  0  0  0  0  0  0  0  0  0  0  0
    3.7961   -2.5721    0.6627 H   0  0  0  0  0  0  0  0  0  0  0  0
    3.4872    0.4354    0.1754 H   0  0  0  0  0  0  0  0  0  0  0  0
    3.0852   -0.3964    1.6767 H   0  0  0  0  0  0  0  0  0  0  0  0
    1.7910   -0.9157   -1.0400 H   0  0  0  0  0  0  0  0  0  0  0  0
    1.3662   -1.7443    0.4780 H   0  0  0  0  0  0  0  0  0  0  0  0
   -0.7592   -0.9495    0.5369 H   0  0  0  0  0  0  0  0  0  0  0  0
   -0.3567   -0.5787   -1.8924 H   0  0  0  0  0  0  0  0  0  0  0  0
   -0.5372    1.1646   -1.6596 H   0  0  0  0  0  0  0  0  0  0  0  0
   -2.6841   -0.9517   -1.1528 H   0  0  0  0  0  0  0  0  0  0  0  0
   -2.6405    0.1615   -2.5228 H   0  0  0  0  0  0  0  0  0  0  0  0
   -4.1898    0.9629   -0.7419 H   0  0  0  0  0  0  0  0  0  0  0  0
   -2.8530    2.0898   -0.9898 H   0  0  0  0  0  0  0  0  0  0  0  0
   -3.0262   -0.0108    1.2253 H   0  0  0  0  0  0  0  0  0  0  0  0
   -3.2204    1.7288    1.4366 H   0  0  0  0  0  0  0  0  0  0  0  0
   -0.8944    2.1005    0.6570 H   0  0  0  0  0  0  0  0  0  0  0  0
    0.0653    0.8732    2.4194 H   0  0  0  0  0  0  0  0  0  0  0  0
  1  2  1  0  0  0  0
  2  3  1  0  0  0  0
  3  4  1  0  0  0  0
  4  5  1  0  0  0  0
  5  6  1  0  0  0  0
  6  7  1  0  0  0  0
  7  8  1  0  0  0  0
  8  9  1  0  0  0  0
  5 10  1  0  0  0  0
  9 10  1  0  0  0  0
 10 11  1  0  0  0  0
  1 12  1  0  0  0  0
  1 13  1  0  0  0  0
  1 14  1  0  0  0  0
  2 15  1  0  0  0  0
  2 16  1  0  0  0  0
  3 17  1  0  0  0  0
  3 18  1  0  0  0  0
  5 19  1  0  0  0  0
  6 20  1  0  0  0  0
  6 21  1  0  0  0  0
  7 22  1  0  0  0  0
  7 23  1  0  0  0  0
  8 24  1  0  0  0  0
  8 25  1  0  0  0  0
  9 26  1  0  0  0  0
  9 27  1  0  0  0  0
 10 28  1  0  0  0  0
 11 29  1  0  0  0  0
M  END
