 xtb: 6.7.1 (edcfbbe)
          07092617343D

 30 30  0     0  0            999 V2000
    2.4838    1.1991    1.0791 C   0  0  0  0  0  0  0  0  0  0  0  0
    2.6288    0.1890    0.2367 C   0  0  0  0  0  0  0  0  0  0  0  0
    3.8671    0.0380   -0.5969 C   0  0  0  0  0  0  0  0  0  0  0  0
    1.6283   -0.9167    0.0324 C   0  0  0  0  0  0  0  0  0  0  0  0
    0.1899   -0.6137    0.4521 C   0  0  0  0  0  0  0  0  0  0  0  0
   -0.4509    0.4619   -0.4350 C   0  0  0  0  0  0  0  0  0  0  0  0
   -1.8853    0.7662   -0.0069 C   0  0  0  0  0  0  0  0  0  0  0  0
   -2.4885    1.8644   -0.8787 C   0  0  0  0  0  0  0  0  0  0  0  0
   -2.7166   -0.5131   -0.0909 C   0  0  0  0  0  0  0  0  0  0  0  0
   -2.1106   -1.6213    0.7728 C   0  0  0  0  0  0  0  0  0  0  0  0
   -0.6671   -1.8640    0.3935 C   0  0  0  0  0  0  0  0  0  0  0  0
   -0.2478   -2.9475    0.0731 O   0  0  0  0  0  0  0  0  0  0  0  0
    1.6125    1.3348    1.6954 H   0  0  0  0  0  0  0  0  0  0  0  0
    3.2500    1.9481    1.1891 H   0  0  0  0  0  0  0  0  0  0  0  0
    3.6229    0.1347   -1.6547 H   0  0  0  0  0  0  0  0  0  0  0  0
    4.6084    0.7905   -0.3418 H   0  0  0  0  0  0  0  0  0  0  0  0
    4.3019   -0.9495   -0.4479 H   0  0  0  0  0  0  0  0  0  0  0  0
    1.9704   -1.7960    0.5887 H   0  0  0  0  0  0  0  0  0  0  0  0
    1.6281   -1.2031   -1.0227 H   0  0  0  0  0  0  0  0  0  0  0  0
    0.1735   -0.2705    1.4920 H   0  0  0  0  0  0  0  0  0  0  0  0
    0.1572    1.3671   -0.3890 H   0  0  0  0  0  0  0  0  0  0  0  0
   -0.4501    0.1138   -1.4711 H   0  0  0  0  0  0  0  0  0  0  0  0
   -1.8769    1.1125    1.0335 H   0  0  0  0  0  0  0  0  0  0  0  0
   -3.5086    2.0813   -0.5701 H   0  0  0  0  0  0  0  0  0  0  0  0
   -1.9041    2.7780   -0.8000 H   0  0  0  0  0  0  0  0  0  0  0  0
   -2.5040    1.5561   -1.9218 H   0  0  0  0  0  0  0  0  0  0  0  0
   -2.7564   -0.8489   -1.1297 H   0  0  0  0  0  0  0  0  0  0  0  0
   -3.7406   -0.3193    0.2356 H   0  0  0  0  0  0  0  0  0  0  0  0
   -2.1426   -1.3221    1.8234 H   0  0  0  0  0  0  0  0  0  0  0  0
   -2.6728   -2.5497    0.6599 H   0  0  0  0  0  0  0  0  0  0  0  0
  1  2  2  0  0  0  0
  2  3  1  0  0  0  0
  2  4  1  0  0  0  0
  4  5  1  0  0  0  0
  5  6  1  0  0  0  0
  6  7  1  0  0  0  0
  7  8  1  0  0  0  0
  7  9  1  0  0  0  0
  9 10  1  0  0  0  0
  5 11  1  0  0  0  0
 10 11  1  0  0  0  0
 11 12  2  0  0  0  0
  1 13  1  0  0  0  0
  1 14  1  0  0  0  0
  3 15  1  0  0  0  0
  3 16  1  0  0  0  0
  3 17  1  0  0  0  0
  4 18  1  0  0  0  0
  4 19  1  0  0  0  0
  5 20  1  0  0  0  0
  6 21  1  0  0  0  0
  6 22  1  0  0  0  0
  7 23  1  0  0  0  0
  8 24  1  0  0  0  0
  8 25  1  0  0  0  0
  8 26  1  0  0  0  0
  9 27  1  0  0  0  0
  9 28  1  0  0  0  0
 10 29  1  0  0  0  0
 10 30  1  0  0  0  0
M  END
