 xtb: 6.7.1 (edcfbbe)
          07072614063D

 34 34  0     0  0            999 V2000
    4.8605    0.6724   -0.9352 C   0  0  0  0  0  0  0  0  0  0  0  0
    3.4336    0.5505   -0.4188 C   0  0  0  0  0  0  0  0  0  0  0  0
    3.3067   -0.6001    0.5759 C   0  0  0  0  0  0  0  0  0  0  0  0
    2.0035   -0.6500    1.1601 O   0  0  0  0  0  0  0  0  0  0  0  0
    1.0422   -1.2540    0.4658 C   0  0  0  0  0  0  0  0  0  0  0  0
    1.2116   -1.7643   -0.6173 O   0  0  0  0  0  0  0  0  0  0  0  0
   -0.2770   -1.2143    1.1915 C   0  0  0  0  0  0  0  0  0  0  0  0
   -1.3987   -0.6875    0.2561 C   0  0  0  0  0  0  0  0  0  0  0  0
   -1.5792   -1.5794   -0.8171 O   0  0  0  0  0  0  0  0  0  0  0  0
   -2.7199   -0.6260    1.0353 C   0  0  0  0  0  0  0  0  0  0  0  0
   -3.8317   -0.0324    0.1757 C   0  0  0  0  0  0  0  0  0  0  0  0
   -3.4533    1.3659   -0.2986 C   0  0  0  0  0  0  0  0  0  0  0  0
   -2.1561    1.3035   -1.0966 C   0  0  0  0  0  0  0  0  0  0  0  0
   -1.0316    0.7225   -0.2444 C   0  0  0  0  0  0  0  0  0  0  0  0
    5.1642   -0.2441   -1.4345 H   0  0  0  0  0  0  0  0  0  0  0  0
    5.5495    0.8629   -0.1160 H   0  0  0  0  0  0  0  0  0  0  0  0
    4.9346    1.4913   -1.6451 H   0  0  0  0  0  0  0  0  0  0  0  0
    2.7534    0.3705   -1.2529 H   0  0  0  0  0  0  0  0  0  0  0  0
    3.1321    1.4768    0.0742 H   0  0  0  0  0  0  0  0  0  0  0  0
    3.9909   -0.4661    1.4160 H   0  0  0  0  0  0  0  0  0  0  0  0
    3.5113   -1.5529    0.0772 H   0  0  0  0  0  0  0  0  0  0  0  0
   -0.5359   -2.2339    1.4859 H   0  0  0  0  0  0  0  0  0  0  0  0
   -0.1816   -0.5945    2.0813 H   0  0  0  0  0  0  0  0  0  0  0  0
   -0.7063   -1.7833   -1.1868 H   0  0  0  0  0  0  0  0  0  0  0  0
   -2.9920   -1.6373    1.3406 H   0  0  0  0  0  0  0  0  0  0  0  0
   -2.5768   -0.0180    1.9304 H   0  0  0  0  0  0  0  0  0  0  0  0
   -3.9832   -0.6790   -0.6890 H   0  0  0  0  0  0  0  0  0  0  0  0
   -4.7595   -0.0006    0.7503 H   0  0  0  0  0  0  0  0  0  0  0  0
   -3.3224    2.0242    0.5643 H   0  0  0  0  0  0  0  0  0  0  0  0
   -4.2517    1.7782   -0.9183 H   0  0  0  0  0  0  0  0  0  0  0  0
   -1.8754    2.2991   -1.4466 H   0  0  0  0  0  0  0  0  0  0  0  0
   -2.3030    0.6622   -1.9674 H   0  0  0  0  0  0  0  0  0  0  0  0
   -0.1138    0.6705   -0.8355 H   0  0  0  0  0  0  0  0  0  0  0  0
   -0.8453    1.3672    0.6171 H   0  0  0  0  0  0  0  0  0  0  0  0
  1  2  1  0  0  0  0
  2  3  1  0  0  0  0
  3  4  1  0  0  0  0
  4  5  1  0  0  0  0
  5  6  2  0  0  0  0
  5  7  1  0  0  0  0
  7  8  1  0  0  0  0
  8  9  1  0  0  0  0
  8 10  1  0  0  0  0
 10 11  1  0  0  0  0
 11 12  1  0  0  0  0
 12 13  1  0  0  0  0
  8 14  1  0  0  0  0
 13 14  1  0  0  0  0
  1 15  1  0  0  0  0
  1 16  1  0  0  0  0
  1 17  1  0  0  0  0
  2 18  1  0  0  0  0
  2 19  1  0  0  0  0
  3 20  1  0  0  0  0
  3 21  1  0  0  0  0
  7 22  1  0  0  0  0
  7 23  1  0  0  0  0
  9 24  1  0  0  0  0
 10 25  1  0  0  0  0
 10 26  1  0  0  0  0
 11 27  1  0  0  0  0
 11 28  1  0  0  0  0
 12 29  1  0  0  0  0
 12 30  1  0  0  0  0
 13 31  1  0  0  0  0
 13 32  1  0  0  0  0
 14 33  1  0  0  0  0
 14 34  1  0  0  0  0
M  END
