 xtb: 6.7.1 (edcfbbe)
          07082600493D

 33 33  0     0  0            999 V2000
   -4.9869    1.3687   -0.0543 C   0  0  0  0  0  0  0  0  0  0  0  0
   -4.6530   -0.0861   -0.3637 C   0  0  0  0  0  0  0  0  0  0  0  0
   -3.3890   -0.5783    0.3420 C   0  0  0  0  0  0  0  0  0  0  0  0
   -2.1131    0.0938   -0.1607 C   0  0  0  0  0  0  0  0  0  0  0  0
   -0.8662   -0.4986    0.4919 C   0  0  0  0  0  0  0  0  0  0  0  0
    0.4095    0.1837    0.0052 C   0  0  0  0  0  0  0  0  0  0  0  0
    1.6559   -0.4041    0.6631 C   0  0  0  0  0  0  0  0  0  0  0  0
    2.9338    0.2533    0.1527 C   0  0  0  0  0  0  0  0  0  0  0  0
    4.2135   -0.2470    0.8444 C   0  0  0  0  0  0  0  0  0  0  0  0
    5.2394   -0.2312   -0.2808 C   0  0  0  0  0  0  0  0  0  0  0  0
    4.3794   -0.3220   -1.5350 C   0  0  0  0  0  0  0  0  0  0  0  0
    4.7462   -0.5857   -2.6422 O   0  0  0  0  0  0  0  0  0  0  0  0
    3.1073   -0.0448   -1.2339 O   0  0  0  0  0  0  0  0  0  0  0  0
   -4.2202    2.0363   -0.4387 H   0  0  0  0  0  0  0  0  0  0  0  0
   -5.0697    1.5199    1.0201 H   0  0  0  0  0  0  0  0  0  0  0  0
   -5.9342    1.6434   -0.5126 H   0  0  0  0  0  0  0  0  0  0  0  0
   -5.4914   -0.7134   -0.0508 H   0  0  0  0  0  0  0  0  0  0  0  0
   -4.5338   -0.2092   -1.4425 H   0  0  0  0  0  0  0  0  0  0  0  0
   -3.4878   -0.4077    1.4168 H   0  0  0  0  0  0  0  0  0  0  0  0
   -3.3005   -1.6565    0.1868 H   0  0  0  0  0  0  0  0  0  0  0  0
   -2.1500    1.1629    0.0534 H   0  0  0  0  0  0  0  0  0  0  0  0
   -2.0441   -0.0275   -1.2440 H   0  0  0  0  0  0  0  0  0  0  0  0
   -0.9421   -0.3925    1.5771 H   0  0  0  0  0  0  0  0  0  0  0  0
   -0.8135   -1.5663    0.2676 H   0  0  0  0  0  0  0  0  0  0  0  0
    0.3556    1.2524    0.2263 H   0  0  0  0  0  0  0  0  0  0  0  0
    0.4979    0.0708   -1.0762 H   0  0  0  0  0  0  0  0  0  0  0  0
    1.6079   -0.2679    1.7456 H   0  0  0  0  0  0  0  0  0  0  0  0
    1.7069   -1.4744    0.4534 H   0  0  0  0  0  0  0  0  0  0  0  0
    2.8464    1.3457    0.2390 H   0  0  0  0  0  0  0  0  0  0  0  0
    4.0602   -1.2646    1.2072 H   0  0  0  0  0  0  0  0  0  0  0  0
    4.4865    0.3852    1.6860 H   0  0  0  0  0  0  0  0  0  0  0  0
    5.9567   -1.0479   -0.2471 H   0  0  0  0  0  0  0  0  0  0  0  0
    5.7922    0.7095   -0.3232 H   0  0  0  0  0  0  0  0  0  0  0  0
  1  2  1  0  0  0  0
  2  3  1  0  0  0  0
  3  4  1  0  0  0  0
  4  5  1  0  0  0  0
  5  6  1  0  0  0  0
  6  7  1  0  0  0  0
  7  8  1  0  0  0  0
  8  9  1  0  0  0  0
  9 10  1  0  0  0  0
 10 11  1  0  0  0  0
 11 12  2  0  0  0  0
  8 13  1  0  0  0  0
 11 13  1  0  0  0  0
  1 14  1  0  0  0  0
  1 15  1  0  0  0  0
  1 16  1  0  0  0  0
  2 17  1  0  0  0  0
  2 18  1  0  0  0  0
  3 19  1  0  0  0  0
  3 20  1  0  0  0  0
  4 21  1  0  0  0  0
  4 22  1  0  0  0  0
  5 23  1  0  0  0  0
  5 24  1  0  0  0  0
  6 25  1  0  0  0  0
  6 26  1  0  0  0  0
  7 27  1  0  0  0  0
  7 28  1  0  0  0  0
  8 29  1  0  0  0  0
  9 30  1  0  0  0  0
  9 31  1  0  0  0  0
 10 32  1  0  0  0  0
 10 33  1  0  0  0  0
M  END
