 xtb: 6.7.1 (edcfbbe)
          07092611553D

 23 23  0     0  0            999 V2000
   -3.4586   -0.6578   -0.3735 C   0  0  0  0  0  0  0  0  0  0  0  0
   -2.6311    0.5234   -0.8865 C   0  0  0  0  0  0  0  0  0  0  0  0
   -1.2163    0.4178   -0.3989 C   0  0  0  0  0  0  0  0  0  0  0  0
   -0.8419    0.9706    0.8210 C   0  0  0  0  0  0  0  0  0  0  0  0
    0.4495    0.8366    1.2852 C   0  0  0  0  0  0  0  0  0  0  0  0
    1.4094    0.1442    0.5446 C   0  0  0  0  0  0  0  0  0  0  0  0
    2.7794    0.0460    1.1047 C   0  0  0  0  0  0  0  0  0  0  0  0
    3.8122   -0.6822    0.2771 C   0  0  0  0  0  0  0  0  0  0  0  0
    3.0598    0.5299    2.1798 O   0  0  0  0  0  0  0  0  0  0  0  0
    1.0332   -0.4135   -0.6767 C   0  0  0  0  0  0  0  0  0  0  0  0
   -0.2622   -0.2764   -1.1351 C   0  0  0  0  0  0  0  0  0  0  0  0
   -3.4620   -0.6732    0.7140 H   0  0  0  0  0  0  0  0  0  0  0  0
   -3.0383   -1.5966   -0.7272 H   0  0  0  0  0  0  0  0  0  0  0  0
   -4.4852   -0.5824   -0.7238 H   0  0  0  0  0  0  0  0  0  0  0  0
   -3.0766    1.4548   -0.5321 H   0  0  0  0  0  0  0  0  0  0  0  0
   -2.6488    0.5277   -1.9782 H   0  0  0  0  0  0  0  0  0  0  0  0
   -1.5710    1.5124    1.4065 H   0  0  0  0  0  0  0  0  0  0  0  0
    0.7472    1.2658    2.2305 H   0  0  0  0  0  0  0  0  0  0  0  0
    4.7651   -0.6652    0.8000 H   0  0  0  0  0  0  0  0  0  0  0  0
    3.9243   -0.2003   -0.6916 H   0  0  0  0  0  0  0  0  0  0  0  0
    3.5066   -1.7146    0.1216 H   0  0  0  0  0  0  0  0  0  0  0  0
    1.7460   -0.9572   -1.2771 H   0  0  0  0  0  0  0  0  0  0  0  0
   -0.5408   -0.7123   -2.0844 H   0  0  0  0  0  0  0  0  0  0  0  0
  1  2  1  0  0  0  0
  2  3  1  0  0  0  0
  3  4  4  0  0  0  0
  4  5  4  0  0  0  0
  5  6  4  0  0  0  0
  6  7  1  0  0  0  0
  7  8  1  0  0  0  0
  7  9  2  0  0  0  0
  6 10  4  0  0  0  0
  3 11  4  0  0  0  0
 10 11  4  0  0  0  0
  1 12  1  0  0  0  0
  1 13  1  0  0  0  0
  1 14  1  0  0  0  0
  2 15  1  0  0  0  0
  2 16  1  0  0  0  0
  4 17  1  0  0  0  0
  5 18  1  0  0  0  0
  8 19  1  0  0  0  0
  8 20  1  0  0  0  0
  8 21  1  0  0  0  0
 10 22  1  0  0  0  0
 11 23  1  0  0  0  0
M  END
