 xtb: 6.7.1 (edcfbbe)
          07092607443D

 33 32  0     0  0            999 V2000
    4.7417    0.8229   -1.0763 C   0  0  0  0  0  0  0  0  0  0  0  0
    3.6875   -0.1183   -0.4957 C   0  0  0  0  0  0  0  0  0  0  0  0
    4.1584   -0.6567    0.8537 C   0  0  0  0  0  0  0  0  0  0  0  0
    2.3493    0.6163   -0.3781 C   0  0  0  0  0  0  0  0  0  0  0  0
    1.1799   -0.2913   -0.0121 C   0  0  0  0  0  0  0  0  0  0  0  0
   -0.0099    0.4550   -0.1197 O   0  0  0  0  0  0  0  0  0  0  0  0
   -1.1640   -0.2852    0.2032 C   0  0  0  0  0  0  0  0  0  0  0  0
   -2.3771    0.6247    0.0427 C   0  0  0  0  0  0  0  0  0  0  0  0
   -3.6829    0.0081    0.5518 C   0  0  0  0  0  0  0  0  0  0  0  0
   -4.1120   -1.1882   -0.2950 C   0  0  0  0  0  0  0  0  0  0  0  0
   -4.7851    1.0661    0.5532 C   0  0  0  0  0  0  0  0  0  0  0  0
    4.8878    1.6772   -0.4190 H   0  0  0  0  0  0  0  0  0  0  0  0
    4.4347    1.1902   -2.0527 H   0  0  0  0  0  0  0  0  0  0  0  0
    5.6936    0.3086   -1.1872 H   0  0  0  0  0  0  0  0  0  0  0  0
    3.5601   -0.9629   -1.1828 H   0  0  0  0  0  0  0  0  0  0  0  0
    3.4660   -1.3978    1.2439 H   0  0  0  0  0  0  0  0  0  0  0  0
    4.2418    0.1533    1.5750 H   0  0  0  0  0  0  0  0  0  0  0  0
    5.1344   -1.1263    0.7520 H   0  0  0  0  0  0  0  0  0  0  0  0
    2.4247    1.4088    0.3681 H   0  0  0  0  0  0  0  0  0  0  0  0
    2.1072    1.0858   -1.3333 H   0  0  0  0  0  0  0  0  0  0  0  0
    1.2833   -0.6767    1.0143 H   0  0  0  0  0  0  0  0  0  0  0  0
    1.1433   -1.1574   -0.6945 H   0  0  0  0  0  0  0  0  0  0  0  0
   -1.2371   -1.1635   -0.4570 H   0  0  0  0  0  0  0  0  0  0  0  0
   -1.0979   -0.6501    1.2423 H   0  0  0  0  0  0  0  0  0  0  0  0
   -2.4780    0.8917   -1.0104 H   0  0  0  0  0  0  0  0  0  0  0  0
   -2.1683    1.5421    0.5962 H   0  0  0  0  0  0  0  0  0  0  0  0
   -3.5270   -0.3321    1.5821 H   0  0  0  0  0  0  0  0  0  0  0  0
   -5.0675   -1.5735    0.0543 H   0  0  0  0  0  0  0  0  0  0  0  0
   -4.2220   -0.8935   -1.3364 H   0  0  0  0  0  0  0  0  0  0  0  0
   -3.3826   -1.9916   -0.2379 H   0  0  0  0  0  0  0  0  0  0  0  0
   -4.5072    1.9114    1.1783 H   0  0  0  0  0  0  0  0  0  0  0  0
   -4.9604    1.4296   -0.4569 H   0  0  0  0  0  0  0  0  0  0  0  0
   -5.7146    0.6490    0.9339 H   0  0  0  0  0  0  0  0  0  0  0  0
  1  2  1  0  0  0  0
  2  3  1  0  0  0  0
  2  4  1  0  0  0  0
  4  5  1  0  0  0  0
  5  6  1  0  0  0  0
  6  7  1  0  0  0  0
  7  8  1  0  0  0  0
  8  9  1  0  0  0  0
  9 10  1  0  0  0  0
  9 11  1  0  0  0  0
  1 12  1  0  0  0  0
  1 13  1  0  0  0  0
  1 14  1  0  0  0  0
  2 15  1  0  0  0  0
  3 16  1  0  0  0  0
  3 17  1  0  0  0  0
  3 18  1  0  0  0  0
  4 19  1  0  0  0  0
  4 20  1  0  0  0  0
  5 21  1  0  0  0  0
  5 22  1  0  0  0  0
  7 23  1  0  0  0  0
  7 24  1  0  0  0  0
  8 25  1  0  0  0  0
  8 26  1  0  0  0  0
  9 27  1  0  0  0  0
 10 28  1  0  0  0  0
 10 29  1  0  0  0  0
 10 30  1  0  0  0  0
 11 31  1  0  0  0  0
 11 32  1  0  0  0  0
 11 33  1  0  0  0  0
M  END
