 xtb: 6.7.1 (edcfbbe)
          07092605153D

 21 20  0     0  0            999 V2000
   -2.8128   -0.8866    1.0750 C   0  0  0  0  0  0  0  0  0  0  0  0
   -2.2792   -0.2668    0.0273 C   0  0  0  0  0  0  0  0  0  0  0  0
   -2.9831   -0.0573   -1.2751 C   0  0  0  0  0  0  0  0  0  0  0  0
   -0.8938    0.2608    0.0658 C   0  0  0  0  0  0  0  0  0  0  0  0
   -0.3278    0.7677   -0.8728 O   0  0  0  0  0  0  0  0  0  0  0  0
   -0.3061    0.1338    1.2717 O   0  0  0  0  0  0  0  0  0  0  0  0
    1.0339    0.5837    1.3152 C   0  0  0  0  0  0  0  0  0  0  0  0
    1.8644   -0.1025    0.2285 C   0  0  0  0  0  0  0  0  0  0  0  0
    1.7028   -1.2352   -0.1307 O   0  0  0  0  0  0  0  0  0  0  0  0
    2.8125    0.7140   -0.2206 O   0  0  0  0  0  0  0  0  0  0  0  0
    3.6451    0.1936   -1.2518 C   0  0  0  0  0  0  0  0  0  0  0  0
   -3.8153   -1.2793    1.0413 H   0  0  0  0  0  0  0  0  0  0  0  0
   -2.2632   -1.0227    1.9892 H   0  0  0  0  0  0  0  0  0  0  0  0
   -3.0469    1.0070   -1.4958 H   0  0  0  0  0  0  0  0  0  0  0  0
   -3.9819   -0.4827   -1.2499 H   0  0  0  0  0  0  0  0  0  0  0  0
   -2.4104   -0.5185   -2.0777 H   0  0  0  0  0  0  0  0  0  0  0  0
    1.4132    0.3069    2.3008 H   0  0  0  0  0  0  0  0  0  0  0  0
    1.0897    1.6678    1.1734 H   0  0  0  0  0  0  0  0  0  0  0  0
    4.4020    0.9502   -1.4405 H   0  0  0  0  0  0  0  0  0  0  0  0
    3.0525    0.0097   -2.1495 H   0  0  0  0  0  0  0  0  0  0  0  0
    4.1044   -0.7435   -0.9311 H   0  0  0  0  0  0  0  0  0  0  0  0
  1  2  2  0  0  0  0
  2  3  1  0  0  0  0
  2  4  1  0  0  0  0
  4  5  2  0  0  0  0
  4  6  1  0  0  0  0
  6  7  1  0  0  0  0
  7  8  1  0  0  0  0
  8  9  2  0  0  0  0
  8 10  1  0  0  0  0
 10 11  1  0  0  0  0
  1 12  1  0  0  0  0
  1 13  1  0  0  0  0
  3 14  1  0  0  0  0
  3 15  1  0  0  0  0
  3 16  1  0  0  0  0
  7 17  1  0  0  0  0
  7 18  1  0  0  0  0
 11 19  1  0  0  0  0
 11 20  1  0  0  0  0
 11 21  1  0  0  0  0
M  END
