 xtb: 6.7.1 (edcfbbe)
          07072614413D

 44 44  0     0  0            999 V2000
   -1.7891    3.8486   -0.9091 C   0  0  0  0  0  0  0  0  0  0  0  0
   -1.5045    2.5608   -0.9308 C   0  0  0  0  0  0  0  0  0  0  0  0
   -2.2763    1.5314   -1.7014 C   0  0  0  0  0  0  0  0  0  0  0  0
   -2.7963    0.4770   -0.7587 C   0  0  0  0  0  0  0  0  0  0  0  0
   -4.0894    0.5468   -0.2624 C   0  0  0  0  0  0  0  0  0  0  0  0
   -4.5418   -0.3941    0.6395 C   0  0  0  0  0  0  0  0  0  0  0  0
   -3.7113   -1.4235    1.0479 C   0  0  0  0  0  0  0  0  0  0  0  0
   -2.4172   -1.5245    0.5552 C   0  0  0  0  0  0  0  0  0  0  0  0
   -1.5504   -2.5338    0.8879 O   0  0  0  0  0  0  0  0  0  0  0  0
   -1.9795   -3.5151    1.7975 C   0  0  0  0  0  0  0  0  0  0  0  0
   -1.9482   -0.5532   -0.3478 C   0  0  0  0  0  0  0  0  0  0  0  0
   -0.6979   -0.5804   -0.9090 O   0  0  0  0  0  0  0  0  0  0  0  0
    0.4152   -0.8517   -0.0742 C   0  0  0  0  0  0  0  0  0  0  0  0
    1.6329   -0.1831   -0.7196 C   0  0  0  0  0  0  0  0  0  0  0  0
    2.6363    0.1789    0.2626 N   0  0  0  0  0  0  0  0  0  0  0  0
    3.5865    1.1532   -0.2522 C   0  0  0  0  0  0  0  0  0  0  0  0
    3.0068    2.5654   -0.2157 C   0  0  0  0  0  0  0  0  0  0  0  0
    3.2553   -0.9506    0.9317 C   0  0  0  0  0  0  0  0  0  0  0  0
    4.1199   -1.8709    0.0611 C   0  0  0  0  0  0  0  0  0  0  0  0
   -1.2076    4.5525   -0.3377 H   0  0  0  0  0  0  0  0  0  0  0  0
   -2.6147    4.2580   -1.4688 H   0  0  0  0  0  0  0  0  0  0  0  0
   -0.6739    2.1732   -0.3565 H   0  0  0  0  0  0  0  0  0  0  0  0
   -1.6103    1.0577   -2.4261 H   0  0  0  0  0  0  0  0  0  0  0  0
   -3.1051    2.0039   -2.2299 H   0  0  0  0  0  0  0  0  0  0  0  0
   -4.7357    1.3503   -0.5815 H   0  0  0  0  0  0  0  0  0  0  0  0
   -5.5464   -0.3367    1.0303 H   0  0  0  0  0  0  0  0  0  0  0  0
   -4.0873   -2.1544    1.7457 H   0  0  0  0  0  0  0  0  0  0  0  0
   -2.8422   -4.0703    1.4152 H   0  0  0  0  0  0  0  0  0  0  0  0
   -1.1370   -4.1963    1.9108 H   0  0  0  0  0  0  0  0  0  0  0  0
   -2.2269   -3.0825    2.7725 H   0  0  0  0  0  0  0  0  0  0  0  0
    0.2575   -0.4186    0.9205 H   0  0  0  0  0  0  0  0  0  0  0  0
    0.5568   -1.9324    0.0279 H   0  0  0  0  0  0  0  0  0  0  0  0
    1.2778    0.7366   -1.1879 H   0  0  0  0  0  0  0  0  0  0  0  0
    2.0294   -0.8261   -1.5221 H   0  0  0  0  0  0  0  0  0  0  0  0
    3.9073    0.9141   -1.2796 H   0  0  0  0  0  0  0  0  0  0  0  0
    4.4708    1.1284    0.3888 H   0  0  0  0  0  0  0  0  0  0  0  0
    2.6478    2.7877    0.7854 H   0  0  0  0  0  0  0  0  0  0  0  0
    3.7752    3.2864   -0.4839 H   0  0  0  0  0  0  0  0  0  0  0  0
    2.1791    2.6763   -0.9110 H   0  0  0  0  0  0  0  0  0  0  0  0
    3.8710   -0.5433    1.7396 H   0  0  0  0  0  0  0  0  0  0  0  0
    2.4571   -1.5382    1.3906 H   0  0  0  0  0  0  0  0  0  0  0  0
    4.9231   -1.3114   -0.4127 H   0  0  0  0  0  0  0  0  0  0  0  0
    4.5599   -2.6485    0.6802 H   0  0  0  0  0  0  0  0  0  0  0  0
    3.5233   -2.3476   -0.7124 H   0  0  0  0  0  0  0  0  0  0  0  0
  1  2  2  0  0  0  0
  2  3  1  0  0  0  0
  3  4  1  0  0  0  0
  4  5  4  0  0  0  0
  5  6  4  0  0  0  0
  6  7  4  0  0  0  0
  7  8  4  0  0  0  0
  8  9  1  0  0  0  0
  9 10  1  0  0  0  0
  4 11  4  0  0  0  0
  8 11  4  0  0  0  0
 11 12  1  0  0  0  0
 12 13  1  0  0  0  0
 13 14  1  0  0  0  0
 14 15  1  0  0  0  0
 15 16  1  0  0  0  0
 16 17  1  0  0  0  0
 15 18  1  0  0  0  0
 18 19  1  0  0  0  0
  1 20  1  0  0  0  0
  1 21  1  0  0  0  0
  2 22  1  0  0  0  0
  3 23  1  0  0  0  0
  3 24  1  0  0  0  0
  5 25  1  0  0  0  0
  6 26  1  0  0  0  0
  7 27  1  0  0  0  0
 10 28  1  0  0  0  0
 10 29  1  0  0  0  0
 10 30  1  0  0  0  0
 13 31  1  0  0  0  0
 13 32  1  0  0  0  0
 14 33  1  0  0  0  0
 14 34  1  0  0  0  0
 16 35  1  0  0  0  0
 16 36  1  0  0  0  0
 17 37  1  0  0  0  0
 17 38  1  0  0  0  0
 17 39  1  0  0  0  0
 18 40  1  0  0  0  0
 18 41  1  0  0  0  0
 19 42  1  0  0  0  0
 19 43  1  0  0  0  0
 19 44  1  0  0  0  0
M  END
