 xtb: 6.7.1 (edcfbbe)
          07092600383D

 19 19  0     0  0            999 V2000
    3.3199   -0.0103    0.3166 C   0  0  0  0  0  0  0  0  0  0  0  0
    1.8760    0.3023    0.6741 C   0  0  0  0  0  0  0  0  0  0  0  0
    1.0582   -0.2694   -0.3269 O   0  0  0  0  0  0  0  0  0  0  0  0
   -0.2834   -0.1367   -0.2482 C   0  0  0  0  0  0  0  0  0  0  0  0
   -0.9813    0.5299    0.7532 C   0  0  0  0  0  0  0  0  0  0  0  0
   -2.3652    0.5937    0.7168 C   0  0  0  0  0  0  0  0  0  0  0  0
   -3.0760   -0.0003   -0.3091 C   0  0  0  0  0  0  0  0  0  0  0  0
   -2.3976   -0.6690   -1.3159 C   0  0  0  0  0  0  0  0  0  0  0  0
   -1.0212   -0.7310   -1.2775 C   0  0  0  0  0  0  0  0  0  0  0  0
   -0.0596   -1.6386   -2.6397 Br  0  0  0  0  0  0  0  0  0  0  0  0
    3.9855    0.4127    1.0634 H   0  0  0  0  0  0  0  0  0  0  0  0
    3.4660   -1.0860    0.2734 H   0  0  0  0  0  0  0  0  0  0  0  0
    3.5594    0.4089   -0.6567 H   0  0  0  0  0  0  0  0  0  0  0  0
    1.6231   -0.1256    1.6543 H   0  0  0  0  0  0  0  0  0  0  0  0
    1.7177    1.3891    0.7119 H   0  0  0  0  0  0  0  0  0  0  0  0
   -0.4495    1.0014    1.5644 H   0  0  0  0  0  0  0  0  0  0  0  0
   -2.8870    1.1161    1.5042 H   0  0  0  0  0  0  0  0  0  0  0  0
   -4.1529    0.0528   -0.3320 H   0  0  0  0  0  0  0  0  0  0  0  0
   -2.9319   -1.1399   -2.1264 H   0  0  0  0  0  0  0  0  0  0  0  0
  1  2  1  0  0  0  0
  2  3  1  0  0  0  0
  3  4  1  0  0  0  0
  4  5  4  0  0  0  0
  5  6  4  0  0  0  0
  6  7  4  0  0  0  0
  7  8  4  0  0  0  0
  4  9  4  0  0  0  0
  8  9  4  0  0  0  0
  9 10  1  0  0  0  0
  1 11  1  0  0  0  0
  1 12  1  0  0  0  0
  1 13  1  0  0  0  0
  2 14  1  0  0  0  0
  2 15  1  0  0  0  0
  5 16  1  0  0  0  0
  6 17  1  0  0  0  0
  7 18  1  0  0  0  0
  8 19  1  0  0  0  0
M  END
