 xtb: 6.7.1 (edcfbbe)
          07092605383D

 23 22  0     0  0            999 V2000
   -3.8942    0.0680   -0.8175 C   0  0  0  0  0  0  0  0  0  0  0  0
   -2.6715   -0.7282   -1.2491 C   0  0  0  0  0  0  0  0  0  0  0  0
   -1.8865   -1.1327   -0.1232 O   0  0  0  0  0  0  0  0  0  0  0  0
   -1.0272   -0.2485    0.3712 C   0  0  0  0  0  0  0  0  0  0  0  0
   -0.8665    0.8652   -0.0478 O   0  0  0  0  0  0  0  0  0  0  0  0
   -0.2404   -0.8568    1.5234 C   0  0  0  0  0  0  0  0  0  0  0  0
    1.1465   -1.1722    0.9811 C   0  0  0  0  0  0  0  0  0  0  0  0
    1.4178   -2.1523    0.3427 O   0  0  0  0  0  0  0  0  0  0  0  0
    1.9997   -0.2066    1.3007 O   0  0  0  0  0  0  0  0  0  0  0  0
    3.3256   -0.2976    0.7705 C   0  0  0  0  0  0  0  0  0  0  0  0
    3.3817    0.2263   -0.6566 C   0  0  0  0  0  0  0  0  0  0  0  0
   -3.5849    0.9958   -0.3426 H   0  0  0  0  0  0  0  0  0  0  0  0
   -4.4904   -0.5087   -0.1146 H   0  0  0  0  0  0  0  0  0  0  0  0
   -4.5000    0.3034   -1.6877 H   0  0  0  0  0  0  0  0  0  0  0  0
   -2.0464   -0.1298   -1.9194 H   0  0  0  0  0  0  0  0  0  0  0  0
   -2.9588   -1.6602   -1.7393 H   0  0  0  0  0  0  0  0  0  0  0  0
   -0.7265   -1.7749    1.8465 H   0  0  0  0  0  0  0  0  0  0  0  0
   -0.1529   -0.1280    2.3268 H   0  0  0  0  0  0  0  0  0  0  0  0
    3.6516   -1.3422    0.8084 H   0  0  0  0  0  0  0  0  0  0  0  0
    3.9377    0.3102    1.4395 H   0  0  0  0  0  0  0  0  0  0  0  0
    4.4104    0.2288   -1.0051 H   0  0  0  0  0  0  0  0  0  0  0  0
    2.9859    1.2380   -0.6982 H   0  0  0  0  0  0  0  0  0  0  0  0
    2.7892   -0.4097   -1.3098 H   0  0  0  0  0  0  0  0  0  0  0  0
  1  2  1  0  0  0  0
  2  3  1  0  0  0  0
  3  4  1  0  0  0  0
  4  5  2  0  0  0  0
  4  6  1  0  0  0  0
  6  7  1  0  0  0  0
  7  8  2  0  0  0  0
  7  9  1  0  0  0  0
  9 10  1  0  0  0  0
 10 11  1  0  0  0  0
  1 12  1  0  0  0  0
  1 13  1  0  0  0  0
  1 14  1  0  0  0  0
  2 15  1  0  0  0  0
  2 16  1  0  0  0  0
  6 17  1  0  0  0  0
  6 18  1  0  0  0  0
 10 19  1  0  0  0  0
 10 20  1  0  0  0  0
 11 21  1  0  0  0  0
 11 22  1  0  0  0  0
 11 23  1  0  0  0  0
M  END
