 xtb: 6.7.1 (edcfbbe)
          07092613393D

 20 20  0     0  0            999 V2000
    5.3788    0.0492   -0.2349 N   0  0  0  0  0  0  0  0  0  0  0  0
    4.2859   -0.0675   -0.5475 C   0  0  0  0  0  0  0  0  0  0  0  0
    2.9055   -0.2105   -0.9279 C   0  0  0  0  0  0  0  0  0  0  0  0
    1.9740    0.1512    0.2321 C   0  0  0  0  0  0  0  0  0  0  0  0
    0.6508   -0.0135   -0.2182 O   0  0  0  0  0  0  0  0  0  0  0  0
   -0.3040    0.2909    0.7663 C   0  0  0  0  0  0  0  0  0  0  0  0
   -1.6707    0.0878    0.2003 C   0  0  0  0  0  0  0  0  0  0  0  0
   -2.0921   -0.3163   -1.0294 C   0  0  0  0  0  0  0  0  0  0  0  0
   -3.5093   -0.3197   -0.9760 C   0  0  0  0  0  0  0  0  0  0  0  0
   -3.8369    0.0817    0.2790 C   0  0  0  0  0  0  0  0  0  0  0  0
   -2.7284    0.3319    1.0024 O   0  0  0  0  0  0  0  0  0  0  0  0
    2.6959    0.4431   -1.7784 H   0  0  0  0  0  0  0  0  0  0  0  0
    2.7202   -1.2436   -1.2329 H   0  0  0  0  0  0  0  0  0  0  0  0
    2.1471    1.1925    0.5481 H   0  0  0  0  0  0  0  0  0  0  0  0
    2.1715   -0.5031    1.0965 H   0  0  0  0  0  0  0  0  0  0  0  0
   -0.1666   -0.3557    1.6508 H   0  0  0  0  0  0  0  0  0  0  0  0
   -0.1914    1.3363    1.1035 H   0  0  0  0  0  0  0  0  0  0  0  0
   -1.4691   -0.5756   -1.8589 H   0  0  0  0  0  0  0  0  0  0  0  0
   -4.1814   -0.5851   -1.7657 H   0  0  0  0  0  0  0  0  0  0  0  0
   -4.7799    0.2259    0.7672 H   0  0  0  0  0  0  0  0  0  0  0  0
  1  2  3  0  0  0  0
  2  3  1  0  0  0  0
  3  4  1  0  0  0  0
  4  5  1  0  0  0  0
  5  6  1  0  0  0  0
  6  7  1  0  0  0  0
  7  8  2  0  0  0  0
  8  9  4  0  0  0  0
  9 10  2  0  0  0  0
  7 11  1  0  0  0  0
 10 11  1  0  0  0  0
  3 12  1  0  0  0  0
  3 13  1  0  0  0  0
  4 14  1  0  0  0  0
  4 15  1  0  0  0  0
  6 16  1  0  0  0  0
  6 17  1  0  0  0  0
  8 18  1  0  0  0  0
  9 19  1  0  0  0  0
 10 20  1  0  0  0  0
M  END
