 xtb: 6.7.1 (edcfbbe)
          07072612223D

 32 31  0     0  0            999 V2000
    4.0029    0.1409    1.1381 C   0  0  0  0  0  0  0  0  0  0  0  0
    3.3079    0.0823   -0.2170 C   0  0  0  0  0  0  0  0  0  0  0  0
    2.7811   -1.3109   -0.5643 C   0  0  0  0  0  0  0  0  0  0  0  0
    1.7260   -1.8613    0.3987 C   0  0  0  0  0  0  0  0  0  0  0  0
    0.4831   -0.9879    0.5640 C   0  0  0  0  0  0  0  0  0  0  0  0
   -0.2857   -0.7842   -0.7363 C   0  0  0  0  0  0  0  0  0  0  0  0
   -1.4845   -0.1001   -0.4383 O   0  0  0  0  0  0  0  0  0  0  0  0
   -2.2715    0.1734   -1.5743 C   0  0  0  0  0  0  0  0  0  0  0  0
   -3.5205    0.9189   -1.0975 C   0  0  0  0  0  0  0  0  0  0  0  0
   -4.2143    0.1582   -0.1354 O   0  0  0  0  0  0  0  0  0  0  0  0
   -3.1567    2.2882   -0.4991 C   0  0  0  0  0  0  0  0  0  0  0  0
   -4.3043    2.9467   -0.0328 O   0  0  0  0  0  0  0  0  0  0  0  0
    4.7948   -0.6032    1.1919 H   0  0  0  0  0  0  0  0  0  0  0  0
    4.4449    1.1227    1.2922 H   0  0  0  0  0  0  0  0  0  0  0  0
    3.3010   -0.0436    1.9471 H   0  0  0  0  0  0  0  0  0  0  0  0
    4.0204    0.3769   -0.9916 H   0  0  0  0  0  0  0  0  0  0  0  0
    2.4902    0.8044   -0.2384 H   0  0  0  0  0  0  0  0  0  0  0  0
    2.3684   -1.2881   -1.5751 H   0  0  0  0  0  0  0  0  0  0  0  0
    3.6224   -2.0086   -0.5746 H   0  0  0  0  0  0  0  0  0  0  0  0
    1.4181   -2.8462    0.0383 H   0  0  0  0  0  0  0  0  0  0  0  0
    2.1773   -2.0028    1.3819 H   0  0  0  0  0  0  0  0  0  0  0  0
    0.7510   -0.0119    0.9687 H   0  0  0  0  0  0  0  0  0  0  0  0
   -0.1913   -1.4635    1.2792 H   0  0  0  0  0  0  0  0  0  0  0  0
   -0.5159   -1.7559   -1.2016 H   0  0  0  0  0  0  0  0  0  0  0  0
    0.3024   -0.1938   -1.4534 H   0  0  0  0  0  0  0  0  0  0  0  0
   -1.7147    0.7879   -2.2966 H   0  0  0  0  0  0  0  0  0  0  0  0
   -2.5630   -0.7666   -2.0674 H   0  0  0  0  0  0  0  0  0  0  0  0
   -4.2160    1.0580   -1.9318 H   0  0  0  0  0  0  0  0  0  0  0  0
   -3.5512   -0.1685    0.4879 H   0  0  0  0  0  0  0  0  0  0  0  0
   -2.4386    2.1328    0.3201 H   0  0  0  0  0  0  0  0  0  0  0  0
   -2.7016    2.9306   -1.2555 H   0  0  0  0  0  0  0  0  0  0  0  0
   -4.8621    2.2752    0.3849 H   0  0  0  0  0  0  0  0  0  0  0  0
  1  2  1  0  0  0  0
  2  3  1  0  0  0  0
  3  4  1  0  0  0  0
  4  5  1  0  0  0  0
  5  6  1  0  0  0  0
  6  7  1  0  0  0  0
  7  8  1  0  0  0  0
  8  9  1  0  0  0  0
  9 10  1  0  0  0  0
  9 11  1  0  0  0  0
 11 12  1  0  0  0  0
  1 13  1  0  0  0  0
  1 14  1  0  0  0  0
  1 15  1  0  0  0  0
  2 16  1  0  0  0  0
  2 17  1  0  0  0  0
  3 18  1  0  0  0  0
  3 19  1  0  0  0  0
  4 20  1  0  0  0  0
  4 21  1  0  0  0  0
  5 22  1  0  0  0  0
  5 23  1  0  0  0  0
  6 24  1  0  0  0  0
  6 25  1  0  0  0  0
  8 26  1  0  0  0  0
  8 27  1  0  0  0  0
  9 28  1  0  0  0  0
 10 29  1  0  0  0  0
 11 30  1  0  0  0  0
 11 31  1  0  0  0  0
 12 32  1  0  0  0  0
M  END
