 xtb: 6.7.1 (edcfbbe)
          07082604253D

 24 24  0     0  0            999 V2000
    3.1240    1.6290   -0.6463 C   0  0  0  0  0  0  0  0  0  0  0  0
    2.7688    0.4712   -0.1230 C   0  0  0  0  0  0  0  0  0  0  0  0
    1.9169    0.3167    1.1016 C   0  0  0  0  0  0  0  0  0  0  0  0
    0.6422   -0.4029    0.7424 C   0  0  0  0  0  0  0  0  0  0  0  0
    0.4518   -1.7374    1.0539 C   0  0  0  0  0  0  0  0  0  0  0  0
   -0.7133   -2.3899    0.6844 C   0  0  0  0  0  0  0  0  0  0  0  0
   -1.7010   -1.7136   -0.0077 C   0  0  0  0  0  0  0  0  0  0  0  0
   -2.8446   -2.3547   -0.3699 O   0  0  0  0  0  0  0  0  0  0  0  0
   -1.5130   -0.3594   -0.3335 C   0  0  0  0  0  0  0  0  0  0  0  0
   -2.5591    0.2143   -1.0252 O   0  0  0  0  0  0  0  0  0  0  0  0
   -2.4467    1.5658   -1.3906 C   0  0  0  0  0  0  0  0  0  0  0  0
   -0.3482    0.2810    0.0416 C   0  0  0  0  0  0  0  0  0  0  0  0
    2.8343    2.5668   -0.1996 H   0  0  0  0  0  0  0  0  0  0  0  0
    3.7273    1.6936   -1.5360 H   0  0  0  0  0  0  0  0  0  0  0  0
    3.0680   -0.4580   -0.5901 H   0  0  0  0  0  0  0  0  0  0  0  0
    1.6906    1.3001    1.5188 H   0  0  0  0  0  0  0  0  0  0  0  0
    2.4623   -0.2628    1.8501 H   0  0  0  0  0  0  0  0  0  0  0  0
    1.2141   -2.2794    1.5935 H   0  0  0  0  0  0  0  0  0  0  0  0
   -0.8728   -3.4284    0.9258 H   0  0  0  0  0  0  0  0  0  0  0  0
   -3.4017   -1.7195   -0.8397 H   0  0  0  0  0  0  0  0  0  0  0  0
   -2.3597    2.2116   -0.5111 H   0  0  0  0  0  0  0  0  0  0  0  0
   -3.3654    1.8051   -1.9243 H   0  0  0  0  0  0  0  0  0  0  0  0
   -1.5896    1.7319   -2.0507 H   0  0  0  0  0  0  0  0  0  0  0  0
   -0.1850    1.3187   -0.2046 H   0  0  0  0  0  0  0  0  0  0  0  0
  1  2  2  0  0  0  0
  2  3  1  0  0  0  0
  3  4  1  0  0  0  0
  4  5  4  0  0  0  0
  5  6  4  0  0  0  0
  6  7  4  0  0  0  0
  7  8  1  0  0  0  0
  7  9  4  0  0  0  0
  9 10  1  0  0  0  0
 10 11  1  0  0  0  0
  4 12  4  0  0  0  0
  9 12  4  0  0  0  0
  1 13  1  0  0  0  0
  1 14  1  0  0  0  0
  2 15  1  0  0  0  0
  3 16  1  0  0  0  0
  3 17  1  0  0  0  0
  5 18  1  0  0  0  0
  6 19  1  0  0  0  0
  8 20  1  0  0  0  0
 11 21  1  0  0  0  0
 11 22  1  0  0  0  0
 11 23  1  0  0  0  0
 12 24  1  0  0  0  0
M  END
