 xtb: 6.7.1 (edcfbbe)
          07082619003D

 22 22  0     0  0            999 V2000
    2.8198    1.0935   -0.7992 O   0  0  0  0  0  0  0  0  0  0  0  0
    2.2387   -0.0306   -0.1728 C   0  0  0  0  0  0  0  0  0  0  0  0
    0.7345   -0.0291   -0.4481 C   0  0  0  0  0  0  0  0  0  0  0  0
    0.0868   -1.3223    0.0445 C   0  0  0  0  0  0  0  0  0  0  0  0
   -1.4124   -1.3138   -0.2407 C   0  0  0  0  0  0  0  0  0  0  0  0
   -2.0778   -0.1075    0.4145 C   0  0  0  0  0  0  0  0  0  0  0  0
   -1.4328    1.1853   -0.0758 C   0  0  0  0  0  0  0  0  0  0  0  0
    0.0644    1.1752    0.2129 C   0  0  0  0  0  0  0  0  0  0  0  0
    3.7633    1.1048   -0.6112 H   0  0  0  0  0  0  0  0  0  0  0  0
    2.6830   -0.9577   -0.5662 H   0  0  0  0  0  0  0  0  0  0  0  0
    2.4158   -0.0007    0.9127 H   0  0  0  0  0  0  0  0  0  0  0  0
    0.6022    0.0505   -1.5319 H   0  0  0  0  0  0  0  0  0  0  0  0
    0.2515   -1.4193    1.1206 H   0  0  0  0  0  0  0  0  0  0  0  0
    0.5522   -2.1821   -0.4433 H   0  0  0  0  0  0  0  0  0  0  0  0
   -1.8641   -2.2365    0.1303 H   0  0  0  0  0  0  0  0  0  0  0  0
   -1.5736   -1.2727   -1.3203 H   0  0  0  0  0  0  0  0  0  0  0  0
   -3.1459   -0.1029    0.1866 H   0  0  0  0  0  0  0  0  0  0  0  0
   -1.9673   -0.1785    1.4992 H   0  0  0  0  0  0  0  0  0  0  0  0
   -1.8986    2.0432    0.4137 H   0  0  0  0  0  0  0  0  0  0  0  0
   -1.5943    1.2852   -1.1514 H   0  0  0  0  0  0  0  0  0  0  0  0
    0.2254    1.1265    1.2930 H   0  0  0  0  0  0  0  0  0  0  0  0
    0.5293    2.0894   -0.1578 H   0  0  0  0  0  0  0  0  0  0  0  0
  1  2  1  0  0  0  0
  2  3  1  0  0  0  0
  3  4  1  0  0  0  0
  4  5  1  0  0  0  0
  5  6  1  0  0  0  0
  6  7  1  0  0  0  0
  3  8  1  0  0  0  0
  7  8  1  0  0  0  0
  1  9  1  0  0  0  0
  2 10  1  0  0  0  0
  2 11  1  0  0  0  0
  3 12  1  0  0  0  0
  4 13  1  0  0  0  0
  4 14  1  0  0  0  0
  5 15  1  0  0  0  0
  5 16  1  0  0  0  0
  6 17  1  0  0  0  0
  6 18  1  0  0  0  0
  7 19  1  0  0  0  0
  7 20  1  0  0  0  0
  8 21  1  0  0  0  0
  8 22  1  0  0  0  0
M  END
