 xtb: 6.7.1 (edcfbbe)
          07092619563D

 34 35  0     0  0            999 V2000
   -3.5529   -0.0570    0.4874 C   0  0  0  0  0  0  0  0  0  0  0  0
   -3.0153   -1.2121   -0.3510 C   0  0  0  0  0  0  0  0  0  0  0  0
   -1.5154   -1.3833   -0.1272 C   0  0  0  0  0  0  0  0  0  0  0  0
   -0.7646   -0.0953   -0.4772 C   0  0  0  0  0  0  0  0  0  0  0  0
    0.7630   -0.2839   -0.3983 C   0  0  0  0  0  0  0  0  0  0  0  0
    1.3042   -0.4286    1.0252 C   0  0  0  0  0  0  0  0  0  0  0  0
    2.8013   -0.7261    0.9976 C   0  0  0  0  0  0  0  0  0  0  0  0
    3.5543    0.3898    0.2809 C   0  0  0  0  0  0  0  0  0  0  0  0
    3.0126    0.5691   -1.1335 C   0  0  0  0  0  0  0  0  0  0  0  0
    1.5132    0.8514   -1.1007 C   0  0  0  0  0  0  0  0  0  0  0  0
   -1.3016    1.0428    0.3927 C   0  0  0  0  0  0  0  0  0  0  0  0
   -2.7992    1.2281    0.1614 C   0  0  0  0  0  0  0  0  0  0  0  0
   -3.4272   -0.2903    1.5474 H   0  0  0  0  0  0  0  0  0  0  0  0
   -4.6203    0.0768    0.2987 H   0  0  0  0  0  0  0  0  0  0  0  0
   -3.5369   -2.1360   -0.0905 H   0  0  0  0  0  0  0  0  0  0  0  0
   -3.2032   -1.0095   -1.4082 H   0  0  0  0  0  0  0  0  0  0  0  0
   -1.1440   -2.2070   -0.7415 H   0  0  0  0  0  0  0  0  0  0  0  0
   -1.3396   -1.6401    0.9191 H   0  0  0  0  0  0  0  0  0  0  0  0
   -0.9983    0.1463   -1.5222 H   0  0  0  0  0  0  0  0  0  0  0  0
    0.9938   -1.2118   -0.9376 H   0  0  0  0  0  0  0  0  0  0  0  0
    1.1395    0.4980    1.5777 H   0  0  0  0  0  0  0  0  0  0  0  0
    0.7843   -1.2337    1.5470 H   0  0  0  0  0  0  0  0  0  0  0  0
    3.1765   -0.8324    2.0181 H   0  0  0  0  0  0  0  0  0  0  0  0
    2.9745   -1.6718    0.4782 H   0  0  0  0  0  0  0  0  0  0  0  0
    3.4315    1.3228    0.8362 H   0  0  0  0  0  0  0  0  0  0  0  0
    4.6213    0.1592    0.2461 H   0  0  0  0  0  0  0  0  0  0  0  0
    3.5337    1.3904   -1.6308 H   0  0  0  0  0  0  0  0  0  0  0  0
    3.1975   -0.3409   -1.7095 H   0  0  0  0  0  0  0  0  0  0  0  0
    1.1387    0.9674   -2.1206 H   0  0  0  0  0  0  0  0  0  0  0  0
    1.3402    1.7906   -0.5717 H   0  0  0  0  0  0  0  0  0  0  0  0
   -1.1340    0.8117    1.4460 H   0  0  0  0  0  0  0  0  0  0  0  0
   -0.7811    1.9734    0.1607 H   0  0  0  0  0  0  0  0  0  0  0  0
   -2.9753    1.4964   -0.8832 H   0  0  0  0  0  0  0  0  0  0  0  0
   -3.1714    2.0457    0.7831 H   0  0  0  0  0  0  0  0  0  0  0  0
  1  2  1  0  0  0  0
  2  3  1  0  0  0  0
  3  4  1  0  0  0  0
  4  5  1  0  0  0  0
  5  6  1  0  0  0  0
  6  7  1  0  0  0  0
  7  8  1  0  0  0  0
  8  9  1  0  0  0  0
  5 10  1  0  0  0  0
  9 10  1  0  0  0  0
  4 11  1  0  0  0  0
  1 12  1  0  0  0  0
 11 12  1  0  0  0  0
  1 13  1  0  0  0  0
  1 14  1  0  0  0  0
  2 15  1  0  0  0  0
  2 16  1  0  0  0  0
  3 17  1  0  0  0  0
  3 18  1  0  0  0  0
  4 19  1  0  0  0  0
  5 20  1  0  0  0  0
  6 21  1  0  0  0  0
  6 22  1  0  0  0  0
  7 23  1  0  0  0  0
  7 24  1  0  0  0  0
  8 25  1  0  0  0  0
  8 26  1  0  0  0  0
  9 27  1  0  0  0  0
  9 28  1  0  0  0  0
 10 29  1  0  0  0  0
 10 30  1  0  0  0  0
 11 31  1  0  0  0  0
 11 32  1  0  0  0  0
 12 33  1  0  0  0  0
 12 34  1  0  0  0  0
M  END
