 xtb: 6.7.1 (edcfbbe)
          07082602573D

 22 22  0     0  0            999 V2000
    2.7861    0.6678    0.5185 C   0  0  0  0  0  0  0  0  0  0  0  0
    1.8943    0.1115   -0.5876 C   0  0  0  0  0  0  0  0  0  0  0  0
    0.8132   -0.7140   -0.0665 N   0  0  0  0  0  0  0  0  0  0  0  0
    1.1287   -1.9658    0.3398 C   0  0  0  0  0  0  0  0  0  0  0  0
    2.2232   -2.4652    0.2383 O   0  0  0  0  0  0  0  0  0  0  0  0
   -0.4950   -0.2096    0.0113 C   0  0  0  0  0  0  0  0  0  0  0  0
   -0.7261    1.1304    0.3142 C   0  0  0  0  0  0  0  0  0  0  0  0
   -2.0180    1.6184    0.3831 C   0  0  0  0  0  0  0  0  0  0  0  0
   -3.0979    0.7828    0.1571 C   0  0  0  0  0  0  0  0  0  0  0  0
   -2.8748   -0.5478   -0.1536 C   0  0  0  0  0  0  0  0  0  0  0  0
   -1.5862   -1.0416   -0.2361 C   0  0  0  0  0  0  0  0  0  0  0  0
    3.2448   -0.1533    1.0628 H   0  0  0  0  0  0  0  0  0  0  0  0
    3.5722    1.2787    0.0827 H   0  0  0  0  0  0  0  0  0  0  0  0
    2.2181    1.2746    1.2198 H   0  0  0  0  0  0  0  0  0  0  0  0
    2.4990   -0.5298   -1.2361 H   0  0  0  0  0  0  0  0  0  0  0  0
    1.4584    0.9129   -1.1867 H   0  0  0  0  0  0  0  0  0  0  0  0
    0.2778   -2.4926    0.8040 H   0  0  0  0  0  0  0  0  0  0  0  0
    0.1014    1.7946    0.5060 H   0  0  0  0  0  0  0  0  0  0  0  0
   -2.1798    2.6593    0.6210 H   0  0  0  0  0  0  0  0  0  0  0  0
   -4.1048    1.1667    0.2150 H   0  0  0  0  0  0  0  0  0  0  0  0
   -3.7088   -1.2057   -0.3472 H   0  0  0  0  0  0  0  0  0  0  0  0
   -1.4255   -2.0722   -0.5133 H   0  0  0  0  0  0  0  0  0  0  0  0
  1  2  1  0  0  0  0
  2  3  1  0  0  0  0
  3  4  4  0  0  0  0
  4  5  2  0  0  0  0
  3  6  1  0  0  0  0
  6  7  4  0  0  0  0
  7  8  4  0  0  0  0
  8  9  4  0  0  0  0
  9 10  4  0  0  0  0
  6 11  4  0  0  0  0
 10 11  4  0  0  0  0
  1 12  1  0  0  0  0
  1 13  1  0  0  0  0
  1 14  1  0  0  0  0
  2 15  1  0  0  0  0
  2 16  1  0  0  0  0
  4 17  1  0  0  0  0
  7 18  1  0  0  0  0
  8 19  1  0  0  0  0
  9 20  1  0  0  0  0
 10 21  1  0  0  0  0
 11 22  1  0  0  0  0
M  END
