 xtb: 6.7.1 (edcfbbe)
          07082604373D

 17 17  0     0  0            999 V2000
   -2.4798   -0.5555   -0.7996 C   0  0  0  0  0  0  0  0  0  0  0  0
   -1.6752    0.4504   -0.2395 O   0  0  0  0  0  0  0  0  0  0  0  0
   -0.3427    0.1695   -0.0208 C   0  0  0  0  0  0  0  0  0  0  0  0
    0.2883   -1.0279   -0.3049 C   0  0  0  0  0  0  0  0  0  0  0  0
    1.6414   -1.1786   -0.0338 C   0  0  0  0  0  0  0  0  0  0  0  0
    2.3636   -0.1399    0.5185 C   0  0  0  0  0  0  0  0  0  0  0  0
    1.7400    1.0633    0.8064 C   0  0  0  0  0  0  0  0  0  0  0  0
    0.3918    1.2278    0.5415 C   0  0  0  0  0  0  0  0  0  0  0  0
   -0.2180    2.4089    0.8247 O   0  0  0  0  0  0  0  0  0  0  0  0
   -2.5201   -1.4402   -0.1564 H   0  0  0  0  0  0  0  0  0  0  0  0
   -2.1255   -0.8438   -1.7944 H   0  0  0  0  0  0  0  0  0  0  0  0
   -3.4765   -0.1246   -0.8829 H   0  0  0  0  0  0  0  0  0  0  0  0
   -0.2599   -1.8505   -0.7365 H   0  0  0  0  0  0  0  0  0  0  0  0
    2.1225   -2.1180   -0.2600 H   0  0  0  0  0  0  0  0  0  0  0  0
    3.4153   -0.2599    0.7281 H   0  0  0  0  0  0  0  0  0  0  0  0
    2.2826    1.8891    1.2378 H   0  0  0  0  0  0  0  0  0  0  0  0
   -1.1479    2.3299    0.5719 H   0  0  0  0  0  0  0  0  0  0  0  0
  1  2  1  0  0  0  0
  2  3  1  0  0  0  0
  3  4  4  0  0  0  0
  4  5  4  0  0  0  0
  5  6  4  0  0  0  0
  6  7  4  0  0  0  0
  3  8  4  0  0  0  0
  7  8  4  0  0  0  0
  8  9  1  0  0  0  0
  1 10  1  0  0  0  0
  1 11  1  0  0  0  0
  1 12  1  0  0  0  0
  4 13  1  0  0  0  0
  5 14  1  0  0  0  0
  6 15  1  0  0  0  0
  7 16  1  0  0  0  0
  9 17  1  0  0  0  0
M  END
