 xtb: 6.7.1 (edcfbbe)
          07092603353D

 26 25  0     0  0            999 V2000
   -3.5108    1.1566   -1.5649 C   0  0  0  0  0  0  0  0  0  0  0  0
   -2.7879    0.1087   -0.7328 C   0  0  0  0  0  0  0  0  0  0  0  0
   -1.7000   -0.3861   -1.4912 O   0  0  0  0  0  0  0  0  0  0  0  0
   -1.0698   -1.5192   -0.9586 C   0  0  0  0  0  0  0  0  0  0  0  0
   -0.1727   -1.2314    0.2552 C   0  0  0  0  0  0  0  0  0  0  0  0
    0.3976   -2.4532    0.6559 O   0  0  0  0  0  0  0  0  0  0  0  0
    0.9144   -0.2139   -0.0956 C   0  0  0  0  0  0  0  0  0  0  0  0
    1.6867   -0.0013    1.0643 O   0  0  0  0  0  0  0  0  0  0  0  0
    2.7549    0.8991    0.8680 C   0  0  0  0  0  0  0  0  0  0  0  0
    3.5071    1.0562    2.1792 C   0  0  0  0  0  0  0  0  0  0  0  0
   -4.3590    1.5501   -1.0118 H   0  0  0  0  0  0  0  0  0  0  0  0
   -2.8318    1.9695   -1.8059 H   0  0  0  0  0  0  0  0  0  0  0  0
   -3.8610    0.7138   -2.4929 H   0  0  0  0  0  0  0  0  0  0  0  0
   -3.4696   -0.7181   -0.4818 H   0  0  0  0  0  0  0  0  0  0  0  0
   -2.4334    0.5557    0.2071 H   0  0  0  0  0  0  0  0  0  0  0  0
   -1.8045   -2.2833   -0.6682 H   0  0  0  0  0  0  0  0  0  0  0  0
   -0.4473   -1.9222   -1.7614 H   0  0  0  0  0  0  0  0  0  0  0  0
   -0.7741   -0.8190    1.0815 H   0  0  0  0  0  0  0  0  0  0  0  0
    1.1079   -2.2372    1.2739 H   0  0  0  0  0  0  0  0  0  0  0  0
    1.5440   -0.6120   -0.9060 H   0  0  0  0  0  0  0  0  0  0  0  0
    0.4547    0.7223   -0.4409 H   0  0  0  0  0  0  0  0  0  0  0  0
    3.4255    0.5146    0.0830 H   0  0  0  0  0  0  0  0  0  0  0  0
    2.3635    1.8714    0.5305 H   0  0  0  0  0  0  0  0  0  0  0  0
    3.8973    0.0947    2.5017 H   0  0  0  0  0  0  0  0  0  0  0  0
    2.8368    1.4324    2.9469 H   0  0  0  0  0  0  0  0  0  0  0  0
    4.3316    1.7517    2.0516 H   0  0  0  0  0  0  0  0  0  0  0  0
  1  2  1  0  0  0  0
  2  3  1  0  0  0  0
  3  4  1  0  0  0  0
  4  5  1  0  0  0  0
  5  6  1  0  0  0  0
  5  7  1  0  0  0  0
  7  8  1  0  0  0  0
  8  9  1  0  0  0  0
  9 10  1  0  0  0  0
  1 11  1  0  0  0  0
  1 12  1  0  0  0  0
  1 13  1  0  0  0  0
  2 14  1  0  0  0  0
  2 15  1  0  0  0  0
  4 16  1  0  0  0  0
  4 17  1  0  0  0  0
  5 18  1  0  0  0  0
  6 19  1  0  0  0  0
  7 20  1  0  0  0  0
  7 21  1  0  0  0  0
  9 22  1  0  0  0  0
  9 23  1  0  0  0  0
 10 24  1  0  0  0  0
 10 25  1  0  0  0  0
 10 26  1  0  0  0  0
M  END
