 xtb: 6.7.1 (edcfbbe)
          07072615153D

 25 25  0     0  0            999 V2000
    2.4873    0.2933    1.5927 C   0  0  0  0  0  0  0  0  0  0  0  0
    2.7012   -0.9398    0.7284 C   0  0  0  0  0  0  0  0  0  0  0  0
    1.4911   -1.3051    0.0535 O   0  0  0  0  0  0  0  0  0  0  0  0
    1.2213   -0.6853   -1.0839 C   0  0  0  0  0  0  0  0  0  0  0  0
    1.9437    0.0966   -1.6513 O   0  0  0  0  0  0  0  0  0  0  0  0
   -0.1644   -1.0258   -1.6278 C   0  0  0  0  0  0  0  0  0  0  0  0
   -0.2171   -0.7172   -2.9890 O   0  0  0  0  0  0  0  0  0  0  0  0
   -1.1320   -0.2163   -0.7763 C   0  0  0  0  0  0  0  0  0  0  0  0
   -1.6880    0.9567   -1.2638 C   0  0  0  0  0  0  0  0  0  0  0  0
   -2.5400    1.7041   -0.4690 C   0  0  0  0  0  0  0  0  0  0  0  0
   -2.8326    1.2902    0.8186 C   0  0  0  0  0  0  0  0  0  0  0  0
   -2.2770    0.1191    1.3082 C   0  0  0  0  0  0  0  0  0  0  0  0
   -1.4306   -0.6332    0.5147 C   0  0  0  0  0  0  0  0  0  0  0  0
    3.3959    0.5139    2.1454 H   0  0  0  0  0  0  0  0  0  0  0  0
    2.2384    1.1477    0.9676 H   0  0  0  0  0  0  0  0  0  0  0  0
    1.6736    0.1238    2.2940 H   0  0  0  0  0  0  0  0  0  0  0  0
    3.4808   -0.7557   -0.0175 H   0  0  0  0  0  0  0  0  0  0  0  0
    2.9606   -1.8097    1.3346 H   0  0  0  0  0  0  0  0  0  0  0  0
   -0.3634   -2.0955   -1.5010 H   0  0  0  0  0  0  0  0  0  0  0  0
    0.4842   -0.0681   -3.1607 H   0  0  0  0  0  0  0  0  0  0  0  0
   -1.4651    1.2719   -2.2718 H   0  0  0  0  0  0  0  0  0  0  0  0
   -2.9727    2.6144   -0.8573 H   0  0  0  0  0  0  0  0  0  0  0  0
   -3.4933    1.8764    1.4399 H   0  0  0  0  0  0  0  0  0  0  0  0
   -2.5067   -0.2104    2.3111 H   0  0  0  0  0  0  0  0  0  0  0  0
   -0.9951   -1.5459    0.8944 H   0  0  0  0  0  0  0  0  0  0  0  0
  1  2  1  0  0  0  0
  2  3  1  0  0  0  0
  3  4  1  0  0  0  0
  4  5  2  0  0  0  0
  4  6  1  0  0  0  0
  6  7  1  0  0  0  0
  6  8  1  0  0  0  0
  8  9  4  0  0  0  0
  9 10  4  0  0  0  0
 10 11  4  0  0  0  0
 11 12  4  0  0  0  0
  8 13  4  0  0  0  0
 12 13  4  0  0  0  0
  1 14  1  0  0  0  0
  1 15  1  0  0  0  0
  1 16  1  0  0  0  0
  2 17  1  0  0  0  0
  2 18  1  0  0  0  0
  6 19  1  0  0  0  0
  7 20  1  0  0  0  0
  9 21  1  0  0  0  0
 10 22  1  0  0  0  0
 11 23  1  0  0  0  0
 12 24  1  0  0  0  0
 13 25  1  0  0  0  0
M  END
