 xtb: 6.7.1 (edcfbbe)
          07072615313D

 31 31  0     0  0            999 V2000
    4.8224    0.8679    0.8080 C   0  0  0  0  0  0  0  0  0  0  0  0
    3.6767    0.8551   -0.1869 C   0  0  0  0  0  0  0  0  0  0  0  0
    2.5603    0.1850    0.4072 O   0  0  0  0  0  0  0  0  0  0  0  0
    1.6803   -0.3897   -0.4073 C   0  0  0  0  0  0  0  0  0  0  0  0
    1.7624   -0.3596   -1.6134 O   0  0  0  0  0  0  0  0  0  0  0  0
    0.5765   -1.0702    0.3598 C   0  0  0  0  0  0  0  0  0  0  0  0
   -0.8145   -0.7117   -0.2284 C   0  0  0  0  0  0  0  0  0  0  0  0
   -0.9111   -1.1946   -1.5464 O   0  0  0  0  0  0  0  0  0  0  0  0
   -1.0191    0.8142   -0.1749 C   0  0  0  0  0  0  0  0  0  0  0  0
   -2.4140    1.1905   -0.6663 C   0  0  0  0  0  0  0  0  0  0  0  0
   -3.4812    0.5010    0.1760 C   0  0  0  0  0  0  0  0  0  0  0  0
   -3.2951   -1.0102    0.1038 C   0  0  0  0  0  0  0  0  0  0  0  0
   -1.9068   -1.4032    0.5994 C   0  0  0  0  0  0  0  0  0  0  0  0
    4.5165    1.3674    1.7232 H   0  0  0  0  0  0  0  0  0  0  0  0
    5.6697    1.3958    0.3804 H   0  0  0  0  0  0  0  0  0  0  0  0
    5.1226   -0.1481    1.0502 H   0  0  0  0  0  0  0  0  0  0  0  0
    3.9498    0.3332   -1.1102 H   0  0  0  0  0  0  0  0  0  0  0  0
    3.3675    1.8744   -0.4437 H   0  0  0  0  0  0  0  0  0  0  0  0
    0.6453   -0.7939    1.4107 H   0  0  0  0  0  0  0  0  0  0  0  0
    0.7147   -2.1498    0.2625 H   0  0  0  0  0  0  0  0  0  0  0  0
   -0.1205   -0.9050   -2.0277 H   0  0  0  0  0  0  0  0  0  0  0  0
   -0.8823    1.1544    0.8539 H   0  0  0  0  0  0  0  0  0  0  0  0
   -0.2669    1.3030   -0.7991 H   0  0  0  0  0  0  0  0  0  0  0  0
   -2.5378    2.2747   -0.6255 H   0  0  0  0  0  0  0  0  0  0  0  0
   -2.5177    0.8721   -1.7049 H   0  0  0  0  0  0  0  0  0  0  0  0
   -4.4743    0.7721   -0.1873 H   0  0  0  0  0  0  0  0  0  0  0  0
   -3.4003    0.8324    1.2146 H   0  0  0  0  0  0  0  0  0  0  0  0
   -4.0539   -1.5157    0.7045 H   0  0  0  0  0  0  0  0  0  0  0  0
   -3.3988   -1.3384   -0.9308 H   0  0  0  0  0  0  0  0  0  0  0  0
   -1.7918   -1.1203    1.6473 H   0  0  0  0  0  0  0  0  0  0  0  0
   -1.7785   -2.4832    0.5138 H   0  0  0  0  0  0  0  0  0  0  0  0
  1  2  1  0  0  0  0
  2  3  1  0  0  0  0
  3  4  1  0  0  0  0
  4  5  2  0  0  0  0
  4  6  1  0  0  0  0
  6  7  1  0  0  0  0
  7  8  1  0  0  0  0
  7  9  1  0  0  0  0
  9 10  1  0  0  0  0
 10 11  1  0  0  0  0
 11 12  1  0  0  0  0
  7 13  1  0  0  0  0
 12 13  1  0  0  0  0
  1 14  1  0  0  0  0
  1 15  1  0  0  0  0
  1 16  1  0  0  0  0
  2 17  1  0  0  0  0
  2 18  1  0  0  0  0
  6 19  1  0  0  0  0
  6 20  1  0  0  0  0
  8 21  1  0  0  0  0
  9 22  1  0  0  0  0
  9 23  1  0  0  0  0
 10 24  1  0  0  0  0
 10 25  1  0  0  0  0
 11 26  1  0  0  0  0
 11 27  1  0  0  0  0
 12 28  1  0  0  0  0
 12 29  1  0  0  0  0
 13 30  1  0  0  0  0
 13 31  1  0  0  0  0
M  END
