 xtb: 6.7.1 (edcfbbe)
          07092601483D

 26 25  0     0  0            999 V2000
    3.1074   -0.8254    0.9027 C   0  0  0  0  0  0  0  0  0  0  0  0
    3.0732    0.0888   -0.3156 C   0  0  0  0  0  0  0  0  0  0  0  0
    1.7557   -0.0421   -1.0791 C   0  0  0  0  0  0  0  0  0  0  0  0
    0.5983    0.5217   -0.2765 C   0  0  0  0  0  0  0  0  0  0  0  0
    0.6515    1.5436    0.3580 O   0  0  0  0  0  0  0  0  0  0  0  0
   -0.4664   -0.2660   -0.3959 O   0  0  0  0  0  0  0  0  0  0  0  0
   -1.7257    0.0530    0.2512 C   0  0  0  0  0  0  0  0  0  0  0  0
   -1.5428    0.0816    1.7681 C   0  0  0  0  0  0  0  0  0  0  0  0
   -2.2613    1.3881   -0.2644 C   0  0  0  0  0  0  0  0  0  0  0  0
   -2.6544   -1.0911   -0.1565 C   0  0  0  0  0  0  0  0  0  0  0  0
    2.9802   -1.8650    0.6066 H   0  0  0  0  0  0  0  0  0  0  0  0
    2.3095   -0.5628    1.5935 H   0  0  0  0  0  0  0  0  0  0  0  0
    4.0568   -0.7296    1.4241 H   0  0  0  0  0  0  0  0  0  0  0  0
    3.9010   -0.1569   -0.9836 H   0  0  0  0  0  0  0  0  0  0  0  0
    3.1863    1.1259    0.0046 H   0  0  0  0  0  0  0  0  0  0  0  0
    1.8087    0.5319   -2.0076 H   0  0  0  0  0  0  0  0  0  0  0  0
    1.5412   -1.0819   -1.3266 H   0  0  0  0  0  0  0  0  0  0  0  0
   -1.1175   -0.8596    2.1107 H   0  0  0  0  0  0  0  0  0  0  0  0
   -2.5053    0.2291    2.2498 H   0  0  0  0  0  0  0  0  0  0  0  0
   -0.8783    0.8927    2.0530 H   0  0  0  0  0  0  0  0  0  0  0  0
   -1.6011    2.1995    0.0294 H   0  0  0  0  0  0  0  0  0  0  0  0
   -3.2491    1.5695    0.1498 H   0  0  0  0  0  0  0  0  0  0  0  0
   -2.3322    1.3679   -1.3500 H   0  0  0  0  0  0  0  0  0  0  0  0
   -3.6364   -0.9488    0.2849 H   0  0  0  0  0  0  0  0  0  0  0  0
   -2.2470   -2.0402    0.1815 H   0  0  0  0  0  0  0  0  0  0  0  0
   -2.7525   -1.1238   -1.2384 H   0  0  0  0  0  0  0  0  0  0  0  0
  1  2  1  0  0  0  0
  2  3  1  0  0  0  0
  3  4  1  0  0  0  0
  4  5  2  0  0  0  0
  4  6  1  0  0  0  0
  6  7  1  0  0  0  0
  7  8  1  0  0  0  0
  7  9  1  0  0  0  0
  7 10  1  0  0  0  0
  1 11  1  0  0  0  0
  1 12  1  0  0  0  0
  1 13  1  0  0  0  0
  2 14  1  0  0  0  0
  2 15  1  0  0  0  0
  3 16  1  0  0  0  0
  3 17  1  0  0  0  0
  8 18  1  0  0  0  0
  8 19  1  0  0  0  0
  8 20  1  0  0  0  0
  9 21  1  0  0  0  0
  9 22  1  0  0  0  0
  9 23  1  0  0  0  0
 10 24  1  0  0  0  0
 10 25  1  0  0  0  0
 10 26  1  0  0  0  0
M  END
