 xtb: 6.7.1 (edcfbbe)
          07072617113D

 35 36  0     0  0            999 V2000
   -0.0223   -1.7266   -1.7483 O   0  0  0  0  0  0  0  0  0  0  0  0
    0.6225   -0.9872   -1.0407 C   0  0  0  0  0  0  0  0  0  0  0  0
    0.1203   -0.0512   -0.2555 O   0  0  0  0  0  0  0  0  0  0  0  0
   -1.3100    0.0950   -0.2183 C   0  0  0  0  0  0  0  0  0  0  0  0
   -1.8905   -0.7797    0.8910 C   0  0  0  0  0  0  0  0  0  0  0  0
   -3.3984   -0.5706    0.9876 C   0  0  0  0  0  0  0  0  0  0  0  0
   -3.7205    0.9003    1.2345 C   0  0  0  0  0  0  0  0  0  0  0  0
   -3.1343    1.7669    0.1240 C   0  0  0  0  0  0  0  0  0  0  0  0
   -1.6247    1.5658    0.0278 C   0  0  0  0  0  0  0  0  0  0  0  0
    2.1445   -1.0535   -0.9943 C   0  0  0  0  0  0  0  0  0  0  0  0
    2.5636   -2.0502   -1.8907 O   0  0  0  0  0  0  0  0  0  0  0  0
    2.6347   -1.3437    0.4493 C   0  0  0  0  0  0  0  0  0  0  0  0
    3.7183   -0.3040    0.7277 C   0  0  0  0  0  0  0  0  0  0  0  0
    3.2364    0.9179   -0.0469 C   0  0  0  0  0  0  0  0  0  0  0  0
    2.7589    0.3199   -1.3651 C   0  0  0  0  0  0  0  0  0  0  0  0
   -1.7105   -0.2277   -1.1877 H   0  0  0  0  0  0  0  0  0  0  0  0
   -1.6637   -1.8269    0.6808 H   0  0  0  0  0  0  0  0  0  0  0  0
   -1.4137   -0.5086    1.8359 H   0  0  0  0  0  0  0  0  0  0  0  0
   -3.8674   -0.8945    0.0561 H   0  0  0  0  0  0  0  0  0  0  0  0
   -3.8001   -1.1833    1.7963 H   0  0  0  0  0  0  0  0  0  0  0  0
   -4.8019    1.0399    1.2817 H   0  0  0  0  0  0  0  0  0  0  0  0
   -3.3003    1.2079    2.1946 H   0  0  0  0  0  0  0  0  0  0  0  0
   -3.3506    2.8191    0.3158 H   0  0  0  0  0  0  0  0  0  0  0  0
   -3.5962    1.4971   -0.8283 H   0  0  0  0  0  0  0  0  0  0  0  0
   -1.1455    1.8734    0.9592 H   0  0  0  0  0  0  0  0  0  0  0  0
   -1.2088    2.1691   -0.7811 H   0  0  0  0  0  0  0  0  0  0  0  0
    1.7656   -2.4420   -2.2823 H   0  0  0  0  0  0  0  0  0  0  0  0
    3.0063   -2.3652    0.5061 H   0  0  0  0  0  0  0  0  0  0  0  0
    1.8104   -1.2264    1.1530 H   0  0  0  0  0  0  0  0  0  0  0  0
    3.8393   -0.1107    1.7924 H   0  0  0  0  0  0  0  0  0  0  0  0
    4.6714   -0.6444    0.3221 H   0  0  0  0  0  0  0  0  0  0  0  0
    2.3980    1.3818    0.4745 H   0  0  0  0  0  0  0  0  0  0  0  0
    4.0168    1.6632   -0.1920 H   0  0  0  0  0  0  0  0  0  0  0  0
    2.0495    0.9590   -1.8890 H   0  0  0  0  0  0  0  0  0  0  0  0
    3.6030    0.1201   -2.0257 H   0  0  0  0  0  0  0  0  0  0  0  0
  1  2  2  0  0  0  0
  2  3  1  0  0  0  0
  3  4  1  0  0  0  0
  4  5  1  0  0  0  0
  5  6  1  0  0  0  0
  6  7  1  0  0  0  0
  7  8  1  0  0  0  0
  4  9  1  0  0  0  0
  8  9  1  0  0  0  0
  2 10  1  0  0  0  0
 10 11  1  0  0  0  0
 10 12  1  0  0  0  0
 12 13  1  0  0  0  0
 13 14  1  0  0  0  0
 10 15  1  0  0  0  0
 14 15  1  0  0  0  0
  4 16  1  0  0  0  0
  5 17  1  0  0  0  0
  5 18  1  0  0  0  0
  6 19  1  0  0  0  0
  6 20  1  0  0  0  0
  7 21  1  0  0  0  0
  7 22  1  0  0  0  0
  8 23  1  0  0  0  0
  8 24  1  0  0  0  0
  9 25  1  0  0  0  0
  9 26  1  0  0  0  0
 11 27  1  0  0  0  0
 12 28  1  0  0  0  0
 12 29  1  0  0  0  0
 13 30  1  0  0  0  0
 13 31  1  0  0  0  0
 14 32  1  0  0  0  0
 14 33  1  0  0  0  0
 15 34  1  0  0  0  0
 15 35  1  0  0  0  0
M  END
