 xtb: 6.7.1 (edcfbbe)
          07082606313D

 19 19  0     0  0            999 V2000
   -2.3013   -0.5767    1.4119 O   0  0  0  0  0  0  0  0  0  0  0  0
   -2.4044   -0.1212    0.0869 C   0  0  0  0  0  0  0  0  0  0  0  0
   -1.3285   -0.7255   -0.8340 C   0  0  0  0  0  0  0  0  0  0  0  0
    0.0346   -0.2507   -0.4271 C   0  0  0  0  0  0  0  0  0  0  0  0
    0.8100   -1.0020    0.4502 C   0  0  0  0  0  0  0  0  0  0  0  0
    2.0491   -0.5596    0.8787 C   0  0  0  0  0  0  0  0  0  0  0  0
    2.5398    0.6550    0.4323 C   0  0  0  0  0  0  0  0  0  0  0  0
    1.7878    1.4232   -0.4390 C   0  0  0  0  0  0  0  0  0  0  0  0
    0.5465    0.9720   -0.8559 C   0  0  0  0  0  0  0  0  0  0  0  0
   -0.3688    1.9679   -1.9421 Cl  0  0  0  0  0  0  0  0  0  0  0  0
   -1.4253   -0.3502    1.7470 H   0  0  0  0  0  0  0  0  0  0  0  0
   -2.3449    0.9755    0.0484 H   0  0  0  0  0  0  0  0  0  0  0  0
   -3.3956   -0.4287   -0.2532 H   0  0  0  0  0  0  0  0  0  0  0  0
   -1.5449   -0.4284   -1.8602 H   0  0  0  0  0  0  0  0  0  0  0  0
   -1.3798   -1.8127   -0.7606 H   0  0  0  0  0  0  0  0  0  0  0  0
    0.4313   -1.9538    0.7943 H   0  0  0  0  0  0  0  0  0  0  0  0
    2.6304   -1.1635    1.5588 H   0  0  0  0  0  0  0  0  0  0  0  0
    3.5060    1.0075    0.7589 H   0  0  0  0  0  0  0  0  0  0  0  0
    2.1579    2.3718   -0.7953 H   0  0  0  0  0  0  0  0  0  0  0  0
  1  2  1  0  0  0  0
  2  3  1  0  0  0  0
  3  4  1  0  0  0  0
  4  5  4  0  0  0  0
  5  6  4  0  0  0  0
  6  7  4  0  0  0  0
  7  8  4  0  0  0  0
  4  9  4  0  0  0  0
  8  9  4  0  0  0  0
  9 10  1  0  0  0  0
  1 11  1  0  0  0  0
  2 12  1  0  0  0  0
  2 13  1  0  0  0  0
  3 14  1  0  0  0  0
  3 15  1  0  0  0  0
  5 16  1  0  0  0  0
  6 17  1  0  0  0  0
  7 18  1  0  0  0  0
  8 19  1  0  0  0  0
M  END
