 xtb: 6.7.1 (edcfbbe)
          07092615573D

 26 26  0     0  0            999 V2000
   -2.6471   -0.8312   -0.1533 C   0  0  0  0  0  0  0  0  0  0  0  0
   -1.4850   -0.5577   -0.0744 C   0  0  0  0  0  0  0  0  0  0  0  0
   -0.0585   -0.2820    0.0127 C   0  0  0  0  0  0  0  0  0  0  0  0
    0.6784   -1.2090   -0.8274 O   0  0  0  0  0  0  0  0  0  0  0  0
    0.3811   -1.3117   -2.1231 C   0  0  0  0  0  0  0  0  0  0  0  0
    1.2613   -2.3529   -2.7720 C   0  0  0  0  0  0  0  0  0  0  0  0
   -0.4596   -0.6726   -2.6961 O   0  0  0  0  0  0  0  0  0  0  0  0
    0.4488   -0.5455    1.4376 C   0  0  0  0  0  0  0  0  0  0  0  0
   -0.1593    0.4455    2.4243 C   0  0  0  0  0  0  0  0  0  0  0  0
    0.1589    1.8785    2.0092 C   0  0  0  0  0  0  0  0  0  0  0  0
   -0.3665    2.1460    0.6023 C   0  0  0  0  0  0  0  0  0  0  0  0
    0.2401    1.1671   -0.3977 C   0  0  0  0  0  0  0  0  0  0  0  0
   -3.6718   -1.0437   -0.2258 H   0  0  0  0  0  0  0  0  0  0  0  0
    2.3059   -2.1056   -2.6020 H   0  0  0  0  0  0  0  0  0  0  0  0
    1.0626   -3.3217   -2.3205 H   0  0  0  0  0  0  0  0  0  0  0  0
    1.0532   -2.3913   -3.8366 H   0  0  0  0  0  0  0  0  0  0  0  0
    0.1995   -1.5702    1.7192 H   0  0  0  0  0  0  0  0  0  0  0  0
    1.5365   -0.4504    1.4290 H   0  0  0  0  0  0  0  0  0  0  0  0
    0.2324    0.2469    3.4236 H   0  0  0  0  0  0  0  0  0  0  0  0
   -1.2425    0.3075    2.4509 H   0  0  0  0  0  0  0  0  0  0  0  0
    1.2405    2.0327    2.0306 H   0  0  0  0  0  0  0  0  0  0  0  0
   -0.2936    2.5783    2.7140 H   0  0  0  0  0  0  0  0  0  0  0  0
   -0.1244    3.1660    0.2981 H   0  0  0  0  0  0  0  0  0  0  0  0
   -1.4534    2.0392    0.5934 H   0  0  0  0  0  0  0  0  0  0  0  0
   -0.1634    1.3467   -1.3953 H   0  0  0  0  0  0  0  0  0  0  0  0
    1.3258    1.2910   -0.4339 H   0  0  0  0  0  0  0  0  0  0  0  0
  1  2  3  0  0  0  0
  2  3  1  0  0  0  0
  3  4  1  0  0  0  0
  4  5  1  0  0  0  0
  5  6  1  0  0  0  0
  5  7  2  0  0  0  0
  3  8  1  0  0  0  0
  8  9  1  0  0  0  0
  9 10  1  0  0  0  0
 10 11  1  0  0  0  0
  3 12  1  0  0  0  0
 11 12  1  0  0  0  0
  1 13  1  0  0  0  0
  6 14  1  0  0  0  0
  6 15  1  0  0  0  0
  6 16  1  0  0  0  0
  8 17  1  0  0  0  0
  8 18  1  0  0  0  0
  9 19  1  0  0  0  0
  9 20  1  0  0  0  0
 10 21  1  0  0  0  0
 10 22  1  0  0  0  0
 11 23  1  0  0  0  0
 11 24  1  0  0  0  0
 12 25  1  0  0  0  0
 12 26  1  0  0  0  0
M  END
