 xtb: 6.7.1 (edcfbbe)
          07082619253D

 15 15  0     0  0            999 V2000
    2.1284    0.1002   -0.1287 C   0  0  0  0  0  0  0  0  0  0  0  0
    0.6869    0.0309   -0.0420 N   0  0  0  0  0  0  0  0  0  0  0  0
    0.0600   -1.1267   -0.3376 C   0  0  0  0  0  0  0  0  0  0  0  0
   -1.2904   -1.2555   -0.2752 C   0  0  0  0  0  0  0  0  0  0  0  0
   -2.0524   -0.1322    0.1136 C   0  0  0  0  0  0  0  0  0  0  0  0
   -1.4339    1.0359    0.4129 C   0  0  0  0  0  0  0  0  0  0  0  0
   -0.0034    1.1879    0.3515 C   0  0  0  0  0  0  0  0  0  0  0  0
    0.6108    2.2100    0.6079 O   0  0  0  0  0  0  0  0  0  0  0  0
    2.5882   -0.6129    0.5568 H   0  0  0  0  0  0  0  0  0  0  0  0
    2.4208    1.1128    0.1489 H   0  0  0  0  0  0  0  0  0  0  0  0
    2.4615   -0.1095   -1.1461 H   0  0  0  0  0  0  0  0  0  0  0  0
    0.7008   -1.9477   -0.6279 H   0  0  0  0  0  0  0  0  0  0  0  0
   -1.7641   -2.1915   -0.5167 H   0  0  0  0  0  0  0  0  0  0  0  0
   -3.1280   -0.2146    0.1693 H   0  0  0  0  0  0  0  0  0  0  0  0
   -1.9853    1.9129    0.7132 H   0  0  0  0  0  0  0  0  0  0  0  0
  1  2  1  0  0  0  0
  2  3  4  0  0  0  0
  3  4  2  0  0  0  0
  4  5  4  0  0  0  0
  5  6  2  0  0  0  0
  2  7  1  0  0  0  0
  6  7  1  0  0  0  0
  7  8  2  0  0  0  0
  1  9  1  0  0  0  0
  1 10  1  0  0  0  0
  1 11  1  0  0  0  0
  3 12  1  0  0  0  0
  4 13  1  0  0  0  0
  5 14  1  0  0  0  0
  6 15  1  0  0  0  0
M  END
