 xtb: 6.7.1 (edcfbbe)
          07072605003D

 39 38  0     0  0            999 V2000
    6.7819    0.7661   -1.0261 C   0  0  0  0  0  0  0  0  0  0  0  0
    6.2692   -0.6428   -0.7651 C   0  0  0  0  0  0  0  0  0  0  0  0
    5.0844   -0.6292    0.0332 O   0  0  0  0  0  0  0  0  0  0  0  0
    3.9230   -0.4158   -0.5984 C   0  0  0  0  0  0  0  0  0  0  0  0
    3.8227   -0.2592   -1.7864 O   0  0  0  0  0  0  0  0  0  0  0  0
    2.7771   -0.4153    0.3865 C   0  0  0  0  0  0  0  0  0  0  0  0
    1.4336   -0.2031   -0.3026 C   0  0  0  0  0  0  0  0  0  0  0  0
    0.2822   -0.2203    0.6962 C   0  0  0  0  0  0  0  0  0  0  0  0
   -1.0626    0.0033    0.0099 C   0  0  0  0  0  0  0  0  0  0  0  0
   -2.1948   -0.0072    1.0268 C   0  0  0  0  0  0  0  0  0  0  0  0
   -1.9834   -0.0995    2.2215 O   0  0  0  0  0  0  0  0  0  0  0  0
   -3.4561    0.1023    0.5387 N   0  0  0  0  0  0  0  0  0  0  0  0
   -3.8085    0.1823   -0.8614 C   0  0  0  0  0  0  0  0  0  0  0  0
   -4.0736   -1.1943   -1.4736 C   0  0  0  0  0  0  0  0  0  0  0  0
   -4.5563    0.1077    1.4884 C   0  0  0  0  0  0  0  0  0  0  0  0
   -4.9595    1.5270    1.8775 C   0  0  0  0  0  0  0  0  0  0  0  0
    6.9533    1.2842   -0.0855 H   0  0  0  0  0  0  0  0  0  0  0  0
    6.0529    1.3229   -1.6096 H   0  0  0  0  0  0  0  0  0  0  0  0
    7.7144    0.7180   -1.5810 H   0  0  0  0  0  0  0  0  0  0  0  0
    6.9917   -1.2251   -0.1895 H   0  0  0  0  0  0  0  0  0  0  0  0
    6.0516   -1.1473   -1.7123 H   0  0  0  0  0  0  0  0  0  0  0  0
    2.9639    0.3713    1.1207 H   0  0  0  0  0  0  0  0  0  0  0  0
    2.7923   -1.3662    0.9233 H   0  0  0  0  0  0  0  0  0  0  0  0
    1.4539    0.7512   -0.8328 H   0  0  0  0  0  0  0  0  0  0  0  0
    1.2912   -0.9859   -1.0504 H   0  0  0  0  0  0  0  0  0  0  0  0
    0.4272    0.5557    1.4493 H   0  0  0  0  0  0  0  0  0  0  0  0
    0.2567   -1.1771    1.2206 H   0  0  0  0  0  0  0  0  0  0  0  0
   -1.0540    0.9706   -0.4995 H   0  0  0  0  0  0  0  0  0  0  0  0
   -1.2280   -0.7735   -0.7382 H   0  0  0  0  0  0  0  0  0  0  0  0
   -3.0174    0.6876   -1.4172 H   0  0  0  0  0  0  0  0  0  0  0  0
   -4.7121    0.7929   -0.9446 H   0  0  0  0  0  0  0  0  0  0  0  0
   -4.8822   -1.6963   -0.9483 H   0  0  0  0  0  0  0  0  0  0  0  0
   -4.3524   -1.0879   -2.5186 H   0  0  0  0  0  0  0  0  0  0  0  0
   -3.1884   -1.8215   -1.4112 H   0  0  0  0  0  0  0  0  0  0  0  0
   -4.2203   -0.4292    2.3781 H   0  0  0  0  0  0  0  0  0  0  0  0
   -5.4033   -0.4243    1.0484 H   0  0  0  0  0  0  0  0  0  0  0  0
   -5.2658    2.0999    1.0044 H   0  0  0  0  0  0  0  0  0  0  0  0
   -4.1179    2.0293    2.3469 H   0  0  0  0  0  0  0  0  0  0  0  0
   -5.7864    1.4984    2.5818 H   0  0  0  0  0  0  0  0  0  0  0  0
  1  2  1  0  0  0  0
  2  3  1  0  0  0  0
  3  4  1  0  0  0  0
  4  5  2  0  0  0  0
  4  6  1  0  0  0  0
  6  7  1  0  0  0  0
  7  8  1  0  0  0  0
  8  9  1  0  0  0  0
  9 10  1  0  0  0  0
 10 11  2  0  0  0  0
 10 12  4  0  0  0  0
 12 13  1  0  0  0  0
 13 14  1  0  0  0  0
 12 15  1  0  0  0  0
 15 16  1  0  0  0  0
  1 17  1  0  0  0  0
  1 18  1  0  0  0  0
  1 19  1  0  0  0  0
  2 20  1  0  0  0  0
  2 21  1  0  0  0  0
  6 22  1  0  0  0  0
  6 23  1  0  0  0  0
  7 24  1  0  0  0  0
  7 25  1  0  0  0  0
  8 26  1  0  0  0  0
  8 27  1  0  0  0  0
  9 28  1  0  0  0  0
  9 29  1  0  0  0  0
 13 30  1  0  0  0  0
 13 31  1  0  0  0  0
 14 32  1  0  0  0  0
 14 33  1  0  0  0  0
 14 34  1  0  0  0  0
 15 35  1  0  0  0  0
 15 36  1  0  0  0  0
 16 37  1  0  0  0  0
 16 38  1  0  0  0  0
 16 39  1  0  0  0  0
M  END
