 xtb: 6.7.1 (edcfbbe)
          07072622593D

 32 33  0     0  0            999 V2000
    4.1444   -0.1361    0.6701 C   0  0  0  0  0  0  0  0  0  0  0  0
    2.8239    0.5905    0.4407 C   0  0  0  0  0  0  0  0  0  0  0  0
    1.6618   -0.3968    0.4914 C   0  0  0  0  0  0  0  0  0  0  0  0
    1.8216   -1.5292    0.8945 O   0  0  0  0  0  0  0  0  0  0  0  0
    0.4487    0.0600    0.0475 N   0  0  0  0  0  0  0  0  0  0  0  0
   -0.6543   -0.8191   -0.0743 C   0  0  0  0  0  0  0  0  0  0  0  0
   -0.4627   -2.1286   -0.5108 C   0  0  0  0  0  0  0  0  0  0  0  0
   -1.5313   -2.9920   -0.6457 C   0  0  0  0  0  0  0  0  0  0  0  0
   -2.8156   -2.5587   -0.3630 C   0  0  0  0  0  0  0  0  0  0  0  0
   -3.0137   -1.2531    0.0403 C   0  0  0  0  0  0  0  0  0  0  0  0
   -1.9512   -0.3705    0.1885 C   0  0  0  0  0  0  0  0  0  0  0  0
   -2.2445    1.0512    0.5842 C   0  0  0  0  0  0  0  0  0  0  0  0
   -0.9714    1.8379    0.8643 C   0  0  0  0  0  0  0  0  0  0  0  0
    0.1257    1.4675   -0.1396 C   0  0  0  0  0  0  0  0  0  0  0  0
   -0.2701    1.7350   -1.5921 C   0  0  0  0  0  0  0  0  0  0  0  0
    4.3131   -0.8684   -0.1152 H   0  0  0  0  0  0  0  0  0  0  0  0
    4.1195   -0.6634    1.6196 H   0  0  0  0  0  0  0  0  0  0  0  0
    4.9697    0.5720    0.6763 H   0  0  0  0  0  0  0  0  0  0  0  0
    2.8404    1.0900   -0.5300 H   0  0  0  0  0  0  0  0  0  0  0  0
    2.6888    1.3435    1.2218 H   0  0  0  0  0  0  0  0  0  0  0  0
    0.5321   -2.4719   -0.7384 H   0  0  0  0  0  0  0  0  0  0  0  0
   -1.3594   -4.0041   -0.9796 H   0  0  0  0  0  0  0  0  0  0  0  0
   -3.6555   -3.2295   -0.4641 H   0  0  0  0  0  0  0  0  0  0  0  0
   -4.0134   -0.8979    0.2490 H   0  0  0  0  0  0  0  0  0  0  0  0
   -2.8064    1.5290   -0.2246 H   0  0  0  0  0  0  0  0  0  0  0  0
   -2.8894    1.0589    1.4659 H   0  0  0  0  0  0  0  0  0  0  0  0
   -0.6039    1.5991    1.8652 H   0  0  0  0  0  0  0  0  0  0  0  0
   -1.1669    2.9105    0.8232 H   0  0  0  0  0  0  0  0  0  0  0  0
    1.0054    2.0690    0.0915 H   0  0  0  0  0  0  0  0  0  0  0  0
   -1.0852    1.0865   -1.8999 H   0  0  0  0  0  0  0  0  0  0  0  0
    0.5774    1.5477   -2.2478 H   0  0  0  0  0  0  0  0  0  0  0  0
   -0.5773    2.7712   -1.7092 H   0  0  0  0  0  0  0  0  0  0  0  0
  1  2  1  0  0  0  0
  2  3  1  0  0  0  0
  3  4  2  0  0  0  0
  3  5  1  0  0  0  0
  5  6  1  0  0  0  0
  6  7  4  0  0  0  0
  7  8  4  0  0  0  0
  8  9  4  0  0  0  0
  9 10  4  0  0  0  0
  6 11  4  0  0  0  0
 10 11  4  0  0  0  0
 11 12  1  0  0  0  0
 12 13  1  0  0  0  0
  5 14  1  0  0  0  0
 13 14  1  0  0  0  0
 14 15  1  0  0  0  0
  1 16  1  0  0  0  0
  1 17  1  0  0  0  0
  1 18  1  0  0  0  0
  2 19  1  0  0  0  0
  2 20  1  0  0  0  0
  7 21  1  0  0  0  0
  8 22  1  0  0  0  0
  9 23  1  0  0  0  0
 10 24  1  0  0  0  0
 12 25  1  0  0  0  0
 12 26  1  0  0  0  0
 13 27  1  0  0  0  0
 13 28  1  0  0  0  0
 14 29  1  0  0  0  0
 15 30  1  0  0  0  0
 15 31  1  0  0  0  0
 15 32  1  0  0  0  0
M  END
