 xtb: 6.7.1 (edcfbbe)
          07062622243D

 30 30  0     0  0            999 V2000
    4.6517   -0.7195   -0.1901 C   0  0  0  0  0  0  0  0  0  0  0  0
    3.2083   -0.4712   -0.5185 C   0  0  0  0  0  0  0  0  0  0  0  0
    2.5116   -1.2248   -1.1390 O   0  0  0  0  0  0  0  0  0  0  0  0
    2.6662    0.8532    0.0288 C   0  0  0  0  0  0  0  0  0  0  0  0
    1.2478    0.8520    0.0227 O   0  0  0  0  0  0  0  0  0  0  0  0
    0.6894   -0.0432    0.8374 C   0  0  0  0  0  0  0  0  0  0  0  0
    1.3148   -0.7196    1.6198 O   0  0  0  0  0  0  0  0  0  0  0  0
   -0.8175   -0.1560    0.6814 C   0  0  0  0  0  0  0  0  0  0  0  0
   -1.3088   -0.9628    1.7247 O   0  0  0  0  0  0  0  0  0  0  0  0
   -1.4821    1.2277    0.7365 C   0  0  0  0  0  0  0  0  0  0  0  0
   -2.9780    1.1023    0.4667 C   0  0  0  0  0  0  0  0  0  0  0  0
   -3.2255    0.4612   -0.8945 C   0  0  0  0  0  0  0  0  0  0  0  0
   -2.5775   -0.9182   -0.9419 C   0  0  0  0  0  0  0  0  0  0  0  0
   -1.0775   -0.8109   -0.6934 C   0  0  0  0  0  0  0  0  0  0  0  0
    5.0569   -1.4863   -0.8444 H   0  0  0  0  0  0  0  0  0  0  0  0
    4.7037   -1.0774    0.8375 H   0  0  0  0  0  0  0  0  0  0  0  0
    5.2343    0.1944   -0.2656 H   0  0  0  0  0  0  0  0  0  0  0  0
    3.0435    1.0184    1.0436 H   0  0  0  0  0  0  0  0  0  0  0  0
    2.9703    1.6747   -0.6234 H   0  0  0  0  0  0  0  0  0  0  0  0
   -0.5494   -1.4181    2.1197 H   0  0  0  0  0  0  0  0  0  0  0  0
   -1.3170    1.6574    1.7264 H   0  0  0  0  0  0  0  0  0  0  0  0
   -1.0132    1.8705   -0.0094 H   0  0  0  0  0  0  0  0  0  0  0  0
   -3.4395    2.0908    0.5111 H   0  0  0  0  0  0  0  0  0  0  0  0
   -3.4200    0.4792    1.2450 H   0  0  0  0  0  0  0  0  0  0  0  0
   -4.2988    0.3744   -1.0739 H   0  0  0  0  0  0  0  0  0  0  0  0
   -2.8019    1.0923   -1.6798 H   0  0  0  0  0  0  0  0  0  0  0  0
   -2.7521   -1.3881   -1.9114 H   0  0  0  0  0  0  0  0  0  0  0  0
   -3.0168   -1.5492   -0.1678 H   0  0  0  0  0  0  0  0  0  0  0  0
   -0.6182   -1.8012   -0.7063 H   0  0  0  0  0  0  0  0  0  0  0  0
   -0.6045   -0.2025   -1.4652 H   0  0  0  0  0  0  0  0  0  0  0  0
  1  2  1  0  0  0  0
  2  3  2  0  0  0  0
  2  4  1  0  0  0  0
  4  5  1  0  0  0  0
  5  6  1  0  0  0  0
  6  7  2  0  0  0  0
  6  8  1  0  0  0  0
  8  9  1  0  0  0  0
  8 10  1  0  0  0  0
 10 11  1  0  0  0  0
 11 12  1  0  0  0  0
 12 13  1  0  0  0  0
  8 14  1  0  0  0  0
 13 14  1  0  0  0  0
  1 15  1  0  0  0  0
  1 16  1  0  0  0  0
  1 17  1  0  0  0  0
  4 18  1  0  0  0  0
  4 19  1  0  0  0  0
  9 20  1  0  0  0  0
 10 21  1  0  0  0  0
 10 22  1  0  0  0  0
 11 23  1  0  0  0  0
 11 24  1  0  0  0  0
 12 25  1  0  0  0  0
 12 26  1  0  0  0  0
 13 27  1  0  0  0  0
 13 28  1  0  0  0  0
 14 29  1  0  0  0  0
 14 30  1  0  0  0  0
M  END
