 xtb: 6.7.1 (edcfbbe)
          07092608013D

 25 24  0     0  0            999 V2000
    1.5268    2.8448    0.2760 C   0  0  0  0  0  0  0  0  0  0  0  0
    0.5415    2.1612    1.2123 C   0  0  0  0  0  0  0  0  0  0  0  0
   -0.2448    1.1874    0.5201 O   0  0  0  0  0  0  0  0  0  0  0  0
    0.2988   -0.0215    0.3401 C   0  0  0  0  0  0  0  0  0  0  0  0
    1.3843   -0.3416    0.7428 O   0  0  0  0  0  0  0  0  0  0  0  0
   -0.6509   -0.9300   -0.4185 C   0  0  0  0  0  0  0  0  0  0  0  0
    0.0975   -1.7015   -1.5087 C   0  0  0  0  0  0  0  0  0  0  0  0
    0.5428   -0.7881   -2.6425 C   0  0  0  0  0  0  0  0  0  0  0  0
   -1.3531   -1.8803    0.5576 C   0  0  0  0  0  0  0  0  0  0  0  0
   -1.8708   -1.2201    1.8067 C   0  0  0  0  0  0  0  0  0  0  0  0
   -1.4826   -3.0515    0.3284 O   0  0  0  0  0  0  0  0  0  0  0  0
    1.0003    3.2899   -0.5650 H   0  0  0  0  0  0  0  0  0  0  0  0
    2.2461    2.1206   -0.0986 H   0  0  0  0  0  0  0  0  0  0  0  0
    2.0603    3.6231    0.8137 H   0  0  0  0  0  0  0  0  0  0  0  0
    1.0767    1.6675    2.0299 H   0  0  0  0  0  0  0  0  0  0  0  0
   -0.1807    2.8741    1.6151 H   0  0  0  0  0  0  0  0  0  0  0  0
   -1.4326   -0.3011   -0.8593 H   0  0  0  0  0  0  0  0  0  0  0  0
    0.9662   -2.1805   -1.0540 H   0  0  0  0  0  0  0  0  0  0  0  0
   -0.5587   -2.4854   -1.8897 H   0  0  0  0  0  0  0  0  0  0  0  0
    1.0587   -1.3629   -3.4072 H   0  0  0  0  0  0  0  0  0  0  0  0
    1.2234   -0.0236   -2.2737 H   0  0  0  0  0  0  0  0  0  0  0  0
   -0.3128   -0.2963   -3.1018 H   0  0  0  0  0  0  0  0  0  0  0  0
   -2.6049   -1.8594    2.2907 H   0  0  0  0  0  0  0  0  0  0  0  0
   -2.2992   -0.2455    1.5886 H   0  0  0  0  0  0  0  0  0  0  0  0
   -1.0321   -1.0793    2.4884 H   0  0  0  0  0  0  0  0  0  0  0  0
  1  2  1  0  0  0  0
  2  3  1  0  0  0  0
  3  4  1  0  0  0  0
  4  5  2  0  0  0  0
  4  6  1  0  0  0  0
  6  7  1  0  0  0  0
  7  8  1  0  0  0  0
  6  9  1  0  0  0  0
  9 10  1  0  0  0  0
  9 11  2  0  0  0  0
  1 12  1  0  0  0  0
  1 13  1  0  0  0  0
  1 14  1  0  0  0  0
  2 15  1  0  0  0  0
  2 16  1  0  0  0  0
  6 17  1  0  0  0  0
  7 18  1  0  0  0  0
  7 19  1  0  0  0  0
  8 20  1  0  0  0  0
  8 21  1  0  0  0  0
  8 22  1  0  0  0  0
 10 23  1  0  0  0  0
 10 24  1  0  0  0  0
 10 25  1  0  0  0  0
M  END
