 xtb: 6.7.1 (edcfbbe)
          07072617533D

 26 26  0     0  0            999 V2000
   -3.7292    1.2683    0.6131 C   0  0  0  0  0  0  0  0  0  0  0  0
   -2.9756    0.0407    0.2486 C   0  0  0  0  0  0  0  0  0  0  0  0
   -1.6819   -0.1579    0.4809 C   0  0  0  0  0  0  0  0  0  0  0  0
   -1.0370   -1.4378    0.1251 C   0  0  0  0  0  0  0  0  0  0  0  0
   -1.6729   -2.4621   -0.0549 O   0  0  0  0  0  0  0  0  0  0  0  0
    0.3356   -1.4362    0.0774 N   0  0  0  0  0  0  0  0  0  0  0  0
    1.0103   -2.7175    0.0007 C   0  0  0  0  0  0  0  0  0  0  0  0
    1.1236   -0.2775    0.0181 C   0  0  0  0  0  0  0  0  0  0  0  0
    0.7551    0.7920   -0.7980 C   0  0  0  0  0  0  0  0  0  0  0  0
    1.5464    1.9229   -0.8661 C   0  0  0  0  0  0  0  0  0  0  0  0
    2.7237    1.9990   -0.1404 C   0  0  0  0  0  0  0  0  0  0  0  0
    3.1068    0.9308    0.6526 C   0  0  0  0  0  0  0  0  0  0  0  0
    2.3175   -0.2015    0.7324 C   0  0  0  0  0  0  0  0  0  0  0  0
   -3.0856    1.9962    1.1015 H   0  0  0  0  0  0  0  0  0  0  0  0
   -4.5501    1.0129    1.2826 H   0  0  0  0  0  0  0  0  0  0  0  0
   -4.1651    1.7189   -0.2782 H   0  0  0  0  0  0  0  0  0  0  0  0
   -3.5348   -0.7411   -0.2497 H   0  0  0  0  0  0  0  0  0  0  0  0
   -1.0782    0.5870    0.9793 H   0  0  0  0  0  0  0  0  0  0  0  0
    0.2917   -3.4453   -0.3750 H   0  0  0  0  0  0  0  0  0  0  0  0
    1.8607   -2.6523   -0.6769 H   0  0  0  0  0  0  0  0  0  0  0  0
    1.3525   -3.0444    0.9857 H   0  0  0  0  0  0  0  0  0  0  0  0
   -0.1499    0.7247   -1.3833 H   0  0  0  0  0  0  0  0  0  0  0  0
    1.2469    2.7443   -1.5000 H   0  0  0  0  0  0  0  0  0  0  0  0
    3.3420    2.8818   -0.1990 H   0  0  0  0  0  0  0  0  0  0  0  0
    4.0264    0.9788    1.2169 H   0  0  0  0  0  0  0  0  0  0  0  0
    2.6212   -1.0247    1.3604 H   0  0  0  0  0  0  0  0  0  0  0  0
  1  2  1  0  0  0  0
  2  3  2  0  0  0  0
  3  4  1  0  0  0  0
  4  5  2  0  0  0  0
  4  6  1  0  0  0  0
  6  7  1  0  0  0  0
  6  8  1  0  0  0  0
  8  9  4  0  0  0  0
  9 10  4  0  0  0  0
 10 11  4  0  0  0  0
 11 12  4  0  0  0  0
  8 13  4  0  0  0  0
 12 13  4  0  0  0  0
  1 14  1  0  0  0  0
  1 15  1  0  0  0  0
  1 16  1  0  0  0  0
  2 17  1  0  0  0  0
  3 18  1  0  0  0  0
  7 19  1  0  0  0  0
  7 20  1  0  0  0  0
  7 21  1  0  0  0  0
  9 22  1  0  0  0  0
 10 23  1  0  0  0  0
 11 24  1  0  0  0  0
 12 25  1  0  0  0  0
 13 26  1  0  0  0  0
M  END
