 xtb: 6.7.1 (edcfbbe)
          07072615383D

 23 23  0     0  0            999 V2000
   -3.8940   -0.6549    0.0253 C   0  0  0  0  0  0  0  0  0  0  0  0
   -2.8713    0.4656    0.0000 C   0  0  0  0  0  0  0  0  0  0  0  0
   -1.5737   -0.1139   -0.1051 O   0  0  0  0  0  0  0  0  0  0  0  0
   -0.5442    0.7451   -0.1440 C   0  0  0  0  0  0  0  0  0  0  0  0
   -0.7203    1.9510   -0.0915 O   0  0  0  0  0  0  0  0  0  0  0  0
    0.7574    0.0797   -0.2413 C   0  0  0  0  0  0  0  0  0  0  0  0
    0.8336   -1.3167   -0.2538 C   0  0  0  0  0  0  0  0  0  0  0  0
    2.0441   -1.9664   -0.3192 C   0  0  0  0  0  0  0  0  0  0  0  0
    3.2192   -1.2210   -0.3707 C   0  0  0  0  0  0  0  0  0  0  0  0
    3.1737    0.1518   -0.3620 C   0  0  0  0  0  0  0  0  0  0  0  0
    1.9504    0.8393   -0.3024 C   0  0  0  0  0  0  0  0  0  0  0  0
    1.9270    2.1893   -0.3343 N   0  0  0  0  0  0  0  0  0  0  0  0
   -3.7106   -1.3096    0.8735 H   0  0  0  0  0  0  0  0  0  0  0  0
   -4.8928   -0.2361    0.1082 H   0  0  0  0  0  0  0  0  0  0  0  0
   -3.8284   -1.2419   -0.8872 H   0  0  0  0  0  0  0  0  0  0  0  0
   -2.9177    1.0695    0.9144 H   0  0  0  0  0  0  0  0  0  0  0  0
   -3.0325    1.1346   -0.8539 H   0  0  0  0  0  0  0  0  0  0  0  0
   -0.0854   -1.8794   -0.2077 H   0  0  0  0  0  0  0  0  0  0  0  0
    2.0851   -3.0445   -0.3278 H   0  0  0  0  0  0  0  0  0  0  0  0
    4.1740   -1.7245   -0.4173 H   0  0  0  0  0  0  0  0  0  0  0  0
    4.0866    0.7295   -0.4027 H   0  0  0  0  0  0  0  0  0  0  0  0
    2.7841    2.7062   -0.2631 H   0  0  0  0  0  0  0  0  0  0  0  0
    1.0357    2.6473   -0.2083 H   0  0  0  0  0  0  0  0  0  0  0  0
  1  2  1  0  0  0  0
  2  3  1  0  0  0  0
  3  4  1  0  0  0  0
  4  5  2  0  0  0  0
  4  6  1  0  0  0  0
  6  7  4  0  0  0  0
  7  8  4  0  0  0  0
  8  9  4  0  0  0  0
  9 10  2  0  0  0  0
  6 11  4  0  0  0  0
 10 11  4  0  0  0  0
 11 12  4  0  0  0  0
  1 13  1  0  0  0  0
  1 14  1  0  0  0  0
  1 15  1  0  0  0  0
  2 16  1  0  0  0  0
  2 17  1  0  0  0  0
  7 18  1  0  0  0  0
  8 19  1  0  0  0  0
  9 20  1  0  0  0  0
 10 21  1  0  0  0  0
 12 22  1  0  0  0  0
 12 23  1  0  0  0  0
M  END
