 xtb: 6.7.1 (edcfbbe)
          07082622083D

 18 18  0     0  0            999 V2000
   -1.4505    1.5846    0.0389 C   0  0  0  0  0  0  0  0  0  0  0  0
   -0.2175    0.7379   -0.0249 C   0  0  0  0  0  0  0  0  0  0  0  0
    1.0296    1.3279   -0.1781 C   0  0  0  0  0  0  0  0  0  0  0  0
    2.1858    0.5710   -0.2401 C   0  0  0  0  0  0  0  0  0  0  0  0
    2.0801   -0.8033   -0.1459 C   0  0  0  0  0  0  0  0  0  0  0  0
    3.6570   -1.8772   -0.2280 Br  0  0  0  0  0  0  0  0  0  0  0  0
    0.8509   -1.4176    0.0071 C   0  0  0  0  0  0  0  0  0  0  0  0
   -0.3068   -0.6555    0.0690 C   0  0  0  0  0  0  0  0  0  0  0  0
   -1.6339   -1.3277    0.2348 C   0  0  0  0  0  0  0  0  0  0  0  0
   -1.1996    2.6383   -0.0493 H   0  0  0  0  0  0  0  0  0  0  0  0
   -2.1371    1.3227   -0.7655 H   0  0  0  0  0  0  0  0  0  0  0  0
   -1.9731    1.4300    0.9823 H   0  0  0  0  0  0  0  0  0  0  0  0
    1.1030    2.4033   -0.2509 H   0  0  0  0  0  0  0  0  0  0  0  0
    3.1493    1.0415   -0.3594 H   0  0  0  0  0  0  0  0  0  0  0  0
    0.7936   -2.4936    0.0785 H   0  0  0  0  0  0  0  0  0  0  0  0
   -1.5170   -2.4066    0.2900 H   0  0  0  0  0  0  0  0  0  0  0  0
   -2.1249   -0.9843    1.1448 H   0  0  0  0  0  0  0  0  0  0  0  0
   -2.2889   -1.0915   -0.6033 H   0  0  0  0  0  0  0  0  0  0  0  0
  1  2  1  0  0  0  0
  2  3  4  0  0  0  0
  3  4  4  0  0  0  0
  4  5  4  0  0  0  0
  5  6  1  0  0  0  0
  5  7  4  0  0  0  0
  2  8  4  0  0  0  0
  7  8  4  0  0  0  0
  8  9  1  0  0  0  0
  1 10  1  0  0  0  0
  1 11  1  0  0  0  0
  1 12  1  0  0  0  0
  3 13  1  0  0  0  0
  4 14  1  0  0  0  0
  7 15  1  0  0  0  0
  9 16  1  0  0  0  0
  9 17  1  0  0  0  0
  9 18  1  0  0  0  0
M  END
