 xtb: 6.7.1 (edcfbbe)
          07082622203D

 23 23  0     0  0            999 V2000
   -3.5832   -0.3659   -0.4314 C   0  0  0  0  0  0  0  0  0  0  0  0
   -2.2465   -0.2151    0.2833 C   0  0  0  0  0  0  0  0  0  0  0  0
   -1.1512    0.2457   -0.6728 C   0  0  0  0  0  0  0  0  0  0  0  0
    0.2004    0.3669    0.0211 C   0  0  0  0  0  0  0  0  0  0  0  0
    0.6170   -0.9106    0.4239 O   0  0  0  0  0  0  0  0  0  0  0  0
    1.8746   -0.8781    1.0650 C   0  0  0  0  0  0  0  0  0  0  0  0
    2.9282   -0.2608    0.1443 C   0  0  0  0  0  0  0  0  0  0  0  0
    2.3932    1.0963   -0.3149 C   0  0  0  0  0  0  0  0  0  0  0  0
    1.1040    0.9579   -0.8762 O   0  0  0  0  0  0  0  0  0  0  0  0
   -3.5068   -1.0995   -1.2302 H   0  0  0  0  0  0  0  0  0  0  0  0
   -4.3523   -0.6934    0.2640 H   0  0  0  0  0  0  0  0  0  0  0  0
   -3.8928    0.5821   -0.8658 H   0  0  0  0  0  0  0  0  0  0  0  0
   -2.3461    0.5093    1.0952 H   0  0  0  0  0  0  0  0  0  0  0  0
   -1.9490   -1.1693    0.7200 H   0  0  0  0  0  0  0  0  0  0  0  0
   -1.0369   -0.4706   -1.4864 H   0  0  0  0  0  0  0  0  0  0  0  0
   -1.3933    1.2190   -1.1007 H   0  0  0  0  0  0  0  0  0  0  0  0
    0.1224    1.0158    0.9251 H   0  0  0  0  0  0  0  0  0  0  0  0
    2.1108   -1.9136    1.3161 H   0  0  0  0  0  0  0  0  0  0  0  0
    1.8007   -0.2877    1.9937 H   0  0  0  0  0  0  0  0  0  0  0  0
    3.0642   -0.9048   -0.7254 H   0  0  0  0  0  0  0  0  0  0  0  0
    3.8779   -0.1458    0.6649 H   0  0  0  0  0  0  0  0  0  0  0  0
    2.3494    1.7877    0.5431 H   0  0  0  0  0  0  0  0  0  0  0  0
    3.0151    1.5345   -1.0974 H   0  0  0  0  0  0  0  0  0  0  0  0
  1  2  1  0  0  0  0
  2  3  1  0  0  0  0
  3  4  1  0  0  0  0
  4  5  1  0  0  0  0
  5  6  1  0  0  0  0
  6  7  1  0  0  0  0
  7  8  1  0  0  0  0
  4  9  1  0  0  0  0
  8  9  1  0  0  0  0
  1 10  1  0  0  0  0
  1 11  1  0  0  0  0
  1 12  1  0  0  0  0
  2 13  1  0  0  0  0
  2 14  1  0  0  0  0
  3 15  1  0  0  0  0
  3 16  1  0  0  0  0
  4 17  1  0  0  0  0
  6 18  1  0  0  0  0
  6 19  1  0  0  0  0
  7 20  1  0  0  0  0
  7 21  1  0  0  0  0
  8 22  1  0  0  0  0
  8 23  1  0  0  0  0
M  END
