 xtb: 6.7.1 (edcfbbe)
          07082611303D

 34 33  0     0  0            999 V2000
   -5.2863    1.1183    0.6752 C   0  0  0  0  0  0  0  0  0  0  0  0
   -3.8985    0.5050    0.8178 C   0  0  0  0  0  0  0  0  0  0  0  0
   -3.6431   -0.5610   -0.2457 C   0  0  0  0  0  0  0  0  0  0  0  0
   -2.3094   -1.2880   -0.0716 C   0  0  0  0  0  0  0  0  0  0  0  0
   -1.0940   -0.4021   -0.3369 C   0  0  0  0  0  0  0  0  0  0  0  0
    0.2118   -1.1865   -0.2321 C   0  0  0  0  0  0  0  0  0  0  0  0
    1.4319   -0.3068   -0.4915 C   0  0  0  0  0  0  0  0  0  0  0  0
    2.7350   -1.0927   -0.3666 C   0  0  0  0  0  0  0  0  0  0  0  0
    3.9564   -0.2158   -0.6357 C   0  0  0  0  0  0  0  0  0  0  0  0
    4.2354    0.7670    0.4837 C   0  0  0  0  0  0  0  0  0  0  0  0
    5.1194    1.9235    0.0823 C   0  0  0  0  0  0  0  0  0  0  0  0
    3.8039    0.6380    1.5999 O   0  0  0  0  0  0  0  0  0  0  0  0
   -6.0547    0.3553    0.7818 H   0  0  0  0  0  0  0  0  0  0  0  0
   -5.3996    1.5818   -0.3027 H   0  0  0  0  0  0  0  0  0  0  0  0
   -5.4501    1.8783    1.4359 H   0  0  0  0  0  0  0  0  0  0  0  0
   -3.1502    1.2949    0.7365 H   0  0  0  0  0  0  0  0  0  0  0  0
   -3.8017    0.0543    1.8082 H   0  0  0  0  0  0  0  0  0  0  0  0
   -3.6760   -0.0987   -1.2354 H   0  0  0  0  0  0  0  0  0  0  0  0
   -4.4498   -1.2973   -0.2001 H   0  0  0  0  0  0  0  0  0  0  0  0
   -2.2480   -1.6890    0.9428 H   0  0  0  0  0  0  0  0  0  0  0  0
   -2.2807   -2.1352   -0.7619 H   0  0  0  0  0  0  0  0  0  0  0  0
   -1.1765    0.0323   -1.3365 H   0  0  0  0  0  0  0  0  0  0  0  0
   -1.0703    0.4182    0.3820 H   0  0  0  0  0  0  0  0  0  0  0  0
    0.1993   -2.0095   -0.9515 H   0  0  0  0  0  0  0  0  0  0  0  0
    0.2904   -1.6217    0.7664 H   0  0  0  0  0  0  0  0  0  0  0  0
    1.4420    0.5156    0.2264 H   0  0  0  0  0  0  0  0  0  0  0  0
    1.3601    0.1235   -1.4944 H   0  0  0  0  0  0  0  0  0  0  0  0
    2.7254   -1.9278   -1.0705 H   0  0  0  0  0  0  0  0  0  0  0  0
    2.8130   -1.4986    0.6434 H   0  0  0  0  0  0  0  0  0  0  0  0
    4.8489   -0.8431   -0.7230 H   0  0  0  0  0  0  0  0  0  0  0  0
    3.8446    0.3267   -1.5764 H   0  0  0  0  0  0  0  0  0  0  0  0
    4.5313    2.6212   -0.5119 H   0  0  0  0  0  0  0  0  0  0  0  0
    5.9523    1.5791   -0.5249 H   0  0  0  0  0  0  0  0  0  0  0  0
    5.4877    2.4406    0.9644 H   0  0  0  0  0  0  0  0  0  0  0  0
  1  2  1  0  0  0  0
  2  3  1  0  0  0  0
  3  4  1  0  0  0  0
  4  5  1  0  0  0  0
  5  6  1  0  0  0  0
  6  7  1  0  0  0  0
  7  8  1  0  0  0  0
  8  9  1  0  0  0  0
  9 10  1  0  0  0  0
 10 11  1  0  0  0  0
 10 12  2  0  0  0  0
  1 13  1  0  0  0  0
  1 14  1  0  0  0  0
  1 15  1  0  0  0  0
  2 16  1  0  0  0  0
  2 17  1  0  0  0  0
  3 18  1  0  0  0  0
  3 19  1  0  0  0  0
  4 20  1  0  0  0  0
  4 21  1  0  0  0  0
  5 22  1  0  0  0  0
  5 23  1  0  0  0  0
  6 24  1  0  0  0  0
  6 25  1  0  0  0  0
  7 26  1  0  0  0  0
  7 27  1  0  0  0  0
  8 28  1  0  0  0  0
  8 29  1  0  0  0  0
  9 30  1  0  0  0  0
  9 31  1  0  0  0  0
 11 32  1  0  0  0  0
 11 33  1  0  0  0  0
 11 34  1  0  0  0  0
M  END
