 xtb: 6.7.1 (edcfbbe)
          07072616303D

 29 30  0     0  0            999 V2000
   -0.2916   -1.2445    2.8774 O   0  0  0  0  0  0  0  0  0  0  0  0
    0.3114   -1.0480    1.8559 C   0  0  0  0  0  0  0  0  0  0  0  0
    1.8431   -1.0849    1.7529 C   0  0  0  0  0  0  0  0  0  0  0  0
    2.3290   -0.3103    0.6525 N   0  0  0  0  0  0  0  0  0  0  0  0
    2.5852   -0.7738   -0.5995 C   0  0  0  0  0  0  0  0  0  0  0  0
    2.8995    0.2872   -1.4021 C   0  0  0  0  0  0  0  0  0  0  0  0
    2.8156    1.4465   -0.6058 C   0  0  0  0  0  0  0  0  0  0  0  0
    2.4538    1.0445    0.6495 C   0  0  0  0  0  0  0  0  0  0  0  0
   -0.2246   -0.7905    0.6763 O   0  0  0  0  0  0  0  0  0  0  0  0
   -1.6497   -0.6506    0.5812 C   0  0  0  0  0  0  0  0  0  0  0  0
   -2.0344    0.8252    0.7330 C   0  0  0  0  0  0  0  0  0  0  0  0
   -1.9458    1.3630   -0.6915 C   0  0  0  0  0  0  0  0  0  0  0  0
   -2.5778    0.2394   -1.5090 C   0  0  0  0  0  0  0  0  0  0  0  0
   -2.0562   -1.0431   -0.8482 C   0  0  0  0  0  0  0  0  0  0  0  0
    2.1422   -2.1311    1.6320 H   0  0  0  0  0  0  0  0  0  0  0  0
    2.2514   -0.7177    2.6993 H   0  0  0  0  0  0  0  0  0  0  0  0
    2.5331   -1.8214   -0.8233 H   0  0  0  0  0  0  0  0  0  0  0  0
    3.1641    0.2440   -2.4403 H   0  0  0  0  0  0  0  0  0  0  0  0
    3.0039    2.4537   -0.9219 H   0  0  0  0  0  0  0  0  0  0  0  0
    2.2865    1.6169    1.5412 H   0  0  0  0  0  0  0  0  0  0  0  0
   -2.1007   -1.2778    1.3564 H   0  0  0  0  0  0  0  0  0  0  0  0
   -1.3735    1.3377    1.4303 H   0  0  0  0  0  0  0  0  0  0  0  0
   -3.0570    0.8952    1.1044 H   0  0  0  0  0  0  0  0  0  0  0  0
   -2.4600    2.3143   -0.8140 H   0  0  0  0  0  0  0  0  0  0  0  0
   -0.8991    1.4870   -0.9722 H   0  0  0  0  0  0  0  0  0  0  0  0
   -3.6644    0.2897   -1.4228 H   0  0  0  0  0  0  0  0  0  0  0  0
   -2.3154    0.2908   -2.5637 H   0  0  0  0  0  0  0  0  0  0  0  0
   -1.1669   -1.4053   -1.3635 H   0  0  0  0  0  0  0  0  0  0  0  0
   -2.8016   -1.8361   -0.8487 H   0  0  0  0  0  0  0  0  0  0  0  0
  1  2  2  0  0  0  0
  2  3  1  0  0  0  0
  3  4  1  0  0  0  0
  4  5  4  0  0  0  0
  5  6  2  0  0  0  0
  6  7  4  0  0  0  0
  4  8  4  0  0  0  0
  7  8  2  0  0  0  0
  2  9  1  0  0  0  0
  9 10  1  0  0  0  0
 10 11  1  0  0  0  0
 11 12  1  0  0  0  0
 12 13  1  0  0  0  0
 10 14  1  0  0  0  0
 13 14  1  0  0  0  0
  3 15  1  0  0  0  0
  3 16  1  0  0  0  0
  5 17  1  0  0  0  0
  6 18  1  0  0  0  0
  7 19  1  0  0  0  0
  8 20  1  0  0  0  0
 10 21  1  0  0  0  0
 11 22  1  0  0  0  0
 11 23  1  0  0  0  0
 12 24  1  0  0  0  0
 12 25  1  0  0  0  0
 13 26  1  0  0  0  0
 13 27  1  0  0  0  0
 14 28  1  0  0  0  0
 14 29  1  0  0  0  0
M  END
