 xtb: 6.7.1 (edcfbbe)
          07082606033D

 25 25  0     0  0            999 V2000
    4.7616    0.6243    0.4066 O   0  0  0  0  0  0  0  0  0  0  0  0
    3.8189    1.1882   -0.4821 C   0  0  0  0  0  0  0  0  0  0  0  0
    2.4720    0.6803   -0.2678 C   0  0  0  0  0  0  0  0  0  0  0  0
    1.3918    0.2000   -0.0636 C   0  0  0  0  0  0  0  0  0  0  0  0
    0.0850   -0.3880    0.2384 C   0  0  0  0  0  0  0  0  0  0  0  0
    0.2384   -1.4250    1.1968 O   0  0  0  0  0  0  0  0  0  0  0  0
   -0.5015   -1.0197   -1.0332 C   0  0  0  0  0  0  0  0  0  0  0  0
   -1.9130   -1.5403   -0.7808 C   0  0  0  0  0  0  0  0  0  0  0  0
   -2.8213   -0.4201   -0.2846 C   0  0  0  0  0  0  0  0  0  0  0  0
   -2.2541    0.1760    0.9995 C   0  0  0  0  0  0  0  0  0  0  0  0
   -0.8502    0.7219    0.7564 C   0  0  0  0  0  0  0  0  0  0  0  0
    4.6950   -0.3358    0.3612 H   0  0  0  0  0  0  0  0  0  0  0  0
    3.8432    2.2672   -0.2984 H   0  0  0  0  0  0  0  0  0  0  0  0
    4.1100    1.0014   -1.5292 H   0  0  0  0  0  0  0  0  0  0  0  0
    0.6085   -1.0458    2.0011 H   0  0  0  0  0  0  0  0  0  0  0  0
   -0.5099   -0.2657   -1.8229 H   0  0  0  0  0  0  0  0  0  0  0  0
    0.1496   -1.8387   -1.3424 H   0  0  0  0  0  0  0  0  0  0  0  0
   -2.3106   -1.9700   -1.7024 H   0  0  0  0  0  0  0  0  0  0  0  0
   -1.8651   -2.3285   -0.0280 H   0  0  0  0  0  0  0  0  0  0  0  0
   -2.8952    0.3588   -1.0481 H   0  0  0  0  0  0  0  0  0  0  0  0
   -3.8251   -0.8086   -0.1019 H   0  0  0  0  0  0  0  0  0  0  0  0
   -2.8994    0.9772    1.3655 H   0  0  0  0  0  0  0  0  0  0  0  0
   -2.2087   -0.6017    1.7649 H   0  0  0  0  0  0  0  0  0  0  0  0
   -0.8815    1.5222    0.0143 H   0  0  0  0  0  0  0  0  0  0  0  0
   -0.4385    1.1376    1.6808 H   0  0  0  0  0  0  0  0  0  0  0  0
  1  2  1  0  0  0  0
  2  3  1  0  0  0  0
  3  4  3  0  0  0  0
  4  5  1  0  0  0  0
  5  6  1  0  0  0  0
  5  7  1  0  0  0  0
  7  8  1  0  0  0  0
  8  9  1  0  0  0  0
  9 10  1  0  0  0  0
  5 11  1  0  0  0  0
 10 11  1  0  0  0  0
  1 12  1  0  0  0  0
  2 13  1  0  0  0  0
  2 14  1  0  0  0  0
  6 15  1  0  0  0  0
  7 16  1  0  0  0  0
  7 17  1  0  0  0  0
  8 18  1  0  0  0  0
  8 19  1  0  0  0  0
  9 20  1  0  0  0  0
  9 21  1  0  0  0  0
 10 22  1  0  0  0  0
 10 23  1  0  0  0  0
 11 24  1  0  0  0  0
 11 25  1  0  0  0  0
M  END
