 xtb: 6.7.1 (edcfbbe)
          07092621593D

 32 31  0     0  0            999 V2000
   -5.1298    0.2422    0.7201 C   0  0  0  0  0  0  0  0  0  0  0  0
   -4.6053   -0.1229   -0.6638 C   0  0  0  0  0  0  0  0  0  0  0  0
   -3.2147    0.4442   -0.9515 C   0  0  0  0  0  0  0  0  0  0  0  0
   -2.1171   -0.1743   -0.0882 C   0  0  0  0  0  0  0  0  0  0  0  0
   -0.7314    0.3264   -0.4897 C   0  0  0  0  0  0  0  0  0  0  0  0
    0.3683   -0.2728    0.3840 C   0  0  0  0  0  0  0  0  0  0  0  0
    1.7527    0.2097   -0.0389 C   0  0  0  0  0  0  0  0  0  0  0  0
    2.8448   -0.3916    0.8417 C   0  0  0  0  0  0  0  0  0  0  0  0
    4.1356    0.1072    0.4925 O   0  0  0  0  0  0  0  0  0  0  0  0
    4.7656   -0.4879   -0.5272 C   0  0  0  0  0  0  0  0  0  0  0  0
    6.1007    0.1625   -0.7804 C   0  0  0  0  0  0  0  0  0  0  0  0
    4.3196   -1.4187   -1.1432 O   0  0  0  0  0  0  0  0  0  0  0  0
   -4.5202   -0.2063    1.5002 H   0  0  0  0  0  0  0  0  0  0  0  0
   -5.1251    1.3217    0.8558 H   0  0  0  0  0  0  0  0  0  0  0  0
   -6.1504   -0.1137    0.8424 H   0  0  0  0  0  0  0  0  0  0  0  0
   -4.5782   -1.2102   -0.7658 H   0  0  0  0  0  0  0  0  0  0  0  0
   -5.2991    0.2615   -1.4153 H   0  0  0  0  0  0  0  0  0  0  0  0
   -2.9754    0.2641   -2.0025 H   0  0  0  0  0  0  0  0  0  0  0  0
   -3.2286    1.5259   -0.7979 H   0  0  0  0  0  0  0  0  0  0  0  0
   -2.1497   -1.2617   -0.1892 H   0  0  0  0  0  0  0  0  0  0  0  0
   -2.2912    0.0684    0.9612 H   0  0  0  0  0  0  0  0  0  0  0  0
   -0.5419    0.0677   -1.5338 H   0  0  0  0  0  0  0  0  0  0  0  0
   -0.7040    1.4156   -0.4092 H   0  0  0  0  0  0  0  0  0  0  0  0
    0.3311   -1.3621    0.3150 H   0  0  0  0  0  0  0  0  0  0  0  0
    0.1918   -0.0000    1.4273 H   0  0  0  0  0  0  0  0  0  0  0  0
    1.8044    1.2988    0.0265 H   0  0  0  0  0  0  0  0  0  0  0  0
    1.9419   -0.0785   -1.0747 H   0  0  0  0  0  0  0  0  0  0  0  0
    2.8462   -1.4825    0.7450 H   0  0  0  0  0  0  0  0  0  0  0  0
    2.7021   -0.1119    1.8878 H   0  0  0  0  0  0  0  0  0  0  0  0
    6.6168   -0.3627   -1.5777 H   0  0  0  0  0  0  0  0  0  0  0  0
    6.6941    0.1399    0.1299 H   0  0  0  0  0  0  0  0  0  0  0  0
    5.9467    1.2020   -1.0593 H   0  0  0  0  0  0  0  0  0  0  0  0
  1  2  1  0  0  0  0
  2  3  1  0  0  0  0
  3  4  1  0  0  0  0
  4  5  1  0  0  0  0
  5  6  1  0  0  0  0
  6  7  1  0  0  0  0
  7  8  1  0  0  0  0
  8  9  1  0  0  0  0
  9 10  1  0  0  0  0
 10 11  1  0  0  0  0
 10 12  2  0  0  0  0
  1 13  1  0  0  0  0
  1 14  1  0  0  0  0
  1 15  1  0  0  0  0
  2 16  1  0  0  0  0
  2 17  1  0  0  0  0
  3 18  1  0  0  0  0
  3 19  1  0  0  0  0
  4 20  1  0  0  0  0
  4 21  1  0  0  0  0
  5 22  1  0  0  0  0
  5 23  1  0  0  0  0
  6 24  1  0  0  0  0
  6 25  1  0  0  0  0
  7 26  1  0  0  0  0
  7 27  1  0  0  0  0
  8 28  1  0  0  0  0
  8 29  1  0  0  0  0
 11 30  1  0  0  0  0
 11 31  1  0  0  0  0
 11 32  1  0  0  0  0
M  END
