 xtb: 6.7.1 (edcfbbe)
          07082615553D

 27 26  0     0  0            999 V2000
   -2.3579   -0.9426    1.6743 C   0  0  0  0  0  0  0  0  0  0  0  0
   -1.9164   -0.2259    0.6532 C   0  0  0  0  0  0  0  0  0  0  0  0
   -2.5645    1.0723    0.2566 C   0  0  0  0  0  0  0  0  0  0  0  0
   -3.5688    0.8595   -0.8777 C   0  0  0  0  0  0  0  0  0  0  0  0
   -0.7396   -0.6643   -0.1730 C   0  0  0  0  0  0  0  0  0  0  0  0
    0.5543   -0.0031    0.3163 C   0  0  0  0  0  0  0  0  0  0  0  0
    1.7634   -0.4446   -0.5037 C   0  0  0  0  0  0  0  0  0  0  0  0
    3.0530    0.2211   -0.0293 C   0  0  0  0  0  0  0  0  0  0  0  0
    4.2599   -0.2400   -0.8372 C   0  0  0  0  0  0  0  0  0  0  0  0
   -1.9110   -1.8848    1.9443 H   0  0  0  0  0  0  0  0  0  0  0  0
   -3.1854   -0.6181    2.2829 H   0  0  0  0  0  0  0  0  0  0  0  0
   -1.8014    1.7817   -0.0704 H   0  0  0  0  0  0  0  0  0  0  0  0
   -3.0846    1.5024    1.1145 H   0  0  0  0  0  0  0  0  0  0  0  0
   -4.3467    0.1667   -0.5651 H   0  0  0  0  0  0  0  0  0  0  0  0
   -4.0340    1.8030   -1.1547 H   0  0  0  0  0  0  0  0  0  0  0  0
   -3.0781    0.4474   -1.7566 H   0  0  0  0  0  0  0  0  0  0  0  0
   -0.6262   -1.7484   -0.1108 H   0  0  0  0  0  0  0  0  0  0  0  0
   -0.8996   -0.3983   -1.2200 H   0  0  0  0  0  0  0  0  0  0  0  0
    0.7100   -0.2622    1.3660 H   0  0  0  0  0  0  0  0  0  0  0  0
    0.4552    1.0831    0.2571 H   0  0  0  0  0  0  0  0  0  0  0  0
    1.8714   -1.5296   -0.4323 H   0  0  0  0  0  0  0  0  0  0  0  0
    1.5976   -0.1985   -1.5556 H   0  0  0  0  0  0  0  0  0  0  0  0
    3.2117   -0.0127    1.0260 H   0  0  0  0  0  0  0  0  0  0  0  0
    2.9517    1.3056   -0.1152 H   0  0  0  0  0  0  0  0  0  0  0  0
    4.1280   -0.0015   -1.8905 H   0  0  0  0  0  0  0  0  0  0  0  0
    5.1662    0.2479   -0.4858 H   0  0  0  0  0  0  0  0  0  0  0  0
    4.3916   -1.3160   -0.7450 H   0  0  0  0  0  0  0  0  0  0  0  0
  1  2  2  0  0  0  0
  2  3  1  0  0  0  0
  3  4  1  0  0  0  0
  2  5  1  0  0  0  0
  5  6  1  0  0  0  0
  6  7  1  0  0  0  0
  7  8  1  0  0  0  0
  8  9  1  0  0  0  0
  1 10  1  0  0  0  0
  1 11  1  0  0  0  0
  3 12  1  0  0  0  0
  3 13  1  0  0  0  0
  4 14  1  0  0  0  0
  4 15  1  0  0  0  0
  4 16  1  0  0  0  0
  5 17  1  0  0  0  0
  5 18  1  0  0  0  0
  6 19  1  0  0  0  0
  6 20  1  0  0  0  0
  7 21  1  0  0  0  0
  7 22  1  0  0  0  0
  8 23  1  0  0  0  0
  8 24  1  0  0  0  0
  9 25  1  0  0  0  0
  9 26  1  0  0  0  0
  9 27  1  0  0  0  0
M  END
