 xtb: 6.7.1 (edcfbbe)
          07092607553D

 27 26  0     0  0            999 V2000
   -3.7833    1.3997    0.8921 C   0  0  0  0  0  0  0  0  0  0  0  0
   -2.5524    0.5059    0.8171 C   0  0  0  0  0  0  0  0  0  0  0  0
   -1.9490    0.4421   -0.5888 C   0  0  0  0  0  0  0  0  0  0  0  0
   -2.8522   -0.2401   -1.6051 C   0  0  0  0  0  0  0  0  0  0  0  0
   -0.7285   -0.3221   -0.5405 O   0  0  0  0  0  0  0  0  0  0  0  0
    0.3929    0.3171   -0.2147 C   0  0  0  0  0  0  0  0  0  0  0  0
    0.4589    1.4926    0.0355 O   0  0  0  0  0  0  0  0  0  0  0  0
    1.5652   -0.6377   -0.2130 C   0  0  0  0  0  0  0  0  0  0  0  0
    2.8612    0.0634    0.1724 C   0  0  0  0  0  0  0  0  0  0  0  0
    3.9024   -0.8862    0.1570 O   0  0  0  0  0  0  0  0  0  0  0  0
    5.1470   -0.3375    0.5020 C   0  0  0  0  0  0  0  0  0  0  0  0
   -4.1098    1.4922    1.9248 H   0  0  0  0  0  0  0  0  0  0  0  0
   -4.6049    0.9876    0.3123 H   0  0  0  0  0  0  0  0  0  0  0  0
   -3.5540    2.3934    0.5149 H   0  0  0  0  0  0  0  0  0  0  0  0
   -2.8027   -0.5074    1.1386 H   0  0  0  0  0  0  0  0  0  0  0  0
   -1.7857    0.8956    1.4904 H   0  0  0  0  0  0  0  0  0  0  0  0
   -1.6950    1.4580   -0.9187 H   0  0  0  0  0  0  0  0  0  0  0  0
   -3.1332   -1.2278   -1.2493 H   0  0  0  0  0  0  0  0  0  0  0  0
   -2.3279   -0.3481   -2.5510 H   0  0  0  0  0  0  0  0  0  0  0  0
   -3.7468    0.3526   -1.7670 H   0  0  0  0  0  0  0  0  0  0  0  0
    1.3590   -1.4503    0.4853 H   0  0  0  0  0  0  0  0  0  0  0  0
    1.6625   -1.0808   -1.2053 H   0  0  0  0  0  0  0  0  0  0  0  0
    2.7630    0.5102    1.1733 H   0  0  0  0  0  0  0  0  0  0  0  0
    3.0726    0.8781   -0.5364 H   0  0  0  0  0  0  0  0  0  0  0  0
    5.4422    0.4531   -0.1992 H   0  0  0  0  0  0  0  0  0  0  0  0
    5.1299    0.0831    1.5153 H   0  0  0  0  0  0  0  0  0  0  0  0
    5.8686   -1.1505    0.4580 H   0  0  0  0  0  0  0  0  0  0  0  0
  1  2  1  0  0  0  0
  2  3  1  0  0  0  0
  3  4  1  0  0  0  0
  3  5  1  0  0  0  0
  5  6  1  0  0  0  0
  6  7  2  0  0  0  0
  6  8  1  0  0  0  0
  8  9  1  0  0  0  0
  9 10  1  0  0  0  0
 10 11  1  0  0  0  0
  1 12  1  0  0  0  0
  1 13  1  0  0  0  0
  1 14  1  0  0  0  0
  2 15  1  0  0  0  0
  2 16  1  0  0  0  0
  3 17  1  0  0  0  0
  4 18  1  0  0  0  0
  4 19  1  0  0  0  0
  4 20  1  0  0  0  0
  8 21  1  0  0  0  0
  8 22  1  0  0  0  0
  9 23  1  0  0  0  0
  9 24  1  0  0  0  0
 11 25  1  0  0  0  0
 11 26  1  0  0  0  0
 11 27  1  0  0  0  0
M  END
