 xtb: 6.7.1 (edcfbbe)
          07092607163D

 26 25  0     0  0            999 V2000
    4.5361    0.3937    0.6901 C   0  0  0  0  0  0  0  0  0  0  0  0
    3.1210    0.7421    1.1313 C   0  0  0  0  0  0  0  0  0  0  0  0
    2.0822    0.2175    0.1450 C   0  0  0  0  0  0  0  0  0  0  0  0
    0.6729    0.5364    0.5853 C   0  0  0  0  0  0  0  0  0  0  0  0
    0.3635    1.1203    1.5883 O   0  0  0  0  0  0  0  0  0  0  0  0
   -0.2171    0.0763   -0.3062 O   0  0  0  0  0  0  0  0  0  0  0  0
   -1.5932    0.2917    0.0071 C   0  0  0  0  0  0  0  0  0  0  0  0
   -2.4451   -0.2016   -1.1600 C   0  0  0  0  0  0  0  0  0  0  0  0
   -3.9102    0.1628   -0.9423 C   0  0  0  0  0  0  0  0  0  0  0  0
   -2.2584   -1.7017   -1.3685 C   0  0  0  0  0  0  0  0  0  0  0  0
   -2.8334   -2.6439    0.0320 Cl  0  0  0  0  0  0  0  0  0  0  0  0
    5.2607    0.7745    1.4052 H   0  0  0  0  0  0  0  0  0  0  0  0
    4.6606   -0.6846    0.6178 H   0  0  0  0  0  0  0  0  0  0  0  0
    4.7532    0.8295   -0.2828 H   0  0  0  0  0  0  0  0  0  0  0  0
    3.0140    1.8243    1.2189 H   0  0  0  0  0  0  0  0  0  0  0  0
    2.9222    0.3153    2.1155 H   0  0  0  0  0  0  0  0  0  0  0  0
    2.1631   -0.8671    0.0408 H   0  0  0  0  0  0  0  0  0  0  0  0
    2.2337    0.6505   -0.8465 H   0  0  0  0  0  0  0  0  0  0  0  0
   -1.7558    1.3599    0.1857 H   0  0  0  0  0  0  0  0  0  0  0  0
   -1.8411   -0.2485    0.9270 H   0  0  0  0  0  0  0  0  0  0  0  0
   -2.0791    0.2846   -2.0716 H   0  0  0  0  0  0  0  0  0  0  0  0
   -4.5110   -0.1763   -1.7824 H   0  0  0  0  0  0  0  0  0  0  0  0
   -4.2850   -0.3072   -0.0369 H   0  0  0  0  0  0  0  0  0  0  0  0
   -4.0243    1.2392   -0.8465 H   0  0  0  0  0  0  0  0  0  0  0  0
   -2.8265   -2.0483   -2.2315 H   0  0  0  0  0  0  0  0  0  0  0  0
   -1.2027   -1.9396   -1.4945 H   0  0  0  0  0  0  0  0  0  0  0  0
  1  2  1  0  0  0  0
  2  3  1  0  0  0  0
  3  4  1  0  0  0  0
  4  5  2  0  0  0  0
  4  6  1  0  0  0  0
  6  7  1  0  0  0  0
  7  8  1  0  0  0  0
  8  9  1  0  0  0  0
  8 10  1  0  0  0  0
 10 11  1  0  0  0  0
  1 12  1  0  0  0  0
  1 13  1  0  0  0  0
  1 14  1  0  0  0  0
  2 15  1  0  0  0  0
  2 16  1  0  0  0  0
  3 17  1  0  0  0  0
  3 18  1  0  0  0  0
  7 19  1  0  0  0  0
  7 20  1  0  0  0  0
  8 21  1  0  0  0  0
  9 22  1  0  0  0  0
  9 23  1  0  0  0  0
  9 24  1  0  0  0  0
 10 25  1  0  0  0  0
 10 26  1  0  0  0  0
M  END
