 xtb: 6.7.1 (edcfbbe)
          07062619433D

 39 38  0     0  0            999 V2000
    2.6038   -1.7736    1.6341 C   0  0  0  0  0  0  0  0  0  0  0  0
    2.8247   -0.8009    0.4823 C   0  0  0  0  0  0  0  0  0  0  0  0
    2.1195   -1.2652   -0.7898 C   0  0  0  0  0  0  0  0  0  0  0  0
    2.3894   -0.3359   -1.9694 C   0  0  0  0  0  0  0  0  0  0  0  0
    1.8923    0.9836   -1.7335 O   0  0  0  0  0  0  0  0  0  0  0  0
    0.6065    1.2056   -1.9983 C   0  0  0  0  0  0  0  0  0  0  0  0
   -0.1557    0.3756   -2.4187 O   0  0  0  0  0  0  0  0  0  0  0  0
    0.2492    2.6542   -1.7424 C   0  0  0  0  0  0  0  0  0  0  0  0
   -1.1960    2.7760   -1.2457 C   0  0  0  0  0  0  0  0  0  0  0  0
   -1.6607    4.0919   -1.3408 O   0  0  0  0  0  0  0  0  0  0  0  0
   -1.3388    2.2910    0.1935 C   0  0  0  0  0  0  0  0  0  0  0  0
   -2.0040    2.8986    0.9975 O   0  0  0  0  0  0  0  0  0  0  0  0
   -0.6664    1.1795    0.4287 O   0  0  0  0  0  0  0  0  0  0  0  0
   -0.8361    0.5617    1.7096 C   0  0  0  0  0  0  0  0  0  0  0  0
   -2.0036   -0.4199    1.6808 C   0  0  0  0  0  0  0  0  0  0  0  0
   -1.7825   -1.5414    0.6670 C   0  0  0  0  0  0  0  0  0  0  0  0
   -2.9866   -2.4708    0.5891 C   0  0  0  0  0  0  0  0  0  0  0  0
    3.0897   -1.4140    2.5380 H   0  0  0  0  0  0  0  0  0  0  0  0
    3.0143   -2.7510    1.3900 H   0  0  0  0  0  0  0  0  0  0  0  0
    1.5422   -1.8953    1.8398 H   0  0  0  0  0  0  0  0  0  0  0  0
    2.4533    0.1891    0.7542 H   0  0  0  0  0  0  0  0  0  0  0  0
    3.8958   -0.7100    0.2879 H   0  0  0  0  0  0  0  0  0  0  0  0
    2.4630   -2.2652   -1.0613 H   0  0  0  0  0  0  0  0  0  0  0  0
    1.0422   -1.3085   -0.6220 H   0  0  0  0  0  0  0  0  0  0  0  0
    1.9171   -0.7328   -2.8739 H   0  0  0  0  0  0  0  0  0  0  0  0
    3.4620   -0.2098   -2.1316 H   0  0  0  0  0  0  0  0  0  0  0  0
    0.9559    3.0938   -1.0394 H   0  0  0  0  0  0  0  0  0  0  0  0
    0.3192    3.1981   -2.6874 H   0  0  0  0  0  0  0  0  0  0  0  0
   -1.8211    2.1113   -1.8685 H   0  0  0  0  0  0  0  0  0  0  0  0
   -2.0910    4.3063   -0.4963 H   0  0  0  0  0  0  0  0  0  0  0  0
   -1.0061    1.3409    2.4593 H   0  0  0  0  0  0  0  0  0  0  0  0
    0.1062    0.0486    1.9091 H   0  0  0  0  0  0  0  0  0  0  0  0
   -2.1269   -0.8367    2.6821 H   0  0  0  0  0  0  0  0  0  0  0  0
   -2.9142    0.1281    1.4289 H   0  0  0  0  0  0  0  0  0  0  0  0
   -0.8995   -2.1173    0.9554 H   0  0  0  0  0  0  0  0  0  0  0  0
   -1.5927   -1.1046   -0.3158 H   0  0  0  0  0  0  0  0  0  0  0  0
   -2.8083   -3.2631   -0.1334 H   0  0  0  0  0  0  0  0  0  0  0  0
   -3.8738   -1.9216    0.2828 H   0  0  0  0  0  0  0  0  0  0  0  0
   -3.1826   -2.9254    1.5581 H   0  0  0  0  0  0  0  0  0  0  0  0
  1  2  1  0  0  0  0
  2  3  1  0  0  0  0
  3  4  1  0  0  0  0
  4  5  1  0  0  0  0
  5  6  1  0  0  0  0
  6  7  2  0  0  0  0
  6  8  1  0  0  0  0
  8  9  1  0  0  0  0
  9 10  1  0  0  0  0
  9 11  1  0  0  0  0
 11 12  2  0  0  0  0
 11 13  1  0  0  0  0
 13 14  1  0  0  0  0
 14 15  1  0  0  0  0
 15 16  1  0  0  0  0
 16 17  1  0  0  0  0
  1 18  1  0  0  0  0
  1 19  1  0  0  0  0
  1 20  1  0  0  0  0
  2 21  1  0  0  0  0
  2 22  1  0  0  0  0
  3 23  1  0  0  0  0
  3 24  1  0  0  0  0
  4 25  1  0  0  0  0
  4 26  1  0  0  0  0
  8 27  1  0  0  0  0
  8 28  1  0  0  0  0
  9 29  1  0  0  0  0
 10 30  1  0  0  0  0
 14 31  1  0  0  0  0
 14 32  1  0  0  0  0
 15 33  1  0  0  0  0
 15 34  1  0  0  0  0
 16 35  1  0  0  0  0
 16 36  1  0  0  0  0
 17 37  1  0  0  0  0
 17 38  1  0  0  0  0
 17 39  1  0  0  0  0
M  END
