 xtb: 6.7.1 (edcfbbe)
          07072604543D

 33 32  0     0  0            999 V2000
   -1.5995   -0.3403    1.9713 C   0  0  0  0  0  0  0  0  0  0  0  0
   -2.1494   -0.7262    0.5970 C   0  0  0  0  0  0  0  0  0  0  0  0
   -1.7999    0.2389   -0.4233 N   0  0  0  0  0  0  0  0  0  0  0  0
   -2.7129    1.3545   -0.6026 C   0  0  0  0  0  0  0  0  0  0  0  0
   -3.8375    1.0143   -1.5767 C   0  0  0  0  0  0  0  0  0  0  0  0
   -0.6682    0.2152   -1.1646 C   0  0  0  0  0  0  0  0  0  0  0  0
   -0.4229    1.0885   -1.9793 O   0  0  0  0  0  0  0  0  0  0  0  0
    0.2703   -0.9648   -0.9486 C   0  0  0  0  0  0  0  0  0  0  0  0
    1.6426   -0.6842   -1.5569 C   0  0  0  0  0  0  0  0  0  0  0  0
    2.3865    0.4317   -0.8082 C   0  0  0  0  0  0  0  0  0  0  0  0
    2.7108    0.0415    0.6092 C   0  0  0  0  0  0  0  0  0  0  0  0
    1.9127   -0.1891    1.4842 O   0  0  0  0  0  0  0  0  0  0  0  0
    4.0337   -0.0326    0.7978 O   0  0  0  0  0  0  0  0  0  0  0  0
    4.4701   -0.3977    2.0994 C   0  0  0  0  0  0  0  0  0  0  0  0
   -1.8837   -1.0891    2.7060 H   0  0  0  0  0  0  0  0  0  0  0  0
   -2.0017    0.6204    2.2841 H   0  0  0  0  0  0  0  0  0  0  0  0
   -0.5156   -0.2635    1.9508 H   0  0  0  0  0  0  0  0  0  0  0  0
   -3.2411   -0.7774    0.6436 H   0  0  0  0  0  0  0  0  0  0  0  0
   -1.7877   -1.7154    0.3115 H   0  0  0  0  0  0  0  0  0  0  0  0
   -2.1325    2.1904   -0.9993 H   0  0  0  0  0  0  0  0  0  0  0  0
   -3.1219    1.6343    0.3714 H   0  0  0  0  0  0  0  0  0  0  0  0
   -4.4165    0.1631   -1.2238 H   0  0  0  0  0  0  0  0  0  0  0  0
   -4.5036    1.8658   -1.6864 H   0  0  0  0  0  0  0  0  0  0  0  0
   -3.4179    0.7714   -2.5493 H   0  0  0  0  0  0  0  0  0  0  0  0
    0.3826   -1.1700    0.1134 H   0  0  0  0  0  0  0  0  0  0  0  0
   -0.1709   -1.8416   -1.4307 H   0  0  0  0  0  0  0  0  0  0  0  0
    2.2422   -1.5969   -1.5485 H   0  0  0  0  0  0  0  0  0  0  0  0
    1.5120   -0.3606   -2.5905 H   0  0  0  0  0  0  0  0  0  0  0  0
    3.3176    0.6695   -1.3217 H   0  0  0  0  0  0  0  0  0  0  0  0
    1.7460    1.3150   -0.7952 H   0  0  0  0  0  0  0  0  0  0  0  0
    4.1469   -1.4135    2.3365 H   0  0  0  0  0  0  0  0  0  0  0  0
    4.0547    0.2849    2.8434 H   0  0  0  0  0  0  0  0  0  0  0  0
    5.5550   -0.3364    2.0861 H   0  0  0  0  0  0  0  0  0  0  0  0
  1  2  1  0  0  0  0
  2  3  1  0  0  0  0
  3  4  1  0  0  0  0
  4  5  1  0  0  0  0
  3  6  4  0  0  0  0
  6  7  2  0  0  0  0
  6  8  1  0  0  0  0
  8  9  1  0  0  0  0
  9 10  1  0  0  0  0
 10 11  1  0  0  0  0
 11 12  2  0  0  0  0
 11 13  1  0  0  0  0
 13 14  1  0  0  0  0
  1 15  1  0  0  0  0
  1 16  1  0  0  0  0
  1 17  1  0  0  0  0
  2 18  1  0  0  0  0
  2 19  1  0  0  0  0
  4 20  1  0  0  0  0
  4 21  1  0  0  0  0
  5 22  1  0  0  0  0
  5 23  1  0  0  0  0
  5 24  1  0  0  0  0
  8 25  1  0  0  0  0
  8 26  1  0  0  0  0
  9 27  1  0  0  0  0
  9 28  1  0  0  0  0
 10 29  1  0  0  0  0
 10 30  1  0  0  0  0
 14 31  1  0  0  0  0
 14 32  1  0  0  0  0
 14 33  1  0  0  0  0
M  END
