 xtb: 6.7.1 (edcfbbe)
          07082612373D

 43 44  0     0  0            999 V2000
   -3.6492   -0.1853    0.8529 C   0  0  0  0  0  0  0  0  0  0  0  0
   -2.4945    0.4817    0.1632 C   0  0  0  0  0  0  0  0  0  0  0  0
   -2.5944    1.7403   -0.2432 C   0  0  0  0  0  0  0  0  0  0  0  0
   -1.5188    2.5176   -0.9333 C   0  0  0  0  0  0  0  0  0  0  0  0
   -0.3479    1.6306   -1.3470 C   0  0  0  0  0  0  0  0  0  0  0  0
   -0.0528    0.6420   -0.2148 C   0  0  0  0  0  0  0  0  0  0  0  0
    1.3803    0.0367   -0.2404 C   0  0  0  0  0  0  0  0  0  0  0  0
    1.7457   -0.5845   -1.5929 C   0  0  0  0  0  0  0  0  0  0  0  0
    2.4125    1.1703    0.0158 C   0  0  0  0  0  0  0  0  0  0  0  0
    2.4275    1.7220    1.4074 C   0  0  0  0  0  0  0  0  0  0  0  0
    3.4076    1.8242    2.0933 O   0  0  0  0  0  0  0  0  0  0  0  0
    1.5224   -0.9809    0.9213 C   0  0  0  0  0  0  0  0  0  0  0  0
    2.8626   -1.7158    0.9376 C   0  0  0  0  0  0  0  0  0  0  0  0
    0.3792   -1.9929    0.9375 C   0  0  0  0  0  0  0  0  0  0  0  0
   -0.9675   -1.2969    1.0743 C   0  0  0  0  0  0  0  0  0  0  0  0
   -1.2429   -0.3488   -0.1011 C   0  0  0  0  0  0  0  0  0  0  0  0
   -1.5483   -1.1700   -1.3645 C   0  0  0  0  0  0  0  0  0  0  0  0
   -4.5263    0.4566    0.8244 H   0  0  0  0  0  0  0  0  0  0  0  0
   -3.4125   -0.3903    1.8960 H   0  0  0  0  0  0  0  0  0  0  0  0
   -3.9003   -1.1297    0.3741 H   0  0  0  0  0  0  0  0  0  0  0  0
   -3.5067    2.2927   -0.0566 H   0  0  0  0  0  0  0  0  0  0  0  0
   -1.1669    3.3009   -0.2514 H   0  0  0  0  0  0  0  0  0  0  0  0
   -1.9383    3.0258   -1.8064 H   0  0  0  0  0  0  0  0  0  0  0  0
    0.5123    2.2639   -1.5674 H   0  0  0  0  0  0  0  0  0  0  0  0
   -0.5992    1.0959   -2.2615 H   0  0  0  0  0  0  0  0  0  0  0  0
   -0.1040    1.2169    0.7177 H   0  0  0  0  0  0  0  0  0  0  0  0
    1.2730   -1.5496   -1.7361 H   0  0  0  0  0  0  0  0  0  0  0  0
    1.4486    0.0683   -2.4080 H   0  0  0  0  0  0  0  0  0  0  0  0
    2.8203   -0.7345   -1.6627 H   0  0  0  0  0  0  0  0  0  0  0  0
    3.4170    0.8114   -0.2121 H   0  0  0  0  0  0  0  0  0  0  0  0
    2.2075    2.0099   -0.6520 H   0  0  0  0  0  0  0  0  0  0  0  0
    1.4475    2.0850    1.7763 H   0  0  0  0  0  0  0  0  0  0  0  0
    1.4554   -0.4046    1.8536 H   0  0  0  0  0  0  0  0  0  0  0  0
    3.6966   -1.0232    0.9978 H   0  0  0  0  0  0  0  0  0  0  0  0
    2.9072   -2.3610    1.8126 H   0  0  0  0  0  0  0  0  0  0  0  0
    2.9813   -2.3396    0.0558 H   0  0  0  0  0  0  0  0  0  0  0  0
    0.5187   -2.6658    1.7871 H   0  0  0  0  0  0  0  0  0  0  0  0
    0.4009   -2.6061    0.0367 H   0  0  0  0  0  0  0  0  0  0  0  0
   -1.7543   -2.0490    1.1422 H   0  0  0  0  0  0  0  0  0  0  0  0
   -0.9693   -0.7220    2.0042 H   0  0  0  0  0  0  0  0  0  0  0  0
   -0.6899   -1.7287   -1.7155 H   0  0  0  0  0  0  0  0  0  0  0  0
   -1.8989   -0.5316   -2.1706 H   0  0  0  0  0  0  0  0  0  0  0  0
   -2.3412   -1.8819   -1.1444 H   0  0  0  0  0  0  0  0  0  0  0  0
  1  2  1  0  0  0  0
  2  3  2  0  0  0  0
  3  4  1  0  0  0  0
  4  5  1  0  0  0  0
  5  6  1  0  0  0  0
  6  7  1  0  0  0  0
  7  8  1  0  0  0  0
  7  9  1  0  0  0  0
  9 10  1  0  0  0  0
 10 11  2  0  0  0  0
  7 12  1  0  0  0  0
 12 13  1  0  0  0  0
 12 14  1  0  0  0  0
 14 15  1  0  0  0  0
  2 16  1  0  0  0  0
  6 16  1  0  0  0  0
 15 16  1  0  0  0  0
 16 17  1  0  0  0  0
  1 18  1  0  0  0  0
  1 19  1  0  0  0  0
  1 20  1  0  0  0  0
  3 21  1  0  0  0  0
  4 22  1  0  0  0  0
  4 23  1  0  0  0  0
  5 24  1  0  0  0  0
  5 25  1  0  0  0  0
  6 26  1  0  0  0  0
  8 27  1  0  0  0  0
  8 28  1  0  0  0  0
  8 29  1  0  0  0  0
  9 30  1  0  0  0  0
  9 31  1  0  0  0  0
 10 32  1  0  0  0  0
 12 33  1  0  0  0  0
 13 34  1  0  0  0  0
 13 35  1  0  0  0  0
 13 36  1  0  0  0  0
 14 37  1  0  0  0  0
 14 38  1  0  0  0  0
 15 39  1  0  0  0  0
 15 40  1  0  0  0  0
 17 41  1  0  0  0  0
 17 42  1  0  0  0  0
 17 43  1  0  0  0  0
M  END
