 xtb: 6.7.1 (edcfbbe)
          07082609233D

 29 28  0     0  0            999 V2000
    3.2888    0.4485   -0.4771 C   0  0  0  0  0  0  0  0  0  0  0  0
    1.8551    0.8471   -0.6804 C   0  0  0  0  0  0  0  0  0  0  0  0
    1.5285    2.2068   -0.1350 C   0  0  0  0  0  0  0  0  0  0  0  0
    0.9980    0.0336   -1.2850 C   0  0  0  0  0  0  0  0  0  0  0  0
   -0.4601    0.2485   -1.5490 C   0  0  0  0  0  0  0  0  0  0  0  0
   -1.3086   -0.8554   -0.9052 C   0  0  0  0  0  0  0  0  0  0  0  0
   -1.0998   -0.9910    0.6064 C   0  0  0  0  0  0  0  0  0  0  0  0
   -1.8038   -2.2434    1.1259 C   0  0  0  0  0  0  0  0  0  0  0  0
   -1.6169    0.2390    1.3608 C   0  0  0  0  0  0  0  0  0  0  0  0
   -1.2596    0.1953    2.8131 C   0  0  0  0  0  0  0  0  0  0  0  0
   -1.9874    0.4688    3.7258 O   0  0  0  0  0  0  0  0  0  0  0  0
    3.9482    1.1110   -1.0377 H   0  0  0  0  0  0  0  0  0  0  0  0
    3.5566    0.5319    0.5759 H   0  0  0  0  0  0  0  0  0  0  0  0
    3.4671   -0.5727   -0.8035 H   0  0  0  0  0  0  0  0  0  0  0  0
    1.4862    2.1721    0.9546 H   0  0  0  0  0  0  0  0  0  0  0  0
    2.3113    2.9120   -0.4101 H   0  0  0  0  0  0  0  0  0  0  0  0
    0.5826    2.5888   -0.5060 H   0  0  0  0  0  0  0  0  0  0  0  0
    1.3621   -0.9255   -1.6344 H   0  0  0  0  0  0  0  0  0  0  0  0
   -0.7902    1.2244   -1.1963 H   0  0  0  0  0  0  0  0  0  0  0  0
   -0.6296    0.2181   -2.6299 H   0  0  0  0  0  0  0  0  0  0  0  0
   -2.3643   -0.6645   -1.1105 H   0  0  0  0  0  0  0  0  0  0  0  0
   -1.0481   -1.8090   -1.3704 H   0  0  0  0  0  0  0  0  0  0  0  0
   -0.0243   -1.0837    0.7951 H   0  0  0  0  0  0  0  0  0  0  0  0
   -1.6690   -2.3411    2.2010 H   0  0  0  0  0  0  0  0  0  0  0  0
   -2.8711   -2.1913    0.9204 H   0  0  0  0  0  0  0  0  0  0  0  0
   -1.4060   -3.1349    0.6464 H   0  0  0  0  0  0  0  0  0  0  0  0
   -2.6980    0.3409    1.2496 H   0  0  0  0  0  0  0  0  0  0  0  0
   -1.1395    1.1361    0.9586 H   0  0  0  0  0  0  0  0  0  0  0  0
   -0.2078   -0.1103    2.9959 H   0  0  0  0  0  0  0  0  0  0  0  0
  1  2  1  0  0  0  0
  2  3  1  0  0  0  0
  2  4  2  0  0  0  0
  4  5  1  0  0  0  0
  5  6  1  0  0  0  0
  6  7  1  0  0  0  0
  7  8  1  0  0  0  0
  7  9  1  0  0  0  0
  9 10  1  0  0  0  0
 10 11  2  0  0  0  0
  1 12  1  0  0  0  0
  1 13  1  0  0  0  0
  1 14  1  0  0  0  0
  3 15  1  0  0  0  0
  3 16  1  0  0  0  0
  3 17  1  0  0  0  0
  4 18  1  0  0  0  0
  5 19  1  0  0  0  0
  5 20  1  0  0  0  0
  6 21  1  0  0  0  0
  6 22  1  0  0  0  0
  7 23  1  0  0  0  0
  8 24  1  0  0  0  0
  8 25  1  0  0  0  0
  8 26  1  0  0  0  0
  9 27  1  0  0  0  0
  9 28  1  0  0  0  0
 10 29  1  0  0  0  0
M  END
