 xtb: 6.7.1 (edcfbbe)
          07082620343D

 17 16  0     0  0            999 V2000
    3.2423    0.2733    0.3406 C   0  0  0  0  0  0  0  0  0  0  0  0
    2.0336    0.0093    1.0429 O   0  0  0  0  0  0  0  0  0  0  0  0
    1.0884   -0.6421    0.3703 C   0  0  0  0  0  0  0  0  0  0  0  0
    1.2065   -1.0387   -0.7560 O   0  0  0  0  0  0  0  0  0  0  0  0
   -0.1652   -0.7973    1.2180 C   0  0  0  0  0  0  0  0  0  0  0  0
   -1.1813    0.2095    0.7002 C   0  0  0  0  0  0  0  0  0  0  0  0
   -1.1432    1.3899    0.9124 O   0  0  0  0  0  0  0  0  0  0  0  0
   -2.1109   -0.3975   -0.0323 O   0  0  0  0  0  0  0  0  0  0  0  0
   -3.0939    0.4350   -0.6366 C   0  0  0  0  0  0  0  0  0  0  0  0
    3.9194    0.7236    1.0613 H   0  0  0  0  0  0  0  0  0  0  0  0
    3.0544    0.9588   -0.4877 H   0  0  0  0  0  0  0  0  0  0  0  0
    3.6598   -0.6542   -0.0560 H   0  0  0  0  0  0  0  0  0  0  0  0
   -0.5652   -1.8021    1.0957 H   0  0  0  0  0  0  0  0  0  0  0  0
    0.0758   -0.5721    2.2551 H   0  0  0  0  0  0  0  0  0  0  0  0
   -3.8931   -0.2244   -0.9646 H   0  0  0  0  0  0  0  0  0  0  0  0
   -3.4645    1.1667    0.0837 H   0  0  0  0  0  0  0  0  0  0  0  0
   -2.6630    0.9623   -1.4896 H   0  0  0  0  0  0  0  0  0  0  0  0
  1  2  1  0  0  0  0
  2  3  1  0  0  0  0
  3  4  2  0  0  0  0
  3  5  1  0  0  0  0
  5  6  1  0  0  0  0
  6  7  2  0  0  0  0
  6  8  1  0  0  0  0
  8  9  1  0  0  0  0
  1 10  1  0  0  0  0
  1 11  1  0  0  0  0
  1 12  1  0  0  0  0
  5 13  1  0  0  0  0
  5 14  1  0  0  0  0
  9 15  1  0  0  0  0
  9 16  1  0  0  0  0
  9 17  1  0  0  0  0
M  END
