 xtb: 6.7.1 (edcfbbe)
          07092620093D

 32 31  0     0  0            999 V2000
   -6.4823    2.0050    1.0246 Br  0  0  0  0  0  0  0  0  0  0  0  0
   -4.7609    1.0775    1.0895 C   0  0  0  0  0  0  0  0  0  0  0  0
   -4.5735    0.2020   -0.1357 C   0  0  0  0  0  0  0  0  0  0  0  0
   -3.2800   -0.6118   -0.0677 C   0  0  0  0  0  0  0  0  0  0  0  0
   -2.0167    0.2425   -0.1578 C   0  0  0  0  0  0  0  0  0  0  0  0
   -0.7587   -0.6202   -0.2298 C   0  0  0  0  0  0  0  0  0  0  0  0
    0.5109    0.2245   -0.3018 C   0  0  0  0  0  0  0  0  0  0  0  0
    1.7677   -0.6392   -0.3703 C   0  0  0  0  0  0  0  0  0  0  0  0
    3.0375    0.2058   -0.4409 C   0  0  0  0  0  0  0  0  0  0  0  0
    4.2908   -0.6656   -0.5064 C   0  0  0  0  0  0  0  0  0  0  0  0
    5.5401    0.1914   -0.5767 C   0  0  0  0  0  0  0  0  0  0  0  0
    7.1497   -0.9161   -0.6597 Br  0  0  0  0  0  0  0  0  0  0  0  0
   -4.7677    0.4892    2.0067 H   0  0  0  0  0  0  0  0  0  0  0  0
   -4.0063    1.8588    1.1571 H   0  0  0  0  0  0  0  0  0  0  0  0
   -5.4205   -0.4843   -0.2141 H   0  0  0  0  0  0  0  0  0  0  0  0
   -4.5676    0.8263   -1.0326 H   0  0  0  0  0  0  0  0  0  0  0  0
   -3.2627   -1.1899    0.8595 H   0  0  0  0  0  0  0  0  0  0  0  0
   -3.2821   -1.3222   -0.8973 H   0  0  0  0  0  0  0  0  0  0  0  0
   -2.0706    0.8747   -1.0473 H   0  0  0  0  0  0  0  0  0  0  0  0
   -1.9449    0.8970    0.7132 H   0  0  0  0  0  0  0  0  0  0  0  0
   -0.7133   -1.2657    0.6505 H   0  0  0  0  0  0  0  0  0  0  0  0
   -0.8129   -1.2658   -1.1093 H   0  0  0  0  0  0  0  0  0  0  0  0
    0.5651    0.8713    0.5771 H   0  0  0  0  0  0  0  0  0  0  0  0
    0.4665    0.8687   -1.1831 H   0  0  0  0  0  0  0  0  0  0  0  0
    1.8114   -1.2835    0.5107 H   0  0  0  0  0  0  0  0  0  0  0  0
    1.7145   -1.2853   -1.2494 H   0  0  0  0  0  0  0  0  0  0  0  0
    2.9953    0.8491   -1.3234 H   0  0  0  0  0  0  0  0  0  0  0  0
    3.0905    0.8534    0.4379 H   0  0  0  0  0  0  0  0  0  0  0  0
    4.3369   -1.3073    0.3768 H   0  0  0  0  0  0  0  0  0  0  0  0
    4.2413   -1.3126   -1.3855 H   0  0  0  0  0  0  0  0  0  0  0  0
    5.6493    0.8191    0.3071 H   0  0  0  0  0  0  0  0  0  0  0  0
    5.5533    0.8131   -1.4713 H   0  0  0  0  0  0  0  0  0  0  0  0
  1  2  1  0  0  0  0
  2  3  1  0  0  0  0
  3  4  1  0  0  0  0
  4  5  1  0  0  0  0
  5  6  1  0  0  0  0
  6  7  1  0  0  0  0
  7  8  1  0  0  0  0
  8  9  1  0  0  0  0
  9 10  1  0  0  0  0
 10 11  1  0  0  0  0
 11 12  1  0  0  0  0
  2 13  1  0  0  0  0
  2 14  1  0  0  0  0
  3 15  1  0  0  0  0
  3 16  1  0  0  0  0
  4 17  1  0  0  0  0
  4 18  1  0  0  0  0
  5 19  1  0  0  0  0
  5 20  1  0  0  0  0
  6 21  1  0  0  0  0
  6 22  1  0  0  0  0
  7 23  1  0  0  0  0
  7 24  1  0  0  0  0
  8 25  1  0  0  0  0
  8 26  1  0  0  0  0
  9 27  1  0  0  0  0
  9 28  1  0  0  0  0
 10 29  1  0  0  0  0
 10 30  1  0  0  0  0
 11 31  1  0  0  0  0
 11 32  1  0  0  0  0
M  END
