 xtb: 6.7.1 (edcfbbe)
          07072612133D

 37 37  0     0  0            999 V2000
    5.0411   -2.1899    1.1632 C   0  0  0  0  0  0  0  0  0  0  0  0
    3.9053   -1.1936    1.3637 C   0  0  0  0  0  0  0  0  0  0  0  0
    3.7269   -0.2967    0.1405 C   0  0  0  0  0  0  0  0  0  0  0  0
    2.6890    0.8098    0.3362 C   0  0  0  0  0  0  0  0  0  0  0  0
    1.2701    0.3187    0.6250 C   0  0  0  0  0  0  0  0  0  0  0  0
    0.7098   -0.5484   -0.4942 C   0  0  0  0  0  0  0  0  0  0  0  0
   -0.6812   -0.7768   -0.2324 O   0  0  0  0  0  0  0  0  0  0  0  0
   -1.4660   -1.0051   -1.2695 C   0  0  0  0  0  0  0  0  0  0  0  0
   -1.1075   -1.0908   -2.4189 O   0  0  0  0  0  0  0  0  0  0  0  0
   -2.9418   -1.1073   -0.8879 C   0  0  0  0  0  0  0  0  0  0  0  0
   -3.6441   -1.7252   -1.9251 O   0  0  0  0  0  0  0  0  0  0  0  0
   -3.3909    0.3195   -0.6089 C   0  0  0  0  0  0  0  0  0  0  0  0
   -3.0437    0.9315    0.5887 C   0  0  0  0  0  0  0  0  0  0  0  0
   -3.4186    2.2400    0.8328 C   0  0  0  0  0  0  0  0  0  0  0  0
   -4.1434    2.9451   -0.1144 C   0  0  0  0  0  0  0  0  0  0  0  0
   -4.4937    2.3352   -1.3060 C   0  0  0  0  0  0  0  0  0  0  0  0
   -4.1151    1.0273   -1.5560 C   0  0  0  0  0  0  0  0  0  0  0  0
    5.9811   -1.6696    0.9929 H   0  0  0  0  0  0  0  0  0  0  0  0
    5.1541   -2.8240    2.0394 H   0  0  0  0  0  0  0  0  0  0  0  0
    4.8429   -2.8256    0.3029 H   0  0  0  0  0  0  0  0  0  0  0  0
    2.9831   -1.7429    1.5597 H   0  0  0  0  0  0  0  0  0  0  0  0
    4.1170   -0.5729    2.2373 H   0  0  0  0  0  0  0  0  0  0  0  0
    3.4583   -0.9078   -0.7228 H   0  0  0  0  0  0  0  0  0  0  0  0
    4.6853    0.1775   -0.0853 H   0  0  0  0  0  0  0  0  0  0  0  0
    3.0034    1.4444    1.1677 H   0  0  0  0  0  0  0  0  0  0  0  0
    2.6691    1.4301   -0.5630 H   0  0  0  0  0  0  0  0  0  0  0  0
    0.6137    1.1839    0.7414 H   0  0  0  0  0  0  0  0  0  0  0  0
    1.2439   -0.2423    1.5592 H   0  0  0  0  0  0  0  0  0  0  0  0
    1.2089   -1.5208   -0.5412 H   0  0  0  0  0  0  0  0  0  0  0  0
    0.8096   -0.0557   -1.4672 H   0  0  0  0  0  0  0  0  0  0  0  0
   -3.0486   -1.7118    0.0200 H   0  0  0  0  0  0  0  0  0  0  0  0
   -3.1020   -1.6372   -2.7264 H   0  0  0  0  0  0  0  0  0  0  0  0
   -2.4766    0.3806    1.3246 H   0  0  0  0  0  0  0  0  0  0  0  0
   -3.1470    2.7109    1.7663 H   0  0  0  0  0  0  0  0  0  0  0  0
   -4.4359    3.9666    0.0784 H   0  0  0  0  0  0  0  0  0  0  0  0
   -5.0616    2.8786   -2.0467 H   0  0  0  0  0  0  0  0  0  0  0  0
   -4.3949    0.5448   -2.4800 H   0  0  0  0  0  0  0  0  0  0  0  0
  1  2  1  0  0  0  0
  2  3  1  0  0  0  0
  3  4  1  0  0  0  0
  4  5  1  0  0  0  0
  5  6  1  0  0  0  0
  6  7  1  0  0  0  0
  7  8  1  0  0  0  0
  8  9  2  0  0  0  0
  8 10  1  0  0  0  0
 10 11  1  0  0  0  0
 10 12  1  0  0  0  0
 12 13  4  0  0  0  0
 13 14  4  0  0  0  0
 14 15  4  0  0  0  0
 15 16  4  0  0  0  0
 12 17  4  0  0  0  0
 16 17  4  0  0  0  0
  1 18  1  0  0  0  0
  1 19  1  0  0  0  0
  1 20  1  0  0  0  0
  2 21  1  0  0  0  0
  2 22  1  0  0  0  0
  3 23  1  0  0  0  0
  3 24  1  0  0  0  0
  4 25  1  0  0  0  0
  4 26  1  0  0  0  0
  5 27  1  0  0  0  0
  5 28  1  0  0  0  0
  6 29  1  0  0  0  0
  6 30  1  0  0  0  0
 10 31  1  0  0  0  0
 11 32  1  0  0  0  0
 13 33  1  0  0  0  0
 14 34  1  0  0  0  0
 15 35  1  0  0  0  0
 16 36  1  0  0  0  0
 17 37  1  0  0  0  0
M  END
