 xtb: 6.7.1 (edcfbbe)
          07082619103D

 22 22  0     0  0            999 V2000
    2.6070    0.1584   -0.1154 C   0  0  0  0  0  0  0  0  0  0  0  0
    1.1153    0.0811   -0.4277 C   0  0  0  0  0  0  0  0  0  0  0  0
    0.5286   -1.2545    0.0315 C   0  0  0  0  0  0  0  0  0  0  0  0
   -0.9627   -1.3340   -0.2737 C   0  0  0  0  0  0  0  0  0  0  0  0
   -1.7153   -0.1858    0.3940 C   0  0  0  0  0  0  0  0  0  0  0  0
   -3.0821   -0.3122    0.0528 O   0  0  0  0  0  0  0  0  0  0  0  0
   -1.1343    1.1542   -0.0643 C   0  0  0  0  0  0  0  0  0  0  0  0
    0.3577    1.2273    0.2437 C   0  0  0  0  0  0  0  0  0  0  0  0
    3.0219    1.1039   -0.4576 H   0  0  0  0  0  0  0  0  0  0  0  0
    2.7756    0.0784    0.9566 H   0  0  0  0  0  0  0  0  0  0  0  0
    3.1430   -0.6500   -0.6073 H   0  0  0  0  0  0  0  0  0  0  0  0
    0.9802    0.1647   -1.5119 H   0  0  0  0  0  0  0  0  0  0  0  0
    0.6858   -1.3641    1.1074 H   0  0  0  0  0  0  0  0  0  0  0  0
    1.0464   -2.0764   -0.4667 H   0  0  0  0  0  0  0  0  0  0  0  0
   -1.3779   -2.2802    0.0756 H   0  0  0  0  0  0  0  0  0  0  0  0
   -1.1328   -1.2726   -1.3500 H   0  0  0  0  0  0  0  0  0  0  0  0
   -1.6006   -0.2690    1.4892 H   0  0  0  0  0  0  0  0  0  0  0  0
   -3.5610    0.4463    0.4038 H   0  0  0  0  0  0  0  0  0  0  0  0
   -1.2979    1.2533   -1.1400 H   0  0  0  0  0  0  0  0  0  0  0  0
   -1.6593    1.9750    0.4338 H   0  0  0  0  0  0  0  0  0  0  0  0
    0.7554    2.1851   -0.0986 H   0  0  0  0  0  0  0  0  0  0  0  0
    0.5071    1.1710    1.3250 H   0  0  0  0  0  0  0  0  0  0  0  0
  1  2  1  0  0  0  0
  2  3  1  0  0  0  0
  3  4  1  0  0  0  0
  4  5  1  0  0  0  0
  5  6  1  0  0  0  0
  5  7  1  0  0  0  0
  2  8  1  0  0  0  0
  7  8  1  0  0  0  0
  1  9  1  0  0  0  0
  1 10  1  0  0  0  0
  1 11  1  0  0  0  0
  2 12  1  0  0  0  0
  3 13  1  0  0  0  0
  3 14  1  0  0  0  0
  4 15  1  0  0  0  0
  4 16  1  0  0  0  0
  5 17  1  0  0  0  0
  6 18  1  0  0  0  0
  7 19  1  0  0  0  0
  7 20  1  0  0  0  0
  8 21  1  0  0  0  0
  8 22  1  0  0  0  0
M  END
