 xtb: 6.7.1 (edcfbbe)
          07092600263D

 20 20  0     0  0            999 V2000
   -4.0328    0.5168   -0.3543 C   0  0  0  0  0  0  0  0  0  0  0  0
   -2.9879    0.0148    0.2743 C   0  0  0  0  0  0  0  0  0  0  0  0
   -1.6709   -0.2733   -0.3780 C   0  0  0  0  0  0  0  0  0  0  0  0
   -0.6490    0.2177    0.4676 O   0  0  0  0  0  0  0  0  0  0  0  0
    0.6488    0.0649    0.0878 C   0  0  0  0  0  0  0  0  0  0  0  0
    1.5995    0.5946    0.9625 C   0  0  0  0  0  0  0  0  0  0  0  0
    2.9440    0.4958    0.6745 C   0  0  0  0  0  0  0  0  0  0  0  0
    3.3668   -0.1316   -0.4877 C   0  0  0  0  0  0  0  0  0  0  0  0
    2.4280   -0.6576   -1.3542 C   0  0  0  0  0  0  0  0  0  0  0  0
    1.0734   -0.5648   -1.0767 C   0  0  0  0  0  0  0  0  0  0  0  0
   -4.9669    0.6937    0.1498 H   0  0  0  0  0  0  0  0  0  0  0  0
   -4.0009    0.7638   -1.4030 H   0  0  0  0  0  0  0  0  0  0  0  0
   -3.0239   -0.2218    1.3281 H   0  0  0  0  0  0  0  0  0  0  0  0
   -1.6187    0.2023   -1.3669 H   0  0  0  0  0  0  0  0  0  0  0  0
   -1.5596   -1.3629   -0.5048 H   0  0  0  0  0  0  0  0  0  0  0  0
    1.2522    1.0797    1.8612 H   0  0  0  0  0  0  0  0  0  0  0  0
    3.6682    0.9109    1.3597 H   0  0  0  0  0  0  0  0  0  0  0  0
    4.4195   -0.2081   -0.7135 H   0  0  0  0  0  0  0  0  0  0  0  0
    2.7455   -1.1492   -2.2624 H   0  0  0  0  0  0  0  0  0  0  0  0
    0.3647   -0.9856   -1.7731 H   0  0  0  0  0  0  0  0  0  0  0  0
  1  2  2  0  0  0  0
  2  3  1  0  0  0  0
  3  4  1  0  0  0  0
  4  5  1  0  0  0  0
  5  6  4  0  0  0  0
  6  7  4  0  0  0  0
  7  8  4  0  0  0  0
  8  9  4  0  0  0  0
  5 10  4  0  0  0  0
  9 10  4  0  0  0  0
  1 11  1  0  0  0  0
  1 12  1  0  0  0  0
  2 13  1  0  0  0  0
  3 14  1  0  0  0  0
  3 15  1  0  0  0  0
  6 16  1  0  0  0  0
  7 17  1  0  0  0  0
  8 18  1  0  0  0  0
  9 19  1  0  0  0  0
 10 20  1  0  0  0  0
M  END
