 xtb: 6.7.1 (edcfbbe)
          07082610403D

 28 27  0     0  0            999 V2000
   -4.4547    0.5364   -0.3335 C   0  0  0  0  0  0  0  0  0  0  0  0
   -3.1282   -0.1975   -0.4819 C   0  0  0  0  0  0  0  0  0  0  0  0
   -2.3334   -0.1932    0.8219 C   0  0  0  0  0  0  0  0  0  0  0  0
   -0.9948   -0.9132    0.6728 C   0  0  0  0  0  0  0  0  0  0  0  0
    0.0079   -0.1222   -0.1450 C   0  0  0  0  0  0  0  0  0  0  0  0
   -0.0693    1.0687   -0.3037 O   0  0  0  0  0  0  0  0  0  0  0  0
    1.1166   -0.9652   -0.7451 C   0  0  0  0  0  0  0  0  0  0  0  0
    2.3554   -0.1453   -1.0994 C   0  0  0  0  0  0  0  0  0  0  0  0
    3.1221    0.2914    0.1469 C   0  0  0  0  0  0  0  0  0  0  0  0
    4.3471    1.1233   -0.2101 C   0  0  0  0  0  0  0  0  0  0  0  0
   -4.2837    1.5740   -0.0560 H   0  0  0  0  0  0  0  0  0  0  0  0
   -5.0654    0.0711    0.4378 H   0  0  0  0  0  0  0  0  0  0  0  0
   -5.0095    0.5181   -1.2688 H   0  0  0  0  0  0  0  0  0  0  0  0
   -2.5347    0.2826   -1.2623 H   0  0  0  0  0  0  0  0  0  0  0  0
   -3.3162   -1.2299   -0.7895 H   0  0  0  0  0  0  0  0  0  0  0  0
   -2.1424    0.8389    1.1210 H   0  0  0  0  0  0  0  0  0  0  0  0
   -2.9207   -0.6738    1.6075 H   0  0  0  0  0  0  0  0  0  0  0  0
   -1.1323   -1.9005    0.2275 H   0  0  0  0  0  0  0  0  0  0  0  0
   -0.5399   -1.0569    1.6577 H   0  0  0  0  0  0  0  0  0  0  0  0
    1.3707   -1.7766   -0.0602 H   0  0  0  0  0  0  0  0  0  0  0  0
    0.7003   -1.4173   -1.6507 H   0  0  0  0  0  0  0  0  0  0  0  0
    3.0121   -0.7357   -1.7423 H   0  0  0  0  0  0  0  0  0  0  0  0
    2.0401    0.7403   -1.6540 H   0  0  0  0  0  0  0  0  0  0  0  0
    3.4342   -0.5927    0.7099 H   0  0  0  0  0  0  0  0  0  0  0  0
    2.4593    0.8790    0.7850 H   0  0  0  0  0  0  0  0  0  0  0  0
    4.8838    1.4200    0.6882 H   0  0  0  0  0  0  0  0  0  0  0  0
    5.0249    0.5543   -0.8435 H   0  0  0  0  0  0  0  0  0  0  0  0
    4.0506    2.0222   -0.7457 H   0  0  0  0  0  0  0  0  0  0  0  0
  1  2  1  0  0  0  0
  2  3  1  0  0  0  0
  3  4  1  0  0  0  0
  4  5  1  0  0  0  0
  5  6  2  0  0  0  0
  5  7  1  0  0  0  0
  7  8  1  0  0  0  0
  8  9  1  0  0  0  0
  9 10  1  0  0  0  0
  1 11  1  0  0  0  0
  1 12  1  0  0  0  0
  1 13  1  0  0  0  0
  2 14  1  0  0  0  0
  2 15  1  0  0  0  0
  3 16  1  0  0  0  0
  3 17  1  0  0  0  0
  4 18  1  0  0  0  0
  4 19  1  0  0  0  0
  7 20  1  0  0  0  0
  7 21  1  0  0  0  0
  8 22  1  0  0  0  0
  8 23  1  0  0  0  0
  9 24  1  0  0  0  0
  9 25  1  0  0  0  0
 10 26  1  0  0  0  0
 10 27  1  0  0  0  0
 10 28  1  0  0  0  0
M  END
