 xtb: 6.7.1 (edcfbbe)
          07082617223D

 15 14  0     0  0            999 V2000
   -0.6754   -1.2785   -0.0236 C   0  0  0  0  0  0  0  0  0  0  0  0
    0.1057    0.0163    0.2328 C   0  0  0  0  0  0  0  0  0  0  0  0
    1.0739    0.2814   -0.9267 C   0  0  0  0  0  0  0  0  0  0  0  0
   -0.8555    1.1925    0.4028 C   0  0  0  0  0  0  0  0  0  0  0  0
    0.8237   -0.0818    1.4542 O   0  0  0  0  0  0  0  0  0  0  0  0
    0.0068   -2.1190   -0.1448 H   0  0  0  0  0  0  0  0  0  0  0  0
   -1.3331   -1.4862    0.8172 H   0  0  0  0  0  0  0  0  0  0  0  0
   -1.2753   -1.1875   -0.9248 H   0  0  0  0  0  0  0  0  0  0  0  0
    0.5260    0.4187   -1.8547 H   0  0  0  0  0  0  0  0  0  0  0  0
    1.6550    1.1783   -0.7255 H   0  0  0  0  0  0  0  0  0  0  0  0
    1.7607   -0.5551   -1.0502 H   0  0  0  0  0  0  0  0  0  0  0  0
   -0.2917    2.0981    0.6090 H   0  0  0  0  0  0  0  0  0  0  0  0
   -1.5186    1.0040    1.2424 H   0  0  0  0  0  0  0  0  0  0  0  0
   -1.4467    1.3346   -0.4971 H   0  0  0  0  0  0  0  0  0  0  0  0
    1.4444   -0.8158    1.3888 H   0  0  0  0  0  0  0  0  0  0  0  0
  1  2  1  0  0  0  0
  2  3  1  0  0  0  0
  2  4  1  0  0  0  0
  2  5  1  0  0  0  0
  1  6  1  0  0  0  0
  1  7  1  0  0  0  0
  1  8  1  0  0  0  0
  3  9  1  0  0  0  0
  3 10  1  0  0  0  0
  3 11  1  0  0  0  0
  4 12  1  0  0  0  0
  4 13  1  0  0  0  0
  4 14  1  0  0  0  0
  5 15  1  0  0  0  0
M  END
