 xtb: 6.7.1 (edcfbbe)
          07082607403D

 23 22  0     0  0            999 V2000
   -3.4859    1.6831   -0.0769 C   0  0  0  0  0  0  0  0  0  0  0  0
   -2.4745    0.9464    0.7702 C   0  0  0  0  0  0  0  0  0  0  0  0
   -2.5220    0.9336    1.9730 O   0  0  0  0  0  0  0  0  0  0  0  0
   -1.4017    0.2326   -0.0236 C   0  0  0  0  0  0  0  0  0  0  0  0
   -0.3856   -0.4826    0.8729 C   0  0  0  0  0  0  0  0  0  0  0  0
    0.6352   -1.2029    0.0468 C   0  0  0  0  0  0  0  0  0  0  0  0
    1.8649   -0.8002   -0.2494 C   0  0  0  0  0  0  0  0  0  0  0  0
    2.7730   -1.6378   -1.1027 C   0  0  0  0  0  0  0  0  0  0  0  0
    2.4888    0.4805    0.2199 C   0  0  0  0  0  0  0  0  0  0  0  0
   -2.9849    2.4459   -0.6687 H   0  0  0  0  0  0  0  0  0  0  0  0
   -4.2335    2.1517    0.5574 H   0  0  0  0  0  0  0  0  0  0  0  0
   -3.9720    0.9914   -0.7610 H   0  0  0  0  0  0  0  0  0  0  0  0
   -1.8860   -0.4860   -0.6896 H   0  0  0  0  0  0  0  0  0  0  0  0
   -0.8919    0.9636   -0.6562 H   0  0  0  0  0  0  0  0  0  0  0  0
    0.0755    0.2466    1.5381 H   0  0  0  0  0  0  0  0  0  0  0  0
   -0.9199   -1.2005    1.4987 H   0  0  0  0  0  0  0  0  0  0  0  0
    0.2906   -2.1444   -0.3636 H   0  0  0  0  0  0  0  0  0  0  0  0
    2.2929   -2.5667   -1.3990 H   0  0  0  0  0  0  0  0  0  0  0  0
    3.6866   -1.8758   -0.5586 H   0  0  0  0  0  0  0  0  0  0  0  0
    3.0583   -1.0912   -2.0015 H   0  0  0  0  0  0  0  0  0  0  0  0
    1.7810    1.1225    0.7336 H   0  0  0  0  0  0  0  0  0  0  0  0
    2.8961    1.0262   -0.6307 H   0  0  0  0  0  0  0  0  0  0  0  0
    3.3151    0.2641    0.8974 H   0  0  0  0  0  0  0  0  0  0  0  0
  1  2  1  0  0  0  0
  2  3  2  0  0  0  0
  2  4  1  0  0  0  0
  4  5  1  0  0  0  0
  5  6  1  0  0  0  0
  6  7  2  0  0  0  0
  7  8  1  0  0  0  0
  7  9  1  0  0  0  0
  1 10  1  0  0  0  0
  1 11  1  0  0  0  0
  1 12  1  0  0  0  0
  4 13  1  0  0  0  0
  4 14  1  0  0  0  0
  5 15  1  0  0  0  0
  5 16  1  0  0  0  0
  6 17  1  0  0  0  0
  8 18  1  0  0  0  0
  8 19  1  0  0  0  0
  8 20  1  0  0  0  0
  9 21  1  0  0  0  0
  9 22  1  0  0  0  0
  9 23  1  0  0  0  0
M  END
