 xtb: 6.7.1 (edcfbbe)
          07092620323D

 24 23  0     0  0            999 V2000
    0.3840   -3.1370   -0.1382 C   0  0  0  0  0  0  0  0  0  0  0  0
    0.1357   -1.8305   -0.0914 C   0  0  0  0  0  0  0  0  0  0  0  0
    1.2296   -0.8678    0.2401 C   0  0  0  0  0  0  0  0  0  0  0  0
    2.1744   -1.1442    0.9339 O   0  0  0  0  0  0  0  0  0  0  0  0
    1.0410    0.3106   -0.3501 O   0  0  0  0  0  0  0  0  0  0  0  0
    2.0332    1.3140   -0.1287 C   0  0  0  0  0  0  0  0  0  0  0  0
    3.2117    1.1499   -1.0777 C   0  0  0  0  0  0  0  0  0  0  0  0
   -1.2380   -1.3140   -0.3712 C   0  0  0  0  0  0  0  0  0  0  0  0
   -2.0263   -1.8616   -1.0993 O   0  0  0  0  0  0  0  0  0  0  0  0
   -1.4964   -0.2028    0.3116 O   0  0  0  0  0  0  0  0  0  0  0  0
   -2.7896    0.3747    0.1218 C   0  0  0  0  0  0  0  0  0  0  0  0
   -2.8723    1.6403    0.9532 C   0  0  0  0  0  0  0  0  0  0  0  0
    1.3690   -3.5193    0.0716 H   0  0  0  0  0  0  0  0  0  0  0  0
   -0.3948   -3.8382   -0.3870 H   0  0  0  0  0  0  0  0  0  0  0  0
    2.3722    1.2532    0.9106 H   0  0  0  0  0  0  0  0  0  0  0  0
    1.5188    2.2619   -0.2993 H   0  0  0  0  0  0  0  0  0  0  0  0
    3.9133    1.9659   -0.9312 H   0  0  0  0  0  0  0  0  0  0  0  0
    2.8678    1.1565   -2.1093 H   0  0  0  0  0  0  0  0  0  0  0  0
    3.7194    0.2091   -0.8800 H   0  0  0  0  0  0  0  0  0  0  0  0
   -2.9273    0.5851   -0.9447 H   0  0  0  0  0  0  0  0  0  0  0  0
   -3.5495   -0.3549    0.4244 H   0  0  0  0  0  0  0  0  0  0  0  0
   -2.7230    1.4081    2.0041 H   0  0  0  0  0  0  0  0  0  0  0  0
   -3.8486    2.0987    0.8249 H   0  0  0  0  0  0  0  0  0  0  0  0
   -2.1044    2.3424    0.6404 H   0  0  0  0  0  0  0  0  0  0  0  0
  1  2  2  0  0  0  0
  2  3  1  0  0  0  0
  3  4  2  0  0  0  0
  3  5  1  0  0  0  0
  5  6  1  0  0  0  0
  6  7  1  0  0  0  0
  2  8  1  0  0  0  0
  8  9  2  0  0  0  0
  8 10  1  0  0  0  0
 10 11  1  0  0  0  0
 11 12  1  0  0  0  0
  1 13  1  0  0  0  0
  1 14  1  0  0  0  0
  6 15  1  0  0  0  0
  6 16  1  0  0  0  0
  7 17  1  0  0  0  0
  7 18  1  0  0  0  0
  7 19  1  0  0  0  0
 11 20  1  0  0  0  0
 11 21  1  0  0  0  0
 12 22  1  0  0  0  0
 12 23  1  0  0  0  0
 12 24  1  0  0  0  0
M  END
