 xtb: 6.7.1 (edcfbbe)
          07072616233D

 20 22  0     0  0            999 V2000
   -4.1353   -1.4053   -0.9660 O   0  0  0  0  0  0  0  0  0  0  0  0
   -3.1496   -0.7621   -0.7099 C   0  0  0  0  0  0  0  0  0  0  0  0
   -3.1014    0.6892   -0.5961 C   0  0  0  0  0  0  0  0  0  0  0  0
   -1.9584    1.3340   -0.3063 C   0  0  0  0  0  0  0  0  0  0  0  0
   -0.7416    0.6027   -0.0987 C   0  0  0  0  0  0  0  0  0  0  0  0
    0.4669    1.2249    0.2035 C   0  0  0  0  0  0  0  0  0  0  0  0
    1.5918    0.4399    0.3876 C   0  0  0  0  0  0  0  0  0  0  0  0
    2.9662    0.6893    0.6986 C   0  0  0  0  0  0  0  0  0  0  0  0
    3.5612   -0.5234    0.7392 C   0  0  0  0  0  0  0  0  0  0  0  0
    2.6969   -1.5366    0.4825 O   0  0  0  0  0  0  0  0  0  0  0  0
    1.4943   -0.9692    0.2663 C   0  0  0  0  0  0  0  0  0  0  0  0
    0.3070   -1.6097   -0.0327 C   0  0  0  0  0  0  0  0  0  0  0  0
   -0.8121   -0.8072   -0.2143 C   0  0  0  0  0  0  0  0  0  0  0  0
   -1.9748   -1.4339   -0.5071 O   0  0  0  0  0  0  0  0  0  0  0  0
   -4.0358    1.2013   -0.7590 H   0  0  0  0  0  0  0  0  0  0  0  0
   -1.9269    2.4113   -0.2228 H   0  0  0  0  0  0  0  0  0  0  0  0
    0.5142    2.2993    0.2902 H   0  0  0  0  0  0  0  0  0  0  0  0
    3.4261    1.6411    0.8646 H   0  0  0  0  0  0  0  0  0  0  0  0
    4.5773   -0.8060    0.9358 H   0  0  0  0  0  0  0  0  0  0  0  0
    0.2338   -2.6798   -0.1246 H   0  0  0  0  0  0  0  0  0  0  0  0
  1  2  2  0  0  0  0
  2  3  1  0  0  0  0
  3  4  2  0  0  0  0
  4  5  1  0  0  0  0
  5  6  4  0  0  0  0
  6  7  4  0  0  0  0
  7  8  1  0  0  0  0
  8  9  2  0  0  0  0
  9 10  1  0  0  0  0
  7 11  4  0  0  0  0
 10 11  1  0  0  0  0
 11 12  4  0  0  0  0
  5 13  4  0  0  0  0
 12 13  4  0  0  0  0
  2 14  1  0  0  0  0
 13 14  1  0  0  0  0
  3 15  1  0  0  0  0
  4 16  1  0  0  0  0
  6 17  1  0  0  0  0
  8 18  1  0  0  0  0
  9 19  1  0  0  0  0
 12 20  1  0  0  0  0
M  END
