 xtb: 6.7.1 (edcfbbe)
          07092610203D

 21 21  0     0  0            999 V2000
    3.7039    0.4187   -0.4931 C   0  0  0  0  0  0  0  0  0  0  0  0
    2.6989   -0.7038   -0.3169 C   0  0  0  0  0  0  0  0  0  0  0  0
    1.3971   -0.1294   -0.2098 O   0  0  0  0  0  0  0  0  0  0  0  0
    0.3837   -0.9892   -0.0484 C   0  0  0  0  0  0  0  0  0  0  0  0
    0.5370   -2.1863    0.0065 O   0  0  0  0  0  0  0  0  0  0  0  0
   -0.9307   -0.3098    0.0537 C   0  0  0  0  0  0  0  0  0  0  0  0
   -1.0503    1.0756   -0.0161 C   0  0  0  0  0  0  0  0  0  0  0  0
   -2.2977    1.6630    0.0843 C   0  0  0  0  0  0  0  0  0  0  0  0
   -3.4271    0.8774    0.2539 C   0  0  0  0  0  0  0  0  0  0  0  0
   -3.3117   -0.5020    0.3238 C   0  0  0  0  0  0  0  0  0  0  0  0
   -2.0680   -1.0957    0.2242 C   0  0  0  0  0  0  0  0  0  0  0  0
    4.7040    0.0037   -0.5769 H   0  0  0  0  0  0  0  0  0  0  0  0
    3.4776    0.9860   -1.3921 H   0  0  0  0  0  0  0  0  0  0  0  0
    3.6679    1.0907    0.3602 H   0  0  0  0  0  0  0  0  0  0  0  0
    2.9040   -1.2863    0.5888 H   0  0  0  0  0  0  0  0  0  0  0  0
    2.7129   -1.3914   -1.1704 H   0  0  0  0  0  0  0  0  0  0  0  0
   -0.1662    1.6793   -0.1482 H   0  0  0  0  0  0  0  0  0  0  0  0
   -2.3918    2.7377    0.0302 H   0  0  0  0  0  0  0  0  0  0  0  0
   -4.3992    1.3420    0.3317 H   0  0  0  0  0  0  0  0  0  0  0  0
   -4.1926   -1.1125    0.4559 H   0  0  0  0  0  0  0  0  0  0  0  0
   -1.9517   -2.1677    0.2757 H   0  0  0  0  0  0  0  0  0  0  0  0
  1  2  1  0  0  0  0
  2  3  1  0  0  0  0
  3  4  1  0  0  0  0
  4  5  2  0  0  0  0
  4  6  1  0  0  0  0
  6  7  4  0  0  0  0
  7  8  4  0  0  0  0
  8  9  4  0  0  0  0
  9 10  4  0  0  0  0
  6 11  4  0  0  0  0
 10 11  4  0  0  0  0
  1 12  1  0  0  0  0
  1 13  1  0  0  0  0
  1 14  1  0  0  0  0
  2 15  1  0  0  0  0
  2 16  1  0  0  0  0
  7 17  1  0  0  0  0
  8 18  1  0  0  0  0
  9 19  1  0  0  0  0
 10 20  1  0  0  0  0
 11 21  1  0  0  0  0
M  END
