 xtb: 6.7.1 (edcfbbe)
          07092611473D

 29 29  0     0  0            999 V2000
   -3.0434   -1.2947    0.4420 C   0  0  0  0  0  0  0  0  0  0  0  0
   -2.2670   -0.2424    0.2198 C   0  0  0  0  0  0  0  0  0  0  0  0
   -2.8275    1.0486   -0.2943 C   0  0  0  0  0  0  0  0  0  0  0  0
   -0.7739   -0.3337    0.4160 C   0  0  0  0  0  0  0  0  0  0  0  0
   -0.1591    0.9199    1.0401 C   0  0  0  0  0  0  0  0  0  0  0  0
    1.3420    0.7392    1.2421 C   0  0  0  0  0  0  0  0  0  0  0  0
    2.0381    0.4597   -0.0902 C   0  0  0  0  0  0  0  0  0  0  0  0
    3.5398    0.2726    0.1046 C   0  0  0  0  0  0  0  0  0  0  0  0
    1.4207   -0.7780   -0.7372 C   0  0  0  0  0  0  0  0  0  0  0  0
   -0.0860   -0.6259   -0.9358 C   0  0  0  0  0  0  0  0  0  0  0  0
   -0.5609   -1.8186   -1.5187 O   0  0  0  0  0  0  0  0  0  0  0  0
   -4.1071   -1.2642    0.2721 H   0  0  0  0  0  0  0  0  0  0  0  0
   -2.6524   -2.2231    0.8241 H   0  0  0  0  0  0  0  0  0  0  0  0
   -3.8697    0.9265   -0.5782 H   0  0  0  0  0  0  0  0  0  0  0  0
   -2.7709    1.8171    0.4748 H   0  0  0  0  0  0  0  0  0  0  0  0
   -2.2678    1.3985   -1.1593 H   0  0  0  0  0  0  0  0  0  0  0  0
   -0.5653   -1.1891    1.0683 H   0  0  0  0  0  0  0  0  0  0  0  0
   -0.6426    1.1210    1.9987 H   0  0  0  0  0  0  0  0  0  0  0  0
   -0.3260    1.7788    0.3878 H   0  0  0  0  0  0  0  0  0  0  0  0
    1.7614    1.6398    1.6961 H   0  0  0  0  0  0  0  0  0  0  0  0
    1.5228   -0.0942    1.9248 H   0  0  0  0  0  0  0  0  0  0  0  0
    1.8756    1.3176   -0.7533 H   0  0  0  0  0  0  0  0  0  0  0  0
    3.7347   -0.5750    0.7579 H   0  0  0  0  0  0  0  0  0  0  0  0
    4.0292    0.0894   -0.8489 H   0  0  0  0  0  0  0  0  0  0  0  0
    3.9808    1.1601    0.5532 H   0  0  0  0  0  0  0  0  0  0  0  0
    1.5941   -1.6537   -0.1090 H   0  0  0  0  0  0  0  0  0  0  0  0
    1.8787   -0.9723   -1.7082 H   0  0  0  0  0  0  0  0  0  0  0  0
   -0.2763    0.2188   -1.6216 H   0  0  0  0  0  0  0  0  0  0  0  0
   -1.5221   -1.8428   -1.4225 H   0  0  0  0  0  0  0  0  0  0  0  0
  1  2  2  0  0  0  0
  2  3  1  0  0  0  0
  2  4  1  0  0  0  0
  4  5  1  0  0  0  0
  5  6  1  0  0  0  0
  6  7  1  0  0  0  0
  7  8  1  0  0  0  0
  7  9  1  0  0  0  0
  4 10  1  0  0  0  0
  9 10  1  0  0  0  0
 10 11  1  0  0  0  0
  1 12  1  0  0  0  0
  1 13  1  0  0  0  0
  3 14  1  0  0  0  0
  3 15  1  0  0  0  0
  3 16  1  0  0  0  0
  4 17  1  0  0  0  0
  5 18  1  0  0  0  0
  5 19  1  0  0  0  0
  6 20  1  0  0  0  0
  6 21  1  0  0  0  0
  7 22  1  0  0  0  0
  8 23  1  0  0  0  0
  8 24  1  0  0  0  0
  8 25  1  0  0  0  0
  9 26  1  0  0  0  0
  9 27  1  0  0  0  0
 10 28  1  0  0  0  0
 11 29  1  0  0  0  0
M  END
