 xtb: 6.7.1 (edcfbbe)
          07072606213D

 19 18  0     0  0            999 V2000
   -3.8408   -0.4930   -0.2244 C   0  0  0  0  0  0  0  0  0  0  0  0
   -2.5325   -0.3233   -0.2748 C   0  0  0  0  0  0  0  0  0  0  0  0
   -1.8753    0.8852   -0.8324 C   0  0  0  0  0  0  0  0  0  0  0  0
   -0.8799    1.7467    0.4335 S   0  0  0  0  0  0  0  0  0  0  0  0
    1.0857    1.2886   -0.3384 S   0  0  0  0  0  0  0  0  0  0  0  0
    0.8554    0.6875   -1.6469 O   0  0  0  0  0  0  0  0  0  0  0  0
    1.4366   -0.1502    0.8124 C   0  0  0  0  0  0  0  0  0  0  0  0
    2.7833   -0.6755    0.4889 C   0  0  0  0  0  0  0  0  0  0  0  0
    3.8640   -0.4315    1.2104 C   0  0  0  0  0  0  0  0  0  0  0  0
   -4.5216    0.2536   -0.5987 H   0  0  0  0  0  0  0  0  0  0  0  0
   -4.2834   -1.3856    0.1822 H   0  0  0  0  0  0  0  0  0  0  0  0
   -1.8659   -1.0828    0.1124 H   0  0  0  0  0  0  0  0  0  0  0  0
   -2.5976    1.6060   -1.2101 H   0  0  0  0  0  0  0  0  0  0  0  0
   -1.1574    0.6251   -1.6215 H   0  0  0  0  0  0  0  0  0  0  0  0
    0.6558   -0.8881    0.6405 H   0  0  0  0  0  0  0  0  0  0  0  0
    1.3751    0.2563    1.8194 H   0  0  0  0  0  0  0  0  0  0  0  0
    2.8479   -1.2533   -0.4230 H   0  0  0  0  0  0  0  0  0  0  0  0
    3.8199    0.1464    2.1191 H   0  0  0  0  0  0  0  0  0  0  0  0
    4.8306   -0.8121    0.9314 H   0  0  0  0  0  0  0  0  0  0  0  0
  1  2  2  0  0  0  0
  2  3  1  0  0  0  0
  3  4  1  0  0  0  0
  4  5  1  0  0  0  0
  5  6  2  0  0  0  0
  5  7  1  0  0  0  0
  7  8  1  0  0  0  0
  8  9  2  0  0  0  0
  1 10  1  0  0  0  0
  1 11  1  0  0  0  0
  2 12  1  0  0  0  0
  3 13  1  0  0  0  0
  3 14  1  0  0  0  0
  7 15  1  0  0  0  0
  7 16  1  0  0  0  0
  8 17  1  0  0  0  0
  9 18  1  0  0  0  0
  9 19  1  0  0  0  0
M  END
