 xtb: 6.7.1 (edcfbbe)
          07072602293D

 39 38  0     0  0            999 V2000
   -3.2337   -2.6301   -0.3758 C   0  0  0  0  0  0  0  0  0  0  0  0
   -2.7985   -1.3518   -1.0810 C   0  0  0  0  0  0  0  0  0  0  0  0
   -1.6721   -0.6538   -0.3228 C   0  0  0  0  0  0  0  0  0  0  0  0
   -1.2132    0.6167   -1.0466 C   0  0  0  0  0  0  0  0  0  0  0  0
   -0.2221    1.3632   -0.3018 N   0  0  0  0  0  0  0  0  0  0  0  0
    1.1278    0.8350   -0.2855 C   0  0  0  0  0  0  0  0  0  0  0  0
    1.4768    0.1807    1.0610 C   0  0  0  0  0  0  0  0  0  0  0  0
    2.6471   -0.6223    0.9547 O   0  0  0  0  0  0  0  0  0  0  0  0
    2.5017   -1.8352    0.4151 C   0  0  0  0  0  0  0  0  0  0  0  0
    1.4471   -2.2824    0.0412 O   0  0  0  0  0  0  0  0  0  0  0  0
    3.8292   -2.5495    0.3244 C   0  0  0  0  0  0  0  0  0  0  0  0
    4.6666   -1.9415   -0.8019 C   0  0  0  0  0  0  0  0  0  0  0  0
   -0.4629    2.4459    0.4845 C   0  0  0  0  0  0  0  0  0  0  0  0
    0.4377    2.9644    1.1169 O   0  0  0  0  0  0  0  0  0  0  0  0
   -1.8867    2.9787    0.5150 C   0  0  0  0  0  0  0  0  0  0  0  0
   -2.0062    4.1403    1.4938 C   0  0  0  0  0  0  0  0  0  0  0  0
   -3.6027   -2.4085    0.6233 H   0  0  0  0  0  0  0  0  0  0  0  0
   -4.0262   -3.1243   -0.9326 H   0  0  0  0  0  0  0  0  0  0  0  0
   -2.3943   -3.3154   -0.2865 H   0  0  0  0  0  0  0  0  0  0  0  0
   -3.6526   -0.6759   -1.1734 H   0  0  0  0  0  0  0  0  0  0  0  0
   -2.4563   -1.5933   -2.0895 H   0  0  0  0  0  0  0  0  0  0  0  0
   -0.8314   -1.3421   -0.2243 H   0  0  0  0  0  0  0  0  0  0  0  0
   -2.0166   -0.3901    0.6802 H   0  0  0  0  0  0  0  0  0  0  0  0
   -2.0728    1.2565   -1.2467 H   0  0  0  0  0  0  0  0  0  0  0  0
   -0.7766    0.3427   -2.0130 H   0  0  0  0  0  0  0  0  0  0  0  0
    1.8314    1.6522   -0.4712 H   0  0  0  0  0  0  0  0  0  0  0  0
    1.2182    0.0906   -1.0777 H   0  0  0  0  0  0  0  0  0  0  0  0
    0.6419   -0.4427    1.3962 H   0  0  0  0  0  0  0  0  0  0  0  0
    1.6968    0.9446    1.8064 H   0  0  0  0  0  0  0  0  0  0  0  0
    4.3535   -2.4359    1.2734 H   0  0  0  0  0  0  0  0  0  0  0  0
    3.6421   -3.6057    0.1315 H   0  0  0  0  0  0  0  0  0  0  0  0
    4.1533   -2.0444   -1.7553 H   0  0  0  0  0  0  0  0  0  0  0  0
    4.8428   -0.8860   -0.6107 H   0  0  0  0  0  0  0  0  0  0  0  0
    5.6251   -2.4497   -0.8688 H   0  0  0  0  0  0  0  0  0  0  0  0
   -2.1593    3.3145   -0.4887 H   0  0  0  0  0  0  0  0  0  0  0  0
   -2.5658    2.1753    0.8063 H   0  0  0  0  0  0  0  0  0  0  0  0
   -1.3162    4.9330    1.2183 H   0  0  0  0  0  0  0  0  0  0  0  0
   -3.0198    4.5342    1.4937 H   0  0  0  0  0  0  0  0  0  0  0  0
   -1.7534    3.8121    2.4984 H   0  0  0  0  0  0  0  0  0  0  0  0
  1  2  1  0  0  0  0
  2  3  1  0  0  0  0
  3  4  1  0  0  0  0
  4  5  1  0  0  0  0
  5  6  1  0  0  0  0
  6  7  1  0  0  0  0
  7  8  1  0  0  0  0
  8  9  1  0  0  0  0
  9 10  2  0  0  0  0
  9 11  1  0  0  0  0
 11 12  1  0  0  0  0
  5 13  4  0  0  0  0
 13 14  2  0  0  0  0
 13 15  1  0  0  0  0
 15 16  1  0  0  0  0
  1 17  1  0  0  0  0
  1 18  1  0  0  0  0
  1 19  1  0  0  0  0
  2 20  1  0  0  0  0
  2 21  1  0  0  0  0
  3 22  1  0  0  0  0
  3 23  1  0  0  0  0
  4 24  1  0  0  0  0
  4 25  1  0  0  0  0
  6 26  1  0  0  0  0
  6 27  1  0  0  0  0
  7 28  1  0  0  0  0
  7 29  1  0  0  0  0
 11 30  1  0  0  0  0
 11 31  1  0  0  0  0
 12 32  1  0  0  0  0
 12 33  1  0  0  0  0
 12 34  1  0  0  0  0
 15 35  1  0  0  0  0
 15 36  1  0  0  0  0
 16 37  1  0  0  0  0
 16 38  1  0  0  0  0
 16 39  1  0  0  0  0
M  END
