 xtb: 6.7.1 (edcfbbe)
          07082618013D

 19 18  0     0  0            999 V2000
   -2.0380   -0.4189   -0.3258 C   0  0  0  0  0  0  0  0  0  0  0  0
   -0.7848    0.3998   -0.6423 C   0  0  0  0  0  0  0  0  0  0  0  0
   -1.0847    1.8950   -0.5963 C   0  0  0  0  0  0  0  0  0  0  0  0
    0.2544    0.1669    0.2945 O   0  0  0  0  0  0  0  0  0  0  0  0
    0.9358   -1.0597    0.1559 C   0  0  0  0  0  0  0  0  0  0  0  0
    2.1385   -1.0070    1.0992 C   0  0  0  0  0  0  0  0  0  0  0  0
    2.9979    0.0524    0.7753 O   0  0  0  0  0  0  0  0  0  0  0  0
   -2.3653   -0.2086    0.6895 H   0  0  0  0  0  0  0  0  0  0  0  0
   -1.8427   -1.4847   -0.4167 H   0  0  0  0  0  0  0  0  0  0  0  0
   -2.8336   -0.1551   -1.0167 H   0  0  0  0  0  0  0  0  0  0  0  0
   -0.4228    0.1289   -1.6494 H   0  0  0  0  0  0  0  0  0  0  0  0
   -1.8565    2.1453   -1.3183 H   0  0  0  0  0  0  0  0  0  0  0  0
   -0.1870    2.4633   -0.8249 H   0  0  0  0  0  0  0  0  0  0  0  0
   -1.4231    2.1684    0.3994 H   0  0  0  0  0  0  0  0  0  0  0  0
    0.2952   -1.9116    0.4212 H   0  0  0  0  0  0  0  0  0  0  0  0
    1.2782   -1.1845   -0.8828 H   0  0  0  0  0  0  0  0  0  0  0  0
    1.7722   -0.9036    2.1305 H   0  0  0  0  0  0  0  0  0  0  0  0
    2.7219   -1.9261    1.0165 H   0  0  0  0  0  0  0  0  0  0  0  0
    2.4444    0.8397    0.6912 H   0  0  0  0  0  0  0  0  0  0  0  0
  1  2  1  0  0  0  0
  2  3  1  0  0  0  0
  2  4  1  0  0  0  0
  4  5  1  0  0  0  0
  5  6  1  0  0  0  0
  6  7  1  0  0  0  0
  1  8  1  0  0  0  0
  1  9  1  0  0  0  0
  1 10  1  0  0  0  0
  2 11  1  0  0  0  0
  3 12  1  0  0  0  0
  3 13  1  0  0  0  0
  3 14  1  0  0  0  0
  5 15  1  0  0  0  0
  5 16  1  0  0  0  0
  6 17  1  0  0  0  0
  6 18  1  0  0  0  0
  7 19  1  0  0  0  0
M  END
