 xtb: 6.7.1 (edcfbbe)
          07082618343D

 18 17  0     0  0            999 V2000
    2.8244    0.0273   -0.0892 C   0  0  0  0  0  0  0  0  0  0  0  0
    1.4524    0.4819   -0.5497 C   0  0  0  0  0  0  0  0  0  0  0  0
    1.2767    1.2854   -1.4393 O   0  0  0  0  0  0  0  0  0  0  0  0
    0.4384   -0.0982    0.1320 N   0  0  0  0  0  0  0  0  0  0  0  0
   -0.9614    0.1768   -0.1250 C   0  0  0  0  0  0  0  0  0  0  0  0
   -1.6755   -1.0999   -0.5640 C   0  0  0  0  0  0  0  0  0  0  0  0
   -1.6150    0.7803    1.1165 C   0  0  0  0  0  0  0  0  0  0  0  0
    2.9734    0.2908    0.9557 H   0  0  0  0  0  0  0  0  0  0  0  0
    3.5833    0.5158   -0.6926 H   0  0  0  0  0  0  0  0  0  0  0  0
    2.9187   -1.0511   -0.1967 H   0  0  0  0  0  0  0  0  0  0  0  0
    0.6467   -0.7601    0.8631 H   0  0  0  0  0  0  0  0  0  0  0  0
   -0.9711    0.9066   -0.9409 H   0  0  0  0  0  0  0  0  0  0  0  0
   -2.7119   -0.8843   -0.8075 H   0  0  0  0  0  0  0  0  0  0  0  0
   -1.1923   -1.5184   -1.4433 H   0  0  0  0  0  0  0  0  0  0  0  0
   -1.6541   -1.8412    0.2333 H   0  0  0  0  0  0  0  0  0  0  0  0
   -1.0909    1.6843    1.4167 H   0  0  0  0  0  0  0  0  0  0  0  0
   -1.5908    0.0710    1.9422 H   0  0  0  0  0  0  0  0  0  0  0  0
   -2.6509    1.0331    0.9086 H   0  0  0  0  0  0  0  0  0  0  0  0
  1  2  1  0  0  0  0
  2  3  2  0  0  0  0
  2  4  4  0  0  0  0
  4  5  1  0  0  0  0
  5  6  1  0  0  0  0
  5  7  1  0  0  0  0
  1  8  1  0  0  0  0
  1  9  1  0  0  0  0
  1 10  1  0  0  0  0
  4 11  1  0  0  0  0
  5 12  1  0  0  0  0
  6 13  1  0  0  0  0
  6 14  1  0  0  0  0
  6 15  1  0  0  0  0
  7 16  1  0  0  0  0
  7 17  1  0  0  0  0
  7 18  1  0  0  0  0
M  END
