 xtb: 6.7.1 (edcfbbe)
          07072610313D

 33 33  0     0  0            999 V2000
    4.1550    1.2663   -0.6868 C   0  0  0  0  0  0  0  0  0  0  0  0
    3.4406    0.0783   -0.0704 C   0  0  0  0  0  0  0  0  0  0  0  0
    2.0637    0.1198   -0.4600 O   0  0  0  0  0  0  0  0  0  0  0  0
    1.1879   -0.5184    0.3156 C   0  0  0  0  0  0  0  0  0  0  0  0
    1.4872   -1.1421    1.2988 O   0  0  0  0  0  0  0  0  0  0  0  0
   -0.2294   -0.3100   -0.2053 C   0  0  0  0  0  0  0  0  0  0  0  0
   -0.9622   -1.6228   -0.2143 C   0  0  0  0  0  0  0  0  0  0  0  0
   -0.6378   -2.5264   -1.3578 C   0  0  0  0  0  0  0  0  0  0  0  0
   -1.8328   -1.9545    0.7421 C   0  0  0  0  0  0  0  0  0  0  0  0
   -2.1557   -1.0929    1.8827 C   0  0  0  0  0  0  0  0  0  0  0  0
   -3.0429   -1.3543    2.6653 O   0  0  0  0  0  0  0  0  0  0  0  0
   -1.2716    0.1250    2.0271 C   0  0  0  0  0  0  0  0  0  0  0  0
   -0.9315    0.7451    0.6725 C   0  0  0  0  0  0  0  0  0  0  0  0
   -2.1938    1.2872   -0.0108 C   0  0  0  0  0  0  0  0  0  0  0  0
   -1.8952    2.2131   -1.1843 C   0  0  0  0  0  0  0  0  0  0  0  0
    5.2058    1.2402   -0.4137 H   0  0  0  0  0  0  0  0  0  0  0  0
    4.0679    1.2352   -1.7695 H   0  0  0  0  0  0  0  0  0  0  0  0
    3.7187    2.1953   -0.3296 H   0  0  0  0  0  0  0  0  0  0  0  0
    3.8700   -0.8663   -0.4222 H   0  0  0  0  0  0  0  0  0  0  0  0
    3.4972    0.0954    1.0232 H   0  0  0  0  0  0  0  0  0  0  0  0
   -0.1309    0.0689   -1.2261 H   0  0  0  0  0  0  0  0  0  0  0  0
   -0.8925   -2.0484   -2.3039 H   0  0  0  0  0  0  0  0  0  0  0  0
    0.4321   -2.7346   -1.3718 H   0  0  0  0  0  0  0  0  0  0  0  0
   -1.1772   -3.4661   -1.2815 H   0  0  0  0  0  0  0  0  0  0  0  0
   -2.3633   -2.8958    0.7041 H   0  0  0  0  0  0  0  0  0  0  0  0
   -1.7561    0.8497    2.6833 H   0  0  0  0  0  0  0  0  0  0  0  0
   -0.3546   -0.2169    2.5154 H   0  0  0  0  0  0  0  0  0  0  0  0
   -0.2420    1.5836    0.8288 H   0  0  0  0  0  0  0  0  0  0  0  0
   -2.8126    0.4526   -0.3453 H   0  0  0  0  0  0  0  0  0  0  0  0
   -2.7688    1.8431    0.7326 H   0  0  0  0  0  0  0  0  0  0  0  0
   -1.2736    3.0466   -0.8642 H   0  0  0  0  0  0  0  0  0  0  0  0
   -2.8218    2.6136   -1.5878 H   0  0  0  0  0  0  0  0  0  0  0  0
   -1.3797    1.6904   -1.9863 H   0  0  0  0  0  0  0  0  0  0  0  0
  1  2  1  0  0  0  0
  2  3  1  0  0  0  0
  3  4  1  0  0  0  0
  4  5  2  0  0  0  0
  4  6  1  0  0  0  0
  6  7  1  0  0  0  0
  7  8  1  0  0  0  0
  7  9  2  0  0  0  0
  9 10  1  0  0  0  0
 10 11  2  0  0  0  0
 10 12  1  0  0  0  0
  6 13  1  0  0  0  0
 12 13  1  0  0  0  0
 13 14  1  0  0  0  0
 14 15  1  0  0  0  0
  1 16  1  0  0  0  0
  1 17  1  0  0  0  0
  1 18  1  0  0  0  0
  2 19  1  0  0  0  0
  2 20  1  0  0  0  0
  6 21  1  0  0  0  0
  8 22  1  0  0  0  0
  8 23  1  0  0  0  0
  8 24  1  0  0  0  0
  9 25  1  0  0  0  0
 12 26  1  0  0  0  0
 12 27  1  0  0  0  0
 13 28  1  0  0  0  0
 14 29  1  0  0  0  0
 14 30  1  0  0  0  0
 15 31  1  0  0  0  0
 15 32  1  0  0  0  0
 15 33  1  0  0  0  0
M  END
