 xtb: 6.7.1 (edcfbbe)
          07072618153D

 26 26  0     0  0            999 V2000
    5.7214   -0.0395   -0.0194 C   0  0  0  0  0  0  0  0  0  0  0  0
    4.4878   -0.4888   -0.1445 C   0  0  0  0  0  0  0  0  0  0  0  0
    3.6125   -0.8729    1.0087 C   0  0  0  0  0  0  0  0  0  0  0  0
    2.3496   -0.2119    0.9377 O   0  0  0  0  0  0  0  0  0  0  0  0
    1.3381   -0.8734    0.3482 C   0  0  0  0  0  0  0  0  0  0  0  0
    1.4335   -1.9938   -0.0940 O   0  0  0  0  0  0  0  0  0  0  0  0
    0.1225   -0.0500    0.3357 C   0  0  0  0  0  0  0  0  0  0  0  0
   -1.0164   -0.5285   -0.1806 C   0  0  0  0  0  0  0  0  0  0  0  0
   -2.2947    0.1483   -0.2690 C   0  0  0  0  0  0  0  0  0  0  0  0
   -3.3999   -0.5592   -0.7512 C   0  0  0  0  0  0  0  0  0  0  0  0
   -4.6392    0.0424   -0.8500 C   0  0  0  0  0  0  0  0  0  0  0  0
   -4.8000    1.3662   -0.4740 C   0  0  0  0  0  0  0  0  0  0  0  0
   -3.7127    2.0827    0.0017 C   0  0  0  0  0  0  0  0  0  0  0  0
   -2.4733    1.4831    0.1051 C   0  0  0  0  0  0  0  0  0  0  0  0
    6.3238    0.2108   -0.8754 H   0  0  0  0  0  0  0  0  0  0  0  0
    6.1842    0.0854    0.9458 H   0  0  0  0  0  0  0  0  0  0  0  0
    4.0292   -0.6095   -1.1166 H   0  0  0  0  0  0  0  0  0  0  0  0
    3.4368   -1.9573    0.9921 H   0  0  0  0  0  0  0  0  0  0  0  0
    4.0587   -0.5791    1.9614 H   0  0  0  0  0  0  0  0  0  0  0  0
    0.2241    0.9333    0.7661 H   0  0  0  0  0  0  0  0  0  0  0  0
   -0.9882   -1.5390   -0.5725 H   0  0  0  0  0  0  0  0  0  0  0  0
   -3.2772   -1.5916   -1.0454 H   0  0  0  0  0  0  0  0  0  0  0  0
   -5.4830   -0.5197   -1.2224 H   0  0  0  0  0  0  0  0  0  0  0  0
   -5.7677    1.8390   -0.5527 H   0  0  0  0  0  0  0  0  0  0  0  0
   -3.8348    3.1158    0.2925 H   0  0  0  0  0  0  0  0  0  0  0  0
   -1.6352    2.0542    0.4727 H   0  0  0  0  0  0  0  0  0  0  0  0
  1  2  2  0  0  0  0
  2  3  1  0  0  0  0
  3  4  1  0  0  0  0
  4  5  1  0  0  0  0
  5  6  2  0  0  0  0
  5  7  1  0  0  0  0
  7  8  2  0  0  0  0
  8  9  1  0  0  0  0
  9 10  4  0  0  0  0
 10 11  4  0  0  0  0
 11 12  4  0  0  0  0
 12 13  4  0  0  0  0
  9 14  4  0  0  0  0
 13 14  4  0  0  0  0
  1 15  1  0  0  0  0
  1 16  1  0  0  0  0
  2 17  1  0  0  0  0
  3 18  1  0  0  0  0
  3 19  1  0  0  0  0
  7 20  1  0  0  0  0
  8 21  1  0  0  0  0
 10 22  1  0  0  0  0
 11 23  1  0  0  0  0
 12 24  1  0  0  0  0
 13 25  1  0  0  0  0
 14 26  1  0  0  0  0
M  END
