 xtb: 6.7.1 (edcfbbe)
          07082623163D

 24 24  0     0  0            999 V2000
    2.7218   -0.3749    0.5058 C   0  0  0  0  0  0  0  0  0  0  0  0
    1.9773    0.4143   -0.5301 C   0  0  0  0  0  0  0  0  0  0  0  0
    2.5406    1.0139   -1.4180 O   0  0  0  0  0  0  0  0  0  0  0  0
    0.4491    0.4649   -0.4576 C   0  0  0  0  0  0  0  0  0  0  0  0
    0.0018    1.4594   -1.3486 O   0  0  0  0  0  0  0  0  0  0  0  0
   -0.1034   -0.9123   -0.8971 C   0  0  0  0  0  0  0  0  0  0  0  0
   -1.6282   -0.8893   -0.8610 C   0  0  0  0  0  0  0  0  0  0  0  0
   -2.1243   -0.5594    0.5426 C   0  0  0  0  0  0  0  0  0  0  0  0
   -1.5786    0.7956    0.9803 C   0  0  0  0  0  0  0  0  0  0  0  0
   -0.0526    0.7893    0.9592 C   0  0  0  0  0  0  0  0  0  0  0  0
    3.7321   -0.5710    0.1551 H   0  0  0  0  0  0  0  0  0  0  0  0
    2.2202   -1.3078    0.7426 H   0  0  0  0  0  0  0  0  0  0  0  0
    2.7820    0.2236    1.4139 H   0  0  0  0  0  0  0  0  0  0  0  0
    0.7671    1.7090   -1.8942 H   0  0  0  0  0  0  0  0  0  0  0  0
    0.2440   -1.1250   -1.9103 H   0  0  0  0  0  0  0  0  0  0  0  0
    0.2701   -1.6908   -0.2304 H   0  0  0  0  0  0  0  0  0  0  0  0
   -2.0141   -1.8582   -1.1841 H   0  0  0  0  0  0  0  0  0  0  0  0
   -1.9820   -0.1267   -1.5558 H   0  0  0  0  0  0  0  0  0  0  0  0
   -1.7939   -1.3329    1.2414 H   0  0  0  0  0  0  0  0  0  0  0  0
   -3.2155   -0.5407    0.5544 H   0  0  0  0  0  0  0  0  0  0  0  0
   -1.9326    1.5657    0.2944 H   0  0  0  0  0  0  0  0  0  0  0  0
   -1.9282    1.0393    1.9855 H   0  0  0  0  0  0  0  0  0  0  0  0
    0.3214    0.0435    1.6614 H   0  0  0  0  0  0  0  0  0  0  0  0
    0.3258    1.7708    1.2507 H   0  0  0  0  0  0  0  0  0  0  0  0
  1  2  1  0  0  0  0
  2  3  2  0  0  0  0
  2  4  1  0  0  0  0
  4  5  1  0  0  0  0
  4  6  1  0  0  0  0
  6  7  1  0  0  0  0
  7  8  1  0  0  0  0
  8  9  1  0  0  0  0
  4 10  1  0  0  0  0
  9 10  1  0  0  0  0
  1 11  1  0  0  0  0
  1 12  1  0  0  0  0
  1 13  1  0  0  0  0
  5 14  1  0  0  0  0
  6 15  1  0  0  0  0
  6 16  1  0  0  0  0
  7 17  1  0  0  0  0
  7 18  1  0  0  0  0
  8 19  1  0  0  0  0
  8 20  1  0  0  0  0
  9 21  1  0  0  0  0
  9 22  1  0  0  0  0
 10 23  1  0  0  0  0
 10 24  1  0  0  0  0
M  END
