 xtb: 6.7.1 (edcfbbe)
          07072607353D

 34 35  0     0  0            999 V2000
   -4.1575    0.0942   -0.4891 C   0  0  0  0  0  0  0  0  0  0  0  0
   -2.6552   -0.1374   -0.3592 C   0  0  0  0  0  0  0  0  0  0  0  0
   -2.3270   -0.8063    0.9725 C   0  0  0  0  0  0  0  0  0  0  0  0
   -1.9206    1.2030   -0.4912 C   0  0  0  0  0  0  0  0  0  0  0  0
   -0.4832    1.0348   -0.5200 N   0  0  0  0  0  0  0  0  0  0  0  0
    0.3418    1.3334    0.5455 C   0  0  0  0  0  0  0  0  0  0  0  0
   -0.0343    1.7048    1.6252 O   0  0  0  0  0  0  0  0  0  0  0  0
    1.7705    1.1797    0.0508 C   0  0  0  0  0  0  0  0  0  0  0  0
    2.7636    0.7283    1.1190 C   0  0  0  0  0  0  0  0  0  0  0  0
    2.6759   -0.7685    1.3909 C   0  0  0  0  0  0  0  0  0  0  0  0
    2.8385   -1.5416    0.0872 C   0  0  0  0  0  0  0  0  0  0  0  0
    1.6771   -1.2168   -0.8432 C   0  0  0  0  0  0  0  0  0  0  0  0
    1.6189    0.2841   -1.1812 C   0  0  0  0  0  0  0  0  0  0  0  0
    0.1925    0.5544   -1.6236 C   0  0  0  0  0  0  0  0  0  0  0  0
   -0.3082    0.3420   -2.6961 O   0  0  0  0  0  0  0  0  0  0  0  0
   -4.3961    0.5402   -1.4516 H   0  0  0  0  0  0  0  0  0  0  0  0
   -4.6926   -0.8484   -0.4060 H   0  0  0  0  0  0  0  0  0  0  0  0
   -4.5079    0.7589    0.2977 H   0  0  0  0  0  0  0  0  0  0  0  0
   -2.3248   -0.7841   -1.1795 H   0  0  0  0  0  0  0  0  0  0  0  0
   -1.2586   -0.9868    1.0689 H   0  0  0  0  0  0  0  0  0  0  0  0
   -2.8414   -1.7608    1.0541 H   0  0  0  0  0  0  0  0  0  0  0  0
   -2.6365   -0.1724    1.8004 H   0  0  0  0  0  0  0  0  0  0  0  0
   -2.2174    1.6950   -1.4216 H   0  0  0  0  0  0  0  0  0  0  0  0
   -2.1506    1.8476    0.3605 H   0  0  0  0  0  0  0  0  0  0  0  0
    2.0616    2.1865   -0.2781 H   0  0  0  0  0  0  0  0  0  0  0  0
    2.5590    1.2901    2.0323 H   0  0  0  0  0  0  0  0  0  0  0  0
    3.7755    0.9714    0.7875 H   0  0  0  0  0  0  0  0  0  0  0  0
    1.7091   -1.0058    1.8401 H   0  0  0  0  0  0  0  0  0  0  0  0
    3.4539   -1.0536    2.1008 H   0  0  0  0  0  0  0  0  0  0  0  0
    3.7843   -1.2705   -0.3863 H   0  0  0  0  0  0  0  0  0  0  0  0
    2.8533   -2.6149    0.2834 H   0  0  0  0  0  0  0  0  0  0  0  0
    1.7503   -1.7827   -1.7729 H   0  0  0  0  0  0  0  0  0  0  0  0
    0.7464   -1.5120   -0.3503 H   0  0  0  0  0  0  0  0  0  0  0  0
    2.3396    0.5141   -1.9669 H   0  0  0  0  0  0  0  0  0  0  0  0
  1  2  1  0  0  0  0
  2  3  1  0  0  0  0
  2  4  1  0  0  0  0
  4  5  1  0  0  0  0
  5  6  1  0  0  0  0
  6  7  2  0  0  0  0
  6  8  1  0  0  0  0
  8  9  1  0  0  0  0
  9 10  1  0  0  0  0
 10 11  1  0  0  0  0
 11 12  1  0  0  0  0
  8 13  1  0  0  0  0
 12 13  1  0  0  0  0
  5 14  1  0  0  0  0
 13 14  1  0  0  0  0
 14 15  2  0  0  0  0
  1 16  1  0  0  0  0
  1 17  1  0  0  0  0
  1 18  1  0  0  0  0
  2 19  1  0  0  0  0
  3 20  1  0  0  0  0
  3 21  1  0  0  0  0
  3 22  1  0  0  0  0
  4 23  1  0  0  0  0
  4 24  1  0  0  0  0
  8 25  1  0  0  0  0
  9 26  1  0  0  0  0
  9 27  1  0  0  0  0
 10 28  1  0  0  0  0
 10 29  1  0  0  0  0
 11 30  1  0  0  0  0
 11 31  1  0  0  0  0
 12 32  1  0  0  0  0
 12 33  1  0  0  0  0
 13 34  1  0  0  0  0
M  END
