 xtb: 6.7.1 (edcfbbe)
          07092617053D

 26 26  0     0  0            999 V2000
    3.2512    1.0098    0.4222 C   0  0  0  0  0  0  0  0  0  0  0  0
    2.1891    0.0449    0.9263 C   0  0  0  0  0  0  0  0  0  0  0  0
    1.0697    0.1622    0.0708 O   0  0  0  0  0  0  0  0  0  0  0  0
   -0.0358   -0.6173    0.2879 C   0  0  0  0  0  0  0  0  0  0  0  0
   -0.1569   -1.5174    1.3373 C   0  0  0  0  0  0  0  0  0  0  0  0
   -1.3196   -2.2552    1.4911 C   0  0  0  0  0  0  0  0  0  0  0  0
   -2.3635   -2.1026    0.6008 C   0  0  0  0  0  0  0  0  0  0  0  0
   -2.2371   -1.2098   -0.4509 C   0  0  0  0  0  0  0  0  0  0  0  0
   -1.0864   -0.4609   -0.6297 C   0  0  0  0  0  0  0  0  0  0  0  0
   -0.9831    0.5139   -1.7717 C   0  0  0  0  0  0  0  0  0  0  0  0
   -1.2434    1.9625   -1.3235 C   0  0  0  0  0  0  0  0  0  0  0  0
   -0.1017    2.6019   -0.8133 O   0  0  0  0  0  0  0  0  0  0  0  0
    3.5280    0.7575   -0.5978 H   0  0  0  0  0  0  0  0  0  0  0  0
    2.8697    2.0276    0.4345 H   0  0  0  0  0  0  0  0  0  0  0  0
    4.1319    0.9513    1.0550 H   0  0  0  0  0  0  0  0  0  0  0  0
    1.9038    0.2978    1.9569 H   0  0  0  0  0  0  0  0  0  0  0  0
    2.5699   -0.9851    0.9081 H   0  0  0  0  0  0  0  0  0  0  0  0
    0.6469   -1.6498    2.0442 H   0  0  0  0  0  0  0  0  0  0  0  0
   -1.4001   -2.9491    2.3144 H   0  0  0  0  0  0  0  0  0  0  0  0
   -3.2706   -2.6752    0.7194 H   0  0  0  0  0  0  0  0  0  0  0  0
   -3.0496   -1.0916   -1.1531 H   0  0  0  0  0  0  0  0  0  0  0  0
    0.0130    0.4675   -2.2171 H   0  0  0  0  0  0  0  0  0  0  0  0
   -1.7174    0.2454   -2.5322 H   0  0  0  0  0  0  0  0  0  0  0  0
   -2.0507    1.9688   -0.5732 H   0  0  0  0  0  0  0  0  0  0  0  0
   -1.5677    2.5645   -2.1780 H   0  0  0  0  0  0  0  0  0  0  0  0
    0.4102    1.9385   -0.3284 H   0  0  0  0  0  0  0  0  0  0  0  0
  1  2  1  0  0  0  0
  2  3  1  0  0  0  0
  3  4  1  0  0  0  0
  4  5  4  0  0  0  0
  5  6  4  0  0  0  0
  6  7  4  0  0  0  0
  7  8  4  0  0  0  0
  4  9  4  0  0  0  0
  8  9  4  0  0  0  0
  9 10  1  0  0  0  0
 10 11  1  0  0  0  0
 11 12  1  0  0  0  0
  1 13  1  0  0  0  0
  1 14  1  0  0  0  0
  1 15  1  0  0  0  0
  2 16  1  0  0  0  0
  2 17  1  0  0  0  0
  5 18  1  0  0  0  0
  6 19  1  0  0  0  0
  7 20  1  0  0  0  0
  8 21  1  0  0  0  0
 10 22  1  0  0  0  0
 10 23  1  0  0  0  0
 11 24  1  0  0  0  0
 11 25  1  0  0  0  0
 12 26  1  0  0  0  0
M  END
