 xtb: 6.7.1 (edcfbbe)
          07082609323D

 31 30  0     0  0            999 V2000
    3.4981   -0.8585    1.0104 C   0  0  0  0  0  0  0  0  0  0  0  0
    2.4706   -0.0359    0.2856 C   0  0  0  0  0  0  0  0  0  0  0  0
    2.4468    1.4012    0.7151 C   0  0  0  0  0  0  0  0  0  0  0  0
    1.6895   -0.5793   -0.6396 C   0  0  0  0  0  0  0  0  0  0  0  0
    0.6140    0.0703   -1.4532 C   0  0  0  0  0  0  0  0  0  0  0  0
   -0.6997   -0.7146   -1.3660 C   0  0  0  0  0  0  0  0  0  0  0  0
   -1.2350   -0.8698    0.0620 C   0  0  0  0  0  0  0  0  0  0  0  0
   -2.4925   -1.7393    0.0484 C   0  0  0  0  0  0  0  0  0  0  0  0
   -1.4849    0.4661    0.7744 C   0  0  0  0  0  0  0  0  0  0  0  0
   -2.4324    1.4265    0.0540 C   0  0  0  0  0  0  0  0  0  0  0  0
   -2.5865    2.6397    0.7578 O   0  0  0  0  0  0  0  0  0  0  0  0
    3.3194   -0.8235    2.0850 H   0  0  0  0  0  0  0  0  0  0  0  0
    4.4968   -0.4612    0.8299 H   0  0  0  0  0  0  0  0  0  0  0  0
    3.4747   -1.8961    0.6878 H   0  0  0  0  0  0  0  0  0  0  0  0
    2.1902    1.4690    1.7728 H   0  0  0  0  0  0  0  0  0  0  0  0
    3.4370    1.8389    0.5899 H   0  0  0  0  0  0  0  0  0  0  0  0
    1.7388    1.9962    0.1478 H   0  0  0  0  0  0  0  0  0  0  0  0
    1.8188   -1.6327   -0.8615 H   0  0  0  0  0  0  0  0  0  0  0  0
    0.4493    1.1019   -1.1486 H   0  0  0  0  0  0  0  0  0  0  0  0
    0.9306    0.0847   -2.5017 H   0  0  0  0  0  0  0  0  0  0  0  0
   -0.5348   -1.7160   -1.7723 H   0  0  0  0  0  0  0  0  0  0  0  0
   -1.4527   -0.2303   -1.9904 H   0  0  0  0  0  0  0  0  0  0  0  0
   -0.4687   -1.3926    0.6469 H   0  0  0  0  0  0  0  0  0  0  0  0
   -3.2590   -1.3041   -0.5884 H   0  0  0  0  0  0  0  0  0  0  0  0
   -2.2610   -2.7310   -0.3340 H   0  0  0  0  0  0  0  0  0  0  0  0
   -2.8971   -1.8487    1.0523 H   0  0  0  0  0  0  0  0  0  0  0  0
   -1.8997    0.2515    1.7652 H   0  0  0  0  0  0  0  0  0  0  0  0
   -0.5326    0.9757    0.9273 H   0  0  0  0  0  0  0  0  0  0  0  0
   -2.0296    1.7162   -0.9178 H   0  0  0  0  0  0  0  0  0  0  0  0
   -3.4129    0.9547   -0.1001 H   0  0  0  0  0  0  0  0  0  0  0  0
   -2.8955    2.4408    1.6487 H   0  0  0  0  0  0  0  0  0  0  0  0
  1  2  1  0  0  0  0
  2  3  1  0  0  0  0
  2  4  2  0  0  0  0
  4  5  1  0  0  0  0
  5  6  1  0  0  0  0
  6  7  1  0  0  0  0
  7  8  1  0  0  0  0
  7  9  1  0  0  0  0
  9 10  1  0  0  0  0
 10 11  1  0  0  0  0
  1 12  1  0  0  0  0
  1 13  1  0  0  0  0
  1 14  1  0  0  0  0
  3 15  1  0  0  0  0
  3 16  1  0  0  0  0
  3 17  1  0  0  0  0
  4 18  1  0  0  0  0
  5 19  1  0  0  0  0
  5 20  1  0  0  0  0
  6 21  1  0  0  0  0
  6 22  1  0  0  0  0
  7 23  1  0  0  0  0
  8 24  1  0  0  0  0
  8 25  1  0  0  0  0
  8 26  1  0  0  0  0
  9 27  1  0  0  0  0
  9 28  1  0  0  0  0
 10 29  1  0  0  0  0
 10 30  1  0  0  0  0
 11 31  1  0  0  0  0
M  END
