 xtb: 6.7.1 (edcfbbe)
          07082601303D

 34 34  0     0  0            999 V2000
    5.0745    1.2075    0.4430 C   0  0  0  0  0  0  0  0  0  0  0  0
    3.7757    0.6285    0.9902 C   0  0  0  0  0  0  0  0  0  0  0  0
    2.7469    0.4003   -0.1146 C   0  0  0  0  0  0  0  0  0  0  0  0
    1.4449   -0.1784    0.4308 C   0  0  0  0  0  0  0  0  0  0  0  0
    0.4330   -0.4211   -0.6903 C   0  0  0  0  0  0  0  0  0  0  0  0
   -0.8459   -0.9168   -0.1959 N   0  0  0  0  0  0  0  0  0  0  0  0
   -0.8869   -2.2096    0.2390 C   0  0  0  0  0  0  0  0  0  0  0  0
   -2.1519   -2.6650    0.9333 C   0  0  0  0  0  0  0  0  0  0  0  0
    0.0738   -2.9427    0.1147 O   0  0  0  0  0  0  0  0  0  0  0  0
   -1.9536   -0.0479   -0.2474 C   0  0  0  0  0  0  0  0  0  0  0  0
   -3.1321   -0.4386   -0.8790 C   0  0  0  0  0  0  0  0  0  0  0  0
   -4.2077    0.4270   -0.9469 C   0  0  0  0  0  0  0  0  0  0  0  0
   -4.1188    1.6972   -0.4027 C   0  0  0  0  0  0  0  0  0  0  0  0
   -2.9418    2.0996    0.2050 C   0  0  0  0  0  0  0  0  0  0  0  0
   -1.8645    1.2361    0.2835 C   0  0  0  0  0  0  0  0  0  0  0  0
    5.5142    0.5321   -0.2875 H   0  0  0  0  0  0  0  0  0  0  0  0
    4.8920    2.1639   -0.0426 H   0  0  0  0  0  0  0  0  0  0  0  0
    5.7933    1.3614    1.2444 H   0  0  0  0  0  0  0  0  0  0  0  0
    3.3606    1.3106    1.7361 H   0  0  0  0  0  0  0  0  0  0  0  0
    3.9823   -0.3207    1.4887 H   0  0  0  0  0  0  0  0  0  0  0  0
    3.1615   -0.2855   -0.8563 H   0  0  0  0  0  0  0  0  0  0  0  0
    2.5414    1.3488   -0.6182 H   0  0  0  0  0  0  0  0  0  0  0  0
    1.0231    0.5046    1.1719 H   0  0  0  0  0  0  0  0  0  0  0  0
    1.6443   -1.1291    0.9268 H   0  0  0  0  0  0  0  0  0  0  0  0
    0.8397   -1.1744   -1.3724 H   0  0  0  0  0  0  0  0  0  0  0  0
    0.2470    0.4991   -1.2480 H   0  0  0  0  0  0  0  0  0  0  0  0
   -2.7910   -3.1948    0.2302 H   0  0  0  0  0  0  0  0  0  0  0  0
   -1.8662   -3.3692    1.7116 H   0  0  0  0  0  0  0  0  0  0  0  0
   -2.7036   -1.8361    1.3665 H   0  0  0  0  0  0  0  0  0  0  0  0
   -3.1948   -1.4172   -1.3289 H   0  0  0  0  0  0  0  0  0  0  0  0
   -5.1163    0.1111   -1.4377 H   0  0  0  0  0  0  0  0  0  0  0  0
   -4.9593    2.3721   -0.4587 H   0  0  0  0  0  0  0  0  0  0  0  0
   -2.8614    3.0912    0.6253 H   0  0  0  0  0  0  0  0  0  0  0  0
   -0.9526    1.5559    0.7631 H   0  0  0  0  0  0  0  0  0  0  0  0
  1  2  1  0  0  0  0
  2  3  1  0  0  0  0
  3  4  1  0  0  0  0
  4  5  1  0  0  0  0
  5  6  1  0  0  0  0
  6  7  4  0  0  0  0
  7  8  1  0  0  0  0
  7  9  2  0  0  0  0
  6 10  1  0  0  0  0
 10 11  4  0  0  0  0
 11 12  4  0  0  0  0
 12 13  4  0  0  0  0
 13 14  4  0  0  0  0
 10 15  4  0  0  0  0
 14 15  4  0  0  0  0
  1 16  1  0  0  0  0
  1 17  1  0  0  0  0
  1 18  1  0  0  0  0
  2 19  1  0  0  0  0
  2 20  1  0  0  0  0
  3 21  1  0  0  0  0
  3 22  1  0  0  0  0
  4 23  1  0  0  0  0
  4 24  1  0  0  0  0
  5 25  1  0  0  0  0
  5 26  1  0  0  0  0
  8 27  1  0  0  0  0
  8 28  1  0  0  0  0
  8 29  1  0  0  0  0
 11 30  1  0  0  0  0
 12 31  1  0  0  0  0
 13 32  1  0  0  0  0
 14 33  1  0  0  0  0
 15 34  1  0  0  0  0
M  END
