 xtb: 6.7.1 (edcfbbe)
          07092604153D

 22 23  0     0  0            999 V2000
    2.6756    1.0147    0.1796 C   0  0  0  0  0  0  0  0  0  0  0  0
    2.8393   -0.3603    0.1727 C   0  0  0  0  0  0  0  0  0  0  0  0
    1.7294   -1.1784    0.0904 C   0  0  0  0  0  0  0  0  0  0  0  0
    0.4460   -0.6481    0.0148 C   0  0  0  0  0  0  0  0  0  0  0  0
    0.2817    0.7345    0.0183 C   0  0  0  0  0  0  0  0  0  0  0  0
    1.4048    1.5503    0.1032 C   0  0  0  0  0  0  0  0  0  0  0  0
   -1.0820    1.3692   -0.0345 C   0  0  0  0  0  0  0  0  0  0  0  0
   -2.1538    0.4062   -0.5319 C   0  0  0  0  0  0  0  0  0  0  0  0
   -2.0494   -0.9050    0.2363 C   0  0  0  0  0  0  0  0  0  0  0  0
   -0.7271   -1.5839   -0.1015 C   0  0  0  0  0  0  0  0  0  0  0  0
    3.5353    1.6656    0.2438 H   0  0  0  0  0  0  0  0  0  0  0  0
    3.8278   -0.7918    0.2316 H   0  0  0  0  0  0  0  0  0  0  0  0
    1.8533   -2.2527    0.0844 H   0  0  0  0  0  0  0  0  0  0  0  0
    1.2730    2.6237    0.1086 H   0  0  0  0  0  0  0  0  0  0  0  0
   -1.3426    1.7061    0.9751 H   0  0  0  0  0  0  0  0  0  0  0  0
   -1.0459    2.2574   -0.6702 H   0  0  0  0  0  0  0  0  0  0  0  0
   -3.1419    0.8519   -0.3996 H   0  0  0  0  0  0  0  0  0  0  0  0
   -2.0108    0.2134   -1.5976 H   0  0  0  0  0  0  0  0  0  0  0  0
   -2.8804   -1.5665   -0.0172 H   0  0  0  0  0  0  0  0  0  0  0  0
   -2.0961   -0.7007    1.3084 H   0  0  0  0  0  0  0  0  0  0  0  0
   -0.5686   -2.4490    0.5472 H   0  0  0  0  0  0  0  0  0  0  0  0
   -0.7676   -1.9565   -1.1311 H   0  0  0  0  0  0  0  0  0  0  0  0
  1  2  4  0  0  0  0
  2  3  4  0  0  0  0
  3  4  4  0  0  0  0
  4  5  4  0  0  0  0
  1  6  4  0  0  0  0
  5  6  4  0  0  0  0
  5  7  1  0  0  0  0
  7  8  1  0  0  0  0
  8  9  1  0  0  0  0
  4 10  1  0  0  0  0
  9 10  1  0  0  0  0
  1 11  1  0  0  0  0
  2 12  1  0  0  0  0
  3 13  1  0  0  0  0
  6 14  1  0  0  0  0
  7 15  1  0  0  0  0
  7 16  1  0  0  0  0
  8 17  1  0  0  0  0
  8 18  1  0  0  0  0
  9 19  1  0  0  0  0
  9 20  1  0  0  0  0
 10 21  1  0  0  0  0
 10 22  1  0  0  0  0
M  END
