 xtb: 6.7.1 (edcfbbe)
          07072619213D

 28 27  0     0  0            999 V2000
   -2.5771    1.4072    0.3493 C   0  0  0  0  0  0  0  0  0  0  0  0
   -1.6035    0.4313   -0.3110 C   0  0  0  0  0  0  0  0  0  0  0  0
   -2.3580   -0.4851   -1.2716 C   0  0  0  0  0  0  0  0  0  0  0  0
   -0.8678   -0.3604    0.7750 C   0  0  0  0  0  0  0  0  0  0  0  0
    0.2103   -1.3323    0.2761 C   0  0  0  0  0  0  0  0  0  0  0  0
    0.8640   -1.9378    1.3869 O   0  0  0  0  0  0  0  0  0  0  0  0
    1.2967   -0.6977   -0.6029 C   0  0  0  0  0  0  0  0  0  0  0  0
    2.0490    0.4733    0.0418 C   0  0  0  0  0  0  0  0  0  0  0  0
    2.9996    1.1163   -0.9667 C   0  0  0  0  0  0  0  0  0  0  0  0
    2.8088    0.0564    1.1545 O   0  0  0  0  0  0  0  0  0  0  0  0
   -3.3268    0.8668    0.9238 H   0  0  0  0  0  0  0  0  0  0  0  0
   -3.0877    2.0031   -0.4034 H   0  0  0  0  0  0  0  0  0  0  0  0
   -2.0511    2.0822    1.0204 H   0  0  0  0  0  0  0  0  0  0  0  0
   -0.8728    1.0130   -0.8812 H   0  0  0  0  0  0  0  0  0  0  0  0
   -2.9187    0.1076   -1.9908 H   0  0  0  0  0  0  0  0  0  0  0  0
   -3.0602   -1.1121   -0.7260 H   0  0  0  0  0  0  0  0  0  0  0  0
   -1.6764   -1.1273   -1.8229 H   0  0  0  0  0  0  0  0  0  0  0  0
   -0.4015    0.3393    1.4723 H   0  0  0  0  0  0  0  0  0  0  0  0
   -1.6059   -0.9400    1.3406 H   0  0  0  0  0  0  0  0  0  0  0  0
   -0.2720   -2.1277   -0.3157 H   0  0  0  0  0  0  0  0  0  0  0  0
    0.1999   -2.2908    1.9879 H   0  0  0  0  0  0  0  0  0  0  0  0
    2.0255   -1.4783   -0.8337 H   0  0  0  0  0  0  0  0  0  0  0  0
    0.8438   -0.3677   -1.5376 H   0  0  0  0  0  0  0  0  0  0  0  0
    1.3240    1.2391    0.3683 H   0  0  0  0  0  0  0  0  0  0  0  0
    3.5717    1.8958   -0.4719 H   0  0  0  0  0  0  0  0  0  0  0  0
    2.4443    1.5500   -1.7941 H   0  0  0  0  0  0  0  0  0  0  0  0
    3.6930    0.3716   -1.3486 H   0  0  0  0  0  0  0  0  0  0  0  0
    2.3489   -0.6958    1.5536 H   0  0  0  0  0  0  0  0  0  0  0  0
  1  2  1  0  0  0  0
  2  3  1  0  0  0  0
  2  4  1  0  0  0  0
  4  5  1  0  0  0  0
  5  6  1  0  0  0  0
  5  7  1  0  0  0  0
  7  8  1  0  0  0  0
  8  9  1  0  0  0  0
  8 10  1  0  0  0  0
  1 11  1  0  0  0  0
  1 12  1  0  0  0  0
  1 13  1  0  0  0  0
  2 14  1  0  0  0  0
  3 15  1  0  0  0  0
  3 16  1  0  0  0  0
  3 17  1  0  0  0  0
  4 18  1  0  0  0  0
  4 19  1  0  0  0  0
  5 20  1  0  0  0  0
  6 21  1  0  0  0  0
  7 22  1  0  0  0  0
  7 23  1  0  0  0  0
  8 24  1  0  0  0  0
  9 25  1  0  0  0  0
  9 26  1  0  0  0  0
  9 27  1  0  0  0  0
 10 28  1  0  0  0  0
M  END
