 xtb: 6.7.1 (edcfbbe)
          07092615253D

 22 22  0     0  0            999 V2000
    4.2328    1.2499    0.1627 C   0  0  0  0  0  0  0  0  0  0  0  0
    3.1584    0.6511   -0.3125 C   0  0  0  0  0  0  0  0  0  0  0  0
    2.5102   -0.5398    0.3238 C   0  0  0  0  0  0  0  0  0  0  0  0
    1.1158   -0.3174    0.5383 O   0  0  0  0  0  0  0  0  0  0  0  0
    0.2804   -0.6824   -0.4448 C   0  0  0  0  0  0  0  0  0  0  0  0
    0.6441   -1.2034   -1.4718 O   0  0  0  0  0  0  0  0  0  0  0  0
   -1.1361   -0.3876   -0.1183 C   0  0  0  0  0  0  0  0  0  0  0  0
   -1.5035    0.2475    1.0649 C   0  0  0  0  0  0  0  0  0  0  0  0
   -2.8382    0.4990    1.3230 C   0  0  0  0  0  0  0  0  0  0  0  0
   -3.8091    0.1213    0.4086 C   0  0  0  0  0  0  0  0  0  0  0  0
   -3.4467   -0.5098   -0.7709 C   0  0  0  0  0  0  0  0  0  0  0  0
   -2.1146   -0.7638   -1.0356 C   0  0  0  0  0  0  0  0  0  0  0  0
    4.7185    0.9126    1.0637 H   0  0  0  0  0  0  0  0  0  0  0  0
    4.6781    2.0942   -0.3341 H   0  0  0  0  0  0  0  0  0  0  0  0
    2.6752    0.9961   -1.2165 H   0  0  0  0  0  0  0  0  0  0  0  0
    2.6260   -1.4140   -0.3309 H   0  0  0  0  0  0  0  0  0  0  0  0
    2.9368   -0.7473    1.3074 H   0  0  0  0  0  0  0  0  0  0  0  0
   -0.7418    0.5393    1.7706 H   0  0  0  0  0  0  0  0  0  0  0  0
   -3.1246    0.9916    2.2404 H   0  0  0  0  0  0  0  0  0  0  0  0
   -4.8503    0.3199    0.6162 H   0  0  0  0  0  0  0  0  0  0  0  0
   -4.2042   -0.8029   -1.4825 H   0  0  0  0  0  0  0  0  0  0  0  0
   -1.8074   -1.2539   -1.9471 H   0  0  0  0  0  0  0  0  0  0  0  0
  1  2  2  0  0  0  0
  2  3  1  0  0  0  0
  3  4  1  0  0  0  0
  4  5  1  0  0  0  0
  5  6  2  0  0  0  0
  5  7  1  0  0  0  0
  7  8  4  0  0  0  0
  8  9  4  0  0  0  0
  9 10  4  0  0  0  0
 10 11  4  0  0  0  0
  7 12  4  0  0  0  0
 11 12  4  0  0  0  0
  1 13  1  0  0  0  0
  1 14  1  0  0  0  0
  2 15  1  0  0  0  0
  3 16  1  0  0  0  0
  3 17  1  0  0  0  0
  8 18  1  0  0  0  0
  9 19  1  0  0  0  0
 10 20  1  0  0  0  0
 11 21  1  0  0  0  0
 12 22  1  0  0  0  0
M  END
