 xtb: 6.7.1 (edcfbbe)
          07072608253D

 34 35  0     0  0            999 V2000
    3.6082    1.3486    0.0918 C   0  0  0  0  0  0  0  0  0  0  0  0
    2.7193    0.1825   -0.3297 C   0  0  0  0  0  0  0  0  0  0  0  0
    2.2546   -0.6244    0.8817 C   0  0  0  0  0  0  0  0  0  0  0  0
    1.4766   -1.8555    0.4340 C   0  0  0  0  0  0  0  0  0  0  0  0
    0.3150   -1.4983   -0.4883 C   0  0  0  0  0  0  0  0  0  0  0  0
   -0.9058   -0.9379    0.2244 C   0  0  0  0  0  0  0  0  0  0  0  0
   -1.3004   -1.2142    1.3265 O   0  0  0  0  0  0  0  0  0  0  0  0
   -1.5248   -0.0798   -0.6624 N   0  0  0  0  0  0  0  0  0  0  0  0
   -2.8266    0.5448   -0.4469 C   0  0  0  0  0  0  0  0  0  0  0  0
   -2.7491    1.5152    0.7281 C   0  0  0  0  0  0  0  0  0  0  0  0
   -3.8954   -0.5213   -0.2309 C   0  0  0  0  0  0  0  0  0  0  0  0
   -0.7785    0.1578   -1.8008 C   0  0  0  0  0  0  0  0  0  0  0  0
   -1.1569    0.7968   -2.7469 O   0  0  0  0  0  0  0  0  0  0  0  0
    0.5899   -0.4533   -1.5697 C   0  0  0  0  0  0  0  0  0  0  0  0
    1.4864    0.6941   -1.0717 C   0  0  0  0  0  0  0  0  0  0  0  0
    4.4925    0.9843    0.6091 H   0  0  0  0  0  0  0  0  0  0  0  0
    3.0692    2.0144    0.7623 H   0  0  0  0  0  0  0  0  0  0  0  0
    3.9287    1.9205   -0.7758 H   0  0  0  0  0  0  0  0  0  0  0  0
    3.2902   -0.4744   -0.9953 H   0  0  0  0  0  0  0  0  0  0  0  0
    1.6212    0.0016    1.5139 H   0  0  0  0  0  0  0  0  0  0  0  0
    3.1145   -0.9382    1.4761 H   0  0  0  0  0  0  0  0  0  0  0  0
    2.1514   -2.5343   -0.0926 H   0  0  0  0  0  0  0  0  0  0  0  0
    1.0734   -2.3803    1.3022 H   0  0  0  0  0  0  0  0  0  0  0  0
   -0.0379   -2.4215   -0.9674 H   0  0  0  0  0  0  0  0  0  0  0  0
   -3.0327    1.0958   -1.3724 H   0  0  0  0  0  0  0  0  0  0  0  0
   -2.5118    0.9753    1.6411 H   0  0  0  0  0  0  0  0  0  0  0  0
   -1.9831    2.2674    0.5505 H   0  0  0  0  0  0  0  0  0  0  0  0
   -3.7044    2.0169    0.8540 H   0  0  0  0  0  0  0  0  0  0  0  0
   -3.6869   -1.0812    0.6770 H   0  0  0  0  0  0  0  0  0  0  0  0
   -3.9219   -1.2096   -1.0729 H   0  0  0  0  0  0  0  0  0  0  0  0
   -4.8693   -0.0493   -0.1369 H   0  0  0  0  0  0  0  0  0  0  0  0
    1.0049   -0.8788   -2.4844 H   0  0  0  0  0  0  0  0  0  0  0  0
    1.7756    1.3077   -1.9264 H   0  0  0  0  0  0  0  0  0  0  0  0
    0.9142    1.3285   -0.3882 H   0  0  0  0  0  0  0  0  0  0  0  0
  1  2  1  0  0  0  0
  2  3  1  0  0  0  0
  3  4  1  0  0  0  0
  4  5  1  0  0  0  0
  5  6  1  0  0  0  0
  6  7  2  0  0  0  0
  6  8  1  0  0  0  0
  8  9  1  0  0  0  0
  9 10  1  0  0  0  0
  9 11  1  0  0  0  0
  8 12  1  0  0  0  0
 12 13  2  0  0  0  0
  5 14  1  0  0  0  0
 12 14  1  0  0  0  0
  2 15  1  0  0  0  0
 14 15  1  0  0  0  0
  1 16  1  0  0  0  0
  1 17  1  0  0  0  0
  1 18  1  0  0  0  0
  2 19  1  0  0  0  0
  3 20  1  0  0  0  0
  3 21  1  0  0  0  0
  4 22  1  0  0  0  0
  4 23  1  0  0  0  0
  5 24  1  0  0  0  0
  9 25  1  0  0  0  0
 10 26  1  0  0  0  0
 10 27  1  0  0  0  0
 10 28  1  0  0  0  0
 11 29  1  0  0  0  0
 11 30  1  0  0  0  0
 11 31  1  0  0  0  0
 14 32  1  0  0  0  0
 15 33  1  0  0  0  0
 15 34  1  0  0  0  0
M  END
