 xtb: 6.7.1 (edcfbbe)
          07082617313D

 14 14  0     0  0            999 V2000
    0.0643    1.3836    0.1125 C   0  0  0  0  0  0  0  0  0  0  0  0
    1.2867    0.4699    0.2328 C   0  0  0  0  0  0  0  0  0  0  0  0
    0.9118   -0.8010    0.7210 O   0  0  0  0  0  0  0  0  0  0  0  0
   -0.0643   -1.3836   -0.1168 C   0  0  0  0  0  0  0  0  0  0  0  0
   -1.2867   -0.4699   -0.2371 C   0  0  0  0  0  0  0  0  0  0  0  0
   -0.9118    0.8010   -0.7252 O   0  0  0  0  0  0  0  0  0  0  0  0
   -0.3599    1.5576    1.1131 H   0  0  0  0  0  0  0  0  0  0  0  0
    0.3336    2.3372   -0.3432 H   0  0  0  0  0  0  0  0  0  0  0  0
    1.7607    0.3642   -0.7549 H   0  0  0  0  0  0  0  0  0  0  0  0
    2.0072    0.8743    0.9446 H   0  0  0  0  0  0  0  0  0  0  0  0
   -0.3336   -2.3372    0.3389 H   0  0  0  0  0  0  0  0  0  0  0  0
    0.3599   -1.5576   -1.1174 H   0  0  0  0  0  0  0  0  0  0  0  0
   -2.0072   -0.8743   -0.9489 H   0  0  0  0  0  0  0  0  0  0  0  0
   -1.7607   -0.3642    0.7507 H   0  0  0  0  0  0  0  0  0  0  0  0
  1  2  1  0  0  0  0
  2  3  1  0  0  0  0
  3  4  1  0  0  0  0
  4  5  1  0  0  0  0
  1  6  1  0  0  0  0
  5  6  1  0  0  0  0
  1  7  1  0  0  0  0
  1  8  1  0  0  0  0
  2  9  1  0  0  0  0
  2 10  1  0  0  0  0
  4 11  1  0  0  0  0
  4 12  1  0  0  0  0
  5 13  1  0  0  0  0
  5 14  1  0  0  0  0
M  END
