 xtb: 6.7.1 (edcfbbe)
          07082602133D

 28 28  0     0  0            999 V2000
    3.3642   -1.4981    1.0390 C   0  0  0  0  0  0  0  0  0  0  0  0
    2.3769   -0.8468    0.0802 C   0  0  0  0  0  0  0  0  0  0  0  0
    1.3804    0.0345    0.8357 C   0  0  0  0  0  0  0  0  0  0  0  0
    0.3753    0.6270   -0.0387 N   0  0  0  0  0  0  0  0  0  0  0  0
    0.7816    1.6391   -0.8589 C   0  0  0  0  0  0  0  0  0  0  0  0
   -0.2042    2.1216   -1.9005 C   0  0  0  0  0  0  0  0  0  0  0  0
    1.9052    2.0945   -0.7818 O   0  0  0  0  0  0  0  0  0  0  0  0
   -0.9472    0.1517    0.0612 C   0  0  0  0  0  0  0  0  0  0  0  0
   -2.0017    1.0326    0.2892 C   0  0  0  0  0  0  0  0  0  0  0  0
   -3.2943    0.5577    0.4103 C   0  0  0  0  0  0  0  0  0  0  0  0
   -3.5516   -0.8001    0.3228 C   0  0  0  0  0  0  0  0  0  0  0  0
   -2.5044   -1.6826    0.1197 C   0  0  0  0  0  0  0  0  0  0  0  0
   -1.2101   -1.2137   -0.0102 C   0  0  0  0  0  0  0  0  0  0  0  0
    4.0750   -2.1120    0.4917 H   0  0  0  0  0  0  0  0  0  0  0  0
    3.9170   -0.7391    1.5872 H   0  0  0  0  0  0  0  0  0  0  0  0
    2.8441   -2.1302    1.7566 H   0  0  0  0  0  0  0  0  0  0  0  0
    2.9132   -0.2241   -0.6365 H   0  0  0  0  0  0  0  0  0  0  0  0
    1.8418   -1.6183   -0.4780 H   0  0  0  0  0  0  0  0  0  0  0  0
    1.9295    0.8525    1.3129 H   0  0  0  0  0  0  0  0  0  0  0  0
    0.8629   -0.5422    1.6051 H   0  0  0  0  0  0  0  0  0  0  0  0
   -0.7138    3.0141   -1.5440 H   0  0  0  0  0  0  0  0  0  0  0  0
   -0.9401    1.3635   -2.1513 H   0  0  0  0  0  0  0  0  0  0  0  0
    0.3615    2.3990   -2.7871 H   0  0  0  0  0  0  0  0  0  0  0  0
   -1.8011    2.0883    0.3862 H   0  0  0  0  0  0  0  0  0  0  0  0
   -4.1030    1.2514    0.5860 H   0  0  0  0  0  0  0  0  0  0  0  0
   -4.5613   -1.1690    0.4200 H   0  0  0  0  0  0  0  0  0  0  0  0
   -2.6956   -2.7437    0.0568 H   0  0  0  0  0  0  0  0  0  0  0  0
   -0.4003   -1.9076   -0.1737 H   0  0  0  0  0  0  0  0  0  0  0  0
  1  2  1  0  0  0  0
  2  3  1  0  0  0  0
  3  4  1  0  0  0  0
  4  5  4  0  0  0  0
  5  6  1  0  0  0  0
  5  7  2  0  0  0  0
  4  8  1  0  0  0  0
  8  9  4  0  0  0  0
  9 10  4  0  0  0  0
 10 11  4  0  0  0  0
 11 12  4  0  0  0  0
  8 13  4  0  0  0  0
 12 13  4  0  0  0  0
  1 14  1  0  0  0  0
  1 15  1  0  0  0  0
  1 16  1  0  0  0  0
  2 17  1  0  0  0  0
  2 18  1  0  0  0  0
  3 19  1  0  0  0  0
  3 20  1  0  0  0  0
  6 21  1  0  0  0  0
  6 22  1  0  0  0  0
  6 23  1  0  0  0  0
  9 24  1  0  0  0  0
 10 25  1  0  0  0  0
 11 26  1  0  0  0  0
 12 27  1  0  0  0  0
 13 28  1  0  0  0  0
M  END
