 xtb: 6.7.1 (edcfbbe)
          07082610353D

 25 24  0     0  0            999 V2000
   -3.8927    0.0659   -0.4473 C   0  0  0  0  0  0  0  0  0  0  0  0
   -2.6683   -0.0577    0.4510 C   0  0  0  0  0  0  0  0  0  0  0  0
   -1.3701    0.0868   -0.3397 C   0  0  0  0  0  0  0  0  0  0  0  0
   -0.1405   -0.0054    0.5615 C   0  0  0  0  0  0  0  0  0  0  0  0
    1.1673    0.1650   -0.2231 C   0  0  0  0  0  0  0  0  0  0  0  0
    1.3087   -0.9762   -1.1913 C   0  0  0  0  0  0  0  0  0  0  0  0
    1.3811   -0.8859   -2.3840 O   0  0  0  0  0  0  0  0  0  0  0  0
    2.3766    0.1732    0.7225 C   0  0  0  0  0  0  0  0  0  0  0  0
    3.6791    0.4509   -0.0184 C   0  0  0  0  0  0  0  0  0  0  0  0
   -3.9101    1.0377   -0.9357 H   0  0  0  0  0  0  0  0  0  0  0  0
   -3.8793   -0.7024   -1.2170 H   0  0  0  0  0  0  0  0  0  0  0  0
   -4.8061   -0.0436    0.1325 H   0  0  0  0  0  0  0  0  0  0  0  0
   -2.6810   -1.0289    0.9510 H   0  0  0  0  0  0  0  0  0  0  0  0
   -2.7066    0.7129    1.2247 H   0  0  0  0  0  0  0  0  0  0  0  0
   -1.3221   -0.6927   -1.1037 H   0  0  0  0  0  0  0  0  0  0  0  0
   -1.3680    1.0502   -0.8546 H   0  0  0  0  0  0  0  0  0  0  0  0
   -0.1947    0.7716    1.3277 H   0  0  0  0  0  0  0  0  0  0  0  0
   -0.1313   -0.9724    1.0710 H   0  0  0  0  0  0  0  0  0  0  0  0
    1.1377    1.1029   -0.7862 H   0  0  0  0  0  0  0  0  0  0  0  0
    1.3441   -1.9668   -0.6909 H   0  0  0  0  0  0  0  0  0  0  0  0
    2.2199    0.9406    1.4836 H   0  0  0  0  0  0  0  0  0  0  0  0
    2.4405   -0.7917    1.2314 H   0  0  0  0  0  0  0  0  0  0  0  0
    4.5161    0.4605    0.6760 H   0  0  0  0  0  0  0  0  0  0  0  0
    3.6353    1.4166   -0.5167 H   0  0  0  0  0  0  0  0  0  0  0  0
    3.8644   -0.3112   -0.7719 H   0  0  0  0  0  0  0  0  0  0  0  0
  1  2  1  0  0  0  0
  2  3  1  0  0  0  0
  3  4  1  0  0  0  0
  4  5  1  0  0  0  0
  5  6  1  0  0  0  0
  6  7  2  0  0  0  0
  5  8  1  0  0  0  0
  8  9  1  0  0  0  0
  1 10  1  0  0  0  0
  1 11  1  0  0  0  0
  1 12  1  0  0  0  0
  2 13  1  0  0  0  0
  2 14  1  0  0  0  0
  3 15  1  0  0  0  0
  3 16  1  0  0  0  0
  4 17  1  0  0  0  0
  4 18  1  0  0  0  0
  5 19  1  0  0  0  0
  6 20  1  0  0  0  0
  8 21  1  0  0  0  0
  8 22  1  0  0  0  0
  9 23  1  0  0  0  0
  9 24  1  0  0  0  0
  9 25  1  0  0  0  0
M  END
