 xtb: 6.7.1 (edcfbbe)
          07082608003D

 28 28  0     0  0            999 V2000
   -2.9309    0.7821    0.3664 C   0  0  0  0  0  0  0  0  0  0  0  0
   -1.6746    0.3541   -0.3905 C   0  0  0  0  0  0  0  0  0  0  0  0
   -1.9514    0.3540   -1.8922 C   0  0  0  0  0  0  0  0  0  0  0  0
   -1.2255   -1.0224    0.1050 C   0  0  0  0  0  0  0  0  0  0  0  0
    0.1768   -1.4456   -0.3555 C   0  0  0  0  0  0  0  0  0  0  0  0
    0.3814   -2.7534    0.1523 O   0  0  0  0  0  0  0  0  0  0  0  0
    1.2212   -0.4762    0.1465 C   0  0  0  0  0  0  0  0  0  0  0  0
    1.7824    0.4749   -0.6952 C   0  0  0  0  0  0  0  0  0  0  0  0
    2.7207    1.3706   -0.2134 C   0  0  0  0  0  0  0  0  0  0  0  0
    3.1128    1.3196    1.1134 C   0  0  0  0  0  0  0  0  0  0  0  0
    2.5639    0.3684    1.9567 C   0  0  0  0  0  0  0  0  0  0  0  0
    1.6225   -0.5231    1.4758 C   0  0  0  0  0  0  0  0  0  0  0  0
   -3.7360    0.0703    0.1963 H   0  0  0  0  0  0  0  0  0  0  0  0
   -3.2629    1.7623    0.0318 H   0  0  0  0  0  0  0  0  0  0  0  0
   -2.7375    0.8331    1.4353 H   0  0  0  0  0  0  0  0  0  0  0  0
   -0.8793    1.0779   -0.1790 H   0  0  0  0  0  0  0  0  0  0  0  0
   -2.2961    1.3351   -2.2116 H   0  0  0  0  0  0  0  0  0  0  0  0
   -2.7211   -0.3757   -2.1348 H   0  0  0  0  0  0  0  0  0  0  0  0
   -1.0567    0.1106   -2.4589 H   0  0  0  0  0  0  0  0  0  0  0  0
   -1.2206   -1.0318    1.1966 H   0  0  0  0  0  0  0  0  0  0  0  0
   -1.9291   -1.7872   -0.2286 H   0  0  0  0  0  0  0  0  0  0  0  0
    0.2111   -1.4760   -1.4566 H   0  0  0  0  0  0  0  0  0  0  0  0
    1.2907   -3.0165   -0.0256 H   0  0  0  0  0  0  0  0  0  0  0  0
    1.4823    0.5155   -1.7329 H   0  0  0  0  0  0  0  0  0  0  0  0
    3.1489    2.1083   -0.8764 H   0  0  0  0  0  0  0  0  0  0  0  0
    3.8463    2.0182    1.4882 H   0  0  0  0  0  0  0  0  0  0  0  0
    2.8684    0.3228    2.9922 H   0  0  0  0  0  0  0  0  0  0  0  0
    1.1923   -1.2699    2.1274 H   0  0  0  0  0  0  0  0  0  0  0  0
  1  2  1  0  0  0  0
  2  3  1  0  0  0  0
  2  4  1  0  0  0  0
  4  5  1  0  0  0  0
  5  6  1  0  0  0  0
  5  7  1  0  0  0  0
  7  8  4  0  0  0  0
  8  9  4  0  0  0  0
  9 10  4  0  0  0  0
 10 11  4  0  0  0  0
  7 12  4  0  0  0  0
 11 12  4  0  0  0  0
  1 13  1  0  0  0  0
  1 14  1  0  0  0  0
  1 15  1  0  0  0  0
  2 16  1  0  0  0  0
  3 17  1  0  0  0  0
  3 18  1  0  0  0  0
  3 19  1  0  0  0  0
  4 20  1  0  0  0  0
  4 21  1  0  0  0  0
  5 22  1  0  0  0  0
  6 23  1  0  0  0  0
  8 24  1  0  0  0  0
  9 25  1  0  0  0  0
 10 26  1  0  0  0  0
 11 27  1  0  0  0  0
 12 28  1  0  0  0  0
M  END
