 xtb: 6.7.1 (edcfbbe)
          07072607163D

 37 38  0     0  0            999 V2000
   -4.5033    0.2740    0.6020 C   0  0  0  0  0  0  0  0  0  0  0  0
   -2.9777    0.2674    0.5787 C   0  0  0  0  0  0  0  0  0  0  0  0
   -2.4394   -1.1029    0.9798 C   0  0  0  0  0  0  0  0  0  0  0  0
   -2.4889    0.6559   -0.8227 C   0  0  0  0  0  0  0  0  0  0  0  0
   -1.0504    0.8085   -0.8742 N   0  0  0  0  0  0  0  0  0  0  0  0
   -0.3936    1.8994   -0.3415 C   0  0  0  0  0  0  0  0  0  0  0  0
   -0.9350    2.8761    0.1045 O   0  0  0  0  0  0  0  0  0  0  0  0
    1.0882    1.5728   -0.3640 C   0  0  0  0  0  0  0  0  0  0  0  0
    1.4233    1.0341    1.0385 C   0  0  0  0  0  0  0  0  0  0  0  0
    2.6890    0.1869    1.0318 C   0  0  0  0  0  0  0  0  0  0  0  0
    2.5087   -1.0157    0.1065 C   0  0  0  0  0  0  0  0  0  0  0  0
    3.7029   -1.9612    0.1868 C   0  0  0  0  0  0  0  0  0  0  0  0
    2.3205   -0.5145   -1.3237 C   0  0  0  0  0  0  0  0  0  0  0  0
    1.1857    0.4985   -1.4493 C   0  0  0  0  0  0  0  0  0  0  0  0
   -0.2048   -0.1146   -1.4556 C   0  0  0  0  0  0  0  0  0  0  0  0
   -0.5510   -1.1657   -1.9255 O   0  0  0  0  0  0  0  0  0  0  0  0
   -4.8660    0.0128    1.5929 H   0  0  0  0  0  0  0  0  0  0  0  0
   -4.8963   -0.4490   -0.1097 H   0  0  0  0  0  0  0  0  0  0  0  0
   -4.8875    1.2580    0.3446 H   0  0  0  0  0  0  0  0  0  0  0  0
   -2.6101    1.0208    1.2839 H   0  0  0  0  0  0  0  0  0  0  0  0
   -1.3516   -1.1121    0.9834 H   0  0  0  0  0  0  0  0  0  0  0  0
   -2.7796   -1.8626    0.2796 H   0  0  0  0  0  0  0  0  0  0  0  0
   -2.7847   -1.3688    1.9763 H   0  0  0  0  0  0  0  0  0  0  0  0
   -2.9359    1.6095   -1.1168 H   0  0  0  0  0  0  0  0  0  0  0  0
   -2.7548   -0.1186   -1.5460 H   0  0  0  0  0  0  0  0  0  0  0  0
    1.6962    2.4527   -0.5776 H   0  0  0  0  0  0  0  0  0  0  0  0
    0.5943    0.4157    1.3948 H   0  0  0  0  0  0  0  0  0  0  0  0
    1.5221    1.8769    1.7240 H   0  0  0  0  0  0  0  0  0  0  0  0
    2.8985   -0.1517    2.0481 H   0  0  0  0  0  0  0  0  0  0  0  0
    3.5382    0.7844    0.6934 H   0  0  0  0  0  0  0  0  0  0  0  0
    1.6087   -1.5623    0.4099 H   0  0  0  0  0  0  0  0  0  0  0  0
    3.5646   -2.8068   -0.4823 H   0  0  0  0  0  0  0  0  0  0  0  0
    4.6175   -1.4442   -0.0962 H   0  0  0  0  0  0  0  0  0  0  0  0
    3.8226   -2.3399    1.1991 H   0  0  0  0  0  0  0  0  0  0  0  0
    3.2510   -0.0506   -1.6592 H   0  0  0  0  0  0  0  0  0  0  0  0
    2.1000   -1.3532   -1.9873 H   0  0  0  0  0  0  0  0  0  0  0  0
    1.2785    0.9902   -2.4270 H   0  0  0  0  0  0  0  0  0  0  0  0
  1  2  1  0  0  0  0
  2  3  1  0  0  0  0
  2  4  1  0  0  0  0
  4  5  1  0  0  0  0
  5  6  1  0  0  0  0
  6  7  2  0  0  0  0
  6  8  1  0  0  0  0
  8  9  1  0  0  0  0
  9 10  1  0  0  0  0
 10 11  1  0  0  0  0
 11 12  1  0  0  0  0
 11 13  1  0  0  0  0
  8 14  1  0  0  0  0
 13 14  1  0  0  0  0
  5 15  1  0  0  0  0
 14 15  1  0  0  0  0
 15 16  2  0  0  0  0
  1 17  1  0  0  0  0
  1 18  1  0  0  0  0
  1 19  1  0  0  0  0
  2 20  1  0  0  0  0
  3 21  1  0  0  0  0
  3 22  1  0  0  0  0
  3 23  1  0  0  0  0
  4 24  1  0  0  0  0
  4 25  1  0  0  0  0
  8 26  1  0  0  0  0
  9 27  1  0  0  0  0
  9 28  1  0  0  0  0
 10 29  1  0  0  0  0
 10 30  1  0  0  0  0
 11 31  1  0  0  0  0
 12 32  1  0  0  0  0
 12 33  1  0  0  0  0
 12 34  1  0  0  0  0
 13 35  1  0  0  0  0
 13 36  1  0  0  0  0
 14 37  1  0  0  0  0
M  END
