 xtb: 6.7.1 (edcfbbe)
          07082601033D

 32 31  0     0  0            999 V2000
    5.0310   -0.8371    0.3231 C   0  0  0  0  0  0  0  0  0  0  0  0
    4.5721    0.0588   -0.8216 C   0  0  0  0  0  0  0  0  0  0  0  0
    3.2713    0.8039   -0.5202 C   0  0  0  0  0  0  0  0  0  0  0  0
    2.0594   -0.1175   -0.4003 C   0  0  0  0  0  0  0  0  0  0  0  0
    0.7636    0.6685   -0.2145 C   0  0  0  0  0  0  0  0  0  0  0  0
   -0.4476   -0.2510   -0.0781 C   0  0  0  0  0  0  0  0  0  0  0  0
   -1.7460    0.5304    0.1058 C   0  0  0  0  0  0  0  0  0  0  0  0
   -2.9511   -0.3957    0.2417 C   0  0  0  0  0  0  0  0  0  0  0  0
   -4.2474    0.3865    0.4253 C   0  0  0  0  0  0  0  0  0  0  0  0
   -5.4448   -0.5166    0.5603 C   0  0  0  0  0  0  0  0  0  0  0  0
   -5.4374   -1.7165    0.5339 O   0  0  0  0  0  0  0  0  0  0  0  0
   -6.5758    0.1896    0.7208 O   0  0  0  0  0  0  0  0  0  0  0  0
    6.0021   -1.2714    0.0961 H   0  0  0  0  0  0  0  0  0  0  0  0
    4.3285   -1.6494    0.4893 H   0  0  0  0  0  0  0  0  0  0  0  0
    5.1192   -0.2631    1.2431 H   0  0  0  0  0  0  0  0  0  0  0  0
    4.4407   -0.5440   -1.7232 H   0  0  0  0  0  0  0  0  0  0  0  0
    5.3535    0.7943   -1.0279 H   0  0  0  0  0  0  0  0  0  0  0  0
    3.3877    1.3701    0.4070 H   0  0  0  0  0  0  0  0  0  0  0  0
    3.0866    1.5222   -1.3232 H   0  0  0  0  0  0  0  0  0  0  0  0
    2.1892   -0.7895    0.4494 H   0  0  0  0  0  0  0  0  0  0  0  0
    1.9825   -0.7306   -1.3015 H   0  0  0  0  0  0  0  0  0  0  0  0
    0.6179    1.3337   -1.0691 H   0  0  0  0  0  0  0  0  0  0  0  0
    0.8457    1.2932    0.6783 H   0  0  0  0  0  0  0  0  0  0  0  0
   -0.5276   -0.8772   -0.9695 H   0  0  0  0  0  0  0  0  0  0  0  0
   -0.3028   -0.9143    0.7777 H   0  0  0  0  0  0  0  0  0  0  0  0
   -1.6665    1.1564    0.9979 H   0  0  0  0  0  0  0  0  0  0  0  0
   -1.8920    1.1934   -0.7505 H   0  0  0  0  0  0  0  0  0  0  0  0
   -3.0367   -1.0237   -0.6467 H   0  0  0  0  0  0  0  0  0  0  0  0
   -2.8121   -1.0604    1.0959 H   0  0  0  0  0  0  0  0  0  0  0  0
   -4.2014    1.0135    1.3187 H   0  0  0  0  0  0  0  0  0  0  0  0
   -4.4258    1.0506   -0.4237 H   0  0  0  0  0  0  0  0  0  0  0  0
   -7.3358   -0.4073    0.8059 H   0  0  0  0  0  0  0  0  0  0  0  0
  1  2  1  0  0  0  0
  2  3  1  0  0  0  0
  3  4  1  0  0  0  0
  4  5  1  0  0  0  0
  5  6  1  0  0  0  0
  6  7  1  0  0  0  0
  7  8  1  0  0  0  0
  8  9  1  0  0  0  0
  9 10  1  0  0  0  0
 10 11  2  0  0  0  0
 10 12  1  0  0  0  0
  1 13  1  0  0  0  0
  1 14  1  0  0  0  0
  1 15  1  0  0  0  0
  2 16  1  0  0  0  0
  2 17  1  0  0  0  0
  3 18  1  0  0  0  0
  3 19  1  0  0  0  0
  4 20  1  0  0  0  0
  4 21  1  0  0  0  0
  5 22  1  0  0  0  0
  5 23  1  0  0  0  0
  6 24  1  0  0  0  0
  6 25  1  0  0  0  0
  7 26  1  0  0  0  0
  7 27  1  0  0  0  0
  8 28  1  0  0  0  0
  8 29  1  0  0  0  0
  9 30  1  0  0  0  0
  9 31  1  0  0  0  0
 12 32  1  0  0  0  0
M  END
