 xtb: 6.7.1 (edcfbbe)
          07092606373D

 25 24  0     0  0            999 V2000
    3.7014    1.9692    0.0386 C   0  0  0  0  0  0  0  0  0  0  0  0
    2.6535    1.3479    0.5585 C   0  0  0  0  0  0  0  0  0  0  0  0
    1.9838    0.2419   -0.1628 C   0  0  0  0  0  0  0  0  0  0  0  0
    2.3238   -0.1931   -1.2362 O   0  0  0  0  0  0  0  0  0  0  0  0
    0.9447   -0.2183    0.5410 O   0  0  0  0  0  0  0  0  0  0  0  0
    0.1825   -1.2899   -0.0296 C   0  0  0  0  0  0  0  0  0  0  0  0
   -0.4971   -2.0238    1.1159 C   0  0  0  0  0  0  0  0  0  0  0  0
   -0.8186   -0.7647   -1.0757 C   0  0  0  0  0  0  0  0  0  0  0  0
   -1.9295    0.0644   -0.4917 C   0  0  0  0  0  0  0  0  0  0  0  0
   -3.1648   -0.4024   -0.3982 C   0  0  0  0  0  0  0  0  0  0  0  0
   -1.5546    1.4375   -0.0266 C   0  0  0  0  0  0  0  0  0  0  0  0
    4.2035    2.7766    0.5432 H   0  0  0  0  0  0  0  0  0  0  0  0
    4.0824    1.6705   -0.9247 H   0  0  0  0  0  0  0  0  0  0  0  0
    2.2298    1.6041    1.5177 H   0  0  0  0  0  0  0  0  0  0  0  0
    0.8883   -1.9550   -0.5464 H   0  0  0  0  0  0  0  0  0  0  0  0
   -1.1810   -1.3561    1.6325 H   0  0  0  0  0  0  0  0  0  0  0  0
   -1.0566   -2.8694    0.7272 H   0  0  0  0  0  0  0  0  0  0  0  0
    0.2458   -2.3836    1.8231 H   0  0  0  0  0  0  0  0  0  0  0  0
   -0.2581   -0.1742   -1.8047 H   0  0  0  0  0  0  0  0  0  0  0  0
   -1.2362   -1.6315   -1.5897 H   0  0  0  0  0  0  0  0  0  0  0  0
   -3.9655    0.1874    0.0152 H   0  0  0  0  0  0  0  0  0  0  0  0
   -3.4286   -1.3909   -0.7344 H   0  0  0  0  0  0  0  0  0  0  0  0
   -2.4285    1.9847    0.3176 H   0  0  0  0  0  0  0  0  0  0  0  0
   -1.0848    1.9959   -0.8360 H   0  0  0  0  0  0  0  0  0  0  0  0
   -0.8357    1.3727    0.7890 H   0  0  0  0  0  0  0  0  0  0  0  0
  1  2  2  0  0  0  0
  2  3  1  0  0  0  0
  3  4  2  0  0  0  0
  3  5  1  0  0  0  0
  5  6  1  0  0  0  0
  6  7  1  0  0  0  0
  6  8  1  0  0  0  0
  8  9  1  0  0  0  0
  9 10  2  0  0  0  0
  9 11  1  0  0  0  0
  1 12  1  0  0  0  0
  1 13  1  0  0  0  0
  2 14  1  0  0  0  0
  6 15  1  0  0  0  0
  7 16  1  0  0  0  0
  7 17  1  0  0  0  0
  7 18  1  0  0  0  0
  8 19  1  0  0  0  0
  8 20  1  0  0  0  0
 10 21  1  0  0  0  0
 10 22  1  0  0  0  0
 11 23  1  0  0  0  0
 11 24  1  0  0  0  0
 11 25  1  0  0  0  0
M  END
