 xtb: 6.7.1 (edcfbbe)
          07072605153D

 35 36  0     0  0            999 V2000
    5.0876    1.1775    0.8713 C   0  0  0  0  0  0  0  0  0  0  0  0
    3.9039    1.3830   -0.0551 C   0  0  0  0  0  0  0  0  0  0  0  0
    2.8173    0.5944    0.4207 O   0  0  0  0  0  0  0  0  0  0  0  0
    1.6486    0.7422   -0.2395 C   0  0  0  0  0  0  0  0  0  0  0  0
    1.5088    1.4938   -1.1827 O   0  0  0  0  0  0  0  0  0  0  0  0
    0.6078   -0.0839    0.3264 C   0  0  0  0  0  0  0  0  0  0  0  0
    0.7497   -1.2632    1.0261 C   0  0  0  0  0  0  0  0  0  0  0  0
    1.3539   -2.3975    0.2745 C   0  0  0  0  0  0  0  0  0  0  0  0
    0.1080   -2.5311   -0.6918 C   0  0  0  0  0  0  0  0  0  0  0  0
   -1.0428   -1.6672   -0.0680 C   0  0  0  0  0  0  0  0  0  0  0  0
   -0.6454   -1.7482    1.4000 C   0  0  0  0  0  0  0  0  0  0  0  0
   -0.7841   -0.1381   -0.2848 C   0  0  0  0  0  0  0  0  0  0  0  0
   -1.8786    0.7282    0.3096 C   0  0  0  0  0  0  0  0  0  0  0  0
   -2.0353    0.9555    1.4808 O   0  0  0  0  0  0  0  0  0  0  0  0
   -2.6598    1.2077   -0.6578 O   0  0  0  0  0  0  0  0  0  0  0  0
   -3.7595    2.0330   -0.2658 C   0  0  0  0  0  0  0  0  0  0  0  0
   -4.9732    1.1945    0.1083 C   0  0  0  0  0  0  0  0  0  0  0  0
    4.8280    1.4835    1.8810 H   0  0  0  0  0  0  0  0  0  0  0  0
    5.3705    0.1284    0.8899 H   0  0  0  0  0  0  0  0  0  0  0  0
    5.9306    1.7684    0.5247 H   0  0  0  0  0  0  0  0  0  0  0  0
    4.1437    1.0778   -1.0812 H   0  0  0  0  0  0  0  0  0  0  0  0
    3.5950    2.4345   -0.0819 H   0  0  0  0  0  0  0  0  0  0  0  0
    2.2624   -2.1385   -0.2612 H   0  0  0  0  0  0  0  0  0  0  0  0
    1.5122   -3.2966    0.8659 H   0  0  0  0  0  0  0  0  0  0  0  0
   -0.2153   -3.5693   -0.7518 H   0  0  0  0  0  0  0  0  0  0  0  0
    0.3642   -2.1835   -1.6913 H   0  0  0  0  0  0  0  0  0  0  0  0
   -2.0364   -2.0020   -0.3659 H   0  0  0  0  0  0  0  0  0  0  0  0
   -0.6636   -2.7538    1.8129 H   0  0  0  0  0  0  0  0  0  0  0  0
   -1.1849   -1.0622    2.0455 H   0  0  0  0  0  0  0  0  0  0  0  0
   -0.6883    0.1420   -1.3377 H   0  0  0  0  0  0  0  0  0  0  0  0
   -3.4507    2.6533    0.5817 H   0  0  0  0  0  0  0  0  0  0  0  0
   -3.9661    2.6620   -1.1336 H   0  0  0  0  0  0  0  0  0  0  0  0
   -5.2504    0.5444   -0.7182 H   0  0  0  0  0  0  0  0  0  0  0  0
   -5.8091    1.8472    0.3425 H   0  0  0  0  0  0  0  0  0  0  0  0
   -4.7489    0.5839    0.9796 H   0  0  0  0  0  0  0  0  0  0  0  0
  1  2  1  0  0  0  0
  2  3  1  0  0  0  0
  3  4  1  0  0  0  0
  4  5  2  0  0  0  0
  4  6  1  0  0  0  0
  6  7  2  0  0  0  0
  7  8  1  0  0  0  0
  8  9  1  0  0  0  0
  9 10  1  0  0  0  0
  7 11  1  0  0  0  0
 10 11  1  0  0  0  0
  6 12  1  0  0  0  0
 10 12  1  0  0  0  0
 12 13  1  0  0  0  0
 13 14  2  0  0  0  0
 13 15  1  0  0  0  0
 15 16  1  0  0  0  0
 16 17  1  0  0  0  0
  1 18  1  0  0  0  0
  1 19  1  0  0  0  0
  1 20  1  0  0  0  0
  2 21  1  0  0  0  0
  2 22  1  0  0  0  0
  8 23  1  0  0  0  0
  8 24  1  0  0  0  0
  9 25  1  0  0  0  0
  9 26  1  0  0  0  0
 10 27  1  0  0  0  0
 11 28  1  0  0  0  0
 11 29  1  0  0  0  0
 12 30  1  0  0  0  0
 16 31  1  0  0  0  0
 16 32  1  0  0  0  0
 17 33  1  0  0  0  0
 17 34  1  0  0  0  0
 17 35  1  0  0  0  0
M  END
