 xtb: 6.7.1 (edcfbbe)
          07092600113D

 28 28  0     0  0            999 V2000
    2.5083   -1.5510    0.0687 C   0  0  0  0  0  0  0  0  0  0  0  0
    1.2877   -0.7317   -0.3430 C   0  0  0  0  0  0  0  0  0  0  0  0
    1.6211    0.7579   -0.3553 C   0  0  0  0  0  0  0  0  0  0  0  0
    0.4059    1.5911   -0.7507 C   0  0  0  0  0  0  0  0  0  0  0  0
    0.7909    2.9532   -0.7068 O   0  0  0  0  0  0  0  0  0  0  0  0
   -0.7582    1.3155    0.2042 C   0  0  0  0  0  0  0  0  0  0  0  0
   -1.1343   -0.1702    0.2933 C   0  0  0  0  0  0  0  0  0  0  0  0
   -1.7883   -0.6479   -1.0061 C   0  0  0  0  0  0  0  0  0  0  0  0
   -2.1468   -0.3528    1.4299 C   0  0  0  0  0  0  0  0  0  0  0  0
    0.1226   -0.9927    0.6129 C   0  0  0  0  0  0  0  0  0  0  0  0
    2.2752   -2.6136    0.0652 H   0  0  0  0  0  0  0  0  0  0  0  0
    3.3335   -1.3779   -0.6182 H   0  0  0  0  0  0  0  0  0  0  0  0
    2.8327   -1.2741    1.0695 H   0  0  0  0  0  0  0  0  0  0  0  0
    0.9989   -1.0351   -1.3545 H   0  0  0  0  0  0  0  0  0  0  0  0
    2.4337    0.9648   -1.0531 H   0  0  0  0  0  0  0  0  0  0  0  0
    1.9456    1.0771    0.6369 H   0  0  0  0  0  0  0  0  0  0  0  0
    0.1102    1.3356   -1.7816 H   0  0  0  0  0  0  0  0  0  0  0  0
    0.0152    3.4993   -0.8741 H   0  0  0  0  0  0  0  0  0  0  0  0
   -1.6325    1.8950   -0.1086 H   0  0  0  0  0  0  0  0  0  0  0  0
   -0.4617    1.6694    1.1950 H   0  0  0  0  0  0  0  0  0  0  0  0
   -2.0666   -1.6962   -0.9215 H   0  0  0  0  0  0  0  0  0  0  0  0
   -1.1210   -0.5421   -1.8558 H   0  0  0  0  0  0  0  0  0  0  0  0
   -2.6894   -0.0723   -1.2079 H   0  0  0  0  0  0  0  0  0  0  0  0
   -2.4273   -1.3996    1.5241 H   0  0  0  0  0  0  0  0  0  0  0  0
   -3.0473    0.2262    1.2365 H   0  0  0  0  0  0  0  0  0  0  0  0
   -1.7277   -0.0252    2.3787 H   0  0  0  0  0  0  0  0  0  0  0  0
    0.4500   -0.7478    1.6263 H   0  0  0  0  0  0  0  0  0  0  0  0
   -0.1306   -2.0552    0.5961 H   0  0  0  0  0  0  0  0  0  0  0  0
  1  2  1  0  0  0  0
  2  3  1  0  0  0  0
  3  4  1  0  0  0  0
  4  5  1  0  0  0  0
  4  6  1  0  0  0  0
  6  7  1  0  0  0  0
  7  8  1  0  0  0  0
  7  9  1  0  0  0  0
  2 10  1  0  0  0  0
  7 10  1  0  0  0  0
  1 11  1  0  0  0  0
  1 12  1  0  0  0  0
  1 13  1  0  0  0  0
  2 14  1  0  0  0  0
  3 15  1  0  0  0  0
  3 16  1  0  0  0  0
  4 17  1  0  0  0  0
  5 18  1  0  0  0  0
  6 19  1  0  0  0  0
  6 20  1  0  0  0  0
  8 21  1  0  0  0  0
  8 22  1  0  0  0  0
  8 23  1  0  0  0  0
  9 24  1  0  0  0  0
  9 25  1  0  0  0  0
  9 26  1  0  0  0  0
 10 27  1  0  0  0  0
 10 28  1  0  0  0  0
M  END
