 xtb: 6.7.1 (edcfbbe)
          07092621233D

 32 31  0     0  0            999 V2000
   -5.6541   -0.4050   -0.8337 C   0  0  0  0  0  0  0  0  0  0  0  0
   -4.3968   -0.6104    0.0021 C   0  0  0  0  0  0  0  0  0  0  0  0
   -3.2099    0.1689   -0.5598 C   0  0  0  0  0  0  0  0  0  0  0  0
   -1.9521   -0.0292    0.2809 C   0  0  0  0  0  0  0  0  0  0  0  0
   -0.7750    0.7636   -0.2806 C   0  0  0  0  0  0  0  0  0  0  0  0
    0.3772    0.6489    0.5541 O   0  0  0  0  0  0  0  0  0  0  0  0
    1.1755   -0.4064    0.3582 C   0  0  0  0  0  0  0  0  0  0  0  0
    0.9922   -1.2413   -0.4880 O   0  0  0  0  0  0  0  0  0  0  0  0
    2.3319   -0.3982    1.3324 C   0  0  0  0  0  0  0  0  0  0  0  0
    3.6644   -0.5283    0.5912 C   0  0  0  0  0  0  0  0  0  0  0  0
    3.9657    0.7058   -0.2559 C   0  0  0  0  0  0  0  0  0  0  0  0
    5.3022    0.5799   -0.9764 C   0  0  0  0  0  0  0  0  0  0  0  0
   -5.4916   -0.7399   -1.8557 H   0  0  0  0  0  0  0  0  0  0  0  0
   -5.9283    0.6475   -0.8585 H   0  0  0  0  0  0  0  0  0  0  0  0
   -6.4866   -0.9667   -0.4168 H   0  0  0  0  0  0  0  0  0  0  0  0
   -4.1485   -1.6734    0.0296 H   0  0  0  0  0  0  0  0  0  0  0  0
   -4.5865   -0.2877    1.0283 H   0  0  0  0  0  0  0  0  0  0  0  0
   -3.4596    1.2322   -0.5934 H   0  0  0  0  0  0  0  0  0  0  0  0
   -3.0148   -0.1586   -1.5832 H   0  0  0  0  0  0  0  0  0  0  0  0
   -1.6834   -1.0874    0.2999 H   0  0  0  0  0  0  0  0  0  0  0  0
   -2.1362    0.2930    1.3084 H   0  0  0  0  0  0  0  0  0  0  0  0
   -1.0032    1.8313   -0.3135 H   0  0  0  0  0  0  0  0  0  0  0  0
   -0.5243    0.4053   -1.2847 H   0  0  0  0  0  0  0  0  0  0  0  0
    2.2022   -1.2521    2.0010 H   0  0  0  0  0  0  0  0  0  0  0  0
    2.2949    0.5203    1.9181 H   0  0  0  0  0  0  0  0  0  0  0  0
    3.6202   -1.4088   -0.0524 H   0  0  0  0  0  0  0  0  0  0  0  0
    4.4660   -0.6758    1.3178 H   0  0  0  0  0  0  0  0  0  0  0  0
    3.9792    1.5908    0.3851 H   0  0  0  0  0  0  0  0  0  0  0  0
    3.1686    0.8398   -0.9905 H   0  0  0  0  0  0  0  0  0  0  0  0
    5.5006    1.4668   -1.5734 H   0  0  0  0  0  0  0  0  0  0  0  0
    5.2978   -0.2847   -1.6361 H   0  0  0  0  0  0  0  0  0  0  0  0
    6.1121    0.4600   -0.2598 H   0  0  0  0  0  0  0  0  0  0  0  0
  1  2  1  0  0  0  0
  2  3  1  0  0  0  0
  3  4  1  0  0  0  0
  4  5  1  0  0  0  0
  5  6  1  0  0  0  0
  6  7  1  0  0  0  0
  7  8  2  0  0  0  0
  7  9  1  0  0  0  0
  9 10  1  0  0  0  0
 10 11  1  0  0  0  0
 11 12  1  0  0  0  0
  1 13  1  0  0  0  0
  1 14  1  0  0  0  0
  1 15  1  0  0  0  0
  2 16  1  0  0  0  0
  2 17  1  0  0  0  0
  3 18  1  0  0  0  0
  3 19  1  0  0  0  0
  4 20  1  0  0  0  0
  4 21  1  0  0  0  0
  5 22  1  0  0  0  0
  5 23  1  0  0  0  0
  9 24  1  0  0  0  0
  9 25  1  0  0  0  0
 10 26  1  0  0  0  0
 10 27  1  0  0  0  0
 11 28  1  0  0  0  0
 11 29  1  0  0  0  0
 12 30  1  0  0  0  0
 12 31  1  0  0  0  0
 12 32  1  0  0  0  0
M  END
