 xtb: 6.7.1 (edcfbbe)
          07072616163D

 30 31  0     0  0            999 V2000
    1.6037   -2.4855   -0.5661 O   0  0  0  0  0  0  0  0  0  0  0  0
    2.1883   -1.6057    0.0009 C   0  0  0  0  0  0  0  0  0  0  0  0
    3.6553   -1.2714   -0.1203 C   0  0  0  0  0  0  0  0  0  0  0  0
    3.8152    0.0948    0.5387 C   0  0  0  0  0  0  0  0  0  0  0  0
    2.7350    0.1136    1.6227 C   0  0  0  0  0  0  0  0  0  0  0  0
    1.5571   -0.6208    0.9875 C   0  0  0  0  0  0  0  0  0  0  0  0
    0.6800    0.3030    0.1507 C   0  0  0  0  0  0  0  0  0  0  0  0
    1.0564    1.3339   -0.3428 O   0  0  0  0  0  0  0  0  0  0  0  0
   -0.5353   -0.2062    0.0260 O   0  0  0  0  0  0  0  0  0  0  0  0
   -1.4728    0.4956   -0.8055 C   0  0  0  0  0  0  0  0  0  0  0  0
   -2.2277    1.5579    0.0047 C   0  0  0  0  0  0  0  0  0  0  0  0
   -3.4734    0.8290    0.4991 C   0  0  0  0  0  0  0  0  0  0  0  0
   -3.8697   -0.0128   -0.7109 C   0  0  0  0  0  0  0  0  0  0  0  0
   -2.5329   -0.5169   -1.2659 C   0  0  0  0  0  0  0  0  0  0  0  0
    3.9781   -1.3054   -1.1601 H   0  0  0  0  0  0  0  0  0  0  0  0
    4.2077   -2.0426    0.4237 H   0  0  0  0  0  0  0  0  0  0  0  0
    4.8122    0.2486    0.9478 H   0  0  0  0  0  0  0  0  0  0  0  0
    3.6086    0.8825   -0.1853 H   0  0  0  0  0  0  0  0  0  0  0  0
    2.4692    1.1302    1.9076 H   0  0  0  0  0  0  0  0  0  0  0  0
    3.0704   -0.4261    2.5096 H   0  0  0  0  0  0  0  0  0  0  0  0
    0.9104   -1.1525    1.6865 H   0  0  0  0  0  0  0  0  0  0  0  0
   -0.9103    0.9437   -1.6305 H   0  0  0  0  0  0  0  0  0  0  0  0
   -1.6103    1.9547    0.8091 H   0  0  0  0  0  0  0  0  0  0  0  0
   -2.5071    2.3800   -0.6544 H   0  0  0  0  0  0  0  0  0  0  0  0
   -4.2600    1.5124    0.8141 H   0  0  0  0  0  0  0  0  0  0  0  0
   -3.2153    0.1798    1.3365 H   0  0  0  0  0  0  0  0  0  0  0  0
   -4.3673    0.6186   -1.4487 H   0  0  0  0  0  0  0  0  0  0  0  0
   -4.5400   -0.8302   -0.4522 H   0  0  0  0  0  0  0  0  0  0  0  0
   -2.5493   -0.6168   -2.3493 H   0  0  0  0  0  0  0  0  0  0  0  0
   -2.2762   -1.4856   -0.8378 H   0  0  0  0  0  0  0  0  0  0  0  0
  1  2  2  0  0  0  0
  2  3  1  0  0  0  0
  3  4  1  0  0  0  0
  4  5  1  0  0  0  0
  2  6  1  0  0  0  0
  5  6  1  0  0  0  0
  6  7  1  0  0  0  0
  7  8  2  0  0  0  0
  7  9  1  0  0  0  0
  9 10  1  0  0  0  0
 10 11  1  0  0  0  0
 11 12  1  0  0  0  0
 12 13  1  0  0  0  0
 10 14  1  0  0  0  0
 13 14  1  0  0  0  0
  3 15  1  0  0  0  0
  3 16  1  0  0  0  0
  4 17  1  0  0  0  0
  4 18  1  0  0  0  0
  5 19  1  0  0  0  0
  5 20  1  0  0  0  0
  6 21  1  0  0  0  0
 10 22  1  0  0  0  0
 11 23  1  0  0  0  0
 11 24  1  0  0  0  0
 12 25  1  0  0  0  0
 12 26  1  0  0  0  0
 13 27  1  0  0  0  0
 13 28  1  0  0  0  0
 14 29  1  0  0  0  0
 14 30  1  0  0  0  0
M  END
