 xtb: 6.7.1 (edcfbbe)
          07082617463D

 15 14  0     0  0            999 V2000
   -2.2340    0.8487   -0.3617 C   0  0  0  0  0  0  0  0  0  0  0  0
   -1.2510   -0.1655    0.2072 C   0  0  0  0  0  0  0  0  0  0  0  0
    0.1904    0.2608   -0.0393 C   0  0  0  0  0  0  0  0  0  0  0  0
    0.5138    1.3591   -0.4327 O   0  0  0  0  0  0  0  0  0  0  0  0
    1.0922   -0.7120    0.2399 N   0  0  0  0  0  0  0  0  0  0  0  0
    2.5146   -0.5184    0.0998 C   0  0  0  0  0  0  0  0  0  0  0  0
   -2.0267    1.8334    0.0481 H   0  0  0  0  0  0  0  0  0  0  0  0
   -3.2565    0.5694   -0.1193 H   0  0  0  0  0  0  0  0  0  0  0  0
   -2.1302    0.9066   -1.4420 H   0  0  0  0  0  0  0  0  0  0  0  0
   -1.3915   -0.2567    1.2879 H   0  0  0  0  0  0  0  0  0  0  0  0
   -1.4159   -1.1492   -0.2383 H   0  0  0  0  0  0  0  0  0  0  0  0
    0.7732   -1.6078    0.5715 H   0  0  0  0  0  0  0  0  0  0  0  0
    2.9330   -1.2205   -0.6245 H   0  0  0  0  0  0  0  0  0  0  0  0
    2.6669    0.4996   -0.2549 H   0  0  0  0  0  0  0  0  0  0  0  0
    3.0217   -0.6476    1.0583 H   0  0  0  0  0  0  0  0  0  0  0  0
  1  2  1  0  0  0  0
  2  3  1  0  0  0  0
  3  4  2  0  0  0  0
  3  5  4  0  0  0  0
  5  6  1  0  0  0  0
  1  7  1  0  0  0  0
  1  8  1  0  0  0  0
  1  9  1  0  0  0  0
  2 10  1  0  0  0  0
  2 11  1  0  0  0  0
  5 12  1  0  0  0  0
  6 13  1  0  0  0  0
  6 14  1  0  0  0  0
  6 15  1  0  0  0  0
M  END
