 xtb: 6.7.1 (edcfbbe)
          07082617193D

 15 14  0     0  0            999 V2000
   -2.1929    0.1001   -0.0006 C   0  0  0  0  0  0  0  0  0  0  0  0
   -0.7574    0.4111    0.4046 C   0  0  0  0  0  0  0  0  0  0  0  0
    0.2379   -0.4897   -0.3195 C   0  0  0  0  0  0  0  0  0  0  0  0
    1.6787   -0.1882    0.0776 C   0  0  0  0  0  0  0  0  0  0  0  0
    2.5307   -1.0610   -0.6338 O   0  0  0  0  0  0  0  0  0  0  0  0
   -2.3266    0.2453   -1.0701 H   0  0  0  0  0  0  0  0  0  0  0  0
   -2.8885    0.7507    0.5245 H   0  0  0  0  0  0  0  0  0  0  0  0
   -2.4406   -0.9318    0.2375 H   0  0  0  0  0  0  0  0  0  0  0  0
   -0.6474    0.2783    1.4835 H   0  0  0  0  0  0  0  0  0  0  0  0
   -0.5333    1.4557    0.1758 H   0  0  0  0  0  0  0  0  0  0  0  0
    0.1442   -0.3605   -1.3989 H   0  0  0  0  0  0  0  0  0  0  0  0
    0.0302   -1.5366   -0.0925 H   0  0  0  0  0  0  0  0  0  0  0  0
    1.9180    0.8594   -0.1592 H   0  0  0  0  0  0  0  0  0  0  0  0
    1.8028   -0.3298    1.1618 H   0  0  0  0  0  0  0  0  0  0  0  0
    3.4441   -0.8796   -0.3908 H   0  0  0  0  0  0  0  0  0  0  0  0
  1  2  1  0  0  0  0
  2  3  1  0  0  0  0
  3  4  1  0  0  0  0
  4  5  1  0  0  0  0
  1  6  1  0  0  0  0
  1  7  1  0  0  0  0
  1  8  1  0  0  0  0
  2  9  1  0  0  0  0
  2 10  1  0  0  0  0
  3 11  1  0  0  0  0
  3 12  1  0  0  0  0
  4 13  1  0  0  0  0
  4 14  1  0  0  0  0
  5 15  1  0  0  0  0
M  END
