 xtb: 6.7.1 (edcfbbe)
          07092610013D

 23 23  0     0  0            999 V2000
   -3.3105    1.2881    0.8028 O   0  0  0  0  0  0  0  0  0  0  0  0
   -2.9896   -0.0753    0.8225 C   0  0  0  0  0  0  0  0  0  0  0  0
   -1.6528   -0.3460    0.1169 C   0  0  0  0  0  0  0  0  0  0  0  0
   -1.8055    0.1385   -1.2028 O   0  0  0  0  0  0  0  0  0  0  0  0
   -0.4903    0.3515    0.8479 C   0  0  0  0  0  0  0  0  0  0  0  0
    0.7998    0.1156    0.1191 C   0  0  0  0  0  0  0  0  0  0  0  0
    1.5359   -1.0419    0.3460 C   0  0  0  0  0  0  0  0  0  0  0  0
    2.6947   -1.2913   -0.3664 C   0  0  0  0  0  0  0  0  0  0  0  0
    3.1318   -0.3888   -1.3220 C   0  0  0  0  0  0  0  0  0  0  0  0
    2.4061    0.7657   -1.5578 C   0  0  0  0  0  0  0  0  0  0  0  0
    1.2469    1.0151   -0.8426 C   0  0  0  0  0  0  0  0  0  0  0  0
   -3.2234    1.5746   -0.1162 H   0  0  0  0  0  0  0  0  0  0  0  0
   -2.9338   -0.3751    1.8704 H   0  0  0  0  0  0  0  0  0  0  0  0
   -3.7723   -0.6634    0.3224 H   0  0  0  0  0  0  0  0  0  0  0  0
   -1.4702   -1.4328    0.0971 H   0  0  0  0  0  0  0  0  0  0  0  0
   -0.9441    0.1192   -1.6372 H   0  0  0  0  0  0  0  0  0  0  0  0
   -0.7145    1.4181    0.9041 H   0  0  0  0  0  0  0  0  0  0  0  0
   -0.4355   -0.0482    1.8609 H   0  0  0  0  0  0  0  0  0  0  0  0
    1.1982   -1.7482    1.0912 H   0  0  0  0  0  0  0  0  0  0  0  0
    3.2595   -2.1920   -0.1758 H   0  0  0  0  0  0  0  0  0  0  0  0
    4.0368   -0.5835   -1.8779 H   0  0  0  0  0  0  0  0  0  0  0  0
    2.7427    1.4756   -2.2990 H   0  0  0  0  0  0  0  0  0  0  0  0
    0.6902    1.9244   -1.0232 H   0  0  0  0  0  0  0  0  0  0  0  0
  1  2  1  0  0  0  0
  2  3  1  0  0  0  0
  3  4  1  0  0  0  0
  3  5  1  0  0  0  0
  5  6  1  0  0  0  0
  6  7  4  0  0  0  0
  7  8  4  0  0  0  0
  8  9  4  0  0  0  0
  9 10  4  0  0  0  0
  6 11  4  0  0  0  0
 10 11  4  0  0  0  0
  1 12  1  0  0  0  0
  2 13  1  0  0  0  0
  2 14  1  0  0  0  0
  3 15  1  0  0  0  0
  4 16  1  0  0  0  0
  5 17  1  0  0  0  0
  5 18  1  0  0  0  0
  7 19  1  0  0  0  0
  8 20  1  0  0  0  0
  9 21  1  0  0  0  0
 10 22  1  0  0  0  0
 11 23  1  0  0  0  0
M  END
