 xtb: 6.7.1 (edcfbbe)
          07072615013D

 31 31  0     0  0            999 V2000
    3.9275    0.0318    1.7551 C   0  0  0  0  0  0  0  0  0  0  0  0
    3.9341    0.7963    0.4399 C   0  0  0  0  0  0  0  0  0  0  0  0
    2.6190    1.2382    0.0859 O   0  0  0  0  0  0  0  0  0  0  0  0
    1.8200    0.3559   -0.5114 C   0  0  0  0  0  0  0  0  0  0  0  0
    2.1255   -0.7729   -0.7782 O   0  0  0  0  0  0  0  0  0  0  0  0
    0.4640    1.0010   -0.7952 C   0  0  0  0  0  0  0  0  0  0  0  0
    0.2857    1.0957   -2.2232 C   0  0  0  0  0  0  0  0  0  0  0  0
    0.1492    1.1892   -3.3541 N   0  0  0  0  0  0  0  0  0  0  0  0
   -0.6903    0.2109   -0.1312 C   0  0  0  0  0  0  0  0  0  0  0  0
   -0.9292   -1.1355   -0.8139 C   0  0  0  0  0  0  0  0  0  0  0  0
   -2.0602   -1.8875   -0.1187 C   0  0  0  0  0  0  0  0  0  0  0  0
   -3.3414   -1.0598   -0.1386 C   0  0  0  0  0  0  0  0  0  0  0  0
   -3.1091    0.2912    0.5303 C   0  0  0  0  0  0  0  0  0  0  0  0
   -1.9735    1.0431   -0.1585 C   0  0  0  0  0  0  0  0  0  0  0  0
    4.9461   -0.2271    2.0289 H   0  0  0  0  0  0  0  0  0  0  0  0
    3.3490   -0.8827    1.6516 H   0  0  0  0  0  0  0  0  0  0  0  0
    3.4922    0.6411    2.5434 H   0  0  0  0  0  0  0  0  0  0  0  0
    4.3217    0.1650   -0.3655 H   0  0  0  0  0  0  0  0  0  0  0  0
    4.5252    1.7106    0.5160 H   0  0  0  0  0  0  0  0  0  0  0  0
    0.4938    2.0195   -0.3897 H   0  0  0  0  0  0  0  0  0  0  0  0
   -0.4068    0.0341    0.9138 H   0  0  0  0  0  0  0  0  0  0  0  0
   -1.1957   -0.9657   -1.8598 H   0  0  0  0  0  0  0  0  0  0  0  0
   -0.0148   -1.7297   -0.7940 H   0  0  0  0  0  0  0  0  0  0  0  0
   -1.7782   -2.0969    0.9162 H   0  0  0  0  0  0  0  0  0  0  0  0
   -2.2252   -2.8429   -0.6194 H   0  0  0  0  0  0  0  0  0  0  0  0
   -4.1413   -1.5959    0.3757 H   0  0  0  0  0  0  0  0  0  0  0  0
   -3.6535   -0.9020   -1.1733 H   0  0  0  0  0  0  0  0  0  0  0  0
   -2.8550    0.1362    1.5819 H   0  0  0  0  0  0  0  0  0  0  0  0
   -4.0211    0.8901    0.4918 H   0  0  0  0  0  0  0  0  0  0  0  0
   -1.8112    2.0020    0.3411 H   0  0  0  0  0  0  0  0  0  0  0  0
   -2.2465    1.2469   -1.1969 H   0  0  0  0  0  0  0  0  0  0  0  0
  1  2  1  0  0  0  0
  2  3  1  0  0  0  0
  3  4  1  0  0  0  0
  4  5  2  0  0  0  0
  4  6  1  0  0  0  0
  6  7  1  0  0  0  0
  7  8  3  0  0  0  0
  6  9  1  0  0  0  0
  9 10  1  0  0  0  0
 10 11  1  0  0  0  0
 11 12  1  0  0  0  0
 12 13  1  0  0  0  0
  9 14  1  0  0  0  0
 13 14  1  0  0  0  0
  1 15  1  0  0  0  0
  1 16  1  0  0  0  0
  1 17  1  0  0  0  0
  2 18  1  0  0  0  0
  2 19  1  0  0  0  0
  6 20  1  0  0  0  0
  9 21  1  0  0  0  0
 10 22  1  0  0  0  0
 10 23  1  0  0  0  0
 11 24  1  0  0  0  0
 11 25  1  0  0  0  0
 12 26  1  0  0  0  0
 12 27  1  0  0  0  0
 13 28  1  0  0  0  0
 13 29  1  0  0  0  0
 14 30  1  0  0  0  0
 14 31  1  0  0  0  0
M  END
