 xtb: 6.7.1 (edcfbbe)
          07062622003D

 57 58  0     0  0            999 V2000
    6.4161    1.6495   -2.9365 C   0  0  0  0  0  0  0  0  0  0  0  0
    5.2432    1.8857   -2.0300 C   0  0  0  0  0  0  0  0  0  0  0  0
    5.1106    3.3075   -1.5713 C   0  0  0  0  0  0  0  0  0  0  0  0
    4.4286    0.8955   -1.6849 C   0  0  0  0  0  0  0  0  0  0  0  0
    3.2412    0.9745   -0.7761 C   0  0  0  0  0  0  0  0  0  0  0  0
    3.6331    0.6236    0.6720 C   0  0  0  0  0  0  0  0  0  0  0  0
    2.4322    0.6812    1.5731 C   0  0  0  0  0  0  0  0  0  0  0  0
    2.0711    2.0455    2.0825 C   0  0  0  0  0  0  0  0  0  0  0  0
    1.7637   -0.4275    1.8724 C   0  0  0  0  0  0  0  0  0  0  0  0
    0.5456   -0.5249    2.7318 C   0  0  0  0  0  0  0  0  0  0  0  0
   -0.5615   -0.8735    1.8881 O   0  0  0  0  0  0  0  0  0  0  0  0
   -1.7859   -0.7143    2.4025 C   0  0  0  0  0  0  0  0  0  0  0  0
   -2.0062   -0.3512    3.5317 O   0  0  0  0  0  0  0  0  0  0  0  0
   -2.8195   -1.0860    1.4267 C   0  0  0  0  0  0  0  0  0  0  0  0
   -3.9882   -1.7909    1.6483 C   0  0  0  0  0  0  0  0  0  0  0  0
   -4.5223   -2.0235    0.3690 C   0  0  0  0  0  0  0  0  0  0  0  0
   -5.7778   -2.7476    0.0067 C   0  0  0  0  0  0  0  0  0  0  0  0
   -6.9883   -2.0570    0.6369 C   0  0  0  0  0  0  0  0  0  0  0  0
   -5.6935   -4.2087    0.4527 C   0  0  0  0  0  0  0  0  0  0  0  0
   -3.7392   -1.4923   -0.5544 N   0  0  0  0  0  0  0  0  0  0  0  0
   -2.7129   -0.9300    0.0763 N   0  0  0  0  0  0  0  0  0  0  0  0
   -1.7703   -0.1810   -0.6420 C   0  0  0  0  0  0  0  0  0  0  0  0
   -1.2962    1.0280   -0.1460 C   0  0  0  0  0  0  0  0  0  0  0  0
   -0.3837    1.7573   -0.8843 C   0  0  0  0  0  0  0  0  0  0  0  0
    0.0450    1.2974   -2.1186 C   0  0  0  0  0  0  0  0  0  0  0  0
   -0.4460    0.1031   -2.6191 C   0  0  0  0  0  0  0  0  0  0  0  0
   -1.3538   -0.6381   -1.8861 C   0  0  0  0  0  0  0  0  0  0  0  0
    6.3157    2.2412   -3.8464 H   0  0  0  0  0  0  0  0  0  0  0  0
    6.4984    0.6016   -3.2118 H   0  0  0  0  0  0  0  0  0  0  0  0
    7.3395    1.9553   -2.4454 H   0  0  0  0  0  0  0  0  0  0  0  0
    5.1753    3.9835   -2.4231 H   0  0  0  0  0  0  0  0  0  0  0  0
    5.9288    3.5532   -0.8938 H   0  0  0  0  0  0  0  0  0  0  0  0
    4.1745    3.4893   -1.0536 H   0  0  0  0  0  0  0  0  0  0  0  0
    4.6411   -0.0981   -2.0584 H   0  0  0  0  0  0  0  0  0  0  0  0
    2.7970    1.9697   -0.7962 H   0  0  0  0  0  0  0  0  0  0  0  0
    2.4789    0.2662   -1.1071 H   0  0  0  0  0  0  0  0  0  0  0  0
    4.0670   -0.3771    0.6838 H   0  0  0  0  0  0  0  0  0  0  0  0
    4.3918    1.3300    1.0144 H   0  0  0  0  0  0  0  0  0  0  0  0
    2.5022    2.2003    3.0720 H   0  0  0  0  0  0  0  0  0  0  0  0
    2.4695    2.8123    1.4230 H   0  0  0  0  0  0  0  0  0  0  0  0
    0.9953    2.1774    2.1565 H   0  0  0  0  0  0  0  0  0  0  0  0
    2.0828   -1.3704    1.4512 H   0  0  0  0  0  0  0  0  0  0  0  0
    0.6635   -1.3141    3.4851 H   0  0  0  0  0  0  0  0  0  0  0  0
    0.3137    0.4080    3.2524 H   0  0  0  0  0  0  0  0  0  0  0  0
   -4.3731   -2.0994    2.5978 H   0  0  0  0  0  0  0  0  0  0  0  0
   -5.8698   -2.7100   -1.0831 H   0  0  0  0  0  0  0  0  0  0  0  0
   -7.0463   -1.0209    0.3116 H   0  0  0  0  0  0  0  0  0  0  0  0
   -7.9047   -2.5643    0.3443 H   0  0  0  0  0  0  0  0  0  0  0  0
   -6.9144   -2.0745    1.7217 H   0  0  0  0  0  0  0  0  0  0  0  0
   -6.5915   -4.7448    0.1543 H   0  0  0  0  0  0  0  0  0  0  0  0
   -5.5969   -4.2713    1.5342 H   0  0  0  0  0  0  0  0  0  0  0  0
   -4.8327   -4.6956    0.0002 H   0  0  0  0  0  0  0  0  0  0  0  0
   -1.6549    1.3998    0.8027 H   0  0  0  0  0  0  0  0  0  0  0  0
   -0.0168    2.6972   -0.5000 H   0  0  0  0  0  0  0  0  0  0  0  0
    0.7547    1.8728   -2.6937 H   0  0  0  0  0  0  0  0  0  0  0  0
   -0.1187   -0.2533   -3.5842 H   0  0  0  0  0  0  0  0  0  0  0  0
   -1.7549   -1.5662   -2.2614 H   0  0  0  0  0  0  0  0  0  0  0  0
  1  2  1  0  0  0  0
  2  3  1  0  0  0  0
  2  4  2  0  0  0  0
  4  5  1  0  0  0  0
  5  6  1  0  0  0  0
  6  7  1  0  0  0  0
  7  8  1  0  0  0  0
  7  9  2  0  0  0  0
  9 10  1  0  0  0  0
 10 11  1  0  0  0  0
 11 12  1  0  0  0  0
 12 13  2  0  0  0  0
 12 14  1  0  0  0  0
 14 15  4  0  0  0  0
 15 16  4  0  0  0  0
 16 17  1  0  0  0  0
 17 18  1  0  0  0  0
 17 19  1  0  0  0  0
 16 20  4  0  0  0  0
 14 21  4  0  0  0  0
 20 21  4  0  0  0  0
 21 22  1  0  0  0  0
 22 23  4  0  0  0  0
 23 24  4  0  0  0  0
 24 25  4  0  0  0  0
 25 26  4  0  0  0  0
 22 27  4  0  0  0  0
 26 27  4  0  0  0  0
  1 28  1  0  0  0  0
  1 29  1  0  0  0  0
  1 30  1  0  0  0  0
  3 31  1  0  0  0  0
  3 32  1  0  0  0  0
  3 33  1  0  0  0  0
  4 34  1  0  0  0  0
  5 35  1  0  0  0  0
  5 36  1  0  0  0  0
  6 37  1  0  0  0  0
  6 38  1  0  0  0  0
  8 39  1  0  0  0  0
  8 40  1  0  0  0  0
  8 41  1  0  0  0  0
  9 42  1  0  0  0  0
 10 43  1  0  0  0  0
 10 44  1  0  0  0  0
 15 45  1  0  0  0  0
 17 46  1  0  0  0  0
 18 47  1  0  0  0  0
 18 48  1  0  0  0  0
 18 49  1  0  0  0  0
 19 50  1  0  0  0  0
 19 51  1  0  0  0  0
 19 52  1  0  0  0  0
 23 53  1  0  0  0  0
 24 54  1  0  0  0  0
 25 55  1  0  0  0  0
 26 56  1  0  0  0  0
 27 57  1  0  0  0  0
M  END
