 xtb: 6.7.1 (edcfbbe)
          07072615443D

 23 23  0     0  0            999 V2000
    4.1873    0.2005   -0.3548 C   0  0  0  0  0  0  0  0  0  0  0  0
    3.1044   -0.6618    0.2660 C   0  0  0  0  0  0  0  0  0  0  0  0
    1.8366   -0.0971   -0.0616 O   0  0  0  0  0  0  0  0  0  0  0  0
    0.7623   -0.7461    0.4067 C   0  0  0  0  0  0  0  0  0  0  0  0
    0.8419   -1.7548    1.0684 O   0  0  0  0  0  0  0  0  0  0  0  0
   -0.5115   -0.0937    0.0244 C   0  0  0  0  0  0  0  0  0  0  0  0
   -0.5448    1.0425   -0.7807 C   0  0  0  0  0  0  0  0  0  0  0  0
   -1.7675    1.6001   -1.1079 C   0  0  0  0  0  0  0  0  0  0  0  0
   -2.9452    1.0434   -0.6464 C   0  0  0  0  0  0  0  0  0  0  0  0
   -2.9246   -0.0948    0.1641 C   0  0  0  0  0  0  0  0  0  0  0  0
   -4.0897   -0.6100    0.6844 N   0  0  0  0  0  0  0  0  0  0  0  0
   -1.6923   -0.6565    0.4911 C   0  0  0  0  0  0  0  0  0  0  0  0
    5.1639   -0.2090   -0.1137 H   0  0  0  0  0  0  0  0  0  0  0  0
    4.1220    1.2153    0.0285 H   0  0  0  0  0  0  0  0  0  0  0  0
    4.0697    0.2289   -1.4348 H   0  0  0  0  0  0  0  0  0  0  0  0
    3.2024   -0.7028    1.3571 H   0  0  0  0  0  0  0  0  0  0  0  0
    3.1438   -1.6893   -0.1144 H   0  0  0  0  0  0  0  0  0  0  0  0
    0.3751    1.4723   -1.1413 H   0  0  0  0  0  0  0  0  0  0  0  0
   -1.8064    2.4796   -1.7338 H   0  0  0  0  0  0  0  0  0  0  0  0
   -3.8953    1.4870   -0.9086 H   0  0  0  0  0  0  0  0  0  0  0  0
   -4.0476   -1.5505    1.0403 H   0  0  0  0  0  0  0  0  0  0  0  0
   -4.9467   -0.3659    0.2169 H   0  0  0  0  0  0  0  0  0  0  0  0
   -1.6378   -1.5373    1.1135 H   0  0  0  0  0  0  0  0  0  0  0  0
  1  2  1  0  0  0  0
  2  3  1  0  0  0  0
  3  4  1  0  0  0  0
  4  5  2  0  0  0  0
  4  6  1  0  0  0  0
  6  7  4  0  0  0  0
  7  8  4  0  0  0  0
  8  9  4  0  0  0  0
  9 10  4  0  0  0  0
 10 11  1  0  0  0  0
  6 12  4  0  0  0  0
 10 12  4  0  0  0  0
  1 13  1  0  0  0  0
  1 14  1  0  0  0  0
  1 15  1  0  0  0  0
  2 16  1  0  0  0  0
  2 17  1  0  0  0  0
  7 18  1  0  0  0  0
  8 19  1  0  0  0  0
  9 20  1  0  0  0  0
 11 21  1  0  0  0  0
 11 22  1  0  0  0  0
 12 23  1  0  0  0  0
M  END
