 xtb: 6.7.1 (edcfbbe)
          07082611123D

 25 24  0     0  0            999 V2000
   -4.2521   -0.1634   -0.3050 C   0  0  0  0  0  0  0  0  0  0  0  0
   -2.9568    0.6086   -0.0866 C   0  0  0  0  0  0  0  0  0  0  0  0
   -1.7329   -0.3012   -0.1602 C   0  0  0  0  0  0  0  0  0  0  0  0
   -0.4314    0.4695    0.0472 C   0  0  0  0  0  0  0  0  0  0  0  0
    0.7919   -0.4410   -0.0305 C   0  0  0  0  0  0  0  0  0  0  0  0
    2.0920    0.3334    0.1736 C   0  0  0  0  0  0  0  0  0  0  0  0
    3.3147   -0.5812    0.0776 C   0  0  0  0  0  0  0  0  0  0  0  0
    4.5882    0.1583    0.3556 C   0  0  0  0  0  0  0  0  0  0  0  0
    5.5947    0.0849   -0.2905 O   0  0  0  0  0  0  0  0  0  0  0  0
   -4.2518   -0.6400   -1.2829 H   0  0  0  0  0  0  0  0  0  0  0  0
   -4.3678   -0.9367    0.4515 H   0  0  0  0  0  0  0  0  0  0  0  0
   -5.1096    0.5030   -0.2484 H   0  0  0  0  0  0  0  0  0  0  0  0
   -2.9852    1.0961    0.8906 H   0  0  0  0  0  0  0  0  0  0  0  0
   -2.8693    1.3914   -0.8435 H   0  0  0  0  0  0  0  0  0  0  0  0
   -1.8172   -1.0804    0.6012 H   0  0  0  0  0  0  0  0  0  0  0  0
   -1.7091   -0.7940   -1.1350 H   0  0  0  0  0  0  0  0  0  0  0  0
   -0.4550    0.9617    1.0225 H   0  0  0  0  0  0  0  0  0  0  0  0
   -0.3495    1.2495   -0.7134 H   0  0  0  0  0  0  0  0  0  0  0  0
    0.8134   -0.9326   -1.0056 H   0  0  0  0  0  0  0  0  0  0  0  0
    0.7110   -1.2203    0.7311 H   0  0  0  0  0  0  0  0  0  0  0  0
    2.1687    1.1171   -0.5831 H   0  0  0  0  0  0  0  0  0  0  0  0
    2.0763    0.8169    1.1533 H   0  0  0  0  0  0  0  0  0  0  0  0
    3.2313   -1.3695    0.8325 H   0  0  0  0  0  0  0  0  0  0  0  0
    3.3735   -1.0535   -0.9043 H   0  0  0  0  0  0  0  0  0  0  0  0
    4.5321    0.8098    1.2522 H   0  0  0  0  0  0  0  0  0  0  0  0
  1  2  1  0  0  0  0
  2  3  1  0  0  0  0
  3  4  1  0  0  0  0
  4  5  1  0  0  0  0
  5  6  1  0  0  0  0
  6  7  1  0  0  0  0
  7  8  1  0  0  0  0
  8  9  2  0  0  0  0
  1 10  1  0  0  0  0
  1 11  1  0  0  0  0
  1 12  1  0  0  0  0
  2 13  1  0  0  0  0
  2 14  1  0  0  0  0
  3 15  1  0  0  0  0
  3 16  1  0  0  0  0
  4 17  1  0  0  0  0
  4 18  1  0  0  0  0
  5 19  1  0  0  0  0
  5 20  1  0  0  0  0
  6 21  1  0  0  0  0
  6 22  1  0  0  0  0
  7 23  1  0  0  0  0
  7 24  1  0  0  0  0
  8 25  1  0  0  0  0
M  END
