 xtb: 6.7.1 (edcfbbe)
          07072622383D

 31 30  0     0  0            999 V2000
    4.1395   -0.7140    0.3410 C   0  0  0  0  0  0  0  0  0  0  0  0
    2.6443   -0.5945    0.0733 C   0  0  0  0  0  0  0  0  0  0  0  0
    2.0832    0.7158    0.6477 C   0  0  0  0  0  0  0  0  0  0  0  0
    2.6110    1.8360   -0.0173 O   0  0  0  0  0  0  0  0  0  0  0  0
    0.5431    0.7422    0.6574 C   0  0  0  0  0  0  0  0  0  0  0  0
   -0.1098    0.3934   -0.6839 C   0  0  0  0  0  0  0  0  0  0  0  0
    0.4848    1.2007   -1.6934 O   0  0  0  0  0  0  0  0  0  0  0  0
   -1.6261    0.6317   -0.6617 C   0  0  0  0  0  0  0  0  0  0  0  0
   -2.4217   -0.1936    0.3550 C   0  0  0  0  0  0  0  0  0  0  0  0
   -2.2728   -1.6943    0.1146 C   0  0  0  0  0  0  0  0  0  0  0  0
   -3.8964    0.2012    0.2785 C   0  0  0  0  0  0  0  0  0  0  0  0
    4.6495    0.1699   -0.0330 H   0  0  0  0  0  0  0  0  0  0  0  0
    4.3302   -0.7938    1.4089 H   0  0  0  0  0  0  0  0  0  0  0  0
    4.5499   -1.5926   -0.1515 H   0  0  0  0  0  0  0  0  0  0  0  0
    2.1157   -1.4388    0.5207 H   0  0  0  0  0  0  0  0  0  0  0  0
    2.4723   -0.6070   -1.0046 H   0  0  0  0  0  0  0  0  0  0  0  0
    2.4269    0.8162    1.6857 H   0  0  0  0  0  0  0  0  0  0  0  0
    2.1716    1.8800   -0.8780 H   0  0  0  0  0  0  0  0  0  0  0  0
    0.2337    1.7489    0.9453 H   0  0  0  0  0  0  0  0  0  0  0  0
    0.1858    0.0384    1.4087 H   0  0  0  0  0  0  0  0  0  0  0  0
    0.0878   -0.6627   -0.9213 H   0  0  0  0  0  0  0  0  0  0  0  0
   -0.0101    1.0889   -2.5116 H   0  0  0  0  0  0  0  0  0  0  0  0
   -1.7933    1.6940   -0.4652 H   0  0  0  0  0  0  0  0  0  0  0  0
   -2.0184    0.4153   -1.6620 H   0  0  0  0  0  0  0  0  0  0  0  0
   -2.0600    0.0388    1.3611 H   0  0  0  0  0  0  0  0  0  0  0  0
   -2.9162   -2.2473    0.7951 H   0  0  0  0  0  0  0  0  0  0  0  0
   -2.5581   -1.9468   -0.9046 H   0  0  0  0  0  0  0  0  0  0  0  0
   -1.2495   -2.0211    0.2796 H   0  0  0  0  0  0  0  0  0  0  0  0
   -4.3011   -0.0257   -0.7057 H   0  0  0  0  0  0  0  0  0  0  0  0
   -4.0207    1.2656    0.4639 H   0  0  0  0  0  0  0  0  0  0  0  0
   -4.4752   -0.3446    1.0198 H   0  0  0  0  0  0  0  0  0  0  0  0
  1  2  1  0  0  0  0
  2  3  1  0  0  0  0
  3  4  1  0  0  0  0
  3  5  1  0  0  0  0
  5  6  1  0  0  0  0
  6  7  1  0  0  0  0
  6  8  1  0  0  0  0
  8  9  1  0  0  0  0
  9 10  1  0  0  0  0
  9 11  1  0  0  0  0
  1 12  1  0  0  0  0
  1 13  1  0  0  0  0
  1 14  1  0  0  0  0
  2 15  1  0  0  0  0
  2 16  1  0  0  0  0
  3 17  1  0  0  0  0
  4 18  1  0  0  0  0
  5 19  1  0  0  0  0
  5 20  1  0  0  0  0
  6 21  1  0  0  0  0
  7 22  1  0  0  0  0
  8 23  1  0  0  0  0
  8 24  1  0  0  0  0
  9 25  1  0  0  0  0
 10 26  1  0  0  0  0
 10 27  1  0  0  0  0
 10 28  1  0  0  0  0
 11 29  1  0  0  0  0
 11 30  1  0  0  0  0
 11 31  1  0  0  0  0
M  END
