 xtb: 6.7.1 (edcfbbe)
          07072610443D

 28 28  0     0  0            999 V2000
    4.9598   -0.2189   -0.0426 C   0  0  0  0  0  0  0  0  0  0  0  0
    3.7064   -1.0774    0.0488 C   0  0  0  0  0  0  0  0  0  0  0  0
    2.4879   -0.2594    0.4025 C   0  0  0  0  0  0  0  0  0  0  0  0
    2.4807    0.9317    0.5899 O   0  0  0  0  0  0  0  0  0  0  0  0
    1.4045   -1.0352    0.4856 O   0  0  0  0  0  0  0  0  0  0  0  0
    0.1652   -0.4360    0.8702 C   0  0  0  0  0  0  0  0  0  0  0  0
   -0.4009    0.5516   -0.1815 C   0  0  0  0  0  0  0  0  0  0  0  0
   -0.0855    1.8794    0.1325 O   0  0  0  0  0  0  0  0  0  0  0  0
   -1.9026    0.3909   -0.2515 C   0  0  0  0  0  0  0  0  0  0  0  0
   -2.7358    1.2285    0.4746 C   0  0  0  0  0  0  0  0  0  0  0  0
   -4.1083    1.0572    0.4271 C   0  0  0  0  0  0  0  0  0  0  0  0
   -4.6573    0.0445   -0.3400 C   0  0  0  0  0  0  0  0  0  0  0  0
   -3.8286   -0.7952   -1.0656 C   0  0  0  0  0  0  0  0  0  0  0  0
   -2.4572   -0.6223   -1.0227 C   0  0  0  0  0  0  0  0  0  0  0  0
    4.8399    0.5449   -0.8063 H   0  0  0  0  0  0  0  0  0  0  0  0
    5.1453    0.2795    0.9051 H   0  0  0  0  0  0  0  0  0  0  0  0
    5.8201   -0.8342   -0.2915 H   0  0  0  0  0  0  0  0  0  0  0  0
    3.5051   -1.5793   -0.9000 H   0  0  0  0  0  0  0  0  0  0  0  0
    3.8177   -1.8544    0.8081 H   0  0  0  0  0  0  0  0  0  0  0  0
    0.2917    0.0975    1.8184 H   0  0  0  0  0  0  0  0  0  0  0  0
   -0.5101   -1.2811    1.0098 H   0  0  0  0  0  0  0  0  0  0  0  0
    0.0322    0.2717   -1.1591 H   0  0  0  0  0  0  0  0  0  0  0  0
    0.8710    1.9282    0.3025 H   0  0  0  0  0  0  0  0  0  0  0  0
   -2.2975    2.0205    1.0602 H   0  0  0  0  0  0  0  0  0  0  0  0
   -4.7509    1.7163    0.9921 H   0  0  0  0  0  0  0  0  0  0  0  0
   -5.7285   -0.0894   -0.3767 H   0  0  0  0  0  0  0  0  0  0  0  0
   -4.2524   -1.5841   -1.6698 H   0  0  0  0  0  0  0  0  0  0  0  0
   -1.8117   -1.2755   -1.5932 H   0  0  0  0  0  0  0  0  0  0  0  0
  1  2  1  0  0  0  0
  2  3  1  0  0  0  0
  3  4  2  0  0  0  0
  3  5  1  0  0  0  0
  5  6  1  0  0  0  0
  6  7  1  0  0  0  0
  7  8  1  0  0  0  0
  7  9  1  0  0  0  0
  9 10  4  0  0  0  0
 10 11  4  0  0  0  0
 11 12  4  0  0  0  0
 12 13  4  0  0  0  0
  9 14  4  0  0  0  0
 13 14  4  0  0  0  0
  1 15  1  0  0  0  0
  1 16  1  0  0  0  0
  1 17  1  0  0  0  0
  2 18  1  0  0  0  0
  2 19  1  0  0  0  0
  6 20  1  0  0  0  0
  6 21  1  0  0  0  0
  7 22  1  0  0  0  0
  8 23  1  0  0  0  0
 10 24  1  0  0  0  0
 11 25  1  0  0  0  0
 12 26  1  0  0  0  0
 13 27  1  0  0  0  0
 14 28  1  0  0  0  0
M  END
