 xtb: 6.7.1 (edcfbbe)
          07092604253D

 18 19  0     0  0            999 V2000
    2.5402    0.4447   -0.1646 C   0  0  0  0  0  0  0  0  0  0  0  0
    2.4192   -0.8791    0.2275 C   0  0  0  0  0  0  0  0  0  0  0  0
    1.1680   -1.4404    0.3933 C   0  0  0  0  0  0  0  0  0  0  0  0
    0.0251   -0.6803    0.1802 C   0  0  0  0  0  0  0  0  0  0  0  0
    0.1475    0.6652   -0.1780 C   0  0  0  0  0  0  0  0  0  0  0  0
    1.4102    1.2145   -0.3606 C   0  0  0  0  0  0  0  0  0  0  0  0
   -0.9479    1.4750   -0.3544 O   0  0  0  0  0  0  0  0  0  0  0  0
   -2.1352    0.9275    0.1713 C   0  0  0  0  0  0  0  0  0  0  0  0
   -2.2590   -0.5426   -0.2270 C   0  0  0  0  0  0  0  0  0  0  0  0
   -1.1984   -1.2870    0.3272 O   0  0  0  0  0  0  0  0  0  0  0  0
    3.5160    0.8819   -0.3087 H   0  0  0  0  0  0  0  0  0  0  0  0
    3.3003   -1.4790    0.3952 H   0  0  0  0  0  0  0  0  0  0  0  0
    1.0462   -2.4719    0.6832 H   0  0  0  0  0  0  0  0  0  0  0  0
    1.4768    2.2509   -0.6512 H   0  0  0  0  0  0  0  0  0  0  0  0
   -2.1307    1.0042    1.2677 H   0  0  0  0  0  0  0  0  0  0  0  0
   -2.9570    1.5197   -0.2342 H   0  0  0  0  0  0  0  0  0  0  0  0
   -3.1811   -0.9820    0.1563 H   0  0  0  0  0  0  0  0  0  0  0  0
   -2.2402   -0.6213   -1.3231 H   0  0  0  0  0  0  0  0  0  0  0  0
  1  2  4  0  0  0  0
  2  3  4  0  0  0  0
  3  4  4  0  0  0  0
  4  5  4  0  0  0  0
  1  6  4  0  0  0  0
  5  6  4  0  0  0  0
  5  7  1  0  0  0  0
  7  8  1  0  0  0  0
  8  9  1  0  0  0  0
  4 10  1  0  0  0  0
  9 10  1  0  0  0  0
  1 11  1  0  0  0  0
  2 12  1  0  0  0  0
  3 13  1  0  0  0  0
  6 14  1  0  0  0  0
  8 15  1  0  0  0  0
  8 16  1  0  0  0  0
  9 17  1  0  0  0  0
  9 18  1  0  0  0  0
M  END
