 xtb: 6.7.1 (edcfbbe)
          07092600593D

 26 25  0     0  0            999 V2000
    4.1991   -0.7901   -0.2758 C   0  0  0  0  0  0  0  0  0  0  0  0
    2.9735   -0.9273    0.2184 C   0  0  0  0  0  0  0  0  0  0  0  0
    1.9786    0.1278    0.3617 C   0  0  0  0  0  0  0  0  0  0  0  0
    2.3613    1.4981   -0.1146 C   0  0  0  0  0  0  0  0  0  0  0  0
    0.7957   -0.1747    0.9097 C   0  0  0  0  0  0  0  0  0  0  0  0
   -0.3731    0.7363    1.1393 C   0  0  0  0  0  0  0  0  0  0  0  0
   -1.3373    0.5842   -0.0057 C   0  0  0  0  0  0  0  0  0  0  0  0
   -2.4536   -0.1327   -0.0378 C   0  0  0  0  0  0  0  0  0  0  0  0
   -3.0033   -0.9357    1.1032 C   0  0  0  0  0  0  0  0  0  0  0  0
   -3.2990   -0.1929   -1.2779 C   0  0  0  0  0  0  0  0  0  0  0  0
    4.5838    0.1497   -0.6320 H   0  0  0  0  0  0  0  0  0  0  0  0
    4.8721   -1.6283   -0.3409 H   0  0  0  0  0  0  0  0  0  0  0  0
    2.6539   -1.9042    0.5607 H   0  0  0  0  0  0  0  0  0  0  0  0
    1.5511    2.2092    0.0065 H   0  0  0  0  0  0  0  0  0  0  0  0
    2.6264    1.4599   -1.1703 H   0  0  0  0  0  0  0  0  0  0  0  0
    3.2274    1.8596    0.4388 H   0  0  0  0  0  0  0  0  0  0  0  0
    0.6105   -1.2040    1.1916 H   0  0  0  0  0  0  0  0  0  0  0  0
   -0.0550    1.7782    1.2005 H   0  0  0  0  0  0  0  0  0  0  0  0
   -0.8481    0.4758    2.0859 H   0  0  0  0  0  0  0  0  0  0  0  0
   -1.0294    1.1023   -0.9053 H   0  0  0  0  0  0  0  0  0  0  0  0
   -3.1024   -1.9789    0.8036 H   0  0  0  0  0  0  0  0  0  0  0  0
   -2.3717   -0.8930    1.9844 H   0  0  0  0  0  0  0  0  0  0  0  0
   -3.9968   -0.5742    1.3692 H   0  0  0  0  0  0  0  0  0  0  0  0
   -3.3794   -1.2214   -1.6295 H   0  0  0  0  0  0  0  0  0  0  0  0
   -2.8771    0.4139   -2.0746 H   0  0  0  0  0  0  0  0  0  0  0  0
   -4.3071    0.1624   -1.0651 H   0  0  0  0  0  0  0  0  0  0  0  0
  1  2  2  0  0  0  0
  2  3  1  0  0  0  0
  3  4  1  0  0  0  0
  3  5  2  0  0  0  0
  5  6  1  0  0  0  0
  6  7  1  0  0  0  0
  7  8  2  0  0  0  0
  8  9  1  0  0  0  0
  8 10  1  0  0  0  0
  1 11  1  0  0  0  0
  1 12  1  0  0  0  0
  2 13  1  0  0  0  0
  4 14  1  0  0  0  0
  4 15  1  0  0  0  0
  4 16  1  0  0  0  0
  5 17  1  0  0  0  0
  6 18  1  0  0  0  0
  6 19  1  0  0  0  0
  7 20  1  0  0  0  0
  9 21  1  0  0  0  0
  9 22  1  0  0  0  0
  9 23  1  0  0  0  0
 10 24  1  0  0  0  0
 10 25  1  0  0  0  0
 10 26  1  0  0  0  0
M  END
