 xtb: 6.7.1 (edcfbbe)
          07072605363D

 35 35  0     0  0            999 V2000
    6.1083   -0.0673   -0.6108 C   0  0  0  0  0  0  0  0  0  0  0  0
    4.7266    0.5496   -0.4737 C   0  0  0  0  0  0  0  0  0  0  0  0
    3.7711   -0.4915   -0.4410 O   0  0  0  0  0  0  0  0  0  0  0  0
    2.4556   -0.0291   -0.2916 C   0  0  0  0  0  0  0  0  0  0  0  0
    1.5363   -1.2482   -0.2249 C   0  0  0  0  0  0  0  0  0  0  0  0
    0.1651   -0.8648   -0.2788 O   0  0  0  0  0  0  0  0  0  0  0  0
   -0.3863   -0.4333    0.8505 C   0  0  0  0  0  0  0  0  0  0  0  0
    0.1840   -0.3622    1.9129 O   0  0  0  0  0  0  0  0  0  0  0  0
   -1.8451   -0.0221    0.6889 C   0  0  0  0  0  0  0  0  0  0  0  0
   -2.3285    0.3780    1.9483 O   0  0  0  0  0  0  0  0  0  0  0  0
   -1.9187    1.1488   -0.3110 C   0  0  0  0  0  0  0  0  0  0  0  0
   -3.3724    1.5448   -0.5458 C   0  0  0  0  0  0  0  0  0  0  0  0
   -4.1683    0.3593   -1.0800 C   0  0  0  0  0  0  0  0  0  0  0  0
   -4.1061   -0.7946   -0.0855 C   0  0  0  0  0  0  0  0  0  0  0  0
   -2.6603   -1.2150    0.1564 C   0  0  0  0  0  0  0  0  0  0  0  0
    6.1609   -0.6562   -1.5220 H   0  0  0  0  0  0  0  0  0  0  0  0
    6.3056   -0.7202    0.2343 H   0  0  0  0  0  0  0  0  0  0  0  0
    6.8615    0.7147   -0.6444 H   0  0  0  0  0  0  0  0  0  0  0  0
    4.6609    1.1444    0.4507 H   0  0  0  0  0  0  0  0  0  0  0  0
    4.5177    1.2195   -1.3229 H   0  0  0  0  0  0  0  0  0  0  0  0
    2.3527    0.5665    0.6285 H   0  0  0  0  0  0  0  0  0  0  0  0
    2.1649    0.6037   -1.1468 H   0  0  0  0  0  0  0  0  0  0  0  0
    1.7324   -1.8049    0.6957 H   0  0  0  0  0  0  0  0  0  0  0  0
    1.7061   -1.8874   -1.0921 H   0  0  0  0  0  0  0  0  0  0  0  0
   -1.5933    0.3011    2.5775 H   0  0  0  0  0  0  0  0  0  0  0  0
   -1.3618    1.9954    0.0964 H   0  0  0  0  0  0  0  0  0  0  0  0
   -1.4519    0.8381   -1.2468 H   0  0  0  0  0  0  0  0  0  0  0  0
   -3.4136    2.3794   -1.2482 H   0  0  0  0  0  0  0  0  0  0  0  0
   -3.8017    1.8695    0.4029 H   0  0  0  0  0  0  0  0  0  0  0  0
   -3.7527    0.0404   -2.0391 H   0  0  0  0  0  0  0  0  0  0  0  0
   -5.2068    0.6531   -1.2432 H   0  0  0  0  0  0  0  0  0  0  0  0
   -4.6758   -1.6484   -0.4569 H   0  0  0  0  0  0  0  0  0  0  0  0
   -4.5390   -0.4763    0.8637 H   0  0  0  0  0  0  0  0  0  0  0  0
   -2.2035   -1.5636   -0.7707 H   0  0  0  0  0  0  0  0  0  0  0  0
   -2.6242   -2.0215    0.8914 H   0  0  0  0  0  0  0  0  0  0  0  0
  1  2  1  0  0  0  0
  2  3  1  0  0  0  0
  3  4  1  0  0  0  0
  4  5  1  0  0  0  0
  5  6  1  0  0  0  0
  6  7  1  0  0  0  0
  7  8  2  0  0  0  0
  7  9  1  0  0  0  0
  9 10  1  0  0  0  0
  9 11  1  0  0  0  0
 11 12  1  0  0  0  0
 12 13  1  0  0  0  0
 13 14  1  0  0  0  0
  9 15  1  0  0  0  0
 14 15  1  0  0  0  0
  1 16  1  0  0  0  0
  1 17  1  0  0  0  0
  1 18  1  0  0  0  0
  2 19  1  0  0  0  0
  2 20  1  0  0  0  0
  4 21  1  0  0  0  0
  4 22  1  0  0  0  0
  5 23  1  0  0  0  0
  5 24  1  0  0  0  0
 10 25  1  0  0  0  0
 11 26  1  0  0  0  0
 11 27  1  0  0  0  0
 12 28  1  0  0  0  0
 12 29  1  0  0  0  0
 13 30  1  0  0  0  0
 13 31  1  0  0  0  0
 14 32  1  0  0  0  0
 14 33  1  0  0  0  0
 15 34  1  0  0  0  0
 15 35  1  0  0  0  0
M  END
