 xtb: 6.7.1 (edcfbbe)
          07082605483D

 27 27  0     0  0            999 V2000
    4.1560    0.5990    0.5817 O   0  0  0  0  0  0  0  0  0  0  0  0
    3.7061   -0.4900    0.3530 C   0  0  0  0  0  0  0  0  0  0  0  0
    4.4778   -1.5885    0.3079 O   0  0  0  0  0  0  0  0  0  0  0  0
    2.2621   -0.8213    0.0820 C   0  0  0  0  0  0  0  0  0  0  0  0
    1.3697    0.4131    0.1681 C   0  0  0  0  0  0  0  0  0  0  0  0
   -0.0747    0.1519   -0.2682 C   0  0  0  0  0  0  0  0  0  0  0  0
   -0.8288    1.4776   -0.3998 C   0  0  0  0  0  0  0  0  0  0  0  0
   -2.2690    1.2514   -0.8491 C   0  0  0  0  0  0  0  0  0  0  0  0
   -2.9975    0.3429    0.1353 C   0  0  0  0  0  0  0  0  0  0  0  0
   -2.2587   -0.9842    0.2685 C   0  0  0  0  0  0  0  0  0  0  0  0
   -0.8164   -0.7567    0.7141 C   0  0  0  0  0  0  0  0  0  0  0  0
    5.4037   -1.3559    0.4808 H   0  0  0  0  0  0  0  0  0  0  0  0
    1.9615   -1.5878    0.7980 H   0  0  0  0  0  0  0  0  0  0  0  0
    2.2090   -1.2691   -0.9135 H   0  0  0  0  0  0  0  0  0  0  0  0
    1.3812    0.7925    1.1915 H   0  0  0  0  0  0  0  0  0  0  0  0
    1.8010    1.1895   -0.4673 H   0  0  0  0  0  0  0  0  0  0  0  0
   -0.0606   -0.3354   -1.2503 H   0  0  0  0  0  0  0  0  0  0  0  0
   -0.3159    2.1224   -1.1167 H   0  0  0  0  0  0  0  0  0  0  0  0
   -0.8265    1.9869    0.5665 H   0  0  0  0  0  0  0  0  0  0  0  0
   -2.7867    2.2096   -0.9274 H   0  0  0  0  0  0  0  0  0  0  0  0
   -2.2718    0.7882   -1.8387 H   0  0  0  0  0  0  0  0  0  0  0  0
   -3.0452    0.8310    1.1114 H   0  0  0  0  0  0  0  0  0  0  0  0
   -4.0212    0.1686   -0.2026 H   0  0  0  0  0  0  0  0  0  0  0  0
   -2.2622   -1.4975   -0.6961 H   0  0  0  0  0  0  0  0  0  0  0  0
   -2.7705   -1.6255    0.9894 H   0  0  0  0  0  0  0  0  0  0  0  0
   -0.8127   -0.2923    1.7031 H   0  0  0  0  0  0  0  0  0  0  0  0
   -0.3100   -1.7204    0.7932 H   0  0  0  0  0  0  0  0  0  0  0  0
  1  2  2  0  0  0  0
  2  3  1  0  0  0  0
  2  4  1  0  0  0  0
  4  5  1  0  0  0  0
  5  6  1  0  0  0  0
  6  7  1  0  0  0  0
  7  8  1  0  0  0  0
  8  9  1  0  0  0  0
  9 10  1  0  0  0  0
  6 11  1  0  0  0  0
 10 11  1  0  0  0  0
  3 12  1  0  0  0  0
  4 13  1  0  0  0  0
  4 14  1  0  0  0  0
  5 15  1  0  0  0  0
  5 16  1  0  0  0  0
  6 17  1  0  0  0  0
  7 18  1  0  0  0  0
  7 19  1  0  0  0  0
  8 20  1  0  0  0  0
  8 21  1  0  0  0  0
  9 22  1  0  0  0  0
  9 23  1  0  0  0  0
 10 24  1  0  0  0  0
 10 25  1  0  0  0  0
 11 26  1  0  0  0  0
 11 27  1  0  0  0  0
M  END
