 xtb: 6.7.1 (edcfbbe)
          07082622393D

 19 19  0     0  0            999 V2000
   -3.3669    0.1137    0.1795 C   0  0  0  0  0  0  0  0  0  0  0  0
   -2.3741   -0.8806    0.1551 O   0  0  0  0  0  0  0  0  0  0  0  0
   -1.0671   -0.4927    0.0786 C   0  0  0  0  0  0  0  0  0  0  0  0
   -0.1265   -1.5223    0.0512 C   0  0  0  0  0  0  0  0  0  0  0  0
    1.2196   -1.2370   -0.0275 C   0  0  0  0  0  0  0  0  0  0  0  0
    1.6727    0.0771   -0.0820 C   0  0  0  0  0  0  0  0  0  0  0  0
    3.1388    0.3844   -0.1459 C   0  0  0  0  0  0  0  0  0  0  0  0
    0.7307    1.0934   -0.0530 C   0  0  0  0  0  0  0  0  0  0  0  0
   -0.6258    0.8233    0.0260 C   0  0  0  0  0  0  0  0  0  0  0  0
   -3.3500    0.7231   -0.7304 H   0  0  0  0  0  0  0  0  0  0  0  0
   -3.2644    0.7650    1.0540 H   0  0  0  0  0  0  0  0  0  0  0  0
   -4.3158   -0.4176    0.2375 H   0  0  0  0  0  0  0  0  0  0  0  0
   -0.4801   -2.5406    0.0913 H   0  0  0  0  0  0  0  0  0  0  0  0
    1.9333   -2.0480   -0.0489 H   0  0  0  0  0  0  0  0  0  0  0  0
    3.6792   -0.4117   -0.6528 H   0  0  0  0  0  0  0  0  0  0  0  0
    3.3164    1.3207   -0.6702 H   0  0  0  0  0  0  0  0  0  0  0  0
    3.5463    0.4798    0.8614 H   0  0  0  0  0  0  0  0  0  0  0  0
    1.0566    2.1233   -0.0941 H   0  0  0  0  0  0  0  0  0  0  0  0
   -1.3227    1.6467    0.0440 H   0  0  0  0  0  0  0  0  0  0  0  0
  1  2  1  0  0  0  0
  2  3  1  0  0  0  0
  3  4  4  0  0  0  0
  4  5  4  0  0  0  0
  5  6  4  0  0  0  0
  6  7  1  0  0  0  0
  6  8  4  0  0  0  0
  3  9  4  0  0  0  0
  8  9  4  0  0  0  0
  1 10  1  0  0  0  0
  1 11  1  0  0  0  0
  1 12  1  0  0  0  0
  4 13  1  0  0  0  0
  5 14  1  0  0  0  0
  7 15  1  0  0  0  0
  7 16  1  0  0  0  0
  7 17  1  0  0  0  0
  8 18  1  0  0  0  0
  9 19  1  0  0  0  0
M  END
