 xtb: 6.7.1 (edcfbbe)
          07072607453D

 38 38  0     0  0            999 V2000
    3.6267    0.7410    1.9934 C   0  0  0  0  0  0  0  0  0  0  0  0
    2.3783    0.3811    1.1928 C   0  0  0  0  0  0  0  0  0  0  0  0
    1.9982    1.5113    0.2409 C   0  0  0  0  0  0  0  0  0  0  0  0
    2.6193   -0.9211    0.4195 C   0  0  0  0  0  0  0  0  0  0  0  0
    1.4592   -1.3186   -0.3383 N   0  0  0  0  0  0  0  0  0  0  0  0
    1.4667   -1.4914   -1.6671 C   0  0  0  0  0  0  0  0  0  0  0  0
    2.4556   -1.4436   -2.3688 O   0  0  0  0  0  0  0  0  0  0  0  0
    0.0814   -1.7701   -2.2576 C   0  0  0  0  0  0  0  0  0  0  0  0
   -0.9033   -1.7210   -1.2567 O   0  0  0  0  0  0  0  0  0  0  0  0
   -2.2263   -1.6372   -1.7369 C   0  0  0  0  0  0  0  0  0  0  0  0
   -3.1339   -1.3063   -0.5483 C   0  0  0  0  0  0  0  0  0  0  0  0
   -2.6924   -0.0099    0.0724 C   0  0  0  0  0  0  0  0  0  0  0  0
   -3.0569    1.2027   -0.4987 C   0  0  0  0  0  0  0  0  0  0  0  0
   -2.5996    2.3970    0.0289 C   0  0  0  0  0  0  0  0  0  0  0  0
   -1.7695    2.3937    1.1368 C   0  0  0  0  0  0  0  0  0  0  0  0
   -1.4040    1.1908    1.7153 C   0  0  0  0  0  0  0  0  0  0  0  0
   -1.8609   -0.0027    1.1840 C   0  0  0  0  0  0  0  0  0  0  0  0
    3.8885   -0.0595    2.6818 H   0  0  0  0  0  0  0  0  0  0  0  0
    3.4606    1.6483    2.5691 H   0  0  0  0  0  0  0  0  0  0  0  0
    4.4679    0.9077    1.3248 H   0  0  0  0  0  0  0  0  0  0  0  0
    1.5473    0.2159    1.8886 H   0  0  0  0  0  0  0  0  0  0  0  0
    2.7859    1.6666   -0.4926 H   0  0  0  0  0  0  0  0  0  0  0  0
    1.8482    2.4370    0.7914 H   0  0  0  0  0  0  0  0  0  0  0  0
    1.0766    1.2770   -0.2870 H   0  0  0  0  0  0  0  0  0  0  0  0
    3.4334   -0.7944   -0.2985 H   0  0  0  0  0  0  0  0  0  0  0  0
    2.8907   -1.7204    1.1196 H   0  0  0  0  0  0  0  0  0  0  0  0
    0.5632   -1.3423    0.1264 H   0  0  0  0  0  0  0  0  0  0  0  0
   -0.1048   -1.0101   -3.0312 H   0  0  0  0  0  0  0  0  0  0  0  0
    0.0999   -2.7517   -2.7546 H   0  0  0  0  0  0  0  0  0  0  0  0
   -2.5271   -2.5880   -2.2033 H   0  0  0  0  0  0  0  0  0  0  0  0
   -2.2983   -0.8431   -2.4955 H   0  0  0  0  0  0  0  0  0  0  0  0
   -4.1627   -1.2359   -0.9044 H   0  0  0  0  0  0  0  0  0  0  0  0
   -3.0643   -2.1146    0.1802 H   0  0  0  0  0  0  0  0  0  0  0  0
   -3.7063    1.2105   -1.3632 H   0  0  0  0  0  0  0  0  0  0  0  0
   -2.8911    3.3326   -0.4258 H   0  0  0  0  0  0  0  0  0  0  0  0
   -1.4106    3.3254    1.5484 H   0  0  0  0  0  0  0  0  0  0  0  0
   -0.7619    1.1841    2.5842 H   0  0  0  0  0  0  0  0  0  0  0  0
   -1.5736   -0.9410    1.6373 H   0  0  0  0  0  0  0  0  0  0  0  0
  1  2  1  0  0  0  0
  2  3  1  0  0  0  0
  2  4  1  0  0  0  0
  4  5  1  0  0  0  0
  5  6  4  0  0  0  0
  6  7  2  0  0  0  0
  6  8  1  0  0  0  0
  8  9  1  0  0  0  0
  9 10  1  0  0  0  0
 10 11  1  0  0  0  0
 11 12  1  0  0  0  0
 12 13  4  0  0  0  0
 13 14  4  0  0  0  0
 14 15  4  0  0  0  0
 15 16  4  0  0  0  0
 12 17  4  0  0  0  0
 16 17  4  0  0  0  0
  1 18  1  0  0  0  0
  1 19  1  0  0  0  0
  1 20  1  0  0  0  0
  2 21  1  0  0  0  0
  3 22  1  0  0  0  0
  3 23  1  0  0  0  0
  3 24  1  0  0  0  0
  4 25  1  0  0  0  0
  4 26  1  0  0  0  0
  5 27  1  0  0  0  0
  8 28  1  0  0  0  0
  8 29  1  0  0  0  0
 10 30  1  0  0  0  0
 10 31  1  0  0  0  0
 11 32  1  0  0  0  0
 11 33  1  0  0  0  0
 13 34  1  0  0  0  0
 14 35  1  0  0  0  0
 15 36  1  0  0  0  0
 16 37  1  0  0  0  0
 17 38  1  0  0  0  0
M  END
