 xtb: 6.7.1 (edcfbbe)
          07082605103D

 19 20  0     0  0            999 V2000
    2.9499   -0.7455    0.1495 C   0  0  0  0  0  0  0  0  0  0  0  0
    1.5616   -0.1849    0.0817 C   0  0  0  0  0  0  0  0  0  0  0  0
    1.3670    1.1987    0.1560 C   0  0  0  0  0  0  0  0  0  0  0  0
    0.1132    1.7794    0.1135 C   0  0  0  0  0  0  0  0  0  0  0  0
   -0.9809    0.9365   -0.0074 C   0  0  0  0  0  0  0  0  0  0  0  0
   -0.8074   -0.4507   -0.0828 C   0  0  0  0  0  0  0  0  0  0  0  0
    0.4614   -1.0163   -0.0387 C   0  0  0  0  0  0  0  0  0  0  0  0
   -2.1306   -1.0478   -0.2040 C   0  0  0  0  0  0  0  0  0  0  0  0
   -2.4621   -2.2045   -0.2970 O   0  0  0  0  0  0  0  0  0  0  0  0
   -3.0747    0.1575   -0.1888 C   0  0  0  0  0  0  0  0  0  0  0  0
   -2.2742    1.3222   -0.0659 O   0  0  0  0  0  0  0  0  0  0  0  0
    2.9613   -1.7894   -0.1510 H   0  0  0  0  0  0  0  0  0  0  0  0
    3.3322   -0.6781    1.1679 H   0  0  0  0  0  0  0  0  0  0  0  0
    3.6231   -0.1857   -0.4964 H   0  0  0  0  0  0  0  0  0  0  0  0
    2.2339    1.8370    0.2501 H   0  0  0  0  0  0  0  0  0  0  0  0
   -0.0179    2.8476    0.1706 H   0  0  0  0  0  0  0  0  0  0  0  0
    0.5682   -2.0885   -0.0995 H   0  0  0  0  0  0  0  0  0  0  0  0
   -3.6562    0.2111   -1.1139 H   0  0  0  0  0  0  0  0  0  0  0  0
   -3.7678    0.1012    0.6558 H   0  0  0  0  0  0  0  0  0  0  0  0
  1  2  1  0  0  0  0
  2  3  4  0  0  0  0
  3  4  4  0  0  0  0
  4  5  4  0  0  0  0
  5  6  4  0  0  0  0
  2  7  4  0  0  0  0
  6  7  4  0  0  0  0
  6  8  1  0  0  0  0
  8  9  2  0  0  0  0
  8 10  1  0  0  0  0
  5 11  1  0  0  0  0
 10 11  1  0  0  0  0
  1 12  1  0  0  0  0
  1 13  1  0  0  0  0
  1 14  1  0  0  0  0
  3 15  1  0  0  0  0
  4 16  1  0  0  0  0
  7 17  1  0  0  0  0
 10 18  1  0  0  0  0
 10 19  1  0  0  0  0
M  END
