 xtb: 6.7.1 (edcfbbe)
          07062620273D

 19 19  0     0  0            999 V2000
   -1.7864   -0.4947   -1.6227 O   0  0  0  0  0  0  0  0  0  0  0  0
   -1.4390    0.2904   -0.5255 C   0  0  0  0  0  0  0  0  0  0  0  0
    0.0423    0.1537   -0.2617 C   0  0  0  0  0  0  0  0  0  0  0  0
    0.6647   -1.0736   -0.4526 C   0  0  0  0  0  0  0  0  0  0  0  0
    2.0152   -1.2308   -0.2011 C   0  0  0  0  0  0  0  0  0  0  0  0
    2.7652   -0.1557    0.2435 C   0  0  0  0  0  0  0  0  0  0  0  0
    2.1674    1.0792    0.4187 C   0  0  0  0  0  0  0  0  0  0  0  0
    0.8140    1.2319    0.1628 C   0  0  0  0  0  0  0  0  0  0  0  0
    0.1176    2.8017    0.3672 Cl  0  0  0  0  0  0  0  0  0  0  0  0
   -2.2507   -0.1468    0.7207 C   0  0  0  0  0  0  0  0  0  0  0  0
   -3.9872    0.1390    0.3940 Cl  0  0  0  0  0  0  0  0  0  0  0  0
   -2.0310   -1.8702    1.0574 Cl  0  0  0  0  0  0  0  0  0  0  0  0
   -1.7883    0.7810    2.1521 Cl  0  0  0  0  0  0  0  0  0  0  0  0
   -2.7373   -0.4233   -1.7803 H   0  0  0  0  0  0  0  0  0  0  0  0
   -1.6832    1.3510   -0.6982 H   0  0  0  0  0  0  0  0  0  0  0  0
    0.0743   -1.8977   -0.8179 H   0  0  0  0  0  0  0  0  0  0  0  0
    2.4800   -2.1926   -0.3524 H   0  0  0  0  0  0  0  0  0  0  0  0
    3.8189   -0.2712    0.4462 H   0  0  0  0  0  0  0  0  0  0  0  0
    2.7436    1.9289    0.7497 H   0  0  0  0  0  0  0  0  0  0  0  0
  1  2  1  0  0  0  0
  2  3  1  0  0  0  0
  3  4  4  0  0  0  0
  4  5  4  0  0  0  0
  5  6  4  0  0  0  0
  6  7  4  0  0  0  0
  3  8  4  0  0  0  0
  7  8  4  0  0  0  0
  8  9  1  0  0  0  0
  2 10  1  0  0  0  0
 10 11  1  0  0  0  0
 10 12  1  0  0  0  0
 10 13  1  0  0  0  0
  1 14  1  0  0  0  0
  2 15  1  0  0  0  0
  4 16  1  0  0  0  0
  5 17  1  0  0  0  0
  6 18  1  0  0  0  0
  7 19  1  0  0  0  0
M  END
