 xtb: 6.7.1 (edcfbbe)
          07092609003D

 28 27  0     0  0            999 V2000
   -2.8821    1.9567    0.1988 C   0  0  0  0  0  0  0  0  0  0  0  0
   -2.1742    0.6805    0.6343 C   0  0  0  0  0  0  0  0  0  0  0  0
   -1.3229    0.0961   -0.5021 C   0  0  0  0  0  0  0  0  0  0  0  0
   -0.6243   -1.1593   -0.0671 C   0  0  0  0  0  0  0  0  0  0  0  0
   -1.3897   -2.4255   -0.2918 C   0  0  0  0  0  0  0  0  0  0  0  0
    0.5883   -1.1571    0.5101 C   0  0  0  0  0  0  0  0  0  0  0  0
    1.1966   -2.3687    0.9052 C   0  0  0  0  0  0  0  0  0  0  0  0
    1.7303   -3.3265    1.2469 N   0  0  0  0  0  0  0  0  0  0  0  0
    1.4527    0.0543    0.7569 C   0  0  0  0  0  0  0  0  0  0  0  0
    2.4685    0.2343   -0.3770 C   0  0  0  0  0  0  0  0  0  0  0  0
    3.3563    1.4496   -0.1434 C   0  0  0  0  0  0  0  0  0  0  0  0
   -3.4806    2.3568    1.0137 H   0  0  0  0  0  0  0  0  0  0  0  0
   -2.1596    2.7136   -0.0995 H   0  0  0  0  0  0  0  0  0  0  0  0
   -3.5395    1.7607   -0.6456 H   0  0  0  0  0  0  0  0  0  0  0  0
   -1.5355    0.8902    1.4951 H   0  0  0  0  0  0  0  0  0  0  0  0
   -2.9150   -0.0578    0.9480 H   0  0  0  0  0  0  0  0  0  0  0  0
   -0.6044    0.8478   -0.8312 H   0  0  0  0  0  0  0  0  0  0  0  0
   -1.9767   -0.1335   -1.3463 H   0  0  0  0  0  0  0  0  0  0  0  0
   -2.3956   -2.3327    0.1161 H   0  0  0  0  0  0  0  0  0  0  0  0
   -1.4853   -2.6139   -1.3618 H   0  0  0  0  0  0  0  0  0  0  0  0
   -0.8988   -3.2796    0.1674 H   0  0  0  0  0  0  0  0  0  0  0  0
    1.9932   -0.0800    1.6978 H   0  0  0  0  0  0  0  0  0  0  0  0
    0.8389    0.9505    0.8480 H   0  0  0  0  0  0  0  0  0  0  0  0
    1.9353    0.3451   -1.3247 H   0  0  0  0  0  0  0  0  0  0  0  0
    3.0863   -0.6638   -0.4482 H   0  0  0  0  0  0  0  0  0  0  0  0
    2.7576    2.3564   -0.0825 H   0  0  0  0  0  0  0  0  0  0  0  0
    4.0683    1.5627   -0.9573 H   0  0  0  0  0  0  0  0  0  0  0  0
    3.9117    1.3429    0.7859 H   0  0  0  0  0  0  0  0  0  0  0  0
  1  2  1  0  0  0  0
  2  3  1  0  0  0  0
  3  4  1  0  0  0  0
  4  5  1  0  0  0  0
  4  6  2  0  0  0  0
  6  7  1  0  0  0  0
  7  8  3  0  0  0  0
  6  9  1  0  0  0  0
  9 10  1  0  0  0  0
 10 11  1  0  0  0  0
  1 12  1  0  0  0  0
  1 13  1  0  0  0  0
  1 14  1  0  0  0  0
  2 15  1  0  0  0  0
  2 16  1  0  0  0  0
  3 17  1  0  0  0  0
  3 18  1  0  0  0  0
  5 19  1  0  0  0  0
  5 20  1  0  0  0  0
  5 21  1  0  0  0  0
  9 22  1  0  0  0  0
  9 23  1  0  0  0  0
 10 24  1  0  0  0  0
 10 25  1  0  0  0  0
 11 26  1  0  0  0  0
 11 27  1  0  0  0  0
 11 28  1  0  0  0  0
M  END
