 xtb: 6.7.1 (edcfbbe)
          07092607113D

 31 30  0     0  0            999 V2000
   -5.8984    0.1328    1.5420 O   0  0  0  0  0  0  0  0  0  0  0  0
   -4.9408    0.0627    0.5121 C   0  0  0  0  0  0  0  0  0  0  0  0
   -3.5050    0.0469    1.0377 C   0  0  0  0  0  0  0  0  0  0  0  0
   -2.4833    0.0415   -0.0956 C   0  0  0  0  0  0  0  0  0  0  0  0
   -1.0500    0.0145    0.4303 C   0  0  0  0  0  0  0  0  0  0  0  0
   -0.0236    0.0096   -0.6999 C   0  0  0  0  0  0  0  0  0  0  0  0
    1.4091   -0.0277   -0.1721 C   0  0  0  0  0  0  0  0  0  0  0  0
    2.4302   -0.0253   -1.3083 C   0  0  0  0  0  0  0  0  0  0  0  0
    3.8726   -0.1868   -0.8305 C   0  0  0  0  0  0  0  0  0  0  0  0
    4.3864    1.0159   -0.0367 C   0  0  0  0  0  0  0  0  0  0  0  0
    5.7685    0.9336    0.2267 O   0  0  0  0  0  0  0  0  0  0  0  0
   -5.7642   -0.6114    2.1396 H   0  0  0  0  0  0  0  0  0  0  0  0
   -5.1086    0.9520   -0.0999 H   0  0  0  0  0  0  0  0  0  0  0  0
   -5.1159   -0.8250   -0.1148 H   0  0  0  0  0  0  0  0  0  0  0  0
   -3.3616   -0.8411    1.6613 H   0  0  0  0  0  0  0  0  0  0  0  0
   -3.3531    0.9251    1.6688 H   0  0  0  0  0  0  0  0  0  0  0  0
   -2.6257    0.9307   -0.7134 H   0  0  0  0  0  0  0  0  0  0  0  0
   -2.6527   -0.8315   -0.7306 H   0  0  0  0  0  0  0  0  0  0  0  0
   -0.8831    0.8873    1.0655 H   0  0  0  0  0  0  0  0  0  0  0  0
   -0.9090   -0.8754    1.0486 H   0  0  0  0  0  0  0  0  0  0  0  0
   -0.1959   -0.8589   -1.3401 H   0  0  0  0  0  0  0  0  0  0  0  0
   -0.1583    0.9031   -1.3137 H   0  0  0  0  0  0  0  0  0  0  0  0
    1.5718    0.8372    0.4730 H   0  0  0  0  0  0  0  0  0  0  0  0
    1.5450   -0.9268    0.4339 H   0  0  0  0  0  0  0  0  0  0  0  0
    2.1977   -0.8484   -1.9884 H   0  0  0  0  0  0  0  0  0  0  0  0
    2.3405    0.9046   -1.8737 H   0  0  0  0  0  0  0  0  0  0  0  0
    4.5242   -0.3174   -1.6978 H   0  0  0  0  0  0  0  0  0  0  0  0
    3.9535   -1.0870   -0.2134 H   0  0  0  0  0  0  0  0  0  0  0  0
    3.8290    1.1193    0.9047 H   0  0  0  0  0  0  0  0  0  0  0  0
    4.2575    1.9319   -0.6180 H   0  0  0  0  0  0  0  0  0  0  0  0
    5.9433    0.1140    0.7025 H   0  0  0  0  0  0  0  0  0  0  0  0
  1  2  1  0  0  0  0
  2  3  1  0  0  0  0
  3  4  1  0  0  0  0
  4  5  1  0  0  0  0
  5  6  1  0  0  0  0
  6  7  1  0  0  0  0
  7  8  1  0  0  0  0
  8  9  1  0  0  0  0
  9 10  1  0  0  0  0
 10 11  1  0  0  0  0
  1 12  1  0  0  0  0
  2 13  1  0  0  0  0
  2 14  1  0  0  0  0
  3 15  1  0  0  0  0
  3 16  1  0  0  0  0
  4 17  1  0  0  0  0
  4 18  1  0  0  0  0
  5 19  1  0  0  0  0
  5 20  1  0  0  0  0
  6 21  1  0  0  0  0
  6 22  1  0  0  0  0
  7 23  1  0  0  0  0
  7 24  1  0  0  0  0
  8 25  1  0  0  0  0
  8 26  1  0  0  0  0
  9 27  1  0  0  0  0
  9 28  1  0  0  0  0
 10 29  1  0  0  0  0
 10 30  1  0  0  0  0
 11 31  1  0  0  0  0
M  END
