 xtb: 6.7.1 (edcfbbe)
          07092618263D

 28 28  0     0  0            999 V2000
    2.3001    1.5377    0.1493 C   0  0  0  0  0  0  0  0  0  0  0  0
    2.4660    0.1135    0.6722 C   0  0  0  0  0  0  0  0  0  0  0  0
    3.5860   -0.6090   -0.0712 C   0  0  0  0  0  0  0  0  0  0  0  0
    1.1500   -0.6566    0.5349 C   0  0  0  0  0  0  0  0  0  0  0  0
    0.7854   -0.7323   -0.8264 O   0  0  0  0  0  0  0  0  0  0  0  0
   -0.4612   -1.3503   -1.0338 C   0  0  0  0  0  0  0  0  0  0  0  0
   -1.6278   -0.5370   -0.5239 C   0  0  0  0  0  0  0  0  0  0  0  0
   -2.6871   -1.1373    0.1420 C   0  0  0  0  0  0  0  0  0  0  0  0
   -3.7483   -0.3750    0.5990 C   0  0  0  0  0  0  0  0  0  0  0  0
   -3.7543    0.9955    0.4044 C   0  0  0  0  0  0  0  0  0  0  0  0
   -2.6975    1.6015   -0.2544 C   0  0  0  0  0  0  0  0  0  0  0  0
   -1.6426    0.8385   -0.7199 C   0  0  0  0  0  0  0  0  0  0  0  0
    1.5132    2.0560    0.6933 H   0  0  0  0  0  0  0  0  0  0  0  0
    2.0357    1.5098   -0.9041 H   0  0  0  0  0  0  0  0  0  0  0  0
    3.2265    2.0955    0.2637 H   0  0  0  0  0  0  0  0  0  0  0  0
    2.7086    0.1500    1.7406 H   0  0  0  0  0  0  0  0  0  0  0  0
    3.3258   -0.6997   -1.1220 H   0  0  0  0  0  0  0  0  0  0  0  0
    4.5183   -0.0560    0.0151 H   0  0  0  0  0  0  0  0  0  0  0  0
    3.7360   -1.6062    0.3366 H   0  0  0  0  0  0  0  0  0  0  0  0
    0.3607   -0.1493    1.1104 H   0  0  0  0  0  0  0  0  0  0  0  0
    1.2636   -1.6745    0.9438 H   0  0  0  0  0  0  0  0  0  0  0  0
   -0.5429   -1.4683   -2.1203 H   0  0  0  0  0  0  0  0  0  0  0  0
   -0.4739   -2.3513   -0.5735 H   0  0  0  0  0  0  0  0  0  0  0  0
   -2.6820   -2.2065    0.3021 H   0  0  0  0  0  0  0  0  0  0  0  0
   -4.5695   -0.8519    1.1142 H   0  0  0  0  0  0  0  0  0  0  0  0
   -4.5797    1.5902    0.7674 H   0  0  0  0  0  0  0  0  0  0  0  0
   -2.6969    2.6710   -0.4073 H   0  0  0  0  0  0  0  0  0  0  0  0
   -0.8122    1.3018   -1.2319 H   0  0  0  0  0  0  0  0  0  0  0  0
  1  2  1  0  0  0  0
  2  3  1  0  0  0  0
  2  4  1  0  0  0  0
  4  5  1  0  0  0  0
  5  6  1  0  0  0  0
  6  7  1  0  0  0  0
  7  8  4  0  0  0  0
  8  9  4  0  0  0  0
  9 10  4  0  0  0  0
 10 11  4  0  0  0  0
  7 12  4  0  0  0  0
 11 12  4  0  0  0  0
  1 13  1  0  0  0  0
  1 14  1  0  0  0  0
  1 15  1  0  0  0  0
  2 16  1  0  0  0  0
  3 17  1  0  0  0  0
  3 18  1  0  0  0  0
  3 19  1  0  0  0  0
  4 20  1  0  0  0  0
  4 21  1  0  0  0  0
  6 22  1  0  0  0  0
  6 23  1  0  0  0  0
  8 24  1  0  0  0  0
  9 25  1  0  0  0  0
 10 26  1  0  0  0  0
 11 27  1  0  0  0  0
 12 28  1  0  0  0  0
M  END
