 xtb: 6.7.1 (edcfbbe)
          07072620193D

 22 22  0     0  0            999 V2000
    1.2449   -2.0095   -0.0708 C   0  0  0  0  0  0  0  0  0  0  0  0
    1.0565   -0.5630    0.3973 C   0  0  0  0  0  0  0  0  0  0  0  0
    1.8740    0.3667   -0.4404 C   0  0  0  0  0  0  0  0  0  0  0  0
    2.7271    1.1098    0.1130 N   0  0  0  0  0  0  0  0  0  0  0  0
    3.4361    1.9588   -0.7361 O   0  0  0  0  0  0  0  0  0  0  0  0
   -0.3912   -0.1295    0.3248 C   0  0  0  0  0  0  0  0  0  0  0  0
   -1.0225    0.3745    1.4541 C   0  0  0  0  0  0  0  0  0  0  0  0
   -2.3439    0.7826    1.4033 C   0  0  0  0  0  0  0  0  0  0  0  0
   -3.0525    0.6952    0.2178 C   0  0  0  0  0  0  0  0  0  0  0  0
   -2.4304    0.1995   -0.9151 C   0  0  0  0  0  0  0  0  0  0  0  0
   -1.1094   -0.2078   -0.8623 C   0  0  0  0  0  0  0  0  0  0  0  0
    2.2852   -2.3050    0.0441 H   0  0  0  0  0  0  0  0  0  0  0  0
    0.9686   -2.1229   -1.1160 H   0  0  0  0  0  0  0  0  0  0  0  0
    0.6239   -2.6745    0.5248 H   0  0  0  0  0  0  0  0  0  0  0  0
    1.4028   -0.4732    1.4311 H   0  0  0  0  0  0  0  0  0  0  0  0
    1.6923    0.3802   -1.5153 H   0  0  0  0  0  0  0  0  0  0  0  0
    4.0310    2.4435   -0.1474 H   0  0  0  0  0  0  0  0  0  0  0  0
   -0.4737    0.4482    2.3821 H   0  0  0  0  0  0  0  0  0  0  0  0
   -2.8204    1.1707    2.2917 H   0  0  0  0  0  0  0  0  0  0  0  0
   -4.0836    1.0136    0.1757 H   0  0  0  0  0  0  0  0  0  0  0  0
   -2.9757    0.1310   -1.8452 H   0  0  0  0  0  0  0  0  0  0  0  0
   -0.6392   -0.5888   -1.7568 H   0  0  0  0  0  0  0  0  0  0  0  0
  1  2  1  0  0  0  0
  2  3  1  0  0  0  0
  3  4  2  0  0  0  0
  4  5  1  0  0  0  0
  2  6  1  0  0  0  0
  6  7  4  0  0  0  0
  7  8  4  0  0  0  0
  8  9  4  0  0  0  0
  9 10  4  0  0  0  0
  6 11  4  0  0  0  0
 10 11  4  0  0  0  0
  1 12  1  0  0  0  0
  1 13  1  0  0  0  0
  1 14  1  0  0  0  0
  2 15  1  0  0  0  0
  3 16  1  0  0  0  0
  5 17  1  0  0  0  0
  7 18  1  0  0  0  0
  8 19  1  0  0  0  0
  9 20  1  0  0  0  0
 10 21  1  0  0  0  0
 11 22  1  0  0  0  0
M  END
