 xtb: 6.7.1 (edcfbbe)
          07072611533D

 49 48  0     0  0            999 V2000
   -8.5290    0.6205   -0.2374 C   0  0  0  0  0  0  0  0  0  0  0  0
   -7.1154    0.6482    0.3312 C   0  0  0  0  0  0  0  0  0  0  0  0
   -6.2280   -0.4088   -0.3229 C   0  0  0  0  0  0  0  0  0  0  0  0
   -4.8196   -0.4806    0.2703 C   0  0  0  0  0  0  0  0  0  0  0  0
   -3.9580    0.7293   -0.0876 C   0  0  0  0  0  0  0  0  0  0  0  0
   -2.5648    0.6828    0.5385 C   0  0  0  0  0  0  0  0  0  0  0  0
   -1.6939   -0.4351   -0.0286 C   0  0  0  0  0  0  0  0  0  0  0  0
   -0.2827   -0.3584    0.4854 C   0  0  0  0  0  0  0  0  0  0  0  0
    0.1540    0.4245    1.2688 O   0  0  0  0  0  0  0  0  0  0  0  0
    0.4858   -1.3126   -0.1448 O   0  0  0  0  0  0  0  0  0  0  0  0
    1.6982   -1.7299    0.3585 C   0  0  0  0  0  0  0  0  0  0  0  0
    1.9881   -1.6652    1.5117 O   0  0  0  0  0  0  0  0  0  0  0  0
    2.5372   -2.3123   -0.7461 C   0  0  0  0  0  0  0  0  0  0  0  0
    2.9229   -1.2256   -1.7598 C   0  0  0  0  0  0  0  0  0  0  0  0
    3.5863   -0.0079   -1.1140 C   0  0  0  0  0  0  0  0  0  0  0  0
    4.8859   -0.3391   -0.3834 C   0  0  0  0  0  0  0  0  0  0  0  0
    5.6010    0.9248    0.0883 C   0  0  0  0  0  0  0  0  0  0  0  0
    6.8882    0.6073    0.8451 C   0  0  0  0  0  0  0  0  0  0  0  0
    7.5985    1.8729    1.3092 C   0  0  0  0  0  0  0  0  0  0  0  0
   -8.5130    0.8150   -1.3077 H   0  0  0  0  0  0  0  0  0  0  0  0
   -8.9881   -0.3524   -0.0743 H   0  0  0  0  0  0  0  0  0  0  0  0
   -9.1489    1.3763    0.2392 H   0  0  0  0  0  0  0  0  0  0  0  0
   -7.1541    0.4680    1.4079 H   0  0  0  0  0  0  0  0  0  0  0  0
   -6.6893    1.6404    0.1747 H   0  0  0  0  0  0  0  0  0  0  0  0
   -6.1577   -0.2084   -1.3948 H   0  0  0  0  0  0  0  0  0  0  0  0
   -6.7071   -1.3837   -0.2021 H   0  0  0  0  0  0  0  0  0  0  0  0
   -4.3391   -1.3877   -0.1020 H   0  0  0  0  0  0  0  0  0  0  0  0
   -4.8909   -0.5636    1.3571 H   0  0  0  0  0  0  0  0  0  0  0  0
   -3.8657    0.7976   -1.1743 H   0  0  0  0  0  0  0  0  0  0  0  0
   -4.4540    1.6364    0.2596 H   0  0  0  0  0  0  0  0  0  0  0  0
   -2.0600    1.6347    0.3632 H   0  0  0  0  0  0  0  0  0  0  0  0
   -2.6502    0.5558    1.6188 H   0  0  0  0  0  0  0  0  0  0  0  0
   -1.6582   -0.3870   -1.1197 H   0  0  0  0  0  0  0  0  0  0  0  0
   -2.0860   -1.4181    0.2401 H   0  0  0  0  0  0  0  0  0  0  0  0
    3.4242   -2.7622   -0.3024 H   0  0  0  0  0  0  0  0  0  0  0  0
    1.9562   -3.0853   -1.2518 H   0  0  0  0  0  0  0  0  0  0  0  0
    3.6014   -1.6648   -2.4942 H   0  0  0  0  0  0  0  0  0  0  0  0
    2.0227   -0.9005   -2.2857 H   0  0  0  0  0  0  0  0  0  0  0  0
    2.8920    0.4581   -0.4107 H   0  0  0  0  0  0  0  0  0  0  0  0
    3.7963    0.7229   -1.8994 H   0  0  0  0  0  0  0  0  0  0  0  0
    5.5453   -0.9010   -1.0503 H   0  0  0  0  0  0  0  0  0  0  0  0
    4.6693   -0.9623    0.4854 H   0  0  0  0  0  0  0  0  0  0  0  0
    4.9316    1.4912    0.7393 H   0  0  0  0  0  0  0  0  0  0  0  0
    5.8358    1.5540   -0.7742 H   0  0  0  0  0  0  0  0  0  0  0  0
    6.6510   -0.0138    1.7115 H   0  0  0  0  0  0  0  0  0  0  0  0
    7.5558    0.0328    0.1981 H   0  0  0  0  0  0  0  0  0  0  0  0
    7.8615    2.4974    0.4578 H   0  0  0  0  0  0  0  0  0  0  0  0
    6.9545    2.4494    1.9695 H   0  0  0  0  0  0  0  0  0  0  0  0
    8.5102    1.6259    1.8482 H   0  0  0  0  0  0  0  0  0  0  0  0
  1  2  1  0  0  0  0
  2  3  1  0  0  0  0
  3  4  1  0  0  0  0
  4  5  1  0  0  0  0
  5  6  1  0  0  0  0
  6  7  1  0  0  0  0
  7  8  1  0  0  0  0
  8  9  2  0  0  0  0
  8 10  1  0  0  0  0
 10 11  1  0  0  0  0
 11 12  2  0  0  0  0
 11 13  1  0  0  0  0
 13 14  1  0  0  0  0
 14 15  1  0  0  0  0
 15 16  1  0  0  0  0
 16 17  1  0  0  0  0
 17 18  1  0  0  0  0
 18 19  1  0  0  0  0
  1 20  1  0  0  0  0
  1 21  1  0  0  0  0
  1 22  1  0  0  0  0
  2 23  1  0  0  0  0
  2 24  1  0  0  0  0
  3 25  1  0  0  0  0
  3 26  1  0  0  0  0
  4 27  1  0  0  0  0
  4 28  1  0  0  0  0
  5 29  1  0  0  0  0
  5 30  1  0  0  0  0
  6 31  1  0  0  0  0
  6 32  1  0  0  0  0
  7 33  1  0  0  0  0
  7 34  1  0  0  0  0
 13 35  1  0  0  0  0
 13 36  1  0  0  0  0
 14 37  1  0  0  0  0
 14 38  1  0  0  0  0
 15 39  1  0  0  0  0
 15 40  1  0  0  0  0
 16 41  1  0  0  0  0
 16 42  1  0  0  0  0
 17 43  1  0  0  0  0
 17 44  1  0  0  0  0
 18 45  1  0  0  0  0
 18 46  1  0  0  0  0
 19 47  1  0  0  0  0
 19 48  1  0  0  0  0
 19 49  1  0  0  0  0
M  END
