 xtb: 6.7.1 (edcfbbe)
          07092613523D

 20 20  0     0  0            999 V2000
    2.5516    0.8598    0.1307 C   0  0  0  0  0  0  0  0  0  0  0  0
    2.1520   -0.3820   -0.4937 N   0  0  0  0  0  0  0  0  0  0  0  0
    1.1857   -1.3542    0.4871 S   0  0  0  0  0  0  0  0  0  0  0  0
    1.1663   -2.6486   -0.1259 O   0  0  0  0  0  0  0  0  0  0  0  0
    1.5927   -1.2485    1.8614 O   0  0  0  0  0  0  0  0  0  0  0  0
   -0.3904   -0.5466    0.2700 C   0  0  0  0  0  0  0  0  0  0  0  0
   -1.0436   -0.6945   -0.9372 C   0  0  0  0  0  0  0  0  0  0  0  0
   -2.2504   -0.0437   -1.1326 C   0  0  0  0  0  0  0  0  0  0  0  0
   -2.7816    0.7440   -0.1221 C   0  0  0  0  0  0  0  0  0  0  0  0
   -2.1163    0.8817    1.0859 C   0  0  0  0  0  0  0  0  0  0  0  0
   -0.9088    0.2310    1.2853 C   0  0  0  0  0  0  0  0  0  0  0  0
    3.1879    1.4207   -0.5509 H   0  0  0  0  0  0  0  0  0  0  0  0
    3.0753    0.6961    1.0778 H   0  0  0  0  0  0  0  0  0  0  0  0
    1.6472    1.4348    0.3283 H   0  0  0  0  0  0  0  0  0  0  0  0
    2.9330   -0.9274   -0.8306 H   0  0  0  0  0  0  0  0  0  0  0  0
   -0.6006   -1.3213   -1.6939 H   0  0  0  0  0  0  0  0  0  0  0  0
   -2.7767   -0.1497   -2.0690 H   0  0  0  0  0  0  0  0  0  0  0  0
   -3.7224    1.2511   -0.2764 H   0  0  0  0  0  0  0  0  0  0  0  0
   -2.5366    1.4927    1.8702 H   0  0  0  0  0  0  0  0  0  0  0  0
   -0.3643    0.3046    2.2136 H   0  0  0  0  0  0  0  0  0  0  0  0
  1  2  1  0  0  0  0
  2  3  1  0  0  0  0
  3  4  2  0  0  0  0
  3  5  2  0  0  0  0
  3  6  1  0  0  0  0
  6  7  4  0  0  0  0
  7  8  4  0  0  0  0
  8  9  4  0  0  0  0
  9 10  4  0  0  0  0
  6 11  4  0  0  0  0
 10 11  4  0  0  0  0
  1 12  1  0  0  0  0
  1 13  1  0  0  0  0
  1 14  1  0  0  0  0
  2 15  1  0  0  0  0
  7 16  1  0  0  0  0
  8 17  1  0  0  0  0
  9 18  1  0  0  0  0
 10 19  1  0  0  0  0
 11 20  1  0  0  0  0
M  END
