 xtb: 6.7.1 (edcfbbe)
          07072619343D

 34 34  0     0  0            999 V2000
   -1.9599   -2.4439   -1.2813 C   0  0  0  0  0  0  0  0  0  0  0  0
   -0.7459   -1.5630   -1.4806 C   0  0  0  0  0  0  0  0  0  0  0  0
    0.1785   -1.9001   -2.1934 O   0  0  0  0  0  0  0  0  0  0  0  0
   -0.7030   -0.3921   -0.7816 N   0  0  0  0  0  0  0  0  0  0  0  0
    0.5452    0.3617   -0.8266 C   0  0  0  0  0  0  0  0  0  0  0  0
    1.6509   -0.3026   -0.0032 C   0  0  0  0  0  0  0  0  0  0  0  0
    2.8872    0.5845    0.1692 C   0  0  0  0  0  0  0  0  0  0  0  0
    3.8762   -0.0958    1.1144 C   0  0  0  0  0  0  0  0  0  0  0  0
    3.5612    0.8762   -1.1691 C   0  0  0  0  0  0  0  0  0  0  0  0
   -1.7820    0.1626   -0.0665 C   0  0  0  0  0  0  0  0  0  0  0  0
   -1.6044    0.6037    1.2424 C   0  0  0  0  0  0  0  0  0  0  0  0
   -2.6552    1.1782    1.9335 C   0  0  0  0  0  0  0  0  0  0  0  0
   -3.8937    1.3221    1.3319 C   0  0  0  0  0  0  0  0  0  0  0  0
   -4.0721    0.8999    0.0252 C   0  0  0  0  0  0  0  0  0  0  0  0
   -3.0239    0.3315   -0.6743 C   0  0  0  0  0  0  0  0  0  0  0  0
   -2.4538   -2.2547   -0.3329 H   0  0  0  0  0  0  0  0  0  0  0  0
   -1.6282   -3.4787   -1.3281 H   0  0  0  0  0  0  0  0  0  0  0  0
   -2.6673   -2.2894   -2.0933 H   0  0  0  0  0  0  0  0  0  0  0  0
    0.3443    1.3709   -0.4609 H   0  0  0  0  0  0  0  0  0  0  0  0
    0.8558    0.4136   -1.8735 H   0  0  0  0  0  0  0  0  0  0  0  0
    1.2567   -0.5560    0.9842 H   0  0  0  0  0  0  0  0  0  0  0  0
    1.9350   -1.2338   -0.4951 H   0  0  0  0  0  0  0  0  0  0  0  0
    2.5749    1.5353    0.6189 H   0  0  0  0  0  0  0  0  0  0  0  0
    4.2039   -1.0445    0.6955 H   0  0  0  0  0  0  0  0  0  0  0  0
    4.7510    0.5316    1.2692 H   0  0  0  0  0  0  0  0  0  0  0  0
    3.4182   -0.2882    2.0824 H   0  0  0  0  0  0  0  0  0  0  0  0
    3.7926   -0.0533   -1.6837 H   0  0  0  0  0  0  0  0  0  0  0  0
    2.9201    1.4751   -1.8102 H   0  0  0  0  0  0  0  0  0  0  0  0
    4.4883    1.4234   -1.0124 H   0  0  0  0  0  0  0  0  0  0  0  0
   -0.6436    0.4918    1.7203 H   0  0  0  0  0  0  0  0  0  0  0  0
   -2.5057    1.5111    2.9500 H   0  0  0  0  0  0  0  0  0  0  0  0
   -4.7128    1.7682    1.8751 H   0  0  0  0  0  0  0  0  0  0  0  0
   -5.0299    1.0245   -0.4578 H   0  0  0  0  0  0  0  0  0  0  0  0
   -3.1588    0.0299   -1.7014 H   0  0  0  0  0  0  0  0  0  0  0  0
  1  2  1  0  0  0  0
  2  3  2  0  0  0  0
  2  4  4  0  0  0  0
  4  5  1  0  0  0  0
  5  6  1  0  0  0  0
  6  7  1  0  0  0  0
  7  8  1  0  0  0  0
  7  9  1  0  0  0  0
  4 10  1  0  0  0  0
 10 11  4  0  0  0  0
 11 12  4  0  0  0  0
 12 13  4  0  0  0  0
 13 14  4  0  0  0  0
 10 15  4  0  0  0  0
 14 15  4  0  0  0  0
  1 16  1  0  0  0  0
  1 17  1  0  0  0  0
  1 18  1  0  0  0  0
  5 19  1  0  0  0  0
  5 20  1  0  0  0  0
  6 21  1  0  0  0  0
  6 22  1  0  0  0  0
  7 23  1  0  0  0  0
  8 24  1  0  0  0  0
  8 25  1  0  0  0  0
  8 26  1  0  0  0  0
  9 27  1  0  0  0  0
  9 28  1  0  0  0  0
  9 29  1  0  0  0  0
 11 30  1  0  0  0  0
 12 31  1  0  0  0  0
 13 32  1  0  0  0  0
 14 33  1  0  0  0  0
 15 34  1  0  0  0  0
M  END
