 xtb: 6.7.1 (edcfbbe)
          07082600563D

 29 28  0     0  0            999 V2000
   -4.7112   -0.8557   -0.6793 C   0  0  0  0  0  0  0  0  0  0  0  0
   -3.2491   -1.1283   -0.3489 C   0  0  0  0  0  0  0  0  0  0  0  0
   -2.4938    0.1538   -0.0071 C   0  0  0  0  0  0  0  0  0  0  0  0
   -1.0277   -0.1147    0.3238 C   0  0  0  0  0  0  0  0  0  0  0  0
   -0.2744    1.1734    0.6484 C   0  0  0  0  0  0  0  0  0  0  0  0
    1.1672    0.9363    1.0990 C   0  0  0  0  0  0  0  0  0  0  0  0
    2.0585    0.3820   -0.0092 C   0  0  0  0  0  0  0  0  0  0  0  0
    3.5108    0.2719    0.4437 C   0  0  0  0  0  0  0  0  0  0  0  0
    4.4008   -0.2955   -0.6304 C   0  0  0  0  0  0  0  0  0  0  0  0
    4.0590   -0.6410   -1.7279 O   0  0  0  0  0  0  0  0  0  0  0  0
    5.6756   -0.3809   -0.2169 O   0  0  0  0  0  0  0  0  0  0  0  0
   -5.2295   -1.7812   -0.9193 H   0  0  0  0  0  0  0  0  0  0  0  0
   -4.7906   -0.1865   -1.5333 H   0  0  0  0  0  0  0  0  0  0  0  0
   -5.2133   -0.3905    0.1664 H   0  0  0  0  0  0  0  0  0  0  0  0
   -2.7686   -1.6121   -1.2024 H   0  0  0  0  0  0  0  0  0  0  0  0
   -3.1906   -1.8172    0.4971 H   0  0  0  0  0  0  0  0  0  0  0  0
   -2.9756    0.6391    0.8454 H   0  0  0  0  0  0  0  0  0  0  0  0
   -2.5517    0.8420   -0.8538 H   0  0  0  0  0  0  0  0  0  0  0  0
   -0.5592   -0.6117   -0.5270 H   0  0  0  0  0  0  0  0  0  0  0  0
   -0.9699   -0.7917    1.1797 H   0  0  0  0  0  0  0  0  0  0  0  0
   -0.8065    1.6985    1.4458 H   0  0  0  0  0  0  0  0  0  0  0  0
   -0.2745    1.8226   -0.2300 H   0  0  0  0  0  0  0  0  0  0  0  0
    1.5848    1.8856    1.4445 H   0  0  0  0  0  0  0  0  0  0  0  0
    1.1705    0.2468    1.9466 H   0  0  0  0  0  0  0  0  0  0  0  0
    2.0065    1.0322   -0.8841 H   0  0  0  0  0  0  0  0  0  0  0  0
    1.7127   -0.6056   -0.3141 H   0  0  0  0  0  0  0  0  0  0  0  0
    3.5969   -0.3731    1.3214 H   0  0  0  0  0  0  0  0  0  0  0  0
    3.9094    1.2497    0.7240 H   0  0  0  0  0  0  0  0  0  0  0  0
    6.2334   -0.7485   -0.9204 H   0  0  0  0  0  0  0  0  0  0  0  0
  1  2  1  0  0  0  0
  2  3  1  0  0  0  0
  3  4  1  0  0  0  0
  4  5  1  0  0  0  0
  5  6  1  0  0  0  0
  6  7  1  0  0  0  0
  7  8  1  0  0  0  0
  8  9  1  0  0  0  0
  9 10  2  0  0  0  0
  9 11  1  0  0  0  0
  1 12  1  0  0  0  0
  1 13  1  0  0  0  0
  1 14  1  0  0  0  0
  2 15  1  0  0  0  0
  2 16  1  0  0  0  0
  3 17  1  0  0  0  0
  3 18  1  0  0  0  0
  4 19  1  0  0  0  0
  4 20  1  0  0  0  0
  5 21  1  0  0  0  0
  5 22  1  0  0  0  0
  6 23  1  0  0  0  0
  6 24  1  0  0  0  0
  7 25  1  0  0  0  0
  7 26  1  0  0  0  0
  8 27  1  0  0  0  0
  8 28  1  0  0  0  0
 11 29  1  0  0  0  0
M  END
