 xtb: 6.7.1 (edcfbbe)
          07092603153D

 22 21  0     0  0            999 V2000
    4.1835   -0.6389   -0.0996 C   0  0  0  0  0  0  0  0  0  0  0  0
    2.9968    0.1283    0.3722 C   0  0  0  0  0  0  0  0  0  0  0  0
    1.8371    0.1848   -0.2614 C   0  0  0  0  0  0  0  0  0  0  0  0
    0.6611    0.9706    0.2153 C   0  0  0  0  0  0  0  0  0  0  0  0
   -0.4618    0.0820    0.3441 O   0  0  0  0  0  0  0  0  0  0  0  0
   -1.6400    0.6437    0.5547 C   0  0  0  0  0  0  0  0  0  0  0  0
   -1.8378    1.8307    0.6473 O   0  0  0  0  0  0  0  0  0  0  0  0
   -2.7726   -0.3734    0.6307 C   0  0  0  0  0  0  0  0  0  0  0  0
   -3.0235   -0.9245   -0.7813 C   0  0  0  0  0  0  0  0  0  0  0  0
   -3.9124    0.2413    1.1629 O   0  0  0  0  0  0  0  0  0  0  0  0
    5.0265    0.0334   -0.2553 H   0  0  0  0  0  0  0  0  0  0  0  0
    3.9702   -1.1597   -1.0291 H   0  0  0  0  0  0  0  0  0  0  0  0
    4.4801   -1.3671    0.6544 H   0  0  0  0  0  0  0  0  0  0  0  0
    3.1331    0.6775    1.2953 H   0  0  0  0  0  0  0  0  0  0  0  0
    1.6801   -0.3622   -1.1804 H   0  0  0  0  0  0  0  0  0  0  0  0
    0.8554    1.4377    1.1864 H   0  0  0  0  0  0  0  0  0  0  0  0
    0.3930    1.7600   -0.4991 H   0  0  0  0  0  0  0  0  0  0  0  0
   -2.4833   -1.1930    1.2986 H   0  0  0  0  0  0  0  0  0  0  0  0
   -2.1364   -1.4356   -1.1437 H   0  0  0  0  0  0  0  0  0  0  0  0
   -3.2770   -0.1116   -1.4586 H   0  0  0  0  0  0  0  0  0  0  0  0
   -3.8563   -1.6212   -0.7476 H   0  0  0  0  0  0  0  0  0  0  0  0
   -3.8160    1.1973    1.0248 H   0  0  0  0  0  0  0  0  0  0  0  0
  1  2  1  0  0  0  0
  2  3  2  0  0  0  0
  3  4  1  0  0  0  0
  4  5  1  0  0  0  0
  5  6  1  0  0  0  0
  6  7  2  0  0  0  0
  6  8  1  0  0  0  0
  8  9  1  0  0  0  0
  8 10  1  0  0  0  0
  1 11  1  0  0  0  0
  1 12  1  0  0  0  0
  1 13  1  0  0  0  0
  2 14  1  0  0  0  0
  3 15  1  0  0  0  0
  4 16  1  0  0  0  0
  4 17  1  0  0  0  0
  8 18  1  0  0  0  0
  9 19  1  0  0  0  0
  9 20  1  0  0  0  0
  9 21  1  0  0  0  0
 10 22  1  0  0  0  0
M  END
