 xtb: 6.7.1 (edcfbbe)
          07092609463D

 15 15  0     0  0            999 V2000
   -0.8800    2.5177    0.7788 Cl  0  0  0  0  0  0  0  0  0  0  0  0
   -0.0019    1.1157    0.3029 C   0  0  0  0  0  0  0  0  0  0  0  0
    1.3754    1.2302    0.1842 C   0  0  0  0  0  0  0  0  0  0  0  0
    2.1359    0.1402   -0.1942 C   0  0  0  0  0  0  0  0  0  0  0  0
    1.5172   -1.0696   -0.4552 C   0  0  0  0  0  0  0  0  0  0  0  0
    0.1445   -1.1856   -0.3374 C   0  0  0  0  0  0  0  0  0  0  0  0
   -0.6410   -0.1014    0.0422 C   0  0  0  0  0  0  0  0  0  0  0  0
   -2.1312   -0.2215    0.1717 C   0  0  0  0  0  0  0  0  0  0  0  0
   -2.6429    0.1498    1.8444 Cl  0  0  0  0  0  0  0  0  0  0  0  0
   -2.7478   -1.8427   -0.2011 Cl  0  0  0  0  0  0  0  0  0  0  0  0
   -2.9467    0.9079   -0.9496 Cl  0  0  0  0  0  0  0  0  0  0  0  0
    1.8395    2.1813    0.3918 H   0  0  0  0  0  0  0  0  0  0  0  0
    3.2065    0.2386   -0.2840 H   0  0  0  0  0  0  0  0  0  0  0  0
    2.0992   -1.9280   -0.7514 H   0  0  0  0  0  0  0  0  0  0  0  0
   -0.3266   -2.1326   -0.5431 H   0  0  0  0  0  0  0  0  0  0  0  0
  1  2  1  0  0  0  0
  2  3  4  0  0  0  0
  3  4  4  0  0  0  0
  4  5  4  0  0  0  0
  5  6  4  0  0  0  0
  2  7  4  0  0  0  0
  6  7  4  0  0  0  0
  7  8  1  0  0  0  0
  8  9  1  0  0  0  0
  8 10  1  0  0  0  0
  8 11  1  0  0  0  0
  3 12  1  0  0  0  0
  4 13  1  0  0  0  0
  5 14  1  0  0  0  0
  6 15  1  0  0  0  0
M  END
