 xtb: 6.7.1 (edcfbbe)
          07092605513D

 27 26  0     0  0            999 V2000
   -4.9141    1.3040   -0.3405 C   0  0  0  0  0  0  0  0  0  0  0  0
   -4.7688    0.0088   -0.1327 C   0  0  0  0  0  0  0  0  0  0  0  0
   -3.4834   -0.7454   -0.0027 C   0  0  0  0  0  0  0  0  0  0  0  0
   -2.2230    0.1023   -0.1288 C   0  0  0  0  0  0  0  0  0  0  0  0
   -0.9772   -0.7420    0.0152 C   0  0  0  0  0  0  0  0  0  0  0  0
   -0.9530   -1.9293    0.2050 O   0  0  0  0  0  0  0  0  0  0  0  0
    0.1228    0.0109   -0.0969 O   0  0  0  0  0  0  0  0  0  0  0  0
    1.3724   -0.6719    0.0213 C   0  0  0  0  0  0  0  0  0  0  0  0
    2.4991    0.3382   -0.1316 C   0  0  0  0  0  0  0  0  0  0  0  0
    3.8662   -0.3309   -0.0147 C   0  0  0  0  0  0  0  0  0  0  0  0
    4.9988    0.6768   -0.1672 C   0  0  0  0  0  0  0  0  0  0  0  0
   -4.0809    1.9776   -0.4419 H   0  0  0  0  0  0  0  0  0  0  0  0
   -5.8903    1.7516   -0.4191 H   0  0  0  0  0  0  0  0  0  0  0  0
   -5.6486   -0.6162   -0.0393 H   0  0  0  0  0  0  0  0  0  0  0  0
   -3.4603   -1.5325   -0.7623 H   0  0  0  0  0  0  0  0  0  0  0  0
   -3.4731   -1.2568    0.9644 H   0  0  0  0  0  0  0  0  0  0  0  0
   -2.1945    0.8764    0.6404 H   0  0  0  0  0  0  0  0  0  0  0  0
   -2.1816    0.5985   -1.1003 H   0  0  0  0  0  0  0  0  0  0  0  0
    1.4270   -1.4472   -0.7515 H   0  0  0  0  0  0  0  0  0  0  0  0
    1.4141   -1.1679    0.9979 H   0  0  0  0  0  0  0  0  0  0  0  0
    2.4059    0.8265   -1.1032 H   0  0  0  0  0  0  0  0  0  0  0  0
    2.3930    1.1046    0.6382 H   0  0  0  0  0  0  0  0  0  0  0  0
    3.9579   -1.1009   -0.7836 H   0  0  0  0  0  0  0  0  0  0  0  0
    3.9451   -0.8230    0.9569 H   0  0  0  0  0  0  0  0  0  0  0  0
    4.9354    1.4419    0.6030 H   0  0  0  0  0  0  0  0  0  0  0  0
    5.9629    0.1820   -0.0811 H   0  0  0  0  0  0  0  0  0  0  0  0
    4.9482    1.1639   -1.1383 H   0  0  0  0  0  0  0  0  0  0  0  0
  1  2  2  0  0  0  0
  2  3  1  0  0  0  0
  3  4  1  0  0  0  0
  4  5  1  0  0  0  0
  5  6  2  0  0  0  0
  5  7  1  0  0  0  0
  7  8  1  0  0  0  0
  8  9  1  0  0  0  0
  9 10  1  0  0  0  0
 10 11  1  0  0  0  0
  1 12  1  0  0  0  0
  1 13  1  0  0  0  0
  2 14  1  0  0  0  0
  3 15  1  0  0  0  0
  3 16  1  0  0  0  0
  4 17  1  0  0  0  0
  4 18  1  0  0  0  0
  8 19  1  0  0  0  0
  8 20  1  0  0  0  0
  9 21  1  0  0  0  0
  9 22  1  0  0  0  0
 10 23  1  0  0  0  0
 10 24  1  0  0  0  0
 11 25  1  0  0  0  0
 11 26  1  0  0  0  0
 11 27  1  0  0  0  0
M  END
