 xtb: 6.7.1 (edcfbbe)
          07072622303D

 32 32  0     0  0            999 V2000
   -3.5543   -0.3344    0.9172 C   0  0  0  0  0  0  0  0  0  0  0  0
   -3.4605   -0.3340   -0.6035 C   0  0  0  0  0  0  0  0  0  0  0  0
   -2.5059    0.7507   -1.1208 C   0  0  0  0  0  0  0  0  0  0  0  0
   -2.5091    0.7916   -2.6510 C   0  0  0  0  0  0  0  0  0  0  0  0
   -1.1057    0.5438   -0.5990 C   0  0  0  0  0  0  0  0  0  0  0  0
   -0.3888   -0.6083   -0.8869 C   0  0  0  0  0  0  0  0  0  0  0  0
    0.8964   -0.8023   -0.4103 C   0  0  0  0  0  0  0  0  0  0  0  0
    1.4974    0.1732    0.3743 C   0  0  0  0  0  0  0  0  0  0  0  0
    2.7571    0.0936    0.8977 O   0  0  0  0  0  0  0  0  0  0  0  0
    3.5347   -1.0564    0.6329 C   0  0  0  0  0  0  0  0  0  0  0  0
    4.8838   -0.8394    1.3207 C   0  0  0  0  0  0  0  0  0  0  0  0
    5.5856    0.2371    0.7607 O   0  0  0  0  0  0  0  0  0  0  0  0
    0.7884    1.3361    0.6692 C   0  0  0  0  0  0  0  0  0  0  0  0
   -0.4917    1.5119    0.1880 C   0  0  0  0  0  0  0  0  0  0  0  0
   -3.9117    0.6278    1.2780 H   0  0  0  0  0  0  0  0  0  0  0  0
   -2.5780   -0.5232    1.3585 H   0  0  0  0  0  0  0  0  0  0  0  0
   -4.2426   -1.1052    1.2567 H   0  0  0  0  0  0  0  0  0  0  0  0
   -4.4521   -0.1608   -1.0283 H   0  0  0  0  0  0  0  0  0  0  0  0
   -3.1206   -1.3131   -0.9457 H   0  0  0  0  0  0  0  0  0  0  0  0
   -2.8658    1.7186   -0.7538 H   0  0  0  0  0  0  0  0  0  0  0  0
   -1.8293    1.5617   -3.0090 H   0  0  0  0  0  0  0  0  0  0  0  0
   -3.5080    1.0118   -3.0216 H   0  0  0  0  0  0  0  0  0  0  0  0
   -2.1930   -0.1630   -3.0642 H   0  0  0  0  0  0  0  0  0  0  0  0
   -0.8328   -1.3822   -1.4954 H   0  0  0  0  0  0  0  0  0  0  0  0
    1.4153   -1.7155   -0.6572 H   0  0  0  0  0  0  0  0  0  0  0  0
    3.0509   -1.9564    1.0343 H   0  0  0  0  0  0  0  0  0  0  0  0
    3.6870   -1.1751   -0.4480 H   0  0  0  0  0  0  0  0  0  0  0  0
    5.5121   -1.7228    1.1914 H   0  0  0  0  0  0  0  0  0  0  0  0
    4.7107   -0.6741    2.3936 H   0  0  0  0  0  0  0  0  0  0  0  0
    4.9940    1.0000    0.7648 H   0  0  0  0  0  0  0  0  0  0  0  0
    1.2618    2.0885    1.2806 H   0  0  0  0  0  0  0  0  0  0  0  0
   -1.0254    2.4199    0.4299 H   0  0  0  0  0  0  0  0  0  0  0  0
  1  2  1  0  0  0  0
  2  3  1  0  0  0  0
  3  4  1  0  0  0  0
  3  5  1  0  0  0  0
  5  6  4  0  0  0  0
  6  7  4  0  0  0  0
  7  8  4  0  0  0  0
  8  9  1  0  0  0  0
  9 10  1  0  0  0  0
 10 11  1  0  0  0  0
 11 12  1  0  0  0  0
  8 13  4  0  0  0  0
  5 14  4  0  0  0  0
 13 14  4  0  0  0  0
  1 15  1  0  0  0  0
  1 16  1  0  0  0  0
  1 17  1  0  0  0  0
  2 18  1  0  0  0  0
  2 19  1  0  0  0  0
  3 20  1  0  0  0  0
  4 21  1  0  0  0  0
  4 22  1  0  0  0  0
  4 23  1  0  0  0  0
  6 24  1  0  0  0  0
  7 25  1  0  0  0  0
 10 26  1  0  0  0  0
 10 27  1  0  0  0  0
 11 28  1  0  0  0  0
 11 29  1  0  0  0  0
 12 30  1  0  0  0  0
 13 31  1  0  0  0  0
 14 32  1  0  0  0  0
M  END
