 xtb: 6.7.1 (edcfbbe)
          07082617523D

 15 14  0     0  0            999 V2000
   -2.9974    0.0367    0.0291 C   0  0  0  0  0  0  0  0  0  0  0  0
   -1.5925   -0.3255    0.3402 C   0  0  0  0  0  0  0  0  0  0  0  0
   -0.5178    0.2354   -0.2078 C   0  0  0  0  0  0  0  0  0  0  0  0
    0.8392   -0.1904    0.1639 C   0  0  0  0  0  0  0  0  0  0  0  0
    1.1167   -1.0502    0.9645 O   0  0  0  0  0  0  0  0  0  0  0  0
    1.7660    0.5121   -0.5139 O   0  0  0  0  0  0  0  0  0  0  0  0
    3.1179    0.1862   -0.2358 C   0  0  0  0  0  0  0  0  0  0  0  0
   -3.5313   -0.8370   -0.3436 H   0  0  0  0  0  0  0  0  0  0  0  0
   -3.5052    0.3632    0.9362 H   0  0  0  0  0  0  0  0  0  0  0  0
   -3.0473    0.8291   -0.7131 H   0  0  0  0  0  0  0  0  0  0  0  0
   -1.4433   -1.1094    1.0723 H   0  0  0  0  0  0  0  0  0  0  0  0
   -0.5802    1.0221   -0.9443 H   0  0  0  0  0  0  0  0  0  0  0  0
    3.7240    0.8382   -0.8597 H   0  0  0  0  0  0  0  0  0  0  0  0
    3.3388    0.3515    0.8210 H   0  0  0  0  0  0  0  0  0  0  0  0
    3.3124   -0.8620   -0.4730 H   0  0  0  0  0  0  0  0  0  0  0  0
  1  2  1  0  0  0  0
  2  3  2  0  0  0  0
  3  4  1  0  0  0  0
  4  5  2  0  0  0  0
  4  6  1  0  0  0  0
  6  7  1  0  0  0  0
  1  8  1  0  0  0  0
  1  9  1  0  0  0  0
  1 10  1  0  0  0  0
  2 11  1  0  0  0  0
  3 12  1  0  0  0  0
  7 13  1  0  0  0  0
  7 14  1  0  0  0  0
  7 15  1  0  0  0  0
M  END
