 xtb: 6.7.1 (edcfbbe)
          07082618243D

 17 16  0     0  0            999 V2000
   -0.7618   -1.8329    0.6599 C   0  0  0  0  0  0  0  0  0  0  0  0
   -0.6535   -0.7467   -0.2270 O   0  0  0  0  0  0  0  0  0  0  0  0
    0.4694    0.1012   -0.0072 C   0  0  0  0  0  0  0  0  0  0  0  0
    0.1556    1.1258    1.0943 C   0  0  0  0  0  0  0  0  0  0  0  0
   -1.0265    1.8241    0.8101 O   0  0  0  0  0  0  0  0  0  0  0  0
    0.7444    0.7971   -1.3481 C   0  0  0  0  0  0  0  0  0  0  0  0
    0.9914   -0.1315   -2.3682 O   0  0  0  0  0  0  0  0  0  0  0  0
   -1.6157   -2.4170    0.3208 H   0  0  0  0  0  0  0  0  0  0  0  0
   -0.9352   -1.5074    1.6907 H   0  0  0  0  0  0  0  0  0  0  0  0
    0.1401   -2.4549    0.6320 H   0  0  0  0  0  0  0  0  0  0  0  0
    1.3420   -0.5036    0.2788 H   0  0  0  0  0  0  0  0  0  0  0  0
    0.0717    0.6108    2.0641 H   0  0  0  0  0  0  0  0  0  0  0  0
    0.9584    1.8619    1.1627 H   0  0  0  0  0  0  0  0  0  0  0  0
   -1.6595    1.1799    0.4625 H   0  0  0  0  0  0  0  0  0  0  0  0
    1.6366    1.4196   -1.2657 H   0  0  0  0  0  0  0  0  0  0  0  0
   -0.1155    1.4337   -1.5964 H   0  0  0  0  0  0  0  0  0  0  0  0
    0.2581   -0.7600   -2.3635 H   0  0  0  0  0  0  0  0  0  0  0  0
  1  2  1  0  0  0  0
  2  3  1  0  0  0  0
  3  4  1  0  0  0  0
  4  5  1  0  0  0  0
  3  6  1  0  0  0  0
  6  7  1  0  0  0  0
  1  8  1  0  0  0  0
  1  9  1  0  0  0  0
  1 10  1  0  0  0  0
  3 11  1  0  0  0  0
  4 12  1  0  0  0  0
  4 13  1  0  0  0  0
  5 14  1  0  0  0  0
  6 15  1  0  0  0  0
  6 16  1  0  0  0  0
  7 17  1  0  0  0  0
M  END
