 xtb: 6.7.1 (edcfbbe)
          07092608163D

 25 24  0     0  0            999 V2000
    3.8550    0.8230    0.0411 C   0  0  0  0  0  0  0  0  0  0  0  0
    2.9163   -0.2414    0.5746 C   0  0  0  0  0  0  0  0  0  0  0  0
    1.7364   -0.2534   -0.2406 O   0  0  0  0  0  0  0  0  0  0  0  0
    0.6978   -0.9347    0.2159 C   0  0  0  0  0  0  0  0  0  0  0  0
    0.6625   -1.5295    1.2630 O   0  0  0  0  0  0  0  0  0  0  0  0
   -0.4681   -0.8651   -0.7810 C   0  0  0  0  0  0  0  0  0  0  0  0
   -0.4132   -1.4481   -1.8304 O   0  0  0  0  0  0  0  0  0  0  0  0
   -1.6645   -0.0655   -0.2913 C   0  0  0  0  0  0  0  0  0  0  0  0
   -1.1975    1.1887    0.4516 C   0  0  0  0  0  0  0  0  0  0  0  0
   -2.4230   -0.9966    0.6679 C   0  0  0  0  0  0  0  0  0  0  0  0
   -2.5510    0.3084   -1.4787 C   0  0  0  0  0  0  0  0  0  0  0  0
    4.7646    0.8366    0.6345 H   0  0  0  0  0  0  0  0  0  0  0  0
    4.1077    0.6112   -0.9940 H   0  0  0  0  0  0  0  0  0  0  0  0
    3.3837    1.8010    0.0907 H   0  0  0  0  0  0  0  0  0  0  0  0
    3.3750   -1.2349    0.5332 H   0  0  0  0  0  0  0  0  0  0  0  0
    2.6238   -0.0415    1.6113 H   0  0  0  0  0  0  0  0  0  0  0  0
   -2.0610    1.7810    0.7462 H   0  0  0  0  0  0  0  0  0  0  0  0
   -0.6430    0.9272    1.3500 H   0  0  0  0  0  0  0  0  0  0  0  0
   -0.5625    1.7997   -0.1871 H   0  0  0  0  0  0  0  0  0  0  0  0
   -1.7749   -1.3270    1.4755 H   0  0  0  0  0  0  0  0  0  0  0  0
   -2.7884   -1.8717    0.1359 H   0  0  0  0  0  0  0  0  0  0  0  0
   -3.2721   -0.4656    1.0924 H   0  0  0  0  0  0  0  0  0  0  0  0
   -2.0348    1.0075   -2.1326 H   0  0  0  0  0  0  0  0  0  0  0  0
   -2.7975   -0.5786   -2.0562 H   0  0  0  0  0  0  0  0  0  0  0  0
   -3.4714    0.7692   -1.1292 H   0  0  0  0  0  0  0  0  0  0  0  0
  1  2  1  0  0  0  0
  2  3  1  0  0  0  0
  3  4  1  0  0  0  0
  4  5  2  0  0  0  0
  4  6  1  0  0  0  0
  6  7  2  0  0  0  0
  6  8  1  0  0  0  0
  8  9  1  0  0  0  0
  8 10  1  0  0  0  0
  8 11  1  0  0  0  0
  1 12  1  0  0  0  0
  1 13  1  0  0  0  0
  1 14  1  0  0  0  0
  2 15  1  0  0  0  0
  2 16  1  0  0  0  0
  9 17  1  0  0  0  0
  9 18  1  0  0  0  0
  9 19  1  0  0  0  0
 10 20  1  0  0  0  0
 10 21  1  0  0  0  0
 10 22  1  0  0  0  0
 11 23  1  0  0  0  0
 11 24  1  0  0  0  0
 11 25  1  0  0  0  0
M  END
