 xtb: 6.7.1 (edcfbbe)
          07072618213D

 22 23  0     0  0            999 V2000
   -3.8384   -0.3842   -0.4688 C   0  0  0  0  0  0  0  0  0  0  0  0
   -2.7550    0.3546   -0.6118 C   0  0  0  0  0  0  0  0  0  0  0  0
   -1.9315    0.8829    0.5262 C   0  0  0  0  0  0  0  0  0  0  0  0
   -0.5335    0.3278    0.4366 C   0  0  0  0  0  0  0  0  0  0  0  0
   -0.2718   -0.9561    0.8911 C   0  0  0  0  0  0  0  0  0  0  0  0
    0.9926   -1.5313    0.7976 C   0  0  0  0  0  0  0  0  0  0  0  0
    1.9827   -0.7706    0.2264 C   0  0  0  0  0  0  0  0  0  0  0  0
    1.7288    0.5192   -0.2390 C   0  0  0  0  0  0  0  0  0  0  0  0
    0.4830    1.0883   -0.1476 C   0  0  0  0  0  0  0  0  0  0  0  0
    2.8815    1.0511   -0.7574 O   0  0  0  0  0  0  0  0  0  0  0  0
    3.8690    0.0551   -0.6037 C   0  0  0  0  0  0  0  0  0  0  0  0
    3.3023   -1.0803    0.0122 O   0  0  0  0  0  0  0  0  0  0  0  0
   -4.2210   -0.6482    0.5038 H   0  0  0  0  0  0  0  0  0  0  0  0
   -4.3954   -0.7509   -1.3141 H   0  0  0  0  0  0  0  0  0  0  0  0
   -2.3855    0.6045   -1.5976 H   0  0  0  0  0  0  0  0  0  0  0  0
   -1.8961    1.9733    0.4681 H   0  0  0  0  0  0  0  0  0  0  0  0
   -2.3900    0.5975    1.4742 H   0  0  0  0  0  0  0  0  0  0  0  0
   -1.0739   -1.5291    1.3306 H   0  0  0  0  0  0  0  0  0  0  0  0
    1.1903   -2.5275    1.1554 H   0  0  0  0  0  0  0  0  0  0  0  0
    0.3031    2.0867   -0.5112 H   0  0  0  0  0  0  0  0  0  0  0  0
    4.6896    0.4431    0.0216 H   0  0  0  0  0  0  0  0  0  0  0  0
    4.2692   -0.2225   -1.5925 H   0  0  0  0  0  0  0  0  0  0  0  0
  1  2  2  0  0  0  0
  2  3  1  0  0  0  0
  3  4  1  0  0  0  0
  4  5  4  0  0  0  0
  5  6  4  0  0  0  0
  6  7  4  0  0  0  0
  7  8  4  0  0  0  0
  4  9  4  0  0  0  0
  8  9  4  0  0  0  0
  8 10  1  0  0  0  0
 10 11  1  0  0  0  0
  7 12  1  0  0  0  0
 11 12  1  0  0  0  0
  1 13  1  0  0  0  0
  1 14  1  0  0  0  0
  2 15  1  0  0  0  0
  3 16  1  0  0  0  0
  3 17  1  0  0  0  0
  5 18  1  0  0  0  0
  6 19  1  0  0  0  0
  9 20  1  0  0  0  0
 11 21  1  0  0  0  0
 11 22  1  0  0  0  0
M  END
