 xtb: 6.7.1 (edcfbbe)
          07082606473D

 24 25  0     0  0            999 V2000
   -3.3629    0.7365   -0.8513 C   0  0  0  0  0  0  0  0  0  0  0  0
   -2.9719    1.3229    0.3392 C   0  0  0  0  0  0  0  0  0  0  0  0
   -1.8691    0.8391    1.0227 C   0  0  0  0  0  0  0  0  0  0  0  0
   -1.1491   -0.2385    0.5272 C   0  0  0  0  0  0  0  0  0  0  0  0
    0.0662   -0.7654    1.2428 C   0  0  0  0  0  0  0  0  0  0  0  0
    1.2987   -0.5167    0.4154 C   0  0  0  0  0  0  0  0  0  0  0  0
    1.6991    0.7800    0.1001 C   0  0  0  0  0  0  0  0  0  0  0  0
    2.8289    0.9570   -0.6770 C   0  0  0  0  0  0  0  0  0  0  0  0
    3.5215   -0.1623   -1.1156 C   0  0  0  0  0  0  0  0  0  0  0  0
    3.0389   -1.4085   -0.7524 C   0  0  0  0  0  0  0  0  0  0  0  0
    1.9590   -1.5836   -0.0103 N   0  0  0  0  0  0  0  0  0  0  0  0
   -1.5472   -0.8200   -0.6710 C   0  0  0  0  0  0  0  0  0  0  0  0
   -2.6467   -0.3368   -1.3555 C   0  0  0  0  0  0  0  0  0  0  0  0
   -4.2229    1.1138   -1.3849 H   0  0  0  0  0  0  0  0  0  0  0  0
   -3.5263    2.1601    0.7383 H   0  0  0  0  0  0  0  0  0  0  0  0
   -1.5704    1.3016    1.9535 H   0  0  0  0  0  0  0  0  0  0  0  0
   -0.0238   -1.8415    1.3994 H   0  0  0  0  0  0  0  0  0  0  0  0
    0.1709   -0.2735    2.2123 H   0  0  0  0  0  0  0  0  0  0  0  0
    1.1291    1.6244    0.4574 H   0  0  0  0  0  0  0  0  0  0  0  0
    3.1661    1.9501   -0.9381 H   0  0  0  0  0  0  0  0  0  0  0  0
    4.4084   -0.0686   -1.7227 H   0  0  0  0  0  0  0  0  0  0  0  0
    3.5365   -2.3168   -1.0681 H   0  0  0  0  0  0  0  0  0  0  0  0
   -0.9852   -1.6557   -1.0626 H   0  0  0  0  0  0  0  0  0  0  0  0
   -2.9475   -0.7979   -2.2851 H   0  0  0  0  0  0  0  0  0  0  0  0
  1  2  4  0  0  0  0
  2  3  4  0  0  0  0
  3  4  4  0  0  0  0
  4  5  1  0  0  0  0
  5  6  1  0  0  0  0
  6  7  4  0  0  0  0
  7  8  4  0  0  0  0
  8  9  4  0  0  0  0
  9 10  4  0  0  0  0
  6 11  4  0  0  0  0
 10 11  4  0  0  0  0
  4 12  4  0  0  0  0
  1 13  4  0  0  0  0
 12 13  4  0  0  0  0
  1 14  1  0  0  0  0
  2 15  1  0  0  0  0
  3 16  1  0  0  0  0
  5 17  1  0  0  0  0
  5 18  1  0  0  0  0
  7 19  1  0  0  0  0
  8 20  1  0  0  0  0
  9 21  1  0  0  0  0
 10 22  1  0  0  0  0
 12 23  1  0  0  0  0
 13 24  1  0  0  0  0
M  END
