 xtb: 6.7.1 (edcfbbe)
          07082620243D

 21 20  0     0  0            999 V2000
    3.4521   -0.0593    0.1083 C   0  0  0  0  0  0  0  0  0  0  0  0
    2.1299    0.1676   -0.6113 C   0  0  0  0  0  0  0  0  0  0  0  0
    0.9439   -0.0420    0.3228 C   0  0  0  0  0  0  0  0  0  0  0  0
    1.0489   -0.2632    1.5088 O   0  0  0  0  0  0  0  0  0  0  0  0
   -0.2516    0.0478   -0.3061 N   0  0  0  0  0  0  0  0  0  0  0  0
   -1.5256   -0.0930    0.3715 C   0  0  0  0  0  0  0  0  0  0  0  0
   -2.3084    1.2168    0.3011 C   0  0  0  0  0  0  0  0  0  0  0  0
   -2.3188   -1.2470   -0.2375 C   0  0  0  0  0  0  0  0  0  0  0  0
    3.5242    0.6003    0.9690 H   0  0  0  0  0  0  0  0  0  0  0  0
    3.5124   -1.0837    0.4664 H   0  0  0  0  0  0  0  0  0  0  0  0
    4.2892    0.1327   -0.5586 H   0  0  0  0  0  0  0  0  0  0  0  0
    2.0816    1.1895   -0.9971 H   0  0  0  0  0  0  0  0  0  0  0  0
    2.0354   -0.5168   -1.4581 H   0  0  0  0  0  0  0  0  0  0  0  0
   -0.2801    0.2471   -1.2937 H   0  0  0  0  0  0  0  0  0  0  0  0
   -1.2785   -0.3206    1.4134 H   0  0  0  0  0  0  0  0  0  0  0  0
   -2.5432    1.4649   -0.7328 H   0  0  0  0  0  0  0  0  0  0  0  0
   -3.2387    1.1272    0.8549 H   0  0  0  0  0  0  0  0  0  0  0  0
   -1.7252    2.0272    0.7311 H   0  0  0  0  0  0  0  0  0  0  0  0
   -3.2490   -1.3891    0.3053 H   0  0  0  0  0  0  0  0  0  0  0  0
   -1.7435   -2.1680   -0.1874 H   0  0  0  0  0  0  0  0  0  0  0  0
   -2.5546   -1.0382   -1.2797 H   0  0  0  0  0  0  0  0  0  0  0  0
  1  2  1  0  0  0  0
  2  3  1  0  0  0  0
  3  4  2  0  0  0  0
  3  5  4  0  0  0  0
  5  6  1  0  0  0  0
  6  7  1  0  0  0  0
  6  8  1  0  0  0  0
  1  9  1  0  0  0  0
  1 10  1  0  0  0  0
  1 11  1  0  0  0  0
  2 12  1  0  0  0  0
  2 13  1  0  0  0  0
  5 14  1  0  0  0  0
  6 15  1  0  0  0  0
  7 16  1  0  0  0  0
  7 17  1  0  0  0  0
  7 18  1  0  0  0  0
  8 19  1  0  0  0  0
  8 20  1  0  0  0  0
  8 21  1  0  0  0  0
M  END
