 xtb: 6.7.1 (edcfbbe)
          07082608073D

 25 25  0     0  0            999 V2000
    3.6705   -0.9895    0.4591 C   0  0  0  0  0  0  0  0  0  0  0  0
    2.2360   -0.5763    0.3249 C   0  0  0  0  0  0  0  0  0  0  0  0
    1.2111   -1.5080    0.4034 C   0  0  0  0  0  0  0  0  0  0  0  0
   -0.1065   -1.1149    0.2570 C   0  0  0  0  0  0  0  0  0  0  0  0
   -0.4527    0.2080    0.0291 C   0  0  0  0  0  0  0  0  0  0  0  0
   -1.8906    0.6392   -0.1290 C   0  0  0  0  0  0  0  0  0  0  0  0
   -2.5232   -0.0238   -1.3542 C   0  0  0  0  0  0  0  0  0  0  0  0
   -2.6958    0.3257    1.1334 C   0  0  0  0  0  0  0  0  0  0  0  0
    0.5804    1.1460   -0.0522 C   0  0  0  0  0  0  0  0  0  0  0  0
    0.2654    2.4570   -0.2770 O   0  0  0  0  0  0  0  0  0  0  0  0
    1.9028    0.7502    0.0950 C   0  0  0  0  0  0  0  0  0  0  0  0
    4.2696   -0.1867    0.8831 H   0  0  0  0  0  0  0  0  0  0  0  0
    4.0809   -1.2352   -0.5212 H   0  0  0  0  0  0  0  0  0  0  0  0
    3.7613   -1.8694    1.0915 H   0  0  0  0  0  0  0  0  0  0  0  0
    1.4456   -2.5473    0.5815 H   0  0  0  0  0  0  0  0  0  0  0  0
   -0.8859   -1.8590    0.3236 H   0  0  0  0  0  0  0  0  0  0  0  0
   -1.8969    1.7217   -0.2815 H   0  0  0  0  0  0  0  0  0  0  0  0
   -3.5386    0.3402   -1.4955 H   0  0  0  0  0  0  0  0  0  0  0  0
   -2.5590   -1.1041   -1.2348 H   0  0  0  0  0  0  0  0  0  0  0  0
   -1.9465    0.2039   -2.2478 H   0  0  0  0  0  0  0  0  0  0  0  0
   -2.2372    0.7944    2.0012 H   0  0  0  0  0  0  0  0  0  0  0  0
   -3.7116    0.7022    1.0332 H   0  0  0  0  0  0  0  0  0  0  0  0
   -2.7433   -0.7466    1.3075 H   0  0  0  0  0  0  0  0  0  0  0  0
    1.0772    2.9769   -0.3064 H   0  0  0  0  0  0  0  0  0  0  0  0
    2.6870    1.4954    0.0294 H   0  0  0  0  0  0  0  0  0  0  0  0
  1  2  1  0  0  0  0
  2  3  4  0  0  0  0
  3  4  4  0  0  0  0
  4  5  4  0  0  0  0
  5  6  1  0  0  0  0
  6  7  1  0  0  0  0
  6  8  1  0  0  0  0
  5  9  4  0  0  0  0
  9 10  1  0  0  0  0
  2 11  4  0  0  0  0
  9 11  4  0  0  0  0
  1 12  1  0  0  0  0
  1 13  1  0  0  0  0
  1 14  1  0  0  0  0
  3 15  1  0  0  0  0
  4 16  1  0  0  0  0
  6 17  1  0  0  0  0
  7 18  1  0  0  0  0
  7 19  1  0  0  0  0
  7 20  1  0  0  0  0
  8 21  1  0  0  0  0
  8 22  1  0  0  0  0
  8 23  1  0  0  0  0
 10 24  1  0  0  0  0
 11 25  1  0  0  0  0
M  END
