 xtb: 6.7.1 (edcfbbe)
          07062617543D

 47 49  0     0  0            999 V2000
   -1.9193    0.1677   -2.0042 C   0  0  0  0  0  0  0  0  0  0  0  0
   -1.6213    1.4902   -1.3396 C   0  0  0  0  0  0  0  0  0  0  0  0
   -0.6278    2.3335   -2.1043 C   0  0  0  0  0  0  0  0  0  0  0  0
   -2.7443    2.1430   -0.5778 C   0  0  0  0  0  0  0  0  0  0  0  0
   -2.9613    3.5915   -0.5711 C   0  0  0  0  0  0  0  0  0  0  0  0
   -4.1534    4.1711   -0.6745 C   0  0  0  0  0  0  0  0  0  0  0  0
   -4.3436    5.8826   -0.6638 Cl  0  0  0  0  0  0  0  0  0  0  0  0
   -5.6307    3.3055   -0.8332 Cl  0  0  0  0  0  0  0  0  0  0  0  0
   -1.5533    1.5620    0.1752 C   0  0  0  0  0  0  0  0  0  0  0  0
   -1.7637    0.3662    1.0103 C   0  0  0  0  0  0  0  0  0  0  0  0
   -2.6273   -0.4635    0.8802 O   0  0  0  0  0  0  0  0  0  0  0  0
   -0.8303    0.3200    1.9811 O   0  0  0  0  0  0  0  0  0  0  0  0
   -0.8631   -0.8104    2.8503 C   0  0  0  0  0  0  0  0  0  0  0  0
   -0.5772   -0.3632    4.2020 C   0  0  0  0  0  0  0  0  0  0  0  0
   -0.3324   -0.0317    5.2670 N   0  0  0  0  0  0  0  0  0  0  0  0
    0.1598   -1.8671    2.4711 C   0  0  0  0  0  0  0  0  0  0  0  0
    0.0726   -3.1296    3.0424 C   0  0  0  0  0  0  0  0  0  0  0  0
    1.0280   -4.0833    2.7381 C   0  0  0  0  0  0  0  0  0  0  0  0
    2.0565   -3.7924    1.8623 C   0  0  0  0  0  0  0  0  0  0  0  0
    2.1350   -2.5306    1.2811 C   0  0  0  0  0  0  0  0  0  0  0  0
    3.2102   -2.2740    0.4804 O   0  0  0  0  0  0  0  0  0  0  0  0
    3.1006   -1.4020   -0.5739 C   0  0  0  0  0  0  0  0  0  0  0  0
    1.9749   -1.3495   -1.3891 C   0  0  0  0  0  0  0  0  0  0  0  0
    1.9721   -0.5187   -2.4950 C   0  0  0  0  0  0  0  0  0  0  0  0
    3.0726    0.2689   -2.7876 C   0  0  0  0  0  0  0  0  0  0  0  0
    4.1923    0.2128   -1.9745 C   0  0  0  0  0  0  0  0  0  0  0  0
    4.2122   -0.6213   -0.8729 C   0  0  0  0  0  0  0  0  0  0  0  0
    1.1880   -1.5612    1.5967 C   0  0  0  0  0  0  0  0  0  0  0  0
   -2.6212   -0.4168   -1.4171 H   0  0  0  0  0  0  0  0  0  0  0  0
   -1.0046   -0.4097   -2.1225 H   0  0  0  0  0  0  0  0  0  0  0  0
   -2.3487    0.3407   -2.9892 H   0  0  0  0  0  0  0  0  0  0  0  0
   -0.3783    3.2482   -1.5755 H   0  0  0  0  0  0  0  0  0  0  0  0
   -1.0386    2.5995   -3.0766 H   0  0  0  0  0  0  0  0  0  0  0  0
    0.2909    1.7702   -2.2608 H   0  0  0  0  0  0  0  0  0  0  0  0
   -3.6507    1.5547   -0.5037 H   0  0  0  0  0  0  0  0  0  0  0  0
   -2.0980    4.2320   -0.4763 H   0  0  0  0  0  0  0  0  0  0  0  0
   -0.8363    2.2532    0.5988 H   0  0  0  0  0  0  0  0  0  0  0  0
   -1.8757   -1.2462    2.8226 H   0  0  0  0  0  0  0  0  0  0  0  0
   -0.7309   -3.3592    3.7256 H   0  0  0  0  0  0  0  0  0  0  0  0
    0.9674   -5.0637    3.1845 H   0  0  0  0  0  0  0  0  0  0  0  0
    2.8097   -4.5248    1.6196 H   0  0  0  0  0  0  0  0  0  0  0  0
    1.1202   -1.9721   -1.1648 H   0  0  0  0  0  0  0  0  0  0  0  0
    1.1092   -0.4997   -3.1449 H   0  0  0  0  0  0  0  0  0  0  0  0
    3.0602    0.9164   -3.6513 H   0  0  0  0  0  0  0  0  0  0  0  0
    5.0561    0.8197   -2.2001 H   0  0  0  0  0  0  0  0  0  0  0  0
    5.0802   -0.6872   -0.2359 H   0  0  0  0  0  0  0  0  0  0  0  0
    1.2631   -0.5716    1.1697 H   0  0  0  0  0  0  0  0  0  0  0  0
  1  2  1  0  0  0  0
  2  3  1  0  0  0  0
  2  4  1  0  0  0  0
  4  5  1  0  0  0  0
  5  6  2  0  0  0  0
  6  7  1  0  0  0  0
  6  8  1  0  0  0  0
  2  9  1  0  0  0  0
  4  9  1  0  0  0  0
  9 10  1  0  0  0  0
 10 11  2  0  0  0  0
 10 12  1  0  0  0  0
 12 13  1  0  0  0  0
 13 14  1  0  0  0  0
 14 15  3  0  0  0  0
 13 16  1  0  0  0  0
 16 17  4  0  0  0  0
 17 18  4  0  0  0  0
 18 19  4  0  0  0  0
 19 20  4  0  0  0  0
 20 21  1  0  0  0  0
 21 22  1  0  0  0  0
 22 23  4  0  0  0  0
 23 24  4  0  0  0  0
 24 25  4  0  0  0  0
 25 26  4  0  0  0  0
 22 27  4  0  0  0  0
 26 27  4  0  0  0  0
 16 28  4  0  0  0  0
 20 28  4  0  0  0  0
  1 29  1  0  0  0  0
  1 30  1  0  0  0  0
  1 31  1  0  0  0  0
  3 32  1  0  0  0  0
  3 33  1  0  0  0  0
  3 34  1  0  0  0  0
  4 35  1  0  0  0  0
  5 36  1  0  0  0  0
  9 37  1  0  0  0  0
 13 38  1  0  0  0  0
 17 39  1  0  0  0  0
 18 40  1  0  0  0  0
 19 41  1  0  0  0  0
 23 42  1  0  0  0  0
 24 43  1  0  0  0  0
 25 44  1  0  0  0  0
 26 45  1  0  0  0  0
 27 46  1  0  0  0  0
 28 47  1  0  0  0  0
M  END
