 xtb: 6.7.1 (edcfbbe)
          07072606003D

 24 24  0     0  0            999 V2000
   -1.9526   -2.4659   -0.0647 C   0  0  0  0  0  0  0  0  0  0  0  0
   -1.3097   -1.2353    0.2322 O   0  0  0  0  0  0  0  0  0  0  0  0
   -1.2965   -0.3281   -0.7528 C   0  0  0  0  0  0  0  0  0  0  0  0
   -1.8330   -0.4888   -1.8182 O   0  0  0  0  0  0  0  0  0  0  0  0
   -0.6051    0.9221   -0.3334 C   0  0  0  0  0  0  0  0  0  0  0  0
   -1.1911    2.1375   -0.6686 C   0  0  0  0  0  0  0  0  0  0  0  0
   -0.6318    3.3268   -0.2366 C   0  0  0  0  0  0  0  0  0  0  0  0
    0.5146    3.3112    0.5421 C   0  0  0  0  0  0  0  0  0  0  0  0
    1.1161    2.1077    0.8640 C   0  0  0  0  0  0  0  0  0  0  0  0
    0.5727    0.9083    0.4176 C   0  0  0  0  0  0  0  0  0  0  0  0
    1.3085   -0.3500    0.7216 C   0  0  0  0  0  0  0  0  0  0  0  0
    1.8520   -0.5888    1.7686 O   0  0  0  0  0  0  0  0  0  0  0  0
    1.3520   -1.1619   -0.3425 O   0  0  0  0  0  0  0  0  0  0  0  0
    2.0384   -2.3911   -0.1588 C   0  0  0  0  0  0  0  0  0  0  0  0
   -1.9246   -3.0525    0.8500 H   0  0  0  0  0  0  0  0  0  0  0  0
   -2.9841   -2.2887   -0.3766 H   0  0  0  0  0  0  0  0  0  0  0  0
   -1.4261   -2.9815   -0.8706 H   0  0  0  0  0  0  0  0  0  0  0  0
   -2.0920    2.1320   -1.2633 H   0  0  0  0  0  0  0  0  0  0  0  0
   -1.0946    4.2657   -0.5008 H   0  0  0  0  0  0  0  0  0  0  0  0
    0.9444    4.2376    0.8921 H   0  0  0  0  0  0  0  0  0  0  0  0
    2.0177    2.0794    1.4571 H   0  0  0  0  0  0  0  0  0  0  0  0
    2.0295   -2.8919   -1.1236 H   0  0  0  0  0  0  0  0  0  0  0  0
    3.0635   -2.2071    0.1697 H   0  0  0  0  0  0  0  0  0  0  0  0
    1.5316   -2.9968    0.5955 H   0  0  0  0  0  0  0  0  0  0  0  0
  1  2  1  0  0  0  0
  2  3  1  0  0  0  0
  3  4  2  0  0  0  0
  3  5  1  0  0  0  0
  5  6  4  0  0  0  0
  6  7  4  0  0  0  0
  7  8  4  0  0  0  0
  8  9  4  0  0  0  0
  5 10  4  0  0  0  0
  9 10  4  0  0  0  0
 10 11  1  0  0  0  0
 11 12  2  0  0  0  0
 11 13  1  0  0  0  0
 13 14  1  0  0  0  0
  1 15  1  0  0  0  0
  1 16  1  0  0  0  0
  1 17  1  0  0  0  0
  6 18  1  0  0  0  0
  7 19  1  0  0  0  0
  8 20  1  0  0  0  0
  9 21  1  0  0  0  0
 14 22  1  0  0  0  0
 14 23  1  0  0  0  0
 14 24  1  0  0  0  0
M  END
