 xtb: 6.7.1 (edcfbbe)
          07082612533D

 42 42  0     0  0            999 V2000
   -4.3406   -0.0683    1.0227 C   0  0  0  0  0  0  0  0  0  0  0  0
   -4.1361    0.4668   -0.3640 C   0  0  0  0  0  0  0  0  0  0  0  0
   -5.4097    0.6573   -1.1360 C   0  0  0  0  0  0  0  0  0  0  0  0
   -2.9545    0.7513   -0.8985 C   0  0  0  0  0  0  0  0  0  0  0  0
   -1.6118    0.5820   -0.2549 C   0  0  0  0  0  0  0  0  0  0  0  0
   -1.0428   -0.8127   -0.5500 C   0  0  0  0  0  0  0  0  0  0  0  0
    0.1394   -1.2028    0.3616 C   0  0  0  0  0  0  0  0  0  0  0  0
    0.5734   -2.6326    0.0109 C   0  0  0  0  0  0  0  0  0  0  0  0
   -0.2882   -1.1624    1.7190 O   0  0  0  0  0  0  0  0  0  0  0  0
    1.3024   -0.1889    0.2813 C   0  0  0  0  0  0  0  0  0  0  0  0
    1.8088    0.0844   -1.1339 C   0  0  0  0  0  0  0  0  0  0  0  0
    3.0408    0.9399   -1.1166 C   0  0  0  0  0  0  0  0  0  0  0  0
    3.7823    1.1756   -0.0442 C   0  0  0  0  0  0  0  0  0  0  0  0
    4.9951    2.0556   -0.0761 C   0  0  0  0  0  0  0  0  0  0  0  0
    3.4476    0.5760    1.2932 C   0  0  0  0  0  0  0  0  0  0  0  0
    2.4923   -0.6034    1.1487 C   0  0  0  0  0  0  0  0  0  0  0  0
   -5.1169    0.5013    1.5322 H   0  0  0  0  0  0  0  0  0  0  0  0
   -3.4332   -0.0282    1.6165 H   0  0  0  0  0  0  0  0  0  0  0  0
   -4.6738   -1.1059    0.9732 H   0  0  0  0  0  0  0  0  0  0  0  0
   -5.9707   -0.2762   -1.1760 H   0  0  0  0  0  0  0  0  0  0  0  0
   -5.2106    0.9884   -2.1518 H   0  0  0  0  0  0  0  0  0  0  0  0
   -6.0401    1.3996   -0.6463 H   0  0  0  0  0  0  0  0  0  0  0  0
   -2.9257    1.1104   -1.9198 H   0  0  0  0  0  0  0  0  0  0  0  0
   -1.6767    0.7047    0.8271 H   0  0  0  0  0  0  0  0  0  0  0  0
   -0.9344    1.3461   -0.6384 H   0  0  0  0  0  0  0  0  0  0  0  0
   -0.7418   -0.8853   -1.5950 H   0  0  0  0  0  0  0  0  0  0  0  0
   -1.8417   -1.5442   -0.3902 H   0  0  0  0  0  0  0  0  0  0  0  0
    1.2980   -2.9935    0.7352 H   0  0  0  0  0  0  0  0  0  0  0  0
   -0.2898   -3.2974    0.0301 H   0  0  0  0  0  0  0  0  0  0  0  0
    1.0112   -2.6755   -0.9815 H   0  0  0  0  0  0  0  0  0  0  0  0
   -1.0084   -1.7940    1.8249 H   0  0  0  0  0  0  0  0  0  0  0  0
    0.9135    0.7453    0.6977 H   0  0  0  0  0  0  0  0  0  0  0  0
    2.0436   -0.8564   -1.6427 H   0  0  0  0  0  0  0  0  0  0  0  0
    1.0441    0.5891   -1.7284 H   0  0  0  0  0  0  0  0  0  0  0  0
    3.3145    1.3749   -2.0695 H   0  0  0  0  0  0  0  0  0  0  0  0
    5.8874    1.4800    0.1708 H   0  0  0  0  0  0  0  0  0  0  0  0
    5.1309    2.5026   -1.0576 H   0  0  0  0  0  0  0  0  0  0  0  0
    4.9016    2.8518    0.6622 H   0  0  0  0  0  0  0  0  0  0  0  0
    4.3674    0.2548    1.7894 H   0  0  0  0  0  0  0  0  0  0  0  0
    2.9933    1.3462    1.9253 H   0  0  0  0  0  0  0  0  0  0  0  0
    3.0216   -1.4322    0.6754 H   0  0  0  0  0  0  0  0  0  0  0  0
    2.1385   -0.9242    2.1285 H   0  0  0  0  0  0  0  0  0  0  0  0
  1  2  1  0  0  0  0
  2  3  1  0  0  0  0
  2  4  2  0  0  0  0
  4  5  1  0  0  0  0
  5  6  1  0  0  0  0
  6  7  1  0  0  0  0
  7  8  1  0  0  0  0
  7  9  1  0  0  0  0
  7 10  1  0  0  0  0
 10 11  1  0  0  0  0
 11 12  1  0  0  0  0
 12 13  2  0  0  0  0
 13 14  1  0  0  0  0
 13 15  1  0  0  0  0
 10 16  1  0  0  0  0
 15 16  1  0  0  0  0
  1 17  1  0  0  0  0
  1 18  1  0  0  0  0
  1 19  1  0  0  0  0
  3 20  1  0  0  0  0
  3 21  1  0  0  0  0
  3 22  1  0  0  0  0
  4 23  1  0  0  0  0
  5 24  1  0  0  0  0
  5 25  1  0  0  0  0
  6 26  1  0  0  0  0
  6 27  1  0  0  0  0
  8 28  1  0  0  0  0
  8 29  1  0  0  0  0
  8 30  1  0  0  0  0
  9 31  1  0  0  0  0
 10 32  1  0  0  0  0
 11 33  1  0  0  0  0
 11 34  1  0  0  0  0
 12 35  1  0  0  0  0
 14 36  1  0  0  0  0
 14 37  1  0  0  0  0
 14 38  1  0  0  0  0
 15 39  1  0  0  0  0
 15 40  1  0  0  0  0
 16 41  1  0  0  0  0
 16 42  1  0  0  0  0
M  END
