 xtb: 6.7.1 (edcfbbe)
          07092607493D

 21 20  0     0  0            999 V2000
   -3.5045    1.3834    0.2291 C   0  0  0  0  0  0  0  0  0  0  0  0
   -2.8017    0.3299   -0.4195 O   0  0  0  0  0  0  0  0  0  0  0  0
   -1.5901    0.0755    0.0591 C   0  0  0  0  0  0  0  0  0  0  0  0
   -1.0733    0.6276    0.9908 O   0  0  0  0  0  0  0  0  0  0  0  0
   -1.0392   -0.9145   -0.6454 O   0  0  0  0  0  0  0  0  0  0  0  0
    0.2958   -1.2394   -0.2648 C   0  0  0  0  0  0  0  0  0  0  0  0
    0.8379   -2.2438   -1.2726 C   0  0  0  0  0  0  0  0  0  0  0  0
    1.1535    0.0309   -0.2787 C   0  0  0  0  0  0  0  0  0  0  0  0
    1.0234    0.9265   -1.0657 O   0  0  0  0  0  0  0  0  0  0  0  0
    2.0924   -0.0290    0.6598 O   0  0  0  0  0  0  0  0  0  0  0  0
    2.9565    1.0994    0.7493 C   0  0  0  0  0  0  0  0  0  0  0  0
   -3.6545    1.1495    1.2849 H   0  0  0  0  0  0  0  0  0  0  0  0
   -4.4586    1.4625   -0.2850 H   0  0  0  0  0  0  0  0  0  0  0  0
   -2.9460    2.3177    0.1496 H   0  0  0  0  0  0  0  0  0  0  0  0
    0.3007   -1.6492    0.7528 H   0  0  0  0  0  0  0  0  0  0  0  0
    0.8557   -1.7919   -2.2609 H   0  0  0  0  0  0  0  0  0  0  0  0
    1.8432   -2.5413   -0.9885 H   0  0  0  0  0  0  0  0  0  0  0  0
    0.1936   -3.1180   -1.2972 H   0  0  0  0  0  0  0  0  0  0  0  0
    2.3850    1.9813    1.0429 H   0  0  0  0  0  0  0  0  0  0  0  0
    3.4324    1.2890   -0.2148 H   0  0  0  0  0  0  0  0  0  0  0  0
    3.6979    0.8539    1.5050 H   0  0  0  0  0  0  0  0  0  0  0  0
  1  2  1  0  0  0  0
  2  3  1  0  0  0  0
  3  4  2  0  0  0  0
  3  5  1  0  0  0  0
  5  6  1  0  0  0  0
  6  7  1  0  0  0  0
  6  8  1  0  0  0  0
  8  9  2  0  0  0  0
  8 10  1  0  0  0  0
 10 11  1  0  0  0  0
  1 12  1  0  0  0  0
  1 13  1  0  0  0  0
  1 14  1  0  0  0  0
  6 15  1  0  0  0  0
  7 16  1  0  0  0  0
  7 17  1  0  0  0  0
  7 18  1  0  0  0  0
 11 19  1  0  0  0  0
 11 20  1  0  0  0  0
 11 21  1  0  0  0  0
M  END
