 xtb: 6.7.1 (edcfbbe)
          07082622353D

 21 21  0     0  0            999 V2000
    2.7712    0.7522   -0.4389 C   0  0  0  0  0  0  0  0  0  0  0  0
    1.8219    0.0687   -0.1849 C   0  0  0  0  0  0  0  0  0  0  0  0
    0.7317   -0.8370    0.1731 C   0  0  0  0  0  0  0  0  0  0  0  0
    1.2510   -2.1248    0.4858 O   0  0  0  0  0  0  0  0  0  0  0  0
   -0.0417   -0.2586    1.3734 C   0  0  0  0  0  0  0  0  0  0  0  0
   -0.7455    1.0426    1.0022 C   0  0  0  0  0  0  0  0  0  0  0  0
   -1.6916    0.8240   -0.1743 C   0  0  0  0  0  0  0  0  0  0  0  0
   -0.9225    0.2811   -1.3750 C   0  0  0  0  0  0  0  0  0  0  0  0
   -0.2181   -1.0227   -1.0180 C   0  0  0  0  0  0  0  0  0  0  0  0
    3.5800    1.3754   -0.6816 H   0  0  0  0  0  0  0  0  0  0  0  0
    1.9069   -2.0331    1.1855 H   0  0  0  0  0  0  0  0  0  0  0  0
   -0.7750   -1.0047    1.6885 H   0  0  0  0  0  0  0  0  0  0  0  0
    0.6503   -0.0885    2.2035 H   0  0  0  0  0  0  0  0  0  0  0  0
    0.0032    1.7910    0.7313 H   0  0  0  0  0  0  0  0  0  0  0  0
   -1.2996    1.4162    1.8659 H   0  0  0  0  0  0  0  0  0  0  0  0
   -2.1779    1.7650   -0.4386 H   0  0  0  0  0  0  0  0  0  0  0  0
   -2.4695    0.1121    0.1118 H   0  0  0  0  0  0  0  0  0  0  0  0
   -0.1797    1.0169   -1.6922 H   0  0  0  0  0  0  0  0  0  0  0  0
   -1.6044    0.1078   -2.2097 H   0  0  0  0  0  0  0  0  0  0  0  0
   -0.9467   -1.7866   -0.7408 H   0  0  0  0  0  0  0  0  0  0  0  0
    0.3559   -1.3971   -1.8671 H   0  0  0  0  0  0  0  0  0  0  0  0
  1  2  3  0  0  0  0
  2  3  1  0  0  0  0
  3  4  1  0  0  0  0
  3  5  1  0  0  0  0
  5  6  1  0  0  0  0
  6  7  1  0  0  0  0
  7  8  1  0  0  0  0
  3  9  1  0  0  0  0
  8  9  1  0  0  0  0
  1 10  1  0  0  0  0
  4 11  1  0  0  0  0
  5 12  1  0  0  0  0
  5 13  1  0  0  0  0
  6 14  1  0  0  0  0
  6 15  1  0  0  0  0
  7 16  1  0  0  0  0
  7 17  1  0  0  0  0
  8 18  1  0  0  0  0
  8 19  1  0  0  0  0
  9 20  1  0  0  0  0
  9 21  1  0  0  0  0
M  END
