 xtb: 6.7.1 (edcfbbe)
          07092613083D

 25 25  0     0  0            999 V2000
   -2.9558   -0.6031    0.8095 C   0  0  0  0  0  0  0  0  0  0  0  0
   -1.6258   -0.3930    0.0847 C   0  0  0  0  0  0  0  0  0  0  0  0
   -1.7367    0.7821   -0.8930 C   0  0  0  0  0  0  0  0  0  0  0  0
   -1.3695   -1.5923   -0.6219 O   0  0  0  0  0  0  0  0  0  0  0  0
   -0.5087   -0.1301    1.1310 C   0  0  0  0  0  0  0  0  0  0  0  0
    0.8408    0.0435    0.5001 C   0  0  0  0  0  0  0  0  0  0  0  0
    1.6033   -1.0672    0.1524 C   0  0  0  0  0  0  0  0  0  0  0  0
    2.8296   -0.9163   -0.4711 C   0  0  0  0  0  0  0  0  0  0  0  0
    3.3155    0.3491   -0.7518 C   0  0  0  0  0  0  0  0  0  0  0  0
    2.5701    1.4619   -0.4006 C   0  0  0  0  0  0  0  0  0  0  0  0
    1.3424    1.3094    0.2184 C   0  0  0  0  0  0  0  0  0  0  0  0
   -2.8795   -1.4553    1.4792 H   0  0  0  0  0  0  0  0  0  0  0  0
   -3.2240    0.2804    1.3815 H   0  0  0  0  0  0  0  0  0  0  0  0
   -3.7359   -0.8100    0.0822 H   0  0  0  0  0  0  0  0  0  0  0  0
   -1.9891    1.6966   -0.3636 H   0  0  0  0  0  0  0  0  0  0  0  0
   -2.5148    0.5741   -1.6238 H   0  0  0  0  0  0  0  0  0  0  0  0
   -0.7968    0.9316   -1.4216 H   0  0  0  0  0  0  0  0  0  0  0  0
   -0.5357   -1.4944   -1.0969 H   0  0  0  0  0  0  0  0  0  0  0  0
   -0.7749    0.7612    1.7001 H   0  0  0  0  0  0  0  0  0  0  0  0
   -0.4877   -0.9845    1.8104 H   0  0  0  0  0  0  0  0  0  0  0  0
    1.2369   -2.0578    0.3833 H   0  0  0  0  0  0  0  0  0  0  0  0
    3.4086   -1.7894   -0.7349 H   0  0  0  0  0  0  0  0  0  0  0  0
    4.2731    0.4680   -1.2366 H   0  0  0  0  0  0  0  0  0  0  0  0
    2.9468    2.4527   -0.6094 H   0  0  0  0  0  0  0  0  0  0  0  0
    0.7677    2.1827    0.4925 H   0  0  0  0  0  0  0  0  0  0  0  0
  1  2  1  0  0  0  0
  2  3  1  0  0  0  0
  2  4  1  0  0  0  0
  2  5  1  0  0  0  0
  5  6  1  0  0  0  0
  6  7  4  0  0  0  0
  7  8  4  0  0  0  0
  8  9  4  0  0  0  0
  9 10  4  0  0  0  0
  6 11  4  0  0  0  0
 10 11  4  0  0  0  0
  1 12  1  0  0  0  0
  1 13  1  0  0  0  0
  1 14  1  0  0  0  0
  3 15  1  0  0  0  0
  3 16  1  0  0  0  0
  3 17  1  0  0  0  0
  4 18  1  0  0  0  0
  5 19  1  0  0  0  0
  5 20  1  0  0  0  0
  7 21  1  0  0  0  0
  8 22  1  0  0  0  0
  9 23  1  0  0  0  0
 10 24  1  0  0  0  0
 11 25  1  0  0  0  0
M  END
