 xtb: 6.7.1 (edcfbbe)
          07092616193D

 30 30  0     0  0            999 V2000
    4.6275   -0.1707    0.2008 C   0  0  0  0  0  0  0  0  0  0  0  0
    3.2176   -0.2668   -0.2742 C   0  0  0  0  0  0  0  0  0  0  0  0
    2.1664    0.1465    0.4110 C   0  0  0  0  0  0  0  0  0  0  0  0
    0.7523    0.0424   -0.0766 C   0  0  0  0  0  0  0  0  0  0  0  0
    0.2204    1.3384   -0.1541 O   0  0  0  0  0  0  0  0  0  0  0  0
   -1.1289    1.3307   -0.5900 C   0  0  0  0  0  0  0  0  0  0  0  0
   -1.6073    2.7747   -0.6484 C   0  0  0  0  0  0  0  0  0  0  0  0
   -1.9754    0.4856    0.3676 C   0  0  0  0  0  0  0  0  0  0  0  0
   -1.3472   -0.9041    0.5811 C   0  0  0  0  0  0  0  0  0  0  0  0
   -1.9165   -1.5490    1.8470 C   0  0  0  0  0  0  0  0  0  0  0  0
   -1.6092   -1.8280   -0.6171 C   0  0  0  0  0  0  0  0  0  0  0  0
    0.0537   -0.7649    0.8329 O   0  0  0  0  0  0  0  0  0  0  0  0
    5.0749   -1.1631    0.2462 H   0  0  0  0  0  0  0  0  0  0  0  0
    5.2170    0.4250   -0.4954 H   0  0  0  0  0  0  0  0  0  0  0  0
    4.6765    0.2848    1.1858 H   0  0  0  0  0  0  0  0  0  0  0  0
    3.0843   -0.7114   -1.2526 H   0  0  0  0  0  0  0  0  0  0  0  0
    2.2621    0.5932    1.3882 H   0  0  0  0  0  0  0  0  0  0  0  0
    0.7271   -0.4173   -1.0888 H   0  0  0  0  0  0  0  0  0  0  0  0
   -1.1679    0.8917   -1.6037 H   0  0  0  0  0  0  0  0  0  0  0  0
   -0.9755    3.3435   -1.3244 H   0  0  0  0  0  0  0  0  0  0  0  0
   -2.6355    2.8119   -0.9977 H   0  0  0  0  0  0  0  0  0  0  0  0
   -1.5453    3.2220    0.3397 H   0  0  0  0  0  0  0  0  0  0  0  0
   -2.9897    0.3821   -0.0176 H   0  0  0  0  0  0  0  0  0  0  0  0
   -2.0113    1.0018    1.3291 H   0  0  0  0  0  0  0  0  0  0  0  0
   -1.6493   -0.9526    2.7148 H   0  0  0  0  0  0  0  0  0  0  0  0
   -1.4958   -2.5425    1.9727 H   0  0  0  0  0  0  0  0  0  0  0  0
   -2.9985   -1.6205    1.7786 H   0  0  0  0  0  0  0  0  0  0  0  0
   -2.6671   -2.0722   -0.6646 H   0  0  0  0  0  0  0  0  0  0  0  0
   -1.3202   -1.3655   -1.5572 H   0  0  0  0  0  0  0  0  0  0  0  0
   -1.0390   -2.7459   -0.4946 H   0  0  0  0  0  0  0  0  0  0  0  0
  1  2  1  0  0  0  0
  2  3  2  0  0  0  0
  3  4  1  0  0  0  0
  4  5  1  0  0  0  0
  5  6  1  0  0  0  0
  6  7  1  0  0  0  0
  6  8  1  0  0  0  0
  8  9  1  0  0  0  0
  9 10  1  0  0  0  0
  9 11  1  0  0  0  0
  4 12  1  0  0  0  0
  9 12  1  0  0  0  0
  1 13  1  0  0  0  0
  1 14  1  0  0  0  0
  1 15  1  0  0  0  0
  2 16  1  0  0  0  0
  3 17  1  0  0  0  0
  4 18  1  0  0  0  0
  6 19  1  0  0  0  0
  7 20  1  0  0  0  0
  7 21  1  0  0  0  0
  7 22  1  0  0  0  0
  8 23  1  0  0  0  0
  8 24  1  0  0  0  0
 10 25  1  0  0  0  0
 10 26  1  0  0  0  0
 10 27  1  0  0  0  0
 11 28  1  0  0  0  0
 11 29  1  0  0  0  0
 11 30  1  0  0  0  0
M  END
