 xtb: 6.7.1 (edcfbbe)
          07062621403D

 42 41  0     0  0            999 V2000
    4.8462    1.6756    0.2390 C   0  0  0  0  0  0  0  0  0  0  0  0
    3.8256    0.9034   -0.5903 C   0  0  0  0  0  0  0  0  0  0  0  0
    4.4600    0.1912   -1.7754 C   0  0  0  0  0  0  0  0  0  0  0  0
    3.2044   -0.1057    0.2216 O   0  0  0  0  0  0  0  0  0  0  0  0
    2.1350    0.2431    0.9246 C   0  0  0  0  0  0  0  0  0  0  0  0
    1.6888    1.3611    0.9862 O   0  0  0  0  0  0  0  0  0  0  0  0
    1.5657   -0.9430    1.6802 C   0  0  0  0  0  0  0  0  0  0  0  0
    0.0470   -0.8030    1.7445 C   0  0  0  0  0  0  0  0  0  0  0  0
   -0.4915   -0.7165    0.3148 C   0  0  0  0  0  0  0  0  0  0  0  0
    0.2677   -0.8774   -0.6244 O   0  0  0  0  0  0  0  0  0  0  0  0
   -1.8077   -0.4525    0.1463 N   0  0  0  0  0  0  0  0  0  0  0  0
   -2.3179   -0.2529   -1.2162 C   0  0  0  0  0  0  0  0  0  0  0  0
   -1.6124    0.9107   -1.9121 C   0  0  0  0  0  0  0  0  0  0  0  0
   -2.2156   -1.5365   -2.0390 C   0  0  0  0  0  0  0  0  0  0  0  0
   -2.7469   -0.2659    1.2435 C   0  0  0  0  0  0  0  0  0  0  0  0
   -3.2001    1.1928    1.3444 C   0  0  0  0  0  0  0  0  0  0  0  0
   -3.9387   -1.2218    1.1383 C   0  0  0  0  0  0  0  0  0  0  0  0
    5.6024    0.9965    0.6268 H   0  0  0  0  0  0  0  0  0  0  0  0
    5.3270    2.4304   -0.3765 H   0  0  0  0  0  0  0  0  0  0  0  0
    4.3505    2.1667    1.0727 H   0  0  0  0  0  0  0  0  0  0  0  0
    3.0373    1.5875   -0.9301 H   0  0  0  0  0  0  0  0  0  0  0  0
    5.2347   -0.4879   -1.4286 H   0  0  0  0  0  0  0  0  0  0  0  0
    4.8985    0.9181   -2.4530 H   0  0  0  0  0  0  0  0  0  0  0  0
    3.7056   -0.3826   -2.3061 H   0  0  0  0  0  0  0  0  0  0  0  0
    1.8593   -1.8540    1.1618 H   0  0  0  0  0  0  0  0  0  0  0  0
    1.9882   -0.9490    2.6869 H   0  0  0  0  0  0  0  0  0  0  0  0
   -0.1928    0.1192    2.2758 H   0  0  0  0  0  0  0  0  0  0  0  0
   -0.3869   -1.6560    2.2692 H   0  0  0  0  0  0  0  0  0  0  0  0
   -3.3747    0.0052   -1.1159 H   0  0  0  0  0  0  0  0  0  0  0  0
   -0.5669    0.6713   -2.0748 H   0  0  0  0  0  0  0  0  0  0  0  0
   -1.6720    1.8091   -1.3029 H   0  0  0  0  0  0  0  0  0  0  0  0
   -2.0854    1.1038   -2.8717 H   0  0  0  0  0  0  0  0  0  0  0  0
   -1.1733   -1.8042   -2.1781 H   0  0  0  0  0  0  0  0  0  0  0  0
   -2.6753   -1.3857   -3.0125 H   0  0  0  0  0  0  0  0  0  0  0  0
   -2.7255   -2.3539   -1.5343 H   0  0  0  0  0  0  0  0  0  0  0  0
   -2.2265   -0.5149    2.1683 H   0  0  0  0  0  0  0  0  0  0  0  0
   -3.7915    1.4869    0.4815 H   0  0  0  0  0  0  0  0  0  0  0  0
   -2.3334    1.8458    1.4086 H   0  0  0  0  0  0  0  0  0  0  0  0
   -3.8058    1.3289    2.2367 H   0  0  0  0  0  0  0  0  0  0  0  0
   -4.5274   -1.1643    2.0504 H   0  0  0  0  0  0  0  0  0  0  0  0
   -4.5874   -0.9762    0.3024 H   0  0  0  0  0  0  0  0  0  0  0  0
   -3.5882   -2.2436    1.0173 H   0  0  0  0  0  0  0  0  0  0  0  0
  1  2  1  0  0  0  0
  2  3  1  0  0  0  0
  2  4  1  0  0  0  0
  4  5  1  0  0  0  0
  5  6  2  0  0  0  0
  5  7  1  0  0  0  0
  7  8  1  0  0  0  0
  8  9  1  0  0  0  0
  9 10  2  0  0  0  0
  9 11  4  0  0  0  0
 11 12  1  0  0  0  0
 12 13  1  0  0  0  0
 12 14  1  0  0  0  0
 11 15  1  0  0  0  0
 15 16  1  0  0  0  0
 15 17  1  0  0  0  0
  1 18  1  0  0  0  0
  1 19  1  0  0  0  0
  1 20  1  0  0  0  0
  2 21  1  0  0  0  0
  3 22  1  0  0  0  0
  3 23  1  0  0  0  0
  3 24  1  0  0  0  0
  7 25  1  0  0  0  0
  7 26  1  0  0  0  0
  8 27  1  0  0  0  0
  8 28  1  0  0  0  0
 12 29  1  0  0  0  0
 13 30  1  0  0  0  0
 13 31  1  0  0  0  0
 13 32  1  0  0  0  0
 14 33  1  0  0  0  0
 14 34  1  0  0  0  0
 14 35  1  0  0  0  0
 15 36  1  0  0  0  0
 16 37  1  0  0  0  0
 16 38  1  0  0  0  0
 16 39  1  0  0  0  0
 17 40  1  0  0  0  0
 17 41  1  0  0  0  0
 17 42  1  0  0  0  0
M  END
