 xtb: 6.7.1 (edcfbbe)
          07072605103D

 28 28  0     0  0            999 V2000
    4.0329   -0.2198    1.5073 C   0  0  0  0  0  0  0  0  0  0  0  0
    3.5795    0.0709    0.0897 C   0  0  0  0  0  0  0  0  0  0  0  0
    2.1503    0.0408    0.0592 O   0  0  0  0  0  0  0  0  0  0  0  0
    1.5824    0.2383   -1.1219 C   0  0  0  0  0  0  0  0  0  0  0  0
    2.1829    0.4420   -2.1469 O   0  0  0  0  0  0  0  0  0  0  0  0
    0.0847    0.1815   -1.0398 C   0  0  0  0  0  0  0  0  0  0  0  0
   -0.6558    0.4131   -2.1445 C   0  0  0  0  0  0  0  0  0  0  0  0
   -2.1039    0.2684   -2.1153 C   0  0  0  0  0  0  0  0  0  0  0  0
   -2.8431    0.5663   -3.0258 O   0  0  0  0  0  0  0  0  0  0  0  0
   -2.6019   -0.3776   -0.8294 C   0  0  0  0  0  0  0  0  0  0  0  0
   -1.8046    0.0905    0.3887 C   0  0  0  0  0  0  0  0  0  0  0  0
   -2.1401   -0.7485    1.6195 C   0  0  0  0  0  0  0  0  0  0  0  0
   -2.0576    1.5765    0.6595 C   0  0  0  0  0  0  0  0  0  0  0  0
   -0.3890   -0.0900    0.1749 O   0  0  0  0  0  0  0  0  0  0  0  0
    5.1176   -0.1969    1.5549 H   0  0  0  0  0  0  0  0  0  0  0  0
    3.6828   -1.2001    1.8187 H   0  0  0  0  0  0  0  0  0  0  0  0
    3.6303    0.5247    2.1887 H   0  0  0  0  0  0  0  0  0  0  0  0
    3.9173    1.0580   -0.2455 H   0  0  0  0  0  0  0  0  0  0  0  0
    3.9622   -0.6746   -0.6163 H   0  0  0  0  0  0  0  0  0  0  0  0
   -0.1666    0.6750   -3.0678 H   0  0  0  0  0  0  0  0  0  0  0  0
   -3.6613   -0.1608   -0.6937 H   0  0  0  0  0  0  0  0  0  0  0  0
   -2.4902   -1.4593   -0.9552 H   0  0  0  0  0  0  0  0  0  0  0  0
   -1.5399   -0.4185    2.4629 H   0  0  0  0  0  0  0  0  0  0  0  0
   -3.1921   -0.6453    1.8677 H   0  0  0  0  0  0  0  0  0  0  0  0
   -1.9205   -1.7961    1.4303 H   0  0  0  0  0  0  0  0  0  0  0  0
   -1.8113    2.1713   -0.2175 H   0  0  0  0  0  0  0  0  0  0  0  0
   -1.4418    1.9097    1.4914 H   0  0  0  0  0  0  0  0  0  0  0  0
   -3.1030    1.7381    0.9060 H   0  0  0  0  0  0  0  0  0  0  0  0
  1  2  1  0  0  0  0
  2  3  1  0  0  0  0
  3  4  1  0  0  0  0
  4  5  2  0  0  0  0
  4  6  1  0  0  0  0
  6  7  2  0  0  0  0
  7  8  1  0  0  0  0
  8  9  2  0  0  0  0
  8 10  1  0  0  0  0
 10 11  1  0  0  0  0
 11 12  1  0  0  0  0
 11 13  1  0  0  0  0
  6 14  1  0  0  0  0
 11 14  1  0  0  0  0
  1 15  1  0  0  0  0
  1 16  1  0  0  0  0
  1 17  1  0  0  0  0
  2 18  1  0  0  0  0
  2 19  1  0  0  0  0
  7 20  1  0  0  0  0
 10 21  1  0  0  0  0
 10 22  1  0  0  0  0
 12 23  1  0  0  0  0
 12 24  1  0  0  0  0
 12 25  1  0  0  0  0
 13 26  1  0  0  0  0
 13 27  1  0  0  0  0
 13 28  1  0  0  0  0
M  END
