 xtb: 6.7.1 (edcfbbe)
          07082618493D

 15 15  0     0  0            999 V2000
   -1.9543   -0.3621    0.6212 O   0  0  0  0  0  0  0  0  0  0  0  0
   -0.9289   -0.6047   -0.3021 C   0  0  0  0  0  0  0  0  0  0  0  0
    0.3081   -1.2092    0.3862 C   0  0  0  0  0  0  0  0  0  0  0  0
    0.9245   -0.2451    1.2207 O   0  0  0  0  0  0  0  0  0  0  0  0
    1.2815    0.8943    0.4996 C   0  0  0  0  0  0  0  0  0  0  0  0
    0.1835    1.5382   -0.0709 O   0  0  0  0  0  0  0  0  0  0  0  0
   -0.4836    0.6962   -0.9939 C   0  0  0  0  0  0  0  0  0  0  0  0
   -1.6103    0.2576    1.2795 H   0  0  0  0  0  0  0  0  0  0  0  0
   -1.3351   -1.3055   -1.0366 H   0  0  0  0  0  0  0  0  0  0  0  0
    1.0207   -1.5652   -0.3729 H   0  0  0  0  0  0  0  0  0  0  0  0
    0.0208   -2.0347    1.0387 H   0  0  0  0  0  0  0  0  0  0  0  0
    1.7284    1.5938    1.2089 H   0  0  0  0  0  0  0  0  0  0  0  0
    2.0137    0.6262   -0.2906 H   0  0  0  0  0  0  0  0  0  0  0  0
   -1.3480    1.2597   -1.3474 H   0  0  0  0  0  0  0  0  0  0  0  0
    0.1789    0.4606   -1.8403 H   0  0  0  0  0  0  0  0  0  0  0  0
  1  2  1  0  0  0  0
  2  3  1  0  0  0  0
  3  4  1  0  0  0  0
  4  5  1  0  0  0  0
  5  6  1  0  0  0  0
  2  7  1  0  0  0  0
  6  7  1  0  0  0  0
  1  8  1  0  0  0  0
  2  9  1  0  0  0  0
  3 10  1  0  0  0  0
  3 11  1  0  0  0  0
  5 12  1  0  0  0  0
  5 13  1  0  0  0  0
  7 14  1  0  0  0  0
  7 15  1  0  0  0  0
M  END
