 xtb: 6.7.1 (edcfbbe)
          07072615573D

 20 20  0     0  0            999 V2000
    3.3115   -1.0763   -0.5108 C   0  0  0  0  0  0  0  0  0  0  0  0
    1.9044   -1.1101   -0.3480 O   0  0  0  0  0  0  0  0  0  0  0  0
    1.3094    0.0814   -0.1529 C   0  0  0  0  0  0  0  0  0  0  0  0
    1.9571    1.1136   -0.1191 O   0  0  0  0  0  0  0  0  0  0  0  0
   -0.1419   -0.0197    0.0077 C   0  0  0  0  0  0  0  0  0  0  0  0
   -0.7686   -1.2699   -0.0257 C   0  0  0  0  0  0  0  0  0  0  0  0
   -2.1288   -1.3924    0.1358 C   0  0  0  0  0  0  0  0  0  0  0  0
   -2.9001   -0.2505    0.3380 C   0  0  0  0  0  0  0  0  0  0  0  0
   -2.3114    0.9898    0.3749 C   0  0  0  0  0  0  0  0  0  0  0  0
   -0.9248    1.1426    0.2095 C   0  0  0  0  0  0  0  0  0  0  0  0
   -0.3703    2.3728    0.2252 N   0  0  0  0  0  0  0  0  0  0  0  0
    3.7909   -0.6912    0.3923 H   0  0  0  0  0  0  0  0  0  0  0  0
    3.6199   -2.1017   -0.6984 H   0  0  0  0  0  0  0  0  0  0  0  0
    3.5832   -0.4334   -1.3511 H   0  0  0  0  0  0  0  0  0  0  0  0
   -0.1571   -2.1447   -0.1803 H   0  0  0  0  0  0  0  0  0  0  0  0
   -2.5963   -2.3643    0.1075 H   0  0  0  0  0  0  0  0  0  0  0  0
   -3.9690   -0.3397    0.4672 H   0  0  0  0  0  0  0  0  0  0  0  0
   -2.9112    1.8754    0.5314 H   0  0  0  0  0  0  0  0  0  0  0  0
    0.6343    2.4424    0.1545 H   0  0  0  0  0  0  0  0  0  0  0  0
   -0.9309    3.1759    0.4422 H   0  0  0  0  0  0  0  0  0  0  0  0
  1  2  1  0  0  0  0
  2  3  1  0  0  0  0
  3  4  2  0  0  0  0
  3  5  1  0  0  0  0
  5  6  4  0  0  0  0
  6  7  4  0  0  0  0
  7  8  4  0  0  0  0
  8  9  2  0  0  0  0
  5 10  4  0  0  0  0
  9 10  4  0  0  0  0
 10 11  4  0  0  0  0
  1 12  1  0  0  0  0
  1 13  1  0  0  0  0
  1 14  1  0  0  0  0
  6 15  1  0  0  0  0
  7 16  1  0  0  0  0
  8 17  1  0  0  0  0
  9 18  1  0  0  0  0
 11 19  1  0  0  0  0
 11 20  1  0  0  0  0
M  END
