 xtb: 6.7.1 (edcfbbe)
          07082619363D

 20 19  0     0  0            999 V2000
   -1.5931   -1.0914    0.7045 C   0  0  0  0  0  0  0  0  0  0  0  0
   -1.2038    0.1324   -0.1219 C   0  0  0  0  0  0  0  0  0  0  0  0
   -2.0937    1.3168    0.2503 C   0  0  0  0  0  0  0  0  0  0  0  0
    0.2665    0.5089    0.0827 C   0  0  0  0  0  0  0  0  0  0  0  0
    1.2397   -0.5425   -0.4419 C   0  0  0  0  0  0  0  0  0  0  0  0
    2.6645   -0.0554   -0.4140 C   0  0  0  0  0  0  0  0  0  0  0  0
    3.0343    1.0518   -0.1341 O   0  0  0  0  0  0  0  0  0  0  0  0
    3.5215   -1.0313   -0.7570 O   0  0  0  0  0  0  0  0  0  0  0  0
   -2.6534   -1.3032    0.5868 H   0  0  0  0  0  0  0  0  0  0  0  0
   -1.3959   -0.9130    1.7595 H   0  0  0  0  0  0  0  0  0  0  0  0
   -1.0385   -1.9723    0.3921 H   0  0  0  0  0  0  0  0  0  0  0  0
   -1.3601   -0.0983   -1.1821 H   0  0  0  0  0  0  0  0  0  0  0  0
   -1.9515    1.5820    1.2956 H   0  0  0  0  0  0  0  0  0  0  0  0
   -3.1422    1.0708    0.0984 H   0  0  0  0  0  0  0  0  0  0  0  0
   -1.8537    2.1851   -0.3587 H   0  0  0  0  0  0  0  0  0  0  0  0
    0.4717    1.4496   -0.4319 H   0  0  0  0  0  0  0  0  0  0  0  0
    0.4557    0.6741    1.1450 H   0  0  0  0  0  0  0  0  0  0  0  0
    1.1945   -1.4638    0.1403 H   0  0  0  0  0  0  0  0  0  0  0  0
    1.0046   -0.8006   -1.4779 H   0  0  0  0  0  0  0  0  0  0  0  0
    4.4331   -0.6997   -0.7424 H   0  0  0  0  0  0  0  0  0  0  0  0
  1  2  1  0  0  0  0
  2  3  1  0  0  0  0
  2  4  1  0  0  0  0
  4  5  1  0  0  0  0
  5  6  1  0  0  0  0
  6  7  2  0  0  0  0
  6  8  1  0  0  0  0
  1  9  1  0  0  0  0
  1 10  1  0  0  0  0
  1 11  1  0  0  0  0
  2 12  1  0  0  0  0
  3 13  1  0  0  0  0
  3 14  1  0  0  0  0
  3 15  1  0  0  0  0
  4 16  1  0  0  0  0
  4 17  1  0  0  0  0
  5 18  1  0  0  0  0
  5 19  1  0  0  0  0
  8 20  1  0  0  0  0
M  END
