 xtb: 6.7.1 (edcfbbe)
          07092605443D

 27 26  0     0  0            999 V2000
    4.5803    0.2357    0.0580 C   0  0  0  0  0  0  0  0  0  0  0  0
    3.2482    0.1165   -0.6113 C   0  0  0  0  0  0  0  0  0  0  0  0
    3.0802    0.0152   -1.8013 O   0  0  0  0  0  0  0  0  0  0  0  0
    2.0517    0.1326    0.3645 C   0  0  0  0  0  0  0  0  0  0  0  0
    2.2272    0.2343    1.5538 O   0  0  0  0  0  0  0  0  0  0  0  0
    0.7180    0.0130   -0.3085 C   0  0  0  0  0  0  0  0  0  0  0  0
   -0.4369    0.0327    0.6863 C   0  0  0  0  0  0  0  0  0  0  0  0
   -1.8407   -0.0861    0.0690 C   0  0  0  0  0  0  0  0  0  0  0  0
   -1.9951   -1.4085   -0.6857 C   0  0  0  0  0  0  0  0  0  0  0  0
   -2.1202    1.0815   -0.8802 C   0  0  0  0  0  0  0  0  0  0  0  0
   -2.8573   -0.0477    1.2150 C   0  0  0  0  0  0  0  0  0  0  0  0
    5.3832    0.2189   -0.6732 H   0  0  0  0  0  0  0  0  0  0  0  0
    4.6082    1.1606    0.6314 H   0  0  0  0  0  0  0  0  0  0  0  0
    4.6957   -0.5819    0.7674 H   0  0  0  0  0  0  0  0  0  0  0  0
    0.6456    0.8324   -1.0278 H   0  0  0  0  0  0  0  0  0  0  0  0
    0.7332   -0.9110   -0.8916 H   0  0  0  0  0  0  0  0  0  0  0  0
   -0.3799    0.9619    1.2579 H   0  0  0  0  0  0  0  0  0  0  0  0
   -0.2921   -0.7864    1.3944 H   0  0  0  0  0  0  0  0  0  0  0  0
   -1.7375   -2.2486   -0.0444 H   0  0  0  0  0  0  0  0  0  0  0  0
   -1.3603   -1.4368   -1.5678 H   0  0  0  0  0  0  0  0  0  0  0  0
   -3.0250   -1.5335   -1.0126 H   0  0  0  0  0  0  0  0  0  0  0  0
   -1.9526    2.0322   -0.3787 H   0  0  0  0  0  0  0  0  0  0  0  0
   -1.4845    1.0360   -1.7609 H   0  0  0  0  0  0  0  0  0  0  0  0
   -3.1549    1.0512   -1.2145 H   0  0  0  0  0  0  0  0  0  0  0  0
   -2.7760    0.8850    1.7686 H   0  0  0  0  0  0  0  0  0  0  0  0
   -3.8711   -0.1287    0.8296 H   0  0  0  0  0  0  0  0  0  0  0  0
   -2.6878   -0.8706    1.9057 H   0  0  0  0  0  0  0  0  0  0  0  0
  1  2  1  0  0  0  0
  2  3  2  0  0  0  0
  2  4  1  0  0  0  0
  4  5  2  0  0  0  0
  4  6  1  0  0  0  0
  6  7  1  0  0  0  0
  7  8  1  0  0  0  0
  8  9  1  0  0  0  0
  8 10  1  0  0  0  0
  8 11  1  0  0  0  0
  1 12  1  0  0  0  0
  1 13  1  0  0  0  0
  1 14  1  0  0  0  0
  6 15  1  0  0  0  0
  6 16  1  0  0  0  0
  7 17  1  0  0  0  0
  7 18  1  0  0  0  0
  9 19  1  0  0  0  0
  9 20  1  0  0  0  0
  9 21  1  0  0  0  0
 10 22  1  0  0  0  0
 10 23  1  0  0  0  0
 10 24  1  0  0  0  0
 11 25  1  0  0  0  0
 11 26  1  0  0  0  0
 11 27  1  0  0  0  0
M  END
