 xtb: 6.7.1 (edcfbbe)
          07092601103D

 22 21  0     0  0            999 V2000
    3.7258   -0.8927   -0.7709 C   0  0  0  0  0  0  0  0  0  0  0  0
    3.0061   -0.0344    0.0789 O   0  0  0  0  0  0  0  0  0  0  0  0
    1.6148   -0.2088   -0.0166 C   0  0  0  0  0  0  0  0  0  0  0  0
    0.9539    0.8245    0.8955 C   0  0  0  0  0  0  0  0  0  0  0  0
   -0.4406    0.5728    1.0504 O   0  0  0  0  0  0  0  0  0  0  0  0
   -1.2377    0.9396    0.0532 C   0  0  0  0  0  0  0  0  0  0  0  0
   -0.8788    1.4772   -0.9645 O   0  0  0  0  0  0  0  0  0  0  0  0
   -2.6949    0.5781    0.3075 C   0  0  0  0  0  0  0  0  0  0  0  0
   -2.8400   -0.9475    0.1926 C   0  0  0  0  0  0  0  0  0  0  0  0
   -3.5092    1.2510   -0.6108 O   0  0  0  0  0  0  0  0  0  0  0  0
    4.7785   -0.6680   -0.6153 H   0  0  0  0  0  0  0  0  0  0  0  0
    3.4656   -0.7215   -1.8222 H   0  0  0  0  0  0  0  0  0  0  0  0
    3.5355   -1.9451   -0.5273 H   0  0  0  0  0  0  0  0  0  0  0  0
    1.3275   -1.2228    0.3073 H   0  0  0  0  0  0  0  0  0  0  0  0
    1.2751   -0.0662   -1.0534 H   0  0  0  0  0  0  0  0  0  0  0  0
    1.3836    0.7603    1.8957 H   0  0  0  0  0  0  0  0  0  0  0  0
    1.1080    1.8267    0.4857 H   0  0  0  0  0  0  0  0  0  0  0  0
   -2.9797    0.8978    1.3167 H   0  0  0  0  0  0  0  0  0  0  0  0
   -2.2398   -1.4360    0.9544 H   0  0  0  0  0  0  0  0  0  0  0  0
   -3.8846   -1.2144    0.3254 H   0  0  0  0  0  0  0  0  0  0  0  0
   -2.5187   -1.2797   -0.7924 H   0  0  0  0  0  0  0  0  0  0  0  0
   -2.9503    1.5090   -1.3612 H   0  0  0  0  0  0  0  0  0  0  0  0
  1  2  1  0  0  0  0
  2  3  1  0  0  0  0
  3  4  1  0  0  0  0
  4  5  1  0  0  0  0
  5  6  1  0  0  0  0
  6  7  2  0  0  0  0
  6  8  1  0  0  0  0
  8  9  1  0  0  0  0
  8 10  1  0  0  0  0
  1 11  1  0  0  0  0
  1 12  1  0  0  0  0
  1 13  1  0  0  0  0
  3 14  1  0  0  0  0
  3 15  1  0  0  0  0
  4 16  1  0  0  0  0
  4 17  1  0  0  0  0
  8 18  1  0  0  0  0
  9 19  1  0  0  0  0
  9 20  1  0  0  0  0
  9 21  1  0  0  0  0
 10 22  1  0  0  0  0
M  END
