 xtb: 6.7.1 (edcfbbe)
          07092604513D

 29 30  0     0  0            999 V2000
    2.2510   -0.6287    0.8147 C   0  0  0  0  0  0  0  0  0  0  0  0
    1.2271   -0.0422   -0.1692 C   0  0  0  0  0  0  0  0  0  0  0  0
    1.9717    0.3484   -1.4550 C   0  0  0  0  0  0  0  0  0  0  0  0
    0.2842   -1.0654   -0.4936 O   0  0  0  0  0  0  0  0  0  0  0  0
   -1.0585   -0.7281   -0.1832 C   0  0  0  0  0  0  0  0  0  0  0  0
   -1.9045   -1.9289   -0.5960 C   0  0  0  0  0  0  0  0  0  0  0  0
   -1.4653    0.5319   -0.9644 C   0  0  0  0  0  0  0  0  0  0  0  0
   -0.5545    1.6975   -0.5485 C   0  0  0  0  0  0  0  0  0  0  0  0
    0.4853    1.1641    0.4414 C   0  0  0  0  0  0  0  0  0  0  0  0
   -0.2782    0.7310    1.6964 C   0  0  0  0  0  0  0  0  0  0  0  0
   -1.1836   -0.4534    1.3242 C   0  0  0  0  0  0  0  0  0  0  0  0
    2.9481    0.1393    1.1398 H   0  0  0  0  0  0  0  0  0  0  0  0
    2.8038   -1.4245    0.3227 H   0  0  0  0  0  0  0  0  0  0  0  0
    1.7568   -1.0558    1.6815 H   0  0  0  0  0  0  0  0  0  0  0  0
    2.6524    1.1740   -1.2637 H   0  0  0  0  0  0  0  0  0  0  0  0
    1.2745    0.6312   -2.2373 H   0  0  0  0  0  0  0  0  0  0  0  0
    2.5412   -0.5057   -1.8115 H   0  0  0  0  0  0  0  0  0  0  0  0
   -1.5804   -2.8108   -0.0503 H   0  0  0  0  0  0  0  0  0  0  0  0
   -1.7783   -2.1185   -1.6584 H   0  0  0  0  0  0  0  0  0  0  0  0
   -2.9542   -1.7427   -0.3867 H   0  0  0  0  0  0  0  0  0  0  0  0
   -1.3633    0.3210   -2.0302 H   0  0  0  0  0  0  0  0  0  0  0  0
   -2.5131    0.7580   -0.7659 H   0  0  0  0  0  0  0  0  0  0  0  0
   -0.0688    2.1455   -1.4148 H   0  0  0  0  0  0  0  0  0  0  0  0
   -1.1331    2.4845   -0.0612 H   0  0  0  0  0  0  0  0  0  0  0  0
    1.2102    1.9444    0.6881 H   0  0  0  0  0  0  0  0  0  0  0  0
   -0.8727    1.5735    2.0550 H   0  0  0  0  0  0  0  0  0  0  0  0
    0.4124    0.4622    2.4951 H   0  0  0  0  0  0  0  0  0  0  0  0
   -2.2257   -0.2471    1.5690 H   0  0  0  0  0  0  0  0  0  0  0  0
   -0.8843   -1.3545    1.8618 H   0  0  0  0  0  0  0  0  0  0  0  0
  1  2  1  0  0  0  0
  2  3  1  0  0  0  0
  2  4  1  0  0  0  0
  4  5  1  0  0  0  0
  5  6  1  0  0  0  0
  5  7  1  0  0  0  0
  7  8  1  0  0  0  0
  2  9  1  0  0  0  0
  8  9  1  0  0  0  0
  9 10  1  0  0  0  0
  5 11  1  0  0  0  0
 10 11  1  0  0  0  0
  1 12  1  0  0  0  0
  1 13  1  0  0  0  0
  1 14  1  0  0  0  0
  3 15  1  0  0  0  0
  3 16  1  0  0  0  0
  3 17  1  0  0  0  0
  6 18  1  0  0  0  0
  6 19  1  0  0  0  0
  6 20  1  0  0  0  0
  7 21  1  0  0  0  0
  7 22  1  0  0  0  0
  8 23  1  0  0  0  0
  8 24  1  0  0  0  0
  9 25  1  0  0  0  0
 10 26  1  0  0  0  0
 10 27  1  0  0  0  0
 11 28  1  0  0  0  0
 11 29  1  0  0  0  0
M  END
