 xtb: 6.7.1 (edcfbbe)
          07092605113D

 20 21  0     0  0            999 V2000
   -3.1553   -0.2063   -0.0511 C   0  0  0  0  0  0  0  0  0  0  0  0
   -2.3799   -1.3485   -0.1446 C   0  0  0  0  0  0  0  0  0  0  0  0
   -1.0015   -1.2625   -0.1874 C   0  0  0  0  0  0  0  0  0  0  0  0
   -0.3605   -0.0236   -0.1374 C   0  0  0  0  0  0  0  0  0  0  0  0
    1.0342    0.0676   -0.1805 N   0  0  0  0  0  0  0  0  0  0  0  0
    1.7724    1.2217   -0.1388 C   0  0  0  0  0  0  0  0  0  0  0  0
    3.0970    0.9086   -0.2030 C   0  0  0  0  0  0  0  0  0  0  0  0
    3.1864   -0.4977   -0.2881 C   0  0  0  0  0  0  0  0  0  0  0  0
    1.9123   -0.9807   -0.2720 C   0  0  0  0  0  0  0  0  0  0  0  0
   -1.1529    1.1216   -0.0432 C   0  0  0  0  0  0  0  0  0  0  0  0
   -2.5308    1.0274   -0.0009 C   0  0  0  0  0  0  0  0  0  0  0  0
   -4.2317   -0.2767   -0.0179 H   0  0  0  0  0  0  0  0  0  0  0  0
   -2.8498   -2.3201   -0.1849 H   0  0  0  0  0  0  0  0  0  0  0  0
   -0.4299   -2.1730   -0.2603 H   0  0  0  0  0  0  0  0  0  0  0  0
    1.3228    2.1901   -0.0668 H   0  0  0  0  0  0  0  0  0  0  0  0
    3.9144    1.6023   -0.1909 H   0  0  0  0  0  0  0  0  0  0  0  0
    4.0847   -1.0792   -0.3531 H   0  0  0  0  0  0  0  0  0  0  0  0
    1.5890   -1.9997   -0.3202 H   0  0  0  0  0  0  0  0  0  0  0  0
   -0.7013    2.0990   -0.0019 H   0  0  0  0  0  0  0  0  0  0  0  0
   -3.1198    1.9297    0.0721 H   0  0  0  0  0  0  0  0  0  0  0  0
  1  2  4  0  0  0  0
  2  3  4  0  0  0  0
  3  4  4  0  0  0  0
  4  5  1  0  0  0  0
  5  6  1  0  0  0  0
  6  7  2  0  0  0  0
  7  8  4  0  0  0  0
  5  9  1  0  0  0  0
  8  9  2  0  0  0  0
  4 10  4  0  0  0  0
  1 11  4  0  0  0  0
 10 11  4  0  0  0  0
  1 12  1  0  0  0  0
  2 13  1  0  0  0  0
  3 14  1  0  0  0  0
  6 15  1  0  0  0  0
  7 16  1  0  0  0  0
  8 17  1  0  0  0  0
  9 18  1  0  0  0  0
 10 19  1  0  0  0  0
 11 20  1  0  0  0  0
M  END
