 xtb: 6.7.1 (edcfbbe)
          07082601573D

 34 34  0     0  0            999 V2000
   -4.2446   -1.7439   -0.2864 C   0  0  0  0  0  0  0  0  0  0  0  0
   -3.0127   -1.4504   -1.1337 C   0  0  0  0  0  0  0  0  0  0  0  0
   -1.9852   -0.6247   -0.3649 C   0  0  0  0  0  0  0  0  0  0  0  0
   -0.7585   -0.3226   -1.2266 C   0  0  0  0  0  0  0  0  0  0  0  0
    0.2651    0.4246   -0.5049 N   0  0  0  0  0  0  0  0  0  0  0  0
    0.0201    1.7461   -0.2659 C   0  0  0  0  0  0  0  0  0  0  0  0
   -0.9620    2.2914   -0.7280 O   0  0  0  0  0  0  0  0  0  0  0  0
    0.9932    2.4752    0.6468 C   0  0  0  0  0  0  0  0  0  0  0  0
    0.2354    3.4590    1.5342 C   0  0  0  0  0  0  0  0  0  0  0  0
    1.4591   -0.2492   -0.1796 C   0  0  0  0  0  0  0  0  0  0  0  0
    1.4168   -1.4619    0.5027 C   0  0  0  0  0  0  0  0  0  0  0  0
    2.5863   -2.1420    0.7893 C   0  0  0  0  0  0  0  0  0  0  0  0
    3.8099   -1.6249    0.3995 C   0  0  0  0  0  0  0  0  0  0  0  0
    3.8572   -0.4257   -0.2916 C   0  0  0  0  0  0  0  0  0  0  0  0
    2.6916    0.2558   -0.5874 C   0  0  0  0  0  0  0  0  0  0  0  0
   -4.7223   -0.8169    0.0216 H   0  0  0  0  0  0  0  0  0  0  0  0
   -3.9710   -2.3012    0.6072 H   0  0  0  0  0  0  0  0  0  0  0  0
   -4.9653   -2.3318   -0.8498 H   0  0  0  0  0  0  0  0  0  0  0  0
   -2.5573   -2.3916   -1.4526 H   0  0  0  0  0  0  0  0  0  0  0  0
   -3.3110   -0.9051   -2.0312 H   0  0  0  0  0  0  0  0  0  0  0  0
   -1.6839   -1.1644    0.5359 H   0  0  0  0  0  0  0  0  0  0  0  0
   -2.4316    0.3214   -0.0562 H   0  0  0  0  0  0  0  0  0  0  0  0
   -1.0717    0.2848   -2.0818 H   0  0  0  0  0  0  0  0  0  0  0  0
   -0.3080   -1.2472   -1.5937 H   0  0  0  0  0  0  0  0  0  0  0  0
    1.5559    1.7656    1.2539 H   0  0  0  0  0  0  0  0  0  0  0  0
    1.6965    3.0311    0.0221 H   0  0  0  0  0  0  0  0  0  0  0  0
   -0.4175    2.9251    2.2209 H   0  0  0  0  0  0  0  0  0  0  0  0
   -0.3782    4.1109    0.9183 H   0  0  0  0  0  0  0  0  0  0  0  0
    0.9304    4.0637    2.1116 H   0  0  0  0  0  0  0  0  0  0  0  0
    0.4670   -1.8686    0.8132 H   0  0  0  0  0  0  0  0  0  0  0  0
    2.5403   -3.0795    1.3235 H   0  0  0  0  0  0  0  0  0  0  0  0
    4.7213   -2.1568    0.6267 H   0  0  0  0  0  0  0  0  0  0  0  0
    4.8065   -0.0233   -0.6129 H   0  0  0  0  0  0  0  0  0  0  0  0
    2.7283    1.1772   -1.1481 H   0  0  0  0  0  0  0  0  0  0  0  0
  1  2  1  0  0  0  0
  2  3  1  0  0  0  0
  3  4  1  0  0  0  0
  4  5  1  0  0  0  0
  5  6  4  0  0  0  0
  6  7  2  0  0  0  0
  6  8  1  0  0  0  0
  8  9  1  0  0  0  0
  5 10  1  0  0  0  0
 10 11  4  0  0  0  0
 11 12  4  0  0  0  0
 12 13  4  0  0  0  0
 13 14  4  0  0  0  0
 10 15  4  0  0  0  0
 14 15  4  0  0  0  0
  1 16  1  0  0  0  0
  1 17  1  0  0  0  0
  1 18  1  0  0  0  0
  2 19  1  0  0  0  0
  2 20  1  0  0  0  0
  3 21  1  0  0  0  0
  3 22  1  0  0  0  0
  4 23  1  0  0  0  0
  4 24  1  0  0  0  0
  8 25  1  0  0  0  0
  8 26  1  0  0  0  0
  9 27  1  0  0  0  0
  9 28  1  0  0  0  0
  9 29  1  0  0  0  0
 11 30  1  0  0  0  0
 12 31  1  0  0  0  0
 13 32  1  0  0  0  0
 14 33  1  0  0  0  0
 15 34  1  0  0  0  0
M  END
