 xtb: 6.7.1 (edcfbbe)
          07092613273D

 23 23  0     0  0            999 V2000
    2.3947    2.1612    0.6270 C   0  0  0  0  0  0  0  0  0  0  0  0
    2.4674    0.6885    0.2510 C   0  0  0  0  0  0  0  0  0  0  0  0
    1.2460    0.0134    0.5549 O   0  0  0  0  0  0  0  0  0  0  0  0
    0.2656    0.0920   -0.3548 C   0  0  0  0  0  0  0  0  0  0  0  0
    0.3887    0.6603   -1.4113 O   0  0  0  0  0  0  0  0  0  0  0  0
   -0.9802   -0.5700    0.1287 C   0  0  0  0  0  0  0  0  0  0  0  0
   -2.0991   -0.8454   -0.8411 C   0  0  0  0  0  0  0  0  0  0  0  0
   -1.7015   -1.0989   -2.2639 C   0  0  0  0  0  0  0  0  0  0  0  0
   -3.2428   -0.9079   -0.4587 O   0  0  0  0  0  0  0  0  0  0  0  0
   -0.8753   -1.5830    1.2625 C   0  0  0  0  0  0  0  0  0  0  0  0
   -1.4072   -0.2341    1.5514 C   0  0  0  0  0  0  0  0  0  0  0  0
    3.3528    2.6340    0.4323 H   0  0  0  0  0  0  0  0  0  0  0  0
    2.1524    2.2706    1.6815 H   0  0  0  0  0  0  0  0  0  0  0  0
    1.6304    2.6580    0.0341 H   0  0  0  0  0  0  0  0  0  0  0  0
    2.6757    0.5804   -0.8183 H   0  0  0  0  0  0  0  0  0  0  0  0
    3.2300    0.1689    0.8348 H   0  0  0  0  0  0  0  0  0  0  0  0
   -2.5678   -1.4200   -2.8361 H   0  0  0  0  0  0  0  0  0  0  0  0
   -1.2950   -0.1833   -2.6884 H   0  0  0  0  0  0  0  0  0  0  0  0
   -0.9201   -1.8546   -2.3055 H   0  0  0  0  0  0  0  0  0  0  0  0
   -1.5697   -2.4091    1.2240 H   0  0  0  0  0  0  0  0  0  0  0  0
    0.1173   -1.8377    1.5993 H   0  0  0  0  0  0  0  0  0  0  0  0
   -0.7910    0.4622    2.0980 H   0  0  0  0  0  0  0  0  0  0  0  0
   -2.4712   -0.1233    1.6987 H   0  0  0  0  0  0  0  0  0  0  0  0
  1  2  1  0  0  0  0
  2  3  1  0  0  0  0
  3  4  1  0  0  0  0
  4  5  2  0  0  0  0
  4  6  1  0  0  0  0
  6  7  1  0  0  0  0
  7  8  1  0  0  0  0
  7  9  2  0  0  0  0
  6 10  1  0  0  0  0
  6 11  1  0  0  0  0
 10 11  1  0  0  0  0
  1 12  1  0  0  0  0
  1 13  1  0  0  0  0
  1 14  1  0  0  0  0
  2 15  1  0  0  0  0
  2 16  1  0  0  0  0
  8 17  1  0  0  0  0
  8 18  1  0  0  0  0
  8 19  1  0  0  0  0
 10 20  1  0  0  0  0
 10 21  1  0  0  0  0
 11 22  1  0  0  0  0
 11 23  1  0  0  0  0
M  END
