 xtb: 6.7.1 (edcfbbe)
          07072620443D

 32 32  0     0  0            999 V2000
    3.6549    0.6657   -0.6339 C   0  0  0  0  0  0  0  0  0  0  0  0
    2.2186    0.6014   -0.1227 C   0  0  0  0  0  0  0  0  0  0  0  0
    1.2541    1.2744   -1.0965 C   0  0  0  0  0  0  0  0  0  0  0  0
   -0.1869    1.1852   -0.6006 C   0  0  0  0  0  0  0  0  0  0  0  0
   -0.6189   -0.2711   -0.4101 C   0  0  0  0  0  0  0  0  0  0  0  0
   -2.1187   -0.4432   -0.0330 C   0  0  0  0  0  0  0  0  0  0  0  0
   -3.0216    0.3854   -0.9533 C   0  0  0  0  0  0  0  0  0  0  0  0
   -2.4020   -0.0661    1.4281 C   0  0  0  0  0  0  0  0  0  0  0  0
   -2.4984   -1.7879   -0.2608 O   0  0  0  0  0  0  0  0  0  0  0  0
    0.3394   -0.9201    0.6030 C   0  0  0  0  0  0  0  0  0  0  0  0
   -0.0400   -2.2705    0.8282 O   0  0  0  0  0  0  0  0  0  0  0  0
    1.7794   -0.8453    0.0900 C   0  0  0  0  0  0  0  0  0  0  0  0
    4.3364    0.1970    0.0726 H   0  0  0  0  0  0  0  0  0  0  0  0
    3.7419    0.1504   -1.5881 H   0  0  0  0  0  0  0  0  0  0  0  0
    3.9630    1.6992   -0.7735 H   0  0  0  0  0  0  0  0  0  0  0  0
    2.1653    1.1250    0.8392 H   0  0  0  0  0  0  0  0  0  0  0  0
    1.3320    0.7877   -2.0713 H   0  0  0  0  0  0  0  0  0  0  0  0
    1.5316    2.3228   -1.2243 H   0  0  0  0  0  0  0  0  0  0  0  0
   -0.2757    1.7204    0.3474 H   0  0  0  0  0  0  0  0  0  0  0  0
   -0.8365    1.6727   -1.3255 H   0  0  0  0  0  0  0  0  0  0  0  0
   -0.4955   -0.8001   -1.3626 H   0  0  0  0  0  0  0  0  0  0  0  0
   -4.0382    0.0176   -0.8425 H   0  0  0  0  0  0  0  0  0  0  0  0
   -2.7276    0.2545   -1.9912 H   0  0  0  0  0  0  0  0  0  0  0  0
   -2.9970    1.4387   -0.6925 H   0  0  0  0  0  0  0  0  0  0  0  0
   -3.4747   -0.1012    1.6011 H   0  0  0  0  0  0  0  0  0  0  0  0
   -1.9303   -0.7765    2.1020 H   0  0  0  0  0  0  0  0  0  0  0  0
   -2.0440    0.9353    1.6503 H   0  0  0  0  0  0  0  0  0  0  0  0
   -1.8403   -2.3504    0.1695 H   0  0  0  0  0  0  0  0  0  0  0  0
    0.2814   -0.3681    1.5555 H   0  0  0  0  0  0  0  0  0  0  0  0
    0.6566   -2.7066    1.3302 H   0  0  0  0  0  0  0  0  0  0  0  0
    1.8481   -1.3948   -0.8519 H   0  0  0  0  0  0  0  0  0  0  0  0
    2.4437   -1.3317    0.8120 H   0  0  0  0  0  0  0  0  0  0  0  0
  1  2  1  0  0  0  0
  2  3  1  0  0  0  0
  3  4  1  0  0  0  0
  4  5  1  0  0  0  0
  5  6  1  0  0  0  0
  6  7  1  0  0  0  0
  6  8  1  0  0  0  0
  6  9  1  0  0  0  0
  5 10  1  0  0  0  0
 10 11  1  0  0  0  0
  2 12  1  0  0  0  0
 10 12  1  0  0  0  0
  1 13  1  0  0  0  0
  1 14  1  0  0  0  0
  1 15  1  0  0  0  0
  2 16  1  0  0  0  0
  3 17  1  0  0  0  0
  3 18  1  0  0  0  0
  4 19  1  0  0  0  0
  4 20  1  0  0  0  0
  5 21  1  0  0  0  0
  7 22  1  0  0  0  0
  7 23  1  0  0  0  0
  7 24  1  0  0  0  0
  8 25  1  0  0  0  0
  8 26  1  0  0  0  0
  8 27  1  0  0  0  0
  9 28  1  0  0  0  0
 10 29  1  0  0  0  0
 11 30  1  0  0  0  0
 12 31  1  0  0  0  0
 12 32  1  0  0  0  0
M  END
