 xtb: 6.7.1 (edcfbbe)
          07072600243D

 80 81  0     0  0            999 V2000
    0.5747    4.9399    1.6896 C   0  0  0  0  0  0  0  0  0  0  0  0
    0.5987    3.7355    2.2479 C   0  0  0  0  0  0  0  0  0  0  0  0
   -0.2953    3.3387    3.3933 C   0  0  0  0  0  0  0  0  0  0  0  0
   -1.5780    2.6416    2.9208 C   0  0  0  0  0  0  0  0  0  0  0  0
   -2.4485    2.1974    4.1068 C   0  0  0  0  0  0  0  0  0  0  0  0
   -3.2575    1.0158    3.5758 C   0  0  0  0  0  0  0  0  0  0  0  0
   -2.3101    0.3541    2.6284 C   0  0  0  0  0  0  0  0  0  0  0  0
   -2.3994   -0.8803    2.3857 N   0  0  0  0  0  0  0  0  0  0  0  0
   -1.4225   -1.3812    1.4882 O   0  0  0  0  0  0  0  0  0  0  0  0
   -1.6263   -2.6436    1.0638 C   0  0  0  0  0  0  0  0  0  0  0  0
   -2.5359   -3.3485    1.3887 O   0  0  0  0  0  0  0  0  0  0  0  0
   -0.5324   -2.9827    0.0670 C   0  0  0  0  0  0  0  0  0  0  0  0
   -0.3665   -4.5008   -0.1002 C   0  0  0  0  0  0  0  0  0  0  0  0
   -0.4215   -4.7544   -1.6059 C   0  0  0  0  0  0  0  0  0  0  0  0
   -1.3855   -3.6823   -2.1000 C   0  0  0  0  0  0  0  0  0  0  0  0
   -0.9412   -2.4452   -1.3254 C   0  0  0  0  0  0  0  0  0  0  0  0
   -1.3073    1.3539    2.1195 C   0  0  0  0  0  0  0  0  0  0  0  0
   -1.3883    1.5350    0.5943 C   0  0  0  0  0  0  0  0  0  0  0  0
   -2.8143    1.6857    0.0685 C   0  0  0  0  0  0  0  0  0  0  0  0
   -2.8329    1.9138   -1.4410 C   0  0  0  0  0  0  0  0  0  0  0  0
   -4.2543    2.0393   -1.9838 C   0  0  0  0  0  0  0  0  0  0  0  0
   -4.2697    2.2620   -3.4910 C   0  0  0  0  0  0  0  0  0  0  0  0
    1.3922    2.6916    1.8864 O   0  0  0  0  0  0  0  0  0  0  0  0
    2.2022    2.8022    0.7335 C   0  0  0  0  0  0  0  0  0  0  0  0
    2.6050    1.4155    0.3355 C   0  0  0  0  0  0  0  0  0  0  0  0
    3.7208    1.0747   -0.2963 C   0  0  0  0  0  0  0  0  0  0  0  0
    4.7622    2.0850   -0.6924 C   0  0  0  0  0  0  0  0  0  0  0  0
    4.0435   -0.3390   -0.7013 C   0  0  0  0  0  0  0  0  0  0  0  0
    2.9296   -1.3654   -0.4702 C   0  0  0  0  0  0  0  0  0  0  0  0
    3.3416   -2.7225   -0.9602 C   0  0  0  0  0  0  0  0  0  0  0  0
    3.2196   -3.1945   -2.1952 C   0  0  0  0  0  0  0  0  0  0  0  0
    2.6260   -2.4373   -3.3460 C   0  0  0  0  0  0  0  0  0  0  0  0
    3.6992   -4.5708   -2.5552 C   0  0  0  0  0  0  0  0  0  0  0  0
    1.2122    5.2335    0.8759 H   0  0  0  0  0  0  0  0  0  0  0  0
   -0.1037    5.6874    2.0557 H   0  0  0  0  0  0  0  0  0  0  0  0
   -0.5629    4.2245    3.9700 H   0  0  0  0  0  0  0  0  0  0  0  0
    0.2636    2.6560    4.0367 H   0  0  0  0  0  0  0  0  0  0  0  0
   -2.1413    3.3426    2.2982 H   0  0  0  0  0  0  0  0  0  0  0  0
   -1.8085    1.8616    4.9249 H   0  0  0  0  0  0  0  0  0  0  0  0
   -3.0812    3.0020    4.4785 H   0  0  0  0  0  0  0  0  0  0  0  0
   -3.6098    0.3348    4.3473 H   0  0  0  0  0  0  0  0  0  0  0  0
   -4.1234    1.3667    3.0090 H   0  0  0  0  0  0  0  0  0  0  0  0
    0.3862   -2.5007    0.4029 H   0  0  0  0  0  0  0  0  0  0  0  0
   -1.2040   -4.9981    0.3921 H   0  0  0  0  0  0  0  0  0  0  0  0
    0.5604   -4.8581    0.3446 H   0  0  0  0  0  0  0  0  0  0  0  0
   -0.7524   -5.7637   -1.8444 H   0  0  0  0  0  0  0  0  0  0  0  0
    0.5648   -4.5961   -2.0444 H   0  0  0  0  0  0  0  0  0  0  0  0
   -1.3434   -3.5327   -3.1785 H   0  0  0  0  0  0  0  0  0  0  0  0
   -2.4059   -3.9487   -1.8226 H   0  0  0  0  0  0  0  0  0  0  0  0
   -1.7253   -1.6908   -1.2601 H   0  0  0  0  0  0  0  0  0  0  0  0
   -0.0735   -1.9967   -1.8101 H   0  0  0  0  0  0  0  0  0  0  0  0
   -0.3046    0.9808    2.3544 H   0  0  0  0  0  0  0  0  0  0  0  0
   -0.8087    2.4184    0.3209 H   0  0  0  0  0  0  0  0  0  0  0  0
   -0.9275    0.6703    0.1126 H   0  0  0  0  0  0  0  0  0  0  0  0
   -3.3091    2.5265    0.5605 H   0  0  0  0  0  0  0  0  0  0  0  0
   -3.3861    0.7839    0.3006 H   0  0  0  0  0  0  0  0  0  0  0  0
   -2.3300    1.0809   -1.9391 H   0  0  0  0  0  0  0  0  0  0  0  0
   -2.2745    2.8235   -1.6766 H   0  0  0  0  0  0  0  0  0  0  0  0
   -4.7569    2.8738   -1.4889 H   0  0  0  0  0  0  0  0  0  0  0  0
   -4.8114    1.1303   -1.7456 H   0  0  0  0  0  0  0  0  0  0  0  0
   -5.2906    2.3497   -3.8549 H   0  0  0  0  0  0  0  0  0  0  0  0
   -3.7342    3.1737   -3.7476 H   0  0  0  0  0  0  0  0  0  0  0  0
   -3.7928    1.4297   -4.0041 H   0  0  0  0  0  0  0  0  0  0  0  0
    1.6284    3.2668   -0.0843 H   0  0  0  0  0  0  0  0  0  0  0  0
    3.0693    3.4426    0.9433 H   0  0  0  0  0  0  0  0  0  0  0  0
    1.8684    0.6766    0.6080 H   0  0  0  0  0  0  0  0  0  0  0  0
    4.3984    2.7065   -1.5102 H   0  0  0  0  0  0  0  0  0  0  0  0
    5.0053    2.7424    0.1404 H   0  0  0  0  0  0  0  0  0  0  0  0
    5.6736    1.5906   -1.0185 H   0  0  0  0  0  0  0  0  0  0  0  0
    4.9393   -0.6571   -0.1582 H   0  0  0  0  0  0  0  0  0  0  0  0
    4.3033   -0.3384   -1.7644 H   0  0  0  0  0  0  0  0  0  0  0  0
    2.7156   -1.4250    0.5983 H   0  0  0  0  0  0  0  0  0  0  0  0
    2.0274   -1.0263   -0.9818 H   0  0  0  0  0  0  0  0  0  0  0  0
    3.8113   -3.3511   -0.2146 H   0  0  0  0  0  0  0  0  0  0  0  0
    2.2519   -1.4625   -3.0502 H   0  0  0  0  0  0  0  0  0  0  0  0
    3.3816   -2.2928   -4.1184 H   0  0  0  0  0  0  0  0  0  0  0  0
    1.8102   -3.0071   -3.7911 H   0  0  0  0  0  0  0  0  0  0  0  0
    4.0935   -5.0916   -1.6867 H   0  0  0  0  0  0  0  0  0  0  0  0
    4.4834   -4.5101   -3.3099 H   0  0  0  0  0  0  0  0  0  0  0  0
    2.8856   -5.1618   -2.9755 H   0  0  0  0  0  0  0  0  0  0  0  0
  1  2  2  0  0  0  0
  2  3  1  0  0  0  0
  3  4  1  0  0  0  0
  4  5  1  0  0  0  0
  5  6  1  0  0  0  0
  6  7  1  0  0  0  0
  7  8  2  0  0  0  0
  8  9  1  0  0  0  0
  9 10  1  0  0  0  0
 10 11  2  0  0  0  0
 10 12  1  0  0  0  0
 12 13  1  0  0  0  0
 13 14  1  0  0  0  0
 14 15  1  0  0  0  0
 12 16  1  0  0  0  0
 15 16  1  0  0  0  0
  4 17  1  0  0  0  0
  7 17  1  0  0  0  0
 17 18  1  0  0  0  0
 18 19  1  0  0  0  0
 19 20  1  0  0  0  0
 20 21  1  0  0  0  0
 21 22  1  0  0  0  0
  2 23  1  0  0  0  0
 23 24  1  0  0  0  0
 24 25  1  0  0  0  0
 25 26  2  0  0  0  0
 26 27  1  0  0  0  0
 26 28  1  0  0  0  0
 28 29  1  0  0  0  0
 29 30  1  0  0  0  0
 30 31  2  0  0  0  0
 31 32  1  0  0  0  0
 31 33  1  0  0  0  0
  1 34  1  0  0  0  0
  1 35  1  0  0  0  0
  3 36  1  0  0  0  0
  3 37  1  0  0  0  0
  4 38  1  0  0  0  0
  5 39  1  0  0  0  0
  5 40  1  0  0  0  0
  6 41  1  0  0  0  0
  6 42  1  0  0  0  0
 12 43  1  0  0  0  0
 13 44  1  0  0  0  0
 13 45  1  0  0  0  0
 14 46  1  0  0  0  0
 14 47  1  0  0  0  0
 15 48  1  0  0  0  0
 15 49  1  0  0  0  0
 16 50  1  0  0  0  0
 16 51  1  0  0  0  0
 17 52  1  0  0  0  0
 18 53  1  0  0  0  0
 18 54  1  0  0  0  0
 19 55  1  0  0  0  0
 19 56  1  0  0  0  0
 20 57  1  0  0  0  0
 20 58  1  0  0  0  0
 21 59  1  0  0  0  0
 21 60  1  0  0  0  0
 22 61  1  0  0  0  0
 22 62  1  0  0  0  0
 22 63  1  0  0  0  0
 24 64  1  0  0  0  0
 24 65  1  0  0  0  0
 25 66  1  0  0  0  0
 27 67  1  0  0  0  0
 27 68  1  0  0  0  0
 27 69  1  0  0  0  0
 28 70  1  0  0  0  0
 28 71  1  0  0  0  0
 29 72  1  0  0  0  0
 29 73  1  0  0  0  0
 30 74  1  0  0  0  0
 32 75  1  0  0  0  0
 32 76  1  0  0  0  0
 32 77  1  0  0  0  0
 33 78  1  0  0  0  0
 33 79  1  0  0  0  0
 33 80  1  0  0  0  0
M  END
