 xtb: 6.7.1 (edcfbbe)
          07072612543D

 38 37  0     0  0            999 V2000
   -3.7201   -1.2604   -0.3132 C   0  0  0  0  0  0  0  0  0  0  0  0
   -2.6517   -0.4783   -0.3919 C   0  0  0  0  0  0  0  0  0  0  0  0
   -1.2475   -1.0072   -0.4820 C   0  0  0  0  0  0  0  0  0  0  0  0
   -0.5422   -0.8600    0.8752 C   0  0  0  0  0  0  0  0  0  0  0  0
    0.8437   -1.2899    0.8407 N   0  0  0  0  0  0  0  0  0  0  0  0
    1.8671   -0.2782    0.7091 C   0  0  0  0  0  0  0  0  0  0  0  0
    2.1107    0.1434   -0.7470 C   0  0  0  0  0  0  0  0  0  0  0  0
    3.4050    0.9373   -0.9208 C   0  0  0  0  0  0  0  0  0  0  0  0
    3.3771    2.2844   -0.2080 C   0  0  0  0  0  0  0  0  0  0  0  0
    1.0748   -2.6273    0.8377 C   0  0  0  0  0  0  0  0  0  0  0  0
    2.5195   -3.0816    0.7795 C   0  0  0  0  0  0  0  0  0  0  0  0
    0.1602   -3.4275    0.9010 O   0  0  0  0  0  0  0  0  0  0  0  0
   -2.6432    0.8871   -0.3778 O   0  0  0  0  0  0  0  0  0  0  0  0
   -3.8746    1.5621   -0.2312 C   0  0  0  0  0  0  0  0  0  0  0  0
   -3.5920    3.0561   -0.2028 C   0  0  0  0  0  0  0  0  0  0  0  0
   -4.7263   -0.8917   -0.2347 H   0  0  0  0  0  0  0  0  0  0  0  0
   -3.6006   -2.3267   -0.3262 H   0  0  0  0  0  0  0  0  0  0  0  0
   -0.7047   -0.4403   -1.2393 H   0  0  0  0  0  0  0  0  0  0  0  0
   -1.2600   -2.0600   -0.7571 H   0  0  0  0  0  0  0  0  0  0  0  0
   -1.0694   -1.4834    1.6034 H   0  0  0  0  0  0  0  0  0  0  0  0
   -0.5784    0.1816    1.1974 H   0  0  0  0  0  0  0  0  0  0  0  0
    1.5553    0.5904    1.2953 H   0  0  0  0  0  0  0  0  0  0  0  0
    2.7996   -0.6492    1.1378 H   0  0  0  0  0  0  0  0  0  0  0  0
    2.1563   -0.7547   -1.3673 H   0  0  0  0  0  0  0  0  0  0  0  0
    1.2713    0.7468   -1.0962 H   0  0  0  0  0  0  0  0  0  0  0  0
    3.5667    1.1052   -1.9880 H   0  0  0  0  0  0  0  0  0  0  0  0
    4.2465    0.3473   -0.5495 H   0  0  0  0  0  0  0  0  0  0  0  0
    4.2773    2.8500   -0.4369 H   0  0  0  0  0  0  0  0  0  0  0  0
    3.3240    2.1561    0.8700 H   0  0  0  0  0  0  0  0  0  0  0  0
    2.5167    2.8668   -0.5300 H   0  0  0  0  0  0  0  0  0  0  0  0
    3.0503   -2.7810    1.6808 H   0  0  0  0  0  0  0  0  0  0  0  0
    2.5239   -4.1666    0.7195 H   0  0  0  0  0  0  0  0  0  0  0  0
    3.0295   -2.6737   -0.0890 H   0  0  0  0  0  0  0  0  0  0  0  0
   -4.3636    1.2470    0.7012 H   0  0  0  0  0  0  0  0  0  0  0  0
   -4.5384    1.3150   -1.0712 H   0  0  0  0  0  0  0  0  0  0  0  0
   -2.9371    3.2951    0.6308 H   0  0  0  0  0  0  0  0  0  0  0  0
   -4.5219    3.6066   -0.0942 H   0  0  0  0  0  0  0  0  0  0  0  0
   -3.1037    3.3591   -1.1250 H   0  0  0  0  0  0  0  0  0  0  0  0
  1  2  2  0  0  0  0
  2  3  1  0  0  0  0
  3  4  1  0  0  0  0
  4  5  1  0  0  0  0
  5  6  1  0  0  0  0
  6  7  1  0  0  0  0
  7  8  1  0  0  0  0
  8  9  1  0  0  0  0
  5 10  4  0  0  0  0
 10 11  1  0  0  0  0
 10 12  2  0  0  0  0
  2 13  1  0  0  0  0
 13 14  1  0  0  0  0
 14 15  1  0  0  0  0
  1 16  1  0  0  0  0
  1 17  1  0  0  0  0
  3 18  1  0  0  0  0
  3 19  1  0  0  0  0
  4 20  1  0  0  0  0
  4 21  1  0  0  0  0
  6 22  1  0  0  0  0
  6 23  1  0  0  0  0
  7 24  1  0  0  0  0
  7 25  1  0  0  0  0
  8 26  1  0  0  0  0
  8 27  1  0  0  0  0
  9 28  1  0  0  0  0
  9 29  1  0  0  0  0
  9 30  1  0  0  0  0
 11 31  1  0  0  0  0
 11 32  1  0  0  0  0
 11 33  1  0  0  0  0
 14 34  1  0  0  0  0
 14 35  1  0  0  0  0
 15 36  1  0  0  0  0
 15 37  1  0  0  0  0
 15 38  1  0  0  0  0
M  END
