 xtb: 6.7.1 (edcfbbe)
          07092602583D

 26 25  0     0  0            999 V2000
   -0.6951    2.7323   -0.4242 C   0  0  0  0  0  0  0  0  0  0  0  0
   -0.3821    1.5768   -0.4047 C   0  0  0  0  0  0  0  0  0  0  0  0
    0.0386    0.1758   -0.4487 C   0  0  0  0  0  0  0  0  0  0  0  0
    0.4401   -0.1770   -1.7665 O   0  0  0  0  0  0  0  0  0  0  0  0
    1.2264   -0.0004    0.5441 C   0  0  0  0  0  0  0  0  0  0  0  0
    2.4090    0.8813    0.1312 C   0  0  0  0  0  0  0  0  0  0  0  0
    1.6799   -1.4569    0.6196 C   0  0  0  0  0  0  0  0  0  0  0  0
   -1.1766   -0.7279   -0.1175 C   0  0  0  0  0  0  0  0  0  0  0  0
   -2.3013   -0.4720   -1.1212 C   0  0  0  0  0  0  0  0  0  0  0  0
   -1.6900   -0.5187    1.3040 C   0  0  0  0  0  0  0  0  0  0  0  0
   -0.9879    3.7402   -0.4157 H   0  0  0  0  0  0  0  0  0  0  0  0
    1.0892    0.4685   -2.0657 H   0  0  0  0  0  0  0  0  0  0  0  0
    0.8852    0.3344    1.5279 H   0  0  0  0  0  0  0  0  0  0  0  0
    2.8757    0.5037   -0.7774 H   0  0  0  0  0  0  0  0  0  0  0  0
    2.0894    1.9091   -0.0324 H   0  0  0  0  0  0  0  0  0  0  0  0
    3.1616    0.8788    0.9166 H   0  0  0  0  0  0  0  0  0  0  0  0
    1.8211   -1.8513   -0.3845 H   0  0  0  0  0  0  0  0  0  0  0  0
    2.6244   -1.5236    1.1554 H   0  0  0  0  0  0  0  0  0  0  0  0
    0.9527   -2.0761    1.1375 H   0  0  0  0  0  0  0  0  0  0  0  0
   -0.8436   -1.7612   -0.2439 H   0  0  0  0  0  0  0  0  0  0  0  0
   -3.1072   -1.1860   -0.9672 H   0  0  0  0  0  0  0  0  0  0  0  0
   -2.6971    0.5342   -1.0008 H   0  0  0  0  0  0  0  0  0  0  0  0
   -1.9271   -0.5805   -2.1352 H   0  0  0  0  0  0  0  0  0  0  0  0
   -0.9703   -0.8498    2.0483 H   0  0  0  0  0  0  0  0  0  0  0  0
   -1.9088    0.5338    1.4745 H   0  0  0  0  0  0  0  0  0  0  0  0
   -2.6063   -1.0873    1.4463 H   0  0  0  0  0  0  0  0  0  0  0  0
  1  2  3  0  0  0  0
  2  3  1  0  0  0  0
  3  4  1  0  0  0  0
  3  5  1  0  0  0  0
  5  6  1  0  0  0  0
  5  7  1  0  0  0  0
  3  8  1  0  0  0  0
  8  9  1  0  0  0  0
  8 10  1  0  0  0  0
  1 11  1  0  0  0  0
  4 12  1  0  0  0  0
  5 13  1  0  0  0  0
  6 14  1  0  0  0  0
  6 15  1  0  0  0  0
  6 16  1  0  0  0  0
  7 17  1  0  0  0  0
  7 18  1  0  0  0  0
  7 19  1  0  0  0  0
  8 20  1  0  0  0  0
  9 21  1  0  0  0  0
  9 22  1  0  0  0  0
  9 23  1  0  0  0  0
 10 24  1  0  0  0  0
 10 25  1  0  0  0  0
 10 26  1  0  0  0  0
M  END
