 xtb: 6.7.1 (edcfbbe)
          07062618493D

 46 48  0     0  0            999 V2000
   -2.8558    2.5335    0.2748 C   0  0  0  0  0  0  0  0  0  0  0  0
   -2.9561    1.0397    0.0672 C   0  0  0  0  0  0  0  0  0  0  0  0
   -2.7329    0.6234   -1.3671 C   0  0  0  0  0  0  0  0  0  0  0  0
   -3.9421    0.2355    0.8764 C   0  0  0  0  0  0  0  0  0  0  0  0
   -4.8485    0.8523    1.8468 C   0  0  0  0  0  0  0  0  0  0  0  0
   -6.1295    0.5280    1.9920 C   0  0  0  0  0  0  0  0  0  0  0  0
   -7.1437    1.2967    3.1534 Cl  0  0  0  0  0  0  0  0  0  0  0  0
   -6.9280   -0.6754    1.0573 Cl  0  0  0  0  0  0  0  0  0  0  0  0
   -2.4547    0.1490    1.1873 C   0  0  0  0  0  0  0  0  0  0  0  0
   -1.7541   -1.1207    0.8931 C   0  0  0  0  0  0  0  0  0  0  0  0
   -2.1207   -1.9654    0.1154 O   0  0  0  0  0  0  0  0  0  0  0  0
   -0.6349   -1.2190    1.6267 O   0  0  0  0  0  0  0  0  0  0  0  0
    0.1798   -2.3668    1.3706 C   0  0  0  0  0  0  0  0  0  0  0  0
    0.8851   -2.2387    0.0453 C   0  0  0  0  0  0  0  0  0  0  0  0
    0.6956   -3.1706   -0.9640 C   0  0  0  0  0  0  0  0  0  0  0  0
    1.3151   -2.9948   -2.1900 C   0  0  0  0  0  0  0  0  0  0  0  0
    2.1287   -1.9015   -2.4151 C   0  0  0  0  0  0  0  0  0  0  0  0
    2.3270   -0.9677   -1.4022 C   0  0  0  0  0  0  0  0  0  0  0  0
    3.0891    0.1303   -1.7007 O   0  0  0  0  0  0  0  0  0  0  0  0
    3.8775    0.7095   -0.7403 C   0  0  0  0  0  0  0  0  0  0  0  0
    4.5002   -0.0159    0.2699 C   0  0  0  0  0  0  0  0  0  0  0  0
    5.3368    0.6308    1.1612 C   0  0  0  0  0  0  0  0  0  0  0  0
    5.5649    1.9918    1.0520 C   0  0  0  0  0  0  0  0  0  0  0  0
    4.9557    2.7095    0.0360 C   0  0  0  0  0  0  0  0  0  0  0  0
    4.1140    2.0758   -0.8580 C   0  0  0  0  0  0  0  0  0  0  0  0
    1.6957   -1.1341   -0.1759 C   0  0  0  0  0  0  0  0  0  0  0  0
   -3.6813    3.0340   -0.2282 H   0  0  0  0  0  0  0  0  0  0  0  0
   -2.8802    2.8021    1.3266 H   0  0  0  0  0  0  0  0  0  0  0  0
   -1.9239    2.9025   -0.1498 H   0  0  0  0  0  0  0  0  0  0  0  0
   -1.7544    0.9572   -1.7097 H   0  0  0  0  0  0  0  0  0  0  0  0
   -2.7834   -0.4561   -1.4733 H   0  0  0  0  0  0  0  0  0  0  0  0
   -3.4926    1.0736   -2.0035 H   0  0  0  0  0  0  0  0  0  0  0  0
   -4.3433   -0.6373    0.3759 H   0  0  0  0  0  0  0  0  0  0  0  0
   -4.4513    1.6244    2.4879 H   0  0  0  0  0  0  0  0  0  0  0  0
   -2.0881    0.6419    2.0780 H   0  0  0  0  0  0  0  0  0  0  0  0
   -0.4471   -3.2637    1.3832 H   0  0  0  0  0  0  0  0  0  0  0  0
    0.8912   -2.3936    2.1996 H   0  0  0  0  0  0  0  0  0  0  0  0
    0.0519   -4.0197   -0.7967 H   0  0  0  0  0  0  0  0  0  0  0  0
    1.1603   -3.7157   -2.9782 H   0  0  0  0  0  0  0  0  0  0  0  0
    2.6134   -1.7486   -3.3666 H   0  0  0  0  0  0  0  0  0  0  0  0
    4.3372   -1.0812    0.3463 H   0  0  0  0  0  0  0  0  0  0  0  0
    5.8186    0.0620    1.9427 H   0  0  0  0  0  0  0  0  0  0  0  0
    6.2193    2.4894    1.7514 H   0  0  0  0  0  0  0  0  0  0  0  0
    5.1344    3.7700   -0.0603 H   0  0  0  0  0  0  0  0  0  0  0  0
    3.6347    2.6191   -1.6573 H   0  0  0  0  0  0  0  0  0  0  0  0
    1.8203   -0.3955    0.6034 H   0  0  0  0  0  0  0  0  0  0  0  0
  1  2  1  0  0  0  0
  2  3  1  0  0  0  0
  2  4  1  0  0  0  0
  4  5  1  0  0  0  0
  5  6  2  0  0  0  0
  6  7  1  0  0  0  0
  6  8  1  0  0  0  0
  2  9  1  0  0  0  0
  4  9  1  0  0  0  0
  9 10  1  0  0  0  0
 10 11  2  0  0  0  0
 10 12  1  0  0  0  0
 12 13  1  0  0  0  0
 13 14  1  0  0  0  0
 14 15  4  0  0  0  0
 15 16  4  0  0  0  0
 16 17  4  0  0  0  0
 17 18  4  0  0  0  0
 18 19  1  0  0  0  0
 19 20  1  0  0  0  0
 20 21  4  0  0  0  0
 21 22  4  0  0  0  0
 22 23  4  0  0  0  0
 23 24  4  0  0  0  0
 20 25  4  0  0  0  0
 24 25  4  0  0  0  0
 14 26  4  0  0  0  0
 18 26  4  0  0  0  0
  1 27  1  0  0  0  0
  1 28  1  0  0  0  0
  1 29  1  0  0  0  0
  3 30  1  0  0  0  0
  3 31  1  0  0  0  0
  3 32  1  0  0  0  0
  4 33  1  0  0  0  0
  5 34  1  0  0  0  0
  9 35  1  0  0  0  0
 13 36  1  0  0  0  0
 13 37  1  0  0  0  0
 15 38  1  0  0  0  0
 16 39  1  0  0  0  0
 17 40  1  0  0  0  0
 21 41  1  0  0  0  0
 22 42  1  0  0  0  0
 23 43  1  0  0  0  0
 24 44  1  0  0  0  0
 25 45  1  0  0  0  0
 26 46  1  0  0  0  0
M  END
