 xtb: 6.7.1 (edcfbbe)
          07082605273D

 28 29  0     0  0            999 V2000
    1.2954    1.6123    2.1035 O   0  0  0  0  0  0  0  0  0  0  0  0
    1.2115    0.8612    1.1612 C   0  0  0  0  0  0  0  0  0  0  0  0
    0.0429    0.4251    0.6757 O   0  0  0  0  0  0  0  0  0  0  0  0
   -1.1291    0.9042    1.3442 C   0  0  0  0  0  0  0  0  0  0  0  0
   -2.3278    0.3111    0.6624 C   0  0  0  0  0  0  0  0  0  0  0  0
   -2.8362   -0.9133    1.0755 C   0  0  0  0  0  0  0  0  0  0  0  0
   -3.9246   -1.4729    0.4299 C   0  0  0  0  0  0  0  0  0  0  0  0
   -4.5125   -0.8148   -0.6370 C   0  0  0  0  0  0  0  0  0  0  0  0
   -4.0066    0.4033   -1.0581 C   0  0  0  0  0  0  0  0  0  0  0  0
   -2.9182    0.9629   -0.4124 C   0  0  0  0  0  0  0  0  0  0  0  0
    2.3744    0.3210    0.4162 C   0  0  0  0  0  0  0  0  0  0  0  0
    3.6513    0.7000    0.8238 C   0  0  0  0  0  0  0  0  0  0  0  0
    4.7620    0.2196    0.1571 C   0  0  0  0  0  0  0  0  0  0  0  0
    4.6042   -0.6403   -0.9184 C   0  0  0  0  0  0  0  0  0  0  0  0
    3.3350   -1.0196   -1.3269 C   0  0  0  0  0  0  0  0  0  0  0  0
    2.2190   -0.5430   -0.6645 C   0  0  0  0  0  0  0  0  0  0  0  0
   -1.0773    0.6087    2.3985 H   0  0  0  0  0  0  0  0  0  0  0  0
   -1.1380    1.9993    1.2955 H   0  0  0  0  0  0  0  0  0  0  0  0
   -2.3773   -1.4282    1.9071 H   0  0  0  0  0  0  0  0  0  0  0  0
   -4.3152   -2.4241    0.7604 H   0  0  0  0  0  0  0  0  0  0  0  0
   -5.3635   -1.2504   -1.1393 H   0  0  0  0  0  0  0  0  0  0  0  0
   -4.4613    0.9191   -1.8910 H   0  0  0  0  0  0  0  0  0  0  0  0
   -2.5233    1.9128   -0.7425 H   0  0  0  0  0  0  0  0  0  0  0  0
    3.7472    1.3708    1.6642 H   0  0  0  0  0  0  0  0  0  0  0  0
    5.7514    0.5140    0.4738 H   0  0  0  0  0  0  0  0  0  0  0  0
    5.4724   -1.0161   -1.4400 H   0  0  0  0  0  0  0  0  0  0  0  0
    3.2168   -1.6899   -2.1655 H   0  0  0  0  0  0  0  0  0  0  0  0
    1.2273   -0.8327   -0.9753 H   0  0  0  0  0  0  0  0  0  0  0  0
  1  2  2  0  0  0  0
  2  3  1  0  0  0  0
  3  4  1  0  0  0  0
  4  5  1  0  0  0  0
  5  6  4  0  0  0  0
  6  7  4  0  0  0  0
  7  8  4  0  0  0  0
  8  9  4  0  0  0  0
  5 10  4  0  0  0  0
  9 10  4  0  0  0  0
  2 11  1  0  0  0  0
 11 12  4  0  0  0  0
 12 13  4  0  0  0  0
 13 14  4  0  0  0  0
 14 15  4  0  0  0  0
 11 16  4  0  0  0  0
 15 16  4  0  0  0  0
  4 17  1  0  0  0  0
  4 18  1  0  0  0  0
  6 19  1  0  0  0  0
  7 20  1  0  0  0  0
  8 21  1  0  0  0  0
  9 22  1  0  0  0  0
 10 23  1  0  0  0  0
 12 24  1  0  0  0  0
 13 25  1  0  0  0  0
 14 26  1  0  0  0  0
 15 27  1  0  0  0  0
 16 28  1  0  0  0  0
M  END
