 xtb: 6.7.1 (edcfbbe)
          07092613143D

 22 22  0     0  0            999 V2000
    3.8488    1.2245   -1.7948 Cl  0  0  0  0  0  0  0  0  0  0  0  0
    3.2286   -0.1471   -0.8562 C   0  0  0  0  0  0  0  0  0  0  0  0
    2.0576    0.2997    0.0038 C   0  0  0  0  0  0  0  0  0  0  0  0
    1.6121   -0.8276    0.7218 O   0  0  0  0  0  0  0  0  0  0  0  0
    0.4858   -0.5599    1.5347 C   0  0  0  0  0  0  0  0  0  0  0  0
   -0.7586   -0.2447    0.7404 C   0  0  0  0  0  0  0  0  0  0  0  0
   -1.5485    0.8550    1.0440 C   0  0  0  0  0  0  0  0  0  0  0  0
   -2.6833    1.1278    0.2992 C   0  0  0  0  0  0  0  0  0  0  0  0
   -3.0312    0.3098   -0.7618 C   0  0  0  0  0  0  0  0  0  0  0  0
   -2.2430   -0.7855   -1.0745 C   0  0  0  0  0  0  0  0  0  0  0  0
   -1.1146   -1.0629   -0.3252 C   0  0  0  0  0  0  0  0  0  0  0  0
    4.0407   -0.5231   -0.2348 H   0  0  0  0  0  0  0  0  0  0  0  0
    2.9137   -0.9180   -1.5586 H   0  0  0  0  0  0  0  0  0  0  0  0
    1.2537    0.7007   -0.6307 H   0  0  0  0  0  0  0  0  0  0  0  0
    2.3759    1.0933    0.6979 H   0  0  0  0  0  0  0  0  0  0  0  0
    0.7084    0.2630    2.2306 H   0  0  0  0  0  0  0  0  0  0  0  0
    0.3382   -1.4776    2.1130 H   0  0  0  0  0  0  0  0  0  0  0  0
   -1.2759    1.4996    1.8678 H   0  0  0  0  0  0  0  0  0  0  0  0
   -3.2931    1.9848    0.5446 H   0  0  0  0  0  0  0  0  0  0  0  0
   -3.9136    0.5264   -1.3454 H   0  0  0  0  0  0  0  0  0  0  0  0
   -2.5100   -1.4256   -1.9025 H   0  0  0  0  0  0  0  0  0  0  0  0
   -0.4914   -1.9127   -0.5626 H   0  0  0  0  0  0  0  0  0  0  0  0
  1  2  1  0  0  0  0
  2  3  1  0  0  0  0
  3  4  1  0  0  0  0
  4  5  1  0  0  0  0
  5  6  1  0  0  0  0
  6  7  4  0  0  0  0
  7  8  4  0  0  0  0
  8  9  4  0  0  0  0
  9 10  4  0  0  0  0
  6 11  4  0  0  0  0
 10 11  4  0  0  0  0
  2 12  1  0  0  0  0
  2 13  1  0  0  0  0
  3 14  1  0  0  0  0
  3 15  1  0  0  0  0
  5 16  1  0  0  0  0
  5 17  1  0  0  0  0
  7 18  1  0  0  0  0
  8 19  1  0  0  0  0
  9 20  1  0  0  0  0
 10 21  1  0  0  0  0
 11 22  1  0  0  0  0
M  END
