 xtb: 6.7.1 (edcfbbe)
          07092612303D

 25 25  0     0  0            999 V2000
    4.6575    0.1620   -0.1214 C   0  0  0  0  0  0  0  0  0  0  0  0
    3.2128    0.1281    0.2432 C   0  0  0  0  0  0  0  0  0  0  0  0
    2.2210    0.3460   -0.6173 C   0  0  0  0  0  0  0  0  0  0  0  0
    0.7974    0.3182   -0.3237 C   0  0  0  0  0  0  0  0  0  0  0  0
   -0.1107    0.3880   -1.3114 C   0  0  0  0  0  0  0  0  0  0  0  0
   -1.5846    0.3800   -1.0493 C   0  0  0  0  0  0  0  0  0  0  0  0
   -1.9252   -0.4077    0.2234 C   0  0  0  0  0  0  0  0  0  0  0  0
   -3.2297   -0.1453    0.7054 O   0  0  0  0  0  0  0  0  0  0  0  0
   -4.2664   -0.6700   -0.0802 C   0  0  0  0  0  0  0  0  0  0  0  0
   -0.9560   -0.0553    1.3177 C   0  0  0  0  0  0  0  0  0  0  0  0
    0.3093    0.2484    1.0523 C   0  0  0  0  0  0  0  0  0  0  0  0
    5.1245   -0.7989    0.0962 H   0  0  0  0  0  0  0  0  0  0  0  0
    5.1770    0.9178    0.4683 H   0  0  0  0  0  0  0  0  0  0  0  0
    4.7916    0.3870   -1.1767 H   0  0  0  0  0  0  0  0  0  0  0  0
    3.0075   -0.0983    1.2803 H   0  0  0  0  0  0  0  0  0  0  0  0
    2.4650    0.5473   -1.6540 H   0  0  0  0  0  0  0  0  0  0  0  0
    0.1997    0.5064   -2.3399 H   0  0  0  0  0  0  0  0  0  0  0  0
   -2.1137   -0.0369   -1.9081 H   0  0  0  0  0  0  0  0  0  0  0  0
   -1.9297    1.4140   -0.9155 H   0  0  0  0  0  0  0  0  0  0  0  0
   -1.8331   -1.4932    0.0103 H   0  0  0  0  0  0  0  0  0  0  0  0
   -4.1185   -1.7413   -0.2692 H   0  0  0  0  0  0  0  0  0  0  0  0
   -4.3605   -0.1517   -1.0414 H   0  0  0  0  0  0  0  0  0  0  0  0
   -5.1832   -0.5282    0.4897 H   0  0  0  0  0  0  0  0  0  0  0  0
   -1.3498   -0.0965    2.3205 H   0  0  0  0  0  0  0  0  0  0  0  0
    0.9979    0.4800    1.8493 H   0  0  0  0  0  0  0  0  0  0  0  0
  1  2  1  0  0  0  0
  2  3  2  0  0  0  0
  3  4  1  0  0  0  0
  4  5  2  0  0  0  0
  5  6  1  0  0  0  0
  6  7  1  0  0  0  0
  7  8  1  0  0  0  0
  8  9  1  0  0  0  0
  7 10  1  0  0  0  0
  4 11  1  0  0  0  0
 10 11  2  0  0  0  0
  1 12  1  0  0  0  0
  1 13  1  0  0  0  0
  1 14  1  0  0  0  0
  2 15  1  0  0  0  0
  3 16  1  0  0  0  0
  5 17  1  0  0  0  0
  6 18  1  0  0  0  0
  6 19  1  0  0  0  0
  7 20  1  0  0  0  0
  9 21  1  0  0  0  0
  9 22  1  0  0  0  0
  9 23  1  0  0  0  0
 10 24  1  0  0  0  0
 11 25  1  0  0  0  0
M  END
