 xtb: 6.7.1 (edcfbbe)
          07082622583D

 26 26  0     0  0            999 V2000
   -2.6384   -1.2025   -0.6860 C   0  0  0  0  0  0  0  0  0  0  0  0
   -2.1834   -0.2257    0.0820 C   0  0  0  0  0  0  0  0  0  0  0  0
   -3.1090    0.7522    0.7428 C   0  0  0  0  0  0  0  0  0  0  0  0
   -0.7164    0.0178    0.3405 C   0  0  0  0  0  0  0  0  0  0  0  0
   -0.1378    0.9604   -0.7238 C   0  0  0  0  0  0  0  0  0  0  0  0
    1.3493    1.0891   -0.5967 C   0  0  0  0  0  0  0  0  0  0  0  0
    2.1153    0.2671    0.1058 C   0  0  0  0  0  0  0  0  0  0  0  0
    3.5995    0.4416    0.2197 C   0  0  0  0  0  0  0  0  0  0  0  0
    1.5415   -0.9050    0.8547 C   0  0  0  0  0  0  0  0  0  0  0  0
    0.1379   -1.2497    0.3669 C   0  0  0  0  0  0  0  0  0  0  0  0
   -1.9903   -1.9126   -1.1681 H   0  0  0  0  0  0  0  0  0  0  0  0
   -3.6930   -1.3338   -0.8632 H   0  0  0  0  0  0  0  0  0  0  0  0
   -2.8358    1.7725    0.4762 H   0  0  0  0  0  0  0  0  0  0  0  0
   -4.1405    0.5781    0.4481 H   0  0  0  0  0  0  0  0  0  0  0  0
   -3.0367    0.6633    1.8268 H   0  0  0  0  0  0  0  0  0  0  0  0
   -0.6172    0.5096    1.3151 H   0  0  0  0  0  0  0  0  0  0  0  0
   -0.5953    1.9501   -0.6411 H   0  0  0  0  0  0  0  0  0  0  0  0
   -0.3854    0.5761   -1.7197 H   0  0  0  0  0  0  0  0  0  0  0  0
    1.7933    1.9172   -1.1340 H   0  0  0  0  0  0  0  0  0  0  0  0
    3.9292    1.3428   -0.2907 H   0  0  0  0  0  0  0  0  0  0  0  0
    3.8927    0.5046    1.2674 H   0  0  0  0  0  0  0  0  0  0  0  0
    4.1156   -0.4138   -0.2164 H   0  0  0  0  0  0  0  0  0  0  0  0
    1.5156   -0.6652    1.9235 H   0  0  0  0  0  0  0  0  0  0  0  0
    2.2010   -1.7689    0.7372 H   0  0  0  0  0  0  0  0  0  0  0  0
   -0.3166   -1.9985    1.0185 H   0  0  0  0  0  0  0  0  0  0  0  0
    0.2050   -1.6668   -0.6388 H   0  0  0  0  0  0  0  0  0  0  0  0
  1  2  2  0  0  0  0
  2  3  1  0  0  0  0
  2  4  1  0  0  0  0
  4  5  1  0  0  0  0
  5  6  1  0  0  0  0
  6  7  2  0  0  0  0
  7  8  1  0  0  0  0
  7  9  1  0  0  0  0
  4 10  1  0  0  0  0
  9 10  1  0  0  0  0
  1 11  1  0  0  0  0
  1 12  1  0  0  0  0
  3 13  1  0  0  0  0
  3 14  1  0  0  0  0
  3 15  1  0  0  0  0
  4 16  1  0  0  0  0
  5 17  1  0  0  0  0
  5 18  1  0  0  0  0
  6 19  1  0  0  0  0
  8 20  1  0  0  0  0
  8 21  1  0  0  0  0
  8 22  1  0  0  0  0
  9 23  1  0  0  0  0
  9 24  1  0  0  0  0
 10 25  1  0  0  0  0
 10 26  1  0  0  0  0
M  END
