 xtb: 6.7.1 (edcfbbe)
          07062619083D

 28 29  0     0  0            999 V2000
   -2.1057   -1.6513   -0.6009 C   0  0  0  0  0  0  0  0  0  0  0  0
   -2.2269   -0.1305   -0.6169 C   0  0  0  0  0  0  0  0  0  0  0  0
   -3.2256    0.3569    0.4277 C   0  0  0  0  0  0  0  0  0  0  0  0
   -0.8566    0.5121   -0.3715 C   0  0  0  0  0  0  0  0  0  0  0  0
   -0.3466    0.0677    0.8593 O   0  0  0  0  0  0  0  0  0  0  0  0
    0.9058    0.6307    1.1522 C   0  0  0  0  0  0  0  0  0  0  0  0
    1.9082    0.2932    0.0346 C   0  0  0  0  0  0  0  0  0  0  0  0
    2.2405   -1.1981    0.0243 C   0  0  0  0  0  0  0  0  0  0  0  0
    3.1848    1.0160    0.2569 N   0  0  0  0  0  0  0  0  0  0  0  0
    3.5050    1.2348    1.3999 O   0  0  0  0  0  0  0  0  0  0  0  0
    3.8292    1.3135   -0.7192 O   0  0  0  0  0  0  0  0  0  0  0  0
    1.2765    0.7323   -1.2981 C   0  0  0  0  0  0  0  0  0  0  0  0
   -0.0030    0.1678   -1.4343 O   0  0  0  0  0  0  0  0  0  0  0  0
   -1.3908   -1.9735   -1.3528 H   0  0  0  0  0  0  0  0  0  0  0  0
   -3.0702   -2.1041   -0.8152 H   0  0  0  0  0  0  0  0  0  0  0  0
   -1.7681   -1.9835    0.3769 H   0  0  0  0  0  0  0  0  0  0  0  0
   -2.5431    0.1938   -1.6130 H   0  0  0  0  0  0  0  0  0  0  0  0
   -2.8778    0.0891    1.4216 H   0  0  0  0  0  0  0  0  0  0  0  0
   -3.3424    1.4371    0.3784 H   0  0  0  0  0  0  0  0  0  0  0  0
   -4.1948   -0.1040    0.2582 H   0  0  0  0  0  0  0  0  0  0  0  0
   -0.9513    1.6210   -0.3378 H   0  0  0  0  0  0  0  0  0  0  0  0
    0.8210    1.7256    1.2494 H   0  0  0  0  0  0  0  0  0  0  0  0
    1.2197    0.2124    2.1099 H   0  0  0  0  0  0  0  0  0  0  0  0
    1.3212   -1.7570   -0.1348 H   0  0  0  0  0  0  0  0  0  0  0  0
    2.6764   -1.4955    0.9760 H   0  0  0  0  0  0  0  0  0  0  0  0
    2.9380   -1.4254   -0.7794 H   0  0  0  0  0  0  0  0  0  0  0  0
    1.8620    0.3863   -2.1512 H   0  0  0  0  0  0  0  0  0  0  0  0
    1.2144    1.8326   -1.3280 H   0  0  0  0  0  0  0  0  0  0  0  0
  1  2  1  0  0  0  0
  2  3  1  0  0  0  0
  2  4  1  0  0  0  0
  4  5  1  0  0  0  0
  5  6  1  0  0  0  0
  6  7  1  0  0  0  0
  7  8  1  0  0  0  0
  7  9  1  0  0  0  0
  9 10  4  0  0  0  0
  9 11  4  0  0  0  0
 10 11  1  0  0  0  0
  7 12  1  0  0  0  0
  4 13  1  0  0  0  0
 12 13  1  0  0  0  0
  1 14  1  0  0  0  0
  1 15  1  0  0  0  0
  1 16  1  0  0  0  0
  2 17  1  0  0  0  0
  3 18  1  0  0  0  0
  3 19  1  0  0  0  0
  3 20  1  0  0  0  0
  4 21  1  0  0  0  0
  6 22  1  0  0  0  0
  6 23  1  0  0  0  0
  8 24  1  0  0  0  0
  8 25  1  0  0  0  0
  8 26  1  0  0  0  0
 12 27  1  0  0  0  0
 12 28  1  0  0  0  0
M  END
