 xtb: 6.7.1 (edcfbbe)
          07092616333D

 32 32  0     0  0            999 V2000
    3.4186   -0.5644   -0.0787 C   0  0  0  0  0  0  0  0  0  0  0  0
    2.0071   -0.3293    0.4515 C   0  0  0  0  0  0  0  0  0  0  0  0
    1.1134   -1.5395    0.1965 C   0  0  0  0  0  0  0  0  0  0  0  0
   -0.2942   -1.2896    0.7209 C   0  0  0  0  0  0  0  0  0  0  0  0
   -0.9637   -0.0584    0.0863 C   0  0  0  0  0  0  0  0  0  0  0  0
   -2.2990    0.1790    0.8220 C   0  0  0  0  0  0  0  0  0  0  0  0
   -3.1095   -0.9816    0.7538 O   0  0  0  0  0  0  0  0  0  0  0  0
   -1.2691   -0.3081   -1.4067 C   0  0  0  0  0  0  0  0  0  0  0  0
   -1.8619   -1.5530   -1.6628 O   0  0  0  0  0  0  0  0  0  0  0  0
   -0.0451    1.1687    0.2961 C   0  0  0  0  0  0  0  0  0  0  0  0
   -0.5589    2.4586   -0.3461 C   0  0  0  0  0  0  0  0  0  0  0  0
    1.3812    0.9026   -0.1982 C   0  0  0  0  0  0  0  0  0  0  0  0
    4.0513    0.2992    0.1147 H   0  0  0  0  0  0  0  0  0  0  0  0
    3.3961   -0.7396   -1.1522 H   0  0  0  0  0  0  0  0  0  0  0  0
    3.8660   -1.4325    0.3999 H   0  0  0  0  0  0  0  0  0  0  0  0
    2.0644   -0.1606    1.5337 H   0  0  0  0  0  0  0  0  0  0  0  0
    1.0764   -1.7524   -0.8724 H   0  0  0  0  0  0  0  0  0  0  0  0
    1.5290   -2.4182    0.6948 H   0  0  0  0  0  0  0  0  0  0  0  0
   -0.2509   -1.1384    1.8028 H   0  0  0  0  0  0  0  0  0  0  0  0
   -0.9149   -2.1652    0.5309 H   0  0  0  0  0  0  0  0  0  0  0  0
   -2.0929    0.4313    1.8718 H   0  0  0  0  0  0  0  0  0  0  0  0
   -2.8344    1.0216    0.3648 H   0  0  0  0  0  0  0  0  0  0  0  0
   -3.9211   -0.8246    1.2455 H   0  0  0  0  0  0  0  0  0  0  0  0
   -0.3509   -0.2919   -1.9960 H   0  0  0  0  0  0  0  0  0  0  0  0
   -1.9236    0.4986   -1.7730 H   0  0  0  0  0  0  0  0  0  0  0  0
   -2.5661   -1.6704   -1.0094 H   0  0  0  0  0  0  0  0  0  0  0  0
    0.0086    1.3341    1.3801 H   0  0  0  0  0  0  0  0  0  0  0  0
   -1.5518    2.7200    0.0087 H   0  0  0  0  0  0  0  0  0  0  0  0
    0.1104    3.2785   -0.0933 H   0  0  0  0  0  0  0  0  0  0  0  0
   -0.5866    2.3696   -1.4285 H   0  0  0  0  0  0  0  0  0  0  0  0
    1.9934    1.7801    0.0246 H   0  0  0  0  0  0  0  0  0  0  0  0
    1.3790    0.7758   -1.2820 H   0  0  0  0  0  0  0  0  0  0  0  0
  1  2  1  0  0  0  0
  2  3  1  0  0  0  0
  3  4  1  0  0  0  0
  4  5  1  0  0  0  0
  5  6  1  0  0  0  0
  6  7  1  0  0  0  0
  5  8  1  0  0  0  0
  8  9  1  0  0  0  0
  5 10  1  0  0  0  0
 10 11  1  0  0  0  0
  2 12  1  0  0  0  0
 10 12  1  0  0  0  0
  1 13  1  0  0  0  0
  1 14  1  0  0  0  0
  1 15  1  0  0  0  0
  2 16  1  0  0  0  0
  3 17  1  0  0  0  0
  3 18  1  0  0  0  0
  4 19  1  0  0  0  0
  4 20  1  0  0  0  0
  6 21  1  0  0  0  0
  6 22  1  0  0  0  0
  7 23  1  0  0  0  0
  8 24  1  0  0  0  0
  8 25  1  0  0  0  0
  9 26  1  0  0  0  0
 10 27  1  0  0  0  0
 11 28  1  0  0  0  0
 11 29  1  0  0  0  0
 11 30  1  0  0  0  0
 12 31  1  0  0  0  0
 12 32  1  0  0  0  0
M  END
