 xtb: 6.7.1 (edcfbbe)
          07072608573D

 26 26  0     0  0            999 V2000
   -2.9375    1.1783    0.8444 C   0  0  0  0  0  0  0  0  0  0  0  0
   -2.5270   -0.1179    0.1523 C   0  0  0  0  0  0  0  0  0  0  0  0
   -3.3870   -0.4136   -1.0682 C   0  0  0  0  0  0  0  0  0  0  0  0
   -1.1720   -0.0178   -0.3050 O   0  0  0  0  0  0  0  0  0  0  0  0
   -0.2012   -0.2664    0.5830 C   0  0  0  0  0  0  0  0  0  0  0  0
   -0.4425   -0.5773    1.7378 O   0  0  0  0  0  0  0  0  0  0  0  0
    1.1422   -0.1391    0.0077 C   0  0  0  0  0  0  0  0  0  0  0  0
    1.3000    0.1774   -1.3451 C   0  0  0  0  0  0  0  0  0  0  0  0
    2.5475    0.2839   -1.9148 C   0  0  0  0  0  0  0  0  0  0  0  0
    3.6784    0.0702   -1.1311 C   0  0  0  0  0  0  0  0  0  0  0  0
    3.5529   -0.2409    0.2009 C   0  0  0  0  0  0  0  0  0  0  0  0
    2.2909   -0.3503    0.8074 C   0  0  0  0  0  0  0  0  0  0  0  0
    2.1934   -0.6197    2.1276 N   0  0  0  0  0  0  0  0  0  0  0  0
   -2.8293    2.0162    0.1591 H   0  0  0  0  0  0  0  0  0  0  0  0
   -3.9724    1.1124    1.1682 H   0  0  0  0  0  0  0  0  0  0  0  0
   -2.3076    1.3495    1.7140 H   0  0  0  0  0  0  0  0  0  0  0  0
   -2.5812   -0.9464    0.8713 H   0  0  0  0  0  0  0  0  0  0  0  0
   -3.3141    0.4057   -1.7789 H   0  0  0  0  0  0  0  0  0  0  0  0
   -3.0508   -1.3261   -1.5539 H   0  0  0  0  0  0  0  0  0  0  0  0
   -4.4239   -0.5334   -0.7679 H   0  0  0  0  0  0  0  0  0  0  0  0
    0.4144    0.3349   -1.9402 H   0  0  0  0  0  0  0  0  0  0  0  0
    2.6510    0.5285   -2.9605 H   0  0  0  0  0  0  0  0  0  0  0  0
    4.6615    0.1485   -1.5723 H   0  0  0  0  0  0  0  0  0  0  0  0
    4.4314   -0.4063    0.8088 H   0  0  0  0  0  0  0  0  0  0  0  0
    1.2707   -0.7719    2.5090 H   0  0  0  0  0  0  0  0  0  0  0  0
    3.0123   -0.8785    2.6465 H   0  0  0  0  0  0  0  0  0  0  0  0
  1  2  1  0  0  0  0
  2  3  1  0  0  0  0
  2  4  1  0  0  0  0
  4  5  1  0  0  0  0
  5  6  2  0  0  0  0
  5  7  1  0  0  0  0
  7  8  4  0  0  0  0
  8  9  4  0  0  0  0
  9 10  4  0  0  0  0
 10 11  2  0  0  0  0
  7 12  4  0  0  0  0
 11 12  4  0  0  0  0
 12 13  4  0  0  0  0
  1 14  1  0  0  0  0
  1 15  1  0  0  0  0
  1 16  1  0  0  0  0
  2 17  1  0  0  0  0
  3 18  1  0  0  0  0
  3 19  1  0  0  0  0
  3 20  1  0  0  0  0
  8 21  1  0  0  0  0
  9 22  1  0  0  0  0
 10 23  1  0  0  0  0
 11 24  1  0  0  0  0
 13 25  1  0  0  0  0
 13 26  1  0  0  0  0
M  END
