 xtb: 6.7.1 (edcfbbe)
          07072605053D

 28 28  0     0  0            999 V2000
   -4.7893   -0.6724   -0.7065 C   0  0  0  0  0  0  0  0  0  0  0  0
   -3.6767   -0.6395    0.3227 C   0  0  0  0  0  0  0  0  0  0  0  0
   -2.6202    0.1846   -0.1831 O   0  0  0  0  0  0  0  0  0  0  0  0
   -1.6002    0.3960    0.6176 C   0  0  0  0  0  0  0  0  0  0  0  0
   -1.4999    0.0105    1.7577 O   0  0  0  0  0  0  0  0  0  0  0  0
   -0.5046    1.2322   -0.0608 C   0  0  0  0  0  0  0  0  0  0  0  0
   -0.7310    2.1804   -0.7604 O   0  0  0  0  0  0  0  0  0  0  0  0
    0.8708    0.7117    0.2901 C   0  0  0  0  0  0  0  0  0  0  0  0
    1.9903    1.5257   -0.3626 C   0  0  0  0  0  0  0  0  0  0  0  0
    3.3542    0.9329   -0.0348 C   0  0  0  0  0  0  0  0  0  0  0  0
    3.4257   -0.5110   -0.5162 C   0  0  0  0  0  0  0  0  0  0  0  0
    2.3372   -1.3563    0.1488 C   0  0  0  0  0  0  0  0  0  0  0  0
    0.9660   -0.7712   -0.0643 C   0  0  0  0  0  0  0  0  0  0  0  0
    0.0249   -1.4111   -0.4556 O   0  0  0  0  0  0  0  0  0  0  0  0
   -5.6021   -1.2959   -0.3454 H   0  0  0  0  0  0  0  0  0  0  0  0
   -4.4168   -1.0778   -1.6429 H   0  0  0  0  0  0  0  0  0  0  0  0
   -5.1625    0.3320   -0.8867 H   0  0  0  0  0  0  0  0  0  0  0  0
   -3.2706   -1.6397    0.5083 H   0  0  0  0  0  0  0  0  0  0  0  0
   -4.0194   -0.2247    1.2773 H   0  0  0  0  0  0  0  0  0  0  0  0
    0.9486    0.7609    1.3844 H   0  0  0  0  0  0  0  0  0  0  0  0
    1.8352    1.5295   -1.4435 H   0  0  0  0  0  0  0  0  0  0  0  0
    1.9243    2.5590   -0.0184 H   0  0  0  0  0  0  0  0  0  0  0  0
    3.5248    0.9710    1.0436 H   0  0  0  0  0  0  0  0  0  0  0  0
    4.1343    1.5228   -0.5184 H   0  0  0  0  0  0  0  0  0  0  0  0
    3.2930   -0.5410   -1.5996 H   0  0  0  0  0  0  0  0  0  0  0  0
    4.4027   -0.9399   -0.2870 H   0  0  0  0  0  0  0  0  0  0  0  0
    2.5130   -1.3907    1.2274 H   0  0  0  0  0  0  0  0  0  0  0  0
    2.3481   -2.3782   -0.2336 H   0  0  0  0  0  0  0  0  0  0  0  0
  1  2  1  0  0  0  0
  2  3  1  0  0  0  0
  3  4  1  0  0  0  0
  4  5  2  0  0  0  0
  4  6  1  0  0  0  0
  6  7  2  0  0  0  0
  6  8  1  0  0  0  0
  8  9  1  0  0  0  0
  9 10  1  0  0  0  0
 10 11  1  0  0  0  0
 11 12  1  0  0  0  0
  8 13  1  0  0  0  0
 12 13  1  0  0  0  0
 13 14  2  0  0  0  0
  1 15  1  0  0  0  0
  1 16  1  0  0  0  0
  1 17  1  0  0  0  0
  2 18  1  0  0  0  0
  2 19  1  0  0  0  0
  8 20  1  0  0  0  0
  9 21  1  0  0  0  0
  9 22  1  0  0  0  0
 10 23  1  0  0  0  0
 10 24  1  0  0  0  0
 11 25  1  0  0  0  0
 11 26  1  0  0  0  0
 12 27  1  0  0  0  0
 12 28  1  0  0  0  0
M  END
