 xtb: 6.7.1 (edcfbbe)
          07082608143D

 25 25  0     0  0            999 V2000
    3.7455   -0.0860    0.2983 C   0  0  0  0  0  0  0  0  0  0  0  0
    2.2507   -0.1548    0.3041 C   0  0  0  0  0  0  0  0  0  0  0  0
    1.5456   -0.9310    1.2063 C   0  0  0  0  0  0  0  0  0  0  0  0
    0.1615   -0.9784    1.1918 C   0  0  0  0  0  0  0  0  0  0  0  0
   -0.5627   -0.2438    0.2657 C   0  0  0  0  0  0  0  0  0  0  0  0
   -2.0709   -0.2952    0.2497 C   0  0  0  0  0  0  0  0  0  0  0  0
   -2.5856   -0.8543   -1.0785 C   0  0  0  0  0  0  0  0  0  0  0  0
   -2.6688    1.0860    0.5256 C   0  0  0  0  0  0  0  0  0  0  0  0
    0.1369    0.5387   -0.6445 C   0  0  0  0  0  0  0  0  0  0  0  0
    1.5215    0.5869   -0.6310 C   0  0  0  0  0  0  0  0  0  0  0  0
    2.2177    1.3533   -1.5218 O   0  0  0  0  0  0  0  0  0  0  0  0
    4.0728    0.9417    0.4494 H   0  0  0  0  0  0  0  0  0  0  0  0
    4.1660   -0.7137    1.0793 H   0  0  0  0  0  0  0  0  0  0  0  0
    4.1308   -0.4093   -0.6677 H   0  0  0  0  0  0  0  0  0  0  0  0
    2.0908   -1.5114    1.9367 H   0  0  0  0  0  0  0  0  0  0  0  0
   -0.3585   -1.5949    1.9106 H   0  0  0  0  0  0  0  0  0  0  0  0
   -2.3933   -0.9706    1.0499 H   0  0  0  0  0  0  0  0  0  0  0  0
   -2.1474   -1.8307   -1.2726 H   0  0  0  0  0  0  0  0  0  0  0  0
   -2.3292   -0.1936   -1.9031 H   0  0  0  0  0  0  0  0  0  0  0  0
   -3.6681   -0.9593   -1.0487 H   0  0  0  0  0  0  0  0  0  0  0  0
   -2.4140    1.7847   -0.2675 H   0  0  0  0  0  0  0  0  0  0  0  0
   -2.2894    1.4810    1.4654 H   0  0  0  0  0  0  0  0  0  0  0  0
   -3.7530    1.0213    0.5887 H   0  0  0  0  0  0  0  0  0  0  0  0
   -0.3979    1.1248   -1.3811 H   0  0  0  0  0  0  0  0  0  0  0  0
    1.5990    1.8087   -2.1048 H   0  0  0  0  0  0  0  0  0  0  0  0
  1  2  1  0  0  0  0
  2  3  4  0  0  0  0
  3  4  4  0  0  0  0
  4  5  4  0  0  0  0
  5  6  1  0  0  0  0
  6  7  1  0  0  0  0
  6  8  1  0  0  0  0
  5  9  4  0  0  0  0
  2 10  4  0  0  0  0
  9 10  4  0  0  0  0
 10 11  1  0  0  0  0
  1 12  1  0  0  0  0
  1 13  1  0  0  0  0
  1 14  1  0  0  0  0
  3 15  1  0  0  0  0
  4 16  1  0  0  0  0
  6 17  1  0  0  0  0
  7 18  1  0  0  0  0
  7 19  1  0  0  0  0
  7 20  1  0  0  0  0
  8 21  1  0  0  0  0
  8 22  1  0  0  0  0
  8 23  1  0  0  0  0
  9 24  1  0  0  0  0
 11 25  1  0  0  0  0
M  END
