 xtb: 6.7.1 (edcfbbe)
          07082606353D

 16 16  0     0  0            999 V2000
    2.5521   -0.7737    0.9141 O   0  0  0  0  0  0  0  0  0  0  0  0
    2.0183   -0.1684   -0.2383 C   0  0  0  0  0  0  0  0  0  0  0  0
    0.5136   -0.0440   -0.1893 C   0  0  0  0  0  0  0  0  0  0  0  0
   -0.2769   -0.9353   -0.9069 C   0  0  0  0  0  0  0  0  0  0  0  0
   -1.6575   -0.8692   -0.8663 C   0  0  0  0  0  0  0  0  0  0  0  0
   -2.2790    0.0977   -0.0956 C   0  0  0  0  0  0  0  0  0  0  0  0
   -1.5151    0.9920    0.6324 C   0  0  0  0  0  0  0  0  0  0  0  0
   -0.1349    0.9133    0.5805 C   0  0  0  0  0  0  0  0  0  0  0  0
    0.9671    2.3245    1.7309 I   0  0  0  0  0  0  0  0  0  0  0  0
    2.4251   -0.1836    1.6677 H   0  0  0  0  0  0  0  0  0  0  0  0
    2.4684    0.8224   -0.4044 H   0  0  0  0  0  0  0  0  0  0  0  0
    2.3052   -0.8183   -1.0680 H   0  0  0  0  0  0  0  0  0  0  0  0
    0.2095   -1.6927   -1.5033 H   0  0  0  0  0  0  0  0  0  0  0  0
   -2.2469   -1.5726   -1.4344 H   0  0  0  0  0  0  0  0  0  0  0  0
   -3.3557    0.1602   -0.0559 H   0  0  0  0  0  0  0  0  0  0  0  0
   -1.9934    1.7476    1.2367 H   0  0  0  0  0  0  0  0  0  0  0  0
  1  2  1  0  0  0  0
  2  3  1  0  0  0  0
  3  4  4  0  0  0  0
  4  5  4  0  0  0  0
  5  6  4  0  0  0  0
  6  7  4  0  0  0  0
  3  8  4  0  0  0  0
  7  8  4  0  0  0  0
  8  9  1  0  0  0  0
  1 10  1  0  0  0  0
  2 11  1  0  0  0  0
  2 12  1  0  0  0  0
  4 13  1  0  0  0  0
  5 14  1  0  0  0  0
  6 15  1  0  0  0  0
  7 16  1  0  0  0  0
M  END
