 xtb: 6.7.1 (edcfbbe)
          07082622243D

 23 23  0     0  0            999 V2000
    2.1550    1.5935    0.6440 C   0  0  0  0  0  0  0  0  0  0  0  0
    0.7997    1.3192    0.4062 O   0  0  0  0  0  0  0  0  0  0  0  0
    0.5336    0.4942   -0.7208 C   0  0  0  0  0  0  0  0  0  0  0  0
    0.8694   -0.9801   -0.4640 C   0  0  0  0  0  0  0  0  0  0  0  0
    0.0010   -1.5326    0.6617 C   0  0  0  0  0  0  0  0  0  0  0  0
   -1.4761   -1.4052    0.3040 C   0  0  0  0  0  0  0  0  0  0  0  0
   -1.8611    0.0563    0.0212 C   0  0  0  0  0  0  0  0  0  0  0  0
   -1.8512    0.8396    1.1885 O   0  0  0  0  0  0  0  0  0  0  0  0
   -0.9523    0.6461   -1.0656 C   0  0  0  0  0  0  0  0  0  0  0  0
    2.1803    2.3469    1.4297 H   0  0  0  0  0  0  0  0  0  0  0  0
    2.6408    1.9904   -0.2557 H   0  0  0  0  0  0  0  0  0  0  0  0
    2.7044    0.7072    0.9804 H   0  0  0  0  0  0  0  0  0  0  0  0
    1.1365    0.8586   -1.5711 H   0  0  0  0  0  0  0  0  0  0  0  0
    1.9270   -1.0855   -0.2139 H   0  0  0  0  0  0  0  0  0  0  0  0
    0.6874   -1.5374   -1.3848 H   0  0  0  0  0  0  0  0  0  0  0  0
    0.2017   -0.9769    1.5800 H   0  0  0  0  0  0  0  0  0  0  0  0
    0.2500   -2.5803    0.8427 H   0  0  0  0  0  0  0  0  0  0  0  0
   -2.0914   -1.7728    1.1264 H   0  0  0  0  0  0  0  0  0  0  0  0
   -1.6946   -2.0034   -0.5831 H   0  0  0  0  0  0  0  0  0  0  0  0
   -2.9007    0.0814   -0.3314 H   0  0  0  0  0  0  0  0  0  0  0  0
   -0.9316    1.0905    1.3546 H   0  0  0  0  0  0  0  0  0  0  0  0
   -1.1448    0.1434   -2.0140 H   0  0  0  0  0  0  0  0  0  0  0  0
   -1.1831    1.7068   -1.1789 H   0  0  0  0  0  0  0  0  0  0  0  0
  1  2  1  0  0  0  0
  2  3  1  0  0  0  0
  3  4  1  0  0  0  0
  4  5  1  0  0  0  0
  5  6  1  0  0  0  0
  6  7  1  0  0  0  0
  7  8  1  0  0  0  0
  3  9  1  0  0  0  0
  7  9  1  0  0  0  0
  1 10  1  0  0  0  0
  1 11  1  0  0  0  0
  1 12  1  0  0  0  0
  3 13  1  0  0  0  0
  4 14  1  0  0  0  0
  4 15  1  0  0  0  0
  5 16  1  0  0  0  0
  5 17  1  0  0  0  0
  6 18  1  0  0  0  0
  6 19  1  0  0  0  0
  7 20  1  0  0  0  0
  8 21  1  0  0  0  0
  9 22  1  0  0  0  0
  9 23  1  0  0  0  0
M  END
