 xtb: 6.7.1 (edcfbbe)
          07062618313D

 18 20  0     0  0            999 V2000
    2.8013   -1.9958    0.5145 O   0  0  0  0  0  0  0  0  0  0  0  0
    2.1089   -1.0275    0.3678 C   0  0  0  0  0  0  0  0  0  0  0  0
    2.5390    0.2877    0.3719 N   0  0  0  0  0  0  0  0  0  0  0  0
    1.5289    1.2259    0.2053 C   0  0  0  0  0  0  0  0  0  0  0  0
    1.6659    2.4123    0.2735 O   0  0  0  0  0  0  0  0  0  0  0  0
    0.2955    0.4063    0.0024 C   0  0  0  0  0  0  0  0  0  0  0  0
    0.6374   -0.9410    0.1486 C   0  0  0  0  0  0  0  0  0  0  0  0
   -0.3090   -1.9443    0.0895 C   0  0  0  0  0  0  0  0  0  0  0  0
   -1.6381   -1.5797   -0.1002 C   0  0  0  0  0  0  0  0  0  0  0  0
   -1.9937   -0.2497   -0.2495 C   0  0  0  0  0  0  0  0  0  0  0  0
   -1.0257    0.7528   -0.2181 C   0  0  0  0  0  0  0  0  0  0  0  0
   -1.4408    2.1255   -0.4617 N   0  0  0  0  0  0  0  0  0  0  0  0
   -0.7681    2.7754   -1.2198 O   0  0  0  0  0  0  0  0  0  0  0  0
   -2.4585    2.4833    0.0841 O   0  0  0  0  0  0  0  0  0  0  0  0
    3.5016    0.5519    0.5281 H   0  0  0  0  0  0  0  0  0  0  0  0
   -0.0164   -2.9767    0.1981 H   0  0  0  0  0  0  0  0  0  0  0  0
   -2.4032   -2.3395   -0.1353 H   0  0  0  0  0  0  0  0  0  0  0  0
   -3.0250    0.0331   -0.3993 H   0  0  0  0  0  0  0  0  0  0  0  0
  1  2  2  0  0  0  0
  2  3  1  0  0  0  0
  3  4  1  0  0  0  0
  4  5  2  0  0  0  0
  4  6  1  0  0  0  0
  2  7  1  0  0  0  0
  6  7  4  0  0  0  0
  7  8  4  0  0  0  0
  8  9  4  0  0  0  0
  9 10  4  0  0  0  0
  6 11  4  0  0  0  0
 10 11  4  0  0  0  0
 11 12  1  0  0  0  0
 12 13  4  0  0  0  0
 12 14  4  0  0  0  0
 13 14  1  0  0  0  0
  3 15  1  0  0  0  0
  8 16  1  0  0  0  0
  9 17  1  0  0  0  0
 10 18  1  0  0  0  0
M  END
