 xtb: 6.7.1 (edcfbbe)
          07082617413D

 18 17  0     0  0            999 V2000
   -2.7564    0.2737    0.3894 C   0  0  0  0  0  0  0  0  0  0  0  0
   -1.5605   -0.2969   -0.3632 C   0  0  0  0  0  0  0  0  0  0  0  0
   -0.2373    0.2051    0.2100 C   0  0  0  0  0  0  0  0  0  0  0  0
    0.9612   -0.3646   -0.5417 C   0  0  0  0  0  0  0  0  0  0  0  0
    2.2842    0.1349    0.0285 C   0  0  0  0  0  0  0  0  0  0  0  0
    3.3374   -0.4359   -0.7190 O   0  0  0  0  0  0  0  0  0  0  0  0
   -3.6875   -0.0956   -0.0339 H   0  0  0  0  0  0  0  0  0  0  0  0
   -2.7190   -0.0124    1.4384 H   0  0  0  0  0  0  0  0  0  0  0  0
   -2.7604    1.3601    0.3320 H   0  0  0  0  0  0  0  0  0  0  0  0
   -1.5848   -1.3874   -0.3104 H   0  0  0  0  0  0  0  0  0  0  0  0
   -1.6262   -0.0155   -1.4163 H   0  0  0  0  0  0  0  0  0  0  0  0
   -0.1714   -0.0760    1.2640 H   0  0  0  0  0  0  0  0  0  0  0  0
   -0.2128    1.2964    0.1577 H   0  0  0  0  0  0  0  0  0  0  0  0
    0.9128   -0.0837   -1.5949 H   0  0  0  0  0  0  0  0  0  0  0  0
    0.9541   -1.4545   -0.4899 H   0  0  0  0  0  0  0  0  0  0  0  0
    2.3231    1.2330   -0.0302 H   0  0  0  0  0  0  0  0  0  0  0  0
    2.3650   -0.1534    1.0873 H   0  0  0  0  0  0  0  0  0  0  0  0
    4.1784   -0.1272   -0.3676 H   0  0  0  0  0  0  0  0  0  0  0  0
  1  2  1  0  0  0  0
  2  3  1  0  0  0  0
  3  4  1  0  0  0  0
  4  5  1  0  0  0  0
  5  6  1  0  0  0  0
  1  7  1  0  0  0  0
  1  8  1  0  0  0  0
  1  9  1  0  0  0  0
  2 10  1  0  0  0  0
  2 11  1  0  0  0  0
  3 12  1  0  0  0  0
  3 13  1  0  0  0  0
  4 14  1  0  0  0  0
  4 15  1  0  0  0  0
  5 16  1  0  0  0  0
  5 17  1  0  0  0  0
  6 18  1  0  0  0  0
M  END
