 xtb: 6.7.1 (edcfbbe)
          07092608293D

 27 26  0     0  0            999 V2000
    3.1490    0.8526    0.7172 C   0  0  0  0  0  0  0  0  0  0  0  0
    2.5757   -0.1221   -0.3087 C   0  0  0  0  0  0  0  0  0  0  0  0
    3.4756   -1.3515   -0.4210 C   0  0  0  0  0  0  0  0  0  0  0  0
    1.1538   -0.5600    0.0585 C   0  0  0  0  0  0  0  0  0  0  0  0
    0.1419    0.5738   -0.0128 C   0  0  0  0  0  0  0  0  0  0  0  0
   -1.1646    0.0191    0.1894 O   0  0  0  0  0  0  0  0  0  0  0  0
   -2.1879    0.8408    0.0234 C   0  0  0  0  0  0  0  0  0  0  0  0
   -2.0998    2.0074   -0.2739 O   0  0  0  0  0  0  0  0  0  0  0  0
   -3.5354    0.1532    0.2057 C   0  0  0  0  0  0  0  0  0  0  0  0
   -3.7677   -0.7859   -0.9876 C   0  0  0  0  0  0  0  0  0  0  0  0
   -4.5395    1.1235    0.3103 O   0  0  0  0  0  0  0  0  0  0  0  0
    2.5776    1.7762    0.7460 H   0  0  0  0  0  0  0  0  0  0  0  0
    4.1771    1.1007    0.4639 H   0  0  0  0  0  0  0  0  0  0  0  0
    3.1403    0.4068    1.7094 H   0  0  0  0  0  0  0  0  0  0  0  0
    2.5439    0.3759   -1.2842 H   0  0  0  0  0  0  0  0  0  0  0  0
    4.4848   -1.0601   -0.7012 H   0  0  0  0  0  0  0  0  0  0  0  0
    3.0975   -2.0402   -1.1728 H   0  0  0  0  0  0  0  0  0  0  0  0
    3.5220   -1.8744    0.5316 H   0  0  0  0  0  0  0  0  0  0  0  0
    0.8284   -1.3419   -0.6306 H   0  0  0  0  0  0  0  0  0  0  0  0
    1.1458   -0.9808    1.0654 H   0  0  0  0  0  0  0  0  0  0  0  0
    0.1671    1.0685   -0.9903 H   0  0  0  0  0  0  0  0  0  0  0  0
    0.3176    1.3303    0.7580 H   0  0  0  0  0  0  0  0  0  0  0  0
   -3.5243   -0.4299    1.1342 H   0  0  0  0  0  0  0  0  0  0  0  0
   -3.7466   -0.2196   -1.9164 H   0  0  0  0  0  0  0  0  0  0  0  0
   -2.9987   -1.5523   -1.0124 H   0  0  0  0  0  0  0  0  0  0  0  0
   -4.7436   -1.2524   -0.8875 H   0  0  0  0  0  0  0  0  0  0  0  0
   -4.1901    1.9423   -0.0770 H   0  0  0  0  0  0  0  0  0  0  0  0
  1  2  1  0  0  0  0
  2  3  1  0  0  0  0
  2  4  1  0  0  0  0
  4  5  1  0  0  0  0
  5  6  1  0  0  0  0
  6  7  1  0  0  0  0
  7  8  2  0  0  0  0
  7  9  1  0  0  0  0
  9 10  1  0  0  0  0
  9 11  1  0  0  0  0
  1 12  1  0  0  0  0
  1 13  1  0  0  0  0
  1 14  1  0  0  0  0
  2 15  1  0  0  0  0
  3 16  1  0  0  0  0
  3 17  1  0  0  0  0
  3 18  1  0  0  0  0
  4 19  1  0  0  0  0
  4 20  1  0  0  0  0
  5 21  1  0  0  0  0
  5 22  1  0  0  0  0
  9 23  1  0  0  0  0
 10 24  1  0  0  0  0
 10 25  1  0  0  0  0
 10 26  1  0  0  0  0
 11 27  1  0  0  0  0
M  END
