 xtb: 6.7.1 (edcfbbe)
          07082619223D

 17 17  0     0  0            999 V2000
    2.4749   -1.5402   -0.4590 O   0  0  0  0  0  0  0  0  0  0  0  0
    1.9771   -0.4511   -0.6130 C   0  0  0  0  0  0  0  0  0  0  0  0
    0.9204    0.0217    0.0670 N   0  0  0  0  0  0  0  0  0  0  0  0
    0.2709    1.2800   -0.2050 C   0  0  0  0  0  0  0  0  0  0  0  0
   -1.1749    1.0093   -0.6469 C   0  0  0  0  0  0  0  0  0  0  0  0
   -1.8633    0.2472    0.3151 O   0  0  0  0  0  0  0  0  0  0  0  0
   -1.2327   -0.9970    0.5325 C   0  0  0  0  0  0  0  0  0  0  0  0
    0.2080   -0.8078    1.0171 C   0  0  0  0  0  0  0  0  0  0  0  0
    2.3671    0.2894   -1.3370 H   0  0  0  0  0  0  0  0  0  0  0  0
    0.2593    1.8827    0.7111 H   0  0  0  0  0  0  0  0  0  0  0  0
    0.8142    1.8175   -0.9838 H   0  0  0  0  0  0  0  0  0  0  0  0
   -1.7287    1.9436   -0.7517 H   0  0  0  0  0  0  0  0  0  0  0  0
   -1.1660    0.4791   -1.6123 H   0  0  0  0  0  0  0  0  0  0  0  0
   -1.2308   -1.5835   -0.3987 H   0  0  0  0  0  0  0  0  0  0  0  0
   -1.8302   -1.5134    1.2847 H   0  0  0  0  0  0  0  0  0  0  0  0
    0.2067   -0.3134    1.9947 H   0  0  0  0  0  0  0  0  0  0  0  0
    0.7281   -1.7641    1.0853 H   0  0  0  0  0  0  0  0  0  0  0  0
  1  2  2  0  0  0  0
  2  3  4  0  0  0  0
  3  4  1  0  0  0  0
  4  5  1  0  0  0  0
  5  6  1  0  0  0  0
  6  7  1  0  0  0  0
  3  8  1  0  0  0  0
  7  8  1  0  0  0  0
  2  9  1  0  0  0  0
  4 10  1  0  0  0  0
  4 11  1  0  0  0  0
  5 12  1  0  0  0  0
  5 13  1  0  0  0  0
  7 14  1  0  0  0  0
  7 15  1  0  0  0  0
  8 16  1  0  0  0  0
  8 17  1  0  0  0  0
M  END
