 xtb: 6.7.1 (edcfbbe)
          07092608413D

 27 26  0     0  0            999 V2000
   -5.2213    1.2644    0.0602 C   0  0  0  0  0  0  0  0  0  0  0  0
   -4.1283    0.4311   -0.2226 O   0  0  0  0  0  0  0  0  0  0  0  0
   -2.8875    1.0455    0.0394 C   0  0  0  0  0  0  0  0  0  0  0  0
   -1.7806    0.0546   -0.2970 C   0  0  0  0  0  0  0  0  0  0  0  0
   -0.4122    0.6302   -0.0161 C   0  0  0  0  0  0  0  0  0  0  0  0
   -0.1958    1.7227    0.4390 O   0  0  0  0  0  0  0  0  0  0  0  0
    0.5433   -0.2409   -0.3418 O   0  0  0  0  0  0  0  0  0  0  0  0
    1.8916    0.1789   -0.1197 C   0  0  0  0  0  0  0  0  0  0  0  0
    2.8349   -0.9607   -0.4967 C   0  0  0  0  0  0  0  0  0  0  0  0
    2.6282   -2.1519    0.4347 C   0  0  0  0  0  0  0  0  0  0  0  0
    4.2794   -0.4715   -0.4464 C   0  0  0  0  0  0  0  0  0  0  0  0
   -5.2381    1.5544    1.1183 H   0  0  0  0  0  0  0  0  0  0  0  0
   -5.1968    2.1752   -0.5511 H   0  0  0  0  0  0  0  0  0  0  0  0
   -6.1171    0.6932   -0.1744 H   0  0  0  0  0  0  0  0  0  0  0  0
   -2.8188    1.3388    1.0978 H   0  0  0  0  0  0  0  0  0  0  0  0
   -2.7735    1.9569   -0.5666 H   0  0  0  0  0  0  0  0  0  0  0  0
   -1.8388   -0.2284   -1.3491 H   0  0  0  0  0  0  0  0  0  0  0  0
   -1.9088   -0.8560    0.2907 H   0  0  0  0  0  0  0  0  0  0  0  0
    2.0864    1.0705   -0.7263 H   0  0  0  0  0  0  0  0  0  0  0  0
    2.0088    0.4552    0.9343 H   0  0  0  0  0  0  0  0  0  0  0  0
    2.5930   -1.2677   -1.5192 H   0  0  0  0  0  0  0  0  0  0  0  0
    1.5894   -2.4701    0.4111 H   0  0  0  0  0  0  0  0  0  0  0  0
    3.2542   -2.9860    0.1277 H   0  0  0  0  0  0  0  0  0  0  0  0
    2.8875   -1.8831    1.4566 H   0  0  0  0  0  0  0  0  0  0  0  0
    4.5302   -0.1342    0.5569 H   0  0  0  0  0  0  0  0  0  0  0  0
    4.9573   -1.2765   -0.7179 H   0  0  0  0  0  0  0  0  0  0  0  0
    4.4334    0.3554   -1.1354 H   0  0  0  0  0  0  0  0  0  0  0  0
  1  2  1  0  0  0  0
  2  3  1  0  0  0  0
  3  4  1  0  0  0  0
  4  5  1  0  0  0  0
  5  6  2  0  0  0  0
  5  7  1  0  0  0  0
  7  8  1  0  0  0  0
  8  9  1  0  0  0  0
  9 10  1  0  0  0  0
  9 11  1  0  0  0  0
  1 12  1  0  0  0  0
  1 13  1  0  0  0  0
  1 14  1  0  0  0  0
  3 15  1  0  0  0  0
  3 16  1  0  0  0  0
  4 17  1  0  0  0  0
  4 18  1  0  0  0  0
  8 19  1  0  0  0  0
  8 20  1  0  0  0  0
  9 21  1  0  0  0  0
 10 22  1  0  0  0  0
 10 23  1  0  0  0  0
 10 24  1  0  0  0  0
 11 25  1  0  0  0  0
 11 26  1  0  0  0  0
 11 27  1  0  0  0  0
M  END
