 xtb: 6.7.1 (edcfbbe)
          07092621083D

 25 24  0     0  0            999 V2000
   -3.4150    1.0276   -1.4783 C   0  0  0  0  0  0  0  0  0  0  0  0
   -2.6390   -0.2291   -1.0545 C   0  0  0  0  0  0  0  0  0  0  0  0
   -3.4926   -1.2974   -0.7529 O   0  0  0  0  0  0  0  0  0  0  0  0
   -1.8052    0.1161    0.1724 C   0  0  0  0  0  0  0  0  0  0  0  0
   -2.1040   -0.2635    1.2788 O   0  0  0  0  0  0  0  0  0  0  0  0
   -0.7744    0.8992   -0.1152 O   0  0  0  0  0  0  0  0  0  0  0  0
    0.0533    1.3049    0.9719 C   0  0  0  0  0  0  0  0  0  0  0  0
    1.0059    0.1965    1.4095 C   0  0  0  0  0  0  0  0  0  0  0  0
    1.9827    0.0251    0.4128 O   0  0  0  0  0  0  0  0  0  0  0  0
    2.8899   -1.0116    0.6910 C   0  0  0  0  0  0  0  0  0  0  0  0
    3.9503   -1.0304   -0.3957 C   0  0  0  0  0  0  0  0  0  0  0  0
    5.0469    0.3593   -0.2262 Cl  0  0  0  0  0  0  0  0  0  0  0  0
   -4.0505    0.7829   -2.3246 H   0  0  0  0  0  0  0  0  0  0  0  0
   -4.0431    1.3724   -0.6595 H   0  0  0  0  0  0  0  0  0  0  0  0
   -2.7218    1.8148   -1.7594 H   0  0  0  0  0  0  0  0  0  0  0  0
   -1.9778   -0.5446   -1.8691 H   0  0  0  0  0  0  0  0  0  0  0  0
   -3.6374   -1.2922    0.2063 H   0  0  0  0  0  0  0  0  0  0  0  0
   -0.5768    1.5957    1.8182 H   0  0  0  0  0  0  0  0  0  0  0  0
    0.6245    2.1545    0.5973 H   0  0  0  0  0  0  0  0  0  0  0  0
    1.4755    0.4845    2.3628 H   0  0  0  0  0  0  0  0  0  0  0  0
    0.4453   -0.7365    1.5681 H   0  0  0  0  0  0  0  0  0  0  0  0
    2.3687   -1.9837    0.7003 H   0  0  0  0  0  0  0  0  0  0  0  0
    3.3552   -0.8622    1.6772 H   0  0  0  0  0  0  0  0  0  0  0  0
    4.5581   -1.9315   -0.3293 H   0  0  0  0  0  0  0  0  0  0  0  0
    3.4814   -0.9508   -1.3754 H   0  0  0  0  0  0  0  0  0  0  0  0
  1  2  1  0  0  0  0
  2  3  1  0  0  0  0
  2  4  1  0  0  0  0
  4  5  2  0  0  0  0
  4  6  1  0  0  0  0
  6  7  1  0  0  0  0
  7  8  1  0  0  0  0
  8  9  1  0  0  0  0
  9 10  1  0  0  0  0
 10 11  1  0  0  0  0
 11 12  1  0  0  0  0
  1 13  1  0  0  0  0
  1 14  1  0  0  0  0
  1 15  1  0  0  0  0
  2 16  1  0  0  0  0
  3 17  1  0  0  0  0
  7 18  1  0  0  0  0
  7 19  1  0  0  0  0
  8 20  1  0  0  0  0
  8 21  1  0  0  0  0
 10 22  1  0  0  0  0
 10 23  1  0  0  0  0
 11 24  1  0  0  0  0
 11 25  1  0  0  0  0
M  END
