 xtb: 6.7.1 (edcfbbe)
          07082618223D

 17 16  0     0  0            999 V2000
    1.2849   -0.0564    2.6565 O   0  0  0  0  0  0  0  0  0  0  0  0
    1.2655   -1.1299    1.7551 C   0  0  0  0  0  0  0  0  0  0  0  0
    1.1863   -0.6512    0.3060 C   0  0  0  0  0  0  0  0  0  0  0  0
   -0.0519    0.0067    0.1429 O   0  0  0  0  0  0  0  0  0  0  0  0
   -0.2459    0.5305   -1.1535 C   0  0  0  0  0  0  0  0  0  0  0  0
   -1.6303    1.1767   -1.1861 C   0  0  0  0  0  0  0  0  0  0  0  0
   -2.6492    0.2316   -1.0027 O   0  0  0  0  0  0  0  0  0  0  0  0
    0.5417    0.5182    2.4351 H   0  0  0  0  0  0  0  0  0  0  0  0
    0.4096   -1.7898    1.9570 H   0  0  0  0  0  0  0  0  0  0  0  0
    2.1910   -1.6871    1.9122 H   0  0  0  0  0  0  0  0  0  0  0  0
    1.2614   -1.5059   -0.3819 H   0  0  0  0  0  0  0  0  0  0  0  0
    2.0116    0.0443    0.0947 H   0  0  0  0  0  0  0  0  0  0  0  0
    0.5279    1.2762   -1.3869 H   0  0  0  0  0  0  0  0  0  0  0  0
   -0.1913   -0.2780   -1.8971 H   0  0  0  0  0  0  0  0  0  0  0  0
   -1.6770    1.9525   -0.4085 H   0  0  0  0  0  0  0  0  0  0  0  0
   -1.8024    1.6372   -2.1608 H   0  0  0  0  0  0  0  0  0  0  0  0
   -2.4318   -0.2756   -0.2109 H   0  0  0  0  0  0  0  0  0  0  0  0
  1  2  1  0  0  0  0
  2  3  1  0  0  0  0
  3  4  1  0  0  0  0
  4  5  1  0  0  0  0
  5  6  1  0  0  0  0
  6  7  1  0  0  0  0
  1  8  1  0  0  0  0
  2  9  1  0  0  0  0
  2 10  1  0  0  0  0
  3 11  1  0  0  0  0
  3 12  1  0  0  0  0
  5 13  1  0  0  0  0
  5 14  1  0  0  0  0
  6 15  1  0  0  0  0
  6 16  1  0  0  0  0
  7 17  1  0  0  0  0
M  END
