 xtb: 6.7.1 (edcfbbe)
          07072620053D

 24 24  0     0  0            999 V2000
   -2.5272   -0.5620   -1.1655 C   0  0  0  0  0  0  0  0  0  0  0  0
   -2.1095    0.5631   -0.2195 C   0  0  0  0  0  0  0  0  0  0  0  0
   -3.2931    1.0614    0.6033 C   0  0  0  0  0  0  0  0  0  0  0  0
   -1.1432    0.1000    0.7201 O   0  0  0  0  0  0  0  0  0  0  0  0
    0.1541   -0.0284    0.3814 C   0  0  0  0  0  0  0  0  0  0  0  0
    0.9890   -0.5088    1.4011 C   0  0  0  0  0  0  0  0  0  0  0  0
    2.3362   -0.6682    1.1895 C   0  0  0  0  0  0  0  0  0  0  0  0
    2.9001   -0.3526   -0.0501 C   0  0  0  0  0  0  0  0  0  0  0  0
    4.3311   -0.5122   -0.2885 C   0  0  0  0  0  0  0  0  0  0  0  0
    4.9039   -0.2681   -1.3229 O   0  0  0  0  0  0  0  0  0  0  0  0
    2.0673    0.1233   -1.0633 C   0  0  0  0  0  0  0  0  0  0  0  0
    0.7135    0.2835   -0.8599 C   0  0  0  0  0  0  0  0  0  0  0  0
   -3.2564   -0.1926   -1.8811 H   0  0  0  0  0  0  0  0  0  0  0  0
   -1.6699   -0.9543   -1.7075 H   0  0  0  0  0  0  0  0  0  0  0  0
   -2.9718   -1.3732   -0.5940 H   0  0  0  0  0  0  0  0  0  0  0  0
   -1.6926    1.4036   -0.7919 H   0  0  0  0  0  0  0  0  0  0  0  0
   -2.9743    1.8555    1.2731 H   0  0  0  0  0  0  0  0  0  0  0  0
   -3.6953    0.2468    1.1994 H   0  0  0  0  0  0  0  0  0  0  0  0
   -4.0700    1.4411   -0.0537 H   0  0  0  0  0  0  0  0  0  0  0  0
    0.5385   -0.7450    2.3524 H   0  0  0  0  0  0  0  0  0  0  0  0
    2.9677   -1.0389    1.9841 H   0  0  0  0  0  0  0  0  0  0  0  0
    4.8890   -0.8913    0.5926 H   0  0  0  0  0  0  0  0  0  0  0  0
    2.5093    0.3640   -2.0188 H   0  0  0  0  0  0  0  0  0  0  0  0
    0.1036    0.6531   -1.6691 H   0  0  0  0  0  0  0  0  0  0  0  0
  1  2  1  0  0  0  0
  2  3  1  0  0  0  0
  2  4  1  0  0  0  0
  4  5  1  0  0  0  0
  5  6  4  0  0  0  0
  6  7  2  0  0  0  0
  7  8  4  0  0  0  0
  8  9  1  0  0  0  0
  9 10  2  0  0  0  0
  8 11  4  0  0  0  0
  5 12  4  0  0  0  0
 11 12  4  0  0  0  0
  1 13  1  0  0  0  0
  1 14  1  0  0  0  0
  1 15  1  0  0  0  0
  2 16  1  0  0  0  0
  3 17  1  0  0  0  0
  3 18  1  0  0  0  0
  3 19  1  0  0  0  0
  6 20  1  0  0  0  0
  7 21  1  0  0  0  0
  9 22  1  0  0  0  0
 11 23  1  0  0  0  0
 12 24  1  0  0  0  0
M  END
