 xtb: 6.7.1 (edcfbbe)
          07082604503D

 23 23  0     0  0            999 V2000
    3.9392    0.4797   -0.0893 C   0  0  0  0  0  0  0  0  0  0  0  0
    3.0676   -0.4964    0.4252 O   0  0  0  0  0  0  0  0  0  0  0  0
    1.7425   -0.4136    0.1174 C   0  0  0  0  0  0  0  0  0  0  0  0
    1.1643    0.5745   -0.6693 C   0  0  0  0  0  0  0  0  0  0  0  0
   -0.2002    0.5520   -0.9127 C   0  0  0  0  0  0  0  0  0  0  0  0
   -1.0130   -0.4424   -0.3891 C   0  0  0  0  0  0  0  0  0  0  0  0
   -2.4994   -0.4177   -0.6029 C   0  0  0  0  0  0  0  0  0  0  0  0
   -3.1884    0.3242    0.5555 C   0  0  0  0  0  0  0  0  0  0  0  0
   -2.8346    1.6823    0.6149 O   0  0  0  0  0  0  0  0  0  0  0  0
   -0.4240   -1.4260    0.4008 C   0  0  0  0  0  0  0  0  0  0  0  0
    0.9305   -1.4172    0.6497 C   0  0  0  0  0  0  0  0  0  0  0  0
    4.9293    0.2132    0.2771 H   0  0  0  0  0  0  0  0  0  0  0  0
    3.9465    0.4763   -1.1843 H   0  0  0  0  0  0  0  0  0  0  0  0
    3.6796    1.4813    0.2693 H   0  0  0  0  0  0  0  0  0  0  0  0
    1.7590    1.3644   -1.1004 H   0  0  0  0  0  0  0  0  0  0  0  0
   -0.6328    1.3241   -1.5338 H   0  0  0  0  0  0  0  0  0  0  0  0
   -2.8950   -1.4331   -0.6470 H   0  0  0  0  0  0  0  0  0  0  0  0
   -2.7390    0.0951   -1.5358 H   0  0  0  0  0  0  0  0  0  0  0  0
   -4.2724    0.3071    0.4218 H   0  0  0  0  0  0  0  0  0  0  0  0
   -2.9430   -0.1778    1.5039 H   0  0  0  0  0  0  0  0  0  0  0  0
   -1.8712    1.7397    0.6447 H   0  0  0  0  0  0  0  0  0  0  0  0
   -1.0379   -2.2098    0.8206 H   0  0  0  0  0  0  0  0  0  0  0  0
    1.3922   -2.1799    1.2565 H   0  0  0  0  0  0  0  0  0  0  0  0
  1  2  1  0  0  0  0
  2  3  1  0  0  0  0
  3  4  4  0  0  0  0
  4  5  4  0  0  0  0
  5  6  4  0  0  0  0
  6  7  1  0  0  0  0
  7  8  1  0  0  0  0
  8  9  1  0  0  0  0
  6 10  4  0  0  0  0
  3 11  4  0  0  0  0
 10 11  4  0  0  0  0
  1 12  1  0  0  0  0
  1 13  1  0  0  0  0
  1 14  1  0  0  0  0
  4 15  1  0  0  0  0
  5 16  1  0  0  0  0
  7 17  1  0  0  0  0
  7 18  1  0  0  0  0
  8 19  1  0  0  0  0
  8 20  1  0  0  0  0
  9 21  1  0  0  0  0
 10 22  1  0  0  0  0
 11 23  1  0  0  0  0
M  END
