 xtb: 6.7.1 (edcfbbe)
          07072609483D

 33 33  0     0  0            999 V2000
    4.2746    0.5499    0.4434 C   0  0  0  0  0  0  0  0  0  0  0  0
    2.8631    0.4608   -0.1218 C   0  0  0  0  0  0  0  0  0  0  0  0
    1.8852    1.3746    0.6222 C   0  0  0  0  0  0  0  0  0  0  0  0
    0.4779    1.1693    0.0720 C   0  0  0  0  0  0  0  0  0  0  0  0
    0.1010   -0.3140    0.1406 C   0  0  0  0  0  0  0  0  0  0  0  0
   -1.2886   -0.5347   -0.4541 C   0  0  0  0  0  0  0  0  0  0  0  0
   -2.2166    0.2524    0.2557 O   0  0  0  0  0  0  0  0  0  0  0  0
   -3.5357    0.1362   -0.2293 C   0  0  0  0  0  0  0  0  0  0  0  0
   -4.4208    1.0237    0.6452 C   0  0  0  0  0  0  0  0  0  0  0  0
   -4.4282    0.5893    1.9781 O   0  0  0  0  0  0  0  0  0  0  0  0
    1.1810   -1.1393   -0.5832 C   0  0  0  0  0  0  0  0  0  0  0  0
    0.9587   -2.6450   -0.4887 C   0  0  0  0  0  0  0  0  0  0  0  0
    2.4528   -0.8896   -0.0206 O   0  0  0  0  0  0  0  0  0  0  0  0
    4.9331   -0.1206   -0.1013 H   0  0  0  0  0  0  0  0  0  0  0  0
    4.6481    1.5666    0.3596 H   0  0  0  0  0  0  0  0  0  0  0  0
    4.2694    0.2535    1.4886 H   0  0  0  0  0  0  0  0  0  0  0  0
    2.8733    0.7495   -1.1894 H   0  0  0  0  0  0  0  0  0  0  0  0
    2.1932    2.4147    0.5079 H   0  0  0  0  0  0  0  0  0  0  0  0
    1.9068    1.1201    1.6836 H   0  0  0  0  0  0  0  0  0  0  0  0
   -0.2477    1.7544    0.6372 H   0  0  0  0  0  0  0  0  0  0  0  0
    0.4410    1.4992   -0.9703 H   0  0  0  0  0  0  0  0  0  0  0  0
    0.0815   -0.6225    1.1907 H   0  0  0  0  0  0  0  0  0  0  0  0
   -1.2929   -0.2493   -1.5187 H   0  0  0  0  0  0  0  0  0  0  0  0
   -1.5785   -1.5935   -0.3853 H   0  0  0  0  0  0  0  0  0  0  0  0
   -3.8718   -0.9100   -0.1656 H   0  0  0  0  0  0  0  0  0  0  0  0
   -3.5924    0.4589   -1.2796 H   0  0  0  0  0  0  0  0  0  0  0  0
   -5.4541    0.9847    0.2951 H   0  0  0  0  0  0  0  0  0  0  0  0
   -4.0560    2.0586    0.5785 H   0  0  0  0  0  0  0  0  0  0  0  0
   -3.5062    0.4759    2.2414 H   0  0  0  0  0  0  0  0  0  0  0  0
    1.1947   -0.8360   -1.6474 H   0  0  0  0  0  0  0  0  0  0  0  0
    1.8518   -3.1524   -0.8432 H   0  0  0  0  0  0  0  0  0  0  0  0
    0.1133   -2.9528   -1.0959 H   0  0  0  0  0  0  0  0  0  0  0  0
    0.7889   -2.9326    0.5451 H   0  0  0  0  0  0  0  0  0  0  0  0
  1  2  1  0  0  0  0
  2  3  1  0  0  0  0
  3  4  1  0  0  0  0
  4  5  1  0  0  0  0
  5  6  1  0  0  0  0
  6  7  1  0  0  0  0
  7  8  1  0  0  0  0
  8  9  1  0  0  0  0
  9 10  1  0  0  0  0
  5 11  1  0  0  0  0
 11 12  1  0  0  0  0
  2 13  1  0  0  0  0
 11 13  1  0  0  0  0
  1 14  1  0  0  0  0
  1 15  1  0  0  0  0
  1 16  1  0  0  0  0
  2 17  1  0  0  0  0
  3 18  1  0  0  0  0
  3 19  1  0  0  0  0
  4 20  1  0  0  0  0
  4 21  1  0  0  0  0
  5 22  1  0  0  0  0
  6 23  1  0  0  0  0
  6 24  1  0  0  0  0
  8 25  1  0  0  0  0
  8 26  1  0  0  0  0
  9 27  1  0  0  0  0
  9 28  1  0  0  0  0
 10 29  1  0  0  0  0
 11 30  1  0  0  0  0
 12 31  1  0  0  0  0
 12 32  1  0  0  0  0
 12 33  1  0  0  0  0
M  END
