 xtb: 6.7.1 (edcfbbe)
          07072604453D

 33 32  0     0  0            999 V2000
    5.1713    0.2178    0.4686 C   0  0  0  0  0  0  0  0  0  0  0  0
    3.8726   -0.5365    0.6815 C   0  0  0  0  0  0  0  0  0  0  0  0
    3.1064   -0.4638   -0.5231 O   0  0  0  0  0  0  0  0  0  0  0  0
    1.8395   -0.8644   -0.4560 C   0  0  0  0  0  0  0  0  0  0  0  0
    1.3274   -1.3038    0.5431 O   0  0  0  0  0  0  0  0  0  0  0  0
    1.1442   -0.7118   -1.7911 C   0  0  0  0  0  0  0  0  0  0  0  0
   -0.3672   -0.7708   -1.5935 C   0  0  0  0  0  0  0  0  0  0  0  0
   -0.8225    0.5080   -0.8928 C   0  0  0  0  0  0  0  0  0  0  0  0
   -0.2127    1.5516   -1.0483 O   0  0  0  0  0  0  0  0  0  0  0  0
   -1.9375    0.4451   -0.1318 N   0  0  0  0  0  0  0  0  0  0  0  0
   -2.6832   -0.7611    0.1590 C   0  0  0  0  0  0  0  0  0  0  0  0
   -2.1069   -1.5109    1.3617 C   0  0  0  0  0  0  0  0  0  0  0  0
   -2.3678    1.6537    0.5504 C   0  0  0  0  0  0  0  0  0  0  0  0
   -3.4720    2.3733   -0.2190 C   0  0  0  0  0  0  0  0  0  0  0  0
    5.7275   -0.2210   -0.3553 H   0  0  0  0  0  0  0  0  0  0  0  0
    4.9629    1.2575    0.2319 H   0  0  0  0  0  0  0  0  0  0  0  0
    5.7738    0.1710    1.3711 H   0  0  0  0  0  0  0  0  0  0  0  0
    3.2853   -0.1025    1.4981 H   0  0  0  0  0  0  0  0  0  0  0  0
    4.0581   -1.5910    0.9176 H   0  0  0  0  0  0  0  0  0  0  0  0
    1.4884   -1.5107   -2.4508 H   0  0  0  0  0  0  0  0  0  0  0  0
    1.4365    0.2471   -2.2203 H   0  0  0  0  0  0  0  0  0  0  0  0
   -0.8721   -0.8259   -2.5607 H   0  0  0  0  0  0  0  0  0  0  0  0
   -0.6077   -1.6556   -1.0101 H   0  0  0  0  0  0  0  0  0  0  0  0
   -3.7160   -0.4693    0.3688 H   0  0  0  0  0  0  0  0  0  0  0  0
   -2.7017   -1.4063   -0.7213 H   0  0  0  0  0  0  0  0  0  0  0  0
   -2.2235   -0.9207    2.2673 H   0  0  0  0  0  0  0  0  0  0  0  0
   -1.0458   -1.7023    1.2223 H   0  0  0  0  0  0  0  0  0  0  0  0
   -2.6257   -2.4565    1.4967 H   0  0  0  0  0  0  0  0  0  0  0  0
   -2.7105    1.3883    1.5535 H   0  0  0  0  0  0  0  0  0  0  0  0
   -1.4976    2.3084    0.6328 H   0  0  0  0  0  0  0  0  0  0  0  0
   -3.7725    3.2700    0.3162 H   0  0  0  0  0  0  0  0  0  0  0  0
   -3.1073    2.6591   -1.2020 H   0  0  0  0  0  0  0  0  0  0  0  0
   -4.3439    1.7338   -0.3426 H   0  0  0  0  0  0  0  0  0  0  0  0
  1  2  1  0  0  0  0
  2  3  1  0  0  0  0
  3  4  1  0  0  0  0
  4  5  2  0  0  0  0
  4  6  1  0  0  0  0
  6  7  1  0  0  0  0
  7  8  1  0  0  0  0
  8  9  2  0  0  0  0
  8 10  4  0  0  0  0
 10 11  1  0  0  0  0
 11 12  1  0  0  0  0
 10 13  1  0  0  0  0
 13 14  1  0  0  0  0
  1 15  1  0  0  0  0
  1 16  1  0  0  0  0
  1 17  1  0  0  0  0
  2 18  1  0  0  0  0
  2 19  1  0  0  0  0
  6 20  1  0  0  0  0
  6 21  1  0  0  0  0
  7 22  1  0  0  0  0
  7 23  1  0  0  0  0
 11 24  1  0  0  0  0
 11 25  1  0  0  0  0
 12 26  1  0  0  0  0
 12 27  1  0  0  0  0
 12 28  1  0  0  0  0
 13 29  1  0  0  0  0
 13 30  1  0  0  0  0
 14 31  1  0  0  0  0
 14 32  1  0  0  0  0
 14 33  1  0  0  0  0
M  END
