 xtb: 6.7.1 (edcfbbe)
          07092616493D

 26 26  0     0  0            999 V2000
   -3.0833    1.1760   -1.0294 C   0  0  0  0  0  0  0  0  0  0  0  0
   -2.0281    0.5046   -1.6911 O   0  0  0  0  0  0  0  0  0  0  0  0
   -1.0082    0.0223   -0.8539 C   0  0  0  0  0  0  0  0  0  0  0  0
   -0.2906    1.1255   -0.0550 C   0  0  0  0  0  0  0  0  0  0  0  0
    1.0422    0.6311    0.4258 C   0  0  0  0  0  0  0  0  0  0  0  0
    2.2037    0.9275   -0.2756 C   0  0  0  0  0  0  0  0  0  0  0  0
    3.4277    0.4429    0.1517 C   0  0  0  0  0  0  0  0  0  0  0  0
    3.5032   -0.3506    1.2833 C   0  0  0  0  0  0  0  0  0  0  0  0
    2.3491   -0.6561    1.9850 C   0  0  0  0  0  0  0  0  0  0  0  0
    1.1271   -0.1669    1.5599 C   0  0  0  0  0  0  0  0  0  0  0  0
   -1.4811   -0.9216    0.0651 O   0  0  0  0  0  0  0  0  0  0  0  0
   -1.8809   -2.1418   -0.5185 C   0  0  0  0  0  0  0  0  0  0  0  0
   -3.4016    0.6239   -0.1411 H   0  0  0  0  0  0  0  0  0  0  0  0
   -2.7904    2.1906   -0.7413 H   0  0  0  0  0  0  0  0  0  0  0  0
   -3.9031    1.2263   -1.7435 H   0  0  0  0  0  0  0  0  0  0  0  0
   -0.2997   -0.4474   -1.5583 H   0  0  0  0  0  0  0  0  0  0  0  0
   -0.9224    1.3946    0.7922 H   0  0  0  0  0  0  0  0  0  0  0  0
   -0.1677    1.9886   -0.7107 H   0  0  0  0  0  0  0  0  0  0  0  0
    2.1493    1.5448   -1.1613 H   0  0  0  0  0  0  0  0  0  0  0  0
    4.3242    0.6852   -0.4003 H   0  0  0  0  0  0  0  0  0  0  0  0
    4.4581   -0.7294    1.6171 H   0  0  0  0  0  0  0  0  0  0  0  0
    2.4024   -1.2766    2.8677 H   0  0  0  0  0  0  0  0  0  0  0  0
    0.2247   -0.4099    2.1002 H   0  0  0  0  0  0  0  0  0  0  0  0
   -2.2743   -2.7536    0.2905 H   0  0  0  0  0  0  0  0  0  0  0  0
   -1.0255   -2.6459   -0.9827 H   0  0  0  0  0  0  0  0  0  0  0  0
   -2.6549   -1.9841   -1.2756 H   0  0  0  0  0  0  0  0  0  0  0  0
  1  2  1  0  0  0  0
  2  3  1  0  0  0  0
  3  4  1  0  0  0  0
  4  5  1  0  0  0  0
  5  6  4  0  0  0  0
  6  7  4  0  0  0  0
  7  8  4  0  0  0  0
  8  9  4  0  0  0  0
  5 10  4  0  0  0  0
  9 10  4  0  0  0  0
  3 11  1  0  0  0  0
 11 12  1  0  0  0  0
  1 13  1  0  0  0  0
  1 14  1  0  0  0  0
  1 15  1  0  0  0  0
  3 16  1  0  0  0  0
  4 17  1  0  0  0  0
  4 18  1  0  0  0  0
  6 19  1  0  0  0  0
  7 20  1  0  0  0  0
  8 21  1  0  0  0  0
  9 22  1  0  0  0  0
 10 23  1  0  0  0  0
 12 24  1  0  0  0  0
 12 25  1  0  0  0  0
 12 26  1  0  0  0  0
M  END
