 xtb: 6.7.1 (edcfbbe)
          07072607103D

 29 28  0     0  0            999 V2000
   -3.3063   -0.5018    0.9294 C   0  0  0  0  0  0  0  0  0  0  0  0
   -2.7572    0.2236   -0.2971 C   0  0  0  0  0  0  0  0  0  0  0  0
   -3.3434    1.6325   -0.3751 C   0  0  0  0  0  0  0  0  0  0  0  0
   -1.2276    0.3018   -0.2701 C   0  0  0  0  0  0  0  0  0  0  0  0
   -0.5533   -1.0688   -0.3821 C   0  0  0  0  0  0  0  0  0  0  0  0
    0.8161   -0.9979   -0.7166 O   0  0  0  0  0  0  0  0  0  0  0  0
    1.6521   -0.5089    0.3123 C   0  0  0  0  0  0  0  0  0  0  0  0
    3.0984   -0.6934   -0.1569 C   0  0  0  0  0  0  0  0  0  0  0  0
    3.2833   -0.0652   -1.4074 O   0  0  0  0  0  0  0  0  0  0  0  0
    4.0876   -0.0458    0.8205 C   0  0  0  0  0  0  0  0  0  0  0  0
    3.8919    1.3396    0.8963 O   0  0  0  0  0  0  0  0  0  0  0  0
   -2.9789   -0.0059    1.8408 H   0  0  0  0  0  0  0  0  0  0  0  0
   -4.3938   -0.4990    0.9114 H   0  0  0  0  0  0  0  0  0  0  0  0
   -2.9717   -1.5353    0.9570 H   0  0  0  0  0  0  0  0  0  0  0  0
   -3.0602   -0.3287   -1.1940 H   0  0  0  0  0  0  0  0  0  0  0  0
   -2.9853    2.1512   -1.2613 H   0  0  0  0  0  0  0  0  0  0  0  0
   -3.0568    2.2109    0.5007 H   0  0  0  0  0  0  0  0  0  0  0  0
   -4.4292    1.5918   -0.4180 H   0  0  0  0  0  0  0  0  0  0  0  0
   -0.9118    0.7967    0.6507 H   0  0  0  0  0  0  0  0  0  0  0  0
   -0.8875    0.9086   -1.1130 H   0  0  0  0  0  0  0  0  0  0  0  0
   -0.6720   -1.6357    0.5518 H   0  0  0  0  0  0  0  0  0  0  0  0
   -1.0061   -1.6373   -1.1995 H   0  0  0  0  0  0  0  0  0  0  0  0
    1.4686    0.5574    0.4981 H   0  0  0  0  0  0  0  0  0  0  0  0
    1.4851   -1.0661    1.2445 H   0  0  0  0  0  0  0  0  0  0  0  0
    3.3135   -1.7697   -0.2427 H   0  0  0  0  0  0  0  0  0  0  0  0
    2.5183   -0.2960   -1.9490 H   0  0  0  0  0  0  0  0  0  0  0  0
    5.1082   -0.2736    0.4832 H   0  0  0  0  0  0  0  0  0  0  0  0
    3.9454   -0.4453    1.8262 H   0  0  0  0  0  0  0  0  0  0  0  0
    3.8726    1.6602   -0.0159 H   0  0  0  0  0  0  0  0  0  0  0  0
  1  2  1  0  0  0  0
  2  3  1  0  0  0  0
  2  4  1  0  0  0  0
  4  5  1  0  0  0  0
  5  6  1  0  0  0  0
  6  7  1  0  0  0  0
  7  8  1  0  0  0  0
  8  9  1  0  0  0  0
  8 10  1  0  0  0  0
 10 11  1  0  0  0  0
  1 12  1  0  0  0  0
  1 13  1  0  0  0  0
  1 14  1  0  0  0  0
  2 15  1  0  0  0  0
  3 16  1  0  0  0  0
  3 17  1  0  0  0  0
  3 18  1  0  0  0  0
  4 19  1  0  0  0  0
  4 20  1  0  0  0  0
  5 21  1  0  0  0  0
  5 22  1  0  0  0  0
  7 23  1  0  0  0  0
  7 24  1  0  0  0  0
  8 25  1  0  0  0  0
  9 26  1  0  0  0  0
 10 27  1  0  0  0  0
 10 28  1  0  0  0  0
 11 29  1  0  0  0  0
M  END
