 xtb: 6.7.1 (edcfbbe)
          07072618083D

 33 32  0     0  0            999 V2000
    5.4259    1.4835   -1.3143 C   0  0  0  0  0  0  0  0  0  0  0  0
    4.5436    0.5071   -1.2173 C   0  0  0  0  0  0  0  0  0  0  0  0
    4.2938   -0.2800    0.0299 C   0  0  0  0  0  0  0  0  0  0  0  0
    2.9259    0.0312    0.6527 C   0  0  0  0  0  0  0  0  0  0  0  0
    1.7523   -0.4179   -0.2144 C   0  0  0  0  0  0  0  0  0  0  0  0
    0.4135   -0.1868    0.4824 C   0  0  0  0  0  0  0  0  0  0  0  0
   -0.7656   -0.6276   -0.3814 C   0  0  0  0  0  0  0  0  0  0  0  0
   -2.1036   -0.3975    0.3162 C   0  0  0  0  0  0  0  0  0  0  0  0
   -3.2801   -0.8367   -0.5522 C   0  0  0  0  0  0  0  0  0  0  0  0
   -4.6182   -0.6214    0.1520 C   0  0  0  0  0  0  0  0  0  0  0  0
   -4.9680    0.8401    0.2713 C   0  0  0  0  0  0  0  0  0  0  0  0
   -4.6152    1.7170   -0.4690 O   0  0  0  0  0  0  0  0  0  0  0  0
   -5.7706    1.0698    1.3222 O   0  0  0  0  0  0  0  0  0  0  0  0
    5.5723    2.0356   -2.2272 H   0  0  0  0  0  0  0  0  0  0  0  0
    6.0456    1.7711   -0.4802 H   0  0  0  0  0  0  0  0  0  0  0  0
    3.9385    0.2377   -2.0726 H   0  0  0  0  0  0  0  0  0  0  0  0
    4.3415   -1.3480   -0.2006 H   0  0  0  0  0  0  0  0  0  0  0  0
    5.0725   -0.0533    0.7612 H   0  0  0  0  0  0  0  0  0  0  0  0
    2.8632   -0.4723    1.6209 H   0  0  0  0  0  0  0  0  0  0  0  0
    2.8540    1.1063    0.8325 H   0  0  0  0  0  0  0  0  0  0  0  0
    1.8593   -1.4809   -0.4458 H   0  0  0  0  0  0  0  0  0  0  0  0
    1.7594    0.1315   -1.1571 H   0  0  0  0  0  0  0  0  0  0  0  0
    0.3092    0.8746    0.7187 H   0  0  0  0  0  0  0  0  0  0  0  0
    0.3963   -0.7380    1.4260 H   0  0  0  0  0  0  0  0  0  0  0  0
   -0.7517   -0.0725   -1.3218 H   0  0  0  0  0  0  0  0  0  0  0  0
   -0.6608   -1.6887   -0.6217 H   0  0  0  0  0  0  0  0  0  0  0  0
   -2.2090    0.6637    0.5501 H   0  0  0  0  0  0  0  0  0  0  0  0
   -2.1197   -0.9514    1.2585 H   0  0  0  0  0  0  0  0  0  0  0  0
   -3.1732   -1.8937   -0.8036 H   0  0  0  0  0  0  0  0  0  0  0  0
   -3.2774   -0.2619   -1.4797 H   0  0  0  0  0  0  0  0  0  0  0  0
   -5.4229   -1.0880   -0.4229 H   0  0  0  0  0  0  0  0  0  0  0  0
   -4.6221   -1.0622    1.1496 H   0  0  0  0  0  0  0  0  0  0  0  0
   -6.0086    2.0095    1.3680 H   0  0  0  0  0  0  0  0  0  0  0  0
  1  2  2  0  0  0  0
  2  3  1  0  0  0  0
  3  4  1  0  0  0  0
  4  5  1  0  0  0  0
  5  6  1  0  0  0  0
  6  7  1  0  0  0  0
  7  8  1  0  0  0  0
  8  9  1  0  0  0  0
  9 10  1  0  0  0  0
 10 11  1  0  0  0  0
 11 12  2  0  0  0  0
 11 13  1  0  0  0  0
  1 14  1  0  0  0  0
  1 15  1  0  0  0  0
  2 16  1  0  0  0  0
  3 17  1  0  0  0  0
  3 18  1  0  0  0  0
  4 19  1  0  0  0  0
  4 20  1  0  0  0  0
  5 21  1  0  0  0  0
  5 22  1  0  0  0  0
  6 23  1  0  0  0  0
  6 24  1  0  0  0  0
  7 25  1  0  0  0  0
  7 26  1  0  0  0  0
  8 27  1  0  0  0  0
  8 28  1  0  0  0  0
  9 29  1  0  0  0  0
  9 30  1  0  0  0  0
 10 31  1  0  0  0  0
 10 32  1  0  0  0  0
 13 33  1  0  0  0  0
M  END
